
     RDKit          3D

 45 48  0  0  0  0  0  0  0  0999 V2000
  140.6670   71.6060  221.2580 O   0  0  0  0  0  0  0  0  0  0  0  0
  140.2390   72.1480  222.3170 C   0  0  0  0  0  0  0  0  0  0  0  0
  139.8430   73.5140  222.3280 N   0  0  0  0  0  0  0  0  0  0  0  0
  139.9210   74.3100  221.1350 C   0  0  0  0  0  0  0  0  0  0  0  0
  141.0600   75.2420  221.1290 C   0  0  0  0  0  0  0  0  0  0  0  0
  142.2310   74.7750  221.1700 O   0  0  0  0  0  0  0  0  0  0  0  0
  140.7790   76.6350  221.0760 N   0  0  0  0  0  0  0  0  0  0  0  0
  139.4930   77.3090  221.2950 C   0  0  0  0  0  0  0  0  0  0  0  0
  139.5440   78.5530  220.4400 C   0  0  2  0  0  0  0  0  0  0  0  0
  138.5070   78.5650  219.4980 O   0  0  0  0  0  0  0  0  0  0  0  0
  140.8970   78.4960  219.7660 C   0  0  0  0  0  0  0  0  0  0  0  0
  141.7080   77.7070  220.7920 C   0  0  1  0  0  0  0  0  0  0  0  0
  141.8000   78.5360  222.0080 C   0  0  0  0  0  0  0  0  0  0  0  0
  141.6740   78.3870  223.1780 N   0  0  0  0  0  0  0  0  0  0  0  0
  141.7920   79.2500  224.1530 C   0  0  0  0  0  0  0  0  0  0  0  0
  142.1130   80.5360  223.7680 C   0  0  0  0  0  0  0  0  0  0  0  0
  142.2190   80.3580  221.9040 S   0  0  0  0  0  0  0  0  0  0  0  0
  140.1440   71.3630  223.5590 C   0  0  0  0  0  0  0  0  0  0  0  0
  139.5870   70.1020  223.5280 C   0  0  0  0  0  0  0  0  0  0  0  0
  139.5330   69.4210  224.7480 C   0  0  0  0  0  0  0  0  0  0  0  0
  140.0090   69.9770  225.9170 C   0  0  0  0  0  0  0  0  0  0  0  0
  139.9730   69.3350  227.1360 C   0  0  0  0  0  0  0  0  0  0  0  0
  140.4720   69.9610  228.2700 C   0  0  0  0  0  0  0  0  0  0  0  0
  141.0190   71.2360  228.2240 C   0  0  0  0  0  0  0  0  0  0  0  0
  141.0570   71.8800  227.0040 C   0  0  0  0  0  0  0  0  0  0  0  0
  140.5560   71.2400  225.8910 C   0  0  0  0  0  0  0  0  0  0  0  0
  140.5970   71.8730  224.7170 N   0  0  0  0  0  0  0  0  0  0  0  0
  139.4970   73.8990  223.2350 H   0  0  0  0  0  0  0  0  0  0  0  0
  140.0174   73.6356  220.2713 H   0  0  0  0  0  0  0  0  0  0  0  0
  139.0044   74.9163  221.0880 H   0  0  0  0  0  0  0  0  0  0  0  0
  138.6605   76.6611  220.9832 H   0  0  0  0  0  0  0  0  0  0  0  0
  139.3306   77.5475  222.3565 H   0  0  0  0  0  0  0  0  0  0  0  0
  139.4144   79.4701  221.0335 H   0  0  0  0  0  0  0  0  0  0  0  0
  138.9360   78.6730  218.6100 H   0  0  0  0  0  0  0  0  0  0  0  0
  140.8450   77.9688  218.8020 H   0  0  0  0  0  0  0  0  0  0  0  0
  141.3193   79.4810  219.5183 H   0  0  0  0  0  0  0  0  0  0  0  0
  142.7158   77.4005  220.4751 H   0  0  0  0  0  0  0  0  0  0  0  0
  141.6457   78.9706  225.2068 H   0  0  0  0  0  0  0  0  0  0  0  0
  142.2663   81.4299  224.3905 H   0  0  0  0  0  0  0  0  0  0  0  0
  139.2068   69.6571  222.5966 H   0  0  0  0  0  0  0  0  0  0  0  0
  139.0977   68.4112  224.7763 H   0  0  0  0  0  0  0  0  0  0  0  0
  139.5475   68.3234  227.2105 H   0  0  0  0  0  0  0  0  0  0  0  0
  140.4328   69.4312  229.2332 H   0  0  0  0  0  0  0  0  0  0  0  0
  141.4101   71.7182  229.1320 H   0  0  0  0  0  0  0  0  0  0  0  0
  141.4818   72.8913  226.9210 H   0  0  0  0  0  0  0  0  0  0  0  0
  1  2  2  0
  2  3  1  0
  3  4  1  0
  4  5  1  0
  5  6  2  0
  5  7  1  0
  7  8  1  0
  8  9  1  0
  9 10  1  0
  9 11  1  0
 11 12  1  0
 12 13  1  0
 13 14  2  0
 14 15  1  0
 15 16  2  0
 16 17  1  0
  2 18  1  0
 18 19  2  0
 19 20  1  0
 20 21  2  0
 21 22  1  0
 22 23  2  0
 23 24  1  0
 24 25  2  0
 25 26  1  0
 26 27  2  0
 12  7  1  0
 17 13  1  0
 27 18  1  0
 26 21  1  0
  3 28  1  0
  4 29  1  0
  4 30  1  0
  8 31  1  0
  8 32  1  0
  9 33  1  1
 10 34  1  0
 11 35  1  0
 11 36  1  0
 12 37  1  6
 15 38  1  0
 16 39  1  0
 19 40  1  0
 20 41  1  0
 22 42  1  0
 23 43  1  0
 24 44  1  0
 25 45  1  0
M  END
>  <smiles>  (1) 
O=C(NCC(=O)N1C[C@H](O)C[C@H]1c1nccs1)c1ccc2ccccc2n1

>  <score_type>  (1) 
oracle

>  <origin>  (1) 
autodockgpu

>  <m_score__min__energy>  (1) 
-7.9100000000000001

>  <m_primary>  (1) 
energy

>  <rmsd>  (1) 
2.0682729119373198

>  <m_score__min__rmsd>  (1) 
2.0682729119373198

>  <meeko>  (1) 
{"free_energy": -7.7, "intermolecular_energy": -9.49, "internal_energy": -1.27, "cluster_size": 24, "cluster_id": 1, "rank_in_cluster": 9}

>  <energy>  (1) 
-7.91

>  <cluster_rmsd>  (1) 
0.0

>  <cluster>  (1) 
1

$$$$

     RDKit          3D

 45 48  0  0  0  0  0  0  0  0999 V2000
  141.4590   72.1270  221.7140 O   0  0  0  0  0  0  0  0  0  0  0  0
  140.4840   72.3710  222.4820 C   0  0  0  0  0  0  0  0  0  0  0  0
  139.6020   73.4550  222.2170 N   0  0  0  0  0  0  0  0  0  0  0  0
  139.7970   74.2970  221.0700 C   0  0  0  0  0  0  0  0  0  0  0  0
  140.8180   75.3350  221.2760 C   0  0  0  0  0  0  0  0  0  0  0  0
  140.7070   76.1150  222.2610 O   0  0  0  0  0  0  0  0  0  0  0  0
  141.8910   75.4070  220.3440 N   0  0  0  0  0  0  0  0  0  0  0  0
  142.7560   76.5550  220.0450 C   0  0  0  0  0  0  0  0  0  0  0  0
  143.1560   76.3870  218.5990 C   0  0  2  0  0  0  0  0  0  0  0  0
  142.7470   77.4830  217.8270 O   0  0  0  0  0  0  0  0  0  0  0  0
  142.4620   75.1170  218.1570 C   0  0  0  0  0  0  0  0  0  0  0  0
  142.3710   74.3540  219.4770 C   0  0  1  0  0  0  0  0  0  0  0  0
  143.7500   74.0400  219.8970 C   0  0  0  0  0  0  0  0  0  0  0  0
  144.4060   74.1370  220.8790 N   0  0  0  0  0  0  0  0  0  0  0  0
  145.6520   73.8010  221.0940 C   0  0  0  0  0  0  0  0  0  0  0  0
  146.3110   73.2500  220.0140 C   0  0  0  0  0  0  0  0  0  0  0  0
  144.9700   73.2710  218.7030 S   0  0  0  0  0  0  0  0  0  0  0  0
  140.2520   71.5300  223.6680 C   0  0  0  0  0  0  0  0  0  0  0  0
  139.5640   70.3420  223.5360 C   0  0  0  0  0  0  0  0  0  0  0  0
  139.3840   69.6000  224.7070 C   0  0  0  0  0  0  0  0  0  0  0  0
  139.8650   70.0300  225.9260 C   0  0  0  0  0  0  0  0  0  0  0  0
  139.7070   69.3250  227.0990 C   0  0  0  0  0  0  0  0  0  0  0  0
  140.2210   69.8230  228.2880 C   0  0  0  0  0  0  0  0  0  0  0  0
  140.9040   71.0310  228.3440 C   0  0  0  0  0  0  0  0  0  0  0  0
  141.0640   71.7380  227.1700 C   0  0  0  0  0  0  0  0  0  0  0  0
  140.5460   71.2240  226.0000 C   0  0  0  0  0  0  0  0  0  0  0  0
  140.7070   71.9170  224.8720 N   0  0  0  0  0  0  0  0  0  0  0  0
  138.8170   73.6010  222.8910 H   0  0  0  0  0  0  0  0  0  0  0  0
  140.1060   73.6668  220.2230 H   0  0  0  0  0  0  0  0  0  0  0  0
  138.8439   74.8116  220.8784 H   0  0  0  0  0  0  0  0  0  0  0  0
  142.2072   77.4979  220.1858 H   0  0  0  0  0  0  0  0  0  0  0  0
  143.6310   76.5933  220.7106 H   0  0  0  0  0  0  0  0  0  0  0  0
  144.2475   76.3290  218.4755 H   0  0  0  0  0  0  0  0  0  0  0  0
  143.5660   78.0010  217.6180 H   0  0  0  0  0  0  0  0  0  0  0  0
  141.4647   75.3259  217.7425 H   0  0  0  0  0  0  0  0  0  0  0  0
  142.9836   74.5728  217.3559 H   0  0  0  0  0  0  0  0  0  0  0  0
  141.7699   73.4329  219.4588 H   0  0  0  0  0  0  0  0  0  0  0  0
  146.1406   73.9476  222.0685 H   0  0  0  0  0  0  0  0  0  0  0  0
  147.3488   72.8928  219.9413 H   0  0  0  0  0  0  0  0  0  0  0  0
  139.1789   69.9980  222.5647 H   0  0  0  0  0  0  0  0  0  0  0  0
  138.8423   68.6441  224.6546 H   0  0  0  0  0  0  0  0  0  0  0  0
  139.1716   68.3641  227.0931 H   0  0  0  0  0  0  0  0  0  0  0  0
  140.0834   69.2440  229.2131 H   0  0  0  0  0  0  0  0  0  0  0  0
  141.3049   71.4122  229.2947 H   0  0  0  0  0  0  0  0  0  0  0  0
  141.5981   72.6996  227.1674 H   0  0  0  0  0  0  0  0  0  0  0  0
  1  2  2  0
  2  3  1  0
  3  4  1  0
  4  5  1  0
  5  6  2  0
  5  7  1  0
  7  8  1  0
  8  9  1  0
  9 10  1  0
  9 11  1  0
 11 12  1  0
 12 13  1  0
 13 14  2  0
 14 15  1  0
 15 16  2  0
 16 17  1  0
  2 18  1  0
 18 19  2  0
 19 20  1  0
 20 21  2  0
 21 22  1  0
 22 23  2  0
 23 24  1  0
 24 25  2  0
 25 26  1  0
 26 27  2  0
 12  7  1  0
 17 13  1  0
 27 18  1  0
 26 21  1  0
  3 28  1  0
  4 29  1  0
  4 30  1  0
  8 31  1  0
  8 32  1  0
  9 33  1  1
 10 34  1  0
 11 35  1  0
 11 36  1  0
 12 37  1  6
 15 38  1  0
 16 39  1  0
 19 40  1  0
 20 41  1  0
 22 42  1  0
 23 43  1  0
 24 44  1  0
 25 45  1  0
M  END
>  <smiles>  (2) 
O=C(NCC(=O)N1C[C@H](O)C[C@H]1c1nccs1)c1ccc2ccccc2n1

>  <score_type>  (2) 
oracle

>  <origin>  (2) 
autodockgpu

>  <m_score__min__energy>  (2) 
-7.9100000000000001

>  <m_primary>  (2) 
energy

>  <rmsd>  (2) 
3.580336207070986

>  <m_score__min__rmsd>  (2) 
3.580336207070986

>  <meeko>  (2) 
{"free_energy": -7.89, "intermolecular_energy": -9.68, "internal_energy": -1.44, "cluster_size": 11, "cluster_id": 2, "rank_in_cluster": 2}

>  <energy>  (2) 
-7.91

>  <cluster_rmsd>  (2) 
0.5

>  <cluster>  (2) 
1

$$$$

     RDKit          3D

 45 48  0  0  0  0  0  0  0  0999 V2000
  141.4220   72.2180  221.8050 O   0  0  0  0  0  0  0  0  0  0  0  0
  140.4070   72.4050  222.5370 C   0  0  0  0  0  0  0  0  0  0  0  0
  139.4770   73.4400  222.2400 N   0  0  0  0  0  0  0  0  0  0  0  0
  139.6690   74.2970  221.1040 C   0  0  0  0  0  0  0  0  0  0  0  0
  140.6470   75.3700  221.3410 C   0  0  0  0  0  0  0  0  0  0  0  0
  141.8770   75.1050  221.2570 O   0  0  0  0  0  0  0  0  0  0  0  0
  140.1500   76.6640  221.6560 N   0  0  0  0  0  0  0  0  0  0  0  0
  139.1480   77.0300  222.6650 C   0  0  0  0  0  0  0  0  0  0  0  0
  138.4650   78.2620  222.1220 C   0  0  2  0  0  0  0  0  0  0  0  0
  137.0890   78.0510  221.9590 O   0  0  0  0  0  0  0  0  0  0  0  0
  139.1420   78.5180  220.7940 C   0  0  0  0  0  0  0  0  0  0  0  0
  140.5250   77.9210  221.0450 C   0  0  1  0  0  0  0  0  0  0  0  0
  141.1710   78.7370  222.0900 C   0  0  0  0  0  0  0  0  0  0  0  0
  141.5990   78.5740  223.1840 N   0  0  0  0  0  0  0  0  0  0  0  0
  142.1570   79.4280  224.0030 C   0  0  0  0  0  0  0  0  0  0  0  0
  142.2670   80.7180  223.5280 C   0  0  0  0  0  0  0  0  0  0  0  0
  141.5000   80.5610  221.8240 S   0  0  0  0  0  0  0  0  0  0  0  0
  140.1770   71.5470  223.7100 C   0  0  0  0  0  0  0  0  0  0  0  0
  139.4270   70.3970  223.5780 C   0  0  0  0  0  0  0  0  0  0  0  0
  139.2530   69.6360  224.7370 C   0  0  0  0  0  0  0  0  0  0  0  0
  139.7990   70.0120  225.9460 C   0  0  0  0  0  0  0  0  0  0  0  0
  139.6480   69.2870  227.1080 C   0  0  0  0  0  0  0  0  0  0  0  0
  140.2290   69.7300  228.2890 C   0  0  0  0  0  0  0  0  0  0  0  0
  140.9720   70.9020  228.3470 C   0  0  0  0  0  0  0  0  0  0  0  0
  141.1240   71.6290  227.1840 C   0  0  0  0  0  0  0  0  0  0  0  0
  140.5390   71.1700  226.0230 C   0  0  0  0  0  0  0  0  0  0  0  0
  140.6930   71.8820  224.9050 N   0  0  0  0  0  0  0  0  0  0  0  0
  138.6600   73.5400  222.8840 H   0  0  0  0  0  0  0  0  0  0  0  0
  140.0206   73.6846  220.2606 H   0  0  0  0  0  0  0  0  0  0  0  0
  138.7028   74.7787  220.8933 H   0  0  0  0  0  0  0  0  0  0  0  0
  138.4217   76.2149  222.7997 H   0  0  0  0  0  0  0  0  0  0  0  0
  139.6056   77.2152  223.6480 H   0  0  0  0  0  0  0  0  0  0  0  0
  138.5529   79.1199  222.8049 H   0  0  0  0  0  0  0  0  0  0  0  0
  136.9740   77.0840  221.7720 H   0  0  0  0  0  0  0  0  0  0  0  0
  138.6239   78.0028  219.9717 H   0  0  0  0  0  0  0  0  0  0  0  0
  139.1553   79.5753  220.4909 H   0  0  0  0  0  0  0  0  0  0  0  0
  141.1848   77.8524  220.1676 H   0  0  0  0  0  0  0  0  0  0  0  0
  142.5139   79.1371  225.0020 H   0  0  0  0  0  0  0  0  0  0  0  0
  142.6926   81.6054  224.0193 H   0  0  0  0  0  0  0  0  0  0  0  0
  138.9903   70.0958  222.6144 H   0  0  0  0  0  0  0  0  0  0  0  0
  138.6628   68.7093  224.6832 H   0  0  0  0  0  0  0  0  0  0  0  0
  139.0652   68.3541  227.1001 H   0  0  0  0  0  0  0  0  0  0  0  0
  140.0969   69.1355  229.2050 H   0  0  0  0  0  0  0  0  0  0  0  0
  141.4252   71.2402  229.2906 H   0  0  0  0  0  0  0  0  0  0  0  0
  141.7047   72.5632  227.1832 H   0  0  0  0  0  0  0  0  0  0  0  0
  1  2  2  0
  2  3  1  0
  3  4  1  0
  4  5  1  0
  5  6  2  0
  5  7  1  0
  7  8  1  0
  8  9  1  0
  9 10  1  0
  9 11  1  0
 11 12  1  0
 12 13  1  0
 13 14  2  0
 14 15  1  0
 15 16  2  0
 16 17  1  0
  2 18  1  0
 18 19  2  0
 19 20  1  0
 20 21  2  0
 21 22  1  0
 22 23  2  0
 23 24  1  0
 24 25  2  0
 25 26  1  0
 26 27  2  0
 12  7  1  0
 17 13  1  0
 27 18  1  0
 26 21  1  0
  3 28  1  0
  4 29  1  0
  4 30  1  0
  8 31  1  0
  8 32  1  0
  9 33  1  1
 10 34  1  0
 11 35  1  0
 11 36  1  0
 12 37  1  6
 15 38  1  0
 16 39  1  0
 19 40  1  0
 20 41  1  0
 22 42  1  0
 23 43  1  0
 24 44  1  0
 25 45  1  0
M  END
>  <smiles>  (3) 
O=C(NCC(=O)N1C[C@H](O)C[C@H]1c1nccs1)c1ccc2ccccc2n1

>  <score_type>  (3) 
oracle

>  <origin>  (3) 
autodockgpu

>  <m_score__min__energy>  (3) 
-7.9100000000000001

>  <m_primary>  (3) 
energy

>  <rmsd>  (3) 
2.534634454789594

>  <m_score__min__rmsd>  (3) 
2.534634454789594

>  <meeko>  (3) 
{"free_energy": -7.78, "intermolecular_energy": -9.57, "internal_energy": -1.13, "cluster_size": 24, "cluster_id": 1, "rank_in_cluster": 4}

>  <energy>  (3) 
-7.78

>  <cluster_rmsd>  (3) 
0.47

>  <cluster>  (3) 
1

$$$$

     RDKit          3D

 45 48  0  0  0  0  0  0  0  0999 V2000
  140.2050   71.1870  221.1760 O   0  0  0  0  0  0  0  0  0  0  0  0
  140.1020   71.8680  222.2370 C   0  0  0  0  0  0  0  0  0  0  0  0
  140.0210   73.2870  222.1870 N   0  0  0  0  0  0  0  0  0  0  0  0
  140.0530   73.9800  220.9290 C   0  0  0  0  0  0  0  0  0  0  0  0
  141.4030   74.4130  220.5370 C   0  0  0  0  0  0  0  0  0  0  0  0
  141.7000   75.6360  220.6170 O   0  0  0  0  0  0  0  0  0  0  0  0
  142.3140   73.4200  220.0820 N   0  0  0  0  0  0  0  0  0  0  0  0
  142.0400   72.2710  219.2100 C   0  0  0  0  0  0  0  0  0  0  0  0
  143.0280   71.2080  219.6290 C   0  0  2  0  0  0  0  0  0  0  0  0
  142.3730   70.0470  220.0630 O   0  0  0  0  0  0  0  0  0  0  0  0
  143.8170   71.8440  220.7520 C   0  0  0  0  0  0  0  0  0  0  0  0
  143.7260   73.3220  220.3790 C   0  0  1  0  0  0  0  0  0  0  0  0
  144.4520   73.4990  219.1080 C   0  0  0  0  0  0  0  0  0  0  0  0
  145.4600   73.1110  218.6180 N   0  0  0  0  0  0  0  0  0  0  0  0
  145.9770   73.3700  217.4440 C   0  0  0  0  0  0  0  0  0  0  0  0
  145.2420   74.2260  216.6500 C   0  0  0  0  0  0  0  0  0  0  0  0
  143.7730   74.5990  217.7540 S   0  0  0  0  0  0  0  0  0  0  0  0
  140.0660   71.1930  223.5450 C   0  0  0  0  0  0  0  0  0  0  0  0
  139.5500   69.9180  223.6400 C   0  0  0  0  0  0  0  0  0  0  0  0
  139.5500   69.3450  224.9150 C   0  0  0  0  0  0  0  0  0  0  0  0
  140.0380   70.0150  226.0170 C   0  0  0  0  0  0  0  0  0  0  0  0
  140.0540   69.4810  227.2870 C   0  0  0  0  0  0  0  0  0  0  0  0
  140.5620   70.2180  228.3480 C   0  0  0  0  0  0  0  0  0  0  0  0
  141.0660   71.5010  228.1760 C   0  0  0  0  0  0  0  0  0  0  0  0
  141.0510   72.0360  226.9040 C   0  0  0  0  0  0  0  0  0  0  0  0
  140.5420   71.2860  225.8660 C   0  0  0  0  0  0  0  0  0  0  0  0
  140.5330   71.8150  224.6410 N   0  0  0  0  0  0  0  0  0  0  0  0
  139.9370   73.7880  223.0990 H   0  0  0  0  0  0  0  0  0  0  0  0
  139.6620   73.3084  220.1505 H   0  0  0  0  0  0  0  0  0  0  0  0
  139.4400   74.8865  221.0409 H   0  0  0  0  0  0  0  0  0  0  0  0
  141.0086   71.9162  219.3529 H   0  0  0  0  0  0  0  0  0  0  0  0
  142.1430   72.5300  218.1459 H   0  0  0  0  0  0  0  0  0  0  0  0
  143.6726   70.8898  218.7964 H   0  0  0  0  0  0  0  0  0  0  0  0
  141.4970   70.3380  220.4250 H   0  0  0  0  0  0  0  0  0  0  0  0
  143.3558   71.6462  221.7309 H   0  0  0  0  0  0  0  0  0  0  0  0
  144.8453   71.4661  220.8515 H   0  0  0  0  0  0  0  0  0  0  0  0
  144.1115   74.0307  221.1268 H   0  0  0  0  0  0  0  0  0  0  0  0
  146.9317   72.9352  217.1131 H   0  0  0  0  0  0  0  0  0  0  0  0
  145.4603   74.5930  215.6363 H   0  0  0  0  0  0  0  0  0  0  0  0
  139.1603   69.3819  222.7620 H   0  0  0  0  0  0  0  0  0  0  0  0
  139.1486   68.3289  225.0431 H   0  0  0  0  0  0  0  0  0  0  0  0
  139.6631   68.4676  227.4607 H   0  0  0  0  0  0  0  0  0  0  0  0
  140.5655   69.7732  229.3541 H   0  0  0  0  0  0  0  0  0  0  0  0
  141.4646   72.0726  229.0271 H   0  0  0  0  0  0  0  0  0  0  0  0
  141.4404   73.0484  226.7210 H   0  0  0  0  0  0  0  0  0  0  0  0
  1  2  2  0
  2  3  1  0
  3  4  1  0
  4  5  1  0
  5  6  2  0
  5  7  1  0
  7  8  1  0
  8  9  1  0
  9 10  1  0
  9 11  1  0
 11 12  1  0
 12 13  1  0
 13 14  2  0
 14 15  1  0
 15 16  2  0
 16 17  1  0
  2 18  1  0
 18 19  2  0
 19 20  1  0
 20 21  2  0
 21 22  1  0
 22 23  2  0
 23 24  1  0
 24 25  2  0
 25 26  1  0
 26 27  2  0
 12  7  1  0
 17 13  1  0
 27 18  1  0
 26 21  1  0
  3 28  1  0
  4 29  1  0
  4 30  1  0
  8 31  1  0
  8 32  1  0
  9 33  1  6
 10 34  1  0
 11 35  1  0
 11 36  1  0
 12 37  1  1
 15 38  1  0
 16 39  1  0
 19 40  1  0
 20 41  1  0
 22 42  1  0
 23 43  1  0
 24 44  1  0
 25 45  1  0
M  END
>  <smiles>  (4) 
O=C(NCC(=O)N1C[C@H](O)C[C@H]1c1nccs1)c1ccc2ccccc2n1

>  <score_type>  (4) 
oracle

>  <origin>  (4) 
autodockgpu

>  <m_score__min__energy>  (4) 
-7.9100000000000001

>  <m_primary>  (4) 
energy

>  <rmsd>  (4) 
4.520239891747262

>  <m_score__min__rmsd>  (4) 
4.520239891747262

>  <meeko>  (4) 
{"free_energy": -6.37, "intermolecular_energy": -8.16, "internal_energy": -2.47, "cluster_size": 11, "cluster_id": 2, "rank_in_cluster": 11}

>  <energy>  (4) 
-7.78

>  <cluster_rmsd>  (4) 
0.64

>  <cluster>  (4) 
1

$$$$

     RDKit          3D

 45 48  0  0  0  0  0  0  0  0999 V2000
  140.3850   71.1620  221.3250 O   0  0  0  0  0  0  0  0  0  0  0  0
  139.9840   71.6870  222.4030 C   0  0  0  0  0  0  0  0  0  0  0  0
  139.5610   73.0450  222.4390 N   0  0  0  0  0  0  0  0  0  0  0  0
  139.5810   73.8520  221.2500 C   0  0  0  0  0  0  0  0  0  0  0  0
  140.3120   75.1170  221.4160 C   0  0  0  0  0  0  0  0  0  0  0  0
  139.9210   75.9400  222.2870 O   0  0  0  0  0  0  0  0  0  0  0  0
  141.4370   75.3500  220.5760 N   0  0  0  0  0  0  0  0  0  0  0  0
  142.2510   76.5670  220.4700 C   0  0  0  0  0  0  0  0  0  0  0  0
  142.7530   76.5870  219.0450 C   0  0  2  0  0  0  0  0  0  0  0  0
  142.3310   77.7430  218.3740 O   0  0  0  0  0  0  0  0  0  0  0  0
  142.1640   75.3440  218.4170 C   0  0  0  0  0  0  0  0  0  0  0  0
  142.0330   74.4290  219.6330 C   0  0  1  0  0  0  0  0  0  0  0  0
  143.3970   74.1390  220.1110 C   0  0  0  0  0  0  0  0  0  0  0  0
  144.4340   74.7080  220.1880 N   0  0  0  0  0  0  0  0  0  0  0  0
  145.5860   74.2970  220.6520 C   0  0  0  0  0  0  0  0  0  0  0  0
  145.6040   73.0010  221.1260 C   0  0  0  0  0  0  0  0  0  0  0  0
  143.8300   72.4670  220.8350 S   0  0  0  0  0  0  0  0  0  0  0  0
  139.9490   70.8920  223.6420 C   0  0  0  0  0  0  0  0  0  0  0  0
  139.4870   69.5940  223.6050 C   0  0  0  0  0  0  0  0  0  0  0  0
  139.4850   68.9050  224.8220 C   0  0  0  0  0  0  0  0  0  0  0  0
  139.9200   69.4890  225.9930 C   0  0  0  0  0  0  0  0  0  0  0  0
  139.9330   68.8400  227.2090 C   0  0  0  0  0  0  0  0  0  0  0  0
  140.3860   69.4950  228.3450 C   0  0  0  0  0  0  0  0  0  0  0  0
  140.8370   70.8080  228.3050 C   0  0  0  0  0  0  0  0  0  0  0  0
  140.8260   71.4590  227.0880 C   0  0  0  0  0  0  0  0  0  0  0  0
  140.3720   70.7880  225.9720 C   0  0  0  0  0  0  0  0  0  0  0  0
  140.3650   71.4290  224.8020 N   0  0  0  0  0  0  0  0  0  0  0  0
  139.2400   73.4170  223.3610 H   0  0  0  0  0  0  0  0  0  0  0  0
  140.0600   73.2753  220.4450 H   0  0  0  0  0  0  0  0  0  0  0  0
  138.5377   74.1080  221.0133 H   0  0  0  0  0  0  0  0  0  0  0  0
  141.6403   77.4584  220.6761 H   0  0  0  0  0  0  0  0  0  0  0  0
  143.0771   76.5728  221.1963 H   0  0  0  0  0  0  0  0  0  0  0  0
  143.8517   76.5983  218.9923 H   0  0  0  0  0  0  0  0  0  0  0  0
  142.8450   78.4970  218.7630 H   0  0  0  0  0  0  0  0  0  0  0  0
  141.1848   75.5490  217.9597 H   0  0  0  0  0  0  0  0  0  0  0  0
  142.7669   74.9231  217.5989 H   0  0  0  0  0  0  0  0  0  0  0  0
  141.4896   73.4866  219.4697 H   0  0  0  0  0  0  0  0  0  0  0  0
  146.4785   74.9399  220.6635 H   0  0  0  0  0  0  0  0  0  0  0  0
  146.4389   72.4314  221.5601 H   0  0  0  0  0  0  0  0  0  0  0  0
  139.1397   69.1268  222.6717 H   0  0  0  0  0  0  0  0  0  0  0  0
  139.1255   67.8657  224.8459 H   0  0  0  0  0  0  0  0  0  0  0  0
  139.5831   67.7995  227.2789 H   0  0  0  0  0  0  0  0  0  0  0  0
  140.3880   68.9588  229.3054 H   0  0  0  0  0  0  0  0  0  0  0  0
  141.1920   71.3135  229.2152 H   0  0  0  0  0  0  0  0  0  0  0  0
  141.1748   72.4993  227.0093 H   0  0  0  0  0  0  0  0  0  0  0  0
  1  2  2  0
  2  3  1  0
  3  4  1  0
  4  5  1  0
  5  6  2  0
  5  7  1  0
  7  8  1  0
  8  9  1  0
  9 10  1  0
  9 11  1  0
 11 12  1  0
 12 13  1  0
 13 14  2  0
 14 15  1  0
 15 16  2  0
 16 17  1  0
  2 18  1  0
 18 19  2  0
 19 20  1  0
 20 21  2  0
 21 22  1  0
 22 23  2  0
 23 24  1  0
 24 25  2  0
 25 26  1  0
 26 27  2  0
 12  7  1  0
 17 13  1  0
 27 18  1  0
 26 21  1  0
  3 28  1  0
  4 29  1  0
  4 30  1  0
  8 31  1  0
  8 32  1  0
  9 33  1  1
 10 34  1  0
 11 35  1  0
 11 36  1  0
 12 37  1  6
 15 38  1  0
 16 39  1  0
 19 40  1  0
 20 41  1  0
 22 42  1  0
 23 43  1  0
 24 44  1  0
 25 45  1  0
M  END
>  <smiles>  (5) 
O=C(NCC(=O)N1C[C@H](O)C[C@H]1c1nccs1)c1ccc2ccccc2n1

>  <score_type>  (5) 
oracle

>  <origin>  (5) 
autodockgpu

>  <m_score__min__energy>  (5) 
-7.9100000000000001

>  <m_primary>  (5) 
energy

>  <rmsd>  (5) 
3.3372822686525074

>  <m_score__min__rmsd>  (5) 
3.3372822686525074

>  <meeko>  (5) 
{"free_energy": -7.62, "intermolecular_energy": -9.41, "internal_energy": -1.35, "cluster_size": 11, "cluster_id": 2, "rank_in_cluster": 5}

>  <energy>  (5) 
-7.78

>  <cluster_rmsd>  (5) 
0.51

>  <cluster>  (5) 
1

$$$$

     RDKit          3D

 45 48  0  0  0  0  0  0  0  0999 V2000
  139.0150   70.9430  221.4010 O   0  0  0  0  0  0  0  0  0  0  0  0
  139.3060   71.5940  222.4450 C   0  0  0  0  0  0  0  0  0  0  0  0
  139.3970   73.0140  222.4170 N   0  0  0  0  0  0  0  0  0  0  0  0
  139.1600   73.7400  221.2010 C   0  0  0  0  0  0  0  0  0  0  0  0
  139.3430   75.1930  221.3440 C   0  0  0  0  0  0  0  0  0  0  0  0
  138.4150   75.8780  221.8550 O   0  0  0  0  0  0  0  0  0  0  0  0
  140.5690   75.7560  220.8940 N   0  0  0  0  0  0  0  0  0  0  0  0
  141.4170   76.7420  221.5760 C   0  0  0  0  0  0  0  0  0  0  0  0
  142.0950   77.5170  220.4710 C   0  0  2  0  0  0  0  0  0  0  0  0
  141.7870   78.8820  220.5450 O   0  0  0  0  0  0  0  0  0  0  0  0
  141.5630   76.9040  219.1950 C   0  0  0  0  0  0  0  0  0  0  0  0
  141.2590   75.4790  219.6530 C   0  0  1  0  0  0  0  0  0  0  0  0
  142.5450   74.8480  220.0030 C   0  0  0  0  0  0  0  0  0  0  0  0
  143.6990   75.1050  219.9030 N   0  0  0  0  0  0  0  0  0  0  0  0
  144.7480   74.4170  220.2740 C   0  0  0  0  0  0  0  0  0  0  0  0
  144.4780   73.2050  220.8750 C   0  0  0  0  0  0  0  0  0  0  0  0
  142.6030   73.1760  220.8420 S   0  0  0  0  0  0  0  0  0  0  0  0
  139.5560   70.8840  223.7100 C   0  0  0  0  0  0  0  0  0  0  0  0
  139.2830   69.5360  223.8000 C   0  0  0  0  0  0  0  0  0  0  0  0
  139.5460   68.9340  225.0340 C   0  0  0  0  0  0  0  0  0  0  0  0
  140.0500   69.6460  226.1020 C   0  0  0  0  0  0  0  0  0  0  0  0
  140.3220   69.0860  227.3310 C   0  0  0  0  0  0  0  0  0  0  0  0
  140.8290   69.8680  228.3590 C   0  0  0  0  0  0  0  0  0  0  0  0
  141.0780   71.2240  228.1950 C   0  0  0  0  0  0  0  0  0  0  0  0
  140.8070   71.7870  226.9640 C   0  0  0  0  0  0  0  0  0  0  0  0
  140.3050   70.9900  225.9570 C   0  0  0  0  0  0  0  0  0  0  0  0
  140.0460   71.5460  224.7720 N   0  0  0  0  0  0  0  0  0  0  0  0
  139.6400   73.4900  223.3140 H   0  0  0  0  0  0  0  0  0  0  0  0
  139.8589   73.3741  220.4344 H   0  0  0  0  0  0  0  0  0  0  0  0
  138.1100   73.5705  220.9205 H   0  0  0  0  0  0  0  0  0  0  0  0
  140.8050   77.4124  222.1973 H   0  0  0  0  0  0  0  0  0  0  0  0
  142.1450   76.2625  222.2469 H   0  0  0  0  0  0  0  0  0  0  0  0
  143.1915   77.4572  220.5348 H   0  0  0  0  0  0  0  0  0  0  0  0
  142.6120   79.3410  220.8500 H   0  0  0  0  0  0  0  0  0  0  0  0
  140.6543   77.4185  218.8492 H   0  0  0  0  0  0  0  0  0  0  0  0
  142.2553   76.9656  218.3424 H   0  0  0  0  0  0  0  0  0  0  0  0
  140.7201   74.8472  218.9316 H   0  0  0  0  0  0  0  0  0  0  0  0
  145.7746   74.7799  220.1175 H   0  0  0  0  0  0  0  0  0  0  0  0
  145.1779   72.4537  221.2696 H   0  0  0  0  0  0  0  0  0  0  0  0
  138.8810   68.9663  222.9492 H   0  0  0  0  0  0  0  0  0  0  0  0
  139.3448   67.8596  225.1568 H   0  0  0  0  0  0  0  0  0  0  0  0
  140.1365   68.0147  227.4980 H   0  0  0  0  0  0  0  0  0  0  0  0
  141.0397   69.4001  229.3320 H   0  0  0  0  0  0  0  0  0  0  0  0
  141.4788   71.8309  229.0203 H   0  0  0  0  0  0  0  0  0  0  0  0
  140.9892   72.8576  226.7887 H   0  0  0  0  0  0  0  0  0  0  0  0
  1  2  2  0
  2  3  1  0
  3  4  1  0
  4  5  1  0
  5  6  2  0
  5  7  1  0
  7  8  1  0
  8  9  1  0
  9 10  1  0
  9 11  1  0
 11 12  1  0
 12 13  1  0
 13 14  2  0
 14 15  1  0
 15 16  2  0
 16 17  1  0
  2 18  1  0
 18 19  2  0
 19 20  1  0
 20 21  2  0
 21 22  1  0
 22 23  2  0
 23 24  1  0
 24 25  2  0
 25 26  1  0
 26 27  2  0
 12  7  1  0
 17 13  1  0
 27 18  1  0
 26 21  1  0
  3 28  1  0
  4 29  1  0
  4 30  1  0
  8 31  1  0
  8 32  1  0
  9 33  1  1
 10 34  1  0
 11 35  1  0
 11 36  1  0
 12 37  1  6
 15 38  1  0
 16 39  1  0
 19 40  1  0
 20 41  1  0
 22 42  1  0
 23 43  1  0
 24 44  1  0
 25 45  1  0
M  END
>  <smiles>  (6) 
O=C(NCC(=O)N1C[C@H](O)C[C@H]1c1nccs1)c1ccc2ccccc2n1

>  <score_type>  (6) 
oracle

>  <origin>  (6) 
autodockgpu

>  <m_score__min__energy>  (6) 
-7.9100000000000001

>  <m_primary>  (6) 
energy

>  <rmsd>  (6) 
3.1658344596002395

>  <m_score__min__rmsd>  (6) 
3.1658344596002395

>  <meeko>  (6) 
{"free_energy": -7.08, "intermolecular_energy": -8.87, "internal_energy": -1.64, "cluster_size": 11, "cluster_id": 2, "rank_in_cluster": 9}

>  <energy>  (6) 
-7.75

>  <cluster_rmsd>  (6) 
0.46

>  <cluster>  (6) 
1

$$$$

     RDKit          3D

 45 48  0  0  0  0  0  0  0  0999 V2000
  141.4050   72.2190  221.7030 O   0  0  0  0  0  0  0  0  0  0  0  0
  140.4690   72.4510  222.5220 C   0  0  0  0  0  0  0  0  0  0  0  0
  139.6200   73.5800  222.3570 N   0  0  0  0  0  0  0  0  0  0  0  0
  139.8050   74.4840  221.2570 C   0  0  0  0  0  0  0  0  0  0  0  0
  139.1380   75.7810  221.4480 C   0  0  0  0  0  0  0  0  0  0  0  0
  137.9480   75.8000  221.8650 O   0  0  0  0  0  0  0  0  0  0  0  0
  139.8760   76.9590  221.1490 N   0  0  0  0  0  0  0  0  0  0  0  0
  139.4650   78.1010  220.3230 C   0  0  0  0  0  0  0  0  0  0  0  0
  140.7430   78.6480  219.7330 C   0  0  2  0  0  0  0  0  0  0  0  0
  140.7110   78.6170  218.3320 O   0  0  0  0  0  0  0  0  0  0  0  0
  141.8290   77.7460  220.2760 C   0  0  0  0  0  0  0  0  0  0  0  0
  141.2090   77.2970  221.5980 C   0  0  1  0  0  0  0  0  0  0  0  0
  141.0910   78.4920  222.4530 C   0  0  0  0  0  0  0  0  0  0  0  0
  140.2530   79.0170  223.1080 N   0  0  0  0  0  0  0  0  0  0  0  0
  140.3090   80.1060  223.8290 C   0  0  0  0  0  0  0  0  0  0  0  0
  141.5300   80.7500  223.8330 C   0  0  0  0  0  0  0  0  0  0  0  0
  142.5470   79.6390  222.7150 S   0  0  0  0  0  0  0  0  0  0  0  0
  140.2480   71.5470  223.6630 C   0  0  0  0  0  0  0  0  0  0  0  0
  139.5750   70.3590  223.4700 C   0  0  0  0  0  0  0  0  0  0  0  0
  139.4050   69.5550  224.6020 C   0  0  0  0  0  0  0  0  0  0  0  0
  139.8810   69.9280  225.8410 C   0  0  0  0  0  0  0  0  0  0  0  0
  139.7320   69.1620  226.9760 C   0  0  0  0  0  0  0  0  0  0  0  0
  140.2400   69.6050  228.1900 C   0  0  0  0  0  0  0  0  0  0  0  0
  140.9070   70.8170  228.3080 C   0  0  0  0  0  0  0  0  0  0  0  0
  141.0570   71.5860  227.1710 C   0  0  0  0  0  0  0  0  0  0  0  0
  140.5460   71.1250  225.9770 C   0  0  0  0  0  0  0  0  0  0  0  0
  140.6970   71.8780  224.8850 N   0  0  0  0  0  0  0  0  0  0  0  0
  138.8660   73.7130  223.0690 H   0  0  0  0  0  0  0  0  0  0  0  0
  140.8830   74.6618  221.1294 H   0  0  0  0  0  0  0  0  0  0  0  0
  139.3532   74.0140  220.3710 H   0  0  0  0  0  0  0  0  0  0  0  0
  138.7820   77.7734  219.5254 H   0  0  0  0  0  0  0  0  0  0  0  0
  138.9278   78.8596  220.9111 H   0  0  0  0  0  0  0  0  0  0  0  0
  140.9054   79.7023  220.0016 H   0  0  0  0  0  0  0  0  0  0  0  0
  139.9840   77.9900  218.0810 H   0  0  0  0  0  0  0  0  0  0  0  0
  142.0154   76.8924  219.6078 H   0  0  0  0  0  0  0  0  0  0  0  0
  142.8099   78.2328  220.3799 H   0  0  0  0  0  0  0  0  0  0  0  0
  141.7497   76.5064  222.1388 H   0  0  0  0  0  0  0  0  0  0  0  0
  139.4433   80.4830  224.3933 H   0  0  0  0  0  0  0  0  0  0  0  0
  141.8280   81.6716  224.3543 H   0  0  0  0  0  0  0  0  0  0  0  0
  139.1936   70.0606  222.4823 H   0  0  0  0  0  0  0  0  0  0  0  0
  138.8755   68.5962  224.5006 H   0  0  0  0  0  0  0  0  0  0  0  0
  139.2088   68.1960  226.9205 H   0  0  0  0  0  0  0  0  0  0  0  0
  140.1103   68.9775  229.0841 H   0  0  0  0  0  0  0  0  0  0  0  0
  141.3036   71.1541  229.2771 H   0  0  0  0  0  0  0  0  0  0  0  0
  141.5776   72.5539  227.2176 H   0  0  0  0  0  0  0  0  0  0  0  0
  1  2  2  0
  2  3  1  0
  3  4  1  0
  4  5  1  0
  5  6  2  0
  5  7  1  0
  7  8  1  0
  8  9  1  0
  9 10  1  0
  9 11  1  0
 11 12  1  0
 12 13  1  0
 13 14  2  0
 14 15  1  0
 15 16  2  0
 16 17  1  0
  2 18  1  0
 18 19  2  0
 19 20  1  0
 20 21  2  0
 21 22  1  0
 22 23  2  0
 23 24  1  0
 24 25  2  0
 25 26  1  0
 26 27  2  0
 12  7  1  0
 17 13  1  0
 27 18  1  0
 26 21  1  0
  3 28  1  0
  4 29  1  0
  4 30  1  0
  8 31  1  0
  8 32  1  0
  9 33  1  6
 10 34  1  0
 11 35  1  0
 11 36  1  0
 12 37  1  1
 15 38  1  0
 16 39  1  0
 19 40  1  0
 20 41  1  0
 22 42  1  0
 23 43  1  0
 24 44  1  0
 25 45  1  0
M  END
>  <smiles>  (7) 
O=C(NCC(=O)N1C[C@H](O)C[C@H]1c1nccs1)c1ccc2ccccc2n1

>  <score_type>  (7) 
oracle

>  <origin>  (7) 
autodockgpu

>  <m_score__min__energy>  (7) 
-7.9100000000000001

>  <m_primary>  (7) 
energy

>  <rmsd>  (7) 
2.1711851107206144

>  <m_score__min__rmsd>  (7) 
2.1711851107206144

>  <meeko>  (7) 
{"free_energy": -7.59, "intermolecular_energy": -9.38, "internal_energy": -1.34, "cluster_size": 24, "cluster_id": 1, "rank_in_cluster": 20}

>  <energy>  (7) 
-7.75

>  <cluster_rmsd>  (7) 
0.65

>  <cluster>  (7) 
1

$$$$

     RDKit          3D

 45 48  0  0  0  0  0  0  0  0999 V2000
  139.1810   75.2560  221.0520 O   0  0  0  0  0  0  0  0  0  0  0  0
  140.2300   75.6870  221.6130 C   0  0  0  0  0  0  0  0  0  0  0  0
  141.3900   74.8700  221.7140 N   0  0  0  0  0  0  0  0  0  0  0  0
  141.3980   73.5360  221.1800 C   0  0  0  0  0  0  0  0  0  0  0  0
  142.4210   73.3280  220.1440 C   0  0  0  0  0  0  0  0  0  0  0  0
  142.9220   72.1800  220.0020 O   0  0  0  0  0  0  0  0  0  0  0  0
  142.7970   74.4450  219.3470 N   0  0  0  0  0  0  0  0  0  0  0  0
  143.5810   75.6200  219.7470 C   0  0  0  0  0  0  0  0  0  0  0  0
  143.0800   76.7490  218.8770 C   0  0  2  0  0  0  0  0  0  0  0  0
  142.5630   77.7960  219.6510 O   0  0  0  0  0  0  0  0  0  0  0  0
  142.0050   76.1190  218.0200 C   0  0  0  0  0  0  0  0  0  0  0  0
  142.4870   74.6720  217.9530 C   0  0  1  0  0  0  0  0  0  0  0  0
  143.7660   74.6700  217.2170 C   0  0  0  0  0  0  0  0  0  0  0  0
  144.2940   75.3280  216.3840 N   0  0  0  0  0  0  0  0  0  0  0  0
  145.4660   75.1880  215.8210 C   0  0  0  0  0  0  0  0  0  0  0  0
  146.2070   74.1100  216.2590 C   0  0  0  0  0  0  0  0  0  0  0  0
  145.0570   73.3510  217.5310 S   0  0  0  0  0  0  0  0  0  0  0  0
  140.2600   77.0480  222.1720 C   0  0  0  0  0  0  0  0  0  0  0  0
  139.0810   77.6600  222.5420 C   0  0  0  0  0  0  0  0  0  0  0  0
  139.1930   78.9520  223.0640 C   0  0  0  0  0  0  0  0  0  0  0  0
  140.4120   79.5820  223.2010 C   0  0  0  0  0  0  0  0  0  0  0  0
  140.5590   80.8530  223.7110 C   0  0  0  0  0  0  0  0  0  0  0  0
  141.8210   81.4210  223.8180 C   0  0  0  0  0  0  0  0  0  0  0  0
  142.9670   80.7430  223.4230 C   0  0  0  0  0  0  0  0  0  0  0  0
  142.8210   79.4690  222.9130 C   0  0  0  0  0  0  0  0  0  0  0  0
  141.5580   78.9250  222.8160 C   0  0  0  0  0  0  0  0  0  0  0  0
  141.4300   77.6930  222.3200 N   0  0  0  0  0  0  0  0  0  0  0  0
  142.2220   75.2870  222.1880 H   0  0  0  0  0  0  0  0  0  0  0  0
  141.5875   72.8318  222.0035 H   0  0  0  0  0  0  0  0  0  0  0  0
  140.4187   73.3693  220.7076 H   0  0  0  0  0  0  0  0  0  0  0  0
  143.4154   75.8500  220.8098 H   0  0  0  0  0  0  0  0  0  0  0  0
  144.6612   75.4542  219.6216 H   0  0  0  0  0  0  0  0  0  0  0  0
  143.8837   77.1964  218.2737 H   0  0  0  0  0  0  0  0  0  0  0  0
  142.8040   77.5960  220.5920 H   0  0  0  0  0  0  0  0  0  0  0  0
  141.0159   76.1925  218.4958 H   0  0  0  0  0  0  0  0  0  0  0  0
  141.8740   76.5965  217.0377 H   0  0  0  0  0  0  0  0  0  0  0  0
  141.7922   73.9553  217.4908 H   0  0  0  0  0  0  0  0  0  0  0  0
  145.8354   75.8818  215.0514 H   0  0  0  0  0  0  0  0  0  0  0  0
  147.2088   73.7820  215.9448 H   0  0  0  0  0  0  0  0  0  0  0  0
  138.1074   77.1599  222.4326 H   0  0  0  0  0  0  0  0  0  0  0  0
  138.2808   79.4823  223.3750 H   0  0  0  0  0  0  0  0  0  0  0  0
  139.6735   81.4197  224.0345 H   0  0  0  0  0  0  0  0  0  0  0  0
  141.9162   82.4375  224.2275 H   0  0  0  0  0  0  0  0  0  0  0  0
  143.9602   81.2071  223.5139 H   0  0  0  0  0  0  0  0  0  0  0  0
  143.7012   78.8949  222.5880 H   0  0  0  0  0  0  0  0  0  0  0  0
  1  2  2  0
  2  3  1  0
  3  4  1  0
  4  5  1  0
  5  6  2  0
  5  7  1  0
  7  8  1  0
  8  9  1  0
  9 10  1  0
  9 11  1  0
 11 12  1  0
 12 13  1  0
 13 14  2  0
 14 15  1  0
 15 16  2  0
 16 17  1  0
  2 18  1  0
 18 19  2  0
 19 20  1  0
 20 21  2  0
 21 22  1  0
 22 23  2  0
 23 24  1  0
 24 25  2  0
 25 26  1  0
 26 27  2  0
 12  7  1  0
 17 13  1  0
 27 18  1  0
 26 21  1  0
  3 28  1  0
  4 29  1  0
  4 30  1  0
  8 31  1  0
  8 32  1  0
  9 33  1  6
 10 34  1  0
 11 35  1  0
 11 36  1  0
 12 37  1  6
 15 38  1  0
 16 39  1  0
 19 40  1  0
 20 41  1  0
 22 42  1  0
 23 43  1  0
 24 44  1  0
 25 45  1  0
M  END
>  <smiles>  (8) 
O=C(NCC(=O)N1C[C@H](O)C[C@H]1c1nccs1)c1ccc2ccccc2n1

>  <score_type>  (8) 
oracle

>  <origin>  (8) 
autodockgpu

>  <m_score__min__energy>  (8) 
-7.9100000000000001

>  <m_primary>  (8) 
energy

>  <rmsd>  (8) 
7.6549147636642525

>  <m_score__min__rmsd>  (8) 
7.6549147636642525

>  <meeko>  (8) 
{"free_energy": -6.01, "intermolecular_energy": -7.8, "internal_energy": -2.67, "cluster_size": 4, "cluster_id": 6, "rank_in_cluster": 4}

>  <energy>  (8) 
-7.72

>  <cluster_rmsd>  (8) 
0.79

>  <cluster>  (8) 
1

$$$$

     RDKit          3D

 45 48  0  0  0  0  0  0  0  0999 V2000
  140.0990   73.4950  222.3800 O   0  0  0  0  0  0  0  0  0  0  0  0
  140.3910   72.2640  222.3920 C   0  0  0  0  0  0  0  0  0  0  0  0
  140.9370   71.6320  221.2400 N   0  0  0  0  0  0  0  0  0  0  0  0
  141.1700   72.3790  220.0360 C   0  0  0  0  0  0  0  0  0  0  0  0
  142.2930   73.3230  220.1420 C   0  0  0  0  0  0  0  0  0  0  0  0
  142.0520   74.5330  220.4000 O   0  0  0  0  0  0  0  0  0  0  0  0
  143.6080   72.8160  219.9470 N   0  0  0  0  0  0  0  0  0  0  0  0
  144.7050   72.7450  220.9200 C   0  0  0  0  0  0  0  0  0  0  0  0
  145.9700   72.8600  220.1030 C   0  0  2  0  0  0  0  0  0  0  0  0
  146.7290   73.9710  220.4950 O   0  0  0  0  0  0  0  0  0  0  0  0
  145.4900   73.0010  218.6760 C   0  0  0  0  0  0  0  0  0  0  0  0
  144.1600   72.2530  218.7340 C   0  0  1  0  0  0  0  0  0  0  0  0
  144.4660   70.8370  219.0110 C   0  0  0  0  0  0  0  0  0  0  0  0
  144.0490   69.9760  219.7120 N   0  0  0  0  0  0  0  0  0  0  0  0
  144.4440   68.7360  219.8440 C   0  0  0  0  0  0  0  0  0  0  0  0
  145.5090   68.3660  219.0480 C   0  0  0  0  0  0  0  0  0  0  0  0
  145.8600   69.9590  218.1220 S   0  0  0  0  0  0  0  0  0  0  0  0
  140.1660   71.4660  223.6090 C   0  0  0  0  0  0  0  0  0  0  0  0
  139.4490   70.2910  223.5310 C   0  0  0  0  0  0  0  0  0  0  0  0
  139.2790   69.5910  224.7290 C   0  0  0  0  0  0  0  0  0  0  0  0
  139.7960   70.0490  225.9230 C   0  0  0  0  0  0  0  0  0  0  0  0
  139.6480   69.3860  227.1210 C   0  0  0  0  0  0  0  0  0  0  0  0
  140.1980   69.9100  228.2830 C   0  0  0  0  0  0  0  0  0  0  0  0
  140.9080   71.1030  228.2850 C   0  0  0  0  0  0  0  0  0  0  0  0
  141.0580   71.7690  227.0850 C   0  0  0  0  0  0  0  0  0  0  0  0
  140.5030   71.2290  225.9440 C   0  0  0  0  0  0  0  0  0  0  0  0
  140.6550   71.8820  224.7900 N   0  0  0  0  0  0  0  0  0  0  0  0
  141.1560   70.6140  221.3180 H   0  0  0  0  0  0  0  0  0  0  0  0
  141.3856   71.6707  219.2225 H   0  0  0  0  0  0  0  0  0  0  0  0
  140.2644   72.9724  219.8418 H   0  0  0  0  0  0  0  0  0  0  0  0
  144.6351   73.5731  221.6407 H   0  0  0  0  0  0  0  0  0  0  0  0
  144.6765   71.8126  221.5030 H   0  0  0  0  0  0  0  0  0  0  0  0
  146.6294   71.9895  220.2352 H   0  0  0  0  0  0  0  0  0  0  0  0
  146.6600   74.6330  219.7600 H   0  0  0  0  0  0  0  0  0  0  0  0
  145.3470   74.0565  218.4014 H   0  0  0  0  0  0  0  0  0  0  0  0
  146.1927   72.6140  217.9234 H   0  0  0  0  0  0  0  0  0  0  0  0
  143.5275   72.3266  217.8370 H   0  0  0  0  0  0  0  0  0  0  0  0
  143.9605   68.0362  220.5415 H   0  0  0  0  0  0  0  0  0  0  0  0
  146.0178   67.3934  218.9757 H   0  0  0  0  0  0  0  0  0  0  0  0
  139.0343   69.9251  222.5801 H   0  0  0  0  0  0  0  0  0  0  0  0
  138.7158   68.6462  224.7192 H   0  0  0  0  0  0  0  0  0  0  0  0
  139.0919   68.4376  227.1573 H   0  0  0  0  0  0  0  0  0  0  0  0
  140.0675   69.3643  229.2292 H   0  0  0  0  0  0  0  0  0  0  0  0
  141.3379   71.5053  229.2142 H   0  0  0  0  0  0  0  0  0  0  0  0
  141.6128   72.7177  227.0397 H   0  0  0  0  0  0  0  0  0  0  0  0
  1  2  2  0
  2  3  1  0
  3  4  1  0
  4  5  1  0
  5  6  2  0
  5  7  1  0
  7  8  1  0
  8  9  1  0
  9 10  1  0
  9 11  1  0
 11 12  1  0
 12 13  1  0
 13 14  2  0
 14 15  1  0
 15 16  2  0
 16 17  1  0
  2 18  1  0
 18 19  2  0
 19 20  1  0
 20 21  2  0
 21 22  1  0
 22 23  2  0
 23 24  1  0
 24 25  2  0
 25 26  1  0
 26 27  2  0
 12  7  1  0
 17 13  1  0
 27 18  1  0
 26 21  1  0
  3 28  1  0
  4 29  1  0
  4 30  1  0
  8 31  1  0
  8 32  1  0
  9 33  1  6
 10 34  1  0
 11 35  1  0
 11 36  1  0
 12 37  1  6
 15 38  1  0
 16 39  1  0
 19 40  1  0
 20 41  1  0
 22 42  1  0
 23 43  1  0
 24 44  1  0
 25 45  1  0
M  END
>  <smiles>  (9) 
O=C(NCC(=O)N1C[C@H](O)C[C@H]1c1nccs1)c1ccc2ccccc2n1

>  <score_type>  (9) 
oracle

>  <origin>  (9) 
autodockgpu

>  <m_score__min__energy>  (9) 
-7.9100000000000001

>  <m_primary>  (9) 
energy

>  <rmsd>  (9) 
5.732005666765741

>  <m_score__min__rmsd>  (9) 
5.732005666765741

>  <meeko>  (9) 
{"free_energy": -7.86, "intermolecular_energy": -9.65, "internal_energy": -1.3, "cluster_size": 5, "cluster_id": 3, "rank_in_cluster": 3}

>  <energy>  (9) 
-7.7

>  <cluster_rmsd>  (9) 
0.63

>  <cluster>  (9) 
1

$$$$

     RDKit          3D

 45 48  0  0  0  0  0  0  0  0999 V2000
  139.1570   71.1110  221.4920 O   0  0  0  0  0  0  0  0  0  0  0  0
  139.4540   71.6240  222.6090 C   0  0  0  0  0  0  0  0  0  0  0  0
  139.6630   73.0260  222.7350 N   0  0  0  0  0  0  0  0  0  0  0  0
  139.5430   73.8910  221.5940 C   0  0  0  0  0  0  0  0  0  0  0  0
  140.6340   74.8710  221.4890 C   0  0  0  0  0  0  0  0  0  0  0  0
  141.8220   74.4570  221.4040 O   0  0  0  0  0  0  0  0  0  0  0  0
  140.2900   76.2510  221.4870 N   0  0  0  0  0  0  0  0  0  0  0  0
  139.0710   76.8820  222.0090 C   0  0  0  0  0  0  0  0  0  0  0  0
  138.8560   78.1060  221.1500 C   0  0  2  0  0  0  0  0  0  0  0  0
  137.6180   78.0560  220.4950 O   0  0  0  0  0  0  0  0  0  0  0  0
  140.0000   78.0830  220.1620 C   0  0  0  0  0  0  0  0  0  0  0  0
  141.0730   77.3500  220.9660 C   0  0  1  0  0  0  0  0  0  0  0  0
  141.4280   78.2120  222.1090 C   0  0  0  0  0  0  0  0  0  0  0  0
  141.4930   78.1130  223.2880 N   0  0  0  0  0  0  0  0  0  0  0  0
  141.8360   78.9990  224.1880 C   0  0  0  0  0  0  0  0  0  0  0  0
  142.1740   80.2430  223.6950 C   0  0  0  0  0  0  0  0  0  0  0  0
  141.9490   79.9920  221.8500 S   0  0  0  0  0  0  0  0  0  0  0  0
  139.5850   70.7690  223.8000 C   0  0  0  0  0  0  0  0  0  0  0  0
  139.1610   69.4580  223.7490 C   0  0  0  0  0  0  0  0  0  0  0  0
  139.3200   68.7120  224.9200 C   0  0  0  0  0  0  0  0  0  0  0  0
  139.8690   69.2540  226.0630 C   0  0  0  0  0  0  0  0  0  0  0  0
  140.0410   68.5480  227.2340 C   0  0  0  0  0  0  0  0  0  0  0  0
  140.6020   69.1630  228.3450 C   0  0  0  0  0  0  0  0  0  0  0  0
  141.0060   70.4910  228.3230 C   0  0  0  0  0  0  0  0  0  0  0  0
  140.8350   71.1990  227.1500 C   0  0  0  0  0  0  0  0  0  0  0  0
  140.2760   70.5680  226.0600 C   0  0  0  0  0  0  0  0  0  0  0  0
  140.1160   71.2630  224.9320 N   0  0  0  0  0  0  0  0  0  0  0  0
  139.9040   73.3850  223.6860 H   0  0  0  0  0  0  0  0  0  0  0  0
  139.5416   73.2715  220.6850 H   0  0  0  0  0  0  0  0  0  0  0  0
  138.6072   74.4571  221.7117 H   0  0  0  0  0  0  0  0  0  0  0  0
  138.2153   76.1962  221.9234 H   0  0  0  0  0  0  0  0  0  0  0  0
  139.1669   77.1403  223.0739 H   0  0  0  0  0  0  0  0  0  0  0  0
  138.8391   79.0318  221.7438 H   0  0  0  0  0  0  0  0  0  0  0  0
  137.0220   77.5010  221.0610 H   0  0  0  0  0  0  0  0  0  0  0  0
  139.7329   77.5306  219.2490 H   0  0  0  0  0  0  0  0  0  0  0  0
  140.3057   79.0766  219.8025 H   0  0  0  0  0  0  0  0  0  0  0  0
  141.9831   77.0738  220.4133 H   0  0  0  0  0  0  0  0  0  0  0  0
  141.8537   78.7681  225.2634 H   0  0  0  0  0  0  0  0  0  0  0  0
  142.4916   81.1440  224.2403 H   0  0  0  0  0  0  0  0  0  0  0  0
  138.7225   69.0239  222.8383 H   0  0  0  0  0  0  0  0  0  0  0  0
  138.9974   67.6604  224.9303 H   0  0  0  0  0  0  0  0  0  0  0  0
  139.7327   67.4935  227.2885 H   0  0  0  0  0  0  0  0  0  0  0  0
  140.7301   68.5811  229.2697 H   0  0  0  0  0  0  0  0  0  0  0  0
  141.4484   70.9643  229.2120 H   0  0  0  0  0  0  0  0  0  0  0  0
  141.1412   72.2536  227.0864 H   0  0  0  0  0  0  0  0  0  0  0  0
  1  2  2  0
  2  3  1  0
  3  4  1  0
  4  5  1  0
  5  6  2  0
  5  7  1  0
  7  8  1  0
  8  9  1  0
  9 10  1  0
  9 11  1  0
 11 12  1  0
 12 13  1  0
 13 14  2  0
 14 15  1  0
 15 16  2  0
 16 17  1  0
  2 18  1  0
 18 19  2  0
 19 20  1  0
 20 21  2  0
 21 22  1  0
 22 23  2  0
 23 24  1  0
 24 25  2  0
 25 26  1  0
 26 27  2  0
 12  7  1  0
 17 13  1  0
 27 18  1  0
 26 21  1  0
  3 28  1  0
  4 29  1  0
  4 30  1  0
  8 31  1  0
  8 32  1  0
  9 33  1  1
 10 34  1  0
 11 35  1  0
 11 36  1  0
 12 37  1  6
 15 38  1  0
 16 39  1  0
 19 40  1  0
 20 41  1  0
 22 42  1  0
 23 43  1  0
 24 44  1  0
 25 45  1  0
M  END
>  <smiles>  (10) 
O=C(NCC(=O)N1C[C@H](O)C[C@H]1c1nccs1)c1ccc2ccccc2n1

>  <score_type>  (10) 
oracle

>  <origin>  (10) 
autodockgpu

>  <m_score__min__energy>  (10) 
-7.9100000000000001

>  <m_primary>  (10) 
energy

>  <rmsd>  (10) 
2.0538943617584087

>  <m_score__min__rmsd>  (10) 
2.0538943617584087

>  <meeko>  (10) 
{"free_energy": -7.38, "intermolecular_energy": -9.17, "internal_energy": -1.44, "cluster_size": 24, "cluster_id": 1, "rank_in_cluster": 24}

>  <energy>  (10) 
-7.66

>  <cluster_rmsd>  (10) 
1.3

>  <cluster>  (10) 
1

$$$$

     RDKit          3D

 45 48  0  0  0  0  0  0  0  0999 V2000
  141.5050   72.4280  221.5680 O   0  0  0  0  0  0  0  0  0  0  0  0
  140.5770   72.6470  222.4000 C   0  0  0  0  0  0  0  0  0  0  0  0
  139.8040   73.8390  222.3320 N   0  0  0  0  0  0  0  0  0  0  0  0
  140.0600   74.8230  221.3180 C   0  0  0  0  0  0  0  0  0  0  0  0
  139.4360   76.1250  221.5980 C   0  0  0  0  0  0  0  0  0  0  0  0
  138.3960   76.1640  222.3100 O   0  0  0  0  0  0  0  0  0  0  0  0
  140.0440   77.2870  221.0460 N   0  0  0  0  0  0  0  0  0  0  0  0
  139.3870   78.4720  220.4830 C   0  0  0  0  0  0  0  0  0  0  0  0
  140.3390   78.9950  219.4330 C   0  0  2  0  0  0  0  0  0  0  0  0
  139.7370   79.0170  218.1670 O   0  0  0  0  0  0  0  0  0  0  0  0
  141.5070   78.0340  219.4670 C   0  0  0  0  0  0  0  0  0  0  0  0
  141.4590   77.5590  220.9180 C   0  0  1  0  0  0  0  0  0  0  0  0
  141.7570   78.7250  221.7700 C   0  0  0  0  0  0  0  0  0  0  0  0
  142.1810   79.8230  221.6290 N   0  0  0  0  0  0  0  0  0  0  0  0
  142.3910   80.7630  222.5140 C   0  0  0  0  0  0  0  0  0  0  0  0
  142.0720   80.4320  223.8150 C   0  0  0  0  0  0  0  0  0  0  0  0
  141.4570   78.6710  223.6180 S   0  0  0  0  0  0  0  0  0  0  0  0
  140.2860   71.6610  223.4530 C   0  0  0  0  0  0  0  0  0  0  0  0
  139.6020   70.5060  223.1370 C   0  0  0  0  0  0  0  0  0  0  0  0
  139.3640   69.6210  224.1920 C   0  0  0  0  0  0  0  0  0  0  0  0
  139.7880   69.8850  225.4770 C   0  0  0  0  0  0  0  0  0  0  0  0
  139.5710   69.0350  226.5400 C   0  0  0  0  0  0  0  0  0  0  0  0
  140.0290   69.3700  227.8070 C   0  0  0  0  0  0  0  0  0  0  0  0
  140.7110   70.5550  228.0510 C   0  0  0  0  0  0  0  0  0  0  0  0
  140.9300   71.4070  226.9870 C   0  0  0  0  0  0  0  0  0  0  0  0
  140.4660   71.0530  225.7380 C   0  0  0  0  0  0  0  0  0  0  0  0
  140.6830   71.8850  224.7180 N   0  0  0  0  0  0  0  0  0  0  0  0
  139.0540   73.9570  223.0490 H   0  0  0  0  0  0  0  0  0  0  0  0
  141.1476   74.9673  221.2386 H   0  0  0  0  0  0  0  0  0  0  0  0
  139.6215   74.4469  220.3819 H   0  0  0  0  0  0  0  0  0  0  0  0
  138.4237   78.1986  220.0277 H   0  0  0  0  0  0  0  0  0  0  0  0
  139.1721   79.2267  221.2539 H   0  0  0  0  0  0  0  0  0  0  0  0
  140.6477   80.0318  219.6322 H   0  0  0  0  0  0  0  0  0  0  0  0
  138.8090   79.3390  218.3030 H   0  0  0  0  0  0  0  0  0  0  0  0
  141.3630   77.1996  218.7648 H   0  0  0  0  0  0  0  0  0  0  0  0
  142.4674   78.4804  219.1699 H   0  0  0  0  0  0  0  0  0  0  0  0
  142.1346   76.7300  221.1753 H   0  0  0  0  0  0  0  0  0  0  0  0
  142.7940   81.7492  222.2401 H   0  0  0  0  0  0  0  0  0  0  0  0
  142.1562   81.0406  224.7274 H   0  0  0  0  0  0  0  0  0  0  0  0
  139.2629   70.2933  222.1124 H   0  0  0  0  0  0  0  0  0  0  0  0
  138.8218   68.6852  223.9910 H   0  0  0  0  0  0  0  0  0  0  0  0
  139.0332   68.0882  226.3840 H   0  0  0  0  0  0  0  0  0  0  0  0
  139.8465   68.6770  228.6416 H   0  0  0  0  0  0  0  0  0  0  0  0
  141.0659   70.8070  229.0612 H   0  0  0  0  0  0  0  0  0  0  0  0
  141.4674   72.3555  227.1338 H   0  0  0  0  0  0  0  0  0  0  0  0
  1  2  2  0
  2  3  1  0
  3  4  1  0
  4  5  1  0
  5  6  2  0
  5  7  1  0
  7  8  1  0
  8  9  1  0
  9 10  1  0
  9 11  1  0
 11 12  1  0
 12 13  1  0
 13 14  2  0
 14 15  1  0
 15 16  2  0
 16 17  1  0
  2 18  1  0
 18 19  2  0
 19 20  1  0
 20 21  2  0
 21 22  1  0
 22 23  2  0
 23 24  1  0
 24 25  2  0
 25 26  1  0
 26 27  2  0
 12  7  1  0
 17 13  1  0
 27 18  1  0
 26 21  1  0
  3 28  1  0
  4 29  1  0
  4 30  1  0
  8 31  1  0
  8 32  1  0
  9 33  1  1
 10 34  1  0
 11 35  1  0
 11 36  1  0
 12 37  1  6
 15 38  1  0
 16 39  1  0
 19 40  1  0
 20 41  1  0
 22 42  1  0
 23 43  1  0
 24 44  1  0
 25 45  1  0
M  END
>  <smiles>  (11) 
O=C(NCC(=O)N1C[C@H](O)C[C@H]1c1nccs1)c1ccc2ccccc2n1

>  <score_type>  (11) 
oracle

>  <origin>  (11) 
autodockgpu

>  <m_score__min__energy>  (11) 
-7.9100000000000001

>  <m_primary>  (11) 
energy

>  <rmsd>  (11) 
2.2400956876252667

>  <m_score__min__rmsd>  (11) 
2.2400956876252667

>  <meeko>  (11) 
{"free_energy": -7.53, "intermolecular_energy": -9.32, "internal_energy": -1.48, "cluster_size": 24, "cluster_id": 1, "rank_in_cluster": 22}

>  <energy>  (11) 
-7.66

>  <cluster_rmsd>  (11) 
1.41

>  <cluster>  (11) 
1

$$$$

     RDKit          3D

 45 48  0  0  0  0  0  0  0  0999 V2000
  141.2850   72.1960  221.7210 O   0  0  0  0  0  0  0  0  0  0  0  0
  140.3430   72.4070  222.5370 C   0  0  0  0  0  0  0  0  0  0  0  0
  139.4440   73.4930  222.3480 N   0  0  0  0  0  0  0  0  0  0  0  0
  139.5870   74.3770  221.2250 C   0  0  0  0  0  0  0  0  0  0  0  0
  140.6510   75.3770  221.4010 C   0  0  0  0  0  0  0  0  0  0  0  0
  141.8530   74.9970  221.3950 O   0  0  0  0  0  0  0  0  0  0  0  0
  140.2650   76.7350  221.5700 N   0  0  0  0  0  0  0  0  0  0  0  0
  139.1310   77.2670  222.3360 C   0  0  0  0  0  0  0  0  0  0  0  0
  138.7340   78.5410  221.6290 C   0  0  2  0  0  0  0  0  0  0  0  0
  137.4060   78.4830  221.1850 O   0  0  0  0  0  0  0  0  0  0  0  0
  139.6950   78.6460  220.4660 C   0  0  0  0  0  0  0  0  0  0  0  0
  140.9120   77.9060  221.0180 C   0  0  1  0  0  0  0  0  0  0  0  0
  141.4260   78.6950  222.1540 C   0  0  0  0  0  0  0  0  0  0  0  0
  141.5680   78.5510  223.3220 N   0  0  0  0  0  0  0  0  0  0  0  0
  142.0540   79.3730  224.2170 C   0  0  0  0  0  0  0  0  0  0  0  0
  142.4650   80.5980  223.7330 C   0  0  0  0  0  0  0  0  0  0  0  0
  142.0830   80.4300  221.9040 S   0  0  0  0  0  0  0  0  0  0  0  0
  140.1650   71.5220  223.7000 C   0  0  0  0  0  0  0  0  0  0  0  0
  139.5220   70.3120  223.5450 C   0  0  0  0  0  0  0  0  0  0  0  0
  139.3920   69.5300  224.6960 C   0  0  0  0  0  0  0  0  0  0  0  0
  139.8780   69.9420  225.9190 C   0  0  0  0  0  0  0  0  0  0  0  0
  139.7690   69.1970  227.0730 C   0  0  0  0  0  0  0  0  0  0  0  0
  140.2840   69.6800  228.2680 C   0  0  0  0  0  0  0  0  0  0  0  0
  140.9200   70.9120  228.3480 C   0  0  0  0  0  0  0  0  0  0  0  0
  141.0310   71.6590  227.1930 C   0  0  0  0  0  0  0  0  0  0  0  0
  140.5120   71.1590  226.0180 C   0  0  0  0  0  0  0  0  0  0  0  0
  140.6260   71.8910  224.9080 N   0  0  0  0  0  0  0  0  0  0  0  0
  138.6870   73.6100  223.0590 H   0  0  0  0  0  0  0  0  0  0  0  0
  139.8185   73.7746  220.3342 H   0  0  0  0  0  0  0  0  0  0  0  0
  138.6394   74.9258  221.1208 H   0  0  0  0  0  0  0  0  0  0  0  0
  138.2964   76.5505  222.3362 H   0  0  0  0  0  0  0  0  0  0  0  0
  139.3960   77.4478  223.3882 H   0  0  0  0  0  0  0  0  0  0  0  0
  138.7869   79.4169  222.2923 H   0  0  0  0  0  0  0  0  0  0  0  0
  136.8390   78.7340  221.9600 H   0  0  0  0  0  0  0  0  0  0  0  0
  139.2962   78.1519  219.5678 H   0  0  0  0  0  0  0  0  0  0  0  0
  139.9020   79.6771  220.1434 H   0  0  0  0  0  0  0  0  0  0  0  0
  141.7244   77.7154  220.3013 H   0  0  0  0  0  0  0  0  0  0  0  0
  142.1296   79.1058  225.2814 H   0  0  0  0  0  0  0  0  0  0  0  0
  142.9016   81.4489  224.2764 H   0  0  0  0  0  0  0  0  0  0  0  0
  139.1334   69.9810  222.5706 H   0  0  0  0  0  0  0  0  0  0  0  0
  138.8864   68.5557  224.6241 H   0  0  0  0  0  0  0  0  0  0  0  0
  139.2721   68.2160  227.0471 H   0  0  0  0  0  0  0  0  0  0  0  0
  140.1856   69.0695  229.1777 H   0  0  0  0  0  0  0  0  0  0  0  0
  141.3229   71.2811  229.3027 H   0  0  0  0  0  0  0  0  0  0  0  0
  141.5272   72.6406  227.2098 H   0  0  0  0  0  0  0  0  0  0  0  0
  1  2  2  0
  2  3  1  0
  3  4  1  0
  4  5  1  0
  5  6  2  0
  5  7  1  0
  7  8  1  0
  8  9  1  0
  9 10  1  0
  9 11  1  0
 11 12  1  0
 12 13  1  0
 13 14  2  0
 14 15  1  0
 15 16  2  0
 16 17  1  0
  2 18  1  0
 18 19  2  0
 19 20  1  0
 20 21  2  0
 21 22  1  0
 22 23  2  0
 23 24  1  0
 24 25  2  0
 25 26  1  0
 26 27  2  0
 12  7  1  0
 17 13  1  0
 27 18  1  0
 26 21  1  0
  3 28  1  0
  4 29  1  0
  4 30  1  0
  8 31  1  0
  8 32  1  0
  9 33  1  1
 10 34  1  0
 11 35  1  0
 11 36  1  0
 12 37  1  6
 15 38  1  0
 16 39  1  0
 19 40  1  0
 20 41  1  0
 22 42  1  0
 23 43  1  0
 24 44  1  0
 25 45  1  0
M  END
>  <smiles>  (12) 
O=C(NCC(=O)N1C[C@H](O)C[C@H]1c1nccs1)c1ccc2ccccc2n1

>  <score_type>  (12) 
oracle

>  <origin>  (12) 
autodockgpu

>  <m_score__min__energy>  (12) 
-7.9100000000000001

>  <m_primary>  (12) 
energy

>  <rmsd>  (12) 
2.4026213482569907

>  <m_score__min__rmsd>  (12) 
2.4026213482569907

>  <meeko>  (12) 
{"free_energy": -7.91, "intermolecular_energy": -9.7, "internal_energy": -1.11, "cluster_size": 24, "cluster_id": 1, "rank_in_cluster": 2}

>  <energy>  (12) 
-7.66

>  <cluster_rmsd>  (12) 
1.36

>  <cluster>  (12) 
1

$$$$

     RDKit          3D

 45 48  0  0  0  0  0  0  0  0999 V2000
  139.9690   73.4050  222.4120 O   0  0  0  0  0  0  0  0  0  0  0  0
  140.4000   72.2160  222.4160 C   0  0  0  0  0  0  0  0  0  0  0  0
  141.0100   71.6590  221.2580 N   0  0  0  0  0  0  0  0  0  0  0  0
  141.1500   72.4340  220.0570 C   0  0  0  0  0  0  0  0  0  0  0  0
  142.2910   73.3620  220.0910 C   0  0  0  0  0  0  0  0  0  0  0  0
  142.0700   74.5980  220.2010 O   0  0  0  0  0  0  0  0  0  0  0  0
  143.5990   72.8110  219.9980 N   0  0  0  0  0  0  0  0  0  0  0  0
  144.6170   72.7110  221.0500 C   0  0  0  0  0  0  0  0  0  0  0  0
  145.9430   72.7780  220.3300 C   0  0  2  0  0  0  0  0  0  0  0  0
  146.7080   73.8670  220.7730 O   0  0  0  0  0  0  0  0  0  0  0  0
  145.5770   72.9240  218.8700 C   0  0  0  0  0  0  0  0  0  0  0  0
  144.2210   72.2200  218.8320 C   0  0  1  0  0  0  0  0  0  0  0  0
  144.4580   70.7970  219.1400 C   0  0  0  0  0  0  0  0  0  0  0  0
  143.8930   69.9210  219.7040 N   0  0  0  0  0  0  0  0  0  0  0  0
  144.2490   68.6770  219.8940 C   0  0  0  0  0  0  0  0  0  0  0  0
  145.4710   68.3230  219.3590 C   0  0  0  0  0  0  0  0  0  0  0  0
  146.0230   69.9370  218.5790 S   0  0  0  0  0  0  0  0  0  0  0  0
  140.2750   71.3910  223.6280 C   0  0  0  0  0  0  0  0  0  0  0  0
  139.7120   70.1340  223.5430 C   0  0  0  0  0  0  0  0  0  0  0  0
  139.6280   69.4130  224.7370 C   0  0  0  0  0  0  0  0  0  0  0  0
  140.0800   69.9270  225.9340 C   0  0  0  0  0  0  0  0  0  0  0  0
  140.0140   69.2440  227.1300 C   0  0  0  0  0  0  0  0  0  0  0  0
  140.4900   69.8280  228.2950 C   0  0  0  0  0  0  0  0  0  0  0  0
  141.0440   71.1020  228.3050 C   0  0  0  0  0  0  0  0  0  0  0  0
  141.1120   71.7860  227.1080 C   0  0  0  0  0  0  0  0  0  0  0  0
  140.6330   71.1860  225.9630 C   0  0  0  0  0  0  0  0  0  0  0  0
  140.7040   71.8580  224.8130 N   0  0  0  0  0  0  0  0  0  0  0  0
  141.3460   70.6720  221.3280 H   0  0  0  0  0  0  0  0  0  0  0  0
  141.2863   71.7445  219.2108 H   0  0  0  0  0  0  0  0  0  0  0  0
  140.2392   73.0423  219.9547 H   0  0  0  0  0  0  0  0  0  0  0  0
  144.5212   73.5463  221.7593 H   0  0  0  0  0  0  0  0  0  0  0  0
  144.5138   71.7842  221.6334 H   0  0  0  0  0  0  0  0  0  0  0  0
  146.5608   71.8871  220.5159 H   0  0  0  0  0  0  0  0  0  0  0  0
  146.6680   74.5480  220.0540 H   0  0  0  0  0  0  0  0  0  0  0  0
  145.4904   73.9815  218.5799 H   0  0  0  0  0  0  0  0  0  0  0  0
  146.3210   72.5086  218.1743 H   0  0  0  0  0  0  0  0  0  0  0  0
  143.6603   72.3069  217.8896 H   0  0  0  0  0  0  0  0  0  0  0  0
  143.6180   67.9621  220.4424 H   0  0  0  0  0  0  0  0  0  0  0  0
  145.9854   67.3510  219.3835 H   0  0  0  0  0  0  0  0  0  0  0  0
  139.3498   69.7228  222.5892 H   0  0  0  0  0  0  0  0  0  0  0  0
  139.1880   68.4049  224.7216 H   0  0  0  0  0  0  0  0  0  0  0  0
  139.5825   68.2326  227.1606 H   0  0  0  0  0  0  0  0  0  0  0  0
  140.4269   69.2658  229.2384 H   0  0  0  0  0  0  0  0  0  0  0  0
  141.4167   71.5514  229.2373 H   0  0  0  0  0  0  0  0  0  0  0  0
  141.5430   72.7973  227.0682 H   0  0  0  0  0  0  0  0  0  0  0  0
  1  2  2  0
  2  3  1  0
  3  4  1  0
  4  5  1  0
  5  6  2  0
  5  7  1  0
  7  8  1  0
  8  9  1  0
  9 10  1  0
  9 11  1  0
 11 12  1  0
 12 13  1  0
 13 14  2  0
 14 15  1  0
 15 16  2  0
 16 17  1  0
  2 18  1  0
 18 19  2  0
 19 20  1  0
 20 21  2  0
 21 22  1  0
 22 23  2  0
 23 24  1  0
 24 25  2  0
 25 26  1  0
 26 27  2  0
 12  7  1  0
 17 13  1  0
 27 18  1  0
 26 21  1  0
  3 28  1  0
  4 29  1  0
  4 30  1  0
  8 31  1  0
  8 32  1  0
  9 33  1  6
 10 34  1  0
 11 35  1  0
 11 36  1  0
 12 37  1  6
 15 38  1  0
 16 39  1  0
 19 40  1  0
 20 41  1  0
 22 42  1  0
 23 43  1  0
 24 44  1  0
 25 45  1  0
M  END
>  <smiles>  (13) 
O=C(NCC(=O)N1C[C@H](O)C[C@H]1c1nccs1)c1ccc2ccccc2n1

>  <score_type>  (13) 
oracle

>  <origin>  (13) 
autodockgpu

>  <m_score__min__energy>  (13) 
-7.9100000000000001

>  <m_primary>  (13) 
energy

>  <rmsd>  (13) 
5.7367944988955255

>  <m_score__min__rmsd>  (13) 
5.7367944988955255

>  <meeko>  (13) 
{"free_energy": -7.84, "intermolecular_energy": -9.63, "internal_energy": -1.37, "cluster_size": 5, "cluster_id": 3, "rank_in_cluster": 5}

>  <energy>  (13) 
-7.63

>  <cluster_rmsd>  (13) 
1.28

>  <cluster>  (13) 
1

$$$$

     RDKit          3D

 45 48  0  0  0  0  0  0  0  0999 V2000
  141.5270   72.2590  221.8200 O   0  0  0  0  0  0  0  0  0  0  0  0
  140.4920   72.4420  222.5240 C   0  0  0  0  0  0  0  0  0  0  0  0
  139.5740   73.4820  222.2120 N   0  0  0  0  0  0  0  0  0  0  0  0
  139.8010   74.3500  221.0900 C   0  0  0  0  0  0  0  0  0  0  0  0
  140.8700   75.3330  221.3200 C   0  0  0  0  0  0  0  0  0  0  0  0
  140.8060   76.0800  222.3340 O   0  0  0  0  0  0  0  0  0  0  0  0
  141.9330   75.3930  220.3760 N   0  0  0  0  0  0  0  0  0  0  0  0
  142.8080   76.5310  220.0680 C   0  0  0  0  0  0  0  0  0  0  0  0
  143.1900   76.3590  218.6170 C   0  0  2  0  0  0  0  0  0  0  0  0
  142.7850   77.4600  217.8500 O   0  0  0  0  0  0  0  0  0  0  0  0
  142.4770   75.0980  218.1830 C   0  0  0  0  0  0  0  0  0  0  0  0
  142.3920   74.3350  219.5030 C   0  0  1  0  0  0  0  0  0  0  0  0
  143.7710   74.0050  219.9080 C   0  0  0  0  0  0  0  0  0  0  0  0
  144.4540   74.1360  220.8690 N   0  0  0  0  0  0  0  0  0  0  0  0
  145.6950   73.7770  221.0730 C   0  0  0  0  0  0  0  0  0  0  0  0
  146.3120   73.1500  220.0100 C   0  0  0  0  0  0  0  0  0  0  0  0
  144.9410   73.1380  218.7300 S   0  0  0  0  0  0  0  0  0  0  0  0
  140.2260   71.5730  223.6820 C   0  0  0  0  0  0  0  0  0  0  0  0
  139.4860   70.4210  223.5140 C   0  0  0  0  0  0  0  0  0  0  0  0
  139.2770   69.6500  224.6610 C   0  0  0  0  0  0  0  0  0  0  0  0
  139.7790   70.0180  225.8910 C   0  0  0  0  0  0  0  0  0  0  0  0
  139.5930   69.2820  227.0410 C   0  0  0  0  0  0  0  0  0  0  0  0
  140.1310   69.7170  228.2440 C   0  0  0  0  0  0  0  0  0  0  0  0
  140.8660   70.8920  228.3370 C   0  0  0  0  0  0  0  0  0  0  0  0
  141.0540   71.6300  227.1860 C   0  0  0  0  0  0  0  0  0  0  0  0
  140.5110   71.1770  226.0020 C   0  0  0  0  0  0  0  0  0  0  0  0
  140.7000   71.9000  224.8960 N   0  0  0  0  0  0  0  0  0  0  0  0
  138.7390   73.5780  222.8320 H   0  0  0  0  0  0  0  0  0  0  0  0
  140.0754   73.7331  220.2216 H   0  0  0  0  0  0  0  0  0  0  0  0
  138.8716   74.9138  220.9219 H   0  0  0  0  0  0  0  0  0  0  0  0
  142.2719   77.4801  220.2153 H   0  0  0  0  0  0  0  0  0  0  0  0
  143.6907   76.5588  220.7238 H   0  0  0  0  0  0  0  0  0  0  0  0
  144.2793   76.2885  218.4810 H   0  0  0  0  0  0  0  0  0  0  0  0
  143.4190   78.1950  218.0560 H   0  0  0  0  0  0  0  0  0  0  0  0
  141.4775   75.3186  217.7800 H   0  0  0  0  0  0  0  0  0  0  0  0
  142.9836   74.5483  217.3760 H   0  0  0  0  0  0  0  0  0  0  0  0
  141.7807   73.4206  219.4905 H   0  0  0  0  0  0  0  0  0  0  0  0
  146.2114   73.9622  222.0265 H   0  0  0  0  0  0  0  0  0  0  0  0
  147.3377   72.7599  219.9334 H   0  0  0  0  0  0  0  0  0  0  0  0
  139.0835   70.1261  222.5337 H   0  0  0  0  0  0  0  0  0  0  0  0
  138.6939   68.7208  224.5797 H   0  0  0  0  0  0  0  0  0  0  0  0
  139.0159   68.3462  227.0053 H   0  0  0  0  0  0  0  0  0  0  0  0
  139.9708   69.1140  229.1499 H   0  0  0  0  0  0  0  0  0  0  0  0
  141.2852   71.2240  229.2983 H   0  0  0  0  0  0  0  0  0  0  0  0
  141.6294   72.5671  227.2127 H   0  0  0  0  0  0  0  0  0  0  0  0
  1  2  2  0
  2  3  1  0
  3  4  1  0
  4  5  1  0
  5  6  2  0
  5  7  1  0
  7  8  1  0
  8  9  1  0
  9 10  1  0
  9 11  1  0
 11 12  1  0
 12 13  1  0
 13 14  2  0
 14 15  1  0
 15 16  2  0
 16 17  1  0
  2 18  1  0
 18 19  2  0
 19 20  1  0
 20 21  2  0
 21 22  1  0
 22 23  2  0
 23 24  1  0
 24 25  2  0
 25 26  1  0
 26 27  2  0
 12  7  1  0
 17 13  1  0
 27 18  1  0
 26 21  1  0
  3 28  1  0
  4 29  1  0
  4 30  1  0
  8 31  1  0
  8 32  1  0
  9 33  1  1
 10 34  1  0
 11 35  1  0
 11 36  1  0
 12 37  1  6
 15 38  1  0
 16 39  1  0
 19 40  1  0
 20 41  1  0
 22 42  1  0
 23 43  1  0
 24 44  1  0
 25 45  1  0
M  END
>  <smiles>  (14) 
O=C(NCC(=O)N1C[C@H](O)C[C@H]1c1nccs1)c1ccc2ccccc2n1

>  <score_type>  (14) 
oracle

>  <origin>  (14) 
autodockgpu

>  <m_score__min__energy>  (14) 
-7.9100000000000001

>  <m_primary>  (14) 
energy

>  <rmsd>  (14) 
3.6120888396003648

>  <m_score__min__rmsd>  (14) 
3.6120888396003648

>  <meeko>  (14) 
{"free_energy": -7.85, "intermolecular_energy": -9.64, "internal_energy": -1.42, "cluster_size": 11, "cluster_id": 2, "rank_in_cluster": 4}

>  <energy>  (14) 
-7.63

>  <cluster_rmsd>  (14) 
1.28

>  <cluster>  (14) 
1

$$$$

     RDKit          3D

 45 48  0  0  0  0  0  0  0  0999 V2000
  141.4750   72.3730  221.5400 O   0  0  0  0  0  0  0  0  0  0  0  0
  140.5680   72.6220  222.3870 C   0  0  0  0  0  0  0  0  0  0  0  0
  139.8150   73.8270  222.3150 N   0  0  0  0  0  0  0  0  0  0  0  0
  140.0670   74.7890  221.2780 C   0  0  0  0  0  0  0  0  0  0  0  0
  139.4760   76.1080  221.5510 C   0  0  0  0  0  0  0  0  0  0  0  0
  138.4440   76.1780  222.2720 O   0  0  0  0  0  0  0  0  0  0  0  0
  140.1050   77.2490  220.9810 N   0  0  0  0  0  0  0  0  0  0  0  0
  139.4780   78.3700  220.2710 C   0  0  0  0  0  0  0  0  0  0  0  0
  140.5180   78.8520  219.2870 C   0  0  2  0  0  0  0  0  0  0  0  0
  140.0490   78.7670  217.9690 O   0  0  0  0  0  0  0  0  0  0  0  0
  141.7020   77.9370  219.5080 C   0  0  0  0  0  0  0  0  0  0  0  0
  141.5180   77.5610  220.9770 C   0  0  1  0  0  0  0  0  0  0  0  0
  141.6940   78.7920  221.7690 C   0  0  0  0  0  0  0  0  0  0  0  0
  142.2200   79.8470  221.6370 N   0  0  0  0  0  0  0  0  0  0  0  0
  142.2860   80.8610  222.4600 C   0  0  0  0  0  0  0  0  0  0  0  0
  141.6490   80.6830  223.6710 C   0  0  0  0  0  0  0  0  0  0  0  0
  140.9680   78.9450  223.4880 S   0  0  0  0  0  0  0  0  0  0  0  0
  140.2820   71.6600  223.4630 C   0  0  0  0  0  0  0  0  0  0  0  0
  139.5870   70.5040  223.1770 C   0  0  0  0  0  0  0  0  0  0  0  0
  139.3540   69.6410  224.2520 C   0  0  0  0  0  0  0  0  0  0  0  0
  139.7930   69.9280  225.5270 C   0  0  0  0  0  0  0  0  0  0  0  0
  139.5820   69.1010  226.6090 C   0  0  0  0  0  0  0  0  0  0  0  0
  140.0550   69.4590  227.8640 C   0  0  0  0  0  0  0  0  0  0  0  0
  140.7480   70.6430  228.0780 C   0  0  0  0  0  0  0  0  0  0  0  0
  140.9610   71.4720  226.9950 C   0  0  0  0  0  0  0  0  0  0  0  0
  140.4820   71.0960  225.7570 C   0  0  0  0  0  0  0  0  0  0  0  0
  140.6940   71.9060  224.7180 N   0  0  0  0  0  0  0  0  0  0  0  0
  139.0820   73.9700  223.0440 H   0  0  0  0  0  0  0  0  0  0  0  0
  141.1551   74.9095  221.1707 H   0  0  0  0  0  0  0  0  0  0  0  0
  139.5993   74.4067  220.3587 H   0  0  0  0  0  0  0  0  0  0  0  0
  138.5741   78.0336  219.7420 H   0  0  0  0  0  0  0  0  0  0  0  0
  139.1655   79.1681  220.9604 H   0  0  0  0  0  0  0  0  0  0  0  0
  140.7763   79.9102  219.4406 H   0  0  0  0  0  0  0  0  0  0  0  0
  140.5970   79.3980  217.4350 H   0  0  0  0  0  0  0  0  0  0  0  0
  141.6543   77.0519  218.8566 H   0  0  0  0  0  0  0  0  0  0  0  0
  142.6752   78.3954  219.2783 H   0  0  0  0  0  0  0  0  0  0  0  0
  142.1864   76.7757  221.3597 H   0  0  0  0  0  0  0  0  0  0  0  0
  142.8132   81.7920  222.2045 H   0  0  0  0  0  0  0  0  0  0  0  0
  141.5632   81.3773  224.5199 H   0  0  0  0  0  0  0  0  0  0  0  0
  139.2357   70.2737  222.1604 H   0  0  0  0  0  0  0  0  0  0  0  0
  138.8039   68.7050  224.0752 H   0  0  0  0  0  0  0  0  0  0  0  0
  139.0372   68.1544  226.4778 H   0  0  0  0  0  0  0  0  0  0  0  0
  139.8754   68.7846  228.7143 H   0  0  0  0  0  0  0  0  0  0  0  0
  141.1158   70.9120  229.0792 H   0  0  0  0  0  0  0  0  0  0  0  0
  141.5055   72.4199  227.1174 H   0  0  0  0  0  0  0  0  0  0  0  0
  1  2  2  0
  2  3  1  0
  3  4  1  0
  4  5  1  0
  5  6  2  0
  5  7  1  0
  7  8  1  0
  8  9  1  0
  9 10  1  0
  9 11  1  0
 11 12  1  0
 12 13  1  0
 13 14  2  0
 14 15  1  0
 15 16  2  0
 16 17  1  0
  2 18  1  0
 18 19  2  0
 19 20  1  0
 20 21  2  0
 21 22  1  0
 22 23  2  0
 23 24  1  0
 24 25  2  0
 25 26  1  0
 26 27  2  0
 12  7  1  0
 17 13  1  0
 27 18  1  0
 26 21  1  0
  3 28  1  0
  4 29  1  0
  4 30  1  0
  8 31  1  0
  8 32  1  0
  9 33  1  1
 10 34  1  0
 11 35  1  0
 11 36  1  0
 12 37  1  1
 15 38  1  0
 16 39  1  0
 19 40  1  0
 20 41  1  0
 22 42  1  0
 23 43  1  0
 24 44  1  0
 25 45  1  0
M  END
>  <smiles>  (15) 
O=C(NCC(=O)N1C[C@H](O)C[C@H]1c1nccs1)c1ccc2ccccc2n1

>  <score_type>  (15) 
oracle

>  <origin>  (15) 
autodockgpu

>  <m_score__min__energy>  (15) 
-7.9100000000000001

>  <m_primary>  (15) 
energy

>  <rmsd>  (15) 
2.2067809974273658

>  <m_score__min__rmsd>  (15) 
2.2067809974273658

>  <meeko>  (15) 
{"free_energy": -7.46, "intermolecular_energy": -9.25, "internal_energy": -1.49, "cluster_size": 24, "cluster_id": 1, "rank_in_cluster": 23}

>  <energy>  (15) 
-7.62

>  <cluster_rmsd>  (15) 
1.26

>  <cluster>  (15) 
1

$$$$

     RDKit          3D

 45 48  0  0  0  0  0  0  0  0999 V2000
  140.9940   74.4840  221.3770 O   0  0  0  0  0  0  0  0  0  0  0  0
  139.9690   74.9200  221.9760 C   0  0  0  0  0  0  0  0  0  0  0  0
  138.8870   74.0540  222.2950 N   0  0  0  0  0  0  0  0  0  0  0  0
  138.9320   72.6620  221.9430 C   0  0  0  0  0  0  0  0  0  0  0  0
  139.6270   71.8320  222.9380 C   0  0  0  0  0  0  0  0  0  0  0  0
  140.6770   72.2740  223.4780 O   0  0  0  0  0  0  0  0  0  0  0  0
  139.0730   70.5580  223.2440 N   0  0  0  0  0  0  0  0  0  0  0  0
  139.2120   69.3050  222.4910 C   0  0  0  0  0  0  0  0  0  0  0  0
  137.9390   68.5370  222.7570 C   0  0  2  0  0  0  0  0  0  0  0  0
  137.2480   68.2700  221.5670 O   0  0  0  0  0  0  0  0  0  0  0  0
  137.1340   69.4380  223.6670 C   0  0  0  0  0  0  0  0  0  0  0  0
  138.2430   70.2110  224.3770 C   0  0  1  0  0  0  0  0  0  0  0  0
  139.0000   69.2420  225.1910 C   0  0  0  0  0  0  0  0  0  0  0  0
  138.8640   68.1260  225.5690 N   0  0  0  0  0  0  0  0  0  0  0  0
  139.6520   67.3870  226.3060 C   0  0  0  0  0  0  0  0  0  0  0  0
  140.8240   67.9940  226.7120 C   0  0  0  0  0  0  0  0  0  0  0  0
  140.6600   69.6910  225.9320 S   0  0  0  0  0  0  0  0  0  0  0  0
  139.8870   76.3410  222.3530 C   0  0  0  0  0  0  0  0  0  0  0  0
  138.6520   76.9410  222.4830 C   0  0  0  0  0  0  0  0  0  0  0  0
  138.6570   78.2920  222.8430 C   0  0  0  0  0  0  0  0  0  0  0  0
  139.8280   78.9870  223.0560 C   0  0  0  0  0  0  0  0  0  0  0  0
  139.8710   80.3170  223.4120 C   0  0  0  0  0  0  0  0  0  0  0  0
  141.0910   80.9490  223.6100 C   0  0  0  0  0  0  0  0  0  0  0  0
  142.2980   80.2790  223.4600 C   0  0  0  0  0  0  0  0  0  0  0  0
  142.2570   78.9460  223.1040 C   0  0  0  0  0  0  0  0  0  0  0  0
  141.0340   78.3390  222.9130 C   0  0  0  0  0  0  0  0  0  0  0  0
  141.0080   77.0500  222.5690 N   0  0  0  0  0  0  0  0  0  0  0  0
  138.0720   74.4790  222.7910 H   0  0  0  0  0  0  0  0  0  0  0  0
  137.9003   72.2942  221.8411 H   0  0  0  0  0  0  0  0  0  0  0  0
  139.4957   72.5823  221.0018 H   0  0  0  0  0  0  0  0  0  0  0  0
  139.3200   69.5115  221.4160 H   0  0  0  0  0  0  0  0  0  0  0  0
  140.1041   68.7391  222.7975 H   0  0  0  0  0  0  0  0  0  0  0  0
  138.1349   67.5549  223.2121 H   0  0  0  0  0  0  0  0  0  0  0  0
  136.4480   68.8560  221.5690 H   0  0  0  0  0  0  0  0  0  0  0  0
  136.4789   70.1095  223.0925 H   0  0  0  0  0  0  0  0  0  0  0  0
  136.4525   68.9024  224.3443 H   0  0  0  0  0  0  0  0  0  0  0  0
  137.9154   71.0495  225.0091 H   0  0  0  0  0  0  0  0  0  0  0  0
  139.3987   66.3531  226.5834 H   0  0  0  0  0  0  0  0  0  0  0  0
  141.6388   67.5888  227.3300 H   0  0  0  0  0  0  0  0  0  0  0  0
  137.7163   76.3881  222.3131 H   0  0  0  0  0  0  0  0  0  0  0  0
  137.6970   78.8162  222.9598 H   0  0  0  0  0  0  0  0  0  0  0  0
  138.9350   80.8805  223.5399 H   0  0  0  0  0  0  0  0  0  0  0  0
  141.1019   82.0116  223.8940 H   0  0  0  0  0  0  0  0  0  0  0  0
  143.2566   80.7943  223.6199 H   0  0  0  0  0  0  0  0  0  0  0  0
  143.1884   78.3752  222.9743 H   0  0  0  0  0  0  0  0  0  0  0  0
  1  2  2  0
  2  3  1  0
  3  4  1  0
  4  5  1  0
  5  6  2  0
  5  7  1  0
  7  8  1  0
  8  9  1  0
  9 10  1  0
  9 11  1  0
 11 12  1  0
 12 13  1  0
 13 14  2  0
 14 15  1  0
 15 16  2  0
 16 17  1  0
  2 18  1  0
 18 19  2  0
 19 20  1  0
 20 21  2  0
 21 22  1  0
 22 23  2  0
 23 24  1  0
 24 25  2  0
 25 26  1  0
 26 27  2  0
 12  7  1  0
 17 13  1  0
 27 18  1  0
 26 21  1  0
  3 28  1  0
  4 29  1  0
  4 30  1  0
  8 31  1  0
  8 32  1  0
  9 33  1  1
 10 34  1  0
 11 35  1  0
 11 36  1  0
 12 37  1  1
 15 38  1  0
 16 39  1  0
 19 40  1  0
 20 41  1  0
 22 42  1  0
 23 43  1  0
 24 44  1  0
 25 45  1  0
M  END
>  <smiles>  (16) 
O=C(NCC(=O)N1C[C@H](O)C[C@H]1c1nccs1)c1ccc2ccccc2n1

>  <score_type>  (16) 
oracle

>  <origin>  (16) 
autodockgpu

>  <m_score__min__energy>  (16) 
-7.9100000000000001

>  <m_primary>  (16) 
energy

>  <rmsd>  (16) 
8.93312535439571

>  <m_score__min__rmsd>  (16) 
8.93312535439571

>  <meeko>  (16) 
{"free_energy": -7.69, "intermolecular_energy": -9.48, "internal_energy": -1.1, "cluster_size": 1, "cluster_id": 5, "rank_in_cluster": 1}

>  <energy>  (16) 
-7.62

>  <cluster_rmsd>  (16) 
1.33

>  <cluster>  (16) 
1

$$$$

     RDKit          3D

 45 48  0  0  0  0  0  0  0  0999 V2000
  140.2530   73.4500  222.3820 O   0  0  0  0  0  0  0  0  0  0  0  0
  140.4530   72.2010  222.3980 C   0  0  0  0  0  0  0  0  0  0  0  0
  140.9070   71.5200  221.2350 N   0  0  0  0  0  0  0  0  0  0  0  0
  141.1500   72.2360  220.0130 C   0  0  0  0  0  0  0  0  0  0  0  0
  142.2780   73.1760  220.1020 C   0  0  0  0  0  0  0  0  0  0  0  0
  142.0430   74.3930  220.3330 O   0  0  0  0  0  0  0  0  0  0  0  0
  143.5910   72.6580  219.9220 N   0  0  0  0  0  0  0  0  0  0  0  0
  144.7100   72.6770  220.8710 C   0  0  0  0  0  0  0  0  0  0  0  0
  145.9560   72.7230  220.0170 C   0  0  2  0  0  0  0  0  0  0  0  0
  146.7180   73.8670  220.2910 O   0  0  0  0  0  0  0  0  0  0  0  0
  145.4420   72.7340  218.5950 C   0  0  0  0  0  0  0  0  0  0  0  0
  144.1170   71.9900  218.7520 C   0  0  1  0  0  0  0  0  0  0  0  0
  144.4370   70.6060  219.1470 C   0  0  0  0  0  0  0  0  0  0  0  0
  143.9540   69.7580  219.8210 N   0  0  0  0  0  0  0  0  0  0  0  0
  144.3760   68.5460  220.0770 C   0  0  0  0  0  0  0  0  0  0  0  0
  145.5660   68.1950  219.4740 C   0  0  0  0  0  0  0  0  0  0  0  0
  145.9880   69.7590  218.5290 S   0  0  0  0  0  0  0  0  0  0  0  0
  140.2150   71.4340  223.6320 C   0  0  0  0  0  0  0  0  0  0  0  0
  139.5080   70.2510  223.5730 C   0  0  0  0  0  0  0  0  0  0  0  0
  139.3240   69.5820  224.7870 C   0  0  0  0  0  0  0  0  0  0  0  0
  139.8190   70.0740  225.9760 C   0  0  0  0  0  0  0  0  0  0  0  0
  139.6570   69.4410  227.1890 C   0  0  0  0  0  0  0  0  0  0  0  0
  140.1860   69.9990  228.3440 C   0  0  0  0  0  0  0  0  0  0  0  0
  140.8880   71.1980  228.3260 C   0  0  0  0  0  0  0  0  0  0  0  0
  141.0510   71.8330  227.1120 C   0  0  0  0  0  0  0  0  0  0  0  0
  140.5180   71.2590  225.9770 C   0  0  0  0  0  0  0  0  0  0  0  0
  140.6830   71.8830  224.8090 N   0  0  0  0  0  0  0  0  0  0  0  0
  141.0530   70.4890  221.3170 H   0  0  0  0  0  0  0  0  0  0  0  0
  141.3656   71.5066  219.2183 H   0  0  0  0  0  0  0  0  0  0  0  0
  140.2487   72.8291  219.7990 H   0  0  0  0  0  0  0  0  0  0  0  0
  144.6525   73.5656  221.5169 H   0  0  0  0  0  0  0  0  0  0  0  0
  144.6998   71.8000  221.5349 H   0  0  0  0  0  0  0  0  0  0  0  0
  146.6234   71.8703  220.2104 H   0  0  0  0  0  0  0  0  0  0  0  0
  146.2450   74.6280  219.8660 H   0  0  0  0  0  0  0  0  0  0  0  0
  145.2872   73.7602  218.2303 H   0  0  0  0  0  0  0  0  0  0  0  0
  146.1287   72.2832  217.8635 H   0  0  0  0  0  0  0  0  0  0  0  0
  143.4628   71.9807  217.8677 H   0  0  0  0  0  0  0  0  0  0  0  0
  143.8203   67.8550  220.7279 H   0  0  0  0  0  0  0  0  0  0  0  0
  146.1213   67.2472  219.5321 H   0  0  0  0  0  0  0  0  0  0  0  0
  139.1118   69.8567  222.6256 H   0  0  0  0  0  0  0  0  0  0  0  0
  138.7669   68.6335  224.7936 H   0  0  0  0  0  0  0  0  0  0  0  0
  139.1065   68.4902  227.2419 H   0  0  0  0  0  0  0  0  0  0  0  0
  140.0455   69.4769  229.3019 H   0  0  0  0  0  0  0  0  0  0  0  0
  141.3009   71.6275  229.2507 H   0  0  0  0  0  0  0  0  0  0  0  0
  141.5990   72.7848  227.0502 H   0  0  0  0  0  0  0  0  0  0  0  0
  1  2  2  0
  2  3  1  0
  3  4  1  0
  4  5  1  0
  5  6  2  0
  5  7  1  0
  7  8  1  0
  8  9  1  0
  9 10  1  0
  9 11  1  0
 11 12  1  0
 12 13  1  0
 13 14  2  0
 14 15  1  0
 15 16  2  0
 16 17  1  0
  2 18  1  0
 18 19  2  0
 19 20  1  0
 20 21  2  0
 21 22  1  0
 22 23  2  0
 23 24  1  0
 24 25  2  0
 25 26  1  0
 26 27  2  0
 12  7  1  0
 17 13  1  0
 27 18  1  0
 26 21  1  0
  3 28  1  0
  4 29  1  0
  4 30  1  0
  8 31  1  0
  8 32  1  0
  9 33  1  6
 10 34  1  0
 11 35  1  0
 11 36  1  0
 12 37  1  6
 15 38  1  0
 16 39  1  0
 19 40  1  0
 20 41  1  0
 22 42  1  0
 23 43  1  0
 24 44  1  0
 25 45  1  0
M  END
>  <smiles>  (17) 
O=C(NCC(=O)N1C[C@H](O)C[C@H]1c1nccs1)c1ccc2ccccc2n1

>  <score_type>  (17) 
oracle

>  <origin>  (17) 
autodockgpu

>  <m_score__min__energy>  (17) 
-7.9100000000000001

>  <m_primary>  (17) 
energy

>  <rmsd>  (17) 
5.789218177300954

>  <m_score__min__rmsd>  (17) 
5.789218177300954

>  <meeko>  (17) 
{"free_energy": -7.9, "intermolecular_energy": -9.69, "internal_energy": -1.31, "cluster_size": 5, "cluster_id": 3, "rank_in_cluster": 2}

>  <energy>  (17) 
-7.62

>  <cluster_rmsd>  (17) 
1.33

>  <cluster>  (17) 
1

$$$$

     RDKit          3D

 45 48  0  0  0  0  0  0  0  0999 V2000
  141.3770   72.5510  221.5600 O   0  0  0  0  0  0  0  0  0  0  0  0
  140.4320   72.7040  222.3870 C   0  0  0  0  0  0  0  0  0  0  0  0
  139.6030   73.8600  222.3410 N   0  0  0  0  0  0  0  0  0  0  0  0
  139.8220   74.8800  221.3540 C   0  0  0  0  0  0  0  0  0  0  0  0
  139.4080   76.2200  221.7990 C   0  0  0  0  0  0  0  0  0  0  0  0
  138.5220   76.3210  222.6910 O   0  0  0  0  0  0  0  0  0  0  0  0
  140.0350   77.3440  221.1940 N   0  0  0  0  0  0  0  0  0  0  0  0
  139.3980   78.5010  220.5530 C   0  0  0  0  0  0  0  0  0  0  0  0
  140.3720   78.9570  219.4930 C   0  0  2  0  0  0  0  0  0  0  0  0
  139.7940   78.9120  218.2170 O   0  0  0  0  0  0  0  0  0  0  0  0
  141.5320   77.9920  219.6030 C   0  0  0  0  0  0  0  0  0  0  0  0
  141.4540   77.6000  221.0770 C   0  0  1  0  0  0  0  0  0  0  0  0
  141.7450   78.8100  221.8680 C   0  0  0  0  0  0  0  0  0  0  0  0
  142.1570   79.9040  221.6690 N   0  0  0  0  0  0  0  0  0  0  0  0
  142.3630   80.8890  222.5050 C   0  0  0  0  0  0  0  0  0  0  0  0
  142.0570   80.6190  223.8240 C   0  0  0  0  0  0  0  0  0  0  0  0
  141.4590   78.8450  223.7180 S   0  0  0  0  0  0  0  0  0  0  0  0
  140.1770   71.6790  223.4120 C   0  0  0  0  0  0  0  0  0  0  0  0
  139.5520   70.5020  223.0600 C   0  0  0  0  0  0  0  0  0  0  0  0
  139.3460   69.5800  224.0900 C   0  0  0  0  0  0  0  0  0  0  0  0
  139.7440   69.8310  225.3860 C   0  0  0  0  0  0  0  0  0  0  0  0
  139.5580   68.9450  226.4250 C   0  0  0  0  0  0  0  0  0  0  0  0
  139.9870   69.2690  227.7050 C   0  0  0  0  0  0  0  0  0  0  0  0
  140.6100   70.4780  227.9860 C   0  0  0  0  0  0  0  0  0  0  0  0
  140.7980   71.3660  226.9460 C   0  0  0  0  0  0  0  0  0  0  0  0
  140.3640   71.0220  225.6830 C   0  0  0  0  0  0  0  0  0  0  0  0
  140.5510   71.8890  224.6860 N   0  0  0  0  0  0  0  0  0  0  0  0
  138.8410   73.9230  223.0510 H   0  0  0  0  0  0  0  0  0  0  0  0
  140.8950   74.9082  221.1134 H   0  0  0  0  0  0  0  0  0  0  0  0
  139.2072   74.6233  220.4787 H   0  0  0  0  0  0  0  0  0  0  0  0
  138.4406   78.2096  220.0965 H   0  0  0  0  0  0  0  0  0  0  0  0
  139.1763   79.2995  221.2764 H   0  0  0  0  0  0  0  0  0  0  0  0
  140.6844   80.0016  219.6389 H   0  0  0  0  0  0  0  0  0  0  0  0
  139.9780   78.0060  217.8570 H   0  0  0  0  0  0  0  0  0  0  0  0
  141.3946   77.1202  218.9464 H   0  0  0  0  0  0  0  0  0  0  0  0
  142.5010   78.4148  219.2993 H   0  0  0  0  0  0  0  0  0  0  0  0
  142.1190   76.7827  221.3928 H   0  0  0  0  0  0  0  0  0  0  0  0
  142.7530   81.8647  222.1796 H   0  0  0  0  0  0  0  0  0  0  0  0
  142.1417   81.2724  224.7049 H   0  0  0  0  0  0  0  0  0  0  0  0
  139.2333   70.2998  222.0268 H   0  0  0  0  0  0  0  0  0  0  0  0
  138.8512   68.6249  223.8597 H   0  0  0  0  0  0  0  0  0  0  0  0
  139.0680   67.9778  226.2395 H   0  0  0  0  0  0  0  0  0  0  0  0
  139.8289   68.5474  228.5200 H   0  0  0  0  0  0  0  0  0  0  0  0
  140.9433   70.7205  229.0058 H   0  0  0  0  0  0  0  0  0  0  0  0
  141.2875   72.3352  227.1223 H   0  0  0  0  0  0  0  0  0  0  0  0
  1  2  2  0
  2  3  1  0
  3  4  1  0
  4  5  1  0
  5  6  2  0
  5  7  1  0
  7  8  1  0
  8  9  1  0
  9 10  1  0
  9 11  1  0
 11 12  1  0
 12 13  1  0
 13 14  2  0
 14 15  1  0
 15 16  2  0
 16 17  1  0
  2 18  1  0
 18 19  2  0
 19 20  1  0
 20 21  2  0
 21 22  1  0
 22 23  2  0
 23 24  1  0
 24 25  2  0
 25 26  1  0
 26 27  2  0
 12  7  1  0
 17 13  1  0
 27 18  1  0
 26 21  1  0
  3 28  1  0
  4 29  1  0
  4 30  1  0
  8 31  1  0
  8 32  1  0
  9 33  1  1
 10 34  1  0
 11 35  1  0
 11 36  1  0
 12 37  1  6
 15 38  1  0
 16 39  1  0
 19 40  1  0
 20 41  1  0
 22 42  1  0
 23 43  1  0
 24 44  1  0
 25 45  1  0
M  END
>  <smiles>  (18) 
O=C(NCC(=O)N1C[C@H](O)C[C@H]1c1nccs1)c1ccc2ccccc2n1

>  <score_type>  (18) 
oracle

>  <origin>  (18) 
autodockgpu

>  <m_score__min__energy>  (18) 
-7.9100000000000001

>  <m_primary>  (18) 
energy

>  <rmsd>  (18) 
2.241779035973417

>  <m_score__min__rmsd>  (18) 
2.241779035973417

>  <meeko>  (18) 
{"free_energy": -7.62, "intermolecular_energy": -9.41, "internal_energy": -1.44, "cluster_size": 24, "cluster_id": 1, "rank_in_cluster": 16}

>  <energy>  (18) 
-7.6

>  <cluster_rmsd>  (18) 
1.31

>  <cluster>  (18) 
1

$$$$

     RDKit          3D

 45 48  0  0  0  0  0  0  0  0999 V2000
  141.3580   72.5560  221.5520 O   0  0  0  0  0  0  0  0  0  0  0  0
  140.4190   72.7040  222.3870 C   0  0  0  0  0  0  0  0  0  0  0  0
  139.5750   73.8490  222.3400 N   0  0  0  0  0  0  0  0  0  0  0  0
  139.7710   74.8640  221.3430 C   0  0  0  0  0  0  0  0  0  0  0  0
  139.3940   76.2110  221.8000 C   0  0  0  0  0  0  0  0  0  0  0  0
  138.5220   76.3280  222.7030 O   0  0  0  0  0  0  0  0  0  0  0  0
  140.0400   77.3230  221.1930 N   0  0  0  0  0  0  0  0  0  0  0  0
  139.4220   78.4850  220.5430 C   0  0  0  0  0  0  0  0  0  0  0  0
  140.4090   78.9230  219.4860 C   0  0  2  0  0  0  0  0  0  0  0  0
  139.8380   78.8790  218.2070 O   0  0  0  0  0  0  0  0  0  0  0  0
  141.5550   77.9430  219.6080 C   0  0  0  0  0  0  0  0  0  0  0  0
  141.4630   77.5590  221.0830 C   0  0  1  0  0  0  0  0  0  0  0  0
  141.7660   78.7690  221.8700 C   0  0  0  0  0  0  0  0  0  0  0  0
  142.1870   79.8590  221.6670 N   0  0  0  0  0  0  0  0  0  0  0  0
  142.4030   80.8440  222.5000 C   0  0  0  0  0  0  0  0  0  0  0  0
  142.0970   80.5820  223.8190 C   0  0  0  0  0  0  0  0  0  0  0  0
  141.4840   78.8120  223.7200 S   0  0  0  0  0  0  0  0  0  0  0  0
  140.1880   71.6850  223.4230 C   0  0  0  0  0  0  0  0  0  0  0  0
  139.5370   70.5140  223.0950 C   0  0  0  0  0  0  0  0  0  0  0  0
  139.3560   69.5960  224.1330 C   0  0  0  0  0  0  0  0  0  0  0  0
  139.8010   69.8450  225.4140 C   0  0  0  0  0  0  0  0  0  0  0  0
  139.6400   68.9640  226.4620 C   0  0  0  0  0  0  0  0  0  0  0  0
  140.1160   69.2860  227.7250 C   0  0  0  0  0  0  0  0  0  0  0  0
  140.7620   70.4880  227.9820 C   0  0  0  0  0  0  0  0  0  0  0  0
  140.9250   71.3710  226.9340 C   0  0  0  0  0  0  0  0  0  0  0  0
  140.4450   71.0300  225.6870 C   0  0  0  0  0  0  0  0  0  0  0  0
  140.6070   71.8930  224.6830 N   0  0  0  0  0  0  0  0  0  0  0  0
  138.8190   73.9080  223.0570 H   0  0  0  0  0  0  0  0  0  0  0  0
  140.8343   74.8759  221.0616 H   0  0  0  0  0  0  0  0  0  0  0  0
  139.1193   74.6148  220.4926 H   0  0  0  0  0  0  0  0  0  0  0  0
  138.4635   78.2041  220.0822 H   0  0  0  0  0  0  0  0  0  0  0  0
  139.2064   79.2898  221.2612 H   0  0  0  0  0  0  0  0  0  0  0  0
  140.7346   79.9640  219.6283 H   0  0  0  0  0  0  0  0  0  0  0  0
  140.3860   78.2470  217.6760 H   0  0  0  0  0  0  0  0  0  0  0  0
  141.4099   77.0701  218.9546 H   0  0  0  0  0  0  0  0  0  0  0  0
  142.5314   78.3515  219.3084 H   0  0  0  0  0  0  0  0  0  0  0  0
  142.1148   76.7340  221.4065 H   0  0  0  0  0  0  0  0  0  0  0  0
  142.8015   81.8151  222.1710 H   0  0  0  0  0  0  0  0  0  0  0  0
  142.1883   81.2379  224.6973 H   0  0  0  0  0  0  0  0  0  0  0  0
  139.1804   70.3140  222.0738 H   0  0  0  0  0  0  0  0  0  0  0  0
  138.8431   68.6461  223.9217 H   0  0  0  0  0  0  0  0  0  0  0  0
  139.1324   68.0023  226.2964 H   0  0  0  0  0  0  0  0  0  0  0  0
  139.9775   68.5680  228.5468 H   0  0  0  0  0  0  0  0  0  0  0  0
  141.1322   70.7289  228.9894 H   0  0  0  0  0  0  0  0  0  0  0  0
  141.4314   72.3347  227.0914 H   0  0  0  0  0  0  0  0  0  0  0  0
  1  2  2  0
  2  3  1  0
  3  4  1  0
  4  5  1  0
  5  6  2  0
  5  7  1  0
  7  8  1  0
  8  9  1  0
  9 10  1  0
  9 11  1  0
 11 12  1  0
 12 13  1  0
 13 14  2  0
 14 15  1  0
 15 16  2  0
 16 17  1  0
  2 18  1  0
 18 19  2  0
 19 20  1  0
 20 21  2  0
 21 22  1  0
 22 23  2  0
 23 24  1  0
 24 25  2  0
 25 26  1  0
 26 27  2  0
 12  7  1  0
 17 13  1  0
 27 18  1  0
 26 21  1  0
  3 28  1  0
  4 29  1  0
  4 30  1  0
  8 31  1  0
  8 32  1  0
  9 33  1  1
 10 34  1  0
 11 35  1  0
 11 36  1  0
 12 37  1  6
 15 38  1  0
 16 39  1  0
 19 40  1  0
 20 41  1  0
 22 42  1  0
 23 43  1  0
 24 44  1  0
 25 45  1  0
M  END
>  <smiles>  (19) 
O=C(NCC(=O)N1C[C@H](O)C[C@H]1c1nccs1)c1ccc2ccccc2n1

>  <score_type>  (19) 
oracle

>  <origin>  (19) 
autodockgpu

>  <m_score__min__energy>  (19) 
-7.9100000000000001

>  <m_primary>  (19) 
energy

>  <rmsd>  (19) 
2.226352585196443

>  <m_score__min__rmsd>  (19) 
2.226352585196443

>  <meeko>  (19) 
{"free_energy": -7.66, "intermolecular_energy": -9.45, "internal_energy": -1.43, "cluster_size": 24, "cluster_id": 1, "rank_in_cluster": 12}

>  <energy>  (19) 
-7.59

>  <cluster_rmsd>  (19) 
1.37

>  <cluster>  (19) 
1

$$$$

     RDKit          3D

 45 48  0  0  0  0  0  0  0  0999 V2000
  140.6600   73.1660  222.3430 O   0  0  0  0  0  0  0  0  0  0  0  0
  140.4720   71.9160  222.3720 C   0  0  0  0  0  0  0  0  0  0  0  0
  140.5090   71.1460  221.1760 N   0  0  0  0  0  0  0  0  0  0  0  0
  140.7610   71.7710  219.9080 C   0  0  0  0  0  0  0  0  0  0  0  0
  142.1290   71.5540  219.4120 C   0  0  0  0  0  0  0  0  0  0  0  0
  142.4340   70.4280  218.9330 O   0  0  0  0  0  0  0  0  0  0  0  0
  143.0480   72.6360  219.5000 N   0  0  0  0  0  0  0  0  0  0  0  0
  143.9370   73.1560  218.4540 C   0  0  0  0  0  0  0  0  0  0  0  0
  145.1340   73.7110  219.1880 C   0  0  2  0  0  0  0  0  0  0  0  0
  146.3160   73.0720  218.7890 O   0  0  0  0  0  0  0  0  0  0  0  0
  144.8380   73.4540  220.6480 C   0  0  0  0  0  0  0  0  0  0  0  0
  143.3110   73.4730  220.6500 C   0  0  1  0  0  0  0  0  0  0  0  0
  142.8900   74.8420  220.2970 C   0  0  0  0  0  0  0  0  0  0  0  0
  143.4060   75.8500  219.9460 N   0  0  0  0  0  0  0  0  0  0  0  0
  142.8760   77.0120  219.6660 C   0  0  0  0  0  0  0  0  0  0  0  0
  141.5040   77.0840  219.7990 C   0  0  0  0  0  0  0  0  0  0  0  0
  141.0870   75.3420  220.3550 S   0  0  0  0  0  0  0  0  0  0  0  0
  140.2100   71.2400  223.6530 C   0  0  0  0  0  0  0  0  0  0  0  0
  139.4560   70.0850  223.6730 C   0  0  0  0  0  0  0  0  0  0  0  0
  139.2530   69.5030  224.9280 C   0  0  0  0  0  0  0  0  0  0  0  0
  139.7740   70.0500  226.0810 C   0  0  0  0  0  0  0  0  0  0  0  0
  139.5940   69.5040  227.3330 C   0  0  0  0  0  0  0  0  0  0  0  0
  140.1520   70.1130  228.4480 C   0  0  0  0  0  0  0  0  0  0  0  0
  140.9010   71.2780  228.3510 C   0  0  0  0  0  0  0  0  0  0  0  0
  141.0830   71.8270  227.0970 C   0  0  0  0  0  0  0  0  0  0  0  0
  140.5200   71.2040  226.0030 C   0  0  0  0  0  0  0  0  0  0  0  0
  140.7030   71.7440  224.7970 N   0  0  0  0  0  0  0  0  0  0  0  0
  140.3460   70.1180  221.2700 H   0  0  0  0  0  0  0  0  0  0  0  0
  140.0539   71.3625  219.1711 H   0  0  0  0  0  0  0  0  0  0  0  0
  140.6344   72.8546  220.0489 H   0  0  0  0  0  0  0  0  0  0  0  0
  144.2433   72.3488  217.7723 H   0  0  0  0  0  0  0  0  0  0  0  0
  143.4421   73.9217  217.8386 H   0  0  0  0  0  0  0  0  0  0  0  0
  145.2903   74.7795  218.9783 H   0  0  0  0  0  0  0  0  0  0  0  0
  146.9630   73.7900  218.5670 H   0  0  0  0  0  0  0  0  0  0  0  0
  145.2293   72.4786  220.9728 H   0  0  0  0  0  0  0  0  0  0  0  0
  145.2990   74.1780  221.3359 H   0  0  0  0  0  0  0  0  0  0  0  0
  142.8277   73.1673  221.5896 H   0  0  0  0  0  0  0  0  0  0  0  0
  143.4817   77.8728  219.3465 H   0  0  0  0  0  0  0  0  0  0  0  0
  140.8325   77.9377  219.6249 H   0  0  0  0  0  0  0  0  0  0  0  0
  139.0384   69.6470  222.7544 H   0  0  0  0  0  0  0  0  0  0  0  0
  138.6590   68.5798  224.9974 H   0  0  0  0  0  0  0  0  0  0  0  0
  139.0057   68.5818  227.4492 H   0  0  0  0  0  0  0  0  0  0  0  0
  139.9963   69.6594  229.4379 H   0  0  0  0  0  0  0  0  0  0  0  0
  141.3358   71.7489  229.2450 H   0  0  0  0  0  0  0  0  0  0  0  0
  141.6694   72.7493  226.9723 H   0  0  0  0  0  0  0  0  0  0  0  0
  1  2  2  0
  2  3  1  0
  3  4  1  0
  4  5  1  0
  5  6  2  0
  5  7  1  0
  7  8  1  0
  8  9  1  0
  9 10  1  0
  9 11  1  0
 11 12  1  0
 12 13  1  0
 13 14  2  0
 14 15  1  0
 15 16  2  0
 16 17  1  0
  2 18  1  0
 18 19  2  0
 19 20  1  0
 20 21  2  0
 21 22  1  0
 22 23  2  0
 23 24  1  0
 24 25  2  0
 25 26  1  0
 26 27  2  0
 12  7  1  0
 17 13  1  0
 27 18  1  0
 26 21  1  0
  3 28  1  0
  4 29  1  0
  4 30  1  0
  8 31  1  0
  8 32  1  0
  9 33  1  1
 10 34  1  0
 11 35  1  0
 11 36  1  0
 12 37  1  1
 15 38  1  0
 16 39  1  0
 19 40  1  0
 20 41  1  0
 22 42  1  0
 23 43  1  0
 24 44  1  0
 25 45  1  0
M  END
>  <smiles>  (20) 
O=C(NCC(=O)N1C[C@H](O)C[C@H]1c1nccs1)c1ccc2ccccc2n1

>  <score_type>  (20) 
oracle

>  <origin>  (20) 
autodockgpu

>  <m_score__min__energy>  (20) 
-7.9100000000000001

>  <m_primary>  (20) 
energy

>  <rmsd>  (20) 
3.7316540408809358

>  <m_score__min__rmsd>  (20) 
3.7316540408809358

>  <meeko>  (20) 
{"free_energy": -7.76, "intermolecular_energy": -9.55, "internal_energy": -1.35, "cluster_size": 2, "cluster_id": 4, "rank_in_cluster": 1}

>  <energy>  (20) 
-7.59

>  <cluster_rmsd>  (20) 
1.25

>  <cluster>  (20) 
1

$$$$

     RDKit          3D

 45 48  0  0  0  0  0  0  0  0999 V2000
  141.3870   72.5630  221.5920 O   0  0  0  0  0  0  0  0  0  0  0  0
  140.4320   72.6710  222.4150 C   0  0  0  0  0  0  0  0  0  0  0  0
  139.5360   73.7740  222.3500 N   0  0  0  0  0  0  0  0  0  0  0  0
  139.6950   74.7910  221.3480 C   0  0  0  0  0  0  0  0  0  0  0  0
  139.4190   76.1480  221.8450 C   0  0  0  0  0  0  0  0  0  0  0  0
  138.5950   76.2980  222.7880 O   0  0  0  0  0  0  0  0  0  0  0  0
  140.1030   77.2330  221.2300 N   0  0  0  0  0  0  0  0  0  0  0  0
  139.5270   78.3740  220.5090 C   0  0  0  0  0  0  0  0  0  0  0  0
  140.5680   78.7660  219.4860 C   0  0  2  0  0  0  0  0  0  0  0  0
  140.0580   78.6790  218.1830 O   0  0  0  0  0  0  0  0  0  0  0  0
  141.6980   77.7830  219.6980 C   0  0  0  0  0  0  0  0  0  0  0  0
  141.5320   77.4540  221.1810 C   0  0  1  0  0  0  0  0  0  0  0  0
  141.8070   78.6900  221.9370 C   0  0  0  0  0  0  0  0  0  0  0  0
  142.2080   79.7820  221.7070 N   0  0  0  0  0  0  0  0  0  0  0  0
  142.4010   80.7930  222.5140 C   0  0  0  0  0  0  0  0  0  0  0  0
  142.0930   80.5590  223.8390 C   0  0  0  0  0  0  0  0  0  0  0  0
  141.5140   78.7760  223.7840 S   0  0  0  0  0  0  0  0  0  0  0  0
  140.2380   71.6490  223.4550 C   0  0  0  0  0  0  0  0  0  0  0  0
  139.5960   70.4690  223.1410 C   0  0  0  0  0  0  0  0  0  0  0  0
  139.4500   69.5490  224.1830 C   0  0  0  0  0  0  0  0  0  0  0  0
  139.9190   69.8040  225.4540 C   0  0  0  0  0  0  0  0  0  0  0  0
  139.7930   68.9210  226.5040 C   0  0  0  0  0  0  0  0  0  0  0  0
  140.2910   69.2500  227.7580 C   0  0  0  0  0  0  0  0  0  0  0  0
  140.9260   70.4610  228.0010 C   0  0  0  0  0  0  0  0  0  0  0  0
  141.0540   71.3460  226.9500 C   0  0  0  0  0  0  0  0  0  0  0  0
  140.5520   70.9980  225.7140 C   0  0  0  0  0  0  0  0  0  0  0  0
  140.6810   71.8630  224.7060 N   0  0  0  0  0  0  0  0  0  0  0  0
  138.7690   73.8020  223.0580 H   0  0  0  0  0  0  0  0  0  0  0  0
  140.7309   74.7585  220.9793 H   0  0  0  0  0  0  0  0  0  0  0  0
  138.9644   74.5811  220.5529 H   0  0  0  0  0  0  0  0  0  0  0  0
  138.5896   78.0827  220.0126 H   0  0  0  0  0  0  0  0  0  0  0  0
  139.2834   79.2062  221.1859 H   0  0  0  0  0  0  0  0  0  0  0  0
  140.8961   79.8090  219.6066 H   0  0  0  0  0  0  0  0  0  0  0  0
  140.5990   79.2990  217.6290 H   0  0  0  0  0  0  0  0  0  0  0  0
  141.5764   76.8877  219.0705 H   0  0  0  0  0  0  0  0  0  0  0  0
  142.6913   78.1729  219.4308 H   0  0  0  0  0  0  0  0  0  0  0  0
  142.1602   76.6370  221.5656 H   0  0  0  0  0  0  0  0  0  0  0  0
  142.7824   81.7626  222.1612 H   0  0  0  0  0  0  0  0  0  0  0  0
  142.1675   81.2391  224.7003 H   0  0  0  0  0  0  0  0  0  0  0  0
  139.2202   70.2638  222.1278 H   0  0  0  0  0  0  0  0  0  0  0  0
  138.9455   68.5923  223.9828 H   0  0  0  0  0  0  0  0  0  0  0  0
  139.2962   67.9520  226.3486 H   0  0  0  0  0  0  0  0  0  0  0  0
  140.1793   68.5306  228.5826 H   0  0  0  0  0  0  0  0  0  0  0  0
  141.3148   70.7070  229.0002 H   0  0  0  0  0  0  0  0  0  0  0  0
  141.5502   72.3167  227.0965 H   0  0  0  0  0  0  0  0  0  0  0  0
  1  2  2  0
  2  3  1  0
  3  4  1  0
  4  5  1  0
  5  6  2  0
  5  7  1  0
  7  8  1  0
  8  9  1  0
  9 10  1  0
  9 11  1  0
 11 12  1  0
 12 13  1  0
 13 14  2  0
 14 15  1  0
 15 16  2  0
 16 17  1  0
  2 18  1  0
 18 19  2  0
 19 20  1  0
 20 21  2  0
 21 22  1  0
 22 23  2  0
 23 24  1  0
 24 25  2  0
 25 26  1  0
 26 27  2  0
 12  7  1  0
 17 13  1  0
 27 18  1  0
 26 21  1  0
  3 28  1  0
  4 29  1  0
  4 30  1  0
  8 31  1  0
  8 32  1  0
  9 33  1  1
 10 34  1  0
 11 35  1  0
 11 36  1  0
 12 37  1  1
 15 38  1  0
 16 39  1  0
 19 40  1  0
 20 41  1  0
 22 42  1  0
 23 43  1  0
 24 44  1  0
 25 45  1  0
M  END
>  <smiles>  (21) 
O=C(NCC(=O)N1C[C@H](O)C[C@H]1c1nccs1)c1ccc2ccccc2n1

>  <score_type>  (21) 
oracle

>  <origin>  (21) 
autodockgpu

>  <m_score__min__energy>  (21) 
-7.9100000000000001

>  <m_primary>  (21) 
energy

>  <rmsd>  (21) 
2.187097648997631

>  <m_score__min__rmsd>  (21) 
2.187097648997631

>  <meeko>  (21) 
{"free_energy": -7.66, "intermolecular_energy": -9.45, "internal_energy": -1.36, "cluster_size": 24, "cluster_id": 1, "rank_in_cluster": 11}

>  <energy>  (21) 
-7.58

>  <cluster_rmsd>  (21) 
1.27

>  <cluster>  (21) 
1

$$$$

     RDKit          3D

 45 48  0  0  0  0  0  0  0  0999 V2000
  141.0020   71.7350  221.4170 O   0  0  0  0  0  0  0  0  0  0  0  0
  140.3520   72.1880  222.4030 C   0  0  0  0  0  0  0  0  0  0  0  0
  139.7290   73.4650  222.3400 N   0  0  0  0  0  0  0  0  0  0  0  0
  139.8250   74.2710  221.1550 C   0  0  0  0  0  0  0  0  0  0  0  0
  141.0580   75.0690  221.0900 C   0  0  0  0  0  0  0  0  0  0  0  0
  141.1390   76.1260  221.7730 O   0  0  0  0  0  0  0  0  0  0  0  0
  142.1090   74.6020  220.2520 N   0  0  0  0  0  0  0  0  0  0  0  0
  142.1140   73.4230  219.3780 C   0  0  0  0  0  0  0  0  0  0  0  0
  143.5540   72.9690  219.3290 C   0  0  2  0  0  0  0  0  0  0  0  0
  143.6890   71.6570  219.8020 O   0  0  0  0  0  0  0  0  0  0  0  0
  144.2920   73.9490  220.2140 C   0  0  0  0  0  0  0  0  0  0  0  0
  143.4170   75.1930  220.0740 C   0  0  1  0  0  0  0  0  0  0  0  0
  143.5070   75.6360  218.6700 C   0  0  0  0  0  0  0  0  0  0  0  0
  144.0100   75.2550  217.6660 N   0  0  0  0  0  0  0  0  0  0  0  0
  143.9950   75.7790  216.4670 C   0  0  0  0  0  0  0  0  0  0  0  0
  143.2870   76.9570  216.3460 C   0  0  0  0  0  0  0  0  0  0  0  0
  142.6690   77.2090  218.0990 S   0  0  0  0  0  0  0  0  0  0  0  0
  140.2320   71.3900  223.6340 C   0  0  0  0  0  0  0  0  0  0  0  0
  139.6620   70.1360  223.5810 C   0  0  0  0  0  0  0  0  0  0  0  0
  139.5840   69.4420  224.7920 C   0  0  0  0  0  0  0  0  0  0  0  0
  140.0490   69.9790  225.9740 C   0  0  0  0  0  0  0  0  0  0  0  0
  139.9890   69.3240  227.1850 C   0  0  0  0  0  0  0  0  0  0  0  0
  140.4790   69.9310  228.3330 C   0  0  0  0  0  0  0  0  0  0  0  0
  141.0400   71.2010  228.3090 C   0  0  0  0  0  0  0  0  0  0  0  0
  141.1010   71.8590  227.0970 C   0  0  0  0  0  0  0  0  0  0  0  0
  140.6090   71.2360  225.9700 C   0  0  0  0  0  0  0  0  0  0  0  0
  140.6740   71.8820  224.8040 N   0  0  0  0  0  0  0  0  0  0  0  0
  139.2070   73.7790  223.1880 H   0  0  0  0  0  0  0  0  0  0  0  0
  139.7925   73.6074  220.2783 H   0  0  0  0  0  0  0  0  0  0  0  0
  138.9818   74.9771  221.1734 H   0  0  0  0  0  0  0  0  0  0  0  0
  141.4744   72.6313  219.7954 H   0  0  0  0  0  0  0  0  0  0  0  0
  141.7224   73.6535  218.3762 H   0  0  0  0  0  0  0  0  0  0  0  0
  143.9504   72.9561  218.3030 H   0  0  0  0  0  0  0  0  0  0  0  0
  142.8930   71.4770  220.3650 H   0  0  0  0  0  0  0  0  0  0  0  0
  144.3321   73.5997  221.2563 H   0  0  0  0  0  0  0  0  0  0  0  0
  145.3448   74.1041  219.9356 H   0  0  0  0  0  0  0  0  0  0  0  0
  143.6626   76.0308  220.7432 H   0  0  0  0  0  0  0  0  0  0  0  0
  144.5110   75.3127  215.6148 H   0  0  0  0  0  0  0  0  0  0  0  0
  143.1271   77.5834  215.4560 H   0  0  0  0  0  0  0  0  0  0  0  0
  139.2898   69.7059  222.6395 H   0  0  0  0  0  0  0  0  0  0  0  0
  139.1379   68.4366  224.8024 H   0  0  0  0  0  0  0  0  0  0  0  0
  139.5512   68.3165  227.2420 H   0  0  0  0  0  0  0  0  0  0  0  0
  140.4213   69.3905  229.2893 H   0  0  0  0  0  0  0  0  0  0  0  0
  141.4240   71.6684  229.2277 H   0  0  0  0  0  0  0  0  0  0  0  0
  141.5364   72.8670  227.0314 H   0  0  0  0  0  0  0  0  0  0  0  0
  1  2  2  0
  2  3  1  0
  3  4  1  0
  4  5  1  0
  5  6  2  0
  5  7  1  0
  7  8  1  0
  8  9  1  0
  9 10  1  0
  9 11  1  0
 11 12  1  0
 12 13  1  0
 13 14  2  0
 14 15  1  0
 15 16  2  0
 16 17  1  0
  2 18  1  0
 18 19  2  0
 19 20  1  0
 20 21  2  0
 21 22  1  0
 22 23  2  0
 23 24  1  0
 24 25  2  0
 25 26  1  0
 26 27  2  0
 12  7  1  0
 17 13  1  0
 27 18  1  0
 26 21  1  0
  3 28  1  0
  4 29  1  0
  4 30  1  0
  8 31  1  0
  8 32  1  0
  9 33  1  6
 10 34  1  0
 11 35  1  0
 11 36  1  0
 12 37  1  1
 15 38  1  0
 16 39  1  0
 19 40  1  0
 20 41  1  0
 22 42  1  0
 23 43  1  0
 24 44  1  0
 25 45  1  0
M  END
>  <smiles>  (22) 
O=C(NCC(=O)N1C[C@H](O)C[C@H]1c1nccs1)c1ccc2ccccc2n1

>  <score_type>  (22) 
oracle

>  <origin>  (22) 
autodockgpu

>  <m_score__min__energy>  (22) 
-7.9100000000000001

>  <m_primary>  (22) 
energy

>  <rmsd>  (22) 
3.696487116089798

>  <m_score__min__rmsd>  (22) 
3.696487116089798

>  <meeko>  (22) 
{"free_energy": -6.98, "intermolecular_energy": -8.77, "internal_energy": -2.03, "cluster_size": 3, "cluster_id": 7, "rank_in_cluster": 2}

>  <energy>  (22) 
-7.53

>  <cluster_rmsd>  (22) 
1.28

>  <cluster>  (22) 
1

$$$$

     RDKit          3D

 45 48  0  0  0  0  0  0  0  0999 V2000
  139.0790   75.0870  221.6490 O   0  0  0  0  0  0  0  0  0  0  0  0
  140.1930   75.6350  221.8860 C   0  0  0  0  0  0  0  0  0  0  0  0
  141.4110   74.9260  221.6900 N   0  0  0  0  0  0  0  0  0  0  0  0
  141.4020   73.5700  221.2170 C   0  0  0  0  0  0  0  0  0  0  0  0
  142.0270   73.4080  219.8950 C   0  0  0  0  0  0  0  0  0  0  0  0
  142.1270   72.2510  219.4040 O   0  0  0  0  0  0  0  0  0  0  0  0
  142.4910   74.5780  219.2320 N   0  0  0  0  0  0  0  0  0  0  0  0
  143.3850   75.6200  219.7520 C   0  0  0  0  0  0  0  0  0  0  0  0
  142.9750   76.8880  219.0410 C   0  0  2  0  0  0  0  0  0  0  0  0
  142.5680   77.8730  219.9520 O   0  0  0  0  0  0  0  0  0  0  0  0
  141.8340   76.4680  218.1420 C   0  0  0  0  0  0  0  0  0  0  0  0
  142.1810   75.0030  217.8840 C   0  0  1  0  0  0  0  0  0  0  0  0
  143.4420   74.9800  217.1200 C   0  0  0  0  0  0  0  0  0  0  0  0
  143.9850   75.6580  216.3130 N   0  0  0  0  0  0  0  0  0  0  0  0
  145.1370   75.4920  215.7150 C   0  0  0  0  0  0  0  0  0  0  0  0
  145.8320   74.3560  216.0750 C   0  0  0  0  0  0  0  0  0  0  0  0
  144.6710   73.5840  217.3300 S   0  0  0  0  0  0  0  0  0  0  0  0
  140.2420   77.0240  222.3710 C   0  0  0  0  0  0  0  0  0  0  0  0
  139.0670   77.6890  222.6550 C   0  0  0  0  0  0  0  0  0  0  0  0
  139.1970   79.0040  223.1110 C   0  0  0  0  0  0  0  0  0  0  0  0
  140.4280   79.6050  223.2670 C   0  0  0  0  0  0  0  0  0  0  0  0
  140.5930   80.8980  223.7130 C   0  0  0  0  0  0  0  0  0  0  0  0
  141.8660   81.4350  223.8450 C   0  0  0  0  0  0  0  0  0  0  0  0
  143.0060   80.7040  223.5380 C   0  0  0  0  0  0  0  0  0  0  0  0
  142.8430   79.4090  223.0910 C   0  0  0  0  0  0  0  0  0  0  0  0
  141.5690   78.8960  222.9680 C   0  0  0  0  0  0  0  0  0  0  0  0
  141.4240   77.6430  222.5350 N   0  0  0  0  0  0  0  0  0  0  0  0
  142.2960   75.4380  221.9030 H   0  0  0  0  0  0  0  0  0  0  0  0
  141.9475   72.9451  221.9395 H   0  0  0  0  0  0  0  0  0  0  0  0
  140.3490   73.2679  221.1175 H   0  0  0  0  0  0  0  0  0  0  0  0
  143.2578   75.7295  220.8391 H   0  0  0  0  0  0  0  0  0  0  0  0
  144.4435   75.3763  219.5784 H   0  0  0  0  0  0  0  0  0  0  0  0
  143.8065   77.3339  218.4755 H   0  0  0  0  0  0  0  0  0  0  0  0
  142.7880   77.5280  220.8550 H   0  0  0  0  0  0  0  0  0  0  0  0
  140.8633   76.5687  218.6495 H   0  0  0  0  0  0  0  0  0  0  0  0
  141.7319   77.0745  217.2300 H   0  0  0  0  0  0  0  0  0  0  0  0
  141.4171   74.4136  217.3558 H   0  0  0  0  0  0  0  0  0  0  0  0
  145.5245   76.2089  214.9761 H   0  0  0  0  0  0  0  0  0  0  0  0
  146.8094   73.9974  215.7198 H   0  0  0  0  0  0  0  0  0  0  0  0
  138.0839   77.2116  222.5297 H   0  0  0  0  0  0  0  0  0  0  0  0
  138.2895   79.5767  223.3527 H   0  0  0  0  0  0  0  0  0  0  0  0
  139.7125   81.5071  223.9654 H   0  0  0  0  0  0  0  0  0  0  0  0
  141.9750   82.4694  224.2031 H   0  0  0  0  0  0  0  0  0  0  0  0
  144.0082   81.1439  223.6478 H   0  0  0  0  0  0  0  0  0  0  0  0
  143.7183   78.7935  222.8360 H   0  0  0  0  0  0  0  0  0  0  0  0
  1  2  2  0
  2  3  1  0
  3  4  1  0
  4  5  1  0
  5  6  2  0
  5  7  1  0
  7  8  1  0
  8  9  1  0
  9 10  1  0
  9 11  1  0
 11 12  1  0
 12 13  1  0
 13 14  2  0
 14 15  1  0
 15 16  2  0
 16 17  1  0
  2 18  1  0
 18 19  2  0
 19 20  1  0
 20 21  2  0
 21 22  1  0
 22 23  2  0
 23 24  1  0
 24 25  2  0
 25 26  1  0
 26 27  2  0
 12  7  1  0
 17 13  1  0
 27 18  1  0
 26 21  1  0
  3 28  1  0
  4 29  1  0
  4 30  1  0
  8 31  1  0
  8 32  1  0
  9 33  1  6
 10 34  1  0
 11 35  1  0
 11 36  1  0
 12 37  1  6
 15 38  1  0
 16 39  1  0
 19 40  1  0
 20 41  1  0
 22 42  1  0
 23 43  1  0
 24 44  1  0
 25 45  1  0
M  END
>  <smiles>  (23) 
O=C(NCC(=O)N1C[C@H](O)C[C@H]1c1nccs1)c1ccc2ccccc2n1

>  <score_type>  (23) 
oracle

>  <origin>  (23) 
autodockgpu

>  <m_score__min__energy>  (23) 
-7.9100000000000001

>  <m_primary>  (23) 
energy

>  <rmsd>  (23) 
7.5958938973247205

>  <m_score__min__rmsd>  (23) 
7.5958938973247205

>  <meeko>  (23) 
{"free_energy": -6.06, "intermolecular_energy": -7.85, "internal_energy": -2.73, "cluster_size": 4, "cluster_id": 6, "rank_in_cluster": 2}

>  <energy>  (23) 
-7.46

>  <cluster_rmsd>  (23) 
1.44

>  <cluster>  (23) 
1

$$$$

     RDKit          3D

 45 48  0  0  0  0  0  0  0  0999 V2000
  141.3570   72.4030  221.7840 O   0  0  0  0  0  0  0  0  0  0  0  0
  140.3580   72.5130  222.5520 C   0  0  0  0  0  0  0  0  0  0  0  0
  139.3880   73.5330  222.3440 N   0  0  0  0  0  0  0  0  0  0  0  0
  139.5210   74.4620  221.2570 C   0  0  0  0  0  0  0  0  0  0  0  0
  138.9880   75.7980  221.5640 C   0  0  0  0  0  0  0  0  0  0  0  0
  137.8480   75.8960  222.0930 O   0  0  0  0  0  0  0  0  0  0  0  0
  139.7960   76.9250  221.2440 N   0  0  0  0  0  0  0  0  0  0  0  0
  139.4830   78.0370  220.3390 C   0  0  0  0  0  0  0  0  0  0  0  0
  140.8150   78.4940  219.7920 C   0  0  2  0  0  0  0  0  0  0  0  0
  140.8540   78.3880  218.3950 O   0  0  0  0  0  0  0  0  0  0  0  0
  141.8270   77.5750  220.4390 C   0  0  0  0  0  0  0  0  0  0  0  0
  141.1190   77.2270  221.7470 C   0  0  1  0  0  0  0  0  0  0  0  0
  141.0120   78.4710  222.5320 C   0  0  0  0  0  0  0  0  0  0  0  0
  140.1770   79.0460  223.1470 N   0  0  0  0  0  0  0  0  0  0  0  0
  140.2460   80.1740  223.8050 C   0  0  0  0  0  0  0  0  0  0  0  0
  141.4770   80.7970  223.7850 C   0  0  0  0  0  0  0  0  0  0  0  0
  142.4860   79.6070  222.7440 S   0  0  0  0  0  0  0  0  0  0  0  0
  140.1880   71.5790  223.6770 C   0  0  0  0  0  0  0  0  0  0  0  0
  139.5460   70.3760  223.4730 C   0  0  0  0  0  0  0  0  0  0  0  0
  139.4240   69.5440  224.5900 C   0  0  0  0  0  0  0  0  0  0  0  0
  139.9160   69.9050  225.8270 C   0  0  0  0  0  0  0  0  0  0  0  0
  139.8140   69.1110  226.9480 C   0  0  0  0  0  0  0  0  0  0  0  0
  140.3350   69.5430  228.1600 C   0  0  0  0  0  0  0  0  0  0  0  0
  140.9700   70.7710  228.2900 C   0  0  0  0  0  0  0  0  0  0  0  0
  141.0730   71.5680  227.1680 C   0  0  0  0  0  0  0  0  0  0  0  0
  140.5490   71.1180  225.9740 C   0  0  0  0  0  0  0  0  0  0  0  0
  140.6550   71.8970  224.8970 N   0  0  0  0  0  0  0  0  0  0  0  0
  138.5870   73.5670  223.0140 H   0  0  0  0  0  0  0  0  0  0  0  0
  140.5885   74.5603  221.0106 H   0  0  0  0  0  0  0  0  0  0  0  0
  138.9358   74.0637  220.4150 H   0  0  0  0  0  0  0  0  0  0  0  0
  138.8279   77.6971  219.5234 H   0  0  0  0  0  0  0  0  0  0  0  0
  138.9521   78.8495  220.8566 H   0  0  0  0  0  0  0  0  0  0  0  0
  141.0134   79.5529  220.0142 H   0  0  0  0  0  0  0  0  0  0  0  0
  140.1710   77.7140  218.1450 H   0  0  0  0  0  0  0  0  0  0  0  0
  142.0066   76.6787  219.8271 H   0  0  0  0  0  0  0  0  0  0  0  0
  142.8234   78.0221  220.5703 H   0  0  0  0  0  0  0  0  0  0  0  0
  141.5939   76.4441  222.3565 H   0  0  0  0  0  0  0  0  0  0  0  0
  139.3818   80.5972  224.3379 H   0  0  0  0  0  0  0  0  0  0  0  0
  141.7853   81.7423  224.2555 H   0  0  0  0  0  0  0  0  0  0  0  0
  139.1521   70.0872  222.4874 H   0  0  0  0  0  0  0  0  0  0  0  0
  138.9205   68.5723  224.4790 H   0  0  0  0  0  0  0  0  0  0  0  0
  139.3180   68.1313  226.8826 H   0  0  0  0  0  0  0  0  0  0  0  0
  140.2421   68.8937  229.0430 H   0  0  0  0  0  0  0  0  0  0  0  0
  141.3784   71.0985  229.2575 H   0  0  0  0  0  0  0  0  0  0  0  0
  141.5666   72.5494  227.2251 H   0  0  0  0  0  0  0  0  0  0  0  0
  1  2  2  0
  2  3  1  0
  3  4  1  0
  4  5  1  0
  5  6  2  0
  5  7  1  0
  7  8  1  0
  8  9  1  0
  9 10  1  0
  9 11  1  0
 11 12  1  0
 12 13  1  0
 13 14  2  0
 14 15  1  0
 15 16  2  0
 16 17  1  0
  2 18  1  0
 18 19  2  0
 19 20  1  0
 20 21  2  0
 21 22  1  0
 22 23  2  0
 23 24  1  0
 24 25  2  0
 25 26  1  0
 26 27  2  0
 12  7  1  0
 17 13  1  0
 27 18  1  0
 26 21  1  0
  3 28  1  0
  4 29  1  0
  4 30  1  0
  8 31  1  0
  8 32  1  0
  9 33  1  6
 10 34  1  0
 11 35  1  0
 11 36  1  0
 12 37  1  1
 15 38  1  0
 16 39  1  0
 19 40  1  0
 20 41  1  0
 22 42  1  0
 23 43  1  0
 24 44  1  0
 25 45  1  0
M  END
>  <smiles>  (24) 
O=C(NCC(=O)N1C[C@H](O)C[C@H]1c1nccs1)c1ccc2ccccc2n1

>  <score_type>  (24) 
oracle

>  <origin>  (24) 
autodockgpu

>  <m_score__min__energy>  (24) 
-7.9100000000000001

>  <m_primary>  (24) 
energy

>  <rmsd>  (24) 
2.158633527491296

>  <m_score__min__rmsd>  (24) 
2.158633527491296

>  <meeko>  (24) 
{"free_energy": -7.63, "intermolecular_energy": -9.42, "internal_energy": -1.33, "cluster_size": 24, "cluster_id": 1, "rank_in_cluster": 13}

>  <energy>  (24) 
-7.38

>  <cluster_rmsd>  (24) 
0.83

>  <cluster>  (24) 
1

$$$$

     RDKit          3D

 45 48  0  0  0  0  0  0  0  0999 V2000
  141.4150   72.4610  221.5520 O   0  0  0  0  0  0  0  0  0  0  0  0
  140.5000   72.6620  222.4030 C   0  0  0  0  0  0  0  0  0  0  0  0
  139.7060   73.8410  222.3530 N   0  0  0  0  0  0  0  0  0  0  0  0
  139.9230   74.8310  221.3360 C   0  0  0  0  0  0  0  0  0  0  0  0
  139.4340   76.1670  221.7080 C   0  0  0  0  0  0  0  0  0  0  0  0
  138.4730   76.2620  222.5190 O   0  0  0  0  0  0  0  0  0  0  0  0
  140.0770   77.2960  221.1280 N   0  0  0  0  0  0  0  0  0  0  0  0
  139.4560   78.4610  220.4870 C   0  0  0  0  0  0  0  0  0  0  0  0
  140.4530   78.9250  219.4510 C   0  0  2  0  0  0  0  0  0  0  0  0
  139.9000   78.8970  218.1640 O   0  0  0  0  0  0  0  0  0  0  0  0
  141.6070   77.9550  219.5730 C   0  0  0  0  0  0  0  0  0  0  0  0
  141.4990   77.5470  221.0410 C   0  0  1  0  0  0  0  0  0  0  0  0
  141.7790   78.7470  221.8510 C   0  0  0  0  0  0  0  0  0  0  0  0
  142.1850   79.8470  221.6700 N   0  0  0  0  0  0  0  0  0  0  0  0
  142.3810   80.8210  222.5210 C   0  0  0  0  0  0  0  0  0  0  0  0
  142.0690   80.5310  223.8330 C   0  0  0  0  0  0  0  0  0  0  0  0
  141.4820   78.7550  223.6990 S   0  0  0  0  0  0  0  0  0  0  0  0
  140.2480   71.6700  223.4600 C   0  0  0  0  0  0  0  0  0  0  0  0
  139.5790   70.5040  223.1560 C   0  0  0  0  0  0  0  0  0  0  0  0
  139.3780   69.6120  224.2140 C   0  0  0  0  0  0  0  0  0  0  0  0
  139.8220   69.8830  225.4910 C   0  0  0  0  0  0  0  0  0  0  0  0
  139.6420   69.0280  226.5570 C   0  0  0  0  0  0  0  0  0  0  0  0
  140.1180   69.3700  227.8150 C   0  0  0  0  0  0  0  0  0  0  0  0
  140.7840   70.5660  228.0470 C   0  0  0  0  0  0  0  0  0  0  0  0
  140.9660   71.4230  226.9810 C   0  0  0  0  0  0  0  0  0  0  0  0
  140.4840   71.0620  225.7400 C   0  0  0  0  0  0  0  0  0  0  0  0
  140.6660   71.8990  224.7170 N   0  0  0  0  0  0  0  0  0  0  0  0
  138.9680   73.9440  223.0850 H   0  0  0  0  0  0  0  0  0  0  0  0
  141.0031   74.8974  221.1388 H   0  0  0  0  0  0  0  0  0  0  0  0
  139.3571   74.5137  220.4477 H   0  0  0  0  0  0  0  0  0  0  0  0
  138.5071   78.1772  220.0085 H   0  0  0  0  0  0  0  0  0  0  0  0
  139.2217   79.2526  221.2140 H   0  0  0  0  0  0  0  0  0  0  0  0
  140.7666   79.9666  219.6147 H   0  0  0  0  0  0  0  0  0  0  0  0
  139.7300   77.9430  217.9520 H   0  0  0  0  0  0  0  0  0  0  0  0
  141.4796   77.0910  218.9042 H   0  0  0  0  0  0  0  0  0  0  0  0
  142.5831   78.3777  219.2929 H   0  0  0  0  0  0  0  0  0  0  0  0
  142.1547   76.7234  221.3602 H   0  0  0  0  0  0  0  0  0  0  0  0
  142.7678   81.8032  222.2118 H   0  0  0  0  0  0  0  0  0  0  0  0
  142.1446   81.1725  224.7233 H   0  0  0  0  0  0  0  0  0  0  0  0
  139.2230   70.2872  222.1380 H   0  0  0  0  0  0  0  0  0  0  0  0
  138.8501   68.6663  224.0219 H   0  0  0  0  0  0  0  0  0  0  0  0
  139.1193   68.0713  226.4102 H   0  0  0  0  0  0  0  0  0  0  0  0
  139.9632   68.6736  228.6523 H   0  0  0  0  0  0  0  0  0  0  0  0
  141.1553   70.8225  229.0502 H   0  0  0  0  0  0  0  0  0  0  0  0
  141.4884   72.3811  227.1190 H   0  0  0  0  0  0  0  0  0  0  0  0
  1  2  2  0
  2  3  1  0
  3  4  1  0
  4  5  1  0
  5  6  2  0
  5  7  1  0
  7  8  1  0
  8  9  1  0
  9 10  1  0
  9 11  1  0
 11 12  1  0
 12 13  1  0
 13 14  2  0
 14 15  1  0
 15 16  2  0
 16 17  1  0
  2 18  1  0
 18 19  2  0
 19 20  1  0
 20 21  2  0
 21 22  1  0
 22 23  2  0
 23 24  1  0
 24 25  2  0
 25 26  1  0
 26 27  2  0
 12  7  1  0
 17 13  1  0
 27 18  1  0
 26 21  1  0
  3 28  1  0
  4 29  1  0
  4 30  1  0
  8 31  1  0
  8 32  1  0
  9 33  1  1
 10 34  1  0
 11 35  1  0
 11 36  1  0
 12 37  1  1
 15 38  1  0
 16 39  1  0
 19 40  1  0
 20 41  1  0
 22 42  1  0
 23 43  1  0
 24 44  1  0
 25 45  1  0
M  END
>  <smiles>  (25) 
O=C(NCC(=O)N1C[C@H](O)C[C@H]1c1nccs1)c1ccc2ccccc2n1

>  <score_type>  (25) 
oracle

>  <origin>  (25) 
autodockgpu

>  <m_score__min__energy>  (25) 
-7.9100000000000001

>  <m_primary>  (25) 
energy

>  <rmsd>  (25) 
2.2297049865003906

>  <m_score__min__rmsd>  (25) 
2.2297049865003906

>  <meeko>  (25) 
{"free_energy": -7.6, "intermolecular_energy": -9.39, "internal_energy": -1.45, "cluster_size": 24, "cluster_id": 1, "rank_in_cluster": 18}

>  <energy>  (25) 
-7.91

>  <cluster_rmsd>  (25) 
0.0

>  <cluster>  (25) 
2

$$$$

     RDKit          3D

 45 48  0  0  0  0  0  0  0  0999 V2000
  140.3180   73.4330  222.3770 O   0  0  0  0  0  0  0  0  0  0  0  0
  140.5380   72.1870  222.4030 C   0  0  0  0  0  0  0  0  0  0  0  0
  141.0180   71.5070  221.2490 N   0  0  0  0  0  0  0  0  0  0  0  0
  141.2620   72.2200  220.0260 C   0  0  0  0  0  0  0  0  0  0  0  0
  142.3350   73.2200  220.1380 C   0  0  0  0  0  0  0  0  0  0  0  0
  142.0300   74.4200  220.3770 O   0  0  0  0  0  0  0  0  0  0  0  0
  143.6760   72.7780  219.9700 N   0  0  0  0  0  0  0  0  0  0  0  0
  144.7580   72.7670  220.9630 C   0  0  0  0  0  0  0  0  0  0  0  0
  146.0310   72.9390  220.1690 C   0  0  2  0  0  0  0  0  0  0  0  0
  146.7270   74.0890  220.5660 O   0  0  0  0  0  0  0  0  0  0  0  0
  145.5710   73.0460  218.7320 C   0  0  0  0  0  0  0  0  0  0  0  0
  144.2780   72.2340  218.7720 C   0  0  1  0  0  0  0  0  0  0  0  0
  144.6480   70.8370  219.0660 C   0  0  0  0  0  0  0  0  0  0  0  0
  145.6230   70.1640  219.0170 N   0  0  0  0  0  0  0  0  0  0  0  0
  145.7890   68.9030  219.3220 C   0  0  0  0  0  0  0  0  0  0  0  0
  144.6600   68.2490  219.7700 C   0  0  0  0  0  0  0  0  0  0  0  0
  143.3780   69.6160  219.7010 S   0  0  0  0  0  0  0  0  0  0  0  0
  140.3000   71.4240  223.6390 C   0  0  0  0  0  0  0  0  0  0  0  0
  139.6140   70.2290  223.5800 C   0  0  0  0  0  0  0  0  0  0  0  0
  139.4280   69.5630  224.7950 C   0  0  0  0  0  0  0  0  0  0  0  0
  139.9010   70.0720  225.9870 C   0  0  0  0  0  0  0  0  0  0  0  0
  139.7360   69.4440  227.2020 C   0  0  0  0  0  0  0  0  0  0  0  0
  140.2410   70.0180  228.3600 C   0  0  0  0  0  0  0  0  0  0  0  0
  140.9210   71.2290  228.3420 C   0  0  0  0  0  0  0  0  0  0  0  0
  141.0880   71.8590  227.1260 C   0  0  0  0  0  0  0  0  0  0  0  0
  140.5780   71.2690  225.9880 C   0  0  0  0  0  0  0  0  0  0  0  0
  140.7460   71.8890  224.8190 N   0  0  0  0  0  0  0  0  0  0  0  0
  141.1800   70.4800  221.3400 H   0  0  0  0  0  0  0  0  0  0  0  0
  141.5417   71.4937  219.2486 H   0  0  0  0  0  0  0  0  0  0  0  0
  140.3378   72.7614  219.7753 H   0  0  0  0  0  0  0  0  0  0  0  0
  144.6343   73.5950  221.6765 H   0  0  0  0  0  0  0  0  0  0  0  0
  144.7646   71.8375  221.5513 H   0  0  0  0  0  0  0  0  0  0  0  0
  146.7302   72.1035  220.3206 H   0  0  0  0  0  0  0  0  0  0  0  0
  146.7040   74.7120  219.7950 H   0  0  0  0  0  0  0  0  0  0  0  0
  145.3817   74.0912  218.4463 H   0  0  0  0  0  0  0  0  0  0  0  0
  146.3056   72.6884  217.9954 H   0  0  0  0  0  0  0  0  0  0  0  0
  143.6594   72.2700  217.8631 H   0  0  0  0  0  0  0  0  0  0  0  0
  146.7620   68.3986  219.2278 H   0  0  0  0  0  0  0  0  0  0  0  0
  144.5426   67.2016  220.0848 H   0  0  0  0  0  0  0  0  0  0  0  0
  139.2347   69.8229  222.6307 H   0  0  0  0  0  0  0  0  0  0  0  0
  138.8884   68.6045  224.8009 H   0  0  0  0  0  0  0  0  0  0  0  0
  139.2018   68.4838  227.2544 H   0  0  0  0  0  0  0  0  0  0  0  0
  140.0988   69.4992  229.3195 H   0  0  0  0  0  0  0  0  0  0  0  0
  141.3143   71.6721  229.2688 H   0  0  0  0  0  0  0  0  0  0  0  0
  141.6209   72.8193  227.0647 H   0  0  0  0  0  0  0  0  0  0  0  0
  1  2  2  0
  2  3  1  0
  3  4  1  0
  4  5  1  0
  5  6  2  0
  5  7  1  0
  7  8  1  0
  8  9  1  0
  9 10  1  0
  9 11  1  0
 11 12  1  0
 12 13  1  0
 13 14  2  0
 14 15  1  0
 15 16  2  0
 16 17  1  0
  2 18  1  0
 18 19  2  0
 19 20  1  0
 20 21  2  0
 21 22  1  0
 22 23  2  0
 23 24  1  0
 24 25  2  0
 25 26  1  0
 26 27  2  0
 12  7  1  0
 17 13  1  0
 27 18  1  0
 26 21  1  0
  3 28  1  0
  4 29  1  0
  4 30  1  0
  8 31  1  0
  8 32  1  0
  9 33  1  6
 10 34  1  0
 11 35  1  0
 11 36  1  0
 12 37  1  6
 15 38  1  0
 16 39  1  0
 19 40  1  0
 20 41  1  0
 22 42  1  0
 23 43  1  0
 24 44  1  0
 25 45  1  0
M  END
>  <smiles>  (26) 
O=C(NCC(=O)N1C[C@H](O)C[C@H]1c1nccs1)c1ccc2ccccc2n1

>  <score_type>  (26) 
oracle

>  <origin>  (26) 
autodockgpu

>  <m_score__min__energy>  (26) 
-7.9100000000000001

>  <m_primary>  (26) 
energy

>  <rmsd>  (26) 
5.827514208675633

>  <m_score__min__rmsd>  (26) 
5.827514208675633

>  <meeko>  (26) 
{"free_energy": -7.86, "intermolecular_energy": -9.65, "internal_energy": -1.3, "cluster_size": 5, "cluster_id": 3, "rank_in_cluster": 4}

>  <energy>  (26) 
-7.89

>  <cluster_rmsd>  (26) 
0.16

>  <cluster>  (26) 
2

$$$$

     RDKit          3D

 45 48  0  0  0  0  0  0  0  0999 V2000
  140.9630   71.5960  221.3620 O   0  0  0  0  0  0  0  0  0  0  0  0
  140.3910   72.1370  222.3520 C   0  0  0  0  0  0  0  0  0  0  0  0
  139.9120   73.4750  222.2740 N   0  0  0  0  0  0  0  0  0  0  0  0
  140.0670   74.2410  221.0690 C   0  0  0  0  0  0  0  0  0  0  0  0
  140.9580   75.4010  221.2260 C   0  0  0  0  0  0  0  0  0  0  0  0
  142.1970   75.2470  221.0540 O   0  0  0  0  0  0  0  0  0  0  0  0
  140.3690   76.6500  221.5680 N   0  0  0  0  0  0  0  0  0  0  0  0
  139.3770   76.9280  222.6140 C   0  0  0  0  0  0  0  0  0  0  0  0
  138.5790   78.1040  222.1040 C   0  0  2  0  0  0  0  0  0  0  0  0
  137.2190   77.7830  221.9860 O   0  0  0  0  0  0  0  0  0  0  0  0
  139.1860   78.4200  220.7560 C   0  0  0  0  0  0  0  0  0  0  0  0
  140.6210   77.9360  220.9540 C   0  0  1  0  0  0  0  0  0  0  0  0
  141.2340   78.7960  221.9830 C   0  0  0  0  0  0  0  0  0  0  0  0
  141.7450   78.6580  223.0440 N   0  0  0  0  0  0  0  0  0  0  0  0
  142.2530   79.5510  223.8540 C   0  0  0  0  0  0  0  0  0  0  0  0
  142.1890   80.8560  223.4110 C   0  0  0  0  0  0  0  0  0  0  0  0
  141.3400   80.6510  221.7520 S   0  0  0  0  0  0  0  0  0  0  0  0
  140.2140   71.3830  223.6030 C   0  0  0  0  0  0  0  0  0  0  0  0
  139.5920   70.1530  223.5760 C   0  0  0  0  0  0  0  0  0  0  0  0
  139.4610   69.5000  224.8050 C   0  0  0  0  0  0  0  0  0  0  0  0
  139.9270   70.0520  225.9790 C   0  0  0  0  0  0  0  0  0  0  0  0
  139.8170   69.4370  227.2070 C   0  0  0  0  0  0  0  0  0  0  0  0
  140.3110   70.0560  228.3460 C   0  0  0  0  0  0  0  0  0  0  0  0
  140.9270   71.3000  228.2970 C   0  0  0  0  0  0  0  0  0  0  0  0
  141.0390   71.9170  227.0680 C   0  0  0  0  0  0  0  0  0  0  0  0
  140.5410   71.2830  225.9500 C   0  0  0  0  0  0  0  0  0  0  0  0
  140.6560   71.8910  224.7670 N   0  0  0  0  0  0  0  0  0  0  0  0
  139.4480   73.8610  223.1260 H   0  0  0  0  0  0  0  0  0  0  0  0
  140.4822   73.5851  220.2896 H   0  0  0  0  0  0  0  0  0  0  0  0
  139.0733   74.6283  220.7997 H   0  0  0  0  0  0  0  0  0  0  0  0
  138.7237   76.0563  222.7669 H   0  0  0  0  0  0  0  0  0  0  0  0
  139.8518   77.1437  223.5825 H   0  0  0  0  0  0  0  0  0  0  0  0
  138.6218   78.9628  222.7901 H   0  0  0  0  0  0  0  0  0  0  0  0
  137.0560   77.6000  221.0250 H   0  0  0  0  0  0  0  0  0  0  0  0
  138.6827   77.8684  219.9483 H   0  0  0  0  0  0  0  0  0  0  0  0
  139.1033   79.4764  220.4608 H   0  0  0  0  0  0  0  0  0  0  0  0
  141.2537   77.9256  220.0543 H   0  0  0  0  0  0  0  0  0  0  0  0
  142.7004   79.2800  224.8217 H   0  0  0  0  0  0  0  0  0  0  0  0
  142.5428   81.7747  223.9018 H   0  0  0  0  0  0  0  0  0  0  0  0
  139.2198   69.7104  222.6403 H   0  0  0  0  0  0  0  0  0  0  0  0
  138.9711   68.5156  224.8362 H   0  0  0  0  0  0  0  0  0  0  0  0
  139.3355   68.4510  227.2846 H   0  0  0  0  0  0  0  0  0  0  0  0
  140.2120   69.5469  229.3161 H   0  0  0  0  0  0  0  0  0  0  0  0
  141.3133   71.7781  229.2092 H   0  0  0  0  0  0  0  0  0  0  0  0
  141.5197   72.9026  226.9815 H   0  0  0  0  0  0  0  0  0  0  0  0
  1  2  2  0
  2  3  1  0
  3  4  1  0
  4  5  1  0
  5  6  2  0
  5  7  1  0
  7  8  1  0
  8  9  1  0
  9 10  1  0
  9 11  1  0
 11 12  1  0
 12 13  1  0
 13 14  2  0
 14 15  1  0
 15 16  2  0
 16 17  1  0
  2 18  1  0
 18 19  2  0
 19 20  1  0
 20 21  2  0
 21 22  1  0
 22 23  2  0
 23 24  1  0
 24 25  2  0
 25 26  1  0
 26 27  2  0
 12  7  1  0
 17 13  1  0
 27 18  1  0
 26 21  1  0
  3 28  1  0
  4 29  1  0
  4 30  1  0
  8 31  1  0
  8 32  1  0
  9 33  1  1
 10 34  1  0
 11 35  1  0
 11 36  1  0
 12 37  1  6
 15 38  1  0
 16 39  1  0
 19 40  1  0
 20 41  1  0
 22 42  1  0
 23 43  1  0
 24 44  1  0
 25 45  1  0
M  END
>  <smiles>  (27) 
O=C(NCC(=O)N1C[C@H](O)C[C@H]1c1nccs1)c1ccc2ccccc2n1

>  <score_type>  (27) 
oracle

>  <origin>  (27) 
autodockgpu

>  <m_score__min__energy>  (27) 
-7.9100000000000001

>  <m_primary>  (27) 
energy

>  <rmsd>  (27) 
2.5187178278820825

>  <m_score__min__rmsd>  (27) 
2.5187178278820825

>  <meeko>  (27) 
{"free_energy": -7.75, "intermolecular_energy": -9.54, "internal_energy": -1.22, "cluster_size": 24, "cluster_id": 1, "rank_in_cluster": 7}

>  <energy>  (27) 
-7.86

>  <cluster_rmsd>  (27) 
0.25

>  <cluster>  (27) 
2

$$$$

     RDKit          3D

 45 48  0  0  0  0  0  0  0  0999 V2000
  139.1840   75.2540  221.1160 O   0  0  0  0  0  0  0  0  0  0  0  0
  140.2380   75.6910  221.6620 C   0  0  0  0  0  0  0  0  0  0  0  0
  141.4070   74.8830  221.7410 N   0  0  0  0  0  0  0  0  0  0  0  0
  141.4160   73.5520  221.2020 C   0  0  0  0  0  0  0  0  0  0  0  0
  142.4430   73.3490  220.1680 C   0  0  0  0  0  0  0  0  0  0  0  0
  142.9460   72.2010  220.0240 O   0  0  0  0  0  0  0  0  0  0  0  0
  142.8190   74.4680  219.3760 N   0  0  0  0  0  0  0  0  0  0  0  0
  143.6100   75.6380  219.7770 C   0  0  0  0  0  0  0  0  0  0  0  0
  143.1090   76.7730  218.9160 C   0  0  2  0  0  0  0  0  0  0  0  0
  142.6000   77.8190  219.6990 O   0  0  0  0  0  0  0  0  0  0  0  0
  142.0270   76.1530  218.0610 C   0  0  0  0  0  0  0  0  0  0  0  0
  142.5030   74.7030  217.9840 C   0  0  1  0  0  0  0  0  0  0  0  0
  143.7780   74.7010  217.2420 C   0  0  0  0  0  0  0  0  0  0  0  0
  144.3010   75.3570  216.4040 N   0  0  0  0  0  0  0  0  0  0  0  0
  145.4700   75.2160  215.8350 C   0  0  0  0  0  0  0  0  0  0  0  0
  146.2140   74.1390  216.2710 C   0  0  0  0  0  0  0  0  0  0  0  0
  145.0710   73.3830  217.5510 S   0  0  0  0  0  0  0  0  0  0  0  0
  140.2660   77.0510  222.2250 C   0  0  0  0  0  0  0  0  0  0  0  0
  139.0880   77.6520  222.6130 C   0  0  0  0  0  0  0  0  0  0  0  0
  139.1970   78.9430  223.1390 C   0  0  0  0  0  0  0  0  0  0  0  0
  140.4140   79.5820  223.2610 C   0  0  0  0  0  0  0  0  0  0  0  0
  140.5590   80.8520  223.7740 C   0  0  0  0  0  0  0  0  0  0  0  0
  141.8180   81.4290  223.8660 C   0  0  0  0  0  0  0  0  0  0  0  0
  142.9630   80.7610  223.4520 C   0  0  0  0  0  0  0  0  0  0  0  0
  142.8200   79.4880  222.9390 C   0  0  0  0  0  0  0  0  0  0  0  0
  141.5590   78.9350  222.8570 C   0  0  0  0  0  0  0  0  0  0  0  0
  141.4330   77.7040  222.3590 N   0  0  0  0  0  0  0  0  0  0  0  0
  142.2430   75.3050  222.2030 H   0  0  0  0  0  0  0  0  0  0  0  0
  141.6027   72.8442  222.0231 H   0  0  0  0  0  0  0  0  0  0  0  0
  140.4380   73.3869  220.7263 H   0  0  0  0  0  0  0  0  0  0  0  0
  143.4515   75.8634  220.8419 H   0  0  0  0  0  0  0  0  0  0  0  0
  144.6887   75.4683  219.6443 H   0  0  0  0  0  0  0  0  0  0  0  0
  143.9116   77.2198  218.3109 H   0  0  0  0  0  0  0  0  0  0  0  0
  142.8340   77.6060  220.6390 H   0  0  0  0  0  0  0  0  0  0  0  0
  141.0406   76.2283  218.5420 H   0  0  0  0  0  0  0  0  0  0  0  0
  141.8930   76.6365  217.0821 H   0  0  0  0  0  0  0  0  0  0  0  0
  141.8035   73.9909  217.5217 H   0  0  0  0  0  0  0  0  0  0  0  0
  145.8350   75.9084  215.0621 H   0  0  0  0  0  0  0  0  0  0  0  0
  147.2141   73.8104  215.9519 H   0  0  0  0  0  0  0  0  0  0  0  0
  138.1169   77.1448  222.5145 H   0  0  0  0  0  0  0  0  0  0  0  0
  138.2853   79.4649  223.4653 H   0  0  0  0  0  0  0  0  0  0  0  0
  139.6739   81.4109  224.1120 H   0  0  0  0  0  0  0  0  0  0  0  0
  141.9115   82.4444  224.2786 H   0  0  0  0  0  0  0  0  0  0  0  0
  143.9538   81.2323  223.5306 H   0  0  0  0  0  0  0  0  0  0  0  0
  143.7000   78.9217  222.5999 H   0  0  0  0  0  0  0  0  0  0  0  0
  1  2  2  0
  2  3  1  0
  3  4  1  0
  4  5  1  0
  5  6  2  0
  5  7  1  0
  7  8  1  0
  8  9  1  0
  9 10  1  0
  9 11  1  0
 11 12  1  0
 12 13  1  0
 13 14  2  0
 14 15  1  0
 15 16  2  0
 16 17  1  0
  2 18  1  0
 18 19  2  0
 19 20  1  0
 20 21  2  0
 21 22  1  0
 22 23  2  0
 23 24  1  0
 24 25  2  0
 25 26  1  0
 26 27  2  0
 12  7  1  0
 17 13  1  0
 27 18  1  0
 26 21  1  0
  3 28  1  0
  4 29  1  0
  4 30  1  0
  8 31  1  0
  8 32  1  0
  9 33  1  6
 10 34  1  0
 11 35  1  0
 11 36  1  0
 12 37  1  6
 15 38  1  0
 16 39  1  0
 19 40  1  0
 20 41  1  0
 22 42  1  0
 23 43  1  0
 24 44  1  0
 25 45  1  0
M  END
>  <smiles>  (28) 
O=C(NCC(=O)N1C[C@H](O)C[C@H]1c1nccs1)c1ccc2ccccc2n1

>  <score_type>  (28) 
oracle

>  <origin>  (28) 
autodockgpu

>  <m_score__min__energy>  (28) 
-7.9100000000000001

>  <m_primary>  (28) 
energy

>  <rmsd>  (28) 
7.650802809558874

>  <m_score__min__rmsd>  (28) 
7.650802809558874

>  <meeko>  (28) 
{"free_energy": -6.02, "intermolecular_energy": -7.81, "internal_energy": -2.65, "cluster_size": 4, "cluster_id": 6, "rank_in_cluster": 3}

>  <energy>  (28) 
-7.85

>  <cluster_rmsd>  (28) 
0.25

>  <cluster>  (28) 
2

$$$$

     RDKit          3D

 45 48  0  0  0  0  0  0  0  0999 V2000
  140.0630   73.4650  222.4340 O   0  0  0  0  0  0  0  0  0  0  0  0
  140.3930   72.2440  222.4510 C   0  0  0  0  0  0  0  0  0  0  0  0
  140.9500   71.6230  221.2990 N   0  0  0  0  0  0  0  0  0  0  0  0
  141.1500   72.3690  220.0880 C   0  0  0  0  0  0  0  0  0  0  0  0
  142.3230   73.2550  220.1360 C   0  0  0  0  0  0  0  0  0  0  0  0
  142.1540   74.4800  220.3850 O   0  0  0  0  0  0  0  0  0  0  0  0
  143.6010   72.6800  219.8950 N   0  0  0  0  0  0  0  0  0  0  0  0
  144.7750   72.6790  220.7780 C   0  0  0  0  0  0  0  0  0  0  0  0
  145.9690   72.6510  219.8530 C   0  0  2  0  0  0  0  0  0  0  0  0
  146.7900   73.7700  220.0480 O   0  0  0  0  0  0  0  0  0  0  0  0
  145.3730   72.6440  218.4630 C   0  0  0  0  0  0  0  0  0  0  0  0
  144.0320   71.9600  218.7170 C   0  0  1  0  0  0  0  0  0  0  0  0
  144.3190   70.5750  219.1340 C   0  0  0  0  0  0  0  0  0  0  0  0
  143.8040   69.7390  219.7990 N   0  0  0  0  0  0  0  0  0  0  0  0
  144.2010   68.5240  220.0790 C   0  0  0  0  0  0  0  0  0  0  0  0
  145.4050   68.1520  219.5170 C   0  0  0  0  0  0  0  0  0  0  0  0
  145.8780   69.7020  218.5730 S   0  0  0  0  0  0  0  0  0  0  0  0
  140.2030   71.4480  223.6740 C   0  0  0  0  0  0  0  0  0  0  0  0
  139.5150   70.2540  223.6110 C   0  0  0  0  0  0  0  0  0  0  0  0
  139.3770   69.5560  224.8140 C   0  0  0  0  0  0  0  0  0  0  0  0
  139.8960   70.0330  225.9990 C   0  0  0  0  0  0  0  0  0  0  0  0
  139.7790   69.3720  227.2020 C   0  0  0  0  0  0  0  0  0  0  0  0
  140.3300   69.9160  228.3550 C   0  0  0  0  0  0  0  0  0  0  0  0
  141.0100   71.1260  228.3420 C   0  0  0  0  0  0  0  0  0  0  0  0
  141.1290   71.7890  227.1380 C   0  0  0  0  0  0  0  0  0  0  0  0
  140.5740   71.2300  226.0060 C   0  0  0  0  0  0  0  0  0  0  0  0
  140.6960   71.8810  224.8470 N   0  0  0  0  0  0  0  0  0  0  0  0
  141.2010   70.6130  221.3810 H   0  0  0  0  0  0  0  0  0  0  0  0
  141.2829   71.6588  219.2586 H   0  0  0  0  0  0  0  0  0  0  0  0
  140.2653   73.0079  219.9497 H   0  0  0  0  0  0  0  0  0  0  0  0
  144.7904   73.5863  221.3997 H   0  0  0  0  0  0  0  0  0  0  0  0
  144.7695   71.8214  221.4669 H   0  0  0  0  0  0  0  0  0  0  0  0
  146.6128   71.7775  220.0332 H   0  0  0  0  0  0  0  0  0  0  0  0
  146.4880   74.4560  219.3990 H   0  0  0  0  0  0  0  0  0  0  0  0
  145.2377   73.6653  218.0776 H   0  0  0  0  0  0  0  0  0  0  0  0
  145.9975   72.1452  217.7072 H   0  0  0  0  0  0  0  0  0  0  0  0
  143.3282   71.9540  217.8716 H   0  0  0  0  0  0  0  0  0  0  0  0
  143.6157   67.8464  220.7179 H   0  0  0  0  0  0  0  0  0  0  0  0
  145.9453   67.1975  219.6006 H   0  0  0  0  0  0  0  0  0  0  0  0
  139.0984   69.8727  222.6670 H   0  0  0  0  0  0  0  0  0  0  0  0
  138.8380   68.5971  224.8155 H   0  0  0  0  0  0  0  0  0  0  0  0
  139.2474   68.4101  227.2495 H   0  0  0  0  0  0  0  0  0  0  0  0
  140.2245   69.3725  229.3055 H   0  0  0  0  0  0  0  0  0  0  0  0
  141.4410   71.5437  229.2638 H   0  0  0  0  0  0  0  0  0  0  0  0
  141.6596   72.7509  227.0817 H   0  0  0  0  0  0  0  0  0  0  0  0
  1  2  2  0
  2  3  1  0
  3  4  1  0
  4  5  1  0
  5  6  2  0
  5  7  1  0
  7  8  1  0
  8  9  1  0
  9 10  1  0
  9 11  1  0
 11 12  1  0
 12 13  1  0
 13 14  2  0
 14 15  1  0
 15 16  2  0
 16 17  1  0
  2 18  1  0
 18 19  2  0
 19 20  1  0
 20 21  2  0
 21 22  1  0
 22 23  2  0
 23 24  1  0
 24 25  2  0
 25 26  1  0
 26 27  2  0
 12  7  1  0
 17 13  1  0
 27 18  1  0
 26 21  1  0
  3 28  1  0
  4 29  1  0
  4 30  1  0
  8 31  1  0
  8 32  1  0
  9 33  1  1
 10 34  1  0
 11 35  1  0
 11 36  1  0
 12 37  1  6
 15 38  1  0
 16 39  1  0
 19 40  1  0
 20 41  1  0
 22 42  1  0
 23 43  1  0
 24 44  1  0
 25 45  1  0
M  END
>  <smiles>  (29) 
O=C(NCC(=O)N1C[C@H](O)C[C@H]1c1nccs1)c1ccc2ccccc2n1

>  <score_type>  (29) 
oracle

>  <origin>  (29) 
autodockgpu

>  <m_score__min__energy>  (29) 
-7.9100000000000001

>  <m_primary>  (29) 
energy

>  <rmsd>  (29) 
5.777535643405865

>  <m_score__min__rmsd>  (29) 
5.777535643405865

>  <meeko>  (29) 
{"free_energy": -7.91, "intermolecular_energy": -9.7, "internal_energy": -1.31, "cluster_size": 5, "cluster_id": 3, "rank_in_cluster": 1}

>  <energy>  (29) 
-7.62

>  <cluster_rmsd>  (29) 
0.8

>  <cluster>  (29) 
2

$$$$

     RDKit          3D

 45 48  0  0  0  0  0  0  0  0999 V2000
  141.3390   72.1240  221.6620 O   0  0  0  0  0  0  0  0  0  0  0  0
  140.4240   72.3660  222.5010 C   0  0  0  0  0  0  0  0  0  0  0  0
  139.5550   73.4800  222.3320 N   0  0  0  0  0  0  0  0  0  0  0  0
  139.6980   74.3570  221.2040 C   0  0  0  0  0  0  0  0  0  0  0  0
  140.9560   75.1190  221.2130 C   0  0  0  0  0  0  0  0  0  0  0  0
  141.0950   76.0590  222.0410 O   0  0  0  0  0  0  0  0  0  0  0  0
  141.9620   74.7510  220.2770 N   0  0  0  0  0  0  0  0  0  0  0  0
  141.9230   73.6730  219.2820 C   0  0  0  0  0  0  0  0  0  0  0  0
  143.3580   73.2350  219.1110 C   0  0  2  0  0  0  0  0  0  0  0  0
  143.5190   71.8810  219.4320 O   0  0  0  0  0  0  0  0  0  0  0  0
  144.1400   74.1190  220.0570 C   0  0  0  0  0  0  0  0  0  0  0  0
  143.2590   75.3660  220.0960 C   0  0  1  0  0  0  0  0  0  0  0  0
  143.2760   75.9570  218.7450 C   0  0  0  0  0  0  0  0  0  0  0  0
  143.7220   75.6860  217.6800 N   0  0  0  0  0  0  0  0  0  0  0  0
  143.6460   76.3360  216.5480 C   0  0  0  0  0  0  0  0  0  0  0  0
  142.9410   77.5210  216.5920 C   0  0  0  0  0  0  0  0  0  0  0  0
  142.4200   77.5840  218.3930 S   0  0  0  0  0  0  0  0  0  0  0  0
  140.2470   71.4890  223.6700 C   0  0  0  0  0  0  0  0  0  0  0  0
  139.6200   70.2700  223.5190 C   0  0  0  0  0  0  0  0  0  0  0  0
  139.4900   69.4950  224.6760 C   0  0  0  0  0  0  0  0  0  0  0  0
  139.9610   69.9240  225.8990 C   0  0  0  0  0  0  0  0  0  0  0  0
  139.8510   69.1870  227.0580 C   0  0  0  0  0  0  0  0  0  0  0  0
  140.3510   69.6850  228.2530 C   0  0  0  0  0  0  0  0  0  0  0  0
  140.9710   70.9260  228.3290 C   0  0  0  0  0  0  0  0  0  0  0  0
  141.0820   71.6650  227.1690 C   0  0  0  0  0  0  0  0  0  0  0  0
  140.5790   71.1490  225.9930 C   0  0  0  0  0  0  0  0  0  0  0  0
  140.6930   71.8730  224.8780 N   0  0  0  0  0  0  0  0  0  0  0  0
  138.8200   73.6210  223.0610 H   0  0  0  0  0  0  0  0  0  0  0  0
  139.6629   73.7526  220.2856 H   0  0  0  0  0  0  0  0  0  0  0  0
  138.8760   75.0863  221.2531 H   0  0  0  0  0  0  0  0  0  0  0  0
  141.3058   72.8373  219.6436 H   0  0  0  0  0  0  0  0  0  0  0  0
  141.4810   74.0081  218.3321 H   0  0  0  0  0  0  0  0  0  0  0  0
  143.7003   73.3340  218.0703 H   0  0  0  0  0  0  0  0  0  0  0  0
  142.8790   71.6880  220.1650 H   0  0  0  0  0  0  0  0  0  0  0  0
  144.2335   73.6604  221.0525 H   0  0  0  0  0  0  0  0  0  0  0  0
  145.1771   74.3090  219.7434 H   0  0  0  0  0  0  0  0  0  0  0  0
  143.5387   76.1292  220.8372 H   0  0  0  0  0  0  0  0  0  0  0  0
  144.1122   75.9635  215.6240 H   0  0  0  0  0  0  0  0  0  0  0  0
  142.7379   78.2394  215.7841 H   0  0  0  0  0  0  0  0  0  0  0  0
  139.2435   69.9267  222.5441 H   0  0  0  0  0  0  0  0  0  0  0  0
  138.9973   68.5139  224.6084 H   0  0  0  0  0  0  0  0  0  0  0  0
  139.3651   68.2004  227.0360 H   0  0  0  0  0  0  0  0  0  0  0  0
  140.2536   69.0797  229.1663 H   0  0  0  0  0  0  0  0  0  0  0  0
  141.3612   71.3075  229.2841 H   0  0  0  0  0  0  0  0  0  0  0  0
  141.5655   72.6530  227.1820 H   0  0  0  0  0  0  0  0  0  0  0  0
  1  2  2  0
  2  3  1  0
  3  4  1  0
  4  5  1  0
  5  6  2  0
  5  7  1  0
  7  8  1  0
  8  9  1  0
  9 10  1  0
  9 11  1  0
 11 12  1  0
 12 13  1  0
 13 14  2  0
 14 15  1  0
 15 16  2  0
 16 17  1  0
  2 18  1  0
 18 19  2  0
 19 20  1  0
 20 21  2  0
 21 22  1  0
 22 23  2  0
 23 24  1  0
 24 25  2  0
 25 26  1  0
 26 27  2  0
 12  7  1  0
 17 13  1  0
 27 18  1  0
 26 21  1  0
  3 28  1  0
  4 29  1  0
  4 30  1  0
  8 31  1  0
  8 32  1  0
  9 33  1  6
 10 34  1  0
 11 35  1  0
 11 36  1  0
 12 37  1  1
 15 38  1  0
 16 39  1  0
 19 40  1  0
 20 41  1  0
 22 42  1  0
 23 43  1  0
 24 44  1  0
 25 45  1  0
M  END
>  <smiles>  (30) 
O=C(NCC(=O)N1C[C@H](O)C[C@H]1c1nccs1)c1ccc2ccccc2n1

>  <score_type>  (30) 
oracle

>  <origin>  (30) 
autodockgpu

>  <m_score__min__energy>  (30) 
-7.9100000000000001

>  <m_primary>  (30) 
energy

>  <rmsd>  (30) 
3.486083807148003

>  <m_score__min__rmsd>  (30) 
3.486083807148003

>  <meeko>  (30) 
{"free_energy": -7.12, "intermolecular_energy": -8.91, "internal_energy": -1.97, "cluster_size": 3, "cluster_id": 7, "rank_in_cluster": 1}

>  <energy>  (30) 
-7.52

>  <cluster_rmsd>  (30) 
0.89

>  <cluster>  (30) 
2

$$$$

     RDKit          3D

 45 48  0  0  0  0  0  0  0  0999 V2000
  140.7040   71.5130  221.2940 O   0  0  0  0  0  0  0  0  0  0  0  0
  140.2660   72.0710  222.3420 C   0  0  0  0  0  0  0  0  0  0  0  0
  139.8700   73.4370  222.3280 N   0  0  0  0  0  0  0  0  0  0  0  0
  139.9580   74.2150  221.1250 C   0  0  0  0  0  0  0  0  0  0  0  0
  140.9870   75.2650  221.1830 C   0  0  0  0  0  0  0  0  0  0  0  0
  142.2030   74.9320  221.1420 O   0  0  0  0  0  0  0  0  0  0  0  0
  140.5540   76.6160  221.2830 N   0  0  0  0  0  0  0  0  0  0  0  0
  139.2990   77.1250  221.8490 C   0  0  0  0  0  0  0  0  0  0  0  0
  139.0010   78.3920  221.0840 C   0  0  2  0  0  0  0  0  0  0  0  0
  137.7660   78.3110  220.4260 O   0  0  0  0  0  0  0  0  0  0  0  0
  140.1400   78.5170  220.0970 C   0  0  0  0  0  0  0  0  0  0  0  0
  141.2620   77.7990  220.8440 C   0  0  1  0  0  0  0  0  0  0  0  0
  141.5650   78.5950  222.0480 C   0  0  0  0  0  0  0  0  0  0  0  0
  141.5450   78.4420  223.2230 N   0  0  0  0  0  0  0  0  0  0  0  0
  141.8540   79.2730  224.1850 C   0  0  0  0  0  0  0  0  0  0  0  0
  142.2670   80.5240  223.7740 C   0  0  0  0  0  0  0  0  0  0  0  0
  142.1610   80.3650  221.9090 S   0  0  0  0  0  0  0  0  0  0  0  0
  140.1620   71.3050  223.5940 C   0  0  0  0  0  0  0  0  0  0  0  0
  139.6020   70.0450  223.5790 C   0  0  0  0  0  0  0  0  0  0  0  0
  139.5380   69.3820  224.8080 C   0  0  0  0  0  0  0  0  0  0  0  0
  140.0070   69.9540  225.9720 C   0  0  0  0  0  0  0  0  0  0  0  0
  139.9600   69.3310  227.1990 C   0  0  0  0  0  0  0  0  0  0  0  0
  140.4530   69.9710  228.3280 C   0  0  0  0  0  0  0  0  0  0  0  0
  141.0030   71.2450  228.2670 C   0  0  0  0  0  0  0  0  0  0  0  0
  141.0510   71.8710  227.0380 C   0  0  0  0  0  0  0  0  0  0  0  0
  140.5560   71.2150  225.9310 C   0  0  0  0  0  0  0  0  0  0  0  0
  140.6080   71.8310  224.7480 N   0  0  0  0  0  0  0  0  0  0  0  0
  139.5160   73.8350  223.2270 H   0  0  0  0  0  0  0  0  0  0  0  0
  140.1952   73.5399  220.2896 H   0  0  0  0  0  0  0  0  0  0  0  0
  138.9885   74.7171  220.9909 H   0  0  0  0  0  0  0  0  0  0  0  0
  138.4896   76.3928  221.7117 H   0  0  0  0  0  0  0  0  0  0  0  0
  139.3821   77.3091  222.9303 H   0  0  0  0  0  0  0  0  0  0  0  0
  138.9263   79.2676  221.7456 H   0  0  0  0  0  0  0  0  0  0  0  0
  137.1330   77.8950  221.0670 H   0  0  0  0  0  0  0  0  0  0  0  0
  139.9053   78.0173  219.1456 H   0  0  0  0  0  0  0  0  0  0  0  0
  140.3784   79.5524  219.8124 H   0  0  0  0  0  0  0  0  0  0  0  0
  142.1854   77.6247  220.2722 H   0  0  0  0  0  0  0  0  0  0  0  0
  141.7892   78.9941  225.2471 H   0  0  0  0  0  0  0  0  0  0  0  0
  142.5769   81.3874  224.3810 H   0  0  0  0  0  0  0  0  0  0  0  0
  139.2267   69.5872  222.6519 H   0  0  0  0  0  0  0  0  0  0  0  0
  139.1003   68.3736  224.8479 H   0  0  0  0  0  0  0  0  0  0  0  0
  139.5301   68.3221  227.2850 H   0  0  0  0  0  0  0  0  0  0  0  0
  140.4068   69.4546  229.2982 H   0  0  0  0  0  0  0  0  0  0  0  0
  141.3885   71.7398  229.1706 H   0  0  0  0  0  0  0  0  0  0  0  0
  141.4785   72.8800  226.9429 H   0  0  0  0  0  0  0  0  0  0  0  0
  1  2  2  0
  2  3  1  0
  3  4  1  0
  4  5  1  0
  5  6  2  0
  5  7  1  0
  7  8  1  0
  8  9  1  0
  9 10  1  0
  9 11  1  0
 11 12  1  0
 12 13  1  0
 13 14  2  0
 14 15  1  0
 15 16  2  0
 16 17  1  0
  2 18  1  0
 18 19  2  0
 19 20  1  0
 20 21  2  0
 21 22  1  0
 22 23  2  0
 23 24  1  0
 24 25  2  0
 25 26  1  0
 26 27  2  0
 12  7  1  0
 17 13  1  0
 27 18  1  0
 26 21  1  0
  3 28  1  0
  4 29  1  0
  4 30  1  0
  8 31  1  0
  8 32  1  0
  9 33  1  1
 10 34  1  0
 11 35  1  0
 11 36  1  0
 12 37  1  6
 15 38  1  0
 16 39  1  0
 19 40  1  0
 20 41  1  0
 22 42  1  0
 23 43  1  0
 24 44  1  0
 25 45  1  0
M  END
>  <smiles>  (31) 
O=C(NCC(=O)N1C[C@H](O)C[C@H]1c1nccs1)c1ccc2ccccc2n1

>  <score_type>  (31) 
oracle

>  <origin>  (31) 
autodockgpu

>  <m_score__min__energy>  (31) 
-7.9100000000000001

>  <m_primary>  (31) 
energy

>  <rmsd>  (31) 
2.2048647368157064

>  <m_score__min__rmsd>  (31) 
2.2048647368157064

>  <meeko>  (31) 
{"free_energy": -7.78, "intermolecular_energy": -9.57, "internal_energy": -1.22, "cluster_size": 24, "cluster_id": 1, "rank_in_cluster": 3}

>  <energy>  (31) 
-7.45

>  <cluster_rmsd>  (31) 
0.74

>  <cluster>  (31) 
2

$$$$

     RDKit          3D

 45 48  0  0  0  0  0  0  0  0999 V2000
  141.3210   72.2330  221.7490 O   0  0  0  0  0  0  0  0  0  0  0  0
  140.3610   72.3990  222.5560 C   0  0  0  0  0  0  0  0  0  0  0  0
  139.4180   73.4470  222.3610 N   0  0  0  0  0  0  0  0  0  0  0  0
  139.5350   74.3400  221.2420 C   0  0  0  0  0  0  0  0  0  0  0  0
  140.6360   75.3060  221.3800 C   0  0  0  0  0  0  0  0  0  0  0  0
  141.8210   74.8790  221.4320 O   0  0  0  0  0  0  0  0  0  0  0  0
  140.3030   76.6870  221.4470 N   0  0  0  0  0  0  0  0  0  0  0  0
  139.1040   77.3030  222.0290 C   0  0  0  0  0  0  0  0  0  0  0  0
  138.8770   78.5650  221.2300 C   0  0  2  0  0  0  0  0  0  0  0  0
  137.6210   78.5530  220.6070 O   0  0  0  0  0  0  0  0  0  0  0  0
  139.9940   78.5770  220.2110 C   0  0  0  0  0  0  0  0  0  0  0  0
  141.0810   77.8020  220.9520 C   0  0  1  0  0  0  0  0  0  0  0  0
  141.4750   78.6110  222.1210 C   0  0  0  0  0  0  0  0  0  0  0  0
  141.5040   78.4840  223.3000 N   0  0  0  0  0  0  0  0  0  0  0  0
  141.8920   79.3220  224.2260 C   0  0  0  0  0  0  0  0  0  0  0  0
  142.3380   80.5450  223.7670 C   0  0  0  0  0  0  0  0  0  0  0  0
  142.1380   80.3490  221.9120 S   0  0  0  0  0  0  0  0  0  0  0  0
  140.2090   71.5030  223.7140 C   0  0  0  0  0  0  0  0  0  0  0  0
  139.5820   70.2850  223.5560 C   0  0  0  0  0  0  0  0  0  0  0  0
  139.4760   69.4920  224.7020 C   0  0  0  0  0  0  0  0  0  0  0  0
  139.9690   69.9020  225.9230 C   0  0  0  0  0  0  0  0  0  0  0  0
  139.8830   69.1470  227.0720 C   0  0  0  0  0  0  0  0  0  0  0  0
  140.4030   69.6280  228.2650 C   0  0  0  0  0  0  0  0  0  0  0  0
  141.0210   70.8690  228.3490 C   0  0  0  0  0  0  0  0  0  0  0  0
  141.1090   71.6270  227.1990 C   0  0  0  0  0  0  0  0  0  0  0  0
  140.5860   71.1280  226.0240 C   0  0  0  0  0  0  0  0  0  0  0  0
  140.6760   71.8700  224.9190 N   0  0  0  0  0  0  0  0  0  0  0  0
  138.6500   73.5280  223.0630 H   0  0  0  0  0  0  0  0  0  0  0  0
  139.7070   73.7421  220.3349 H   0  0  0  0  0  0  0  0  0  0  0  0
  138.6004   74.9174  221.1874 H   0  0  0  0  0  0  0  0  0  0  0  0
  138.2404   76.6279  221.9368 H   0  0  0  0  0  0  0  0  0  0  0  0
  139.2301   77.5134  223.1013 H   0  0  0  0  0  0  0  0  0  0  0  0
  138.8843   79.4640  221.8639 H   0  0  0  0  0  0  0  0  0  0  0  0
  137.7630   78.1890  219.6960 H   0  0  0  0  0  0  0  0  0  0  0  0
  139.6977   78.0674  219.2823 H   0  0  0  0  0  0  0  0  0  0  0  0
  140.2985   79.5832  219.8872 H   0  0  0  0  0  0  0  0  0  0  0  0
  141.9729   77.5430  220.3626 H   0  0  0  0  0  0  0  0  0  0  0  0
  141.8648   79.0698  225.2963 H   0  0  0  0  0  0  0  0  0  0  0  0
  142.7121   81.4073  224.3383 H   0  0  0  0  0  0  0  0  0  0  0  0
  139.1876   69.9562  222.5832 H   0  0  0  0  0  0  0  0  0  0  0  0
  138.9843   68.5108  224.6278 H   0  0  0  0  0  0  0  0  0  0  0  0
  139.4002   68.1590  227.0436 H   0  0  0  0  0  0  0  0  0  0  0  0
  140.3235   69.0086  229.1705 H   0  0  0  0  0  0  0  0  0  0  0  0
  141.4278   71.2364  229.3027 H   0  0  0  0  0  0  0  0  0  0  0  0
  141.5899   72.6161  227.2191 H   0  0  0  0  0  0  0  0  0  0  0  0
  1  2  2  0
  2  3  1  0
  3  4  1  0
  4  5  1  0
  5  6  2  0
  5  7  1  0
  7  8  1  0
  8  9  1  0
  9 10  1  0
  9 11  1  0
 11 12  1  0
 12 13  1  0
 13 14  2  0
 14 15  1  0
 15 16  2  0
 16 17  1  0
  2 18  1  0
 18 19  2  0
 19 20  1  0
 20 21  2  0
 21 22  1  0
 22 23  2  0
 23 24  1  0
 24 25  2  0
 25 26  1  0
 26 27  2  0
 12  7  1  0
 17 13  1  0
 27 18  1  0
 26 21  1  0
  3 28  1  0
  4 29  1  0
  4 30  1  0
  8 31  1  0
  8 32  1  0
  9 33  1  1
 10 34  1  0
 11 35  1  0
 11 36  1  0
 12 37  1  6
 15 38  1  0
 16 39  1  0
 19 40  1  0
 20 41  1  0
 22 42  1  0
 23 43  1  0
 24 44  1  0
 25 45  1  0
M  END
>  <smiles>  (32) 
O=C(NCC(=O)N1C[C@H](O)C[C@H]1c1nccs1)c1ccc2ccccc2n1

>  <score_type>  (32) 
oracle

>  <origin>  (32) 
autodockgpu

>  <m_score__min__energy>  (32) 
-7.9100000000000001

>  <m_primary>  (32) 
energy

>  <rmsd>  (32) 
2.2767270701293234

>  <m_score__min__rmsd>  (32) 
2.2767270701293234

>  <meeko>  (32) 
{"free_energy": -7.91, "intermolecular_energy": -9.7, "internal_energy": -1.11, "cluster_size": 24, "cluster_id": 1, "rank_in_cluster": 1}

>  <energy>  (32) 
-7.33

>  <cluster_rmsd>  (32) 
0.83

>  <cluster>  (32) 
2

$$$$

     RDKit          3D

 45 48  0  0  0  0  0  0  0  0999 V2000
  141.1430   71.7370  221.5020 O   0  0  0  0  0  0  0  0  0  0  0  0
  140.3970   72.1710  222.4260 C   0  0  0  0  0  0  0  0  0  0  0  0
  139.7290   73.4210  222.2980 N   0  0  0  0  0  0  0  0  0  0  0  0
  139.8870   74.2190  221.1140 C   0  0  0  0  0  0  0  0  0  0  0  0
  140.8520   75.3170  221.2760 C   0  0  0  0  0  0  0  0  0  0  0  0
  140.7010   76.1270  222.2300 O   0  0  0  0  0  0  0  0  0  0  0  0
  141.9170   75.4100  220.3370 N   0  0  0  0  0  0  0  0  0  0  0  0
  142.7820   76.5630  220.0600 C   0  0  0  0  0  0  0  0  0  0  0  0
  143.1700   76.4300  218.6060 C   0  0  2  0  0  0  0  0  0  0  0  0
  142.7570   77.5460  217.8660 O   0  0  0  0  0  0  0  0  0  0  0  0
  142.4700   75.1730  218.1390 C   0  0  0  0  0  0  0  0  0  0  0  0
  142.3880   74.3770  219.4400 C   0  0  1  0  0  0  0  0  0  0  0  0
  143.7690   74.0500  219.8410 C   0  0  0  0  0  0  0  0  0  0  0  0
  144.4410   74.1440  220.8130 N   0  0  0  0  0  0  0  0  0  0  0  0
  145.6860   73.7960  221.0110 C   0  0  0  0  0  0  0  0  0  0  0  0
  146.3220   73.2310  219.9240 C   0  0  0  0  0  0  0  0  0  0  0  0
  144.9620   73.2610  218.6320 S   0  0  0  0  0  0  0  0  0  0  0  0
  140.2110   71.3810  223.6540 C   0  0  0  0  0  0  0  0  0  0  0  0
  139.5570   70.1680  223.5920 C   0  0  0  0  0  0  0  0  0  0  0  0
  139.4210   69.4780  224.8000 C   0  0  0  0  0  0  0  0  0  0  0  0
  139.9100   69.9800  225.9880 C   0  0  0  0  0  0  0  0  0  0  0  0
  139.7930   69.3270  227.1960 C   0  0  0  0  0  0  0  0  0  0  0  0
  140.3120   69.8960  228.3500 C   0  0  0  0  0  0  0  0  0  0  0  0
  140.9590   71.1250  228.3360 C   0  0  0  0  0  0  0  0  0  0  0  0
  141.0770   71.7800  227.1270 C   0  0  0  0  0  0  0  0  0  0  0  0
  140.5540   71.1950  225.9930 C   0  0  0  0  0  0  0  0  0  0  0  0
  140.6740   71.8380  224.8300 N   0  0  0  0  0  0  0  0  0  0  0  0
  139.1280   73.7200  223.0980 H   0  0  0  0  0  0  0  0  0  0  0  0
  140.2331   73.5678  220.2978 H   0  0  0  0  0  0  0  0  0  0  0  0
  138.9097   74.6742  220.8956 H   0  0  0  0  0  0  0  0  0  0  0  0
  142.2366   77.5032  220.2288 H   0  0  0  0  0  0  0  0  0  0  0  0
  143.6624   76.5830  220.7192 H   0  0  0  0  0  0  0  0  0  0  0  0
  144.2602   76.3725  218.4710 H   0  0  0  0  0  0  0  0  0  0  0  0
  143.5820   77.9670  217.5100 H   0  0  0  0  0  0  0  0  0  0  0  0
  141.4698   75.3940  217.7382 H   0  0  0  0  0  0  0  0  0  0  0  0
  142.9843   74.6479  217.3206 H   0  0  0  0  0  0  0  0  0  0  0  0
  141.7851   73.4577  219.4036 H   0  0  0  0  0  0  0  0  0  0  0  0
  146.1913   73.9433  221.9769 H   0  0  0  0  0  0  0  0  0  0  0  0
  147.3542   72.8607  219.8379 H   0  0  0  0  0  0  0  0  0  0  0  0
  139.1649   69.7666  222.6459 H   0  0  0  0  0  0  0  0  0  0  0  0
  138.9083   68.5048  224.8033 H   0  0  0  0  0  0  0  0  0  0  0  0
  139.2866   68.3517  227.2454 H   0  0  0  0  0  0  0  0  0  0  0  0
  140.2081   69.3581  229.3039 H   0  0  0  0  0  0  0  0  0  0  0  0
  141.3648   71.5627  229.2600 H   0  0  0  0  0  0  0  0  0  0  0  0
  141.5815   72.7557  227.0687 H   0  0  0  0  0  0  0  0  0  0  0  0
  1  2  2  0
  2  3  1  0
  3  4  1  0
  4  5  1  0
  5  6  2  0
  5  7  1  0
  7  8  1  0
  8  9  1  0
  9 10  1  0
  9 11  1  0
 11 12  1  0
 12 13  1  0
 13 14  2  0
 14 15  1  0
 15 16  2  0
 16 17  1  0
  2 18  1  0
 18 19  2  0
 19 20  1  0
 20 21  2  0
 21 22  1  0
 22 23  2  0
 23 24  1  0
 24 25  2  0
 25 26  1  0
 26 27  2  0
 12  7  1  0
 17 13  1  0
 27 18  1  0
 26 21  1  0
  3 28  1  0
  4 29  1  0
  4 30  1  0
  8 31  1  0
  8 32  1  0
  9 33  1  1
 10 34  1  0
 11 35  1  0
 11 36  1  0
 12 37  1  6
 15 38  1  0
 16 39  1  0
 19 40  1  0
 20 41  1  0
 22 42  1  0
 23 43  1  0
 24 44  1  0
 25 45  1  0
M  END
>  <smiles>  (33) 
O=C(NCC(=O)N1C[C@H](O)C[C@H]1c1nccs1)c1ccc2ccccc2n1

>  <score_type>  (33) 
oracle

>  <origin>  (33) 
autodockgpu

>  <m_score__min__energy>  (33) 
-7.9100000000000001

>  <m_primary>  (33) 
energy

>  <rmsd>  (33) 
3.5834200218704297

>  <m_score__min__rmsd>  (33) 
3.5834200218704297

>  <meeko>  (33) 
{"free_energy": -7.91, "intermolecular_energy": -9.7, "internal_energy": -1.43, "cluster_size": 11, "cluster_id": 2, "rank_in_cluster": 1}

>  <energy>  (33) 
-7.08

>  <cluster_rmsd>  (33) 
1.56

>  <cluster>  (33) 
2

$$$$

     RDKit          3D

 45 48  0  0  0  0  0  0  0  0999 V2000
  141.3800   72.4730  221.5770 O   0  0  0  0  0  0  0  0  0  0  0  0
  140.4510   72.6510  222.4160 C   0  0  0  0  0  0  0  0  0  0  0  0
  139.6270   73.8090  222.3570 N   0  0  0  0  0  0  0  0  0  0  0  0
  139.8320   74.8050  221.3420 C   0  0  0  0  0  0  0  0  0  0  0  0
  139.3890   76.1480  221.7450 C   0  0  0  0  0  0  0  0  0  0  0  0
  138.4600   76.2570  222.5900 O   0  0  0  0  0  0  0  0  0  0  0  0
  140.0380   77.2670  221.1540 N   0  0  0  0  0  0  0  0  0  0  0  0
  139.4240   78.4390  220.5170 C   0  0  0  0  0  0  0  0  0  0  0  0
  140.4150   78.8880  219.4690 C   0  0  2  0  0  0  0  0  0  0  0  0
  139.8470   78.8620  218.1880 O   0  0  0  0  0  0  0  0  0  0  0  0
  141.5590   77.9040  219.5810 C   0  0  0  0  0  0  0  0  0  0  0  0
  141.4620   77.5020  221.0510 C   0  0  1  0  0  0  0  0  0  0  0  0
  141.7650   78.7010  221.8540 C   0  0  0  0  0  0  0  0  0  0  0  0
  142.1940   79.7900  221.6670 N   0  0  0  0  0  0  0  0  0  0  0  0
  142.4090   80.7650  222.5120 C   0  0  0  0  0  0  0  0  0  0  0  0
  142.0890   80.4900  223.8260 C   0  0  0  0  0  0  0  0  0  0  0  0
  141.4650   78.7260  223.7020 S   0  0  0  0  0  0  0  0  0  0  0  0
  140.2100   71.6520  223.4700 C   0  0  0  0  0  0  0  0  0  0  0  0
  139.5350   70.4890  223.1660 C   0  0  0  0  0  0  0  0  0  0  0  0
  139.3460   69.5910  224.2210 C   0  0  0  0  0  0  0  0  0  0  0  0
  139.8070   69.8520  225.4940 C   0  0  0  0  0  0  0  0  0  0  0  0
  139.6400   68.9910  226.5560 C   0  0  0  0  0  0  0  0  0  0  0  0
  140.1330   69.3230  227.8100 C   0  0  0  0  0  0  0  0  0  0  0  0
  140.8040   70.5170  228.0420 C   0  0  0  0  0  0  0  0  0  0  0  0
  140.9740   71.3800  226.9790 C   0  0  0  0  0  0  0  0  0  0  0  0
  140.4750   71.0290  225.7420 C   0  0  0  0  0  0  0  0  0  0  0  0
  140.6450   71.8730  224.7230 N   0  0  0  0  0  0  0  0  0  0  0  0
  138.8770   73.8940  223.0790 H   0  0  0  0  0  0  0  0  0  0  0  0
  140.9058   74.8477  221.1070 H   0  0  0  0  0  0  0  0  0  0  0  0
  139.2277   74.5110  220.4712 H   0  0  0  0  0  0  0  0  0  0  0  0
  138.4663   78.1661  220.0498 H   0  0  0  0  0  0  0  0  0  0  0  0
  139.2077   79.2351  221.2447 H   0  0  0  0  0  0  0  0  0  0  0  0
  140.7430   79.9261  219.6261 H   0  0  0  0  0  0  0  0  0  0  0  0
  139.0060   79.3850  218.2420 H   0  0  0  0  0  0  0  0  0  0  0  0
  141.4137   77.0396  218.9163 H   0  0  0  0  0  0  0  0  0  0  0  0
  142.5371   78.3138  219.2887 H   0  0  0  0  0  0  0  0  0  0  0  0
  142.1115   76.6720  221.3660 H   0  0  0  0  0  0  0  0  0  0  0  0
  142.8167   81.7369  222.1971 H   0  0  0  0  0  0  0  0  0  0  0  0
  142.1768   81.1354  224.7124 H   0  0  0  0  0  0  0  0  0  0  0  0
  139.1661   70.2794  222.1511 H   0  0  0  0  0  0  0  0  0  0  0  0
  138.8134   68.6478  224.0296 H   0  0  0  0  0  0  0  0  0  0  0  0
  139.1137   68.0363  226.4096 H   0  0  0  0  0  0  0  0  0  0  0  0
  139.9883   68.6206  228.6441 H   0  0  0  0  0  0  0  0  0  0  0  0
  141.1879   70.7667  229.0422 H   0  0  0  0  0  0  0  0  0  0  0  0
  141.5008   72.3358  227.1163 H   0  0  0  0  0  0  0  0  0  0  0  0
  1  2  2  0
  2  3  1  0
  3  4  1  0
  4  5  1  0
  5  6  2  0
  5  7  1  0
  7  8  1  0
  8  9  1  0
  9 10  1  0
  9 11  1  0
 11 12  1  0
 12 13  1  0
 13 14  2  0
 14 15  1  0
 15 16  2  0
 16 17  1  0
  2 18  1  0
 18 19  2  0
 19 20  1  0
 20 21  2  0
 21 22  1  0
 22 23  2  0
 23 24  1  0
 24 25  2  0
 25 26  1  0
 26 27  2  0
 12  7  1  0
 17 13  1  0
 27 18  1  0
 26 21  1  0
  3 28  1  0
  4 29  1  0
  4 30  1  0
  8 31  1  0
  8 32  1  0
  9 33  1  1
 10 34  1  0
 11 35  1  0
 11 36  1  0
 12 37  1  6
 15 38  1  0
 16 39  1  0
 19 40  1  0
 20 41  1  0
 22 42  1  0
 23 43  1  0
 24 44  1  0
 25 45  1  0
M  END
>  <smiles>  (34) 
O=C(NCC(=O)N1C[C@H](O)C[C@H]1c1nccs1)c1ccc2ccccc2n1

>  <score_type>  (34) 
oracle

>  <origin>  (34) 
autodockgpu

>  <m_score__min__energy>  (34) 
-7.9100000000000001

>  <m_primary>  (34) 
energy

>  <rmsd>  (34) 
2.2050118605782476

>  <m_score__min__rmsd>  (34) 
2.2050118605782476

>  <meeko>  (34) 
{"free_energy": -7.63, "intermolecular_energy": -9.42, "internal_energy": -1.44, "cluster_size": 24, "cluster_id": 1, "rank_in_cluster": 14}

>  <energy>  (34) 
-7.06

>  <cluster_rmsd>  (34) 
1.91

>  <cluster>  (34) 
2

$$$$

     RDKit          3D

 45 48  0  0  0  0  0  0  0  0999 V2000
  141.4390   72.5700  221.6330 O   0  0  0  0  0  0  0  0  0  0  0  0
  140.4710   72.6870  222.4390 C   0  0  0  0  0  0  0  0  0  0  0  0
  139.5800   73.7930  222.3520 N   0  0  0  0  0  0  0  0  0  0  0  0
  139.7590   74.8020  221.3460 C   0  0  0  0  0  0  0  0  0  0  0  0
  139.4190   76.1560  221.8110 C   0  0  0  0  0  0  0  0  0  0  0  0
  138.5580   76.2900  222.7230 O   0  0  0  0  0  0  0  0  0  0  0  0
  140.0850   77.2550  221.2020 N   0  0  0  0  0  0  0  0  0  0  0  0
  139.4890   78.4050  220.5110 C   0  0  0  0  0  0  0  0  0  0  0  0
  140.5070   78.8200  219.4750 C   0  0  2  0  0  0  0  0  0  0  0  0
  139.9730   78.7530  218.1820 O   0  0  0  0  0  0  0  0  0  0  0  0
  141.6460   77.8400  219.6490 C   0  0  0  0  0  0  0  0  0  0  0  0
  141.5110   77.4850  221.1280 C   0  0  1  0  0  0  0  0  0  0  0  0
  141.7950   78.7090  221.9000 C   0  0  0  0  0  0  0  0  0  0  0  0
  142.1930   79.8050  221.6820 N   0  0  0  0  0  0  0  0  0  0  0  0
  142.3940   80.8040  222.5020 C   0  0  0  0  0  0  0  0  0  0  0  0
  142.1010   80.5500  223.8270 C   0  0  0  0  0  0  0  0  0  0  0  0
  141.5210   78.7680  223.7510 S   0  0  0  0  0  0  0  0  0  0  0  0
  140.2550   71.6720  223.4840 C   0  0  0  0  0  0  0  0  0  0  0  0
  139.5890   70.5050  223.1730 C   0  0  0  0  0  0  0  0  0  0  0  0
  139.4250   69.5920  224.2180 C   0  0  0  0  0  0  0  0  0  0  0  0
  139.8990   69.8420  225.4890 C   0  0  0  0  0  0  0  0  0  0  0  0
  139.7550   68.9650  226.5420 C   0  0  0  0  0  0  0  0  0  0  0  0
  140.2610   69.2860  227.7940 C   0  0  0  0  0  0  0  0  0  0  0  0
  140.9210   70.4850  228.0320 C   0  0  0  0  0  0  0  0  0  0  0  0
  141.0670   71.3640  226.9790 C   0  0  0  0  0  0  0  0  0  0  0  0
  140.5570   71.0230  225.7440 C   0  0  0  0  0  0  0  0  0  0  0  0
  140.7040   71.8810  224.7330 N   0  0  0  0  0  0  0  0  0  0  0  0
  138.8010   73.8280  223.0480 H   0  0  0  0  0  0  0  0  0  0  0  0
  140.8125   74.7961  221.0294 H   0  0  0  0  0  0  0  0  0  0  0  0
  139.0755   74.5611  220.5185 H   0  0  0  0  0  0  0  0  0  0  0  0
  138.5437   78.1166  220.0281 H   0  0  0  0  0  0  0  0  0  0  0  0
  139.2546   79.2244  221.2064 H   0  0  0  0  0  0  0  0  0  0  0  0
  140.8317   79.8627  219.6065 H   0  0  0  0  0  0  0  0  0  0  0  0
  139.2660   79.4470  218.1330 H   0  0  0  0  0  0  0  0  0  0  0  0
  141.5170   76.9548  219.0089 H   0  0  0  0  0  0  0  0  0  0  0  0
  142.6317   78.2404  219.3697 H   0  0  0  0  0  0  0  0  0  0  0  0
  142.1509   76.6649  221.4856 H   0  0  0  0  0  0  0  0  0  0  0  0
  142.7705   81.7792  222.1595 H   0  0  0  0  0  0  0  0  0  0  0  0
  142.1854   81.2169  224.6977 H   0  0  0  0  0  0  0  0  0  0  0  0
  139.2088   70.3045  222.1605 H   0  0  0  0  0  0  0  0  0  0  0  0
  138.9018   68.6447  224.0210 H   0  0  0  0  0  0  0  0  0  0  0  0
  139.2370   68.0066  226.3898 H   0  0  0  0  0  0  0  0  0  0  0  0
  140.1359   68.5712  228.6207 H   0  0  0  0  0  0  0  0  0  0  0  0
  141.3153   70.7262  229.0302 H   0  0  0  0  0  0  0  0  0  0  0  0
  141.5835   72.3245  227.1226 H   0  0  0  0  0  0  0  0  0  0  0  0
  1  2  2  0
  2  3  1  0
  3  4  1  0
  4  5  1  0
  5  6  2  0
  5  7  1  0
  7  8  1  0
  8  9  1  0
  9 10  1  0
  9 11  1  0
 11 12  1  0
 12 13  1  0
 13 14  2  0
 14 15  1  0
 15 16  2  0
 16 17  1  0
  2 18  1  0
 18 19  2  0
 19 20  1  0
 20 21  2  0
 21 22  1  0
 22 23  2  0
 23 24  1  0
 24 25  2  0
 25 26  1  0
 26 27  2  0
 12  7  1  0
 17 13  1  0
 27 18  1  0
 26 21  1  0
  3 28  1  0
  4 29  1  0
  4 30  1  0
  8 31  1  0
  8 32  1  0
  9 33  1  1
 10 34  1  0
 11 35  1  0
 11 36  1  0
 12 37  1  1
 15 38  1  0
 16 39  1  0
 19 40  1  0
 20 41  1  0
 22 42  1  0
 23 43  1  0
 24 44  1  0
 25 45  1  0
M  END
>  <smiles>  (35) 
O=C(NCC(=O)N1C[C@H](O)C[C@H]1c1nccs1)c1ccc2ccccc2n1

>  <score_type>  (35) 
oracle

>  <origin>  (35) 
autodockgpu

>  <m_score__min__energy>  (35) 
-7.9100000000000001

>  <m_primary>  (35) 
energy

>  <rmsd>  (35) 
2.203770223305035

>  <m_score__min__rmsd>  (35) 
2.203770223305035

>  <meeko>  (35) 
{"free_energy": -7.66, "intermolecular_energy": -9.45, "internal_energy": -1.39, "cluster_size": 24, "cluster_id": 1, "rank_in_cluster": 10}

>  <energy>  (35) 
-6.37

>  <cluster_rmsd>  (35) 
1.89

>  <cluster>  (35) 
2

$$$$

     RDKit          3D

 45 48  0  0  0  0  0  0  0  0999 V2000
  141.5750   72.5470  221.9750 O   0  0  0  0  0  0  0  0  0  0  0  0
  140.4690   72.5650  222.5880 C   0  0  0  0  0  0  0  0  0  0  0  0
  139.4590   73.5060  222.2420 N   0  0  0  0  0  0  0  0  0  0  0  0
  139.6740   74.4580  221.1880 C   0  0  0  0  0  0  0  0  0  0  0  0
  140.4250   73.9080  220.0490 C   0  0  0  0  0  0  0  0  0  0  0  0
  139.9100   72.9790  219.3680 O   0  0  0  0  0  0  0  0  0  0  0  0
  141.7070   74.4570  219.7700 N   0  0  0  0  0  0  0  0  0  0  0  0
  142.3220   75.6580  220.3480 C   0  0  0  0  0  0  0  0  0  0  0  0
  143.2340   76.1960  219.2700 C   0  0  2  0  0  0  0  0  0  0  0  0
  142.8750   77.5010  218.9050 O   0  0  0  0  0  0  0  0  0  0  0  0
  143.0640   75.2370  218.1130 C   0  0  0  0  0  0  0  0  0  0  0  0
  142.6980   73.9480  218.8470 C   0  0  1  0  0  0  0  0  0  0  0  0
  143.8720   73.5510  219.6450 C   0  0  0  0  0  0  0  0  0  0  0  0
  144.1550   73.4540  220.7930 N   0  0  0  0  0  0  0  0  0  0  0  0
  145.2750   73.0760  221.3530 C   0  0  0  0  0  0  0  0  0  0  0  0
  146.2870   72.7350  220.4800 C   0  0  0  0  0  0  0  0  0  0  0  0
  145.4640   73.0150  218.8180 S   0  0  0  0  0  0  0  0  0  0  0  0
  140.2130   71.6050  223.6740 C   0  0  0  0  0  0  0  0  0  0  0  0
  139.4950   70.4560  223.4130 C   0  0  0  0  0  0  0  0  0  0  0  0
  139.2940   69.5950  224.4960 C   0  0  0  0  0  0  0  0  0  0  0  0
  139.7840   69.8760  225.7540 C   0  0  0  0  0  0  0  0  0  0  0  0
  139.6050   69.0510  226.8430 C   0  0  0  0  0  0  0  0  0  0  0  0
  140.1290   69.4020  228.0790 C   0  0  0  0  0  0  0  0  0  0  0  0
  140.8420   70.5790  228.2670 C   0  0  0  0  0  0  0  0  0  0  0  0
  141.0230   71.4060  227.1770 C   0  0  0  0  0  0  0  0  0  0  0  0
  140.4940   71.0370  225.9590 C   0  0  0  0  0  0  0  0  0  0  0  0
  140.6740   71.8460  224.9130 N   0  0  0  0  0  0  0  0  0  0  0  0
  138.5690   73.4660  222.7860 H   0  0  0  0  0  0  0  0  0  0  0  0
  138.6948   74.8042  220.8256 H   0  0  0  0  0  0  0  0  0  0  0  0
  140.2751   75.2778  221.6082 H   0  0  0  0  0  0  0  0  0  0  0  0
  141.5515   76.3993  220.6064 H   0  0  0  0  0  0  0  0  0  0  0  0
  142.8701   75.4330  221.2748 H   0  0  0  0  0  0  0  0  0  0  0  0
  144.2796   76.2597  219.6056 H   0  0  0  0  0  0  0  0  0  0  0  0
  143.5670   78.1000  219.2880 H   0  0  0  0  0  0  0  0  0  0  0  0
  142.2577   75.5591  217.4376 H   0  0  0  0  0  0  0  0  0  0  0  0
  143.9480   75.1514  217.4640 H   0  0  0  0  0  0  0  0  0  0  0  0
  142.3795   73.1076  218.2128 H   0  0  0  0  0  0  0  0  0  0  0  0
  145.4011   73.0330  222.4449 H   0  0  0  0  0  0  0  0  0  0  0  0
  147.3079   72.3898  220.7005 H   0  0  0  0  0  0  0  0  0  0  0  0
  139.1032   70.2303  222.4102 H   0  0  0  0  0  0  0  0  0  0  0  0
  138.7277   68.6650  224.3398 H   0  0  0  0  0  0  0  0  0  0  0  0
  139.0448   68.1109  226.7322 H   0  0  0  0  0  0  0  0  0  0  0  0
  139.9752   68.7284  228.9349 H   0  0  0  0  0  0  0  0  0  0  0  0
  141.2497   70.8438  229.2538 H   0  0  0  0  0  0  0  0  0  0  0  0
  141.5823   72.3477  227.2791 H   0  0  0  0  0  0  0  0  0  0  0  0
  1  2  2  0
  2  3  1  0
  3  4  1  0
  4  5  1  0
  5  6  2  0
  5  7  1  0
  7  8  1  0
  8  9  1  0
  9 10  1  0
  9 11  1  0
 11 12  1  0
 12 13  1  0
 13 14  2  0
 14 15  1  0
 15 16  2  0
 16 17  1  0
  2 18  1  0
 18 19  2  0
 19 20  1  0
 20 21  2  0
 21 22  1  0
 22 23  2  0
 23 24  1  0
 24 25  2  0
 25 26  1  0
 26 27  2  0
 12  7  1  0
 17 13  1  0
 27 18  1  0
 26 21  1  0
  3 28  1  0
  4 29  1  0
  4 30  1  0
  8 31  1  0
  8 32  1  0
  9 33  1  1
 10 34  1  0
 11 35  1  0
 11 36  1  0
 12 37  1  6
 15 38  1  0
 16 39  1  0
 19 40  1  0
 20 41  1  0
 22 42  1  0
 23 43  1  0
 24 44  1  0
 25 45  1  0
M  END
>  <smiles>  (36) 
O=C(NCC(=O)N1C[C@H](O)C[C@H]1c1nccs1)c1ccc2ccccc2n1

>  <score_type>  (36) 
oracle

>  <origin>  (36) 
autodockgpu

>  <m_score__min__energy>  (36) 
-7.9100000000000001

>  <m_primary>  (36) 
energy

>  <rmsd>  (36) 
3.7244785810487935

>  <m_score__min__rmsd>  (36) 
3.7244785810487935

>  <meeko>  (36) 
{"free_energy": -7.52, "intermolecular_energy": -9.31, "internal_energy": -1.19, "cluster_size": 11, "cluster_id": 2, "rank_in_cluster": 6}

>  <energy>  (36) 
-7.91

>  <cluster_rmsd>  (36) 
0.0

>  <cluster>  (36) 
3

$$$$

     RDKit          3D

 45 48  0  0  0  0  0  0  0  0999 V2000
  141.4060   72.4570  221.5590 O   0  0  0  0  0  0  0  0  0  0  0  0
  140.4830   72.6490  222.4030 C   0  0  0  0  0  0  0  0  0  0  0  0
  139.6770   73.8200  222.3460 N   0  0  0  0  0  0  0  0  0  0  0  0
  139.8920   74.8110  221.3290 C   0  0  0  0  0  0  0  0  0  0  0  0
  139.4060   76.1470  221.7040 C   0  0  0  0  0  0  0  0  0  0  0  0
  138.4480   76.2430  222.5190 O   0  0  0  0  0  0  0  0  0  0  0  0
  140.0470   77.2760  221.1220 N   0  0  0  0  0  0  0  0  0  0  0  0
  139.4250   78.4430  220.4850 C   0  0  0  0  0  0  0  0  0  0  0  0
  140.4170   78.9070  219.4460 C   0  0  2  0  0  0  0  0  0  0  0  0
  139.8580   78.8800  218.1610 O   0  0  0  0  0  0  0  0  0  0  0  0
  141.5710   77.9350  219.5620 C   0  0  0  0  0  0  0  0  0  0  0  0
  141.4690   77.5260  221.0300 C   0  0  1  0  0  0  0  0  0  0  0  0
  141.7540   78.7250  221.8390 C   0  0  0  0  0  0  0  0  0  0  0  0
  142.1580   79.8250  221.6570 N   0  0  0  0  0  0  0  0  0  0  0  0
  142.3590   80.7970  222.5080 C   0  0  0  0  0  0  0  0  0  0  0  0
  142.0570   80.5050  223.8230 C   0  0  0  0  0  0  0  0  0  0  0  0
  141.4700   78.7290  223.6900 S   0  0  0  0  0  0  0  0  0  0  0  0
  140.2330   71.6560  223.4600 C   0  0  0  0  0  0  0  0  0  0  0  0
  139.5680   70.4880  223.1540 C   0  0  0  0  0  0  0  0  0  0  0  0
  139.3700   69.5950  224.2120 C   0  0  0  0  0  0  0  0  0  0  0  0
  139.8110   69.8670  225.4900 C   0  0  0  0  0  0  0  0  0  0  0  0
  139.6330   69.0110  226.5550 C   0  0  0  0  0  0  0  0  0  0  0  0
  140.1070   69.3540  227.8140 C   0  0  0  0  0  0  0  0  0  0  0  0
  140.7690   70.5530  228.0470 C   0  0  0  0  0  0  0  0  0  0  0  0
  140.9480   71.4110  226.9810 C   0  0  0  0  0  0  0  0  0  0  0  0
  140.4700   71.0490  225.7400 C   0  0  0  0  0  0  0  0  0  0  0  0
  140.6490   71.8870  224.7170 N   0  0  0  0  0  0  0  0  0  0  0  0
  138.9320   73.9170  223.0720 H   0  0  0  0  0  0  0  0  0  0  0  0
  140.9716   74.8762  221.1283 H   0  0  0  0  0  0  0  0  0  0  0  0
  139.3228   74.4953  220.4422 H   0  0  0  0  0  0  0  0  0  0  0  0
  138.4736   78.1612  220.0103 H   0  0  0  0  0  0  0  0  0  0  0  0
  139.1954   79.2339  221.2142 H   0  0  0  0  0  0  0  0  0  0  0  0
  140.7322   79.9481  219.6092 H   0  0  0  0  0  0  0  0  0  0  0  0
  140.0020   77.9630  217.8110 H   0  0  0  0  0  0  0  0  0  0  0  0
  141.4395   77.0717  218.8931 H   0  0  0  0  0  0  0  0  0  0  0  0
  142.5464   78.3567  219.2779 H   0  0  0  0  0  0  0  0  0  0  0  0
  142.1250   76.7017  221.3466 H   0  0  0  0  0  0  0  0  0  0  0  0
  142.7425   81.7801  222.1974 H   0  0  0  0  0  0  0  0  0  0  0  0
  142.1391   81.1452  224.7138 H   0  0  0  0  0  0  0  0  0  0  0  0
  139.2133   70.2707  222.1357 H   0  0  0  0  0  0  0  0  0  0  0  0
  138.8466   68.6470  224.0189 H   0  0  0  0  0  0  0  0  0  0  0  0
  139.1136   68.0527  226.4072 H   0  0  0  0  0  0  0  0  0  0  0  0
  139.9541   68.6566  228.6508 H   0  0  0  0  0  0  0  0  0  0  0  0
  141.1391   70.8105  229.0503 H   0  0  0  0  0  0  0  0  0  0  0  0
  141.4656   72.3716  227.1200 H   0  0  0  0  0  0  0  0  0  0  0  0
  1  2  2  0
  2  3  1  0
  3  4  1  0
  4  5  1  0
  5  6  2  0
  5  7  1  0
  7  8  1  0
  8  9  1  0
  9 10  1  0
  9 11  1  0
 11 12  1  0
 12 13  1  0
 13 14  2  0
 14 15  1  0
 15 16  2  0
 16 17  1  0
  2 18  1  0
 18 19  2  0
 19 20  1  0
 20 21  2  0
 21 22  1  0
 22 23  2  0
 23 24  1  0
 24 25  2  0
 25 26  1  0
 26 27  2  0
 12  7  1  0
 17 13  1  0
 27 18  1  0
 26 21  1  0
  3 28  1  0
  4 29  1  0
  4 30  1  0
  8 31  1  0
  8 32  1  0
  9 33  1  1
 10 34  1  0
 11 35  1  0
 11 36  1  0
 12 37  1  1
 15 38  1  0
 16 39  1  0
 19 40  1  0
 20 41  1  0
 22 42  1  0
 23 43  1  0
 24 44  1  0
 25 45  1  0
M  END
>  <smiles>  (37) 
O=C(NCC(=O)N1C[C@H](O)C[C@H]1c1nccs1)c1ccc2ccccc2n1

>  <score_type>  (37) 
oracle

>  <origin>  (37) 
autodockgpu

>  <m_score__min__energy>  (37) 
-7.9100000000000001

>  <m_primary>  (37) 
energy

>  <rmsd>  (37) 
2.21120179865072

>  <m_score__min__rmsd>  (37) 
2.21120179865072

>  <meeko>  (37) 
{"free_energy": -7.62, "intermolecular_energy": -9.41, "internal_energy": -1.45, "cluster_size": 24, "cluster_id": 1, "rank_in_cluster": 17}

>  <energy>  (37) 
-7.9

>  <cluster_rmsd>  (37) 
0.17

>  <cluster>  (37) 
3

$$$$

     RDKit          3D

 45 48  0  0  0  0  0  0  0  0999 V2000
  141.4320   72.4720  221.5660 O   0  0  0  0  0  0  0  0  0  0  0  0
  140.5090   72.6640  222.4090 C   0  0  0  0  0  0  0  0  0  0  0  0
  139.7090   73.8400  222.3580 N   0  0  0  0  0  0  0  0  0  0  0  0
  139.9320   74.8360  221.3480 C   0  0  0  0  0  0  0  0  0  0  0  0
  139.4140   76.1640  221.7130 C   0  0  0  0  0  0  0  0  0  0  0  0
  138.4440   76.2410  222.5150 O   0  0  0  0  0  0  0  0  0  0  0  0
  140.0400   77.3030  221.1370 N   0  0  0  0  0  0  0  0  0  0  0  0
  139.4010   78.4900  220.5540 C   0  0  0  0  0  0  0  0  0  0  0  0
  140.3580   78.9750  219.4900 C   0  0  2  0  0  0  0  0  0  0  0  0
  139.7520   78.9850  218.2270 O   0  0  0  0  0  0  0  0  0  0  0  0
  141.5090   77.9960  219.5380 C   0  0  0  0  0  0  0  0  0  0  0  0
  141.4590   77.5490  220.9980 C   0  0  1  0  0  0  0  0  0  0  0  0
  141.7800   78.7250  221.8270 C   0  0  0  0  0  0  0  0  0  0  0  0
  142.2260   79.8120  221.6640 N   0  0  0  0  0  0  0  0  0  0  0  0
  142.4550   80.7640  222.5310 C   0  0  0  0  0  0  0  0  0  0  0  0
  142.1320   80.4650  223.8390 C   0  0  0  0  0  0  0  0  0  0  0  0
  141.4820   78.7130  223.6760 S   0  0  0  0  0  0  0  0  0  0  0  0
  140.2510   71.6660  223.4590 C   0  0  0  0  0  0  0  0  0  0  0  0
  139.5790   70.5040  223.1440 C   0  0  0  0  0  0  0  0  0  0  0  0
  139.3720   69.6050  224.1950 C   0  0  0  0  0  0  0  0  0  0  0  0
  139.8140   69.8650  225.4750 C   0  0  0  0  0  0  0  0  0  0  0  0
  139.6290   69.0030  226.5340 C   0  0  0  0  0  0  0  0  0  0  0  0
  140.1030   69.3350  227.7960 C   0  0  0  0  0  0  0  0  0  0  0  0
  140.7720   70.5270  228.0390 C   0  0  0  0  0  0  0  0  0  0  0  0
  140.9590   71.3910  226.9790 C   0  0  0  0  0  0  0  0  0  0  0  0
  140.4800   71.0410  225.7340 C   0  0  0  0  0  0  0  0  0  0  0  0
  140.6660   71.8850  224.7180 N   0  0  0  0  0  0  0  0  0  0  0  0
  138.9640   73.9360  223.0830 H   0  0  0  0  0  0  0  0  0  0  0  0
  141.0149   74.9198  221.1739 H   0  0  0  0  0  0  0  0  0  0  0  0
  139.3901   74.5122  220.4472 H   0  0  0  0  0  0  0  0  0  0  0  0
  138.4308   78.2256  220.1082 H   0  0  0  0  0  0  0  0  0  0  0  0
  139.2030   79.2630  221.3111 H   0  0  0  0  0  0  0  0  0  0  0  0
  140.6858   80.0098  219.6683 H   0  0  0  0  0  0  0  0  0  0  0  0
  139.3160   78.1000  218.1170 H   0  0  0  0  0  0  0  0  0  0  0  0
  141.3482   77.1511  218.8522 H   0  0  0  0  0  0  0  0  0  0  0  0
  142.4756   78.4207  219.2291 H   0  0  0  0  0  0  0  0  0  0  0  0
  142.1219   76.7137  221.2678 H   0  0  0  0  0  0  0  0  0  0  0  0
  142.8764   81.7368  222.2376 H   0  0  0  0  0  0  0  0  0  0  0  0
  142.2299   81.0893  224.7394 H   0  0  0  0  0  0  0  0  0  0  0  0
  139.2256   70.2958  222.1233 H   0  0  0  0  0  0  0  0  0  0  0  0
  138.8409   68.6627  223.9947 H   0  0  0  0  0  0  0  0  0  0  0  0
  139.1041   68.0488  226.3790 H   0  0  0  0  0  0  0  0  0  0  0  0
  139.9438   68.6330  228.6278 H   0  0  0  0  0  0  0  0  0  0  0  0
  141.1415   70.7751  229.0449 H   0  0  0  0  0  0  0  0  0  0  0  0
  141.4835   72.3467  227.1254 H   0  0  0  0  0  0  0  0  0  0  0  0
  1  2  2  0
  2  3  1  0
  3  4  1  0
  4  5  1  0
  5  6  2  0
  5  7  1  0
  7  8  1  0
  8  9  1  0
  9 10  1  0
  9 11  1  0
 11 12  1  0
 12 13  1  0
 13 14  2  0
 14 15  1  0
 15 16  2  0
 16 17  1  0
  2 18  1  0
 18 19  2  0
 19 20  1  0
 20 21  2  0
 21 22  1  0
 22 23  2  0
 23 24  1  0
 24 25  2  0
 25 26  1  0
 26 27  2  0
 12  7  1  0
 17 13  1  0
 27 18  1  0
 26 21  1  0
  3 28  1  0
  4 29  1  0
  4 30  1  0
  8 31  1  0
  8 32  1  0
  9 33  1  1
 10 34  1  0
 11 35  1  0
 11 36  1  0
 12 37  1  6
 15 38  1  0
 16 39  1  0
 19 40  1  0
 20 41  1  0
 22 42  1  0
 23 43  1  0
 24 44  1  0
 25 45  1  0
M  END
>  <smiles>  (38) 
O=C(NCC(=O)N1C[C@H](O)C[C@H]1c1nccs1)c1ccc2ccccc2n1

>  <score_type>  (38) 
oracle

>  <origin>  (38) 
autodockgpu

>  <m_score__min__energy>  (38) 
-7.9100000000000001

>  <m_primary>  (38) 
energy

>  <rmsd>  (38) 
2.2403765956720085

>  <m_score__min__rmsd>  (38) 
2.2403765956720085

>  <meeko>  (38) 
{"free_energy": -7.58, "intermolecular_energy": -9.37, "internal_energy": -1.48, "cluster_size": 24, "cluster_id": 1, "rank_in_cluster": 21}

>  <energy>  (38) 
-7.86

>  <cluster_rmsd>  (38) 
0.26

>  <cluster>  (38) 
3

$$$$

     RDKit          3D

 45 48  0  0  0  0  0  0  0  0999 V2000
  140.7800   71.5170  221.2430 O   0  0  0  0  0  0  0  0  0  0  0  0
  140.3290   72.0950  222.2750 C   0  0  0  0  0  0  0  0  0  0  0  0
  139.9500   73.4650  222.2350 N   0  0  0  0  0  0  0  0  0  0  0  0
  140.0700   74.2260  221.0230 C   0  0  0  0  0  0  0  0  0  0  0  0
  141.0150   75.3470  221.1290 C   0  0  0  0  0  0  0  0  0  0  0  0
  140.9410   76.1170  222.1250 O   0  0  0  0  0  0  0  0  0  0  0  0
  141.9750   75.5080  220.0920 N   0  0  0  0  0  0  0  0  0  0  0  0
  142.9320   76.6060  219.9050 C   0  0  0  0  0  0  0  0  0  0  0  0
  143.1420   76.7020  218.4120 C   0  0  2  0  0  0  0  0  0  0  0  0
  142.7810   77.9680  217.9290 O   0  0  0  0  0  0  0  0  0  0  0  0
  142.2560   75.6220  217.8330 C   0  0  0  0  0  0  0  0  0  0  0  0
  142.2250   74.6150  218.9810 C   0  0  1  0  0  0  0  0  0  0  0  0
  143.5950   74.0930  219.1420 C   0  0  0  0  0  0  0  0  0  0  0  0
  144.5030   73.7970  218.4400 N   0  0  0  0  0  0  0  0  0  0  0  0
  145.6880   73.3350  218.7480 C   0  0  0  0  0  0  0  0  0  0  0  0
  145.9210   73.1610  220.0970 C   0  0  0  0  0  0  0  0  0  0  0  0
  144.2930   73.7230  220.8390 S   0  0  0  0  0  0  0  0  0  0  0  0
  140.1920   71.3480  223.5360 C   0  0  0  0  0  0  0  0  0  0  0  0
  139.5950   70.1050  223.5300 C   0  0  0  0  0  0  0  0  0  0  0  0
  139.5010   69.4590  224.7670 C   0  0  0  0  0  0  0  0  0  0  0  0
  139.9780   70.0310  225.9270 C   0  0  0  0  0  0  0  0  0  0  0  0
  139.9040   69.4240  227.1620 C   0  0  0  0  0  0  0  0  0  0  0  0
  140.4070   70.0640  228.2870 C   0  0  0  0  0  0  0  0  0  0  0  0
  140.9960   71.3190  228.2150 C   0  0  0  0  0  0  0  0  0  0  0  0
  141.0720   71.9280  226.9790 C   0  0  0  0  0  0  0  0  0  0  0  0
  140.5660   71.2740  225.8760 C   0  0  0  0  0  0  0  0  0  0  0  0
  140.6450   71.8740  224.6860 N   0  0  0  0  0  0  0  0  0  0  0  0
  139.5850   73.8800  223.1220 H   0  0  0  0  0  0  0  0  0  0  0  0
  140.4137   73.5547  220.2223 H   0  0  0  0  0  0  0  0  0  0  0  0
  139.0799   74.6549  220.8093 H   0  0  0  0  0  0  0  0  0  0  0  0
  142.5198   77.5473  220.2974 H   0  0  0  0  0  0  0  0  0  0  0  0
  143.8752   76.4236  220.4409 H   0  0  0  0  0  0  0  0  0  0  0  0
  144.1972   76.5677  218.1317 H   0  0  0  0  0  0  0  0  0  0  0  0
  143.5830   78.3330  217.4730 H   0  0  0  0  0  0  0  0  0  0  0  0
  141.2502   76.0049  217.6056 H   0  0  0  0  0  0  0  0  0  0  0  0
  142.6145   75.2077  216.8792 H   0  0  0  0  0  0  0  0  0  0  0  0
  141.5204   73.7779  218.8673 H   0  0  0  0  0  0  0  0  0  0  0  0
  146.4453   73.1017  217.9851 H   0  0  0  0  0  0  0  0  0  0  0  0
  146.8241   72.7902  220.6038 H   0  0  0  0  0  0  0  0  0  0  0  0
  139.2143   69.6475  222.6049 H   0  0  0  0  0  0  0  0  0  0  0  0
  139.0325   68.4649  224.8157 H   0  0  0  0  0  0  0  0  0  0  0  0
  139.4448   68.4289  227.2569 H   0  0  0  0  0  0  0  0  0  0  0  0
  140.3367   69.5621  229.2633 H   0  0  0  0  0  0  0  0  0  0  0  0
  141.3900   71.8128  229.1155 H   0  0  0  0  0  0  0  0  0  0  0  0
  141.5305   72.9225  226.8752 H   0  0  0  0  0  0  0  0  0  0  0  0
  1  2  2  0
  2  3  1  0
  3  4  1  0
  4  5  1  0
  5  6  2  0
  5  7  1  0
  7  8  1  0
  8  9  1  0
  9 10  1  0
  9 11  1  0
 11 12  1  0
 12 13  1  0
 13 14  2  0
 14 15  1  0
 15 16  2  0
 16 17  1  0
  2 18  1  0
 18 19  2  0
 19 20  1  0
 20 21  2  0
 21 22  1  0
 22 23  2  0
 23 24  1  0
 24 25  2  0
 25 26  1  0
 26 27  2  0
 12  7  1  0
 17 13  1  0
 27 18  1  0
 26 21  1  0
  3 28  1  0
  4 29  1  0
  4 30  1  0
  8 31  1  0
  8 32  1  0
  9 33  1  1
 10 34  1  0
 11 35  1  0
 11 36  1  0
 12 37  1  6
 15 38  1  0
 16 39  1  0
 19 40  1  0
 20 41  1  0
 22 42  1  0
 23 43  1  0
 24 44  1  0
 25 45  1  0
M  END
>  <smiles>  (39) 
O=C(NCC(=O)N1C[C@H](O)C[C@H]1c1nccs1)c1ccc2ccccc2n1

>  <score_type>  (39) 
oracle

>  <origin>  (39) 
autodockgpu

>  <m_score__min__energy>  (39) 
-7.9100000000000001

>  <m_primary>  (39) 
energy

>  <rmsd>  (39) 
3.74625575639051

>  <m_score__min__rmsd>  (39) 
3.74625575639051

>  <meeko>  (39) 
{"free_energy": -7.45, "intermolecular_energy": -9.24, "internal_energy": -1.55, "cluster_size": 11, "cluster_id": 2, "rank_in_cluster": 7}

>  <energy>  (39) 
-7.86

>  <cluster_rmsd>  (39) 
0.71

>  <cluster>  (39) 
3

$$$$

     RDKit          3D

 45 48  0  0  0  0  0  0  0  0999 V2000
  141.2470   72.2840  221.6060 O   0  0  0  0  0  0  0  0  0  0  0  0
  140.3400   72.4900  222.4630 C   0  0  0  0  0  0  0  0  0  0  0  0
  139.4650   73.6050  222.3440 N   0  0  0  0  0  0  0  0  0  0  0  0
  139.5920   74.5240  221.2480 C   0  0  0  0  0  0  0  0  0  0  0  0
  140.7790   75.3880  221.3450 C   0  0  0  0  0  0  0  0  0  0  0  0
  141.9080   74.8570  221.5280 O   0  0  0  0  0  0  0  0  0  0  0  0
  140.5900   76.7920  221.2250 N   0  0  0  0  0  0  0  0  0  0  0  0
  139.3560   77.5610  221.4250 C   0  0  0  0  0  0  0  0  0  0  0  0
  139.4770   78.7560  220.5090 C   0  0  2  0  0  0  0  0  0  0  0  0
  138.4290   78.7910  219.5790 O   0  0  0  0  0  0  0  0  0  0  0  0
  140.8120   78.5750  219.8220 C   0  0  0  0  0  0  0  0  0  0  0  0
  141.5840   77.7840  220.8770 C   0  0  1  0  0  0  0  0  0  0  0  0
  141.7500   78.6640  222.0490 C   0  0  0  0  0  0  0  0  0  0  0  0
  141.6850   78.5670  223.2290 N   0  0  0  0  0  0  0  0  0  0  0  0
  141.8640   79.4710  224.1570 C   0  0  0  0  0  0  0  0  0  0  0  0
  142.1780   80.7350  223.7000 C   0  0  0  0  0  0  0  0  0  0  0  0
  142.1820   80.4740  221.8430 S   0  0  0  0  0  0  0  0  0  0  0  0
  140.1790   71.5690  223.6000 C   0  0  0  0  0  0  0  0  0  0  0  0
  139.5330   70.3650  223.4170 C   0  0  0  0  0  0  0  0  0  0  0  0
  139.4200   69.5470  224.5450 C   0  0  0  0  0  0  0  0  0  0  0  0
  139.9250   69.9210  225.7720 C   0  0  0  0  0  0  0  0  0  0  0  0
  139.8320   69.1400  226.9040 C   0  0  0  0  0  0  0  0  0  0  0  0
  140.3660   69.5860  228.1060 C   0  0  0  0  0  0  0  0  0  0  0  0
  141.0040   70.8140  228.2150 C   0  0  0  0  0  0  0  0  0  0  0  0
  141.0980   71.5970  227.0820 C   0  0  0  0  0  0  0  0  0  0  0  0
  140.5610   71.1340  225.9000 C   0  0  0  0  0  0  0  0  0  0  0  0
  140.6580   71.9010  224.8120 N   0  0  0  0  0  0  0  0  0  0  0  0
  138.7370   73.7160  223.0850 H   0  0  0  0  0  0  0  0  0  0  0  0
  139.6565   73.9463  220.3141 H   0  0  0  0  0  0  0  0  0  0  0  0
  138.7096   75.1804  221.2705 H   0  0  0  0  0  0  0  0  0  0  0  0
  138.4775   76.9564  221.1553 H   0  0  0  0  0  0  0  0  0  0  0  0
  139.2261   77.8613  222.4752 H   0  0  0  0  0  0  0  0  0  0  0  0
  139.4180   79.7073  221.0582 H   0  0  0  0  0  0  0  0  0  0  0  0
  138.8160   79.1330  218.7320 H   0  0  0  0  0  0  0  0  0  0  0  0
  140.7099   78.0059  218.8862 H   0  0  0  0  0  0  0  0  0  0  0  0
  141.2954   79.5157  219.5198 H   0  0  0  0  0  0  0  0  0  0  0  0
  142.5642   77.3949  220.5641 H   0  0  0  0  0  0  0  0  0  0  0  0
  141.7707   79.2398  225.2284 H   0  0  0  0  0  0  0  0  0  0  0  0
  142.3741   81.6529  224.2736 H   0  0  0  0  0  0  0  0  0  0  0  0
  139.1293   70.0649  222.4388 H   0  0  0  0  0  0  0  0  0  0  0  0
  138.9128   68.5755  224.4507 H   0  0  0  0  0  0  0  0  0  0  0  0
  139.3334   68.1607  226.8552 H   0  0  0  0  0  0  0  0  0  0  0  0
  140.2809   68.9475  228.9977 H   0  0  0  0  0  0  0  0  0  0  0  0
  141.4218   71.1527  229.1746 H   0  0  0  0  0  0  0  0  0  0  0  0
  141.5949   72.5775  227.1219 H   0  0  0  0  0  0  0  0  0  0  0  0
  1  2  2  0
  2  3  1  0
  3  4  1  0
  4  5  1  0
  5  6  2  0
  5  7  1  0
  7  8  1  0
  8  9  1  0
  9 10  1  0
  9 11  1  0
 11 12  1  0
 12 13  1  0
 13 14  2  0
 14 15  1  0
 15 16  2  0
 16 17  1  0
  2 18  1  0
 18 19  2  0
 19 20  1  0
 20 21  2  0
 21 22  1  0
 22 23  2  0
 23 24  1  0
 24 25  2  0
 25 26  1  0
 26 27  2  0
 12  7  1  0
 17 13  1  0
 27 18  1  0
 26 21  1  0
  3 28  1  0
  4 29  1  0
  4 30  1  0
  8 31  1  0
  8 32  1  0
  9 33  1  1
 10 34  1  0
 11 35  1  0
 11 36  1  0
 12 37  1  6
 15 38  1  0
 16 39  1  0
 19 40  1  0
 20 41  1  0
 22 42  1  0
 23 43  1  0
 24 44  1  0
 25 45  1  0
M  END
>  <smiles>  (40) 
O=C(NCC(=O)N1C[C@H](O)C[C@H]1c1nccs1)c1ccc2ccccc2n1

>  <score_type>  (40) 
oracle

>  <origin>  (40) 
autodockgpu

>  <m_score__min__energy>  (40) 
-7.9100000000000001

>  <m_primary>  (40) 
energy

>  <rmsd>  (40) 
2.136816555165156

>  <m_score__min__rmsd>  (40) 
2.136816555165156

>  <meeko>  (40) 
{"free_energy": -7.78, "intermolecular_energy": -9.57, "internal_energy": -1.12, "cluster_size": 24, "cluster_id": 1, "rank_in_cluster": 5}

>  <energy>  (40) 
-7.84

>  <cluster_rmsd>  (40) 
0.3

>  <cluster>  (40) 
3

$$$$

     RDKit          3D

 45 48  0  0  0  0  0  0  0  0999 V2000
  139.6770   73.3930  222.3300 O   0  0  0  0  0  0  0  0  0  0  0  0
  140.4020   72.3690  222.4920 C   0  0  0  0  0  0  0  0  0  0  0  0
  141.4070   72.0310  221.5430 N   0  0  0  0  0  0  0  0  0  0  0  0
  141.6220   72.8440  220.3800 C   0  0  0  0  0  0  0  0  0  0  0  0
  142.1880   74.1670  220.6890 C   0  0  0  0  0  0  0  0  0  0  0  0
  143.4380   74.2840  220.8050 O   0  0  0  0  0  0  0  0  0  0  0  0
  141.2860   75.2560  220.8430 N   0  0  0  0  0  0  0  0  0  0  0  0
  141.0210   76.0490  222.0490 C   0  0  0  0  0  0  0  0  0  0  0  0
  139.5840   76.4980  221.9230 C   0  0  2  0  0  0  0  0  0  0  0  0
  138.8110   76.0360  222.9980 O   0  0  0  0  0  0  0  0  0  0  0  0
  139.1130   75.9040  220.6150 C   0  0  0  0  0  0  0  0  0  0  0  0
  140.4230   75.8290  219.8330 C   0  0  1  0  0  0  0  0  0  0  0  0
  140.8770   77.2140  219.6080 C   0  0  0  0  0  0  0  0  0  0  0  0
  141.9100   77.7870  219.4980 N   0  0  0  0  0  0  0  0  0  0  0  0
  142.1490   79.0570  219.2960 C   0  0  0  0  0  0  0  0  0  0  0  0
  141.0320   79.8600  219.1940 C   0  0  0  0  0  0  0  0  0  0  0  0
  139.6480   78.6140  219.4160 S   0  0  0  0  0  0  0  0  0  0  0  0
  140.2100   71.5110  223.6720 C   0  0  0  0  0  0  0  0  0  0  0  0
  139.5360   70.3150  223.5440 C   0  0  0  0  0  0  0  0  0  0  0  0
  139.3950   69.5570  224.7100 C   0  0  0  0  0  0  0  0  0  0  0  0
  139.9010   69.9800  225.9210 C   0  0  0  0  0  0  0  0  0  0  0  0
  139.7810   69.2590  227.0900 C   0  0  0  0  0  0  0  0  0  0  0  0
  140.3180   69.7500  228.2720 C   0  0  0  0  0  0  0  0  0  0  0  0
  140.9860   70.9660  228.3250 C   0  0  0  0  0  0  0  0  0  0  0  0
  141.1070   71.6890  227.1560 C   0  0  0  0  0  0  0  0  0  0  0  0
  140.5660   71.1820  225.9930 C   0  0  0  0  0  0  0  0  0  0  0  0
  140.6900   71.8900  224.8690 N   0  0  0  0  0  0  0  0  0  0  0  0
  141.9700   71.1730  221.7380 H   0  0  0  0  0  0  0  0  0  0  0  0
  142.3153   72.3161  219.7087 H   0  0  0  0  0  0  0  0  0  0  0  0
  140.6396   73.0115  219.9144 H   0  0  0  0  0  0  0  0  0  0  0  0
  141.1549   75.4344  222.9514 H   0  0  0  0  0  0  0  0  0  0  0  0
  141.7106   76.9013  222.1392 H   0  0  0  0  0  0  0  0  0  0  0  0
  139.4890   77.5938  221.9394 H   0  0  0  0  0  0  0  0  0  0  0  0
  139.0050   75.0680  223.0870 H   0  0  0  0  0  0  0  0  0  0  0  0
  138.6731   74.9064  220.7608 H   0  0  0  0  0  0  0  0  0  0  0  0
  138.3222   76.4829  220.1156 H   0  0  0  0  0  0  0  0  0  0  0  0
  140.3806   75.2920  218.8739 H   0  0  0  0  0  0  0  0  0  0  0  0
  143.1703   79.4571  219.2132 H   0  0  0  0  0  0  0  0  0  0  0  0
  140.9695   80.9454  219.0265 H   0  0  0  0  0  0  0  0  0  0  0  0
  139.1319   69.9764  222.5786 H   0  0  0  0  0  0  0  0  0  0  0  0
  138.8647   68.5946  224.6600 H   0  0  0  0  0  0  0  0  0  0  0  0
  139.2579   68.2913  227.0859 H   0  0  0  0  0  0  0  0  0  0  0  0
  140.2112   69.1586  229.1934 H   0  0  0  0  0  0  0  0  0  0  0  0
  141.4059   71.3415  229.2698 H   0  0  0  0  0  0  0  0  0  0  0  0
  141.6284   72.6576  227.1517 H   0  0  0  0  0  0  0  0  0  0  0  0
  1  2  2  0
  2  3  1  0
  3  4  1  0
  4  5  1  0
  5  6  2  0
  5  7  1  0
  7  8  1  0
  8  9  1  0
  9 10  1  0
  9 11  1  0
 11 12  1  0
 12 13  1  0
 13 14  2  0
 14 15  1  0
 15 16  2  0
 16 17  1  0
  2 18  1  0
 18 19  2  0
 19 20  1  0
 20 21  2  0
 21 22  1  0
 22 23  2  0
 23 24  1  0
 24 25  2  0
 25 26  1  0
 26 27  2  0
 12  7  1  0
 17 13  1  0
 27 18  1  0
 26 21  1  0
  3 28  1  0
  4 29  1  0
  4 30  1  0
  8 31  1  0
  8 32  1  0
  9 33  1  6
 10 34  1  0
 11 35  1  0
 11 36  1  0
 12 37  1  6
 15 38  1  0
 16 39  1  0
 19 40  1  0
 20 41  1  0
 22 42  1  0
 23 43  1  0
 24 44  1  0
 25 45  1  0
M  END
>  <smiles>  (41) 
O=C(NCC(=O)N1C[C@H](O)C[C@H]1c1nccs1)c1ccc2ccccc2n1

>  <score_type>  (41) 
oracle

>  <origin>  (41) 
autodockgpu

>  <m_score__min__energy>  (41) 
-7.9100000000000001

>  <m_primary>  (41) 
energy

>  <rmsd>  (41) 
2.963861441208383

>  <m_score__min__rmsd>  (41) 
2.963861441208383

>  <meeko>  (41) 
{"free_energy": -6.86, "intermolecular_energy": -8.65, "internal_energy": -2.12, "cluster_size": 3, "cluster_id": 7, "rank_in_cluster": 3}

>  <energy>  (41) 
-7.76

>  <cluster_rmsd>  (41) 
0.0

>  <cluster>  (41) 
4

$$$$

     RDKit          3D

 45 48  0  0  0  0  0  0  0  0999 V2000
  140.2540   71.3610  221.2610 O   0  0  0  0  0  0  0  0  0  0  0  0
  140.0180   71.9500  222.3550 C   0  0  0  0  0  0  0  0  0  0  0  0
  139.7540   73.3480  222.3880 N   0  0  0  0  0  0  0  0  0  0  0  0
  139.7500   74.1220  221.1790 C   0  0  0  0  0  0  0  0  0  0  0  0
  140.7940   75.1580  221.1460 C   0  0  0  0  0  0  0  0  0  0  0  0
  141.9950   74.8100  220.9800 O   0  0  0  0  0  0  0  0  0  0  0  0
  140.3920   76.5130  221.3030 N   0  0  0  0  0  0  0  0  0  0  0  0
  139.1760   77.0280  221.9440 C   0  0  0  0  0  0  0  0  0  0  0  0
  138.8650   78.3220  221.2290 C   0  0  2  0  0  0  0  0  0  0  0  0
  137.5990   78.2800  220.6300 O   0  0  0  0  0  0  0  0  0  0  0  0
  139.9570   78.4540  220.1910 C   0  0  0  0  0  0  0  0  0  0  0  0
  141.1000   77.6950  220.8630 C   0  0  1  0  0  0  0  0  0  0  0  0
  141.4770   78.4520  222.0720 C   0  0  0  0  0  0  0  0  0  0  0  0
  141.4830   78.2770  223.2440 N   0  0  0  0  0  0  0  0  0  0  0  0
  141.8590   79.0730  224.2110 C   0  0  0  0  0  0  0  0  0  0  0  0
  142.3210   80.3110  223.8110 C   0  0  0  0  0  0  0  0  0  0  0  0
  142.1550   80.1930  221.9470 S   0  0  0  0  0  0  0  0  0  0  0  0
  140.0140   71.1890  223.6150 C   0  0  0  0  0  0  0  0  0  0  0  0
  139.5460   69.8920  223.6270 C   0  0  0  0  0  0  0  0  0  0  0  0
  139.5750   69.2360  224.8610 C   0  0  0  0  0  0  0  0  0  0  0  0
  140.0430   69.8500  226.0040 C   0  0  0  0  0  0  0  0  0  0  0  0
  140.0860   69.2350  227.2360 C   0  0  0  0  0  0  0  0  0  0  0  0
  140.5710   69.9180  228.3420 C   0  0  0  0  0  0  0  0  0  0  0  0
  141.0260   71.2280  228.2540 C   0  0  0  0  0  0  0  0  0  0  0  0
  140.9840   71.8450  227.0210 C   0  0  0  0  0  0  0  0  0  0  0  0
  140.4980   71.1470  225.9360 C   0  0  0  0  0  0  0  0  0  0  0  0
  140.4620   71.7550  224.7490 N   0  0  0  0  0  0  0  0  0  0  0  0
  139.5670   73.7710  223.3240 H   0  0  0  0  0  0  0  0  0  0  0  0
  139.9065   73.4418  220.3288 H   0  0  0  0  0  0  0  0  0  0  0  0
  138.7794   74.6368  221.1258 H   0  0  0  0  0  0  0  0  0  0  0  0
  138.3471   76.3144  221.8269 H   0  0  0  0  0  0  0  0  0  0  0  0
  139.3153   77.1801  223.0245 H   0  0  0  0  0  0  0  0  0  0  0  0
  138.8389   79.1801  221.9167 H   0  0  0  0  0  0  0  0  0  0  0  0
  137.6220   78.9250  219.8770 H   0  0  0  0  0  0  0  0  0  0  0  0
  139.6669   77.9853  219.2391 H   0  0  0  0  0  0  0  0  0  0  0  0
  140.2013   79.4925  219.9229 H   0  0  0  0  0  0  0  0  0  0  0  0
  141.9913   77.5202  220.2425 H   0  0  0  0  0  0  0  0  0  0  0  0
  141.8105   78.7769  225.2693 H   0  0  0  0  0  0  0  0  0  0  0  0
  142.6894   81.1465  224.4243 H   0  0  0  0  0  0  0  0  0  0  0  0
  139.1710   69.4012  222.7168 H   0  0  0  0  0  0  0  0  0  0  0  0
  139.2137   68.1988  224.9224 H   0  0  0  0  0  0  0  0  0  0  0  0
  139.7344   68.1982  227.3433 H   0  0  0  0  0  0  0  0  0  0  0  0
  140.5960   69.4080  229.3163 H   0  0  0  0  0  0  0  0  0  0  0  0
  141.4078   71.7565  229.1400 H   0  0  0  0  0  0  0  0  0  0  0  0
  141.3340   72.8813  226.9049 H   0  0  0  0  0  0  0  0  0  0  0  0
  1  2  2  0
  2  3  1  0
  3  4  1  0
  4  5  1  0
  5  6  2  0
  5  7  1  0
  7  8  1  0
  8  9  1  0
  9 10  1  0
  9 11  1  0
 11 12  1  0
 12 13  1  0
 13 14  2  0
 14 15  1  0
 15 16  2  0
 16 17  1  0
  2 18  1  0
 18 19  2  0
 19 20  1  0
 20 21  2  0
 21 22  1  0
 22 23  2  0
 23 24  1  0
 24 25  2  0
 25 26  1  0
 26 27  2  0
 12  7  1  0
 17 13  1  0
 27 18  1  0
 26 21  1  0
  3 28  1  0
  4 29  1  0
  4 30  1  0
  8 31  1  0
  8 32  1  0
  9 33  1  1
 10 34  1  0
 11 35  1  0
 11 36  1  0
 12 37  1  6
 15 38  1  0
 16 39  1  0
 19 40  1  0
 20 41  1  0
 22 42  1  0
 23 43  1  0
 24 44  1  0
 25 45  1  0
M  END
>  <smiles>  (42) 
O=C(NCC(=O)N1C[C@H](O)C[C@H]1c1nccs1)c1ccc2ccccc2n1

>  <score_type>  (42) 
oracle

>  <origin>  (42) 
autodockgpu

>  <m_score__min__energy>  (42) 
-7.9100000000000001

>  <m_primary>  (42) 
energy

>  <rmsd>  (42) 
2.177814775454923

>  <m_score__min__rmsd>  (42) 
2.177814775454923

>  <meeko>  (42) 
{"free_energy": -7.75, "intermolecular_energy": -9.54, "internal_energy": -1.28, "cluster_size": 24, "cluster_id": 1, "rank_in_cluster": 6}

>  <energy>  (42) 
-6.87

>  <cluster_rmsd>  (42) 
0.96

>  <cluster>  (42) 
4

$$$$

     RDKit          3D

 45 48  0  0  0  0  0  0  0  0999 V2000
  141.3570   72.4400  221.5370 O   0  0  0  0  0  0  0  0  0  0  0  0
  140.4430   72.6320  222.3910 C   0  0  0  0  0  0  0  0  0  0  0  0
  139.6390   73.8050  222.3460 N   0  0  0  0  0  0  0  0  0  0  0  0
  139.8460   74.7990  221.3300 C   0  0  0  0  0  0  0  0  0  0  0  0
  139.3920   76.1410  221.7260 C   0  0  0  0  0  0  0  0  0  0  0  0
  138.4490   76.2470  222.5560 O   0  0  0  0  0  0  0  0  0  0  0  0
  140.0470   77.2620  221.1460 N   0  0  0  0  0  0  0  0  0  0  0  0
  139.4400   78.4350  220.5050 C   0  0  0  0  0  0  0  0  0  0  0  0
  140.4420   78.8880  219.4700 C   0  0  2  0  0  0  0  0  0  0  0  0
  139.8880   78.8660  218.1830 O   0  0  0  0  0  0  0  0  0  0  0  0
  141.5850   77.9050  219.5920 C   0  0  0  0  0  0  0  0  0  0  0  0
  141.4720   77.4970  221.0590 C   0  0  1  0  0  0  0  0  0  0  0  0
  141.7660   78.6940  221.8700 C   0  0  0  0  0  0  0  0  0  0  0  0
  142.1690   79.7940  221.6870 N   0  0  0  0  0  0  0  0  0  0  0  0
  142.3790   80.7640  222.5380 C   0  0  0  0  0  0  0  0  0  0  0  0
  142.0890   80.4690  223.8550 C   0  0  0  0  0  0  0  0  0  0  0  0
  141.4990   78.6930  223.7230 S   0  0  0  0  0  0  0  0  0  0  0  0
  140.2010   71.6360  223.4470 C   0  0  0  0  0  0  0  0  0  0  0  0
  139.5160   70.4780  223.1470 C   0  0  0  0  0  0  0  0  0  0  0  0
  139.3260   69.5810  224.2030 C   0  0  0  0  0  0  0  0  0  0  0  0
  139.7970   69.8390  225.4740 C   0  0  0  0  0  0  0  0  0  0  0  0
  139.6290   68.9790  226.5370 C   0  0  0  0  0  0  0  0  0  0  0  0
  140.1320   69.3090  227.7880 C   0  0  0  0  0  0  0  0  0  0  0  0
  140.8130   70.4970  228.0160 C   0  0  0  0  0  0  0  0  0  0  0  0
  140.9830   71.3590  226.9510 C   0  0  0  0  0  0  0  0  0  0  0  0
  140.4750   71.0110  225.7180 C   0  0  0  0  0  0  0  0  0  0  0  0
  140.6450   71.8530  224.6970 N   0  0  0  0  0  0  0  0  0  0  0  0
  138.9020   73.9000  223.0800 H   0  0  0  0  0  0  0  0  0  0  0  0
  140.9212   74.8473  221.1031 H   0  0  0  0  0  0  0  0  0  0  0  0
  139.2501   74.4990  220.4554 H   0  0  0  0  0  0  0  0  0  0  0  0
  138.4880   78.1626  220.0260 H   0  0  0  0  0  0  0  0  0  0  0  0
  139.2151   79.2289  221.2325 H   0  0  0  0  0  0  0  0  0  0  0  0
  140.7678   79.9258  219.6338 H   0  0  0  0  0  0  0  0  0  0  0  0
  139.0400   78.3560  218.2500 H   0  0  0  0  0  0  0  0  0  0  0  0
  141.4483   77.0430  218.9224 H   0  0  0  0  0  0  0  0  0  0  0  0
  142.5659   78.3172  219.3129 H   0  0  0  0  0  0  0  0  0  0  0  0
  142.1179   76.6655  221.3776 H   0  0  0  0  0  0  0  0  0  0  0  0
  142.7605   81.7474  222.2261 H   0  0  0  0  0  0  0  0  0  0  0  0
  142.1799   81.1069  224.7465 H   0  0  0  0  0  0  0  0  0  0  0  0
  139.1400   70.2711  222.1342 H   0  0  0  0  0  0  0  0  0  0  0  0
  138.7850   68.6419  224.0147 H   0  0  0  0  0  0  0  0  0  0  0  0
  139.0948   68.0281  226.3941 H   0  0  0  0  0  0  0  0  0  0  0  0
  139.9867   68.6083  228.6234 H   0  0  0  0  0  0  0  0  0  0  0  0
  141.2048   70.7438  229.0138 H   0  0  0  0  0  0  0  0  0  0  0  0
  141.5170   72.3113  227.0849 H   0  0  0  0  0  0  0  0  0  0  0  0
  1  2  2  0
  2  3  1  0
  3  4  1  0
  4  5  1  0
  5  6  2  0
  5  7  1  0
  7  8  1  0
  8  9  1  0
  9 10  1  0
  9 11  1  0
 11 12  1  0
 12 13  1  0
 13 14  2  0
 14 15  1  0
 15 16  2  0
 16 17  1  0
  2 18  1  0
 18 19  2  0
 19 20  1  0
 20 21  2  0
 21 22  1  0
 22 23  2  0
 23 24  1  0
 24 25  2  0
 25 26  1  0
 26 27  2  0
 12  7  1  0
 17 13  1  0
 27 18  1  0
 26 21  1  0
  3 28  1  0
  4 29  1  0
  4 30  1  0
  8 31  1  0
  8 32  1  0
  9 33  1  1
 10 34  1  0
 11 35  1  0
 11 36  1  0
 12 37  1  1
 15 38  1  0
 16 39  1  0
 19 40  1  0
 20 41  1  0
 22 42  1  0
 23 43  1  0
 24 44  1  0
 25 45  1  0
M  END
>  <smiles>  (43) 
O=C(NCC(=O)N1C[C@H](O)C[C@H]1c1nccs1)c1ccc2ccccc2n1

>  <score_type>  (43) 
oracle

>  <origin>  (43) 
autodockgpu

>  <m_score__min__energy>  (43) 
-7.9100000000000001

>  <m_primary>  (43) 
energy

>  <rmsd>  (43) 
2.20101755662876

>  <m_score__min__rmsd>  (43) 
2.20101755662876

>  <meeko>  (43) 
{"free_energy": -7.62, "intermolecular_energy": -9.41, "internal_energy": -1.44, "cluster_size": 24, "cluster_id": 1, "rank_in_cluster": 15}

>  <energy>  (43) 
-7.69

>  <cluster_rmsd>  (43) 
0.0

>  <cluster>  (43) 
5

$$$$

     RDKit          3D

 45 48  0  0  0  0  0  0  0  0999 V2000
  140.6980   73.0550  222.7190 O   0  0  0  0  0  0  0  0  0  0  0  0
  140.5580   71.8080  222.8740 C   0  0  0  0  0  0  0  0  0  0  0  0
  140.5050   70.9360  221.7510 N   0  0  0  0  0  0  0  0  0  0  0  0
  140.6090   71.4520  220.4150 C   0  0  0  0  0  0  0  0  0  0  0  0
  141.9120   71.1850  219.7860 C   0  0  0  0  0  0  0  0  0  0  0  0
  142.1630   70.0210  219.3710 O   0  0  0  0  0  0  0  0  0  0  0  0
  142.8310   72.2650  219.6760 N   0  0  0  0  0  0  0  0  0  0  0  0
  143.5370   72.7350  218.4780 C   0  0  0  0  0  0  0  0  0  0  0  0
  144.8370   73.3140  218.9830 C   0  0  2  0  0  0  0  0  0  0  0  0
  145.9400   72.6520  218.4260 O   0  0  0  0  0  0  0  0  0  0  0  0
  144.7830   73.1210  220.4820 C   0  0  0  0  0  0  0  0  0  0  0  0
  143.2760   73.1490  220.7310 C   0  0  1  0  0  0  0  0  0  0  0  0
  142.8020   74.5040  220.3940 C   0  0  0  0  0  0  0  0  0  0  0  0
  143.2780   75.5340  220.0500 N   0  0  0  0  0  0  0  0  0  0  0  0
  142.7020   76.6780  219.7840 C   0  0  0  0  0  0  0  0  0  0  0  0
  141.3290   76.6950  219.9220 C   0  0  0  0  0  0  0  0  0  0  0  0
  140.9810   74.9330  220.4620 S   0  0  0  0  0  0  0  0  0  0  0  0
  140.4480   71.2420  224.2280 C   0  0  0  0  0  0  0  0  0  0  0  0
  140.7160   72.0360  225.3230 C   0  0  0  0  0  0  0  0  0  0  0  0
  140.5890   71.4260  226.5740 C   0  0  0  0  0  0  0  0  0  0  0  0
  140.2200   70.1040  226.7090 C   0  0  0  0  0  0  0  0  0  0  0  0
  140.0850   69.4710  227.9250 C   0  0  0  0  0  0  0  0  0  0  0  0
  139.7080   68.1360  227.9800 C   0  0  0  0  0  0  0  0  0  0  0  0
  139.4560   67.3970  226.8320 C   0  0  0  0  0  0  0  0  0  0  0  0
  139.5900   68.0300  225.6120 C   0  0  0  0  0  0  0  0  0  0  0  0
  139.9640   69.3560  225.5820 C   0  0  0  0  0  0  0  0  0  0  0  0
  140.0910   69.9570  224.3970 N   0  0  0  0  0  0  0  0  0  0  0  0
  140.3890   69.9170  221.9490 H   0  0  0  0  0  0  0  0  0  0  0  0
  139.8233   70.9888  219.8000 H   0  0  0  0  0  0  0  0  0  0  0  0
  140.4966   72.5444  220.4788 H   0  0  0  0  0  0  0  0  0  0  0  0
  143.7293   71.8979  217.7908 H   0  0  0  0  0  0  0  0  0  0  0  0
  142.9475   73.4767  217.9191 H   0  0  0  0  0  0  0  0  0  0  0  0
  144.9551   74.3715  218.7040 H   0  0  0  0  0  0  0  0  0  0  0  0
  145.7340   72.5250  217.4640 H   0  0  0  0  0  0  0  0  0  0  0  0
  145.2230   72.1581  220.7805 H   0  0  0  0  0  0  0  0  0  0  0  0
  145.3490   73.8707  221.0543 H   0  0  0  0  0  0  0  0  0  0  0  0
  142.9515   72.8862  221.7487 H   0  0  0  0  0  0  0  0  0  0  0  0
  143.2726   77.5651  219.4719 H   0  0  0  0  0  0  0  0  0  0  0  0
  140.6243   77.5237  219.7584 H   0  0  0  0  0  0  0  0  0  0  0  0
  141.0130   73.0899  225.2179 H   0  0  0  0  0  0  0  0  0  0  0  0
  140.7895   72.0185  227.4788 H   0  0  0  0  0  0  0  0  0  0  0  0
  140.2766   70.0252  228.8557 H   0  0  0  0  0  0  0  0  0  0  0  0
  139.6060   67.6497  228.9614 H   0  0  0  0  0  0  0  0  0  0  0  0
  139.1587   66.3397  226.8924 H   0  0  0  0  0  0  0  0  0  0  0  0
  139.4007   67.4830  224.6766 H   0  0  0  0  0  0  0  0  0  0  0  0
  1  2  2  0
  2  3  1  0
  3  4  1  0
  4  5  1  0
  5  6  2  0
  5  7  1  0
  7  8  1  0
  8  9  1  0
  9 10  1  0
  9 11  1  0
 11 12  1  0
 12 13  1  0
 13 14  2  0
 14 15  1  0
 15 16  2  0
 16 17  1  0
  2 18  1  0
 18 19  2  0
 19 20  1  0
 20 21  2  0
 21 22  1  0
 22 23  2  0
 23 24  1  0
 24 25  2  0
 25 26  1  0
 26 27  2  0
 12  7  1  0
 17 13  1  0
 27 18  1  0
 26 21  1  0
  3 28  1  0
  4 29  1  0
  4 30  1  0
  8 31  1  0
  8 32  1  0
  9 33  1  1
 10 34  1  0
 11 35  1  0
 11 36  1  0
 12 37  1  1
 15 38  1  0
 16 39  1  0
 19 40  1  0
 20 41  1  0
 22 42  1  0
 23 43  1  0
 24 44  1  0
 25 45  1  0
M  END
>  <smiles>  (44) 
O=C(NCC(=O)N1C[C@H](O)C[C@H]1c1nccs1)c1ccc2ccccc2n1

>  <score_type>  (44) 
oracle

>  <origin>  (44) 
autodockgpu

>  <m_score__min__energy>  (44) 
-7.9100000000000001

>  <m_primary>  (44) 
energy

>  <rmsd>  (44) 
4.295547840008643

>  <m_score__min__rmsd>  (44) 
4.295547840008643

>  <meeko>  (44) 
{"free_energy": -6.87, "intermolecular_energy": -8.66, "internal_energy": -1.76, "cluster_size": 2, "cluster_id": 4, "rank_in_cluster": 2}

>  <energy>  (44) 
-7.53

>  <cluster_rmsd>  (44) 
0.0

>  <cluster>  (44) 
6

$$$$

     RDKit          3D

 45 48  0  0  0  0  0  0  0  0999 V2000
  140.6950   71.3240  221.2440 O   0  0  0  0  0  0  0  0  0  0  0  0
  140.2760   71.9390  222.2670 C   0  0  0  0  0  0  0  0  0  0  0  0
  139.9050   73.3100  222.1910 N   0  0  0  0  0  0  0  0  0  0  0  0
  139.9980   74.0290  220.9510 C   0  0  0  0  0  0  0  0  0  0  0  0
  140.8390   75.2320  221.0350 C   0  0  0  0  0  0  0  0  0  0  0  0
  142.0410   75.1660  220.6600 O   0  0  0  0  0  0  0  0  0  0  0  0
  140.2470   76.4230  221.5410 N   0  0  0  0  0  0  0  0  0  0  0  0
  139.2700   76.5570  222.6280 C   0  0  0  0  0  0  0  0  0  0  0  0
  138.4550   77.7810  222.2830 C   0  0  2  0  0  0  0  0  0  0  0  0
  137.0960   77.4650  222.1460 O   0  0  0  0  0  0  0  0  0  0  0  0
  139.0380   78.2710  220.9760 C   0  0  0  0  0  0  0  0  0  0  0  0
  140.4790   77.7780  221.0910 C   0  0  1  0  0  0  0  0  0  0  0  0
  141.1030   78.5070  222.2110 C   0  0  0  0  0  0  0  0  0  0  0  0
  141.4300   78.2770  223.3270 N   0  0  0  0  0  0  0  0  0  0  0  0
  141.9880   79.0580  224.2170 C   0  0  0  0  0  0  0  0  0  0  0  0
  142.2360   80.3490  223.7980 C   0  0  0  0  0  0  0  0  0  0  0  0
  141.5940   80.3060  222.0360 S   0  0  0  0  0  0  0  0  0  0  0  0
  140.1680   71.2360  223.5550 C   0  0  0  0  0  0  0  0  0  0  0  0
  139.5740   69.9930  223.6060 C   0  0  0  0  0  0  0  0  0  0  0  0
  139.5090   69.3900  224.8660 C   0  0  0  0  0  0  0  0  0  0  0  0
  140.0090   70.0030  225.9950 C   0  0  0  0  0  0  0  0  0  0  0  0
  139.9630   69.4390  227.2520 C   0  0  0  0  0  0  0  0  0  0  0  0
  140.4880   70.1180  228.3420 C   0  0  0  0  0  0  0  0  0  0  0  0
  141.0720   71.3720  228.2150 C   0  0  0  0  0  0  0  0  0  0  0  0
  141.1200   71.9380  226.9570 C   0  0  0  0  0  0  0  0  0  0  0  0
  140.5920   71.2450  225.8880 C   0  0  0  0  0  0  0  0  0  0  0  0
  140.6440   71.8030  224.6770 N   0  0  0  0  0  0  0  0  0  0  0  0
  139.5670   73.7580  223.0720 H   0  0  0  0  0  0  0  0  0  0  0  0
  140.4239   73.3583  220.1902 H   0  0  0  0  0  0  0  0  0  0  0  0
  138.9819   74.3607  220.6911 H   0  0  0  0  0  0  0  0  0  0  0  0
  138.6257   75.6669  222.6788 H   0  0  0  0  0  0  0  0  0  0  0  0
  139.7585   76.6528  223.6089 H   0  0  0  0  0  0  0  0  0  0  0  0
  138.5027   78.5464  223.0716 H   0  0  0  0  0  0  0  0  0  0  0  0
  137.0500   76.6850  221.5350 H   0  0  0  0  0  0  0  0  0  0  0  0
  138.5258   77.8216  220.1124 H   0  0  0  0  0  0  0  0  0  0  0  0
  138.9430   79.3554  220.8175 H   0  0  0  0  0  0  0  0  0  0  0  0
  141.0970   77.8866  220.1875 H   0  0  0  0  0  0  0  0  0  0  0  0
  142.2417   78.7092  225.2289 H   0  0  0  0  0  0  0  0  0  0  0  0
  142.6906   81.1838  224.3516 H   0  0  0  0  0  0  0  0  0  0  0  0
  139.1737   69.5031  222.7062 H   0  0  0  0  0  0  0  0  0  0  0  0
  139.0451   68.3970  224.9591 H   0  0  0  0  0  0  0  0  0  0  0  0
  139.5084   68.4471  227.3913 H   0  0  0  0  0  0  0  0  0  0  0  0
  140.4404   69.6495  229.3361 H   0  0  0  0  0  0  0  0  0  0  0  0
  141.4833   71.8974  229.0895 H   0  0  0  0  0  0  0  0  0  0  0  0
  141.5736   72.9291  226.8090 H   0  0  0  0  0  0  0  0  0  0  0  0
  1  2  2  0
  2  3  1  0
  3  4  1  0
  4  5  1  0
  5  6  2  0
  5  7  1  0
  7  8  1  0
  8  9  1  0
  9 10  1  0
  9 11  1  0
 11 12  1  0
 12 13  1  0
 13 14  2  0
 14 15  1  0
 15 16  2  0
 16 17  1  0
  2 18  1  0
 18 19  2  0
 19 20  1  0
 20 21  2  0
 21 22  1  0
 22 23  2  0
 23 24  1  0
 24 25  2  0
 25 26  1  0
 26 27  2  0
 12  7  1  0
 17 13  1  0
 27 18  1  0
 26 21  1  0
  3 28  1  0
  4 29  1  0
  4 30  1  0
  8 31  1  0
  8 32  1  0
  9 33  1  1
 10 34  1  0
 11 35  1  0
 11 36  1  0
 12 37  1  6
 15 38  1  0
 16 39  1  0
 19 40  1  0
 20 41  1  0
 22 42  1  0
 23 43  1  0
 24 44  1  0
 25 45  1  0
M  END
>  <smiles>  (45) 
O=C(NCC(=O)N1C[C@H](O)C[C@H]1c1nccs1)c1ccc2ccccc2n1

>  <score_type>  (45) 
oracle

>  <origin>  (45) 
autodockgpu

>  <m_score__min__energy>  (45) 
-7.9100000000000001

>  <m_primary>  (45) 
energy

>  <rmsd>  (45) 
2.5034654297961128

>  <m_score__min__rmsd>  (45) 
2.5034654297961128

>  <meeko>  (45) 
{"free_energy": -7.72, "intermolecular_energy": -9.51, "internal_energy": -1.2, "cluster_size": 24, "cluster_id": 1, "rank_in_cluster": 8}

>  <energy>  (45) 
-6.06

>  <cluster_rmsd>  (45) 
1.95

>  <cluster>  (45) 
6

$$$$

     RDKit          3D

 45 48  0  0  0  0  0  0  0  0999 V2000
  140.8000   72.3210  221.7290 O   0  0  0  0  0  0  0  0  0  0  0  0
  139.8440   72.2920  222.5560 C   0  0  0  0  0  0  0  0  0  0  0  0
  138.6900   73.1030  222.3650 N   0  0  0  0  0  0  0  0  0  0  0  0
  138.5850   73.9720  221.2260 C   0  0  0  0  0  0  0  0  0  0  0  0
  138.6580   75.4000  221.5740 C   0  0  0  0  0  0  0  0  0  0  0  0
  137.6330   75.9700  222.0350 O   0  0  0  0  0  0  0  0  0  0  0  0
  139.8960   76.0710  221.3710 N   0  0  0  0  0  0  0  0  0  0  0  0
  140.7310   76.7520  222.3670 C   0  0  0  0  0  0  0  0  0  0  0  0
  141.4360   77.8530  221.6100 C   0  0  2  0  0  0  0  0  0  0  0  0
  141.1310   79.1130  222.1440 O   0  0  0  0  0  0  0  0  0  0  0  0
  140.9310   77.7230  220.1910 C   0  0  0  0  0  0  0  0  0  0  0  0
  140.6120   76.2310  220.1240 C   0  0  1  0  0  0  0  0  0  0  0  0
  141.8890   75.5040  220.2600 C   0  0  0  0  0  0  0  0  0  0  0  0
  142.2690   74.4920  220.7460 N   0  0  0  0  0  0  0  0  0  0  0  0
  143.4710   73.9760  220.7810 C   0  0  0  0  0  0  0  0  0  0  0  0
  144.4520   74.7190  220.1570 C   0  0  0  0  0  0  0  0  0  0  0  0
  143.4730   76.1950  219.5380 S   0  0  0  0  0  0  0  0  0  0  0  0
  139.9160   71.4140  223.7350 C   0  0  0  0  0  0  0  0  0  0  0  0
  139.4940   70.1040  223.6360 C   0  0  0  0  0  0  0  0  0  0  0  0
  139.5940   69.3340  224.7980 C   0  0  0  0  0  0  0  0  0  0  0  0
  140.0850   69.8520  225.9780 C   0  0  0  0  0  0  0  0  0  0  0  0
  140.1980   69.1220  227.1420 C   0  0  0  0  0  0  0  0  0  0  0  0
  140.7020   69.7140  228.2910 C   0  0  0  0  0  0  0  0  0  0  0  0
  141.1070   71.0420  228.3160 C   0  0  0  0  0  0  0  0  0  0  0  0
  140.9960   71.7740  227.1520 C   0  0  0  0  0  0  0  0  0  0  0  0
  140.4920   71.1650  226.0210 C   0  0  0  0  0  0  0  0  0  0  0  0
  140.3880   71.8840  224.9020 N   0  0  0  0  0  0  0  0  0  0  0  0
  137.9370   73.0300  223.0850 H   0  0  0  0  0  0  0  0  0  0  0  0
  139.4066   73.7393  220.5325 H   0  0  0  0  0  0  0  0  0  0  0  0
  137.5979   73.7973  220.7731 H   0  0  0  0  0  0  0  0  0  0  0  0
  140.1075   77.1739  223.1690 H   0  0  0  0  0  0  0  0  0  0  0  0
  141.4423   76.0631  222.8461 H   0  0  0  0  0  0  0  0  0  0  0  0
  142.5306   77.7628  221.6709 H   0  0  0  0  0  0  0  0  0  0  0  0
  140.2520   79.3730  221.7650 H   0  0  0  0  0  0  0  0  0  0  0  0
  140.0321   78.3351  220.0256 H   0  0  0  0  0  0  0  0  0  0  0  0
  141.6424   78.0669  219.4258 H   0  0  0  0  0  0  0  0  0  0  0  0
  140.0866   75.8921  219.2190 H   0  0  0  0  0  0  0  0  0  0  0  0
  143.6846   73.0161  221.2739 H   0  0  0  0  0  0  0  0  0  0  0  0
  145.5253   74.5029  220.0505 H   0  0  0  0  0  0  0  0  0  0  0  0
  139.1012   69.6893  222.6959 H   0  0  0  0  0  0  0  0  0  0  0  0
  139.2712   68.2828  224.7706 H   0  0  0  0  0  0  0  0  0  0  0  0
  139.8876   68.0669  227.1598 H   0  0  0  0  0  0  0  0  0  0  0  0
  140.7832   69.1138  229.2092 H   0  0  0  0  0  0  0  0  0  0  0  0
  141.5041   71.4963  229.2357 H   0  0  0  0  0  0  0  0  0  0  0  0
  141.3052   72.8293  227.1258 H   0  0  0  0  0  0  0  0  0  0  0  0
  1  2  2  0
  2  3  1  0
  3  4  1  0
  4  5  1  0
  5  6  2  0
  5  7  1  0
  7  8  1  0
  8  9  1  0
  9 10  1  0
  9 11  1  0
 11 12  1  0
 12 13  1  0
 13 14  2  0
 14 15  1  0
 15 16  2  0
 16 17  1  0
  2 18  1  0
 18 19  2  0
 19 20  1  0
 20 21  2  0
 21 22  1  0
 22 23  2  0
 23 24  1  0
 24 25  2  0
 25 26  1  0
 26 27  2  0
 12  7  1  0
 17 13  1  0
 27 18  1  0
 26 21  1  0
  3 28  1  0
  4 29  1  0
  4 30  1  0
  8 31  1  0
  8 32  1  0
  9 33  1  6
 10 34  1  0
 11 35  1  0
 11 36  1  0
 12 37  1  6
 15 38  1  0
 16 39  1  0
 19 40  1  0
 20 41  1  0
 22 42  1  0
 23 43  1  0
 24 44  1  0
 25 45  1  0
M  END
>  <smiles>  (46) 
O=C(NCC(=O)N1C[C@H](O)C[C@H]1c1nccs1)c1ccc2ccccc2n1

>  <score_type>  (46) 
oracle

>  <origin>  (46) 
autodockgpu

>  <m_score__min__energy>  (46) 
-7.9100000000000001

>  <m_primary>  (46) 
energy

>  <rmsd>  (46) 
3.1178303005818413

>  <m_score__min__rmsd>  (46) 
3.1178303005818413

>  <meeko>  (46) 
{"free_energy": -7.06, "intermolecular_energy": -8.85, "internal_energy": -1.5, "cluster_size": 11, "cluster_id": 2, "rank_in_cluster": 10}

>  <energy>  (46) 
-6.02

>  <cluster_rmsd>  (46) 
1.97

>  <cluster>  (46) 
6

$$$$

     RDKit          3D

 45 48  0  0  0  0  0  0  0  0999 V2000
  141.3140   71.8580  221.5430 O   0  0  0  0  0  0  0  0  0  0  0  0
  140.4680   72.2140  222.4140 C   0  0  0  0  0  0  0  0  0  0  0  0
  139.6870   73.3890  222.2330 N   0  0  0  0  0  0  0  0  0  0  0  0
  139.8400   74.1980  221.0570 C   0  0  0  0  0  0  0  0  0  0  0  0
  140.8230   75.2800  221.2170 C   0  0  0  0  0  0  0  0  0  0  0  0
  140.6440   76.1400  222.1220 O   0  0  0  0  0  0  0  0  0  0  0  0
  141.9370   75.3020  220.3330 N   0  0  0  0  0  0  0  0  0  0  0  0
  142.8800   76.4010  220.0900 C   0  0  0  0  0  0  0  0  0  0  0  0
  143.3320   76.2300  218.6590 C   0  0  2  0  0  0  0  0  0  0  0  0
  143.0220   77.3600  217.8900 O   0  0  0  0  0  0  0  0  0  0  0  0
  142.5860   75.0100  218.1670 C   0  0  0  0  0  0  0  0  0  0  0  0
  142.3930   74.2340  219.4690 C   0  0  1  0  0  0  0  0  0  0  0  0
  143.7310   73.8330  219.9420 C   0  0  0  0  0  0  0  0  0  0  0  0
  144.3490   73.8780  220.9530 N   0  0  0  0  0  0  0  0  0  0  0  0
  145.5620   73.4670  221.2150 C   0  0  0  0  0  0  0  0  0  0  0  0
  146.2330   72.8900  220.1550 C   0  0  0  0  0  0  0  0  0  0  0  0
  144.9540   73.0080  218.7890 S   0  0  0  0  0  0  0  0  0  0  0  0
  140.2840   71.4100  223.6330 C   0  0  0  0  0  0  0  0  0  0  0  0
  139.6580   70.1840  223.5530 C   0  0  0  0  0  0  0  0  0  0  0  0
  139.5210   69.4810  224.7530 C   0  0  0  0  0  0  0  0  0  0  0  0
  139.9830   69.9840  225.9510 C   0  0  0  0  0  0  0  0  0  0  0  0
  139.8650   69.3190  227.1530 C   0  0  0  0  0  0  0  0  0  0  0  0
  140.3560   69.8900  228.3180 C   0  0  0  0  0  0  0  0  0  0  0  0
  140.9760   71.1330  228.3230 C   0  0  0  0  0  0  0  0  0  0  0  0
  141.0950   71.8000  227.1200 C   0  0  0  0  0  0  0  0  0  0  0  0
  140.6000   71.2130  225.9750 C   0  0  0  0  0  0  0  0  0  0  0  0
  140.7220   71.8680  224.8190 N   0  0  0  0  0  0  0  0  0  0  0  0
  139.0070   73.6260  222.9900 H   0  0  0  0  0  0  0  0  0  0  0  0
  140.1649   73.5513  220.2286 H   0  0  0  0  0  0  0  0  0  0  0  0
  138.8665   74.6701  220.8584 H   0  0  0  0  0  0  0  0  0  0  0  0
  142.3818   77.3726  220.2231 H   0  0  0  0  0  0  0  0  0  0  0  0
  143.7261   76.3780  220.7926 H   0  0  0  0  0  0  0  0  0  0  0  0
  144.4224   76.1087  218.5800 H   0  0  0  0  0  0  0  0  0  0  0  0
  143.3820   78.1420  218.3820 H   0  0  0  0  0  0  0  0  0  0  0  0
  141.6216   75.2830  217.7138 H   0  0  0  0  0  0  0  0  0  0  0  0
  143.1100   74.4477  217.3801 H   0  0  0  0  0  0  0  0  0  0  0  0
  141.7408   73.3502  219.4095 H   0  0  0  0  0  0  0  0  0  0  0  0
  146.0167   73.5734  222.2109 H   0  0  0  0  0  0  0  0  0  0  0  0
  147.2497   72.4715  220.1210 H   0  0  0  0  0  0  0  0  0  0  0  0
  139.2874   69.7820  222.5985 H   0  0  0  0  0  0  0  0  0  0  0  0
  139.0298   68.4968  224.7416 H   0  0  0  0  0  0  0  0  0  0  0  0
  139.3799   68.3324  227.1883 H   0  0  0  0  0  0  0  0  0  0  0  0
  140.2512   69.3421  229.2661 H   0  0  0  0  0  0  0  0  0  0  0  0
  141.3599   71.5720  229.2557 H   0  0  0  0  0  0  0  0  0  0  0  0
  141.5785   72.7870  227.0757 H   0  0  0  0  0  0  0  0  0  0  0  0
  1  2  2  0
  2  3  1  0
  3  4  1  0
  4  5  1  0
  5  6  2  0
  5  7  1  0
  7  8  1  0
  8  9  1  0
  9 10  1  0
  9 11  1  0
 11 12  1  0
 12 13  1  0
 13 14  2  0
 14 15  1  0
 15 16  2  0
 16 17  1  0
  2 18  1  0
 18 19  2  0
 19 20  1  0
 20 21  2  0
 21 22  1  0
 22 23  2  0
 23 24  1  0
 24 25  2  0
 25 26  1  0
 26 27  2  0
 12  7  1  0
 17 13  1  0
 27 18  1  0
 26 21  1  0
  3 28  1  0
  4 29  1  0
  4 30  1  0
  8 31  1  0
  8 32  1  0
  9 33  1  1
 10 34  1  0
 11 35  1  0
 11 36  1  0
 12 37  1  6
 15 38  1  0
 16 39  1  0
 19 40  1  0
 20 41  1  0
 22 42  1  0
 23 43  1  0
 24 44  1  0
 25 45  1  0
M  END
>  <smiles>  (47) 
O=C(NCC(=O)N1C[C@H](O)C[C@H]1c1nccs1)c1ccc2ccccc2n1

>  <score_type>  (47) 
oracle

>  <origin>  (47) 
autodockgpu

>  <m_score__min__energy>  (47) 
-7.9100000000000001

>  <m_primary>  (47) 
energy

>  <rmsd>  (47) 
3.6538818031273723

>  <m_score__min__rmsd>  (47) 
3.6538818031273723

>  <meeko>  (47) 
{"free_energy": -7.86, "intermolecular_energy": -9.65, "internal_energy": -1.49, "cluster_size": 11, "cluster_id": 2, "rank_in_cluster": 3}

>  <energy>  (47) 
-6.01

>  <cluster_rmsd>  (47) 
1.98

>  <cluster>  (47) 
6

$$$$

     RDKit          3D

 45 48  0  0  0  0  0  0  0  0999 V2000
  140.9720   71.3890  221.2920 O   0  0  0  0  0  0  0  0  0  0  0  0
  140.3250   71.9610  222.2160 C   0  0  0  0  0  0  0  0  0  0  0  0
  139.7270   73.2350  222.0050 N   0  0  0  0  0  0  0  0  0  0  0  0
  139.8460   73.9020  220.7380 C   0  0  0  0  0  0  0  0  0  0  0  0
  140.5280   75.2020  220.8250 C   0  0  0  0  0  0  0  0  0  0  0  0
  140.0830   76.0740  221.6200 O   0  0  0  0  0  0  0  0  0  0  0  0
  141.6680   75.4110  220.0000 N   0  0  0  0  0  0  0  0  0  0  0  0
  142.6780   76.4720  220.1020 C   0  0  0  0  0  0  0  0  0  0  0  0
  143.1620   76.6980  218.6890 C   0  0  2  0  0  0  0  0  0  0  0  0
  142.9380   78.0200  218.2800 O   0  0  0  0  0  0  0  0  0  0  0  0
  142.3630   75.7240  217.8520 C   0  0  0  0  0  0  0  0  0  0  0  0
  142.0890   74.6160  218.8670 C   0  0  1  0  0  0  0  0  0  0  0  0
  143.3880   74.0120  219.2180 C   0  0  0  0  0  0  0  0  0  0  0  0
  144.4640   73.9130  218.7300 N   0  0  0  0  0  0  0  0  0  0  0  0
  145.5420   73.3270  219.1840 C   0  0  0  0  0  0  0  0  0  0  0  0
  145.4140   72.7310  220.4220 C   0  0  0  0  0  0  0  0  0  0  0  0
  143.6230   73.1020  220.8370 S   0  0  0  0  0  0  0  0  0  0  0  0
  140.1810   71.3090  223.5270 C   0  0  0  0  0  0  0  0  0  0  0  0
  139.5320   70.0960  223.6180 C   0  0  0  0  0  0  0  0  0  0  0  0
  139.4360   69.5410  224.8980 C   0  0  0  0  0  0  0  0  0  0  0  0
  139.9600   70.1700  226.0080 C   0  0  0  0  0  0  0  0  0  0  0  0
  139.8850   69.6530  227.2820 C   0  0  0  0  0  0  0  0  0  0  0  0
  140.4370   70.3450  228.3510 C   0  0  0  0  0  0  0  0  0  0  0  0
  141.0760   71.5660  228.1830 C   0  0  0  0  0  0  0  0  0  0  0  0
  141.1530   72.0850  226.9070 C   0  0  0  0  0  0  0  0  0  0  0  0
  140.5980   71.3800  225.8600 C   0  0  0  0  0  0  0  0  0  0  0  0
  140.6790   71.8930  224.6310 N   0  0  0  0  0  0  0  0  0  0  0  0
  139.2050   73.6510  222.8090 H   0  0  0  0  0  0  0  0  0  0  0  0
  140.4153   73.2544  220.0550 H   0  0  0  0  0  0  0  0  0  0  0  0
  138.8257   74.0939  220.3745 H   0  0  0  0  0  0  0  0  0  0  0  0
  142.2313   77.3915  220.5081 H   0  0  0  0  0  0  0  0  0  0  0  0
  143.4999   76.1925  220.7775 H   0  0  0  0  0  0  0  0  0  0  0  0
  144.2459   76.5373  218.5920 H   0  0  0  0  0  0  0  0  0  0  0  0
  143.6680   78.5640  218.6750 H   0  0  0  0  0  0  0  0  0  0  0  0
  141.4291   76.1770  217.4878 H   0  0  0  0  0  0  0  0  0  0  0  0
  142.8769   75.3844  216.9406 H   0  0  0  0  0  0  0  0  0  0  0  0
  141.3907   73.8302  218.5432 H   0  0  0  0  0  0  0  0  0  0  0  0
  146.4851   73.3105  218.6181 H   0  0  0  0  0  0  0  0  0  0  0  0
  146.1646   72.1828  221.0104 H   0  0  0  0  0  0  0  0  0  0  0  0
  139.1134   69.5932  222.7337 H   0  0  0  0  0  0  0  0  0  0  0  0
  138.9273   68.5738  225.0233 H   0  0  0  0  0  0  0  0  0  0  0  0
  139.3857   68.6879  227.4532 H   0  0  0  0  0  0  0  0  0  0  0  0
  140.3661   69.9136  229.3604 H   0  0  0  0  0  0  0  0  0  0  0  0
  141.5075   72.1030  229.0406 H   0  0  0  0  0  0  0  0  0  0  0  0
  141.6509   73.0492  226.7271 H   0  0  0  0  0  0  0  0  0  0  0  0
  1  2  2  0
  2  3  1  0
  3  4  1  0
  4  5  1  0
  5  6  2  0
  5  7  1  0
  7  8  1  0
  8  9  1  0
  9 10  1  0
  9 11  1  0
 11 12  1  0
 12 13  1  0
 13 14  2  0
 14 15  1  0
 15 16  2  0
 16 17  1  0
  2 18  1  0
 18 19  2  0
 19 20  1  0
 20 21  2  0
 21 22  1  0
 22 23  2  0
 23 24  1  0
 24 25  2  0
 25 26  1  0
 26 27  2  0
 12  7  1  0
 17 13  1  0
 27 18  1  0
 26 21  1  0
  3 28  1  0
  4 29  1  0
  4 30  1  0
  8 31  1  0
  8 32  1  0
  9 33  1  1
 10 34  1  0
 11 35  1  0
 11 36  1  0
 12 37  1  6
 15 38  1  0
 16 39  1  0
 19 40  1  0
 20 41  1  0
 22 42  1  0
 23 43  1  0
 24 44  1  0
 25 45  1  0
M  END
>  <smiles>  (48) 
O=C(NCC(=O)N1C[C@H](O)C[C@H]1c1nccs1)c1ccc2ccccc2n1

>  <score_type>  (48) 
oracle

>  <origin>  (48) 
autodockgpu

>  <m_score__min__energy>  (48) 
-7.9100000000000001

>  <m_primary>  (48) 
energy

>  <rmsd>  (48) 
3.688533536634643

>  <m_score__min__rmsd>  (48) 
3.688533536634643

>  <meeko>  (48) 
{"free_energy": -7.33, "intermolecular_energy": -9.12, "internal_energy": -1.55, "cluster_size": 11, "cluster_id": 2, "rank_in_cluster": 8}

>  <energy>  (48) 
-7.12

>  <cluster_rmsd>  (48) 
0.0

>  <cluster>  (48) 
7

$$$$

     RDKit          3D

 45 48  0  0  0  0  0  0  0  0999 V2000
  141.1560   71.9190  221.5620 O   0  0  0  0  0  0  0  0  0  0  0  0
  140.3280   72.2540  222.4580 C   0  0  0  0  0  0  0  0  0  0  0  0
  139.5260   73.4190  222.3100 N   0  0  0  0  0  0  0  0  0  0  0  0
  139.6380   74.2430  221.1390 C   0  0  0  0  0  0  0  0  0  0  0  0
  139.0130   75.5650  221.2950 C   0  0  0  0  0  0  0  0  0  0  0  0
  137.7960   75.6320  221.6180 O   0  0  0  0  0  0  0  0  0  0  0  0
  139.8210   76.7140  221.0690 N   0  0  0  0  0  0  0  0  0  0  0  0
  139.5410   77.8630  220.1990 C   0  0  0  0  0  0  0  0  0  0  0  0
  140.8930   78.3580  219.7450 C   0  0  2  0  0  0  0  0  0  0  0  0
  141.0080   78.3170  218.3490 O   0  0  0  0  0  0  0  0  0  0  0  0
  141.8820   77.4220  220.4030 C   0  0  0  0  0  0  0  0  0  0  0  0
  141.1110   77.0070  221.6550 C   0  0  1  0  0  0  0  0  0  0  0  0
  140.9470   78.2130  222.4880 C   0  0  0  0  0  0  0  0  0  0  0  0
  140.0910   78.7160  223.1360 N   0  0  0  0  0  0  0  0  0  0  0  0
  140.1060   79.8210  223.8360 C   0  0  0  0  0  0  0  0  0  0  0  0
  141.2990   80.5140  223.8210 C   0  0  0  0  0  0  0  0  0  0  0  0
  142.3560   79.4240  222.7200 S   0  0  0  0  0  0  0  0  0  0  0  0
  140.1860   71.4340  223.6720 C   0  0  0  0  0  0  0  0  0  0  0  0
  139.5690   70.2030  223.5960 C   0  0  0  0  0  0  0  0  0  0  0  0
  139.4720   69.4850  224.7910 C   0  0  0  0  0  0  0  0  0  0  0  0
  139.9640   69.9780  225.9810 C   0  0  0  0  0  0  0  0  0  0  0  0
  139.8860   69.2980  227.1770 C   0  0  0  0  0  0  0  0  0  0  0  0
  140.4060   69.8600  228.3350 C   0  0  0  0  0  0  0  0  0  0  0  0
  141.0140   71.1090  228.3370 C   0  0  0  0  0  0  0  0  0  0  0  0
  141.0930   71.7900  227.1390 C   0  0  0  0  0  0  0  0  0  0  0  0
  140.5710   71.2130  226.0020 C   0  0  0  0  0  0  0  0  0  0  0  0
  140.6530   71.8820  224.8500 N   0  0  0  0  0  0  0  0  0  0  0  0
  138.8630   73.6380  223.0870 H   0  0  0  0  0  0  0  0  0  0  0  0
  140.7051   74.3859  220.9136 H   0  0  0  0  0  0  0  0  0  0  0  0
  139.1076   73.7263  220.3256 H   0  0  0  0  0  0  0  0  0  0  0  0
  138.9341   77.5534  219.3354 H   0  0  0  0  0  0  0  0  0  0  0  0
  138.9728   78.6454  220.7233 H   0  0  0  0  0  0  0  0  0  0  0  0
  141.0646   79.4078  220.0250 H   0  0  0  0  0  0  0  0  0  0  0  0
  140.8000   77.3850  218.0770 H   0  0  0  0  0  0  0  0  0  0  0  0
  142.1056   76.5565  219.7620 H   0  0  0  0  0  0  0  0  0  0  0  0
  142.8640   77.8738  220.6069 H   0  0  0  0  0  0  0  0  0  0  0  0
  141.5630   76.2024  222.2536 H   0  0  0  0  0  0  0  0  0  0  0  0
  139.2283   80.1733  224.3977 H   0  0  0  0  0  0  0  0  0  0  0  0
  141.5611   81.4572  224.3226 H   0  0  0  0  0  0  0  0  0  0  0  0
  139.1752   69.8083  222.6478 H   0  0  0  0  0  0  0  0  0  0  0  0
  138.9887   68.4969  224.7820 H   0  0  0  0  0  0  0  0  0  0  0  0
  139.4103   68.3069  227.2143 H   0  0  0  0  0  0  0  0  0  0  0  0
  140.3345   69.2997  229.2789 H   0  0  0  0  0  0  0  0  0  0  0  0
  141.4195   71.5415  229.2636 H   0  0  0  0  0  0  0  0  0  0  0  0
  141.5671   72.7815  227.0926 H   0  0  0  0  0  0  0  0  0  0  0  0
  1  2  2  0
  2  3  1  0
  3  4  1  0
  4  5  1  0
  5  6  2  0
  5  7  1  0
  7  8  1  0
  8  9  1  0
  9 10  1  0
  9 11  1  0
 11 12  1  0
 12 13  1  0
 13 14  2  0
 14 15  1  0
 15 16  2  0
 16 17  1  0
  2 18  1  0
 18 19  2  0
 19 20  1  0
 20 21  2  0
 21 22  1  0
 22 23  2  0
 23 24  1  0
 24 25  2  0
 25 26  1  0
 26 27  2  0
 12  7  1  0
 17 13  1  0
 27 18  1  0
 26 21  1  0
  3 28  1  0
  4 29  1  0
  4 30  1  0
  8 31  1  0
  8 32  1  0
  9 33  1  1
 10 34  1  0
 11 35  1  0
 11 36  1  0
 12 37  1  1
 15 38  1  0
 16 39  1  0
 19 40  1  0
 20 41  1  0
 22 42  1  0
 23 43  1  0
 24 44  1  0
 25 45  1  0
M  END
>  <smiles>  (49) 
O=C(NCC(=O)N1C[C@H](O)C[C@H]1c1nccs1)c1ccc2ccccc2n1

>  <score_type>  (49) 
oracle

>  <origin>  (49) 
autodockgpu

>  <m_score__min__energy>  (49) 
-7.9100000000000001

>  <m_primary>  (49) 
energy

>  <rmsd>  (49) 
2.093176666466515

>  <m_score__min__rmsd>  (49) 
2.093176666466515

>  <meeko>  (49) 
{"free_energy": -7.59, "intermolecular_energy": -9.38, "internal_energy": -1.3, "cluster_size": 24, "cluster_id": 1, "rank_in_cluster": 19}

>  <energy>  (49) 
-6.98

>  <cluster_rmsd>  (49) 
0.35

>  <cluster>  (49) 
7

$$$$

     RDKit          3D

 45 48  0  0  0  0  0  0  0  0999 V2000
  138.6170   75.5900  221.6470 O   0  0  0  0  0  0  0  0  0  0  0  0
  139.8030   75.9810  221.8470 C   0  0  0  0  0  0  0  0  0  0  0  0
  140.9070   75.1260  221.5750 N   0  0  0  0  0  0  0  0  0  0  0  0
  140.7000   73.7990  221.0650 C   0  0  0  0  0  0  0  0  0  0  0  0
  141.9130   72.9670  221.0960 C   0  0  0  0  0  0  0  0  0  0  0  0
  141.9110   71.9090  221.7830 O   0  0  0  0  0  0  0  0  0  0  0  0
  143.0370   73.4020  220.3410 N   0  0  0  0  0  0  0  0  0  0  0  0
  143.7310   72.6930  219.2590 C   0  0  0  0  0  0  0  0  0  0  0  0
  145.1640   73.1660  219.3270 C   0  0  2  0  0  0  0  0  0  0  0  0
  146.0430   72.0960  219.5440 O   0  0  0  0  0  0  0  0  0  0  0  0
  145.1890   74.1380  220.4860 C   0  0  0  0  0  0  0  0  0  0  0  0
  143.7510   74.6530  220.4720 C   0  0  1  0  0  0  0  0  0  0  0  0
  143.5640   75.3960  219.2110 C   0  0  0  0  0  0  0  0  0  0  0  0
  143.8110   75.2400  218.0620 N   0  0  0  0  0  0  0  0  0  0  0  0
  143.5720   76.0180  217.0380 C   0  0  0  0  0  0  0  0  0  0  0  0
  142.9340   77.2050  217.3340 C   0  0  0  0  0  0  0  0  0  0  0  0
  142.7290   77.0710  219.1940 S   0  0  0  0  0  0  0  0  0  0  0  0
  140.0550   77.3340  222.3690 C   0  0  0  0  0  0  0  0  0  0  0  0
  138.9920   78.1280  222.7440 C   0  0  0  0  0  0  0  0  0  0  0  0
  139.3130   79.4000  223.2290 C   0  0  0  0  0  0  0  0  0  0  0  0
  140.6170   79.8370  223.3260 C   0  0  0  0  0  0  0  0  0  0  0  0
  140.9690   81.0830  223.7990 C   0  0  0  0  0  0  0  0  0  0  0  0
  142.3050   81.4520  223.8680 C   0  0  0  0  0  0  0  0  0  0  0  0
  143.3240   80.5960  223.4690 C   0  0  0  0  0  0  0  0  0  0  0  0
  142.9730   79.3480  222.9960 C   0  0  0  0  0  0  0  0  0  0  0  0
  141.6400   79.0030  222.9370 C   0  0  0  0  0  0  0  0  0  0  0  0
  141.3130   77.7940  222.4770 N   0  0  0  0  0  0  0  0  0  0  0  0
  141.8600   75.5110  221.7610 H   0  0  0  0  0  0  0  0  0  0  0  0
  139.9249   73.3087  221.6723 H   0  0  0  0  0  0  0  0  0  0  0  0
  140.4004   73.8984  220.0113 H   0  0  0  0  0  0  0  0  0  0  0  0
  143.6766   71.6054  219.4141 H   0  0  0  0  0  0  0  0  0  0  0  0
  143.2778   72.8978  218.2779 H   0  0  0  0  0  0  0  0  0  0  0  0
  145.4916   73.6322  218.3861 H   0  0  0  0  0  0  0  0  0  0  0  0
  145.9320   71.8290  220.4930 H   0  0  0  0  0  0  0  0  0  0  0  0
  145.4263   73.6306  221.4327 H   0  0  0  0  0  0  0  0  0  0  0  0
  145.9517   74.9258  220.3983 H   0  0  0  0  0  0  0  0  0  0  0  0
  143.4595   75.2874  221.3221 H   0  0  0  0  0  0  0  0  0  0  0  0
  143.8597   75.7448  216.0120 H   0  0  0  0  0  0  0  0  0  0  0  0
  142.6266   78.0162  216.6576 H   0  0  0  0  0  0  0  0  0  0  0  0
  137.9511   77.7809  222.6662 H   0  0  0  0  0  0  0  0  0  0  0  0
  138.5005   80.0720  223.5425 H   0  0  0  0  0  0  0  0  0  0  0  0
  140.1884   81.7871  224.1228 H   0  0  0  0  0  0  0  0  0  0  0  0
  142.5646   82.4506  224.2494 H   0  0  0  0  0  0  0  0  0  0  0  0
  144.3784   80.9037  223.5283 H   0  0  0  0  0  0  0  0  0  0  0  0
  143.7472   78.6377  222.6703 H   0  0  0  0  0  0  0  0  0  0  0  0
  1  2  2  0
  2  3  1  0
  3  4  1  0
  4  5  1  0
  5  6  2  0
  5  7  1  0
  7  8  1  0
  8  9  1  0
  9 10  1  0
  9 11  1  0
 11 12  1  0
 12 13  1  0
 13 14  2  0
 14 15  1  0
 15 16  2  0
 16 17  1  0
  2 18  1  0
 18 19  2  0
 19 20  1  0
 20 21  2  0
 21 22  1  0
 22 23  2  0
 23 24  1  0
 24 25  2  0
 25 26  1  0
 26 27  2  0
 12  7  1  0
 17 13  1  0
 27 18  1  0
 26 21  1  0
  3 28  1  0
  4 29  1  0
  4 30  1  0
  8 31  1  0
  8 32  1  0
  9 33  1  6
 10 34  1  0
 11 35  1  0
 11 36  1  0
 12 37  1  1
 15 38  1  0
 16 39  1  0
 19 40  1  0
 20 41  1  0
 22 42  1  0
 23 43  1  0
 24 44  1  0
 25 45  1  0
M  END
>  <smiles>  (50) 
O=C(NCC(=O)N1C[C@H](O)C[C@H]1c1nccs1)c1ccc2ccccc2n1

>  <score_type>  (50) 
oracle

>  <origin>  (50) 
autodockgpu

>  <m_score__min__energy>  (50) 
-7.9100000000000001

>  <m_primary>  (50) 
energy

>  <rmsd>  (50) 
7.598463298822506

>  <m_score__min__rmsd>  (50) 
7.598463298822506

>  <meeko>  (50) 
{"free_energy": -7.53, "intermolecular_energy": -9.32, "internal_energy": -1.69, "cluster_size": 4, "cluster_id": 6, "rank_in_cluster": 1}

>  <energy>  (50) 
-6.86

>  <cluster_rmsd>  (50) 
1.88

>  <cluster>  (50) 
7

$$$$
