
     RDKit          3D

 49 52  0  0  0  0  0  0  0  0999 V2000
  139.9370   71.8140  221.0360 O   0  0  0  0  0  0  0  0  0  0  0  0
  139.8200   72.3100  222.1910 C   0  0  0  0  0  0  0  0  0  0  0  0
  139.6470   73.7000  222.3550 N   0  0  0  0  0  0  0  0  0  0  0  0
  139.6020   74.5570  221.2140 C   0  0  0  0  0  0  0  0  0  0  0  0
  140.8450   75.3120  220.9910 C   0  0  0  0  0  0  0  0  0  0  0  0
  142.0000   74.8200  221.0260 O   0  0  0  0  0  0  0  0  0  0  0  0
  140.7450   76.7040  220.7110 N   0  0  0  0  0  0  0  0  0  0  0  0
  139.4960   77.4480  220.5380 C   0  0  0  0  0  0  0  0  0  0  0  0
  139.9010   78.5830  219.6200 C   0  0  2  0  0  0  0  0  0  0  0  0
  139.0660   78.6000  218.4860 O   0  0  0  0  0  0  0  0  0  0  0  0
  141.3430   78.3000  219.2320 C   0  0  0  0  0  0  0  0  0  0  0  0
  141.8370   77.6670  220.5400 C   0  0  1  0  0  0  0  0  0  0  0  0
  141.7600   78.5970  221.6780 C   0  0  0  0  0  0  0  0  0  0  0  0
  141.9980   79.9540  221.5200 C   0  0  0  0  0  0  0  0  0  0  0  0
  141.9300   80.8430  222.5770 C   0  0  0  0  0  0  0  0  0  0  0  0
  141.6100   80.3900  223.8600 C   0  0  0  0  0  0  0  0  0  0  0  0
  141.3760   79.0560  224.0120 C   0  0  0  0  0  0  0  0  0  0  0  0
  141.4470   78.1730  222.9520 C   0  0  0  0  0  0  0  0  0  0  0  0
  139.8610   71.4640  223.3940 C   0  0  0  0  0  0  0  0  0  0  0  0
  139.3170   70.1870  223.3760 C   0  0  0  0  0  0  0  0  0  0  0  0
  139.3740   69.4160  224.5360 C   0  0  0  0  0  0  0  0  0  0  0  0
  139.9470   69.8690  225.6910 C   0  0  0  0  0  0  0  0  0  0  0  0
  140.0260   69.1460  226.8580 C   0  0  0  0  0  0  0  0  0  0  0  0
  140.6270   69.6810  227.9980 C   0  0  0  0  0  0  0  0  0  0  0  0
  141.1510   70.9500  227.9650 C   0  0  0  0  0  0  0  0  0  0  0  0
  141.7440   71.5100  229.0500 F   0  0  0  0  0  0  0  0  0  0  0  0
  141.0780   71.6850  226.8030 C   0  0  0  0  0  0  0  0  0  0  0  0
  140.4800   71.1590  225.6600 C   0  0  0  0  0  0  0  0  0  0  0  0
  140.4190   71.8950  224.5350 N   0  0  0  0  0  0  0  0  0  0  0  0
  139.5500   74.1140  223.3100 H   0  0  0  0  0  0  0  0  0  0  0  0
  139.4060   73.9405  220.3243 H   0  0  0  0  0  0  0  0  0  0  0  0
  138.8069   75.2946  221.3976 H   0  0  0  0  0  0  0  0  0  0  0  0
  138.7225   76.8195  220.0724 H   0  0  0  0  0  0  0  0  0  0  0  0
  139.0610   77.7923  221.4878 H   0  0  0  0  0  0  0  0  0  0  0  0
  139.8067   79.5663  220.1040 H   0  0  0  0  0  0  0  0  0  0  0  0
  139.0240   79.5250  218.1310 H   0  0  0  0  0  0  0  0  0  0  0  0
  141.4107   77.6001  218.3861 H   0  0  0  0  0  0  0  0  0  0  0  0
  141.9160   79.1741  218.8889 H   0  0  0  0  0  0  0  0  0  0  0  0
  142.8759   77.3073  220.5050 H   0  0  0  0  0  0  0  0  0  0  0  0
  142.2495   80.3363  220.5197 H   0  0  0  0  0  0  0  0  0  0  0  0
  142.1286   81.9115  222.4073 H   0  0  0  0  0  0  0  0  0  0  0  0
  141.5495   81.0823  224.7127 H   0  0  0  0  0  0  0  0  0  0  0  0
  141.1226   78.6702  225.0104 H   0  0  0  0  0  0  0  0  0  0  0  0
  141.2490   77.1055  223.1287 H   0  0  0  0  0  0  0  0  0  0  0  0
  138.8493   69.7905  222.4627 H   0  0  0  0  0  0  0  0  0  0  0  0
  138.9414   68.4048  224.5211 H   0  0  0  0  0  0  0  0  0  0  0  0
  139.6085   68.1289  226.8934 H   0  0  0  0  0  0  0  0  0  0  0  0
  140.6810   69.0869  228.9222 H   0  0  0  0  0  0  0  0  0  0  0  0
  141.4976   72.7015  226.7768 H   0  0  0  0  0  0  0  0  0  0  0  0
  1  2  2  0
  2  3  1  0
  3  4  1  0
  4  5  1  0
  5  6  2  0
  5  7  1  0
  7  8  1  0
  8  9  1  0
  9 10  1  0
  9 11  1  0
 11 12  1  0
 12 13  1  0
 13 14  2  0
 14 15  1  0
 15 16  2  0
 16 17  1  0
 17 18  2  0
  2 19  1  0
 19 20  2  0
 20 21  1  0
 21 22  2  0
 22 23  1  0
 23 24  2  0
 24 25  1  0
 25 26  1  0
 25 27  2  0
 27 28  1  0
 28 29  2  0
 12  7  1  0
 18 13  1  0
 29 19  1  0
 28 22  1  0
  3 30  1  0
  4 31  1  0
  4 32  1  0
  8 33  1  0
  8 34  1  0
  9 35  1  1
 10 36  1  0
 11 37  1  0
 11 38  1  0
 12 39  1  6
 14 40  1  0
 15 41  1  0
 16 42  1  0
 17 43  1  0
 18 44  1  0
 20 45  1  0
 21 46  1  0
 23 47  1  0
 24 48  1  0
 27 49  1  0
M  END
>  <smiles>  (1) 
O=C(NCC(=O)N1C[C@H](O)C[C@H]1c1ccccc1)c1ccc2ccc(F)cc2n1

>  <score_type>  (1) 
oracle

>  <origin>  (1) 
autodockgpu

>  <m_score__min__energy>  (1) 
-8.2200000000000006

>  <m_primary>  (1) 
energy

>  <rmsd>  (1) 
1.8832151344412773

>  <m_score__min__rmsd>  (1) 
1.8832151344412773

>  <meeko>  (1) 
{"free_energy": -8.07, "intermolecular_energy": -9.86, "internal_energy": -1.28, "cluster_size": 31, "cluster_id": 2, "rank_in_cluster": 11}

>  <energy>  (1) 
-8.22

>  <cluster_rmsd>  (1) 
0.0

>  <cluster>  (1) 
1

$$$$

     RDKit          3D

 49 52  0  0  0  0  0  0  0  0999 V2000
  138.7500   72.8210  221.4000 O   0  0  0  0  0  0  0  0  0  0  0  0
  139.7830   72.5860  222.0880 C   0  0  0  0  0  0  0  0  0  0  0  0
  141.0370   73.0880  221.6840 N   0  0  0  0  0  0  0  0  0  0  0  0
  141.1490   73.8680  220.4930 C   0  0  0  0  0  0  0  0  0  0  0  0
  141.3140   75.3080  220.7420 C   0  0  0  0  0  0  0  0  0  0  0  0
  142.3320   75.9780  220.4370 O   0  0  0  0  0  0  0  0  0  0  0  0
  140.2470   76.0070  221.3750 N   0  0  0  0  0  0  0  0  0  0  0  0
  139.5950   75.6120  222.6250 C   0  0  0  0  0  0  0  0  0  0  0  0
  138.2020   76.1860  222.4780 C   0  0  2  0  0  0  0  0  0  0  0  0
  137.2450   75.1690  222.6590 O   0  0  0  0  0  0  0  0  0  0  0  0
  138.1390   76.7500  221.0680 C   0  0  0  0  0  0  0  0  0  0  0  0
  139.5870   77.2370  220.9250 C   0  0  1  0  0  0  0  0  0  0  0  0
  139.9280   78.2790  221.9050 C   0  0  0  0  0  0  0  0  0  0  0  0
  139.0010   79.2330  222.2980 C   0  0  0  0  0  0  0  0  0  0  0  0
  139.3030   80.2200  223.2180 C   0  0  0  0  0  0  0  0  0  0  0  0
  140.5770   80.2850  223.7910 C   0  0  0  0  0  0  0  0  0  0  0  0
  141.4860   79.3460  223.4020 C   0  0  0  0  0  0  0  0  0  0  0  0
  141.1770   78.3630  222.4830 C   0  0  0  0  0  0  0  0  0  0  0  0
  139.7140   71.7870  223.3210 C   0  0  0  0  0  0  0  0  0  0  0  0
  138.9180   70.6520  223.3820 C   0  0  0  0  0  0  0  0  0  0  0  0
  138.8780   69.9200  224.5690 C   0  0  0  0  0  0  0  0  0  0  0  0
  139.5960   70.2790  225.6750 C   0  0  0  0  0  0  0  0  0  0  0  0
  139.5890   69.5910  226.8660 C   0  0  0  0  0  0  0  0  0  0  0  0
  140.3500   70.0220  227.9520 C   0  0  0  0  0  0  0  0  0  0  0  0
  141.1220   71.1520  227.8430 C   0  0  0  0  0  0  0  0  0  0  0  0
  141.8780   71.6080  228.8740 F   0  0  0  0  0  0  0  0  0  0  0  0
  141.1380   71.8520  226.6560 C   0  0  0  0  0  0  0  0  0  0  0  0
  140.3810   71.4280  225.5650 C   0  0  0  0  0  0  0  0  0  0  0  0
  140.4120   72.1260  224.4160 N   0  0  0  0  0  0  0  0  0  0  0  0
  141.8940   72.8940  222.2510 H   0  0  0  0  0  0  0  0  0  0  0  0
  142.0213   73.5117  219.9254 H   0  0  0  0  0  0  0  0  0  0  0  0
  140.2074   73.7438  219.9380 H   0  0  0  0  0  0  0  0  0  0  0  0
  139.5630   74.5171  222.7255 H   0  0  0  0  0  0  0  0  0  0  0  0
  140.1206   75.9732  223.5213 H   0  0  0  0  0  0  0  0  0  0  0  0
  137.9898   76.9641  223.2260 H   0  0  0  0  0  0  0  0  0  0  0  0
  137.7090   74.2950  222.7100 H   0  0  0  0  0  0  0  0  0  0  0  0
  137.8915   75.9756  220.3270 H   0  0  0  0  0  0  0  0  0  0  0  0
  137.3685   77.5180  220.9050 H   0  0  0  0  0  0  0  0  0  0  0  0
  139.8299   77.6521  219.9357 H   0  0  0  0  0  0  0  0  0  0  0  0
  137.9911   79.2033  221.8629 H   0  0  0  0  0  0  0  0  0  0  0  0
  138.5375   80.9576  223.5006 H   0  0  0  0  0  0  0  0  0  0  0  0
  140.8353   81.0620  224.5256 H   0  0  0  0  0  0  0  0  0  0  0  0
  142.4973   79.3725  223.8339 H   0  0  0  0  0  0  0  0  0  0  0  0
  141.9468   77.6282  222.2049 H   0  0  0  0  0  0  0  0  0  0  0  0
  138.3285   70.3348  222.5092 H   0  0  0  0  0  0  0  0  0  0  0  0
  138.2456   69.0212  224.6164 H   0  0  0  0  0  0  0  0  0  0  0  0
  138.9725   68.6852  226.9634 H   0  0  0  0  0  0  0  0  0  0  0  0
  140.3318   69.4569  228.8956 H   0  0  0  0  0  0  0  0  0  0  0  0
  141.7564   72.7575  226.5683 H   0  0  0  0  0  0  0  0  0  0  0  0
  1  2  2  0
  2  3  1  0
  3  4  1  0
  4  5  1  0
  5  6  2  0
  5  7  1  0
  7  8  1  0
  8  9  1  0
  9 10  1  0
  9 11  1  0
 11 12  1  0
 12 13  1  0
 13 14  2  0
 14 15  1  0
 15 16  2  0
 16 17  1  0
 17 18  2  0
  2 19  1  0
 19 20  2  0
 20 21  1  0
 21 22  2  0
 22 23  1  0
 23 24  2  0
 24 25  1  0
 25 26  1  0
 25 27  2  0
 27 28  1  0
 28 29  2  0
 12  7  1  0
 18 13  1  0
 29 19  1  0
 28 22  1  0
  3 30  1  0
  4 31  1  0
  4 32  1  0
  8 33  1  0
  8 34  1  0
  9 35  1  1
 10 36  1  0
 11 37  1  0
 11 38  1  0
 12 39  1  6
 14 40  1  0
 15 41  1  0
 16 42  1  0
 17 43  1  0
 18 44  1  0
 20 45  1  0
 21 46  1  0
 23 47  1  0
 24 48  1  0
 27 49  1  0
M  END
>  <smiles>  (2) 
O=C(NCC(=O)N1C[C@H](O)C[C@H]1c1ccccc1)c1ccc2ccc(F)cc2n1

>  <score_type>  (2) 
oracle

>  <origin>  (2) 
autodockgpu

>  <m_score__min__energy>  (2) 
-8.2200000000000006

>  <m_primary>  (2) 
energy

>  <rmsd>  (2) 
2.8934171444707957

>  <m_score__min__rmsd>  (2) 
2.8934171444707957

>  <meeko>  (2) 
{"free_energy": -7.03, "intermolecular_energy": -8.82, "internal_energy": -2.16, "cluster_size": 31, "cluster_id": 2, "rank_in_cluster": 29}

>  <energy>  (2) 
-8.22

>  <cluster_rmsd>  (2) 
0.32

>  <cluster>  (2) 
1

$$$$

     RDKit          3D

 49 52  0  0  0  0  0  0  0  0999 V2000
  139.9500   71.8440  221.0140 O   0  0  0  0  0  0  0  0  0  0  0  0
  139.8340   72.3300  222.1730 C   0  0  0  0  0  0  0  0  0  0  0  0
  139.6520   73.7180  222.3490 N   0  0  0  0  0  0  0  0  0  0  0  0
  139.5970   74.5830  221.2140 C   0  0  0  0  0  0  0  0  0  0  0  0
  140.8410   75.3320  220.9800 C   0  0  0  0  0  0  0  0  0  0  0  0
  141.9930   74.8320  220.9900 O   0  0  0  0  0  0  0  0  0  0  0  0
  140.7450   76.7280  220.7190 N   0  0  0  0  0  0  0  0  0  0  0  0
  139.4990   77.4870  220.5980 C   0  0  0  0  0  0  0  0  0  0  0  0
  139.8830   78.6270  219.6780 C   0  0  2  0  0  0  0  0  0  0  0  0
  139.0090   78.6660  218.5750 O   0  0  0  0  0  0  0  0  0  0  0  0
  141.3080   78.3340  219.2360 C   0  0  0  0  0  0  0  0  0  0  0  0
  141.8410   77.6820  220.5190 C   0  0  1  0  0  0  0  0  0  0  0  0
  141.8140   78.6000  221.6690 C   0  0  0  0  0  0  0  0  0  0  0  0
  142.1500   79.9390  221.5330 C   0  0  0  0  0  0  0  0  0  0  0  0
  142.1300   80.8160  222.6010 C   0  0  0  0  0  0  0  0  0  0  0  0
  141.7610   80.3710  223.8740 C   0  0  0  0  0  0  0  0  0  0  0  0
  141.4300   79.0540  224.0040 C   0  0  0  0  0  0  0  0  0  0  0  0
  141.4530   78.1840  222.9320 C   0  0  0  0  0  0  0  0  0  0  0  0
  139.8850   71.4760  223.3690 C   0  0  0  0  0  0  0  0  0  0  0  0
  139.3830   70.1820  223.3330 C   0  0  0  0  0  0  0  0  0  0  0  0
  139.4490   69.4020  224.4880 C   0  0  0  0  0  0  0  0  0  0  0  0
  139.9900   69.8640  225.6550 C   0  0  0  0  0  0  0  0  0  0  0  0
  140.0770   69.1340  226.8170 C   0  0  0  0  0  0  0  0  0  0  0  0
  140.6440   69.6780  227.9690 C   0  0  0  0  0  0  0  0  0  0  0  0
  141.1270   70.9630  227.9550 C   0  0  0  0  0  0  0  0  0  0  0  0
  141.6860   71.5320  229.0530 F   0  0  0  0  0  0  0  0  0  0  0  0
  141.0460   71.7060  226.7980 C   0  0  0  0  0  0  0  0  0  0  0  0
  140.4810   71.1710  225.6410 C   0  0  0  0  0  0  0  0  0  0  0  0
  140.4130   71.9140  224.5230 N   0  0  0  0  0  0  0  0  0  0  0  0
  139.5560   74.1230  223.3070 H   0  0  0  0  0  0  0  0  0  0  0  0
  139.3858   73.9736  220.3229 H   0  0  0  0  0  0  0  0  0  0  0  0
  138.8085   75.3238  221.4126 H   0  0  0  0  0  0  0  0  0  0  0  0
  138.7026   76.8716  220.1540 H   0  0  0  0  0  0  0  0  0  0  0  0
  139.1020   77.8260  221.5662 H   0  0  0  0  0  0  0  0  0  0  0  0
  139.8160   79.6057  220.1757 H   0  0  0  0  0  0  0  0  0  0  0  0
  138.8640   79.6100  218.3110 H   0  0  0  0  0  0  0  0  0  0  0  0
  141.3387   77.6427  218.3809 H   0  0  0  0  0  0  0  0  0  0  0  0
  141.8775   79.2060  218.8820 H   0  0  0  0  0  0  0  0  0  0  0  0
  142.8742   77.3123  220.4431 H   0  0  0  0  0  0  0  0  0  0  0  0
  142.4422   80.3155  220.5416 H   0  0  0  0  0  0  0  0  0  0  0  0
  142.4059   81.8699  222.4486 H   0  0  0  0  0  0  0  0  0  0  0  0
  141.7385   81.0548  224.7354 H   0  0  0  0  0  0  0  0  0  0  0  0
  141.1357   78.6734  224.9932 H   0  0  0  0  0  0  0  0  0  0  0  0
  141.1759   77.1313  223.0904 H   0  0  0  0  0  0  0  0  0  0  0  0
  138.9409   69.7788  222.4100 H   0  0  0  0  0  0  0  0  0  0  0  0
  139.0508   68.3770  224.4582 H   0  0  0  0  0  0  0  0  0  0  0  0
  139.6928   68.1035  226.8382 H   0  0  0  0  0  0  0  0  0  0  0  0
  140.7042   69.0776  228.8887 H   0  0  0  0  0  0  0  0  0  0  0  0
  141.4325   72.7358  226.7866 H   0  0  0  0  0  0  0  0  0  0  0  0
  1  2  2  0
  2  3  1  0
  3  4  1  0
  4  5  1  0
  5  6  2  0
  5  7  1  0
  7  8  1  0
  8  9  1  0
  9 10  1  0
  9 11  1  0
 11 12  1  0
 12 13  1  0
 13 14  2  0
 14 15  1  0
 15 16  2  0
 16 17  1  0
 17 18  2  0
  2 19  1  0
 19 20  2  0
 20 21  1  0
 21 22  2  0
 22 23  1  0
 23 24  2  0
 24 25  1  0
 25 26  1  0
 25 27  2  0
 27 28  1  0
 28 29  2  0
 12  7  1  0
 18 13  1  0
 29 19  1  0
 28 22  1  0
  3 30  1  0
  4 31  1  0
  4 32  1  0
  8 33  1  0
  8 34  1  0
  9 35  1  1
 10 36  1  0
 11 37  1  0
 11 38  1  0
 12 39  1  6
 14 40  1  0
 15 41  1  0
 16 42  1  0
 17 43  1  0
 18 44  1  0
 20 45  1  0
 21 46  1  0
 23 47  1  0
 24 48  1  0
 27 49  1  0
M  END
>  <smiles>  (3) 
O=C(NCC(=O)N1C[C@H](O)C[C@H]1c1ccccc1)c1ccc2ccc(F)cc2n1

>  <score_type>  (3) 
oracle

>  <origin>  (3) 
autodockgpu

>  <m_score__min__energy>  (3) 
-8.2200000000000006

>  <m_primary>  (3) 
energy

>  <rmsd>  (3) 
1.9096567685613461

>  <m_score__min__rmsd>  (3) 
1.9096567685613461

>  <meeko>  (3) 
{"free_energy": -8.09, "intermolecular_energy": -9.88, "internal_energy": -1.29, "cluster_size": 31, "cluster_id": 2, "rank_in_cluster": 6}

>  <energy>  (3) 
-7.89

>  <cluster_rmsd>  (3) 
1.23

>  <cluster>  (3) 
1

$$$$

     RDKit          3D

 49 52  0  0  0  0  0  0  0  0999 V2000
  141.5260   72.5080  221.5530 O   0  0  0  0  0  0  0  0  0  0  0  0
  140.5410   72.5750  222.3410 C   0  0  0  0  0  0  0  0  0  0  0  0
  139.7240   73.7240  222.3630 N   0  0  0  0  0  0  0  0  0  0  0  0
  140.0040   74.8210  221.4930 C   0  0  0  0  0  0  0  0  0  0  0  0
  139.1490   75.9950  221.7260 C   0  0  0  0  0  0  0  0  0  0  0  0
  138.0220   75.9650  222.2790 O   0  0  0  0  0  0  0  0  0  0  0  0
  139.6240   77.2670  221.2980 N   0  0  0  0  0  0  0  0  0  0  0  0
  138.8170   78.4840  221.1880 C   0  0  0  0  0  0  0  0  0  0  0  0
  139.5240   79.2650  220.1010 C   0  0  2  0  0  0  0  0  0  0  0  0
  138.6130   79.5970  219.0810 O   0  0  0  0  0  0  0  0  0  0  0  0
  140.6150   78.3430  219.5800 C   0  0  0  0  0  0  0  0  0  0  0  0
  140.9850   77.6250  220.8850 C   0  0  1  0  0  0  0  0  0  0  0  0
  141.5050   78.5490  221.9050 C   0  0  0  0  0  0  0  0  0  0  0  0
  142.1840   79.7060  221.5550 C   0  0  0  0  0  0  0  0  0  0  0  0
  142.6790   80.5860  222.5000 C   0  0  0  0  0  0  0  0  0  0  0  0
  142.5040   80.3300  223.8630 C   0  0  0  0  0  0  0  0  0  0  0  0
  141.8360   79.1910  224.2040 C   0  0  0  0  0  0  0  0  0  0  0  0
  141.3440   78.3170  223.2550 C   0  0  0  0  0  0  0  0  0  0  0  0
  140.2160   71.4690  223.2550 C   0  0  0  0  0  0  0  0  0  0  0  0
  139.3430   70.4650  222.8610 C   0  0  0  0  0  0  0  0  0  0  0  0
  139.0580   69.4330  223.7560 C   0  0  0  0  0  0  0  0  0  0  0  0
  139.6080   69.3730  225.0060 C   0  0  0  0  0  0  0  0  0  0  0  0
  139.3580   68.3770  225.9210 C   0  0  0  0  0  0  0  0  0  0  0  0
  139.9590   68.3880  227.1790 C   0  0  0  0  0  0  0  0  0  0  0  0
  140.8160   69.4040  227.5210 C   0  0  0  0  0  0  0  0  0  0  0  0
  141.4230   69.4540  228.7340 F   0  0  0  0  0  0  0  0  0  0  0  0
  141.0760   70.4080  226.6150 C   0  0  0  0  0  0  0  0  0  0  0  0
  140.4800   70.4060  225.3550 C   0  0  0  0  0  0  0  0  0  0  0  0
  140.7470   71.3960  224.4850 N   0  0  0  0  0  0  0  0  0  0  0  0
  138.9080   73.7830  223.0140 H   0  0  0  0  0  0  0  0  0  0  0  0
  141.0523   75.1207  221.6387 H   0  0  0  0  0  0  0  0  0  0  0  0
  139.8039   74.4766  220.4676 H   0  0  0  0  0  0  0  0  0  0  0  0
  137.7831   78.2476  220.8961 H   0  0  0  0  0  0  0  0  0  0  0  0
  138.7354   79.0368  222.1355 H   0  0  0  0  0  0  0  0  0  0  0  0
  139.9469   80.2097  220.4733 H   0  0  0  0  0  0  0  0  0  0  0  0
  138.0360   80.3400  219.3920 H   0  0  0  0  0  0  0  0  0  0  0  0
  140.2337   77.6440  218.8210 H   0  0  0  0  0  0  0  0  0  0  0  0
  141.4495   78.8467  219.0701 H   0  0  0  0  0  0  0  0  0  0  0  0
  141.7416   76.8349  220.7694 H   0  0  0  0  0  0  0  0  0  0  0  0
  142.3342   79.9318  220.4889 H   0  0  0  0  0  0  0  0  0  0  0  0
  143.2131   81.4919  222.1775 H   0  0  0  0  0  0  0  0  0  0  0  0
  142.8893   81.0190  224.6291 H   0  0  0  0  0  0  0  0  0  0  0  0
  141.6843   78.9612  225.2690 H   0  0  0  0  0  0  0  0  0  0  0  0
  140.8103   77.4131  223.5839 H   0  0  0  0  0  0  0  0  0  0  0  0
  138.8840   70.4823  221.8615 H   0  0  0  0  0  0  0  0  0  0  0  0
  138.3648   68.6380  223.4439 H   0  0  0  0  0  0  0  0  0  0  0  0
  138.6727   67.5584  225.6559 H   0  0  0  0  0  0  0  0  0  0  0  0
  139.7463   67.5825  227.8973 H   0  0  0  0  0  0  0  0  0  0  0  0
  141.7630   71.2221  226.8893 H   0  0  0  0  0  0  0  0  0  0  0  0
  1  2  2  0
  2  3  1  0
  3  4  1  0
  4  5  1  0
  5  6  2  0
  5  7  1  0
  7  8  1  0
  8  9  1  0
  9 10  1  0
  9 11  1  0
 11 12  1  0
 12 13  1  0
 13 14  2  0
 14 15  1  0
 15 16  2  0
 16 17  1  0
 17 18  2  0
  2 19  1  0
 19 20  2  0
 20 21  1  0
 21 22  2  0
 22 23  1  0
 23 24  2  0
 24 25  1  0
 25 26  1  0
 25 27  2  0
 27 28  1  0
 28 29  2  0
 12  7  1  0
 18 13  1  0
 29 19  1  0
 28 22  1  0
  3 30  1  0
  4 31  1  0
  4 32  1  0
  8 33  1  0
  8 34  1  0
  9 35  1  1
 10 36  1  0
 11 37  1  0
 11 38  1  0
 12 39  1  6
 14 40  1  0
 15 41  1  0
 16 42  1  0
 17 43  1  0
 18 44  1  0
 20 45  1  0
 21 46  1  0
 23 47  1  0
 24 48  1  0
 27 49  1  0
M  END
>  <smiles>  (4) 
O=C(NCC(=O)N1C[C@H](O)C[C@H]1c1ccccc1)c1ccc2ccc(F)cc2n1

>  <score_type>  (4) 
oracle

>  <origin>  (4) 
autodockgpu

>  <m_score__min__energy>  (4) 
-8.2200000000000006

>  <m_primary>  (4) 
energy

>  <rmsd>  (4) 
2.4641308489065543

>  <m_score__min__rmsd>  (4) 
2.4641308489065543

>  <meeko>  (4) 
{"free_energy": -7.92, "intermolecular_energy": -9.71, "internal_energy": -1.35, "cluster_size": 31, "cluster_id": 2, "rank_in_cluster": 21}

>  <energy>  (4) 
-7.77

>  <cluster_rmsd>  (4) 
1.04

>  <cluster>  (4) 
1

$$$$

     RDKit          3D

 49 52  0  0  0  0  0  0  0  0999 V2000
  139.5880   74.0490  219.6890 O   0  0  0  0  0  0  0  0  0  0  0  0
  140.4050   73.5770  220.5290 C   0  0  0  0  0  0  0  0  0  0  0  0
  141.7630   73.9570  220.4920 N   0  0  0  0  0  0  0  0  0  0  0  0
  142.2240   74.8800  219.5050 C   0  0  0  0  0  0  0  0  0  0  0  0
  142.3290   76.2640  219.9920 C   0  0  0  0  0  0  0  0  0  0  0  0
  143.2130   77.0840  219.6400 O   0  0  0  0  0  0  0  0  0  0  0  0
  141.3630   76.7210  220.9310 N   0  0  0  0  0  0  0  0  0  0  0  0
  141.0770   76.1020  222.2270 C   0  0  0  0  0  0  0  0  0  0  0  0
  139.6280   76.4690  222.4680 C   0  0  2  0  0  0  0  0  0  0  0  0
  138.8750   75.3040  222.7120 O   0  0  0  0  0  0  0  0  0  0  0  0
  139.1650   77.1620  221.1970 C   0  0  0  0  0  0  0  0  0  0  0  0
  140.4680   77.8770  220.8100 C   0  0  1  0  0  0  0  0  0  0  0  0
  140.8970   78.8490  221.8260 C   0  0  0  0  0  0  0  0  0  0  0  0
  139.9760   79.5770  222.5650 C   0  0  0  0  0  0  0  0  0  0  0  0
  140.3610   80.4960  223.5250 C   0  0  0  0  0  0  0  0  0  0  0  0
  141.7160   80.7200  223.7840 C   0  0  0  0  0  0  0  0  0  0  0  0
  142.6190   80.0030  223.0560 C   0  0  0  0  0  0  0  0  0  0  0  0
  142.2270   79.0870  222.0990 C   0  0  0  0  0  0  0  0  0  0  0  0
  139.9740   72.6240  221.5620 C   0  0  0  0  0  0  0  0  0  0  0  0
  138.9990   71.6760  221.2840 C   0  0  0  0  0  0  0  0  0  0  0  0
  138.6170   70.7890  222.2910 C   0  0  0  0  0  0  0  0  0  0  0  0
  139.1660   70.8170  223.5410 C   0  0  0  0  0  0  0  0  0  0  0  0
  138.8220   69.9660  224.5640 C   0  0  0  0  0  0  0  0  0  0  0  0
  139.4290   70.0600  225.8160 C   0  0  0  0  0  0  0  0  0  0  0  0
  140.3890   71.0150  226.0420 C   0  0  0  0  0  0  0  0  0  0  0  0
  141.0060   71.1430  227.2450 F   0  0  0  0  0  0  0  0  0  0  0  0
  140.7440   71.8750  225.0270 C   0  0  0  0  0  0  0  0  0  0  0  0
  140.1420   71.7890  223.7730 C   0  0  0  0  0  0  0  0  0  0  0  0
  140.5030   72.6400  222.7950 N   0  0  0  0  0  0  0  0  0  0  0  0
  142.4410   73.5680  221.1860 H   0  0  0  0  0  0  0  0  0  0  0  0
  143.2182   74.5557  219.1639 H   0  0  0  0  0  0  0  0  0  0  0  0
  141.4810   74.8805  218.6938 H   0  0  0  0  0  0  0  0  0  0  0  0
  141.2059   75.0106  222.1808 H   0  0  0  0  0  0  0  0  0  0  0  0
  141.7494   76.4432  223.0279 H   0  0  0  0  0  0  0  0  0  0  0  0
  139.5026   77.1226  223.3438 H   0  0  0  0  0  0  0  0  0  0  0  0
  139.4810   74.5890  223.0350 H   0  0  0  0  0  0  0  0  0  0  0  0
  138.8484   76.4414  220.4286 H   0  0  0  0  0  0  0  0  0  0  0  0
  138.2882   77.8161  221.3128 H   0  0  0  0  0  0  0  0  0  0  0  0
  140.4183   78.4266  219.8584 H   0  0  0  0  0  0  0  0  0  0  0  0
  138.9031   79.4183  222.3815 H   0  0  0  0  0  0  0  0  0  0  0  0
  139.5969   81.0530  224.0871 H   0  0  0  0  0  0  0  0  0  0  0  0
  142.0409   81.4454  224.5444 H   0  0  0  0  0  0  0  0  0  0  0  0
  143.6929   80.1588  223.2363 H   0  0  0  0  0  0  0  0  0  0  0  0
  142.9961   78.5333  221.5405 H   0  0  0  0  0  0  0  0  0  0  0  0
  138.5358   71.6249  220.2876 H   0  0  0  0  0  0  0  0  0  0  0  0
  137.8440   70.0384  222.0695 H   0  0  0  0  0  0  0  0  0  0  0  0
  138.0543   69.1972  224.3921 H   0  0  0  0  0  0  0  0  0  0  0  0
  139.1389   69.3696  226.6217 H   0  0  0  0  0  0  0  0  0  0  0  0
  141.5131   72.6402  225.2083 H   0  0  0  0  0  0  0  0  0  0  0  0
  1  2  2  0
  2  3  1  0
  3  4  1  0
  4  5  1  0
  5  6  2  0
  5  7  1  0
  7  8  1  0
  8  9  1  0
  9 10  1  0
  9 11  1  0
 11 12  1  0
 12 13  1  0
 13 14  2  0
 14 15  1  0
 15 16  2  0
 16 17  1  0
 17 18  2  0
  2 19  1  0
 19 20  2  0
 20 21  1  0
 21 22  2  0
 22 23  1  0
 23 24  2  0
 24 25  1  0
 25 26  1  0
 25 27  2  0
 27 28  1  0
 28 29  2  0
 12  7  1  0
 18 13  1  0
 29 19  1  0
 28 22  1  0
  3 30  1  0
  4 31  1  0
  4 32  1  0
  8 33  1  0
  8 34  1  0
  9 35  1  1
 10 36  1  0
 11 37  1  0
 11 38  1  0
 12 39  1  6
 14 40  1  0
 15 41  1  0
 16 42  1  0
 17 43  1  0
 18 44  1  0
 20 45  1  0
 21 46  1  0
 23 47  1  0
 24 48  1  0
 27 49  1  0
M  END
>  <smiles>  (5) 
O=C(NCC(=O)N1C[C@H](O)C[C@H]1c1ccccc1)c1ccc2ccc(F)cc2n1

>  <score_type>  (5) 
oracle

>  <origin>  (5) 
autodockgpu

>  <m_score__min__energy>  (5) 
-8.2200000000000006

>  <m_primary>  (5) 
energy

>  <rmsd>  (5) 
3.5842122201535576

>  <m_score__min__rmsd>  (5) 
3.5842122201535576

>  <meeko>  (5) 
{"free_energy": -6.71, "intermolecular_energy": -8.5, "internal_energy": -2.43, "cluster_size": 31, "cluster_id": 2, "rank_in_cluster": 30}

>  <energy>  (5) 
-7.37

>  <cluster_rmsd>  (5) 
1.29

>  <cluster>  (5) 
1

$$$$

     RDKit          3D

 49 52  0  0  0  0  0  0  0  0999 V2000
  139.4960   71.5390  221.1320 O   0  0  0  0  0  0  0  0  0  0  0  0
  139.5660   72.1130  222.2540 C   0  0  0  0  0  0  0  0  0  0  0  0
  139.5070   73.5200  222.3390 N   0  0  0  0  0  0  0  0  0  0  0  0
  139.3670   74.3050  221.1540 C   0  0  0  0  0  0  0  0  0  0  0  0
  138.9250   75.6850  221.4070 C   0  0  0  0  0  0  0  0  0  0  0  0
  137.8210   76.0050  221.9120 O   0  0  0  0  0  0  0  0  0  0  0  0
  139.8080   76.7470  221.0600 N   0  0  0  0  0  0  0  0  0  0  0  0
  139.5230   77.8060  220.0900 C   0  0  0  0  0  0  0  0  0  0  0  0
  140.9000   78.1890  219.5900 C   0  0  2  0  0  0  0  0  0  0  0  0
  140.9410   78.0960  218.1850 O   0  0  0  0  0  0  0  0  0  0  0  0
  141.8580   77.1970  220.2310 C   0  0  0  0  0  0  0  0  0  0  0  0
  141.1550   77.0030  221.5810 C   0  0  1  0  0  0  0  0  0  0  0  0
  141.0750   78.2500  222.3570 C   0  0  0  0  0  0  0  0  0  0  0  0
  142.1710   79.0890  222.4920 C   0  0  0  0  0  0  0  0  0  0  0  0
  142.1150   80.2650  223.2170 C   0  0  0  0  0  0  0  0  0  0  0  0
  140.9280   80.6510  223.8450 C   0  0  0  0  0  0  0  0  0  0  0  0
  139.8520   79.8250  223.7100 C   0  0  0  0  0  0  0  0  0  0  0  0
  139.9150   78.6510  222.9850 C   0  0  0  0  0  0  0  0  0  0  0  0
  139.7100   71.3450  223.5000 C   0  0  0  0  0  0  0  0  0  0  0  0
  139.2490   70.0380  223.5780 C   0  0  0  0  0  0  0  0  0  0  0  0
  139.4040   69.3410  224.7770 C   0  0  0  0  0  0  0  0  0  0  0  0
  139.9930   69.8960  225.8770 C   0  0  0  0  0  0  0  0  0  0  0  0
  140.1670   69.2500  227.0790 C   0  0  0  0  0  0  0  0  0  0  0  0
  140.7790   69.8870  228.1580 C   0  0  0  0  0  0  0  0  0  0  0  0
  141.2180   71.1820  228.0310 C   0  0  0  0  0  0  0  0  0  0  0  0
  141.8190   71.8400  229.0550 F   0  0  0  0  0  0  0  0  0  0  0  0
  141.0500   71.8410  226.8340 C   0  0  0  0  0  0  0  0  0  0  0  0
  140.4400   71.2130  225.7490 C   0  0  0  0  0  0  0  0  0  0  0  0
  140.2860   71.8760  224.5890 N   0  0  0  0  0  0  0  0  0  0  0  0
  139.5650   73.9990  223.2660 H   0  0  0  0  0  0  0  0  0  0  0  0
  140.3410   74.3404  220.6440 H   0  0  0  0  0  0  0  0  0  0  0  0
  138.5892   73.8258  220.5413 H   0  0  0  0  0  0  0  0  0  0  0  0
  138.8942   77.4313  219.2689 H   0  0  0  0  0  0  0  0  0  0  0  0
  138.9678   78.6517  220.5219 H   0  0  0  0  0  0  0  0  0  0  0  0
  141.1667   79.2236  219.8517 H   0  0  0  0  0  0  0  0  0  0  0  0
  141.1550   78.9880  217.8090 H   0  0  0  0  0  0  0  0  0  0  0  0
  141.9186   76.2581  219.6611 H   0  0  0  0  0  0  0  0  0  0  0  0
  142.9049   77.5291  220.2915 H   0  0  0  0  0  0  0  0  0  0  0  0
  141.6326   76.2608  222.2376 H   0  0  0  0  0  0  0  0  0  0  0  0
  143.1172   78.8093  222.0057 H   0  0  0  0  0  0  0  0  0  0  0  0
  143.0094   80.8999  223.2998 H   0  0  0  0  0  0  0  0  0  0  0  0
  140.8644   81.5836  224.4248 H   0  0  0  0  0  0  0  0  0  0  0  0
  138.9037   80.1021  224.1937 H   0  0  0  0  0  0  0  0  0  0  0  0
  139.0172   78.0202  222.9067 H   0  0  0  0  0  0  0  0  0  0  0  0
  138.7702   69.5604  222.7105 H   0  0  0  0  0  0  0  0  0  0  0  0
  139.0380   68.3055  224.8384 H   0  0  0  0  0  0  0  0  0  0  0  0
  139.8174   68.2131  227.1909 H   0  0  0  0  0  0  0  0  0  0  0  0
  140.9101   69.3524  229.1104 H   0  0  0  0  0  0  0  0  0  0  0  0
  141.4022   72.8781  226.7322 H   0  0  0  0  0  0  0  0  0  0  0  0
  1  2  2  0
  2  3  1  0
  3  4  1  0
  4  5  1  0
  5  6  2  0
  5  7  1  0
  7  8  1  0
  8  9  1  0
  9 10  1  0
  9 11  1  0
 11 12  1  0
 12 13  1  0
 13 14  2  0
 14 15  1  0
 15 16  2  0
 16 17  1  0
 17 18  2  0
  2 19  1  0
 19 20  2  0
 20 21  1  0
 21 22  2  0
 22 23  1  0
 23 24  2  0
 24 25  1  0
 25 26  1  0
 25 27  2  0
 27 28  1  0
 28 29  2  0
 12  7  1  0
 18 13  1  0
 29 19  1  0
 28 22  1  0
  3 30  1  0
  4 31  1  0
  4 32  1  0
  8 33  1  0
  8 34  1  0
  9 35  1  6
 10 36  1  0
 11 37  1  0
 11 38  1  0
 12 39  1  1
 14 40  1  0
 15 41  1  0
 16 42  1  0
 17 43  1  0
 18 44  1  0
 20 45  1  0
 21 46  1  0
 23 47  1  0
 24 48  1  0
 27 49  1  0
M  END
>  <smiles>  (6) 
O=C(NCC(=O)N1C[C@H](O)C[C@H]1c1ccccc1)c1ccc2ccc(F)cc2n1

>  <score_type>  (6) 
oracle

>  <origin>  (6) 
autodockgpu

>  <m_score__min__energy>  (6) 
-8.2200000000000006

>  <m_primary>  (6) 
energy

>  <rmsd>  (6) 
1.9864266167921862

>  <m_score__min__rmsd>  (6) 
1.9864266167921862

>  <meeko>  (6) 
{"free_energy": -7.97, "intermolecular_energy": -9.76, "internal_energy": -1.3, "cluster_size": 31, "cluster_id": 2, "rank_in_cluster": 16}

>  <energy>  (6) 
-8.2

>  <cluster_rmsd>  (6) 
0.0

>  <cluster>  (6) 
2

$$$$

     RDKit          3D

 49 52  0  0  0  0  0  0  0  0999 V2000
  140.5690   71.8880  220.9910 O   0  0  0  0  0  0  0  0  0  0  0  0
  140.1920   72.3600  222.1000 C   0  0  0  0  0  0  0  0  0  0  0  0
  139.8280   73.7190  222.2080 N   0  0  0  0  0  0  0  0  0  0  0  0
  139.8820   74.5700  221.0630 C   0  0  0  0  0  0  0  0  0  0  0  0
  140.9430   75.5860  221.1310 C   0  0  0  0  0  0  0  0  0  0  0  0
  141.0310   76.4760  222.0130 O   0  0  0  0  0  0  0  0  0  0  0  0
  141.9530   75.5710  220.1270 N   0  0  0  0  0  0  0  0  0  0  0  0
  142.9000   76.6540  219.8570 C   0  0  0  0  0  0  0  0  0  0  0  0
  143.2130   76.4720  218.3870 C   0  0  2  0  0  0  0  0  0  0  0  0
  142.9640   77.6730  217.6930 O   0  0  0  0  0  0  0  0  0  0  0  0
  142.2920   75.3630  217.9060 C   0  0  0  0  0  0  0  0  0  0  0  0
  142.2550   74.4980  219.1730 C   0  0  1  0  0  0  0  0  0  0  0  0
  143.5810   73.9760  219.5350 C   0  0  0  0  0  0  0  0  0  0  0  0
  143.9970   73.9100  220.8570 C   0  0  0  0  0  0  0  0  0  0  0  0
  145.2400   73.4220  221.2160 C   0  0  0  0  0  0  0  0  0  0  0  0
  146.1310   72.9710  220.2380 C   0  0  0  0  0  0  0  0  0  0  0  0
  145.7190   73.0360  218.9390 C   0  0  0  0  0  0  0  0  0  0  0  0
  144.4760   73.5250  218.5880 C   0  0  0  0  0  0  0  0  0  0  0  0
  140.1210   71.5200  223.3050 C   0  0  0  0  0  0  0  0  0  0  0  0
  139.5320   70.2640  223.2540 C   0  0  0  0  0  0  0  0  0  0  0  0
  139.4830   69.4970  224.4180 C   0  0  0  0  0  0  0  0  0  0  0  0
  139.9940   69.9340  225.6070 C   0  0  0  0  0  0  0  0  0  0  0  0
  139.9690   69.2150  226.7790 C   0  0  0  0  0  0  0  0  0  0  0  0
  140.5130   69.7320  227.9540 C   0  0  0  0  0  0  0  0  0  0  0  0
  141.0850   70.9810  227.9530 C   0  0  0  0  0  0  0  0  0  0  0  0
  141.6260   71.5230  229.0740 F   0  0  0  0  0  0  0  0  0  0  0  0
  141.1170   71.7120  226.7870 C   0  0  0  0  0  0  0  0  0  0  0  0
  140.5760   71.2030  225.6080 C   0  0  0  0  0  0  0  0  0  0  0  0
  140.6180   71.9350  224.4800 N   0  0  0  0  0  0  0  0  0  0  0  0
  139.5160   74.1130  223.1250 H   0  0  0  0  0  0  0  0  0  0  0  0
  140.0555   73.9456  220.1742 H   0  0  0  0  0  0  0  0  0  0  0  0
  138.9239   75.1084  221.0172 H   0  0  0  0  0  0  0  0  0  0  0  0
  142.4419   77.6362  220.0453 H   0  0  0  0  0  0  0  0  0  0  0  0
  143.7930   76.6198  220.4984 H   0  0  0  0  0  0  0  0  0  0  0  0
  144.2681   76.2132  218.2142 H   0  0  0  0  0  0  0  0  0  0  0  0
  143.6330   78.3500  217.9700 H   0  0  0  0  0  0  0  0  0  0  0  0
  141.2950   75.7440  217.6399 H   0  0  0  0  0  0  0  0  0  0  0  0
  142.6208   74.8437  216.9937 H   0  0  0  0  0  0  0  0  0  0  0  0
  141.5872   73.6264  219.1074 H   0  0  0  0  0  0  0  0  0  0  0  0
  143.3146   74.2578  221.6465 H   0  0  0  0  0  0  0  0  0  0  0  0
  145.5291   73.3885  222.2768 H   0  0  0  0  0  0  0  0  0  0  0  0
  147.1238   72.5797  220.5048 H   0  0  0  0  0  0  0  0  0  0  0  0
  146.3980   72.6881  218.1466 H   0  0  0  0  0  0  0  0  0  0  0  0
  144.1927   73.5555  217.5256 H   0  0  0  0  0  0  0  0  0  0  0  0
  139.1115   69.8805  222.3126 H   0  0  0  0  0  0  0  0  0  0  0  0
  139.0150   68.5024  224.3769 H   0  0  0  0  0  0  0  0  0  0  0  0
  139.5118   68.2146  226.7896 H   0  0  0  0  0  0  0  0  0  0  0  0
  140.4842   69.1404  228.8809 H   0  0  0  0  0  0  0  0  0  0  0  0
  141.5759   72.7117  226.7859 H   0  0  0  0  0  0  0  0  0  0  0  0
  1  2  2  0
  2  3  1  0
  3  4  1  0
  4  5  1  0
  5  6  2  0
  5  7  1  0
  7  8  1  0
  8  9  1  0
  9 10  1  0
  9 11  1  0
 11 12  1  0
 12 13  1  0
 13 14  2  0
 14 15  1  0
 15 16  2  0
 16 17  1  0
 17 18  2  0
  2 19  1  0
 19 20  2  0
 20 21  1  0
 21 22  2  0
 22 23  1  0
 23 24  2  0
 24 25  1  0
 25 26  1  0
 25 27  2  0
 27 28  1  0
 28 29  2  0
 12  7  1  0
 18 13  1  0
 29 19  1  0
 28 22  1  0
  3 30  1  0
  4 31  1  0
  4 32  1  0
  8 33  1  0
  8 34  1  0
  9 35  1  1
 10 36  1  0
 11 37  1  0
 11 38  1  0
 12 39  1  6
 14 40  1  0
 15 41  1  0
 16 42  1  0
 17 43  1  0
 18 44  1  0
 20 45  1  0
 21 46  1  0
 23 47  1  0
 24 48  1  0
 27 49  1  0
M  END
>  <smiles>  (7) 
O=C(NCC(=O)N1C[C@H](O)C[C@H]1c1ccccc1)c1ccc2ccc(F)cc2n1

>  <score_type>  (7) 
oracle

>  <origin>  (7) 
autodockgpu

>  <m_score__min__energy>  (7) 
-8.2200000000000006

>  <m_primary>  (7) 
energy

>  <rmsd>  (7) 
2.4563566177959046

>  <m_score__min__rmsd>  (7) 
2.4563566177959046

>  <meeko>  (7) 
{"free_energy": -7.9, "intermolecular_energy": -9.69, "internal_energy": -1.57, "cluster_size": 10, "cluster_id": 3, "rank_in_cluster": 10}

>  <energy>  (7) 
-8.19

>  <cluster_rmsd>  (7) 
1.06

>  <cluster>  (7) 
2

$$$$

     RDKit          3D

 49 52  0  0  0  0  0  0  0  0999 V2000
  141.0140   72.2750  221.1430 O   0  0  0  0  0  0  0  0  0  0  0  0
  140.3330   72.6780  222.1260 C   0  0  0  0  0  0  0  0  0  0  0  0
  139.7290   73.9520  222.1000 N   0  0  0  0  0  0  0  0  0  0  0  0
  139.8840   74.7970  220.9590 C   0  0  0  0  0  0  0  0  0  0  0  0
  141.0070   75.7400  221.0680 C   0  0  0  0  0  0  0  0  0  0  0  0
  141.1550   76.5770  221.9930 O   0  0  0  0  0  0  0  0  0  0  0  0
  142.0090   75.7120  220.0570 N   0  0  0  0  0  0  0  0  0  0  0  0
  142.9010   76.8210  219.7120 C   0  0  0  0  0  0  0  0  0  0  0  0
  143.2110   76.5660  218.2530 C   0  0  2  0  0  0  0  0  0  0  0  0
  142.9000   77.7090  217.4910 O   0  0  0  0  0  0  0  0  0  0  0  0
  142.3410   75.3870  217.8490 C   0  0  0  0  0  0  0  0  0  0  0  0
  142.3550   74.5990  219.1660 C   0  0  1  0  0  0  0  0  0  0  0  0
  143.7080   74.1630  219.5440 C   0  0  0  0  0  0  0  0  0  0  0  0
  144.6210   73.7330  218.5940 C   0  0  0  0  0  0  0  0  0  0  0  0
  145.8970   73.3200  218.9300 C   0  0  0  0  0  0  0  0  0  0  0  0
  146.3110   73.3240  220.2650 C   0  0  0  0  0  0  0  0  0  0  0  0
  145.4110   73.7480  221.1980 C   0  0  0  0  0  0  0  0  0  0  0  0
  144.1380   74.1590  220.8540 C   0  0  0  0  0  0  0  0  0  0  0  0
  140.1470   71.8420  223.3220 C   0  0  0  0  0  0  0  0  0  0  0  0
  139.3820   70.6850  223.2600 C   0  0  0  0  0  0  0  0  0  0  0  0
  139.2280   69.9180  224.4150 C   0  0  0  0  0  0  0  0  0  0  0  0
  139.8030   70.2620  225.6060 C   0  0  0  0  0  0  0  0  0  0  0  0
  139.6790   69.5400  226.7700 C   0  0  0  0  0  0  0  0  0  0  0  0
  140.2970   69.9590  227.9470 C   0  0  0  0  0  0  0  0  0  0  0  0
  141.0430   71.1120  227.9580 C   0  0  0  0  0  0  0  0  0  0  0  0
  141.6620   71.5570  229.0810 F   0  0  0  0  0  0  0  0  0  0  0  0
  141.1750   71.8460  226.8000 C   0  0  0  0  0  0  0  0  0  0  0  0
  140.5620   71.4350  225.6180 C   0  0  0  0  0  0  0  0  0  0  0  0
  140.7030   72.1670  224.4990 N   0  0  0  0  0  0  0  0  0  0  0  0
  139.1640   74.2890  222.9120 H   0  0  0  0  0  0  0  0  0  0  0  0
  140.0490   74.1615  220.0765 H   0  0  0  0  0  0  0  0  0  0  0  0
  138.9666   75.3986  220.8785 H   0  0  0  0  0  0  0  0  0  0  0  0
  142.3976   77.7898  219.8459 H   0  0  0  0  0  0  0  0  0  0  0  0
  143.7996   76.8680  220.3447 H   0  0  0  0  0  0  0  0  0  0  0  0
  144.2760   76.3480  218.0851 H   0  0  0  0  0  0  0  0  0  0  0  0
  143.7420   78.1610  217.2280 H   0  0  0  0  0  0  0  0  0  0  0  0
  141.3248   75.7032  217.5707 H   0  0  0  0  0  0  0  0  0  0  0  0
  142.6879   74.8298  216.9663 H   0  0  0  0  0  0  0  0  0  0  0  0
  141.7292   73.6944  219.1602 H   0  0  0  0  0  0  0  0  0  0  0  0
  144.3200   73.7199  217.5361 H   0  0  0  0  0  0  0  0  0  0  0  0
  146.5896   72.9867  218.1430 H   0  0  0  0  0  0  0  0  0  0  0  0
  147.3218   72.9983  220.5516 H   0  0  0  0  0  0  0  0  0  0  0  0
  145.7081   73.7631  222.2570 H   0  0  0  0  0  0  0  0  0  0  0  0
  143.4499   74.4915  221.6452 H   0  0  0  0  0  0  0  0  0  0  0  0
  138.9058   70.3786  222.3169 H   0  0  0  0  0  0  0  0  0  0  0  0
  138.6210   69.0020  224.3652 H   0  0  0  0  0  0  0  0  0  0  0  0
  139.0819   68.6161  226.7721 H   0  0  0  0  0  0  0  0  0  0  0  0
  140.1872   69.3662  228.8671 H   0  0  0  0  0  0  0  0  0  0  0  0
  141.7726   72.7695  226.8084 H   0  0  0  0  0  0  0  0  0  0  0  0
  1  2  2  0
  2  3  1  0
  3  4  1  0
  4  5  1  0
  5  6  2  0
  5  7  1  0
  7  8  1  0
  8  9  1  0
  9 10  1  0
  9 11  1  0
 11 12  1  0
 12 13  1  0
 13 14  2  0
 14 15  1  0
 15 16  2  0
 16 17  1  0
 17 18  2  0
  2 19  1  0
 19 20  2  0
 20 21  1  0
 21 22  2  0
 22 23  1  0
 23 24  2  0
 24 25  1  0
 25 26  1  0
 25 27  2  0
 27 28  1  0
 28 29  2  0
 12  7  1  0
 18 13  1  0
 29 19  1  0
 28 22  1  0
  3 30  1  0
  4 31  1  0
  4 32  1  0
  8 33  1  0
  8 34  1  0
  9 35  1  1
 10 36  1  0
 11 37  1  0
 11 38  1  0
 12 39  1  6
 14 40  1  0
 15 41  1  0
 16 42  1  0
 17 43  1  0
 18 44  1  0
 20 45  1  0
 21 46  1  0
 23 47  1  0
 24 48  1  0
 27 49  1  0
M  END
>  <smiles>  (8) 
O=C(NCC(=O)N1C[C@H](O)C[C@H]1c1ccccc1)c1ccc2ccc(F)cc2n1

>  <score_type>  (8) 
oracle

>  <origin>  (8) 
autodockgpu

>  <m_score__min__energy>  (8) 
-8.2200000000000006

>  <m_primary>  (8) 
energy

>  <rmsd>  (8) 
2.5482854430511326

>  <m_score__min__rmsd>  (8) 
2.5482854430511326

>  <meeko>  (8) 
{"free_energy": -8.06, "intermolecular_energy": -9.85, "internal_energy": -1.5, "cluster_size": 10, "cluster_id": 3, "rank_in_cluster": 2}

>  <energy>  (8) 
-8.17

>  <cluster_rmsd>  (8) 
1.12

>  <cluster>  (8) 
2

$$$$

     RDKit          3D

 49 52  0  0  0  0  0  0  0  0999 V2000
  140.8870   74.5380  221.3440 O   0  0  0  0  0  0  0  0  0  0  0  0
  139.9120   75.0490  221.9630 C   0  0  0  0  0  0  0  0  0  0  0  0
  138.7900   74.2620  222.2970 N   0  0  0  0  0  0  0  0  0  0  0  0
  138.7480   72.8810  221.9370 C   0  0  0  0  0  0  0  0  0  0  0  0
  139.6250   72.0290  222.7560 C   0  0  0  0  0  0  0  0  0  0  0  0
  140.8030   72.3160  223.0840 O   0  0  0  0  0  0  0  0  0  0  0  0
  139.1110   70.7850  223.2190 N   0  0  0  0  0  0  0  0  0  0  0  0
  139.2020   69.5090  222.5070 C   0  0  0  0  0  0  0  0  0  0  0  0
  137.9880   68.7540  223.0040 C   0  0  2  0  0  0  0  0  0  0  0  0
  137.2100   68.3270  221.9110 O   0  0  0  0  0  0  0  0  0  0  0  0
  137.2200   69.7390  223.8700 C   0  0  0  0  0  0  0  0  0  0  0  0
  138.3980   70.5180  224.4730 C   0  0  1  0  0  0  0  0  0  0  0  0
  139.2790   69.6640  225.2840 C   0  0  0  0  0  0  0  0  0  0  0  0
  138.7970   68.5370  225.9310 C   0  0  0  0  0  0  0  0  0  0  0  0
  139.6100   67.7220  226.6980 C   0  0  0  0  0  0  0  0  0  0  0  0
  140.9690   68.0170  226.8430 C   0  0  0  0  0  0  0  0  0  0  0  0
  141.4390   69.1260  226.2050 C   0  0  0  0  0  0  0  0  0  0  0  0
  140.6210   69.9350  225.4420 C   0  0  0  0  0  0  0  0  0  0  0  0
  139.9120   76.4660  222.3530 C   0  0  0  0  0  0  0  0  0  0  0  0
  138.7200   77.1710  222.4470 C   0  0  0  0  0  0  0  0  0  0  0  0
  138.7600   78.5150  222.8190 C   0  0  0  0  0  0  0  0  0  0  0  0
  139.9290   79.1640  223.0970 C   0  0  0  0  0  0  0  0  0  0  0  0
  140.0190   80.4860  223.4670 C   0  0  0  0  0  0  0  0  0  0  0  0
  141.2530   81.0770  223.7330 C   0  0  0  0  0  0  0  0  0  0  0  0
  142.4050   80.3380  223.6260 C   0  0  0  0  0  0  0  0  0  0  0  0
  143.6280   80.8730  223.8750 F   0  0  0  0  0  0  0  0  0  0  0  0
  142.3310   79.0140  223.2560 C   0  0  0  0  0  0  0  0  0  0  0  0
  141.1020   78.4140  222.9880 C   0  0  0  0  0  0  0  0  0  0  0  0
  141.0520   77.1190  222.6280 N   0  0  0  0  0  0  0  0  0  0  0  0
  137.9810   74.6820  222.8090 H   0  0  0  0  0  0  0  0  0  0  0  0
  137.7136   72.5241  222.0495 H   0  0  0  0  0  0  0  0  0  0  0  0
  139.1068   72.8082  220.8997 H   0  0  0  0  0  0  0  0  0  0  0  0
  139.1555   69.6596  221.4184 H   0  0  0  0  0  0  0  0  0  0  0  0
  140.1476   68.9774  222.6895 H   0  0  0  0  0  0  0  0  0  0  0  0
  138.2609   67.8540  223.5746 H   0  0  0  0  0  0  0  0  0  0  0  0
  137.2450   69.0170  221.2010 H   0  0  0  0  0  0  0  0  0  0  0  0
  136.5633   70.3869  223.2709 H   0  0  0  0  0  0  0  0  0  0  0  0
  136.5355   69.2847  224.6015 H   0  0  0  0  0  0  0  0  0  0  0  0
  138.1031   71.3583  225.1187 H   0  0  0  0  0  0  0  0  0  0  0  0
  137.7316   68.2820  225.8312 H   0  0  0  0  0  0  0  0  0  0  0  0
  139.1854   66.8379  227.1961 H   0  0  0  0  0  0  0  0  0  0  0  0
  141.6318   67.3801  227.4473 H   0  0  0  0  0  0  0  0  0  0  0  0
  142.5038   69.3846  226.3011 H   0  0  0  0  0  0  0  0  0  0  0  0
  141.0513   70.8184  224.9476 H   0  0  0  0  0  0  0  0  0  0  0  0
  137.7603   76.6784  222.2319 H   0  0  0  0  0  0  0  0  0  0  0  0
  137.8146   79.0728  222.8911 H   0  0  0  0  0  0  0  0  0  0  0  0
  139.1017   81.0867  223.5544 H   0  0  0  0  0  0  0  0  0  0  0  0
  141.3038   82.1353  224.0286 H   0  0  0  0  0  0  0  0  0  0  0  0
  143.2541   78.4219  223.1708 H   0  0  0  0  0  0  0  0  0  0  0  0
  1  2  2  0
  2  3  1  0
  3  4  1  0
  4  5  1  0
  5  6  2  0
  5  7  1  0
  7  8  1  0
  8  9  1  0
  9 10  1  0
  9 11  1  0
 11 12  1  0
 12 13  1  0
 13 14  2  0
 14 15  1  0
 15 16  2  0
 16 17  1  0
 17 18  2  0
  2 19  1  0
 19 20  2  0
 20 21  1  0
 21 22  2  0
 22 23  1  0
 23 24  2  0
 24 25  1  0
 25 26  1  0
 25 27  2  0
 27 28  1  0
 28 29  2  0
 12  7  1  0
 18 13  1  0
 29 19  1  0
 28 22  1  0
  3 30  1  0
  4 31  1  0
  4 32  1  0
  8 33  1  0
  8 34  1  0
  9 35  1  1
 10 36  1  0
 11 37  1  0
 11 38  1  0
 12 39  1  1
 14 40  1  0
 15 41  1  0
 16 42  1  0
 17 43  1  0
 18 44  1  0
 20 45  1  0
 21 46  1  0
 23 47  1  0
 24 48  1  0
 27 49  1  0
M  END
>  <smiles>  (9) 
O=C(NCC(=O)N1C[C@H](O)C[C@H]1c1ccccc1)c1ccc2ccc(F)cc2n1

>  <score_type>  (9) 
oracle

>  <origin>  (9) 
autodockgpu

>  <m_score__min__energy>  (9) 
-8.2200000000000006

>  <m_primary>  (9) 
energy

>  <rmsd>  (9) 
8.170161597269892

>  <m_score__min__rmsd>  (9) 
8.170161597269892

>  <meeko>  (9) 
{"free_energy": -8.22, "intermolecular_energy": -10.01, "internal_energy": -1.06, "cluster_size": 5, "cluster_id": 1, "rank_in_cluster": 2}

>  <energy>  (9) 
-8.12

>  <cluster_rmsd>  (9) 
1.5

>  <cluster>  (9) 
2

$$$$

     RDKit          3D

 49 52  0  0  0  0  0  0  0  0999 V2000
  140.4780   71.8340  220.9850 O   0  0  0  0  0  0  0  0  0  0  0  0
  140.1510   72.3450  222.0920 C   0  0  0  0  0  0  0  0  0  0  0  0
  139.8310   73.7160  222.1760 N   0  0  0  0  0  0  0  0  0  0  0  0
  139.8740   74.5360  221.0080 C   0  0  0  0  0  0  0  0  0  0  0  0
  140.8620   75.6230  221.0830 C   0  0  0  0  0  0  0  0  0  0  0  0
  140.8690   76.5280  221.9540 O   0  0  0  0  0  0  0  0  0  0  0  0
  141.8930   75.6630  220.1030 N   0  0  0  0  0  0  0  0  0  0  0  0
  142.8210   76.7740  219.8890 C   0  0  0  0  0  0  0  0  0  0  0  0
  143.1700   76.6490  218.4210 C   0  0  2  0  0  0  0  0  0  0  0  0
  142.9090   77.8660  217.7620 O   0  0  0  0  0  0  0  0  0  0  0  0
  142.2840   75.5370  217.8830 C   0  0  0  0  0  0  0  0  0  0  0  0
  142.2390   74.6290  219.1210 C   0  0  1  0  0  0  0  0  0  0  0  0
  143.5680   74.1230  219.4940 C   0  0  0  0  0  0  0  0  0  0  0  0
  143.9560   74.0210  220.8220 C   0  0  0  0  0  0  0  0  0  0  0  0
  145.2020   73.5480  221.1920 C   0  0  0  0  0  0  0  0  0  0  0  0
  146.1240   73.1500  220.2190 C   0  0  0  0  0  0  0  0  0  0  0  0
  145.7390   73.2520  218.9150 C   0  0  0  0  0  0  0  0  0  0  0  0
  144.4930   73.7250  218.5530 C   0  0  0  0  0  0  0  0  0  0  0  0
  140.0940   71.5380  223.3200 C   0  0  0  0  0  0  0  0  0  0  0  0
  139.5190   70.2750  223.3070 C   0  0  0  0  0  0  0  0  0  0  0  0
  139.4830   69.5400  224.4920 C   0  0  0  0  0  0  0  0  0  0  0  0
  139.9940   70.0160  225.6670 C   0  0  0  0  0  0  0  0  0  0  0  0
  139.9810   69.3290  226.8580 C   0  0  0  0  0  0  0  0  0  0  0  0
  140.5240   69.8850  228.0160 C   0  0  0  0  0  0  0  0  0  0  0  0
  141.0820   71.1390  227.9780 C   0  0  0  0  0  0  0  0  0  0  0  0
  141.6210   71.7190  229.0810 F   0  0  0  0  0  0  0  0  0  0  0  0
  141.1020   71.8390  226.7920 C   0  0  0  0  0  0  0  0  0  0  0  0
  140.5620   71.2910  225.6290 C   0  0  0  0  0  0  0  0  0  0  0  0
  140.5910   71.9920  224.4820 N   0  0  0  0  0  0  0  0  0  0  0  0
  139.5600   74.1430  223.0910 H   0  0  0  0  0  0  0  0  0  0  0  0
  140.1231   73.8995  220.1461 H   0  0  0  0  0  0  0  0  0  0  0  0
  138.8850   75.0076  220.9105 H   0  0  0  0  0  0  0  0  0  0  0  0
  142.3372   77.7392  220.0995 H   0  0  0  0  0  0  0  0  0  0  0  0
  143.7008   76.7368  220.5482 H   0  0  0  0  0  0  0  0  0  0  0  0
  144.2342   76.4197  218.2636 H   0  0  0  0  0  0  0  0  0  0  0  0
  143.7290   78.1580  217.2870 H   0  0  0  0  0  0  0  0  0  0  0  0
  141.2848   75.9052  217.6074 H   0  0  0  0  0  0  0  0  0  0  0  0
  142.6436   75.0556  216.9616 H   0  0  0  0  0  0  0  0  0  0  0  0
  141.5919   73.7461  219.0125 H   0  0  0  0  0  0  0  0  0  0  0  0
  143.2489   74.3266  221.6072 H   0  0  0  0  0  0  0  0  0  0  0  0
  145.4690   73.4846  222.2572 H   0  0  0  0  0  0  0  0  0  0  0  0
  147.1190   72.7702  220.4943 H   0  0  0  0  0  0  0  0  0  0  0  0
  146.4431   72.9479  218.1264 H   0  0  0  0  0  0  0  0  0  0  0  0
  144.2321   73.7857  217.4861 H   0  0  0  0  0  0  0  0  0  0  0  0
  139.0990   69.8608  222.3785 H   0  0  0  0  0  0  0  0  0  0  0  0
  139.0261   68.5395  224.4804 H   0  0  0  0  0  0  0  0  0  0  0  0
  139.5350   68.3243  226.8981 H   0  0  0  0  0  0  0  0  0  0  0  0
  140.5053   69.3193  228.9592 H   0  0  0  0  0  0  0  0  0  0  0  0
  141.5497   72.8433  226.7618 H   0  0  0  0  0  0  0  0  0  0  0  0
  1  2  2  0
  2  3  1  0
  3  4  1  0
  4  5  1  0
  5  6  2  0
  5  7  1  0
  7  8  1  0
  8  9  1  0
  9 10  1  0
  9 11  1  0
 11 12  1  0
 12 13  1  0
 13 14  2  0
 14 15  1  0
 15 16  2  0
 16 17  1  0
 17 18  2  0
  2 19  1  0
 19 20  2  0
 20 21  1  0
 21 22  2  0
 22 23  1  0
 23 24  2  0
 24 25  1  0
 25 26  1  0
 25 27  2  0
 27 28  1  0
 28 29  2  0
 12  7  1  0
 18 13  1  0
 29 19  1  0
 28 22  1  0
  3 30  1  0
  4 31  1  0
  4 32  1  0
  8 33  1  0
  8 34  1  0
  9 35  1  1
 10 36  1  0
 11 37  1  0
 11 38  1  0
 12 39  1  6
 14 40  1  0
 15 41  1  0
 16 42  1  0
 17 43  1  0
 18 44  1  0
 20 45  1  0
 21 46  1  0
 23 47  1  0
 24 48  1  0
 27 49  1  0
M  END
>  <smiles>  (10) 
O=C(NCC(=O)N1C[C@H](O)C[C@H]1c1ccccc1)c1ccc2ccc(F)cc2n1

>  <score_type>  (10) 
oracle

>  <origin>  (10) 
autodockgpu

>  <m_score__min__energy>  (10) 
-8.2200000000000006

>  <m_primary>  (10) 
energy

>  <rmsd>  (10) 
2.4354261169004494

>  <m_score__min__rmsd>  (10) 
2.4354261169004494

>  <meeko>  (10) 
{"free_energy": -8.03, "intermolecular_energy": -9.82, "internal_energy": -1.55, "cluster_size": 10, "cluster_id": 3, "rank_in_cluster": 6}

>  <energy>  (10) 
-8.11

>  <cluster_rmsd>  (10) 
1.53

>  <cluster>  (10) 
2

$$$$

     RDKit          3D

 49 52  0  0  0  0  0  0  0  0999 V2000
  139.7010   73.8810  219.5650 O   0  0  0  0  0  0  0  0  0  0  0  0
  140.4650   73.5110  220.5000 C   0  0  0  0  0  0  0  0  0  0  0  0
  141.7980   73.9690  220.5520 N   0  0  0  0  0  0  0  0  0  0  0  0
  142.2930   74.8550  219.5470 C   0  0  0  0  0  0  0  0  0  0  0  0
  142.2980   76.2680  219.9550 C   0  0  0  0  0  0  0  0  0  0  0  0
  143.0930   77.1380  219.5210 O   0  0  0  0  0  0  0  0  0  0  0  0
  141.3330   76.6950  220.9100 N   0  0  0  0  0  0  0  0  0  0  0  0
  141.0800   76.0600  222.2050 C   0  0  0  0  0  0  0  0  0  0  0  0
  139.6260   76.3890  222.4670 C   0  0  2  0  0  0  0  0  0  0  0  0
  138.9040   75.2050  222.7130 O   0  0  0  0  0  0  0  0  0  0  0  0
  139.1290   77.0790  221.2070 C   0  0  0  0  0  0  0  0  0  0  0  0
  140.4080   77.8290  220.8080 C   0  0  1  0  0  0  0  0  0  0  0  0
  140.8270   78.8050  221.8260 C   0  0  0  0  0  0  0  0  0  0  0  0
  142.1670   79.0610  222.0730 C   0  0  0  0  0  0  0  0  0  0  0  0
  142.5800   79.9750  223.0250 C   0  0  0  0  0  0  0  0  0  0  0  0
  141.6390   80.6820  223.7800 C   0  0  0  0  0  0  0  0  0  0  0  0
  140.3220   80.4280  223.5340 C   0  0  0  0  0  0  0  0  0  0  0  0
  139.9170   79.5130  222.5810 C   0  0  0  0  0  0  0  0  0  0  0  0
  139.9980   72.6000  221.5550 C   0  0  0  0  0  0  0  0  0  0  0  0
  138.9740   71.6970  221.3030 C   0  0  0  0  0  0  0  0  0  0  0  0
  138.5580   70.8490  222.3300 C   0  0  0  0  0  0  0  0  0  0  0  0
  139.1220   70.8720  223.5750 C   0  0  0  0  0  0  0  0  0  0  0  0
  138.7460   70.0570  224.6160 C   0  0  0  0  0  0  0  0  0  0  0  0
  139.3710   70.1430  225.8600 C   0  0  0  0  0  0  0  0  0  0  0  0
  140.3790   71.0530  226.0600 C   0  0  0  0  0  0  0  0  0  0  0  0
  141.0150   71.1710  227.2530 F   0  0  0  0  0  0  0  0  0  0  0  0
  140.7660   71.8760  225.0250 C   0  0  0  0  0  0  0  0  0  0  0  0
  140.1470   71.7970  223.7790 C   0  0  0  0  0  0  0  0  0  0  0  0
  140.5400   72.6110  222.7820 N   0  0  0  0  0  0  0  0  0  0  0  0
  142.4340   73.6650  221.3240 H   0  0  0  0  0  0  0  0  0  0  0  0
  143.3241   74.5607  219.3018 H   0  0  0  0  0  0  0  0  0  0  0  0
  141.6164   74.7721  218.6837 H   0  0  0  0  0  0  0  0  0  0  0  0
  141.2355   74.9725  222.1492 H   0  0  0  0  0  0  0  0  0  0  0  0
  141.7542   76.4121  222.9996 H   0  0  0  0  0  0  0  0  0  0  0  0
  139.4969   77.0332  223.3492 H   0  0  0  0  0  0  0  0  0  0  0  0
  139.5160   74.5300  223.1050 H   0  0  0  0  0  0  0  0  0  0  0  0
  138.8203   76.3559  220.4377 H   0  0  0  0  0  0  0  0  0  0  0  0
  138.2378   77.7102  221.3391 H   0  0  0  0  0  0  0  0  0  0  0  0
  140.3317   78.3835  219.8611 H   0  0  0  0  0  0  0  0  0  0  0  0
  142.9275   78.5187  221.4920 H   0  0  0  0  0  0  0  0  0  0  0  0
  143.6540   80.1467  223.1892 H   0  0  0  0  0  0  0  0  0  0  0  0
  141.9485   81.4132  224.5413 H   0  0  0  0  0  0  0  0  0  0  0  0
  139.5581   80.9684  224.1123 H   0  0  0  0  0  0  0  0  0  0  0  0
  138.8417   79.3456  222.4210 H   0  0  0  0  0  0  0  0  0  0  0  0
  138.4993   71.6509  220.3118 H   0  0  0  0  0  0  0  0  0  0  0  0
  137.7455   70.1349  222.1302 H   0  0  0  0  0  0  0  0  0  0  0  0
  137.9389   69.3249  224.4656 H   0  0  0  0  0  0  0  0  0  0  0  0
  139.0562   69.4817  226.6807 H   0  0  0  0  0  0  0  0  0  0  0  0
  141.5742   72.6050  225.1843 H   0  0  0  0  0  0  0  0  0  0  0  0
  1  2  2  0
  2  3  1  0
  3  4  1  0
  4  5  1  0
  5  6  2  0
  5  7  1  0
  7  8  1  0
  8  9  1  0
  9 10  1  0
  9 11  1  0
 11 12  1  0
 12 13  1  0
 13 14  2  0
 14 15  1  0
 15 16  2  0
 16 17  1  0
 17 18  2  0
  2 19  1  0
 19 20  2  0
 20 21  1  0
 21 22  2  0
 22 23  1  0
 23 24  2  0
 24 25  1  0
 25 26  1  0
 25 27  2  0
 27 28  1  0
 28 29  2  0
 12  7  1  0
 18 13  1  0
 29 19  1  0
 28 22  1  0
  3 30  1  0
  4 31  1  0
  4 32  1  0
  8 33  1  0
  8 34  1  0
  9 35  1  1
 10 36  1  0
 11 37  1  0
 11 38  1  0
 12 39  1  6
 14 40  1  0
 15 41  1  0
 16 42  1  0
 17 43  1  0
 18 44  1  0
 20 45  1  0
 21 46  1  0
 23 47  1  0
 24 48  1  0
 27 49  1  0
M  END
>  <smiles>  (11) 
O=C(NCC(=O)N1C[C@H](O)C[C@H]1c1ccccc1)c1ccc2ccc(F)cc2n1

>  <score_type>  (11) 
oracle

>  <origin>  (11) 
autodockgpu

>  <m_score__min__energy>  (11) 
-8.2200000000000006

>  <m_primary>  (11) 
energy

>  <rmsd>  (11) 
3.594545809497684

>  <m_score__min__rmsd>  (11) 
3.594545809497684

>  <meeko>  (11) 
{"free_energy": -6.68, "intermolecular_energy": -8.47, "internal_energy": -2.44, "cluster_size": 31, "cluster_id": 2, "rank_in_cluster": 31}

>  <energy>  (11) 
-8.09

>  <cluster_rmsd>  (11) 
1.15

>  <cluster>  (11) 
2

$$$$

     RDKit          3D

 49 52  0  0  0  0  0  0  0  0999 V2000
  141.0820   74.4750  221.3870 O   0  0  0  0  0  0  0  0  0  0  0  0
  140.0650   74.9430  221.9700 C   0  0  0  0  0  0  0  0  0  0  0  0
  138.9710   74.1070  222.2740 N   0  0  0  0  0  0  0  0  0  0  0  0
  139.0060   72.7230  221.9250 C   0  0  0  0  0  0  0  0  0  0  0  0
  137.9700   71.9170  222.5900 C   0  0  0  0  0  0  0  0  0  0  0  0
  136.7770   72.2740  222.7540 O   0  0  0  0  0  0  0  0  0  0  0  0
  138.3350   70.6360  223.0900 N   0  0  0  0  0  0  0  0  0  0  0  0
  139.3090   69.7300  222.4790 C   0  0  0  0  0  0  0  0  0  0  0  0
  138.8260   68.3640  222.9180 C   0  0  2  0  0  0  0  0  0  0  0  0
  138.6370   67.5390  221.7920 O   0  0  0  0  0  0  0  0  0  0  0  0
  137.5120   68.6080  223.6420 C   0  0  0  0  0  0  0  0  0  0  0  0
  137.8290   69.9620  224.2910 C   0  0  1  0  0  0  0  0  0  0  0  0
  138.9550   69.8820  225.2340 C   0  0  0  0  0  0  0  0  0  0  0  0
  139.8620   70.9230  225.3660 C   0  0  0  0  0  0  0  0  0  0  0  0
  140.9270   70.8660  226.2470 C   0  0  0  0  0  0  0  0  0  0  0  0
  141.1220   69.7360  227.0470 C   0  0  0  0  0  0  0  0  0  0  0  0
  140.2280   68.7150  226.9140 C   0  0  0  0  0  0  0  0  0  0  0  0
  139.1670   68.7790  226.0320 C   0  0  0  0  0  0  0  0  0  0  0  0
  139.9860   76.3620  222.3480 C   0  0  0  0  0  0  0  0  0  0  0  0
  138.7610   77.0140  222.3800 C   0  0  0  0  0  0  0  0  0  0  0  0
  138.7260   78.3610  222.7430 C   0  0  0  0  0  0  0  0  0  0  0  0
  139.8520   79.0620  223.0700 C   0  0  0  0  0  0  0  0  0  0  0  0
  139.8670   80.3890  223.4340 C   0  0  0  0  0  0  0  0  0  0  0  0
  141.0610   81.0350  223.7520 C   0  0  0  0  0  0  0  0  0  0  0  0
  142.2480   80.3450  223.7060 C   0  0  0  0  0  0  0  0  0  0  0  0
  143.4330   80.9340  224.0080 F   0  0  0  0  0  0  0  0  0  0  0  0
  142.2480   79.0170  223.3430 C   0  0  0  0  0  0  0  0  0  0  0  0
  141.0590   78.3620  223.0230 C   0  0  0  0  0  0  0  0  0  0  0  0
  141.0820   77.0650  222.6710 N   0  0  0  0  0  0  0  0  0  0  0  0
  138.1270   74.4910  222.7570 H   0  0  0  0  0  0  0  0  0  0  0  0
  138.8682   72.6360  220.8372 H   0  0  0  0  0  0  0  0  0  0  0  0
  139.9789   72.3328  222.2584 H   0  0  0  0  0  0  0  0  0  0  0  0
  139.2986   69.8195  221.3827 H   0  0  0  0  0  0  0  0  0  0  0  0
  140.3456   69.9407  222.7807 H   0  0  0  0  0  0  0  0  0  0  0  0
  139.5503   67.8555  223.5713 H   0  0  0  0  0  0  0  0  0  0  0  0
  137.6880   67.2550  221.7560 H   0  0  0  0  0  0  0  0  0  0  0  0
  136.6649   68.6759  222.9435 H   0  0  0  0  0  0  0  0  0  0  0  0
  137.2070   67.8141  224.3396 H   0  0  0  0  0  0  0  0  0  0  0  0
  136.9903   70.4049  224.8481 H   0  0  0  0  0  0  0  0  0  0  0  0
  139.7300   71.8243  224.7494 H   0  0  0  0  0  0  0  0  0  0  0  0
  141.6240   71.7140  226.3185 H   0  0  0  0  0  0  0  0  0  0  0  0
  141.9619   69.6732  227.7545 H   0  0  0  0  0  0  0  0  0  0  0  0
  140.3558   67.8117  227.5286 H   0  0  0  0  0  0  0  0  0  0  0  0
  138.4736   67.9277  225.9650 H   0  0  0  0  0  0  0  0  0  0  0  0
  137.8348   76.4787  222.1239 H   0  0  0  0  0  0  0  0  0  0  0  0
  137.7552   78.8778  222.7667 H   0  0  0  0  0  0  0  0  0  0  0  0
  138.9213   80.9494  223.4748 H   0  0  0  0  0  0  0  0  0  0  0  0
  141.0525   82.0967  224.0396 H   0  0  0  0  0  0  0  0  0  0  0  0
  143.1987   78.4650  223.3048 H   0  0  0  0  0  0  0  0  0  0  0  0
  1  2  2  0
  2  3  1  0
  3  4  1  0
  4  5  1  0
  5  6  2  0
  5  7  1  0
  7  8  1  0
  8  9  1  0
  9 10  1  0
  9 11  1  0
 11 12  1  0
 12 13  1  0
 13 14  2  0
 14 15  1  0
 15 16  2  0
 16 17  1  0
 17 18  2  0
  2 19  1  0
 19 20  2  0
 20 21  1  0
 21 22  2  0
 22 23  1  0
 23 24  2  0
 24 25  1  0
 25 26  1  0
 25 27  2  0
 27 28  1  0
 28 29  2  0
 12  7  1  0
 18 13  1  0
 29 19  1  0
 28 22  1  0
  3 30  1  0
  4 31  1  0
  4 32  1  0
  8 33  1  0
  8 34  1  0
  9 35  1  1
 10 36  1  0
 11 37  1  0
 11 38  1  0
 12 39  1  1
 14 40  1  0
 15 41  1  0
 16 42  1  0
 17 43  1  0
 18 44  1  0
 20 45  1  0
 21 46  1  0
 23 47  1  0
 24 48  1  0
 27 49  1  0
M  END
>  <smiles>  (12) 
O=C(NCC(=O)N1C[C@H](O)C[C@H]1c1ccccc1)c1ccc2ccc(F)cc2n1

>  <score_type>  (12) 
oracle

>  <origin>  (12) 
autodockgpu

>  <m_score__min__energy>  (12) 
-8.2200000000000006

>  <m_primary>  (12) 
energy

>  <rmsd>  (12) 
8.265007499731281

>  <m_score__min__rmsd>  (12) 
8.265007499731281

>  <meeko>  (12) 
{"free_energy": -7.77, "intermolecular_energy": -9.56, "internal_energy": -1.3, "cluster_size": 5, "cluster_id": 1, "rank_in_cluster": 4}

>  <energy>  (12) 
-8.09

>  <cluster_rmsd>  (12) 
1.59

>  <cluster>  (12) 
2

$$$$

     RDKit          3D

 49 52  0  0  0  0  0  0  0  0999 V2000
  140.2190   71.5470  221.1000 O   0  0  0  0  0  0  0  0  0  0  0  0
  139.8780   72.1250  222.1690 C   0  0  0  0  0  0  0  0  0  0  0  0
  139.5250   73.4900  222.1590 N   0  0  0  0  0  0  0  0  0  0  0  0
  139.5490   74.2300  220.9380 C   0  0  0  0  0  0  0  0  0  0  0  0
  140.3330   75.4720  221.0130 C   0  0  0  0  0  0  0  0  0  0  0  0
  141.5360   75.5850  220.6700 O   0  0  0  0  0  0  0  0  0  0  0  0
  139.6910   76.6420  221.5080 N   0  0  0  0  0  0  0  0  0  0  0  0
  138.8300   76.7030  222.6910 C   0  0  0  0  0  0  0  0  0  0  0  0
  137.9070   77.8620  222.3800 C   0  0  2  0  0  0  0  0  0  0  0  0
  136.5650   77.4460  222.4830 O   0  0  0  0  0  0  0  0  0  0  0  0
  138.2410   78.2800  220.9570 C   0  0  0  0  0  0  0  0  0  0  0  0
  139.7500   78.0000  220.9580 C   0  0  1  0  0  0  0  0  0  0  0  0
  140.4720   78.8210  221.9430 C   0  0  0  0  0  0  0  0  0  0  0  0
  140.1950   80.1710  222.1000 C   0  0  0  0  0  0  0  0  0  0  0  0
  140.8630   80.9590  223.0200 C   0  0  0  0  0  0  0  0  0  0  0  0
  141.8550   80.4050  223.8350 C   0  0  0  0  0  0  0  0  0  0  0  0
  142.1250   79.0780  223.6770 C   0  0  0  0  0  0  0  0  0  0  0  0
  141.4540   78.2970  222.7560 C   0  0  0  0  0  0  0  0  0  0  0  0
  139.8390   71.4030  223.4500 C   0  0  0  0  0  0  0  0  0  0  0  0
  139.1780   70.1870  223.5520 C   0  0  0  0  0  0  0  0  0  0  0  0
  139.1620   69.5320  224.7840 C   0  0  0  0  0  0  0  0  0  0  0  0
  139.7740   70.0420  225.8940 C   0  0  0  0  0  0  0  0  0  0  0  0
  139.7860   69.4340  227.1270 C   0  0  0  0  0  0  0  0  0  0  0  0
  140.4340   70.0200  228.2140 C   0  0  0  0  0  0  0  0  0  0  0  0
  141.0750   71.2250  228.0620 C   0  0  0  0  0  0  0  0  0  0  0  0
  141.7180   71.8320  229.0920 F   0  0  0  0  0  0  0  0  0  0  0  0
  141.0710   71.8450  226.8320 C   0  0  0  0  0  0  0  0  0  0  0  0
  140.4260   71.2670  225.7400 C   0  0  0  0  0  0  0  0  0  0  0  0
  140.4350   71.8900  224.5490 N   0  0  0  0  0  0  0  0  0  0  0  0
  139.2430   73.9720  223.0430 H   0  0  0  0  0  0  0  0  0  0  0  0
  139.9835   73.5922  220.1542 H   0  0  0  0  0  0  0  0  0  0  0  0
  138.5108   74.5189  220.7175 H   0  0  0  0  0  0  0  0  0  0  0  0
  138.2632   75.7686  222.8162 H   0  0  0  0  0  0  0  0  0  0  0  0
  139.3899   76.8339  223.6287 H   0  0  0  0  0  0  0  0  0  0  0  0
  138.0383   78.6997  223.0808 H   0  0  0  0  0  0  0  0  0  0  0  0
  136.0490   77.8310  221.7290 H   0  0  0  0  0  0  0  0  0  0  0  0
  137.7104   77.6666  220.2139 H   0  0  0  0  0  0  0  0  0  0  0  0
  137.9560   79.3089  220.6923 H   0  0  0  0  0  0  0  0  0  0  0  0
  140.2440   78.1722  219.9903 H   0  0  0  0  0  0  0  0  0  0  0  0
  139.4178   80.6306  221.4717 H   0  0  0  0  0  0  0  0  0  0  0  0
  140.6127   82.0263  223.1108 H   0  0  0  0  0  0  0  0  0  0  0  0
  142.3956   81.0151  224.5736 H   0  0  0  0  0  0  0  0  0  0  0  0
  142.9019   78.6145  224.3028 H   0  0  0  0  0  0  0  0  0  0  0  0
  141.7097   77.2306  222.6693 H   0  0  0  0  0  0  0  0  0  0  0  0
  138.6758   69.7475  222.6776 H   0  0  0  0  0  0  0  0  0  0  0  0
  138.6369   68.5688  224.8646 H   0  0  0  0  0  0  0  0  0  0  0  0
  139.2756   68.4685  227.2584 H   0  0  0  0  0  0  0  0  0  0  0  0
  140.4317   69.5174  229.1925 H   0  0  0  0  0  0  0  0  0  0  0  0
  141.5843   72.8102  226.7098 H   0  0  0  0  0  0  0  0  0  0  0  0
  1  2  2  0
  2  3  1  0
  3  4  1  0
  4  5  1  0
  5  6  2  0
  5  7  1  0
  7  8  1  0
  8  9  1  0
  9 10  1  0
  9 11  1  0
 11 12  1  0
 12 13  1  0
 13 14  2  0
 14 15  1  0
 15 16  2  0
 16 17  1  0
 17 18  2  0
  2 19  1  0
 19 20  2  0
 20 21  1  0
 21 22  2  0
 22 23  1  0
 23 24  2  0
 24 25  1  0
 25 26  1  0
 25 27  2  0
 27 28  1  0
 28 29  2  0
 12  7  1  0
 18 13  1  0
 29 19  1  0
 28 22  1  0
  3 30  1  0
  4 31  1  0
  4 32  1  0
  8 33  1  0
  8 34  1  0
  9 35  1  1
 10 36  1  0
 11 37  1  0
 11 38  1  0
 12 39  1  6
 14 40  1  0
 15 41  1  0
 16 42  1  0
 17 43  1  0
 18 44  1  0
 20 45  1  0
 21 46  1  0
 23 47  1  0
 24 48  1  0
 27 49  1  0
M  END
>  <smiles>  (13) 
O=C(NCC(=O)N1C[C@H](O)C[C@H]1c1ccccc1)c1ccc2ccc(F)cc2n1

>  <score_type>  (13) 
oracle

>  <origin>  (13) 
autodockgpu

>  <m_score__min__energy>  (13) 
-8.2200000000000006

>  <m_primary>  (13) 
energy

>  <rmsd>  (13) 
2.697274458994437

>  <m_score__min__rmsd>  (13) 
2.697274458994437

>  <meeko>  (13) 
{"free_energy": -7.97, "intermolecular_energy": -9.76, "internal_energy": -1.2, "cluster_size": 31, "cluster_id": 2, "rank_in_cluster": 17}

>  <energy>  (13) 
-8.08

>  <cluster_rmsd>  (13) 
1.0

>  <cluster>  (13) 
2

$$$$

     RDKit          3D

 49 52  0  0  0  0  0  0  0  0999 V2000
  141.0660   72.2680  221.0480 O   0  0  0  0  0  0  0  0  0  0  0  0
  140.3670   72.6250  222.0380 C   0  0  0  0  0  0  0  0  0  0  0  0
  139.7110   73.8730  222.0320 N   0  0  0  0  0  0  0  0  0  0  0  0
  139.8310   74.7420  220.9050 C   0  0  0  0  0  0  0  0  0  0  0  0
  140.9360   75.7060  221.0160 C   0  0  0  0  0  0  0  0  0  0  0  0
  141.0530   76.5650  221.9260 O   0  0  0  0  0  0  0  0  0  0  0  0
  141.9570   75.6730  220.0250 N   0  0  0  0  0  0  0  0  0  0  0  0
  142.8860   76.7650  219.7250 C   0  0  0  0  0  0  0  0  0  0  0  0
  143.2210   76.5350  218.2660 C   0  0  2  0  0  0  0  0  0  0  0  0
  142.9570   77.7030  217.5260 O   0  0  0  0  0  0  0  0  0  0  0  0
  142.3270   75.3900  217.8170 C   0  0  0  0  0  0  0  0  0  0  0  0
  142.2920   74.5720  219.1160 C   0  0  1  0  0  0  0  0  0  0  0  0
  143.6240   74.0900  219.5110 C   0  0  0  0  0  0  0  0  0  0  0  0
  144.5170   73.5870  218.5770 C   0  0  0  0  0  0  0  0  0  0  0  0
  145.7740   73.1290  218.9300 C   0  0  0  0  0  0  0  0  0  0  0  0
  146.1870   73.1620  220.2650 C   0  0  0  0  0  0  0  0  0  0  0  0
  145.3060   73.6570  221.1810 C   0  0  0  0  0  0  0  0  0  0  0  0
  144.0530   74.1120  220.8210 C   0  0  0  0  0  0  0  0  0  0  0  0
  140.2160   71.7620  223.2190 C   0  0  0  0  0  0  0  0  0  0  0  0
  139.5450   70.5510  223.1240 C   0  0  0  0  0  0  0  0  0  0  0  0
  139.4210   69.7590  224.2670 C   0  0  0  0  0  0  0  0  0  0  0  0
  139.9370   70.1310  225.4760 C   0  0  0  0  0  0  0  0  0  0  0  0
  139.8400   69.3870  226.6280 C   0  0  0  0  0  0  0  0  0  0  0  0
  140.3940   69.8370  227.8260 C   0  0  0  0  0  0  0  0  0  0  0  0
  141.0490   71.0430  227.8680 C   0  0  0  0  0  0  0  0  0  0  0  0
  141.6020   71.5200  229.0120 F   0  0  0  0  0  0  0  0  0  0  0  0
  141.1530   71.8000  226.7230 C   0  0  0  0  0  0  0  0  0  0  0  0
  140.6030   71.3580  225.5200 C   0  0  0  0  0  0  0  0  0  0  0  0
  140.7160   72.1130  224.4130 N   0  0  0  0  0  0  0  0  0  0  0  0
  139.1320   74.1720  222.8490 H   0  0  0  0  0  0  0  0  0  0  0  0
  139.9959   74.1267  220.0082 H   0  0  0  0  0  0  0  0  0  0  0  0
  138.9002   75.3255  220.8488 H   0  0  0  0  0  0  0  0  0  0  0  0
  142.4060   77.7439  219.8710 H   0  0  0  0  0  0  0  0  0  0  0  0
  143.7716   76.7728  220.3775 H   0  0  0  0  0  0  0  0  0  0  0  0
  144.2829   76.2915  218.1144 H   0  0  0  0  0  0  0  0  0  0  0  0
  143.8150   78.0870  217.2120 H   0  0  0  0  0  0  0  0  0  0  0  0
  141.3259   75.7408  217.5258 H   0  0  0  0  0  0  0  0  0  0  0  0
  142.6765   74.8435  216.9286 H   0  0  0  0  0  0  0  0  0  0  0  0
  141.6424   73.6852  219.0766 H   0  0  0  0  0  0  0  0  0  0  0  0
  144.2159   73.5509  217.5196 H   0  0  0  0  0  0  0  0  0  0  0  0
  146.4512   72.7372  218.1568 H   0  0  0  0  0  0  0  0  0  0  0  0
  147.1827   72.8031  220.5648 H   0  0  0  0  0  0  0  0  0  0  0  0
  145.6029   73.6949  222.2395 H   0  0  0  0  0  0  0  0  0  0  0  0
  143.3802   74.5018  221.5990 H   0  0  0  0  0  0  0  0  0  0  0  0
  139.1184   70.2210  222.1653 H   0  0  0  0  0  0  0  0  0  0  0  0
  138.8880   68.7997  224.1913 H   0  0  0  0  0  0  0  0  0  0  0  0
  139.3163   68.4200  226.6043 H   0  0  0  0  0  0  0  0  0  0  0  0
  140.3063   69.2263  228.7367 H   0  0  0  0  0  0  0  0  0  0  0  0
  141.6770   72.7666  226.7573 H   0  0  0  0  0  0  0  0  0  0  0  0
  1  2  2  0
  2  3  1  0
  3  4  1  0
  4  5  1  0
  5  6  2  0
  5  7  1  0
  7  8  1  0
  8  9  1  0
  9 10  1  0
  9 11  1  0
 11 12  1  0
 12 13  1  0
 13 14  2  0
 14 15  1  0
 15 16  2  0
 16 17  1  0
 17 18  2  0
  2 19  1  0
 19 20  2  0
 20 21  1  0
 21 22  2  0
 22 23  1  0
 23 24  2  0
 24 25  1  0
 25 26  1  0
 25 27  2  0
 27 28  1  0
 28 29  2  0
 12  7  1  0
 18 13  1  0
 29 19  1  0
 28 22  1  0
  3 30  1  0
  4 31  1  0
  4 32  1  0
  8 33  1  0
  8 34  1  0
  9 35  1  1
 10 36  1  0
 11 37  1  0
 11 38  1  0
 12 39  1  6
 14 40  1  0
 15 41  1  0
 16 42  1  0
 17 43  1  0
 18 44  1  0
 20 45  1  0
 21 46  1  0
 23 47  1  0
 24 48  1  0
 27 49  1  0
M  END
>  <smiles>  (14) 
O=C(NCC(=O)N1C[C@H](O)C[C@H]1c1ccccc1)c1ccc2ccc(F)cc2n1

>  <score_type>  (14) 
oracle

>  <origin>  (14) 
autodockgpu

>  <m_score__min__energy>  (14) 
-8.2200000000000006

>  <m_primary>  (14) 
energy

>  <rmsd>  (14) 
2.5130967662353645

>  <m_score__min__rmsd>  (14) 
2.5130967662353645

>  <meeko>  (14) 
{"free_energy": -8.04, "intermolecular_energy": -9.83, "internal_energy": -1.53, "cluster_size": 10, "cluster_id": 3, "rank_in_cluster": 4}

>  <energy>  (14) 
-8.08

>  <cluster_rmsd>  (14) 
1.05

>  <cluster>  (14) 
2

$$$$

     RDKit          3D

 49 52  0  0  0  0  0  0  0  0999 V2000
  141.4650   72.4580  221.6040 O   0  0  0  0  0  0  0  0  0  0  0  0
  140.4620   72.4920  222.3710 C   0  0  0  0  0  0  0  0  0  0  0  0
  139.6040   73.6120  222.3700 N   0  0  0  0  0  0  0  0  0  0  0  0
  139.8640   74.7160  221.5020 C   0  0  0  0  0  0  0  0  0  0  0  0
  139.3520   75.9990  222.0050 C   0  0  0  0  0  0  0  0  0  0  0  0
  138.5060   76.1240  222.9250 O   0  0  0  0  0  0  0  0  0  0  0  0
  139.8450   77.1970  221.4150 N   0  0  0  0  0  0  0  0  0  0  0  0
  139.0310   78.3490  221.0210 C   0  0  0  0  0  0  0  0  0  0  0  0
  139.8320   78.9600  219.8910 C   0  0  2  0  0  0  0  0  0  0  0  0
  139.0220   79.0840  218.7450 O   0  0  0  0  0  0  0  0  0  0  0  0
  140.9860   78.0030  219.6430 C   0  0  0  0  0  0  0  0  0  0  0  0
  141.2350   77.5280  221.0810 C   0  0  1  0  0  0  0  0  0  0  0  0
  141.6300   78.6280  221.9750 C   0  0  0  0  0  0  0  0  0  0  0  0
  141.4540   78.5420  223.3480 C   0  0  0  0  0  0  0  0  0  0  0  0
  141.8200   79.5650  224.2030 C   0  0  0  0  0  0  0  0  0  0  0  0
  142.3910   80.7380  223.6990 C   0  0  0  0  0  0  0  0  0  0  0  0
  142.5630   80.8180  222.3480 C   0  0  0  0  0  0  0  0  0  0  0  0
  142.1940   79.7920  221.5000 C   0  0  0  0  0  0  0  0  0  0  0  0
  140.1560   71.3790  223.2810 C   0  0  0  0  0  0  0  0  0  0  0  0
  139.2890   70.3680  222.8910 C   0  0  0  0  0  0  0  0  0  0  0  0
  139.0220   69.3290  223.7830 C   0  0  0  0  0  0  0  0  0  0  0  0
  139.5850   69.2670  225.0260 C   0  0  0  0  0  0  0  0  0  0  0  0
  139.3530   68.2650  225.9380 C   0  0  0  0  0  0  0  0  0  0  0  0
  139.9650   68.2740  227.1910 C   0  0  0  0  0  0  0  0  0  0  0  0
  140.8160   69.2970  227.5310 C   0  0  0  0  0  0  0  0  0  0  0  0
  141.4340   69.3470  228.7390 F   0  0  0  0  0  0  0  0  0  0  0  0
  141.0570   70.3080  226.6270 C   0  0  0  0  0  0  0  0  0  0  0  0
  140.4500   70.3070  225.3730 C   0  0  0  0  0  0  0  0  0  0  0  0
  140.6990   71.3050  224.5060 N   0  0  0  0  0  0  0  0  0  0  0  0
  138.7730   73.6450  223.0040 H   0  0  0  0  0  0  0  0  0  0  0  0
  140.9524   74.8046  221.3699 H   0  0  0  0  0  0  0  0  0  0  0  0
  139.3408   74.5106  220.5565 H   0  0  0  0  0  0  0  0  0  0  0  0
  138.0368   78.0307  220.6741 H   0  0  0  0  0  0  0  0  0  0  0  0
  138.8422   79.0499  221.8475 H   0  0  0  0  0  0  0  0  0  0  0  0
  140.1992   79.9674  220.1363 H   0  0  0  0  0  0  0  0  0  0  0  0
  138.0700   79.0320  219.0150 H   0  0  0  0  0  0  0  0  0  0  0  0
  140.6961   77.1735  218.9813 H   0  0  0  0  0  0  0  0  0  0  0  0
  141.8584   78.4428  219.1376 H   0  0  0  0  0  0  0  0  0  0  0  0
  142.0144   76.7575  221.1753 H   0  0  0  0  0  0  0  0  0  0  0  0
  141.0084   77.6295  223.7708 H   0  0  0  0  0  0  0  0  0  0  0  0
  141.6612   79.4557  225.2860 H   0  0  0  0  0  0  0  0  0  0  0  0
  142.6890   81.5618  224.3642 H   0  0  0  0  0  0  0  0  0  0  0  0
  143.0095   81.7280  221.9207 H   0  0  0  0  0  0  0  0  0  0  0  0
  142.3545   79.9071  220.4179 H   0  0  0  0  0  0  0  0  0  0  0  0
  138.8205   70.3855  221.8959 H   0  0  0  0  0  0  0  0  0  0  0  0
  138.3323   68.5298  223.4737 H   0  0  0  0  0  0  0  0  0  0  0  0
  138.6727   67.4417  225.6748 H   0  0  0  0  0  0  0  0  0  0  0  0
  139.7663   67.4624  227.9065 H   0  0  0  0  0  0  0  0  0  0  0  0
  141.7383   71.1277  226.8990 H   0  0  0  0  0  0  0  0  0  0  0  0
  1  2  2  0
  2  3  1  0
  3  4  1  0
  4  5  1  0
  5  6  2  0
  5  7  1  0
  7  8  1  0
  8  9  1  0
  9 10  1  0
  9 11  1  0
 11 12  1  0
 12 13  1  0
 13 14  2  0
 14 15  1  0
 15 16  2  0
 16 17  1  0
 17 18  2  0
  2 19  1  0
 19 20  2  0
 20 21  1  0
 21 22  2  0
 22 23  1  0
 23 24  2  0
 24 25  1  0
 25 26  1  0
 25 27  2  0
 27 28  1  0
 28 29  2  0
 12  7  1  0
 18 13  1  0
 29 19  1  0
 28 22  1  0
  3 30  1  0
  4 31  1  0
  4 32  1  0
  8 33  1  0
  8 34  1  0
  9 35  1  1
 10 36  1  0
 11 37  1  0
 11 38  1  0
 12 39  1  6
 14 40  1  0
 15 41  1  0
 16 42  1  0
 17 43  1  0
 18 44  1  0
 20 45  1  0
 21 46  1  0
 23 47  1  0
 24 48  1  0
 27 49  1  0
M  END
>  <smiles>  (15) 
O=C(NCC(=O)N1C[C@H](O)C[C@H]1c1ccccc1)c1ccc2ccc(F)cc2n1

>  <score_type>  (15) 
oracle

>  <origin>  (15) 
autodockgpu

>  <m_score__min__energy>  (15) 
-8.2200000000000006

>  <m_primary>  (15) 
energy

>  <rmsd>  (15) 
2.3327306408820325

>  <m_score__min__rmsd>  (15) 
2.3327306408820325

>  <meeko>  (15) 
{"free_energy": -8.08, "intermolecular_energy": -9.87, "internal_energy": -1.29, "cluster_size": 31, "cluster_id": 2, "rank_in_cluster": 8}

>  <energy>  (15) 
-8.08

>  <cluster_rmsd>  (15) 
1.58

>  <cluster>  (15) 
2

$$$$

     RDKit          3D

 49 52  0  0  0  0  0  0  0  0999 V2000
  139.1470   74.0400  220.6800 O   0  0  0  0  0  0  0  0  0  0  0  0
  140.1160   73.4210  221.2000 C   0  0  0  0  0  0  0  0  0  0  0  0
  141.4360   73.6700  220.7670 N   0  0  0  0  0  0  0  0  0  0  0  0
  141.6850   74.6260  219.7370 C   0  0  0  0  0  0  0  0  0  0  0  0
  142.0210   75.9660  220.2410 C   0  0  0  0  0  0  0  0  0  0  0  0
  143.0910   76.5770  220.0000 O   0  0  0  0  0  0  0  0  0  0  0  0
  141.0700   76.6320  221.0650 N   0  0  0  0  0  0  0  0  0  0  0  0
  140.6080   76.1700  222.3750 C   0  0  0  0  0  0  0  0  0  0  0  0
  139.2160   76.7560  222.4710 C   0  0  2  0  0  0  0  0  0  0  0  0
  138.2840   75.7340  222.7380 O   0  0  0  0  0  0  0  0  0  0  0  0
  138.9480   77.3990  221.1200 C   0  0  0  0  0  0  0  0  0  0  0  0
  140.3650   77.8880  220.7880 C   0  0  1  0  0  0  0  0  0  0  0  0
  140.8610   78.8720  221.7620 C   0  0  0  0  0  0  0  0  0  0  0  0
  139.9950   79.7080  222.4510 C   0  0  0  0  0  0  0  0  0  0  0  0
  140.4440   80.6390  223.3700 C   0  0  0  0  0  0  0  0  0  0  0  0
  141.8100   80.7660  223.6380 C   0  0  0  0  0  0  0  0  0  0  0  0
  142.6590   79.9420  222.9580 C   0  0  0  0  0  0  0  0  0  0  0  0
  142.2040   79.0150  222.0410 C   0  0  0  0  0  0  0  0  0  0  0  0
  139.9070   72.4270  222.2640 C   0  0  0  0  0  0  0  0  0  0  0  0
  139.0990   71.3200  222.0450 C   0  0  0  0  0  0  0  0  0  0  0  0
  138.9230   70.4000  223.0790 C   0  0  0  0  0  0  0  0  0  0  0  0
  139.5190   70.5460  224.3000 C   0  0  0  0  0  0  0  0  0  0  0  0
  139.3760   69.6670  225.3480 C   0  0  0  0  0  0  0  0  0  0  0  0
  140.0170   69.8880  226.5660 C   0  0  0  0  0  0  0  0  0  0  0  0
  140.8070   70.9990  226.7340 C   0  0  0  0  0  0  0  0  0  0  0  0
  141.4500   71.2530  227.9020 F   0  0  0  0  0  0  0  0  0  0  0  0
  140.9590   71.8880  225.6930 C   0  0  0  0  0  0  0  0  0  0  0  0
  140.3220   71.6760  224.4720 C   0  0  0  0  0  0  0  0  0  0  0  0
  140.4840   72.5570  223.4690 N   0  0  0  0  0  0  0  0  0  0  0  0
  142.2400   73.1590  221.1960 H   0  0  0  0  0  0  0  0  0  0  0  0
  142.5242   74.2652  219.1242 H   0  0  0  0  0  0  0  0  0  0  0  0
  140.7543   74.7247  219.1590 H   0  0  0  0  0  0  0  0  0  0  0  0
  140.5783   75.0713  222.4189 H   0  0  0  0  0  0  0  0  0  0  0  0
  141.2662   76.4787  223.2005 H   0  0  0  0  0  0  0  0  0  0  0  0
  139.1287   77.4915  223.2843 H   0  0  0  0  0  0  0  0  0  0  0  0
  138.7450   74.8580  222.6920 H   0  0  0  0  0  0  0  0  0  0  0  0
  138.5825   76.6687  220.3830 H   0  0  0  0  0  0  0  0  0  0  0  0
  138.1709   78.1775  221.1174 H   0  0  0  0  0  0  0  0  0  0  0  0
  140.4624   78.3572  219.7978 H   0  0  0  0  0  0  0  0  0  0  0  0
  138.9146   79.6279  222.2601 H   0  0  0  0  0  0  0  0  0  0  0  0
  139.7219   81.2833  223.8930 H   0  0  0  0  0  0  0  0  0  0  0  0
  142.1850   81.4997  224.3668 H   0  0  0  0  0  0  0  0  0  0  0  0
  143.7401   80.0186  223.1462 H   0  0  0  0  0  0  0  0  0  0  0  0
  142.9310   78.3746  221.5201 H   0  0  0  0  0  0  0  0  0  0  0  0
  138.6060   71.1706  221.0731 H   0  0  0  0  0  0  0  0  0  0  0  0
  138.2804   69.5243  222.9048 H   0  0  0  0  0  0  0  0  0  0  0  0
  138.7452   68.7745  225.2230 H   0  0  0  0  0  0  0  0  0  0  0  0
  139.8902   69.1730  227.3922 H   0  0  0  0  0  0  0  0  0  0  0  0
  141.5919   72.7776  225.8274 H   0  0  0  0  0  0  0  0  0  0  0  0
  1  2  2  0
  2  3  1  0
  3  4  1  0
  4  5  1  0
  5  6  2  0
  5  7  1  0
  7  8  1  0
  8  9  1  0
  9 10  1  0
  9 11  1  0
 11 12  1  0
 12 13  1  0
 13 14  2  0
 14 15  1  0
 15 16  2  0
 16 17  1  0
 17 18  2  0
  2 19  1  0
 19 20  2  0
 20 21  1  0
 21 22  2  0
 22 23  1  0
 23 24  2  0
 24 25  1  0
 25 26  1  0
 25 27  2  0
 27 28  1  0
 28 29  2  0
 12  7  1  0
 18 13  1  0
 29 19  1  0
 28 22  1  0
  3 30  1  0
  4 31  1  0
  4 32  1  0
  8 33  1  0
  8 34  1  0
  9 35  1  1
 10 36  1  0
 11 37  1  0
 11 38  1  0
 12 39  1  6
 14 40  1  0
 15 41  1  0
 16 42  1  0
 17 43  1  0
 18 44  1  0
 20 45  1  0
 21 46  1  0
 23 47  1  0
 24 48  1  0
 27 49  1  0
M  END
>  <smiles>  (16) 
O=C(NCC(=O)N1C[C@H](O)C[C@H]1c1ccccc1)c1ccc2ccc(F)cc2n1

>  <score_type>  (16) 
oracle

>  <origin>  (16) 
autodockgpu

>  <m_score__min__energy>  (16) 
-8.2200000000000006

>  <m_primary>  (16) 
energy

>  <rmsd>  (16) 
3.225668740420064

>  <m_score__min__rmsd>  (16) 
3.225668740420064

>  <meeko>  (16) 
{"free_energy": -7.04, "intermolecular_energy": -8.83, "internal_energy": -2.19, "cluster_size": 31, "cluster_id": 2, "rank_in_cluster": 28}

>  <energy>  (16) 
-8.07

>  <cluster_rmsd>  (16) 
1.17

>  <cluster>  (16) 
2

$$$$

     RDKit          3D

 49 52  0  0  0  0  0  0  0  0999 V2000
  141.4060   72.4260  221.4850 O   0  0  0  0  0  0  0  0  0  0  0  0
  140.4580   72.5040  222.3150 C   0  0  0  0  0  0  0  0  0  0  0  0
  139.6460   73.6560  222.3620 N   0  0  0  0  0  0  0  0  0  0  0  0
  139.8900   74.7440  221.4700 C   0  0  0  0  0  0  0  0  0  0  0  0
  139.3700   76.0330  221.9510 C   0  0  0  0  0  0  0  0  0  0  0  0
  138.4940   76.1680  222.8410 O   0  0  0  0  0  0  0  0  0  0  0  0
  139.8910   77.2250  221.3740 N   0  0  0  0  0  0  0  0  0  0  0  0
  139.0990   78.3770  220.9400 C   0  0  0  0  0  0  0  0  0  0  0  0
  139.9460   78.9790  219.8390 C   0  0  2  0  0  0  0  0  0  0  0  0
  139.1840   79.0980  218.6610 O   0  0  0  0  0  0  0  0  0  0  0  0
  141.1060   78.0150  219.6430 C   0  0  0  0  0  0  0  0  0  0  0  0
  141.2940   77.5490  221.0930 C   0  0  1  0  0  0  0  0  0  0  0  0
  141.6590   78.6520  221.9950 C   0  0  0  0  0  0  0  0  0  0  0  0
  141.4680   78.5590  223.3660 C   0  0  0  0  0  0  0  0  0  0  0  0
  141.8040   79.5860  224.2290 C   0  0  0  0  0  0  0  0  0  0  0  0
  142.3590   80.7700  223.7350 C   0  0  0  0  0  0  0  0  0  0  0  0
  142.5460   80.8580  222.3870 C   0  0  0  0  0  0  0  0  0  0  0  0
  142.2070   79.8290  221.5310 C   0  0  0  0  0  0  0  0  0  0  0  0
  140.1710   71.4080  223.2530 C   0  0  0  0  0  0  0  0  0  0  0  0
  139.3340   70.3650  222.8810 C   0  0  0  0  0  0  0  0  0  0  0  0
  139.0850   69.3440  223.7980 C   0  0  0  0  0  0  0  0  0  0  0  0
  139.6350   69.3310  225.0490 C   0  0  0  0  0  0  0  0  0  0  0  0
  139.4180   68.3470  225.9860 C   0  0  0  0  0  0  0  0  0  0  0  0
  140.0170   68.4070  227.2440 C   0  0  0  0  0  0  0  0  0  0  0  0
  140.8380   69.4600  227.5640 C   0  0  0  0  0  0  0  0  0  0  0  0
  141.4410   69.5580  228.7760 F   0  0  0  0  0  0  0  0  0  0  0  0
  141.0630   70.4520  226.6360 C   0  0  0  0  0  0  0  0  0  0  0  0
  140.4690   70.4020  225.3760 C   0  0  0  0  0  0  0  0  0  0  0  0
  140.7020   71.3810  224.4840 N   0  0  0  0  0  0  0  0  0  0  0  0
  138.8600   73.7240  223.0490 H   0  0  0  0  0  0  0  0  0  0  0  0
  140.9766   74.8394  221.3282 H   0  0  0  0  0  0  0  0  0  0  0  0
  139.3620   74.5148  220.5326 H   0  0  0  0  0  0  0  0  0  0  0  0
  138.1183   78.0600  220.5556 H   0  0  0  0  0  0  0  0  0  0  0  0
  138.8809   79.0839  221.7541 H   0  0  0  0  0  0  0  0  0  0  0  0
  140.3058   79.9871  220.0927 H   0  0  0  0  0  0  0  0  0  0  0  0
  139.7240   78.7780  217.8940 H   0  0  0  0  0  0  0  0  0  0  0  0
  140.8396   77.1823  218.9754 H   0  0  0  0  0  0  0  0  0  0  0  0
  142.0000   78.4474  219.1700 H   0  0  0  0  0  0  0  0  0  0  0  0
  142.0654   76.7757  221.2231 H   0  0  0  0  0  0  0  0  0  0  0  0
  141.0345   77.6370  223.7807 H   0  0  0  0  0  0  0  0  0  0  0  0
  141.6337   79.4706  225.3096 H   0  0  0  0  0  0  0  0  0  0  0  0
  142.6337   81.5971  224.4062 H   0  0  0  0  0  0  0  0  0  0  0  0
  142.9806   81.7777  221.9684 H   0  0  0  0  0  0  0  0  0  0  0  0
  142.3785   79.9514  220.4514 H   0  0  0  0  0  0  0  0  0  0  0  0
  138.8755   70.3441  221.8813 H   0  0  0  0  0  0  0  0  0  0  0  0
  138.4209   68.5181  223.5032 H   0  0  0  0  0  0  0  0  0  0  0  0
  138.7616   67.4996  225.7389 H   0  0  0  0  0  0  0  0  0  0  0  0
  139.8317   67.6107  227.9799 H   0  0  0  0  0  0  0  0  0  0  0  0
  141.7206   71.2956  226.8925 H   0  0  0  0  0  0  0  0  0  0  0  0
  1  2  2  0
  2  3  1  0
  3  4  1  0
  4  5  1  0
  5  6  2  0
  5  7  1  0
  7  8  1  0
  8  9  1  0
  9 10  1  0
  9 11  1  0
 11 12  1  0
 12 13  1  0
 13 14  2  0
 14 15  1  0
 15 16  2  0
 16 17  1  0
 17 18  2  0
  2 19  1  0
 19 20  2  0
 20 21  1  0
 21 22  2  0
 22 23  1  0
 23 24  2  0
 24 25  1  0
 25 26  1  0
 25 27  2  0
 27 28  1  0
 28 29  2  0
 12  7  1  0
 18 13  1  0
 29 19  1  0
 28 22  1  0
  3 30  1  0
  4 31  1  0
  4 32  1  0
  8 33  1  0
  8 34  1  0
  9 35  1  1
 10 36  1  0
 11 37  1  0
 11 38  1  0
 12 39  1  6
 14 40  1  0
 15 41  1  0
 16 42  1  0
 17 43  1  0
 18 44  1  0
 20 45  1  0
 21 46  1  0
 23 47  1  0
 24 48  1  0
 27 49  1  0
M  END
>  <smiles>  (17) 
O=C(NCC(=O)N1C[C@H](O)C[C@H]1c1ccccc1)c1ccc2ccc(F)cc2n1

>  <score_type>  (17) 
oracle

>  <origin>  (17) 
autodockgpu

>  <m_score__min__energy>  (17) 
-8.2200000000000006

>  <m_primary>  (17) 
energy

>  <rmsd>  (17) 
2.3182495368714666

>  <m_score__min__rmsd>  (17) 
2.3182495368714666

>  <meeko>  (17) 
{"free_energy": -8.06, "intermolecular_energy": -9.85, "internal_energy": -1.27, "cluster_size": 31, "cluster_id": 2, "rank_in_cluster": 12}

>  <energy>  (17) 
-8.06

>  <cluster_rmsd>  (17) 
1.2

>  <cluster>  (17) 
2

$$$$

     RDKit          3D

 49 52  0  0  0  0  0  0  0  0999 V2000
  140.9210   72.3420  221.3850 O   0  0  0  0  0  0  0  0  0  0  0  0
  140.1080   72.5950  222.3180 C   0  0  0  0  0  0  0  0  0  0  0  0
  139.3240   73.7670  222.2810 N   0  0  0  0  0  0  0  0  0  0  0  0
  139.4440   74.6770  221.1870 C   0  0  0  0  0  0  0  0  0  0  0  0
  139.1310   76.0700  221.5390 C   0  0  0  0  0  0  0  0  0  0  0  0
  138.1110   76.4400  222.1710 O   0  0  0  0  0  0  0  0  0  0  0  0
  140.0460   77.0850  221.1390 N   0  0  0  0  0  0  0  0  0  0  0  0
  139.7630   78.1560  220.1810 C   0  0  0  0  0  0  0  0  0  0  0  0
  141.1280   78.4670  219.6060 C   0  0  2  0  0  0  0  0  0  0  0  0
  141.0880   78.3690  218.2010 O   0  0  0  0  0  0  0  0  0  0  0  0
  142.0680   77.4290  220.1980 C   0  0  0  0  0  0  0  0  0  0  0  0
  141.4300   77.2730  221.5860 C   0  0  1  0  0  0  0  0  0  0  0  0
  141.4560   78.5250  222.3580 C   0  0  0  0  0  0  0  0  0  0  0  0
  140.3640   78.9330  223.1090 C   0  0  0  0  0  0  0  0  0  0  0  0
  140.3690   80.1060  223.8410 C   0  0  0  0  0  0  0  0  0  0  0  0
  141.5000   80.9290  223.8480 C   0  0  0  0  0  0  0  0  0  0  0  0
  142.5720   80.5240  223.1090 C   0  0  0  0  0  0  0  0  0  0  0  0
  142.5590   79.3510  222.3800 C   0  0  0  0  0  0  0  0  0  0  0  0
  139.9520   71.6870  223.4640 C   0  0  0  0  0  0  0  0  0  0  0  0
  139.1190   70.5800  223.3770 C   0  0  0  0  0  0  0  0  0  0  0  0
  138.9960   69.7420  224.4860 C   0  0  0  0  0  0  0  0  0  0  0  0
  139.6670   69.9680  225.6540 C   0  0  0  0  0  0  0  0  0  0  0  0
  139.5780   69.1710  226.7710 C   0  0  0  0  0  0  0  0  0  0  0  0
  140.2950   69.4710  227.9290 C   0  0  0  0  0  0  0  0  0  0  0  0
  141.1070   70.5770  227.9660 C   0  0  0  0  0  0  0  0  0  0  0  0
  141.8230   70.9070  229.0710 F   0  0  0  0  0  0  0  0  0  0  0  0
  141.2060   71.3840  226.8540 C   0  0  0  0  0  0  0  0  0  0  0  0
  140.4930   71.0930  225.6930 C   0  0  0  0  0  0  0  0  0  0  0  0
  140.6030   71.8950  224.6190 N   0  0  0  0  0  0  0  0  0  0  0  0
  138.6510   73.9800  223.0520 H   0  0  0  0  0  0  0  0  0  0  0  0
  140.4781   74.6371  220.8141 H   0  0  0  0  0  0  0  0  0  0  0  0
  138.7115   74.3651  220.4280 H   0  0  0  0  0  0  0  0  0  0  0  0
  139.0724   77.8127  219.3967 H   0  0  0  0  0  0  0  0  0  0  0  0
  139.2758   79.0296  220.6385 H   0  0  0  0  0  0  0  0  0  0  0  0
  141.4603   79.4871  219.8487 H   0  0  0  0  0  0  0  0  0  0  0  0
  140.6100   79.1570  217.8370 H   0  0  0  0  0  0  0  0  0  0  0  0
  142.0500   76.4873  219.6297 H   0  0  0  0  0  0  0  0  0  0  0  0
  143.1321   77.7076  220.2001 H   0  0  0  0  0  0  0  0  0  0  0  0
  141.9033   76.5088  222.2200 H   0  0  0  0  0  0  0  0  0  0  0  0
  139.4631   78.3020  223.1228 H   0  0  0  0  0  0  0  0  0  0  0  0
  139.4793   80.3933  224.4206 H   0  0  0  0  0  0  0  0  0  0  0  0
  141.5237   81.8646  224.4260 H   0  0  0  0  0  0  0  0  0  0  0  0
  143.4755   81.1512  223.0929 H   0  0  0  0  0  0  0  0  0  0  0  0
  143.4516   79.0689  221.8024 H   0  0  0  0  0  0  0  0  0  0  0  0
  138.5657   70.3672  222.4504 H   0  0  0  0  0  0  0  0  0  0  0  0
  138.3337   68.8664  224.4169 H   0  0  0  0  0  0  0  0  0  0  0  0
  138.9305   68.2820  226.7509 H   0  0  0  0  0  0  0  0  0  0  0  0
  140.2098   68.8213  228.8126 H   0  0  0  0  0  0  0  0  0  0  0  0
  141.8569   72.2703  226.8831 H   0  0  0  0  0  0  0  0  0  0  0  0
  1  2  2  0
  2  3  1  0
  3  4  1  0
  4  5  1  0
  5  6  2  0
  5  7  1  0
  7  8  1  0
  8  9  1  0
  9 10  1  0
  9 11  1  0
 11 12  1  0
 12 13  1  0
 13 14  2  0
 14 15  1  0
 15 16  2  0
 16 17  1  0
 17 18  2  0
  2 19  1  0
 19 20  2  0
 20 21  1  0
 21 22  2  0
 22 23  1  0
 23 24  2  0
 24 25  1  0
 25 26  1  0
 25 27  2  0
 27 28  1  0
 28 29  2  0
 12  7  1  0
 18 13  1  0
 29 19  1  0
 28 22  1  0
  3 30  1  0
  4 31  1  0
  4 32  1  0
  8 33  1  0
  8 34  1  0
  9 35  1  6
 10 36  1  0
 11 37  1  0
 11 38  1  0
 12 39  1  1
 14 40  1  0
 15 41  1  0
 16 42  1  0
 17 43  1  0
 18 44  1  0
 20 45  1  0
 21 46  1  0
 23 47  1  0
 24 48  1  0
 27 49  1  0
M  END
>  <smiles>  (18) 
O=C(NCC(=O)N1C[C@H](O)C[C@H]1c1ccccc1)c1ccc2ccc(F)cc2n1

>  <score_type>  (18) 
oracle

>  <origin>  (18) 
autodockgpu

>  <m_score__min__energy>  (18) 
-8.2200000000000006

>  <m_primary>  (18) 
energy

>  <rmsd>  (18) 
2.201637022934148

>  <m_score__min__rmsd>  (18) 
2.201637022934148

>  <meeko>  (18) 
{"free_energy": -8.11, "intermolecular_energy": -9.9, "internal_energy": -1.25, "cluster_size": 31, "cluster_id": 2, "rank_in_cluster": 5}

>  <energy>  (18) 
-8.06

>  <cluster_rmsd>  (18) 
1.0

>  <cluster>  (18) 
2

$$$$

     RDKit          3D

 49 52  0  0  0  0  0  0  0  0999 V2000
  141.0370   72.3980  221.6900 O   0  0  0  0  0  0  0  0  0  0  0  0
  140.0280   72.4200  222.4490 C   0  0  0  0  0  0  0  0  0  0  0  0
  139.0570   73.4350  222.3140 N   0  0  0  0  0  0  0  0  0  0  0  0
  139.2080   74.4440  221.3150 C   0  0  0  0  0  0  0  0  0  0  0  0
  140.2980   75.3920  221.5920 C   0  0  0  0  0  0  0  0  0  0  0  0
  141.4550   75.0700  221.9600 O   0  0  0  0  0  0  0  0  0  0  0  0
  140.0360   76.7820  221.4330 N   0  0  0  0  0  0  0  0  0  0  0  0
  138.8400   77.4820  221.9060 C   0  0  0  0  0  0  0  0  0  0  0  0
  138.7160   78.6380  220.9370 C   0  0  2  0  0  0  0  0  0  0  0  0
  137.4360   78.6350  220.3500 O   0  0  0  0  0  0  0  0  0  0  0  0
  139.7960   78.4120  219.8910 C   0  0  0  0  0  0  0  0  0  0  0  0
  140.8810   77.7870  220.7780 C   0  0  1  0  0  0  0  0  0  0  0  0
  141.3390   78.7030  221.8340 C   0  0  0  0  0  0  0  0  0  0  0  0
  141.4690   78.2820  223.1490 C   0  0  0  0  0  0  0  0  0  0  0  0
  141.8980   79.1290  224.1560 C   0  0  0  0  0  0  0  0  0  0  0  0
  142.2210   80.4580  223.8690 C   0  0  0  0  0  0  0  0  0  0  0  0
  142.0930   80.8680  222.5750 C   0  0  0  0  0  0  0  0  0  0  0  0
  141.6630   80.0170  221.5760 C   0  0  0  0  0  0  0  0  0  0  0  0
  139.8310   71.4010  223.4910 C   0  0  0  0  0  0  0  0  0  0  0  0
  138.9050   70.3830  223.3140 C   0  0  0  0  0  0  0  0  0  0  0  0
  138.7460   69.4340  224.3250 C   0  0  0  0  0  0  0  0  0  0  0  0
  139.4710   69.4690  225.4830 C   0  0  0  0  0  0  0  0  0  0  0  0
  139.3490   68.5580  226.5060 C   0  0  0  0  0  0  0  0  0  0  0  0
  140.1260   68.6630  227.6590 C   0  0  0  0  0  0  0  0  0  0  0  0
  141.0300   69.6880  227.7870 C   0  0  0  0  0  0  0  0  0  0  0  0
  141.8060   69.8280  228.8920 F   0  0  0  0  0  0  0  0  0  0  0  0
  141.1610   70.6080  226.7710 C   0  0  0  0  0  0  0  0  0  0  0  0
  140.3900   70.5120  225.6140 C   0  0  0  0  0  0  0  0  0  0  0  0
  140.5340   71.4210  224.6340 N   0  0  0  0  0  0  0  0  0  0  0  0
  138.2210   73.4560  222.9400 H   0  0  0  0  0  0  0  0  0  0  0  0
  139.4119   73.9520  220.3525 H   0  0  0  0  0  0  0  0  0  0  0  0
  138.2735   75.0241  221.3002 H   0  0  0  0  0  0  0  0  0  0  0  0
  137.9555   76.8298  221.8585 H   0  0  0  0  0  0  0  0  0  0  0  0
  138.9122   77.8024  222.9558 H   0  0  0  0  0  0  0  0  0  0  0  0
  138.8403   79.6124  221.4320 H   0  0  0  0  0  0  0  0  0  0  0  0
  136.7830   79.0030  220.9990 H   0  0  0  0  0  0  0  0  0  0  0  0
  139.4642   77.7222  219.1010 H   0  0  0  0  0  0  0  0  0  0  0  0
  140.1051   79.3098  219.3357 H   0  0  0  0  0  0  0  0  0  0  0  0
  141.7821   77.4670  220.2343 H   0  0  0  0  0  0  0  0  0  0  0  0
  141.2228   77.2397  223.4001 H   0  0  0  0  0  0  0  0  0  0  0  0
  141.9851   78.7545  225.1866 H   0  0  0  0  0  0  0  0  0  0  0  0
  142.5647   81.1458  224.6556 H   0  0  0  0  0  0  0  0  0  0  0  0
  142.3399   81.9089  222.3188 H   0  0  0  0  0  0  0  0  0  0  0  0
  141.5769   80.3981  220.5477 H   0  0  0  0  0  0  0  0  0  0  0  0
  138.3066   70.3249  222.3929 H   0  0  0  0  0  0  0  0  0  0  0  0
  138.0103   68.6284  224.1846 H   0  0  0  0  0  0  0  0  0  0  0  0
  138.6269   67.7334  226.4132 H   0  0  0  0  0  0  0  0  0  0  0  0
  140.0145   67.9242  228.4663 H   0  0  0  0  0  0  0  0  0  0  0  0
  141.8843   71.4303  226.8740 H   0  0  0  0  0  0  0  0  0  0  0  0
  1  2  2  0
  2  3  1  0
  3  4  1  0
  4  5  1  0
  5  6  2  0
  5  7  1  0
  7  8  1  0
  8  9  1  0
  9 10  1  0
  9 11  1  0
 11 12  1  0
 12 13  1  0
 13 14  2  0
 14 15  1  0
 15 16  2  0
 16 17  1  0
 17 18  2  0
  2 19  1  0
 19 20  2  0
 20 21  1  0
 21 22  2  0
 22 23  1  0
 23 24  2  0
 24 25  1  0
 25 26  1  0
 25 27  2  0
 27 28  1  0
 28 29  2  0
 12  7  1  0
 18 13  1  0
 29 19  1  0
 28 22  1  0
  3 30  1  0
  4 31  1  0
  4 32  1  0
  8 33  1  0
  8 34  1  0
  9 35  1  1
 10 36  1  0
 11 37  1  0
 11 38  1  0
 12 39  1  6
 14 40  1  0
 15 41  1  0
 16 42  1  0
 17 43  1  0
 18 44  1  0
 20 45  1  0
 21 46  1  0
 23 47  1  0
 24 48  1  0
 27 49  1  0
M  END
>  <smiles>  (19) 
O=C(NCC(=O)N1C[C@H](O)C[C@H]1c1ccccc1)c1ccc2ccc(F)cc2n1

>  <score_type>  (19) 
oracle

>  <origin>  (19) 
autodockgpu

>  <m_score__min__energy>  (19) 
-8.2200000000000006

>  <m_primary>  (19) 
energy

>  <rmsd>  (19) 
2.275655340239042

>  <m_score__min__rmsd>  (19) 
2.275655340239042

>  <meeko>  (19) 
{"free_energy": -8.2, "intermolecular_energy": -9.99, "internal_energy": -1.03, "cluster_size": 31, "cluster_id": 2, "rank_in_cluster": 1}

>  <energy>  (19) 
-8.06

>  <cluster_rmsd>  (19) 
1.03

>  <cluster>  (19) 
2

$$$$

     RDKit          3D

 49 52  0  0  0  0  0  0  0  0999 V2000
  141.4780   72.5410  221.5700 O   0  0  0  0  0  0  0  0  0  0  0  0
  140.4770   72.5770  222.3390 C   0  0  0  0  0  0  0  0  0  0  0  0
  139.6170   73.6960  222.3350 N   0  0  0  0  0  0  0  0  0  0  0  0
  139.8730   74.7950  221.4610 C   0  0  0  0  0  0  0  0  0  0  0  0
  139.2180   76.0460  221.8750 C   0  0  0  0  0  0  0  0  0  0  0  0
  138.2310   76.1180  222.6480 O   0  0  0  0  0  0  0  0  0  0  0  0
  139.7330   77.2730  221.3690 N   0  0  0  0  0  0  0  0  0  0  0  0
  138.9470   78.4760  221.0930 C   0  0  0  0  0  0  0  0  0  0  0  0
  139.7360   79.1540  219.9930 C   0  0  2  0  0  0  0  0  0  0  0  0
  138.9020   79.3940  218.8840 O   0  0  0  0  0  0  0  0  0  0  0  0
  140.8530   78.1870  219.6360 C   0  0  0  0  0  0  0  0  0  0  0  0
  141.1240   77.5890  221.0240 C   0  0  1  0  0  0  0  0  0  0  0  0
  141.5770   78.6000  221.9920 C   0  0  0  0  0  0  0  0  0  0  0  0
  142.1960   79.7700  221.5780 C   0  0  0  0  0  0  0  0  0  0  0  0
  142.6290   80.7320  222.4730 C   0  0  0  0  0  0  0  0  0  0  0  0
  142.4500   80.5490  223.8470 C   0  0  0  0  0  0  0  0  0  0  0  0
  141.8400   79.3980  224.2500 C   0  0  0  0  0  0  0  0  0  0  0  0
  141.4110   78.4420  223.3510 C   0  0  0  0  0  0  0  0  0  0  0  0
  140.1750   71.4680  223.2550 C   0  0  0  0  0  0  0  0  0  0  0  0
  139.3260   70.4420  222.8630 C   0  0  0  0  0  0  0  0  0  0  0  0
  139.0640   69.4060  223.7610 C   0  0  0  0  0  0  0  0  0  0  0  0
  139.6120   69.3630  225.0120 C   0  0  0  0  0  0  0  0  0  0  0  0
  139.3830   68.3650  225.9300 C   0  0  0  0  0  0  0  0  0  0  0  0
  139.9800   68.3940  227.1890 C   0  0  0  0  0  0  0  0  0  0  0  0
  140.8130   69.4310  227.5300 C   0  0  0  0  0  0  0  0  0  0  0  0
  141.4160   69.4990  228.7440 F   0  0  0  0  0  0  0  0  0  0  0  0
  141.0520   70.4380  226.6210 C   0  0  0  0  0  0  0  0  0  0  0  0
  140.4590   70.4180  225.3590 C   0  0  0  0  0  0  0  0  0  0  0  0
  140.7050   71.4110  224.4870 N   0  0  0  0  0  0  0  0  0  0  0  0
  138.7870   73.7290  222.9700 H   0  0  0  0  0  0  0  0  0  0  0  0
  140.9591   74.9663  221.4277 H   0  0  0  0  0  0  0  0  0  0  0  0
  139.4597   74.5263  220.4776 H   0  0  0  0  0  0  0  0  0  0  0  0
  137.9343   78.2166  220.7508 H   0  0  0  0  0  0  0  0  0  0  0  0
  138.8034   79.1124  221.9786 H   0  0  0  0  0  0  0  0  0  0  0  0
  140.1393   80.1276  220.3083 H   0  0  0  0  0  0  0  0  0  0  0  0
  138.1600   78.7370  218.8900 H   0  0  0  0  0  0  0  0  0  0  0  0
  140.5204   77.4230  218.9179 H   0  0  0  0  0  0  0  0  0  0  0  0
  141.7255   78.6409  219.1434 H   0  0  0  0  0  0  0  0  0  0  0  0
  141.8807   76.7907  221.0341 H   0  0  0  0  0  0  0  0  0  0  0  0
  142.3478   79.9388  220.5017 H   0  0  0  0  0  0  0  0  0  0  0  0
  143.1165   81.6454  222.1014 H   0  0  0  0  0  0  0  0  0  0  0  0
  142.7874   81.3027  224.5736 H   0  0  0  0  0  0  0  0  0  0  0  0
  141.6848   79.2257  225.3253 H   0  0  0  0  0  0  0  0  0  0  0  0
  140.9242   77.5309  223.7291 H   0  0  0  0  0  0  0  0  0  0  0  0
  138.8681   70.4454  221.8629 H   0  0  0  0  0  0  0  0  0  0  0  0
  138.3909   68.5935  223.4499 H   0  0  0  0  0  0  0  0  0  0  0  0
  138.7175   67.5298  225.6662 H   0  0  0  0  0  0  0  0  0  0  0  0
  139.7839   67.5862  227.9095 H   0  0  0  0  0  0  0  0  0  0  0  0
  141.7193   71.2687  226.8941 H   0  0  0  0  0  0  0  0  0  0  0  0
  1  2  2  0
  2  3  1  0
  3  4  1  0
  4  5  1  0
  5  6  2  0
  5  7  1  0
  7  8  1  0
  8  9  1  0
  9 10  1  0
  9 11  1  0
 11 12  1  0
 12 13  1  0
 13 14  2  0
 14 15  1  0
 15 16  2  0
 16 17  1  0
 17 18  2  0
  2 19  1  0
 19 20  2  0
 20 21  1  0
 21 22  2  0
 22 23  1  0
 23 24  2  0
 24 25  1  0
 25 26  1  0
 25 27  2  0
 27 28  1  0
 28 29  2  0
 12  7  1  0
 18 13  1  0
 29 19  1  0
 28 22  1  0
  3 30  1  0
  4 31  1  0
  4 32  1  0
  8 33  1  0
  8 34  1  0
  9 35  1  1
 10 36  1  0
 11 37  1  0
 11 38  1  0
 12 39  1  6
 14 40  1  0
 15 41  1  0
 16 42  1  0
 17 43  1  0
 18 44  1  0
 20 45  1  0
 21 46  1  0
 23 47  1  0
 24 48  1  0
 27 49  1  0
M  END
>  <smiles>  (20) 
O=C(NCC(=O)N1C[C@H](O)C[C@H]1c1ccccc1)c1ccc2ccc(F)cc2n1

>  <score_type>  (20) 
oracle

>  <origin>  (20) 
autodockgpu

>  <m_score__min__energy>  (20) 
-8.2200000000000006

>  <m_primary>  (20) 
energy

>  <rmsd>  (20) 
2.403237843467992

>  <m_score__min__rmsd>  (20) 
2.403237843467992

>  <meeko>  (20) 
{"free_energy": -8.06, "intermolecular_energy": -9.85, "internal_energy": -1.33, "cluster_size": 31, "cluster_id": 2, "rank_in_cluster": 14}

>  <energy>  (20) 
-8.0

>  <cluster_rmsd>  (20) 
1.0

>  <cluster>  (20) 
2

$$$$

     RDKit          3D

 49 52  0  0  0  0  0  0  0  0999 V2000
  140.4400   71.8420  220.9740 O   0  0  0  0  0  0  0  0  0  0  0  0
  140.1290   72.3520  222.0860 C   0  0  0  0  0  0  0  0  0  0  0  0
  139.8210   73.7250  222.1780 N   0  0  0  0  0  0  0  0  0  0  0  0
  139.8560   74.5490  221.0130 C   0  0  0  0  0  0  0  0  0  0  0  0
  140.8650   75.6180  221.0740 C   0  0  0  0  0  0  0  0  0  0  0  0
  140.8990   76.5260  221.9410 O   0  0  0  0  0  0  0  0  0  0  0  0
  141.8860   75.6340  220.0820 N   0  0  0  0  0  0  0  0  0  0  0  0
  142.7950   76.7510  219.8150 C   0  0  0  0  0  0  0  0  0  0  0  0
  143.1330   76.5730  218.3500 C   0  0  2  0  0  0  0  0  0  0  0  0
  142.8460   77.7580  217.6460 O   0  0  0  0  0  0  0  0  0  0  0  0
  142.2590   75.4260  217.8660 C   0  0  0  0  0  0  0  0  0  0  0  0
  142.2400   74.5680  219.1380 C   0  0  1  0  0  0  0  0  0  0  0  0
  143.5810   74.0980  219.5190 C   0  0  0  0  0  0  0  0  0  0  0  0
  144.4840   73.6430  218.5690 C   0  0  0  0  0  0  0  0  0  0  0  0
  145.7490   73.1980  218.9080 C   0  0  0  0  0  0  0  0  0  0  0  0
  146.1620   73.1950  220.2430 C   0  0  0  0  0  0  0  0  0  0  0  0
  145.2720   73.6430  221.1740 C   0  0  0  0  0  0  0  0  0  0  0  0
  144.0100   74.0860  220.8280 C   0  0  0  0  0  0  0  0  0  0  0  0
  140.0800   71.5410  223.3120 C   0  0  0  0  0  0  0  0  0  0  0  0
  139.5170   70.2720  223.2950 C   0  0  0  0  0  0  0  0  0  0  0  0
  139.4880   69.5340  224.4780 C   0  0  0  0  0  0  0  0  0  0  0  0
  139.9930   70.0120  225.6540 C   0  0  0  0  0  0  0  0  0  0  0  0
  139.9870   69.3220  226.8440 C   0  0  0  0  0  0  0  0  0  0  0  0
  140.5230   69.8810  228.0040 C   0  0  0  0  0  0  0  0  0  0  0  0
  141.0690   71.1400  227.9690 C   0  0  0  0  0  0  0  0  0  0  0  0
  141.6010   71.7220  229.0740 F   0  0  0  0  0  0  0  0  0  0  0  0
  141.0820   71.8430  226.7850 C   0  0  0  0  0  0  0  0  0  0  0  0
  140.5480   71.2930  225.6210 C   0  0  0  0  0  0  0  0  0  0  0  0
  140.5710   71.9970  224.4750 N   0  0  0  0  0  0  0  0  0  0  0  0
  139.5630   74.1510  223.0980 H   0  0  0  0  0  0  0  0  0  0  0  0
  140.0771   73.9121  220.1438 H   0  0  0  0  0  0  0  0  0  0  0  0
  138.8739   75.0384  220.9361 H   0  0  0  0  0  0  0  0  0  0  0  0
  142.2977   77.7162  219.9915 H   0  0  0  0  0  0  0  0  0  0  0  0
  143.6811   76.7539  220.4668 H   0  0  0  0  0  0  0  0  0  0  0  0
  144.1993   76.3546  218.1910 H   0  0  0  0  0  0  0  0  0  0  0  0
  143.6900   78.1280  217.2810 H   0  0  0  0  0  0  0  0  0  0  0  0
  141.2515   75.7675  217.5863 H   0  0  0  0  0  0  0  0  0  0  0  0
  142.6175   74.9138  216.9610 H   0  0  0  0  0  0  0  0  0  0  0  0
  141.6065   73.6713  219.0699 H   0  0  0  0  0  0  0  0  0  0  0  0
  144.1839   73.6359  217.5108 H   0  0  0  0  0  0  0  0  0  0  0  0
  146.4334   72.8446  218.1227 H   0  0  0  0  0  0  0  0  0  0  0  0
  147.1644   72.8454  220.5312 H   0  0  0  0  0  0  0  0  0  0  0  0
  145.5681   73.6519  222.2334 H   0  0  0  0  0  0  0  0  0  0  0  0
  143.3303   74.4381  221.6180 H   0  0  0  0  0  0  0  0  0  0  0  0
  139.1013   69.8562  222.3653 H   0  0  0  0  0  0  0  0  0  0  0  0
  139.0416   68.5288  224.4637 H   0  0  0  0  0  0  0  0  0  0  0  0
  139.5521   68.3123  226.8814 H   0  0  0  0  0  0  0  0  0  0  0  0
  140.5082   69.3134  228.9462 H   0  0  0  0  0  0  0  0  0  0  0  0
  141.5196   72.8519  226.7575 H   0  0  0  0  0  0  0  0  0  0  0  0
  1  2  2  0
  2  3  1  0
  3  4  1  0
  4  5  1  0
  5  6  2  0
  5  7  1  0
  7  8  1  0
  8  9  1  0
  9 10  1  0
  9 11  1  0
 11 12  1  0
 12 13  1  0
 13 14  2  0
 14 15  1  0
 15 16  2  0
 16 17  1  0
 17 18  2  0
  2 19  1  0
 19 20  2  0
 20 21  1  0
 21 22  2  0
 22 23  1  0
 23 24  2  0
 24 25  1  0
 25 26  1  0
 25 27  2  0
 27 28  1  0
 28 29  2  0
 12  7  1  0
 18 13  1  0
 29 19  1  0
 28 22  1  0
  3 30  1  0
  4 31  1  0
  4 32  1  0
  8 33  1  0
  8 34  1  0
  9 35  1  1
 10 36  1  0
 11 37  1  0
 11 38  1  0
 12 39  1  6
 14 40  1  0
 15 41  1  0
 16 42  1  0
 17 43  1  0
 18 44  1  0
 20 45  1  0
 21 46  1  0
 23 47  1  0
 24 48  1  0
 27 49  1  0
M  END
>  <smiles>  (21) 
O=C(NCC(=O)N1C[C@H](O)C[C@H]1c1ccccc1)c1ccc2ccc(F)cc2n1

>  <score_type>  (21) 
oracle

>  <origin>  (21) 
autodockgpu

>  <m_score__min__energy>  (21) 
-8.2200000000000006

>  <m_primary>  (21) 
energy

>  <rmsd>  (21) 
2.4286360098637996

>  <m_score__min__rmsd>  (21) 
2.4286360098637996

>  <meeko>  (21) 
{"free_energy": -8.03, "intermolecular_energy": -9.82, "internal_energy": -1.54, "cluster_size": 10, "cluster_id": 3, "rank_in_cluster": 5}

>  <energy>  (21) 
-7.97

>  <cluster_rmsd>  (21) 
1.71

>  <cluster>  (21) 
2

$$$$

     RDKit          3D

 49 52  0  0  0  0  0  0  0  0999 V2000
  138.2630   70.4760  221.4030 O   0  0  0  0  0  0  0  0  0  0  0  0
  138.3120   71.1110  222.4930 C   0  0  0  0  0  0  0  0  0  0  0  0
  137.8550   72.4440  222.5620 N   0  0  0  0  0  0  0  0  0  0  0  0
  137.3340   73.0850  221.3970 C   0  0  0  0  0  0  0  0  0  0  0  0
  138.3360   73.8560  220.6470 C   0  0  0  0  0  0  0  0  0  0  0  0
  138.0990   74.9090  220.0040 O   0  0  0  0  0  0  0  0  0  0  0  0
  139.6800   73.3860  220.6430 N   0  0  0  0  0  0  0  0  0  0  0  0
  140.2550   72.4640  219.6620 C   0  0  0  0  0  0  0  0  0  0  0  0
  141.3520   71.7750  220.4460 C   0  0  2  0  0  0  0  0  0  0  0  0
  141.1800   70.3790  220.3820 O   0  0  0  0  0  0  0  0  0  0  0  0
  141.2120   72.2770  221.8740 C   0  0  0  0  0  0  0  0  0  0  0  0
  140.7490   73.7130  221.5920 C   0  0  1  0  0  0  0  0  0  0  0  0
  141.7510   74.4900  220.8450 C   0  0  0  0  0  0  0  0  0  0  0  0
  141.3960   75.6140  220.1150 C   0  0  0  0  0  0  0  0  0  0  0  0
  142.3240   76.3560  219.4060 C   0  0  0  0  0  0  0  0  0  0  0  0
  143.6730   75.9880  219.4080 C   0  0  0  0  0  0  0  0  0  0  0  0
  144.0170   74.8820  220.1280 C   0  0  0  0  0  0  0  0  0  0  0  0
  143.0850   74.1450  220.8330 C   0  0  0  0  0  0  0  0  0  0  0  0
  138.8410   70.4910  223.7170 C   0  0  0  0  0  0  0  0  0  0  0  0
  138.7260   69.1220  223.9190 C   0  0  0  0  0  0  0  0  0  0  0  0
  139.2400   68.5700  225.0930 C   0  0  0  0  0  0  0  0  0  0  0  0
  139.8530   69.3260  226.0520 C   0  0  0  0  0  0  0  0  0  0  0  0
  140.3740   68.8280  227.2230 C   0  0  0  0  0  0  0  0  0  0  0  0
  140.9860   69.6670  228.1540 C   0  0  0  0  0  0  0  0  0  0  0  0
  141.0750   71.0150  227.9080 C   0  0  0  0  0  0  0  0  0  0  0  0
  141.6620   71.8680  228.7860 F   0  0  0  0  0  0  0  0  0  0  0  0
  140.5580   71.5280  226.7390 C   0  0  0  0  0  0  0  0  0  0  0  0
  139.9440   70.6970  225.8030 C   0  0  0  0  0  0  0  0  0  0  0  0
  139.4450   71.2190  224.6680 N   0  0  0  0  0  0  0  0  0  0  0  0
  137.8940   72.9730  223.4630 H   0  0  0  0  0  0  0  0  0  0  0  0
  136.9210   72.3127  220.7314 H   0  0  0  0  0  0  0  0  0  0  0  0
  136.5696   73.7986  221.7382 H   0  0  0  0  0  0  0  0  0  0  0  0
  139.5043   71.7400  219.3122 H   0  0  0  0  0  0  0  0  0  0  0  0
  140.6206   72.9679  218.7552 H   0  0  0  0  0  0  0  0  0  0  0  0
  142.3525   71.9948  220.0451 H   0  0  0  0  0  0  0  0  0  0  0  0
  140.2350   70.1600  220.5850 H   0  0  0  0  0  0  0  0  0  0  0  0
  140.4595   71.7063  222.4379 H   0  0  0  0  0  0  0  0  0  0  0  0
  142.1174   72.1894  222.4925 H   0  0  0  0  0  0  0  0  0  0  0  0
  140.5137   74.2982  222.4932 H   0  0  0  0  0  0  0  0  0  0  0  0
  140.3414   75.9263  220.0990 H   0  0  0  0  0  0  0  0  0  0  0  0
  141.9989   77.2400  218.8378 H   0  0  0  0  0  0  0  0  0  0  0  0
  144.4255   76.5665  218.8520 H   0  0  0  0  0  0  0  0  0  0  0  0
  145.0706   74.5665  220.1481 H   0  0  0  0  0  0  0  0  0  0  0  0
  143.4159   73.2614  221.3984 H   0  0  0  0  0  0  0  0  0  0  0  0
  138.2385   68.4841  223.1671 H   0  0  0  0  0  0  0  0  0  0  0  0
  139.1483   67.4855  225.2524 H   0  0  0  0  0  0  0  0  0  0  0  0
  140.3070   67.7495  227.4290 H   0  0  0  0  0  0  0  0  0  0  0  0
  141.3971   69.2491  229.0848 H   0  0  0  0  0  0  0  0  0  0  0  0
  140.6305   72.6077  226.5413 H   0  0  0  0  0  0  0  0  0  0  0  0
  1  2  2  0
  2  3  1  0
  3  4  1  0
  4  5  1  0
  5  6  2  0
  5  7  1  0
  7  8  1  0
  8  9  1  0
  9 10  1  0
  9 11  1  0
 11 12  1  0
 12 13  1  0
 13 14  2  0
 14 15  1  0
 15 16  2  0
 16 17  1  0
 17 18  2  0
  2 19  1  0
 19 20  2  0
 20 21  1  0
 21 22  2  0
 22 23  1  0
 23 24  2  0
 24 25  1  0
 25 26  1  0
 25 27  2  0
 27 28  1  0
 28 29  2  0
 12  7  1  0
 18 13  1  0
 29 19  1  0
 28 22  1  0
  3 30  1  0
  4 31  1  0
  4 32  1  0
  8 33  1  0
  8 34  1  0
  9 35  1  6
 10 36  1  0
 11 37  1  0
 11 38  1  0
 12 39  1  1
 14 40  1  0
 15 41  1  0
 16 42  1  0
 17 43  1  0
 18 44  1  0
 20 45  1  0
 21 46  1  0
 23 47  1  0
 24 48  1  0
 27 49  1  0
M  END
>  <smiles>  (22) 
O=C(NCC(=O)N1C[C@H](O)C[C@H]1c1ccccc1)c1ccc2ccc(F)cc2n1

>  <score_type>  (22) 
oracle

>  <origin>  (22) 
autodockgpu

>  <m_score__min__energy>  (22) 
-8.2200000000000006

>  <m_primary>  (22) 
energy

>  <rmsd>  (22) 
2.8611203822735836

>  <m_score__min__rmsd>  (22) 
2.8611203822735836

>  <meeko>  (22) 
{"free_energy": -6.46, "intermolecular_energy": -8.25, "internal_energy": -2.57, "cluster_size": 3, "cluster_id": 4, "rank_in_cluster": 2}

>  <energy>  (22) 
-7.97

>  <cluster_rmsd>  (22) 
1.08

>  <cluster>  (22) 
2

$$$$

     RDKit          3D

 49 52  0  0  0  0  0  0  0  0999 V2000
  140.5500   71.5130  221.1430 O   0  0  0  0  0  0  0  0  0  0  0  0
  140.0520   72.1090  222.1380 C   0  0  0  0  0  0  0  0  0  0  0  0
  139.6110   73.4440  222.0210 N   0  0  0  0  0  0  0  0  0  0  0  0
  139.7250   74.1310  220.7750 C   0  0  0  0  0  0  0  0  0  0  0  0
  140.3960   75.4360  220.8770 C   0  0  0  0  0  0  0  0  0  0  0  0
  141.5590   75.6790  220.4700 O   0  0  0  0  0  0  0  0  0  0  0  0
  139.6850   76.5110  221.4790 N   0  0  0  0  0  0  0  0  0  0  0  0
  138.9120   76.4310  222.7200 C   0  0  0  0  0  0  0  0  0  0  0  0
  137.8630   77.5070  222.5380 C   0  0  2  0  0  0  0  0  0  0  0  0
  136.5790   76.9560  222.7120 O   0  0  0  0  0  0  0  0  0  0  0  0
  138.0490   78.0230  221.1210 C   0  0  0  0  0  0  0  0  0  0  0  0
  139.5740   77.8940  221.0020 C   0  0  1  0  0  0  0  0  0  0  0  0
  140.2860   78.7340  221.9770 C   0  0  0  0  0  0  0  0  0  0  0  0
  141.4430   78.2930  222.6010 C   0  0  0  0  0  0  0  0  0  0  0  0
  142.1260   79.0680  223.5210 C   0  0  0  0  0  0  0  0  0  0  0  0
  141.6610   80.3440  223.8530 C   0  0  0  0  0  0  0  0  0  0  0  0
  140.5230   80.7740  223.2370 C   0  0  0  0  0  0  0  0  0  0  0  0
  139.8460   79.9940  222.3200 C   0  0  0  0  0  0  0  0  0  0  0  0
  139.9150   71.4400  223.4400 C   0  0  0  0  0  0  0  0  0  0  0  0
  139.1090   70.3180  223.5740 C   0  0  0  0  0  0  0  0  0  0  0  0
  139.0040   69.7110  224.8260 C   0  0  0  0  0  0  0  0  0  0  0  0
  139.6650   70.1790  225.9260 C   0  0  0  0  0  0  0  0  0  0  0  0
  139.5930   69.6150  227.1780 C   0  0  0  0  0  0  0  0  0  0  0  0
  140.2990   70.1540  228.2530 C   0  0  0  0  0  0  0  0  0  0  0  0
  141.0840   71.2660  228.0700 C   0  0  0  0  0  0  0  0  0  0  0  0
  141.7880   71.8240  229.0870 F   0  0  0  0  0  0  0  0  0  0  0  0
  141.1660   71.8410  226.8210 C   0  0  0  0  0  0  0  0  0  0  0  0
  140.4630   71.3100  225.7410 C   0  0  0  0  0  0  0  0  0  0  0  0
  140.5570   71.8880  224.5300 N   0  0  0  0  0  0  0  0  0  0  0  0
  139.1970   73.9400  222.8430 H   0  0  0  0  0  0  0  0  0  0  0  0
  140.2990   73.4989  220.0815 H   0  0  0  0  0  0  0  0  0  0  0  0
  138.7018   74.3232  220.4198 H   0  0  0  0  0  0  0  0  0  0  0  0
  138.4469   75.4406  222.8329 H   0  0  0  0  0  0  0  0  0  0  0  0
  139.5252   76.5717  223.6224 H   0  0  0  0  0  0  0  0  0  0  0  0
  137.9659   78.3198  223.2721 H   0  0  0  0  0  0  0  0  0  0  0  0
  136.5210   76.1060  222.2040 H   0  0  0  0  0  0  0  0  0  0  0  0
  137.5255   77.3962  220.3841 H   0  0  0  0  0  0  0  0  0  0  0  0
  137.6484   79.0301  220.9333 H   0  0  0  0  0  0  0  0  0  0  0  0
  139.9763   78.1607  220.0135 H   0  0  0  0  0  0  0  0  0  0  0  0
  141.8308   77.2932  222.3562 H   0  0  0  0  0  0  0  0  0  0  0  0
  143.0396   78.6784  223.9937 H   0  0  0  0  0  0  0  0  0  0  0  0
  142.1914   80.9752  224.5812 H   0  0  0  0  0  0  0  0  0  0  0  0
  140.1319   81.7735  223.4780 H   0  0  0  0  0  0  0  0  0  0  0  0
  138.9323   80.3886  221.8516 H   0  0  0  0  0  0  0  0  0  0  0  0
  138.5627   69.9145  222.7087 H   0  0  0  0  0  0  0  0  0  0  0  0
  138.3648   68.8220  224.9312 H   0  0  0  0  0  0  0  0  0  0  0  0
  138.9679   68.7235  227.3342 H   0  0  0  0  0  0  0  0  0  0  0  0
  140.2272   69.6887  229.2472 H   0  0  0  0  0  0  0  0  0  0  0  0
  141.7949   72.7314  226.6739 H   0  0  0  0  0  0  0  0  0  0  0  0
  1  2  2  0
  2  3  1  0
  3  4  1  0
  4  5  1  0
  5  6  2  0
  5  7  1  0
  7  8  1  0
  8  9  1  0
  9 10  1  0
  9 11  1  0
 11 12  1  0
 12 13  1  0
 13 14  2  0
 14 15  1  0
 15 16  2  0
 16 17  1  0
 17 18  2  0
  2 19  1  0
 19 20  2  0
 20 21  1  0
 21 22  2  0
 22 23  1  0
 23 24  2  0
 24 25  1  0
 25 26  1  0
 25 27  2  0
 27 28  1  0
 28 29  2  0
 12  7  1  0
 18 13  1  0
 29 19  1  0
 28 22  1  0
  3 30  1  0
  4 31  1  0
  4 32  1  0
  8 33  1  0
  8 34  1  0
  9 35  1  1
 10 36  1  0
 11 37  1  0
 11 38  1  0
 12 39  1  6
 14 40  1  0
 15 41  1  0
 16 42  1  0
 17 43  1  0
 18 44  1  0
 20 45  1  0
 21 46  1  0
 23 47  1  0
 24 48  1  0
 27 49  1  0
M  END
>  <smiles>  (23) 
O=C(NCC(=O)N1C[C@H](O)C[C@H]1c1ccccc1)c1ccc2ccc(F)cc2n1

>  <score_type>  (23) 
oracle

>  <origin>  (23) 
autodockgpu

>  <m_score__min__energy>  (23) 
-8.2200000000000006

>  <m_primary>  (23) 
energy

>  <rmsd>  (23) 
2.770847345234438

>  <m_score__min__rmsd>  (23) 
2.770847345234438

>  <meeko>  (23) 
{"free_energy": -7.9, "intermolecular_energy": -9.69, "internal_energy": -1.2, "cluster_size": 31, "cluster_id": 2, "rank_in_cluster": 22}

>  <energy>  (23) 
-7.97

>  <cluster_rmsd>  (23) 
1.66

>  <cluster>  (23) 
2

$$$$

     RDKit          3D

 49 52  0  0  0  0  0  0  0  0999 V2000
  141.4670   72.3780  221.6060 O   0  0  0  0  0  0  0  0  0  0  0  0
  140.4750   72.4220  222.3860 C   0  0  0  0  0  0  0  0  0  0  0  0
  139.6350   73.5550  222.4070 N   0  0  0  0  0  0  0  0  0  0  0  0
  139.9000   74.6600  221.5430 C   0  0  0  0  0  0  0  0  0  0  0  0
  139.3130   75.9270  222.0060 C   0  0  0  0  0  0  0  0  0  0  0  0
  138.4090   76.0270  222.8720 O   0  0  0  0  0  0  0  0  0  0  0  0
  139.7980   77.1390  221.4380 N   0  0  0  0  0  0  0  0  0  0  0  0
  138.9810   78.3020  221.0890 C   0  0  0  0  0  0  0  0  0  0  0  0
  139.7620   78.9410  219.9610 C   0  0  2  0  0  0  0  0  0  0  0  0
  138.9330   79.0960  218.8330 O   0  0  0  0  0  0  0  0  0  0  0  0
  140.9100   77.9890  219.6670 C   0  0  0  0  0  0  0  0  0  0  0  0
  141.1830   77.4760  221.0880 C   0  0  1  0  0  0  0  0  0  0  0  0
  141.5970   78.5510  222.0030 C   0  0  0  0  0  0  0  0  0  0  0  0
  142.1780   79.7190  221.5300 C   0  0  0  0  0  0  0  0  0  0  0  0
  142.5730   80.7400  222.3740 C   0  0  0  0  0  0  0  0  0  0  0  0
  142.3940   80.6240  223.7560 C   0  0  0  0  0  0  0  0  0  0  0  0
  141.8230   79.4750  224.2170 C   0  0  0  0  0  0  0  0  0  0  0  0
  141.4300   78.4590  223.3680 C   0  0  0  0  0  0  0  0  0  0  0  0
  140.1650   71.3060  223.2930 C   0  0  0  0  0  0  0  0  0  0  0  0
  139.2900   70.3030  222.9010 C   0  0  0  0  0  0  0  0  0  0  0  0
  139.0200   69.2610  223.7890 C   0  0  0  0  0  0  0  0  0  0  0  0
  139.5860   69.1900  225.0310 C   0  0  0  0  0  0  0  0  0  0  0  0
  139.3500   68.1850  225.9390 C   0  0  0  0  0  0  0  0  0  0  0  0
  139.9670   68.1850  227.1900 C   0  0  0  0  0  0  0  0  0  0  0  0
  140.8250   69.2010  227.5310 C   0  0  0  0  0  0  0  0  0  0  0  0
  141.4470   69.2410  228.7370 F   0  0  0  0  0  0  0  0  0  0  0  0
  141.0700   70.2150  226.6310 C   0  0  0  0  0  0  0  0  0  0  0  0
  140.4590   70.2230  225.3790 C   0  0  0  0  0  0  0  0  0  0  0  0
  140.7120   71.2230  224.5160 N   0  0  0  0  0  0  0  0  0  0  0  0
  138.8130   73.5950  223.0520 H   0  0  0  0  0  0  0  0  0  0  0  0
  140.9899   74.7890  221.4685 H   0  0  0  0  0  0  0  0  0  0  0  0
  139.4375   74.4272  220.5725 H   0  0  0  0  0  0  0  0  0  0  0  0
  137.9798   77.9951  220.7523 H   0  0  0  0  0  0  0  0  0  0  0  0
  138.8099   78.9815  221.9369 H   0  0  0  0  0  0  0  0  0  0  0  0
  140.1345   79.9414  220.2264 H   0  0  0  0  0  0  0  0  0  0  0  0
  138.0300   79.3740  219.1320 H   0  0  0  0  0  0  0  0  0  0  0  0
  140.6070   77.1776  218.9888 H   0  0  0  0  0  0  0  0  0  0  0  0
  141.7743   78.4404  219.1578 H   0  0  0  0  0  0  0  0  0  0  0  0
  141.9618   76.7016  221.1484 H   0  0  0  0  0  0  0  0  0  0  0  0
  142.3293   79.8364  220.4468 H   0  0  0  0  0  0  0  0  0  0  0  0
  143.0307   81.6488  221.9562 H   0  0  0  0  0  0  0  0  0  0  0  0
  142.7012   81.4265  224.4427 H   0  0  0  0  0  0  0  0  0  0  0  0
  141.6705   79.3533  225.2995 H   0  0  0  0  0  0  0  0  0  0  0  0
  140.9720   77.5532  223.7921 H   0  0  0  0  0  0  0  0  0  0  0  0
  138.8176   70.3288  221.9079 H   0  0  0  0  0  0  0  0  0  0  0  0
  138.3255   68.4668  223.4777 H   0  0  0  0  0  0  0  0  0  0  0  0
  138.6633   67.3674  225.6746 H   0  0  0  0  0  0  0  0  0  0  0  0
  139.7662   67.3716  227.9028 H   0  0  0  0  0  0  0  0  0  0  0  0
  141.7572   71.0291  226.9046 H   0  0  0  0  0  0  0  0  0  0  0  0
  1  2  2  0
  2  3  1  0
  3  4  1  0
  4  5  1  0
  5  6  2  0
  5  7  1  0
  7  8  1  0
  8  9  1  0
  9 10  1  0
  9 11  1  0
 11 12  1  0
 12 13  1  0
 13 14  2  0
 14 15  1  0
 15 16  2  0
 16 17  1  0
 17 18  2  0
  2 19  1  0
 19 20  2  0
 20 21  1  0
 21 22  2  0
 22 23  1  0
 23 24  2  0
 24 25  1  0
 25 26  1  0
 25 27  2  0
 27 28  1  0
 28 29  2  0
 12  7  1  0
 18 13  1  0
 29 19  1  0
 28 22  1  0
  3 30  1  0
  4 31  1  0
  4 32  1  0
  8 33  1  0
  8 34  1  0
  9 35  1  1
 10 36  1  0
 11 37  1  0
 11 38  1  0
 12 39  1  6
 14 40  1  0
 15 41  1  0
 16 42  1  0
 17 43  1  0
 18 44  1  0
 20 45  1  0
 21 46  1  0
 23 47  1  0
 24 48  1  0
 27 49  1  0
M  END
>  <smiles>  (24) 
O=C(NCC(=O)N1C[C@H](O)C[C@H]1c1ccccc1)c1ccc2ccc(F)cc2n1

>  <score_type>  (24) 
oracle

>  <origin>  (24) 
autodockgpu

>  <m_score__min__energy>  (24) 
-8.2200000000000006

>  <m_primary>  (24) 
energy

>  <rmsd>  (24) 
2.3382079485820313

>  <m_score__min__rmsd>  (24) 
2.3382079485820313

>  <meeko>  (24) 
{"free_energy": -8.06, "intermolecular_energy": -9.85, "internal_energy": -1.31, "cluster_size": 31, "cluster_id": 2, "rank_in_cluster": 13}

>  <energy>  (24) 
-7.97

>  <cluster_rmsd>  (24) 
0.97

>  <cluster>  (24) 
2

$$$$

     RDKit          3D

 49 52  0  0  0  0  0  0  0  0999 V2000
  140.6160   71.9870  220.9940 O   0  0  0  0  0  0  0  0  0  0  0  0
  140.2210   72.4670  222.0930 C   0  0  0  0  0  0  0  0  0  0  0  0
  139.8430   73.8230  222.1820 N   0  0  0  0  0  0  0  0  0  0  0  0
  139.9040   74.6630  221.0290 C   0  0  0  0  0  0  0  0  0  0  0  0
  140.9690   75.6760  221.0900 C   0  0  0  0  0  0  0  0  0  0  0  0
  141.0670   76.5630  221.9730 O   0  0  0  0  0  0  0  0  0  0  0  0
  141.9700   75.6580  220.0780 N   0  0  0  0  0  0  0  0  0  0  0  0
  142.8770   76.7630  219.7600 C   0  0  0  0  0  0  0  0  0  0  0  0
  143.1850   76.5390  218.2940 C   0  0  2  0  0  0  0  0  0  0  0  0
  142.8890   77.7040  217.5610 O   0  0  0  0  0  0  0  0  0  0  0  0
  142.2980   75.3820  217.8630 C   0  0  0  0  0  0  0  0  0  0  0  0
  142.3010   74.5630  219.1610 C   0  0  1  0  0  0  0  0  0  0  0  0
  143.6480   74.0990  219.5280 C   0  0  0  0  0  0  0  0  0  0  0  0
  144.0860   74.1230  220.8440 C   0  0  0  0  0  0  0  0  0  0  0  0
  145.3490   73.6920  221.2090 C   0  0  0  0  0  0  0  0  0  0  0  0
  146.2360   73.2090  220.2430 C   0  0  0  0  0  0  0  0  0  0  0  0
  145.8020   73.1870  218.9510 C   0  0  0  0  0  0  0  0  0  0  0  0
  144.5400   73.6200  218.5930 C   0  0  0  0  0  0  0  0  0  0  0  0
  140.1430   71.6390  223.3050 C   0  0  0  0  0  0  0  0  0  0  0  0
  139.5470   70.3860  223.2650 C   0  0  0  0  0  0  0  0  0  0  0  0
  139.4910   69.6290  224.4360 C   0  0  0  0  0  0  0  0  0  0  0  0
  140.0020   70.0750  225.6220 C   0  0  0  0  0  0  0  0  0  0  0  0
  139.9710   69.3670  226.8010 C   0  0  0  0  0  0  0  0  0  0  0  0
  140.5150   69.8930  227.9720 C   0  0  0  0  0  0  0  0  0  0  0  0
  141.0940   71.1380  227.9610 C   0  0  0  0  0  0  0  0  0  0  0  0
  141.6360   71.6880  229.0780 F   0  0  0  0  0  0  0  0  0  0  0  0
  141.1330   71.8580  226.7880 C   0  0  0  0  0  0  0  0  0  0  0  0
  140.5910   71.3410  225.6120 C   0  0  0  0  0  0  0  0  0  0  0  0
  140.6400   72.0620  224.4780 N   0  0  0  0  0  0  0  0  0  0  0  0
  139.5160   74.2240  223.0900 H   0  0  0  0  0  0  0  0  0  0  0  0
  140.0777   74.0294  220.1468 H   0  0  0  0  0  0  0  0  0  0  0  0
  138.9482   75.2048  220.9756 H   0  0  0  0  0  0  0  0  0  0  0  0
  142.3864   77.7350  219.9170 H   0  0  0  0  0  0  0  0  0  0  0  0
  143.7757   76.7826  220.3939 H   0  0  0  0  0  0  0  0  0  0  0  0
  144.2468   76.3108  218.1196 H   0  0  0  0  0  0  0  0  0  0  0  0
  143.7360   78.1140  217.2510 H   0  0  0  0  0  0  0  0  0  0  0  0
  141.2864   75.7191  217.5929 H   0  0  0  0  0  0  0  0  0  0  0  0
  142.6368   74.8408  216.9673 H   0  0  0  0  0  0  0  0  0  0  0  0
  141.6627   73.6675  219.1339 H   0  0  0  0  0  0  0  0  0  0  0  0
  143.4062   74.4973  221.6236 H   0  0  0  0  0  0  0  0  0  0  0  0
  145.6565   73.7297  222.2645 H   0  0  0  0  0  0  0  0  0  0  0  0
  147.2435   72.8607  220.5143 H   0  0  0  0  0  0  0  0  0  0  0  0
  146.4783   72.8125  218.1685 H   0  0  0  0  0  0  0  0  0  0  0  0
  144.2396   73.5815  217.5355 H   0  0  0  0  0  0  0  0  0  0  0  0
  139.1260   69.9964  222.3264 H   0  0  0  0  0  0  0  0  0  0  0  0
  139.0179   68.6365  224.4029 H   0  0  0  0  0  0  0  0  0  0  0  0
  139.5091   68.3688  226.8202 H   0  0  0  0  0  0  0  0  0  0  0  0
  140.4804   69.3107  228.9046 H   0  0  0  0  0  0  0  0  0  0  0  0
  141.5981   72.8548  226.7785 H   0  0  0  0  0  0  0  0  0  0  0  0
  1  2  2  0
  2  3  1  0
  3  4  1  0
  4  5  1  0
  5  6  2  0
  5  7  1  0
  7  8  1  0
  8  9  1  0
  9 10  1  0
  9 11  1  0
 11 12  1  0
 12 13  1  0
 13 14  2  0
 14 15  1  0
 15 16  2  0
 16 17  1  0
 17 18  2  0
  2 19  1  0
 19 20  2  0
 20 21  1  0
 21 22  2  0
 22 23  1  0
 23 24  2  0
 24 25  1  0
 25 26  1  0
 25 27  2  0
 27 28  1  0
 28 29  2  0
 12  7  1  0
 18 13  1  0
 29 19  1  0
 28 22  1  0
  3 30  1  0
  4 31  1  0
  4 32  1  0
  8 33  1  0
  8 34  1  0
  9 35  1  1
 10 36  1  0
 11 37  1  0
 11 38  1  0
 12 39  1  6
 14 40  1  0
 15 41  1  0
 16 42  1  0
 17 43  1  0
 18 44  1  0
 20 45  1  0
 21 46  1  0
 23 47  1  0
 24 48  1  0
 27 49  1  0
M  END
>  <smiles>  (25) 
O=C(NCC(=O)N1C[C@H](O)C[C@H]1c1ccccc1)c1ccc2ccc(F)cc2n1

>  <score_type>  (25) 
oracle

>  <origin>  (25) 
autodockgpu

>  <m_score__min__energy>  (25) 
-8.2200000000000006

>  <m_primary>  (25) 
energy

>  <rmsd>  (25) 
2.4830322570614314

>  <m_score__min__rmsd>  (25) 
2.4830322570614314

>  <meeko>  (25) 
{"free_energy": -8.06, "intermolecular_energy": -9.85, "internal_energy": -1.54, "cluster_size": 10, "cluster_id": 3, "rank_in_cluster": 1}

>  <energy>  (25) 
-7.96

>  <cluster_rmsd>  (25) 
1.6

>  <cluster>  (25) 
2

$$$$

     RDKit          3D

 49 52  0  0  0  0  0  0  0  0999 V2000
  141.0500   74.4750  221.3980 O   0  0  0  0  0  0  0  0  0  0  0  0
  140.0380   74.9670  221.9710 C   0  0  0  0  0  0  0  0  0  0  0  0
  138.9240   74.1540  222.2700 N   0  0  0  0  0  0  0  0  0  0  0  0
  138.9340   72.7680  221.9270 C   0  0  0  0  0  0  0  0  0  0  0  0
  138.0110   71.9530  222.7310 C   0  0  0  0  0  0  0  0  0  0  0  0
  136.8450   72.2930  223.0520 O   0  0  0  0  0  0  0  0  0  0  0  0
  138.4590   70.6800  223.1840 N   0  0  0  0  0  0  0  0  0  0  0  0
  139.5510   69.9040  222.5930 C   0  0  0  0  0  0  0  0  0  0  0  0
  139.1690   68.4760  222.9210 C   0  0  2  0  0  0  0  0  0  0  0  0
  139.1320   67.7080  221.7410 O   0  0  0  0  0  0  0  0  0  0  0  0
  137.7930   68.5570  223.5620 C   0  0  0  0  0  0  0  0  0  0  0  0
  137.9400   69.8920  224.3070 C   0  0  1  0  0  0  0  0  0  0  0  0
  139.0040   69.8540  225.3210 C   0  0  0  0  0  0  0  0  0  0  0  0
  139.2180   68.7290  226.1030 C   0  0  0  0  0  0  0  0  0  0  0  0
  140.2130   68.6750  227.0620 C   0  0  0  0  0  0  0  0  0  0  0  0
  141.0500   69.7750  227.2730 C   0  0  0  0  0  0  0  0  0  0  0  0
  140.8370   70.8790  226.5020 C   0  0  0  0  0  0  0  0  0  0  0  0
  139.8410   70.9260  225.5470 C   0  0  0  0  0  0  0  0  0  0  0  0
  139.9840   76.3890  222.3420 C   0  0  0  0  0  0  0  0  0  0  0  0
  138.7680   77.0540  222.4050 C   0  0  0  0  0  0  0  0  0  0  0  0
  138.7580   78.4040  222.7610 C   0  0  0  0  0  0  0  0  0  0  0  0
  139.9000   79.0950  223.0510 C   0  0  0  0  0  0  0  0  0  0  0  0
  139.9400   80.4230  223.4050 C   0  0  0  0  0  0  0  0  0  0  0  0
  141.1490   81.0580  223.6850 C   0  0  0  0  0  0  0  0  0  0  0  0
  142.3270   80.3560  223.6090 C   0  0  0  0  0  0  0  0  0  0  0  0
  143.5260   80.9340  223.8730 F   0  0  0  0  0  0  0  0  0  0  0  0
  142.3020   79.0250  223.2550 C   0  0  0  0  0  0  0  0  0  0  0  0
  141.0980   78.3820  222.9730 C   0  0  0  0  0  0  0  0  0  0  0  0
  141.0970   77.0820  222.6290 N   0  0  0  0  0  0  0  0  0  0  0  0
  138.0850   74.5580  222.7440 H   0  0  0  0  0  0  0  0  0  0  0  0
  138.6514   72.6702  220.8684 H   0  0  0  0  0  0  0  0  0  0  0  0
  139.9493   72.3949  222.1267 H   0  0  0  0  0  0  0  0  0  0  0  0
  139.6032   70.0596  221.5053 H   0  0  0  0  0  0  0  0  0  0  0  0
  140.5420   70.1872  222.9772 H   0  0  0  0  0  0  0  0  0  0  0  0
  139.8929   67.9952  223.5954 H   0  0  0  0  0  0  0  0  0  0  0  0
  139.9650   67.1760  221.6760 H   0  0  0  0  0  0  0  0  0  0  0  0
  136.9912   68.5927  222.8098 H   0  0  0  0  0  0  0  0  0  0  0  0
  137.5175   67.6974  224.1906 H   0  0  0  0  0  0  0  0  0  0  0  0
  137.0294   70.2239  224.8273 H   0  0  0  0  0  0  0  0  0  0  0  0
  138.5742   67.8493  225.9555 H   0  0  0  0  0  0  0  0  0  0  0  0
  140.3465   67.7625  227.6615 H   0  0  0  0  0  0  0  0  0  0  0  0
  141.8477   69.7506  228.0301 H   0  0  0  0  0  0  0  0  0  0  0  0
  141.4792   71.7605  226.6454 H   0  0  0  0  0  0  0  0  0  0  0  0
  139.7120   71.8418  224.9515 H   0  0  0  0  0  0  0  0  0  0  0  0
  137.8292   76.5274  222.1787 H   0  0  0  0  0  0  0  0  0  0  0  0
  137.7938   78.9312  222.8098 H   0  0  0  0  0  0  0  0  0  0  0  0
  139.0020   80.9941  223.4684 H   0  0  0  0  0  0  0  0  0  0  0  0
  141.1595   82.1212  223.9668 H   0  0  0  0  0  0  0  0  0  0  0  0
  143.2450   78.4620  223.1941 H   0  0  0  0  0  0  0  0  0  0  0  0
  1  2  2  0
  2  3  1  0
  3  4  1  0
  4  5  1  0
  5  6  2  0
  5  7  1  0
  7  8  1  0
  8  9  1  0
  9 10  1  0
  9 11  1  0
 11 12  1  0
 12 13  1  0
 13 14  2  0
 14 15  1  0
 15 16  2  0
 16 17  1  0
 17 18  2  0
  2 19  1  0
 19 20  2  0
 20 21  1  0
 21 22  2  0
 22 23  1  0
 23 24  2  0
 24 25  1  0
 25 26  1  0
 25 27  2  0
 27 28  1  0
 28 29  2  0
 12  7  1  0
 18 13  1  0
 29 19  1  0
 28 22  1  0
  3 30  1  0
  4 31  1  0
  4 32  1  0
  8 33  1  0
  8 34  1  0
  9 35  1  1
 10 36  1  0
 11 37  1  0
 11 38  1  0
 12 39  1  1
 14 40  1  0
 15 41  1  0
 16 42  1  0
 17 43  1  0
 18 44  1  0
 20 45  1  0
 21 46  1  0
 23 47  1  0
 24 48  1  0
 27 49  1  0
M  END
>  <smiles>  (26) 
O=C(NCC(=O)N1C[C@H](O)C[C@H]1c1ccccc1)c1ccc2ccc(F)cc2n1

>  <score_type>  (26) 
oracle

>  <origin>  (26) 
autodockgpu

>  <m_score__min__energy>  (26) 
-8.2200000000000006

>  <m_primary>  (26) 
energy

>  <rmsd>  (26) 
8.267283173139676

>  <m_score__min__rmsd>  (26) 
8.267283173139676

>  <meeko>  (26) 
{"free_energy": -7.89, "intermolecular_energy": -9.68, "internal_energy": -1.28, "cluster_size": 5, "cluster_id": 1, "rank_in_cluster": 3}

>  <energy>  (26) 
-7.92

>  <cluster_rmsd>  (26) 
1.0

>  <cluster>  (26) 
2

$$$$

     RDKit          3D

 49 52  0  0  0  0  0  0  0  0999 V2000
  137.2530   75.8120  222.3030 O   0  0  0  0  0  0  0  0  0  0  0  0
  138.4920   76.0350  222.3940 C   0  0  0  0  0  0  0  0  0  0  0  0
  139.4180   74.9840  222.2300 N   0  0  0  0  0  0  0  0  0  0  0  0
  138.9600   73.6590  221.9600 C   0  0  0  0  0  0  0  0  0  0  0  0
  139.8950   72.6090  222.3930 C   0  0  0  0  0  0  0  0  0  0  0  0
  141.1460   72.7170  222.3950 O   0  0  0  0  0  0  0  0  0  0  0  0
  139.3530   71.3730  222.8470 N   0  0  0  0  0  0  0  0  0  0  0  0
  139.5280   70.0760  222.1920 C   0  0  0  0  0  0  0  0  0  0  0  0
  138.2810   69.3190  222.5960 C   0  0  2  0  0  0  0  0  0  0  0  0
  137.6180   68.8440  221.4490 O   0  0  0  0  0  0  0  0  0  0  0  0
  137.4200   70.3210  223.3480 C   0  0  0  0  0  0  0  0  0  0  0  0
  138.5240   71.1380  224.0340 C   0  0  1  0  0  0  0  0  0  0  0  0
  139.3320   70.3260  224.9560 C   0  0  0  0  0  0  0  0  0  0  0  0
  140.6590   70.6340  225.2180 C   0  0  0  0  0  0  0  0  0  0  0  0
  141.4350   69.8820  226.0820 C   0  0  0  0  0  0  0  0  0  0  0  0
  140.8920   68.7680  226.7300 C   0  0  0  0  0  0  0  0  0  0  0  0
  139.5880   68.4680  226.4700 C   0  0  0  0  0  0  0  0  0  0  0  0
  138.8190   69.2240  225.6060 C   0  0  0  0  0  0  0  0  0  0  0  0
  139.0090   77.3840  222.6710 C   0  0  0  0  0  0  0  0  0  0  0  0
  138.1360   78.4380  222.9010 C   0  0  0  0  0  0  0  0  0  0  0  0
  138.6640   79.7040  223.1610 C   0  0  0  0  0  0  0  0  0  0  0  0
  140.0090   79.9440  223.1980 C   0  0  0  0  0  0  0  0  0  0  0  0
  140.5750   81.1720  223.4490 C   0  0  0  0  0  0  0  0  0  0  0  0
  141.9590   81.3360  223.4690 C   0  0  0  0  0  0  0  0  0  0  0  0
  142.7810   80.2610  223.2360 C   0  0  0  0  0  0  0  0  0  0  0  0
  144.1340   80.3750  223.2460 F   0  0  0  0  0  0  0  0  0  0  0  0
  142.2280   79.0260  222.9830 C   0  0  0  0  0  0  0  0  0  0  0  0
  140.8450   78.8510  222.9610 C   0  0  0  0  0  0  0  0  0  0  0  0
  140.3260   77.6360  222.7110 N   0  0  0  0  0  0  0  0  0  0  0  0
  140.4450   75.1650  222.3050 H   0  0  0  0  0  0  0  0  0  0  0  0
  138.0037   73.5091  222.4826 H   0  0  0  0  0  0  0  0  0  0  0  0
  138.8609   73.5700  220.8681 H   0  0  0  0  0  0  0  0  0  0  0  0
  139.5849   70.1895  221.0994 H   0  0  0  0  0  0  0  0  0  0  0  0
  140.4580   69.5657  222.4829 H   0  0  0  0  0  0  0  0  0  0  0  0
  138.5087   68.4434  223.2217 H   0  0  0  0  0  0  0  0  0  0  0  0
  138.0500   69.2280  220.6440 H   0  0  0  0  0  0  0  0  0  0  0  0
  136.8169   70.9378  222.6655 H   0  0  0  0  0  0  0  0  0  0  0  0
  136.6729   69.8815  224.0253 H   0  0  0  0  0  0  0  0  0  0  0  0
  138.1571   71.9952  224.6175 H   0  0  0  0  0  0  0  0  0  0  0  0
  141.1098   71.5061  224.7218 H   0  0  0  0  0  0  0  0  0  0  0  0
  142.4839   70.1616  226.2601 H   0  0  0  0  0  0  0  0  0  0  0  0
  141.4927   68.1587  227.4213 H   0  0  0  0  0  0  0  0  0  0  0  0
  139.1334   67.5964  226.9637 H   0  0  0  0  0  0  0  0  0  0  0  0
  137.7708   68.9392  225.4325 H   0  0  0  0  0  0  0  0  0  0  0  0
  137.0478   78.2788  222.8789 H   0  0  0  0  0  0  0  0  0  0  0  0
  137.9718   80.5394  223.3428 H   0  0  0  0  0  0  0  0  0  0  0  0
  139.9248   82.0391  223.6371 H   0  0  0  0  0  0  0  0  0  0  0  0
  142.3927   82.3264  223.6714 H   0  0  0  0  0  0  0  0  0  0  0  0
  142.8866   78.1651  222.7956 H   0  0  0  0  0  0  0  0  0  0  0  0
  1  2  2  0
  2  3  1  0
  3  4  1  0
  4  5  1  0
  5  6  2  0
  5  7  1  0
  7  8  1  0
  8  9  1  0
  9 10  1  0
  9 11  1  0
 11 12  1  0
 12 13  1  0
 13 14  2  0
 14 15  1  0
 15 16  2  0
 16 17  1  0
 17 18  2  0
  2 19  1  0
 19 20  2  0
 20 21  1  0
 21 22  2  0
 22 23  1  0
 23 24  2  0
 24 25  1  0
 25 26  1  0
 25 27  2  0
 27 28  1  0
 28 29  2  0
 12  7  1  0
 18 13  1  0
 29 19  1  0
 28 22  1  0
  3 30  1  0
  4 31  1  0
  4 32  1  0
  8 33  1  0
  8 34  1  0
  9 35  1  1
 10 36  1  0
 11 37  1  0
 11 38  1  0
 12 39  1  1
 14 40  1  0
 15 41  1  0
 16 42  1  0
 17 43  1  0
 18 44  1  0
 20 45  1  0
 21 46  1  0
 23 47  1  0
 24 48  1  0
 27 49  1  0
M  END
>  <smiles>  (27) 
O=C(NCC(=O)N1C[C@H](O)C[C@H]1c1ccccc1)c1ccc2ccc(F)cc2n1

>  <score_type>  (27) 
oracle

>  <origin>  (27) 
autodockgpu

>  <m_score__min__energy>  (27) 
-8.2200000000000006

>  <m_primary>  (27) 
energy

>  <rmsd>  (27) 
8.318546028052042

>  <m_score__min__rmsd>  (27) 
8.318546028052042

>  <meeko>  (27) 
{"free_energy": -7.37, "intermolecular_energy": -9.16, "internal_energy": -1.59, "cluster_size": 5, "cluster_id": 1, "rank_in_cluster": 5}

>  <energy>  (27) 
-7.9

>  <cluster_rmsd>  (27) 
1.3

>  <cluster>  (27) 
2

$$$$

     RDKit          3D

 49 52  0  0  0  0  0  0  0  0999 V2000
  138.4540   72.8660  221.9840 O   0  0  0  0  0  0  0  0  0  0  0  0
  139.5720   72.4260  222.3720 C   0  0  0  0  0  0  0  0  0  0  0  0
  140.7520   72.7760  221.6830 N   0  0  0  0  0  0  0  0  0  0  0  0
  140.6910   73.6310  220.5420 C   0  0  0  0  0  0  0  0  0  0  0  0
  141.0990   75.0170  220.8180 C   0  0  0  0  0  0  0  0  0  0  0  0
  142.2270   75.5010  220.5490 O   0  0  0  0  0  0  0  0  0  0  0  0
  140.1550   75.8860  221.4340 N   0  0  0  0  0  0  0  0  0  0  0  0
  139.4750   75.6370  222.7070 C   0  0  0  0  0  0  0  0  0  0  0  0
  138.1760   76.3990  222.5530 C   0  0  2  0  0  0  0  0  0  0  0  0
  137.0860   75.5380  222.7870 O   0  0  0  0  0  0  0  0  0  0  0  0
  138.1690   76.9110  221.1220 C   0  0  0  0  0  0  0  0  0  0  0  0
  139.6690   77.1800  220.9420 C   0  0  1  0  0  0  0  0  0  0  0  0
  140.1730   78.1990  221.8750 C   0  0  0  0  0  0  0  0  0  0  0  0
  141.4220   78.0830  222.4670 C   0  0  0  0  0  0  0  0  0  0  0  0
  141.9120   79.0320  223.3470 C   0  0  0  0  0  0  0  0  0  0  0  0
  141.1480   80.1570  223.6690 C   0  0  0  0  0  0  0  0  0  0  0  0
  139.9210   80.2670  223.0850 C   0  0  0  0  0  0  0  0  0  0  0  0
  139.4370   79.3160  222.2080 C   0  0  0  0  0  0  0  0  0  0  0  0
  139.6820   71.5420  223.5420 C   0  0  0  0  0  0  0  0  0  0  0  0
  139.1530   70.2600  223.5080 C   0  0  0  0  0  0  0  0  0  0  0  0
  139.2770   69.4510  224.6390 C   0  0  0  0  0  0  0  0  0  0  0  0
  139.9020   69.8740  225.7780 C   0  0  0  0  0  0  0  0  0  0  0  0
  140.0480   69.1140  226.9150 C   0  0  0  0  0  0  0  0  0  0  0  0
  140.6980   69.6190  228.0400 C   0  0  0  0  0  0  0  0  0  0  0  0
  141.2050   70.8950  228.0240 C   0  0  0  0  0  0  0  0  0  0  0  0
  141.8460   71.4270  229.0970 F   0  0  0  0  0  0  0  0  0  0  0  0
  141.0660   71.6670  226.8930 C   0  0  0  0  0  0  0  0  0  0  0  0
  140.4170   71.1710  225.7630 C   0  0  0  0  0  0  0  0  0  0  0  0
  140.2920   71.9430  224.6690 N   0  0  0  0  0  0  0  0  0  0  0  0
  141.6800   72.4140  222.0020 H   0  0  0  0  0  0  0  0  0  0  0  0
  141.3545   73.2219  219.7659 H   0  0  0  0  0  0  0  0  0  0  0  0
  139.6393   73.6638  220.2213 H   0  0  0  0  0  0  0  0  0  0  0  0
  139.2885   74.5627  222.8522 H   0  0  0  0  0  0  0  0  0  0  0  0
  140.0623   75.9532  223.5817 H   0  0  0  0  0  0  0  0  0  0  0  0
  138.0911   77.2280  223.2711 H   0  0  0  0  0  0  0  0  0  0  0  0
  137.4220   74.6100  222.8770 H   0  0  0  0  0  0  0  0  0  0  0  0
  137.8007   76.1518  220.4163 H   0  0  0  0  0  0  0  0  0  0  0  0
  137.5130   77.7743  220.9368 H   0  0  0  0  0  0  0  0  0  0  0  0
  139.9506   77.5179  219.9338 H   0  0  0  0  0  0  0  0  0  0  0  0
  142.0438   77.2074  222.2290 H   0  0  0  0  0  0  0  0  0  0  0  0
  142.9078   78.9002  223.7953 H   0  0  0  0  0  0  0  0  0  0  0  0
  141.5214   80.9225  224.3652 H   0  0  0  0  0  0  0  0  0  0  0  0
  139.2963   81.1414  223.3198 H   0  0  0  0  0  0  0  0  0  0  0  0
  138.4398   79.4533  221.7644 H   0  0  0  0  0  0  0  0  0  0  0  0
  138.6450   69.8876  222.6062 H   0  0  0  0  0  0  0  0  0  0  0  0
  138.8558   68.4352  224.6122 H   0  0  0  0  0  0  0  0  0  0  0  0
  139.6452   68.0907  226.9369 H   0  0  0  0  0  0  0  0  0  0  0  0
  140.8047   68.9957  228.9400 H   0  0  0  0  0  0  0  0  0  0  0  0
  141.4724   72.6891  226.8804 H   0  0  0  0  0  0  0  0  0  0  0  0
  1  2  2  0
  2  3  1  0
  3  4  1  0
  4  5  1  0
  5  6  2  0
  5  7  1  0
  7  8  1  0
  8  9  1  0
  9 10  1  0
  9 11  1  0
 11 12  1  0
 12 13  1  0
 13 14  2  0
 14 15  1  0
 15 16  2  0
 16 17  1  0
 17 18  2  0
  2 19  1  0
 19 20  2  0
 20 21  1  0
 21 22  2  0
 22 23  1  0
 23 24  2  0
 24 25  1  0
 25 26  1  0
 25 27  2  0
 27 28  1  0
 28 29  2  0
 12  7  1  0
 18 13  1  0
 29 19  1  0
 28 22  1  0
  3 30  1  0
  4 31  1  0
  4 32  1  0
  8 33  1  0
  8 34  1  0
  9 35  1  1
 10 36  1  0
 11 37  1  0
 11 38  1  0
 12 39  1  6
 14 40  1  0
 15 41  1  0
 16 42  1  0
 17 43  1  0
 18 44  1  0
 20 45  1  0
 21 46  1  0
 23 47  1  0
 24 48  1  0
 27 49  1  0
M  END
>  <smiles>  (28) 
O=C(NCC(=O)N1C[C@H](O)C[C@H]1c1ccccc1)c1ccc2ccc(F)cc2n1

>  <score_type>  (28) 
oracle

>  <origin>  (28) 
autodockgpu

>  <m_score__min__energy>  (28) 
-8.2200000000000006

>  <m_primary>  (28) 
energy

>  <rmsd>  (28) 
2.7810374121653467

>  <m_score__min__rmsd>  (28) 
2.7810374121653467

>  <meeko>  (28) 
{"free_energy": -7.24, "intermolecular_energy": -9.03, "internal_energy": -2.07, "cluster_size": 31, "cluster_id": 2, "rank_in_cluster": 26}

>  <energy>  (28) 
-7.86

>  <cluster_rmsd>  (28) 
1.01

>  <cluster>  (28) 
2

$$$$

     RDKit          3D

 49 52  0  0  0  0  0  0  0  0999 V2000
  141.3610   72.5590  221.7500 O   0  0  0  0  0  0  0  0  0  0  0  0
  140.3110   72.5880  222.4500 C   0  0  0  0  0  0  0  0  0  0  0  0
  139.3950   73.6520  222.3160 N   0  0  0  0  0  0  0  0  0  0  0  0
  139.6500   74.7060  221.3860 C   0  0  0  0  0  0  0  0  0  0  0  0
  139.3410   76.0450  221.9100 C   0  0  0  0  0  0  0  0  0  0  0  0
  138.5010   76.2890  222.8110 O   0  0  0  0  0  0  0  0  0  0  0  0
  140.0420   77.1570  221.3640 N   0  0  0  0  0  0  0  0  0  0  0  0
  139.4740   78.1630  220.4640 C   0  0  0  0  0  0  0  0  0  0  0  0
  140.6760   78.6290  219.6710 C   0  0  2  0  0  0  0  0  0  0  0  0
  140.4200   78.4960  218.2930 O   0  0  0  0  0  0  0  0  0  0  0  0
  141.8240   77.7300  220.1020 C   0  0  0  0  0  0  0  0  0  0  0  0
  141.4460   77.5270  221.5760 C   0  0  1  0  0  0  0  0  0  0  0  0
  141.4380   78.7880  222.3320 C   0  0  0  0  0  0  0  0  0  0  0  0
  142.5050   79.6720  222.2740 C   0  0  0  0  0  0  0  0  0  0  0  0
  142.5160   80.8630  222.9780 C   0  0  0  0  0  0  0  0  0  0  0  0
  141.4300   81.2170  223.7830 C   0  0  0  0  0  0  0  0  0  0  0  0
  140.3820   80.3450  223.8380 C   0  0  0  0  0  0  0  0  0  0  0  0
  140.3780   79.1580  223.1320 C   0  0  0  0  0  0  0  0  0  0  0  0
  140.0080   71.5250  223.4200 C   0  0  0  0  0  0  0  0  0  0  0  0
  139.0600   70.5540  223.1280 C   0  0  0  0  0  0  0  0  0  0  0  0
  138.7990   69.5620  224.0730 C   0  0  0  0  0  0  0  0  0  0  0  0
  139.4440   69.5080  225.2770 C   0  0  0  0  0  0  0  0  0  0  0  0
  139.2220   68.5510  226.2390 C   0  0  0  0  0  0  0  0  0  0  0  0
  139.9220   68.5650  227.4450 C   0  0  0  0  0  0  0  0  0  0  0  0
  140.8510   69.5470  227.6870 C   0  0  0  0  0  0  0  0  0  0  0  0
  141.5560   69.5990  228.8460 F   0  0  0  0  0  0  0  0  0  0  0  0
  141.0840   70.5120  226.7320 C   0  0  0  0  0  0  0  0  0  0  0  0
  140.3890   70.5060  225.5240 C   0  0  0  0  0  0  0  0  0  0  0  0
  140.6320   71.4580  224.6060 N   0  0  0  0  0  0  0  0  0  0  0  0
  138.5240   73.6790  222.8940 H   0  0  0  0  0  0  0  0  0  0  0  0
  140.7150   74.6775  221.1124 H   0  0  0  0  0  0  0  0  0  0  0  0
  138.9899   74.5389  220.5221 H   0  0  0  0  0  0  0  0  0  0  0  0
  138.7135   77.7192  219.8048 H   0  0  0  0  0  0  0  0  0  0  0  0
  138.9622   78.9793  220.9947 H   0  0  0  0  0  0  0  0  0  0  0  0
  140.9115   79.6879  219.8536 H   0  0  0  0  0  0  0  0  0  0  0  0
  141.2830   78.4300  217.8090 H   0  0  0  0  0  0  0  0  0  0  0  0
  141.8331   76.7809  219.5461 H   0  0  0  0  0  0  0  0  0  0  0  0
  142.8302   78.1392  219.9284 H   0  0  0  0  0  0  0  0  0  0  0  0
  142.1104   76.8425  222.1238 H   0  0  0  0  0  0  0  0  0  0  0  0
  143.3722   79.4176  221.6469 H   0  0  0  0  0  0  0  0  0  0  0  0
  143.3840   81.5346  222.9037 H   0  0  0  0  0  0  0  0  0  0  0  0
  141.4204   82.1601  224.3492 H   0  0  0  0  0  0  0  0  0  0  0  0
  139.5130   80.5953  224.4643 H   0  0  0  0  0  0  0  0  0  0  0  0
  139.5069   78.4909  223.2100 H   0  0  0  0  0  0  0  0  0  0  0  0
  138.5237   70.5667  222.1677 H   0  0  0  0  0  0  0  0  0  0  0  0
  138.0460   68.7944  223.8408 H   0  0  0  0  0  0  0  0  0  0  0  0
  138.4795   67.7608  226.0541 H   0  0  0  0  0  0  0  0  0  0  0  0
  139.7302   67.7901  228.2018 H   0  0  0  0  0  0  0  0  0  0  0  0
  141.8288   71.2981  226.9255 H   0  0  0  0  0  0  0  0  0  0  0  0
  1  2  2  0
  2  3  1  0
  3  4  1  0
  4  5  1  0
  5  6  2  0
  5  7  1  0
  7  8  1  0
  8  9  1  0
  9 10  1  0
  9 11  1  0
 11 12  1  0
 12 13  1  0
 13 14  2  0
 14 15  1  0
 15 16  2  0
 16 17  1  0
 17 18  2  0
  2 19  1  0
 19 20  2  0
 20 21  1  0
 21 22  2  0
 22 23  1  0
 23 24  2  0
 24 25  1  0
 25 26  1  0
 25 27  2  0
 27 28  1  0
 28 29  2  0
 12  7  1  0
 18 13  1  0
 29 19  1  0
 28 22  1  0
  3 30  1  0
  4 31  1  0
  4 32  1  0
  8 33  1  0
  8 34  1  0
  9 35  1  6
 10 36  1  0
 11 37  1  0
 11 38  1  0
 12 39  1  1
 14 40  1  0
 15 41  1  0
 16 42  1  0
 17 43  1  0
 18 44  1  0
 20 45  1  0
 21 46  1  0
 23 47  1  0
 24 48  1  0
 27 49  1  0
M  END
>  <smiles>  (29) 
O=C(NCC(=O)N1C[C@H](O)C[C@H]1c1ccccc1)c1ccc2ccc(F)cc2n1

>  <score_type>  (29) 
oracle

>  <origin>  (29) 
autodockgpu

>  <m_score__min__energy>  (29) 
-8.2200000000000006

>  <m_primary>  (29) 
energy

>  <rmsd>  (29) 
2.257021849475121

>  <m_score__min__rmsd>  (29) 
2.257021849475121

>  <meeko>  (29) 
{"free_energy": -8.12, "intermolecular_energy": -9.91, "internal_energy": -1.2, "cluster_size": 31, "cluster_id": 2, "rank_in_cluster": 4}

>  <energy>  (29) 
-7.77

>  <cluster_rmsd>  (29) 
1.31

>  <cluster>  (29) 
2

$$$$

     RDKit          3D

 49 52  0  0  0  0  0  0  0  0999 V2000
  138.6650   73.3880  221.9310 O   0  0  0  0  0  0  0  0  0  0  0  0
  139.7620   72.8380  222.2270 C   0  0  0  0  0  0  0  0  0  0  0  0
  140.9260   73.1250  221.4830 N   0  0  0  0  0  0  0  0  0  0  0  0
  140.8710   74.0410  220.3890 C   0  0  0  0  0  0  0  0  0  0  0  0
  141.3390   75.3940  220.7250 C   0  0  0  0  0  0  0  0  0  0  0  0
  142.4810   75.8460  220.4640 O   0  0  0  0  0  0  0  0  0  0  0  0
  140.4380   76.2680  221.3970 N   0  0  0  0  0  0  0  0  0  0  0  0
  139.8440   76.0290  222.7140 C   0  0  0  0  0  0  0  0  0  0  0  0
  138.5390   76.7920  222.6430 C   0  0  2  0  0  0  0  0  0  0  0  0
  137.4660   75.9340  222.9550 O   0  0  0  0  0  0  0  0  0  0  0  0
  138.4370   77.2940  221.2110 C   0  0  0  0  0  0  0  0  0  0  0  0
  139.9220   77.5590  220.9300 C   0  0  1  0  0  0  0  0  0  0  0  0
  140.4880   78.5850  221.8200 C   0  0  0  0  0  0  0  0  0  0  0  0
  141.8300   78.5780  222.1690 C   0  0  0  0  0  0  0  0  0  0  0  0
  142.3800   79.5340  223.0050 C   0  0  0  0  0  0  0  0  0  0  0  0
  141.5820   80.5540  223.5310 C   0  0  0  0  0  0  0  0  0  0  0  0
  140.2630   80.5570  223.1860 C   0  0  0  0  0  0  0  0  0  0  0  0
  139.7210   79.5990  222.3520 C   0  0  0  0  0  0  0  0  0  0  0  0
  139.8650   71.8890  223.3450 C   0  0  0  0  0  0  0  0  0  0  0  0
  139.4090   70.5850  223.2060 C   0  0  0  0  0  0  0  0  0  0  0  0
  139.5230   69.7140  224.2900 C   0  0  0  0  0  0  0  0  0  0  0  0
  140.0690   70.0940  225.4830 C   0  0  0  0  0  0  0  0  0  0  0  0
  140.2030   69.2720  226.5770 C   0  0  0  0  0  0  0  0  0  0  0  0
  140.7710   69.7380  227.7630 C   0  0  0  0  0  0  0  0  0  0  0  0
  141.2080   71.0360  227.8510 C   0  0  0  0  0  0  0  0  0  0  0  0
  141.7670   71.5310  228.9850 F   0  0  0  0  0  0  0  0  0  0  0  0
  141.0800   71.8710  226.7630 C   0  0  0  0  0  0  0  0  0  0  0  0
  140.5130   71.4150  225.5740 C   0  0  0  0  0  0  0  0  0  0  0  0
  140.3980   72.2470  224.5230 N   0  0  0  0  0  0  0  0  0  0  0  0
  141.8360   72.6710  221.7240 H   0  0  0  0  0  0  0  0  0  0  0  0
  141.4992   73.6485  219.5758 H   0  0  0  0  0  0  0  0  0  0  0  0
  139.8139   74.1302  220.0981 H   0  0  0  0  0  0  0  0  0  0  0  0
  139.6661   74.9560  222.8785 H   0  0  0  0  0  0  0  0  0  0  0  0
  140.4891   76.3503  223.5450 H   0  0  0  0  0  0  0  0  0  0  0  0
  138.5032   77.6257  223.3597 H   0  0  0  0  0  0  0  0  0  0  0  0
  137.8170   75.0170  223.0950 H   0  0  0  0  0  0  0  0  0  0  0  0
  138.0216   76.5304  220.5370 H   0  0  0  0  0  0  0  0  0  0  0  0
  137.7710   78.1569  221.0634 H   0  0  0  0  0  0  0  0  0  0  0  0
  140.1367   77.8892  219.9029 H   0  0  0  0  0  0  0  0  0  0  0  0
  142.4793   77.7859  221.7679 H   0  0  0  0  0  0  0  0  0  0  0  0
  143.4500   79.4910  223.2567 H   0  0  0  0  0  0  0  0  0  0  0  0
  142.0012   81.3231  224.1964 H   0  0  0  0  0  0  0  0  0  0  0  0
  139.6100   81.3474  223.5845 H   0  0  0  0  0  0  0  0  0  0  0  0
  138.6499   79.6464  222.1060 H   0  0  0  0  0  0  0  0  0  0  0  0
  138.9659   70.2447  222.2584 H   0  0  0  0  0  0  0  0  0  0  0  0
  139.1592   68.6818  224.1797 H   0  0  0  0  0  0  0  0  0  0  0  0
  139.8566   68.2297  226.5161 H   0  0  0  0  0  0  0  0  0  0  0  0
  140.8686   69.0650  228.6276 H   0  0  0  0  0  0  0  0  0  0  0  0
  141.4299   72.9115  226.8333 H   0  0  0  0  0  0  0  0  0  0  0  0
  1  2  2  0
  2  3  1  0
  3  4  1  0
  4  5  1  0
  5  6  2  0
  5  7  1  0
  7  8  1  0
  8  9  1  0
  9 10  1  0
  9 11  1  0
 11 12  1  0
 12 13  1  0
 13 14  2  0
 14 15  1  0
 15 16  2  0
 16 17  1  0
 17 18  2  0
  2 19  1  0
 19 20  2  0
 20 21  1  0
 21 22  2  0
 22 23  1  0
 23 24  2  0
 24 25  1  0
 25 26  1  0
 25 27  2  0
 27 28  1  0
 28 29  2  0
 12  7  1  0
 18 13  1  0
 29 19  1  0
 28 22  1  0
  3 30  1  0
  4 31  1  0
  4 32  1  0
  8 33  1  0
  8 34  1  0
  9 35  1  1
 10 36  1  0
 11 37  1  0
 11 38  1  0
 12 39  1  6
 14 40  1  0
 15 41  1  0
 16 42  1  0
 17 43  1  0
 18 44  1  0
 20 45  1  0
 21 46  1  0
 23 47  1  0
 24 48  1  0
 27 49  1  0
M  END
>  <smiles>  (30) 
O=C(NCC(=O)N1C[C@H](O)C[C@H]1c1ccccc1)c1ccc2ccc(F)cc2n1

>  <score_type>  (30) 
oracle

>  <origin>  (30) 
autodockgpu

>  <m_score__min__energy>  (30) 
-8.2200000000000006

>  <m_primary>  (30) 
energy

>  <rmsd>  (30) 
2.8902315140437063

>  <m_score__min__rmsd>  (30) 
2.8902315140437063

>  <meeko>  (30) 
{"free_energy": -7.26, "intermolecular_energy": -9.05, "internal_energy": -2.05, "cluster_size": 31, "cluster_id": 2, "rank_in_cluster": 25}

>  <energy>  (30) 
-7.26

>  <cluster_rmsd>  (30) 
1.59

>  <cluster>  (30) 
2

$$$$

     RDKit          3D

 49 52  0  0  0  0  0  0  0  0999 V2000
  140.8350   72.2980  221.2280 O   0  0  0  0  0  0  0  0  0  0  0  0
  140.1190   72.6560  222.2040 C   0  0  0  0  0  0  0  0  0  0  0  0
  139.4250   73.8840  222.1640 N   0  0  0  0  0  0  0  0  0  0  0  0
  139.5260   74.7290  221.0180 C   0  0  0  0  0  0  0  0  0  0  0  0
  139.1330   76.1230  221.2730 C   0  0  0  0  0  0  0  0  0  0  0  0
  138.0360   76.4820  221.7680 O   0  0  0  0  0  0  0  0  0  0  0  0
  140.0580   77.1530  220.9420 N   0  0  0  0  0  0  0  0  0  0  0  0
  139.8060   78.2560  220.0130 C   0  0  0  0  0  0  0  0  0  0  0  0
  141.1900   78.5890  219.4960 C   0  0  2  0  0  0  0  0  0  0  0  0
  141.1990   78.5400  218.0890 O   0  0  0  0  0  0  0  0  0  0  0  0
  142.1110   77.5320  220.0840 C   0  0  0  0  0  0  0  0  0  0  0  0
  141.4260   77.3270  221.4430 C   0  0  1  0  0  0  0  0  0  0  0  0
  141.4210   78.5510  222.2590 C   0  0  0  0  0  0  0  0  0  0  0  0
  140.3180   78.9080  223.0200 C   0  0  0  0  0  0  0  0  0  0  0  0
  140.2950   80.0540  223.7930 C   0  0  0  0  0  0  0  0  0  0  0  0
  141.4070   80.9010  223.8330 C   0  0  0  0  0  0  0  0  0  0  0  0
  142.4900   80.5470  223.0840 C   0  0  0  0  0  0  0  0  0  0  0  0
  142.5050   79.4010  222.3130 C   0  0  0  0  0  0  0  0  0  0  0  0
  139.9860   71.8180  223.4040 C   0  0  0  0  0  0  0  0  0  0  0  0
  139.2130   70.6650  223.3760 C   0  0  0  0  0  0  0  0  0  0  0  0
  139.1110   69.8950  224.5350 C   0  0  0  0  0  0  0  0  0  0  0  0
  139.7440   70.2320  225.6980 C   0  0  0  0  0  0  0  0  0  0  0  0
  139.6730   69.5070  226.8640 C   0  0  0  0  0  0  0  0  0  0  0  0
  140.3500   69.9180  228.0110 C   0  0  0  0  0  0  0  0  0  0  0  0
  141.1020   71.0670  227.9890 C   0  0  0  0  0  0  0  0  0  0  0  0
  141.7770   71.5040  229.0830 F   0  0  0  0  0  0  0  0  0  0  0  0
  141.1830   71.8030  226.8290 C   0  0  0  0  0  0  0  0  0  0  0  0
  140.5100   71.4000  225.6760 C   0  0  0  0  0  0  0  0  0  0  0  0
  140.6010   72.1350  224.5540 N   0  0  0  0  0  0  0  0  0  0  0  0
  138.8310   74.1840  222.9700 H   0  0  0  0  0  0  0  0  0  0  0  0
  140.5700   74.7206  220.6717 H   0  0  0  0  0  0  0  0  0  0  0  0
  138.8298   74.3321  220.2645 H   0  0  0  0  0  0  0  0  0  0  0  0
  139.1436   77.9395  219.1939 H   0  0  0  0  0  0  0  0  0  0  0  0
  139.3015   79.1126  220.4838 H   0  0  0  0  0  0  0  0  0  0  0  0
  141.5112   79.6006  219.7848 H   0  0  0  0  0  0  0  0  0  0  0  0
  140.2680   78.6170  217.7570 H   0  0  0  0  0  0  0  0  0  0  0  0
  142.1146   76.6106  219.4831 H   0  0  0  0  0  0  0  0  0  0  0  0
  143.1738   77.8116  220.1327 H   0  0  0  0  0  0  0  0  0  0  0  0
  141.8799   76.5420  222.0656 H   0  0  0  0  0  0  0  0  0  0  0  0
  139.4312   78.2572  223.0082 H   0  0  0  0  0  0  0  0  0  0  0  0
  139.3976   80.3008  224.3794 H   0  0  0  0  0  0  0  0  0  0  0  0
  141.4080   81.8158  224.4439 H   0  0  0  0  0  0  0  0  0  0  0  0
  143.3794   81.1942  223.0941 H   0  0  0  0  0  0  0  0  0  0  0  0
  143.4046   79.1606  221.7274 H   0  0  0  0  0  0  0  0  0  0  0  0
  138.6902   70.3639  222.4562 H   0  0  0  0  0  0  0  0  0  0  0  0
  138.4978   68.9821  224.5116 H   0  0  0  0  0  0  0  0  0  0  0  0
  139.0714   68.5865  226.8922 H   0  0  0  0  0  0  0  0  0  0  0  0
  140.2820   69.3224  228.9333 H   0  0  0  0  0  0  0  0  0  0  0  0
  141.7871   72.7221  226.8110 H   0  0  0  0  0  0  0  0  0  0  0  0
  1  2  2  0
  2  3  1  0
  3  4  1  0
  4  5  1  0
  5  6  2  0
  5  7  1  0
  7  8  1  0
  8  9  1  0
  9 10  1  0
  9 11  1  0
 11 12  1  0
 12 13  1  0
 13 14  2  0
 14 15  1  0
 15 16  2  0
 16 17  1  0
 17 18  2  0
  2 19  1  0
 19 20  2  0
 20 21  1  0
 21 22  2  0
 22 23  1  0
 23 24  2  0
 24 25  1  0
 25 26  1  0
 25 27  2  0
 27 28  1  0
 28 29  2  0
 12  7  1  0
 18 13  1  0
 29 19  1  0
 28 22  1  0
  3 30  1  0
  4 31  1  0
  4 32  1  0
  8 33  1  0
  8 34  1  0
  9 35  1  6
 10 36  1  0
 11 37  1  0
 11 38  1  0
 12 39  1  1
 14 40  1  0
 15 41  1  0
 16 42  1  0
 17 43  1  0
 18 44  1  0
 20 45  1  0
 21 46  1  0
 23 47  1  0
 24 48  1  0
 27 49  1  0
M  END
>  <smiles>  (31) 
O=C(NCC(=O)N1C[C@H](O)C[C@H]1c1ccccc1)c1ccc2ccc(F)cc2n1

>  <score_type>  (31) 
oracle

>  <origin>  (31) 
autodockgpu

>  <m_score__min__energy>  (31) 
-8.2200000000000006

>  <m_primary>  (31) 
energy

>  <rmsd>  (31) 
2.242383708828724

>  <m_score__min__rmsd>  (31) 
2.242383708828724

>  <meeko>  (31) 
{"free_energy": -8.08, "intermolecular_energy": -9.86, "internal_energy": -1.26, "cluster_size": 31, "cluster_id": 2, "rank_in_cluster": 10}

>  <energy>  (31) 
-7.24

>  <cluster_rmsd>  (31) 
1.6

>  <cluster>  (31) 
2

$$$$

     RDKit          3D

 49 52  0  0  0  0  0  0  0  0999 V2000
  140.9870   74.4710  221.3870 O   0  0  0  0  0  0  0  0  0  0  0  0
  139.9830   74.9630  221.9740 C   0  0  0  0  0  0  0  0  0  0  0  0
  138.8760   74.1500  222.2940 N   0  0  0  0  0  0  0  0  0  0  0  0
  138.8830   72.7620  221.9570 C   0  0  0  0  0  0  0  0  0  0  0  0
  139.6830   71.9350  222.8720 C   0  0  0  0  0  0  0  0  0  0  0  0
  140.8010   72.2600  223.3430 O   0  0  0  0  0  0  0  0  0  0  0  0
  139.1630   70.6680  223.2610 N   0  0  0  0  0  0  0  0  0  0  0  0
  139.2750   69.4290  222.4900 C   0  0  0  0  0  0  0  0  0  0  0  0
  138.0520   68.6480  222.9220 C   0  0  2  0  0  0  0  0  0  0  0  0
  137.3010   68.2730  221.7910 O   0  0  0  0  0  0  0  0  0  0  0  0
  137.2610   69.5880  223.8160 C   0  0  0  0  0  0  0  0  0  0  0  0
  138.4210   70.3390  224.4830 C   0  0  1  0  0  0  0  0  0  0  0  0
  139.2860   69.4480  225.2720 C   0  0  0  0  0  0  0  0  0  0  0  0
  140.6050   69.7780  225.5460 C   0  0  0  0  0  0  0  0  0  0  0  0
  141.4330   68.9540  226.2860 C   0  0  0  0  0  0  0  0  0  0  0  0
  140.9540   67.7410  226.7900 C   0  0  0  0  0  0  0  0  0  0  0  0
  139.6570   67.4200  226.5190 C   0  0  0  0  0  0  0  0  0  0  0  0
  138.8360   68.2480  225.7790 C   0  0  0  0  0  0  0  0  0  0  0  0
  139.9330   76.3860  222.3400 C   0  0  0  0  0  0  0  0  0  0  0  0
  138.7200   77.0600  222.3830 C   0  0  0  0  0  0  0  0  0  0  0  0
  138.7130   78.4100  222.7340 C   0  0  0  0  0  0  0  0  0  0  0  0
  139.8550   79.0950  223.0390 C   0  0  0  0  0  0  0  0  0  0  0  0
  139.8980   80.4240  223.3900 C   0  0  0  0  0  0  0  0  0  0  0  0
  141.1070   81.0530  223.6860 C   0  0  0  0  0  0  0  0  0  0  0  0
  142.2810   80.3430  223.6290 C   0  0  0  0  0  0  0  0  0  0  0  0
  143.4800   80.9150  223.9090 F   0  0  0  0  0  0  0  0  0  0  0  0
  142.2530   79.0120  223.2790 C   0  0  0  0  0  0  0  0  0  0  0  0
  141.0500   78.3750  222.9810 C   0  0  0  0  0  0  0  0  0  0  0  0
  141.0460   77.0730  222.6410 N   0  0  0  0  0  0  0  0  0  0  0  0
  138.0430   74.5540  222.7800 H   0  0  0  0  0  0  0  0  0  0  0  0
  137.8461   72.3953  221.9745 H   0  0  0  0  0  0  0  0  0  0  0  0
  139.3424   72.6756  220.9613 H   0  0  0  0  0  0  0  0  0  0  0  0
  139.2529   69.6324  221.4092 H   0  0  0  0  0  0  0  0  0  0  0  0
  140.2180   68.8913  222.6677 H   0  0  0  0  0  0  0  0  0  0  0  0
  138.3143   67.7222  223.4550 H   0  0  0  0  0  0  0  0  0  0  0  0
  136.3530   68.1580  222.0570 H   0  0  0  0  0  0  0  0  0  0  0  0
  136.6163   70.2627  223.2336 H   0  0  0  0  0  0  0  0  0  0  0  0
  136.5611   69.0973  224.5084 H   0  0  0  0  0  0  0  0  0  0  0  0
  138.1078   71.1464  225.1612 H   0  0  0  0  0  0  0  0  0  0  0  0
  141.0060   70.7274  225.1616 H   0  0  0  0  0  0  0  0  0  0  0  0
  142.4735   69.2543  226.4790 H   0  0  0  0  0  0  0  0  0  0  0  0
  141.5975   67.0728  227.3811 H   0  0  0  0  0  0  0  0  0  0  0  0
  139.2517   66.4717  226.9018 H   0  0  0  0  0  0  0  0  0  0  0  0
  137.7966   67.9420  225.5894 H   0  0  0  0  0  0  0  0  0  0  0  0
  137.7812   76.5387  222.1445 H   0  0  0  0  0  0  0  0  0  0  0  0
  137.7515   78.9433  222.7664 H   0  0  0  0  0  0  0  0  0  0  0  0
  138.9626   81.0009  223.4381 H   0  0  0  0  0  0  0  0  0  0  0  0
  141.1201   82.1170  223.9649 H   0  0  0  0  0  0  0  0  0  0  0  0
  143.1935   78.4432  223.2339 H   0  0  0  0  0  0  0  0  0  0  0  0
  1  2  2  0
  2  3  1  0
  3  4  1  0
  4  5  1  0
  5  6  2  0
  5  7  1  0
  7  8  1  0
  8  9  1  0
  9 10  1  0
  9 11  1  0
 11 12  1  0
 12 13  1  0
 13 14  2  0
 14 15  1  0
 15 16  2  0
 16 17  1  0
 17 18  2  0
  2 19  1  0
 19 20  2  0
 20 21  1  0
 21 22  2  0
 22 23  1  0
 23 24  2  0
 24 25  1  0
 25 26  1  0
 25 27  2  0
 27 28  1  0
 28 29  2  0
 12  7  1  0
 18 13  1  0
 29 19  1  0
 28 22  1  0
  3 30  1  0
  4 31  1  0
  4 32  1  0
  8 33  1  0
  8 34  1  0
  9 35  1  1
 10 36  1  0
 11 37  1  0
 11 38  1  0
 12 39  1  1
 14 40  1  0
 15 41  1  0
 16 42  1  0
 17 43  1  0
 18 44  1  0
 20 45  1  0
 21 46  1  0
 23 47  1  0
 24 48  1  0
 27 49  1  0
M  END
>  <smiles>  (32) 
O=C(NCC(=O)N1C[C@H](O)C[C@H]1c1ccccc1)c1ccc2ccc(F)cc2n1

>  <score_type>  (32) 
oracle

>  <origin>  (32) 
autodockgpu

>  <m_score__min__energy>  (32) 
-8.2200000000000006

>  <m_primary>  (32) 
energy

>  <rmsd>  (32) 
8.174703820254935

>  <m_score__min__rmsd>  (32) 
8.174703820254935

>  <meeko>  (32) 
{"free_energy": -8.22, "intermolecular_energy": -10.01, "internal_energy": -1.03, "cluster_size": 5, "cluster_id": 1, "rank_in_cluster": 1}

>  <energy>  (32) 
-7.22

>  <cluster_rmsd>  (32) 
1.68

>  <cluster>  (32) 
2

$$$$

     RDKit          3D

 49 52  0  0  0  0  0  0  0  0999 V2000
  141.4210   72.5270  221.5000 O   0  0  0  0  0  0  0  0  0  0  0  0
  140.4590   72.5900  222.3160 C   0  0  0  0  0  0  0  0  0  0  0  0
  139.6330   73.7330  222.3540 N   0  0  0  0  0  0  0  0  0  0  0  0
  139.8790   74.8270  221.4690 C   0  0  0  0  0  0  0  0  0  0  0  0
  139.0550   76.0130  221.7510 C   0  0  0  0  0  0  0  0  0  0  0  0
  137.9500   75.9950  222.3480 O   0  0  0  0  0  0  0  0  0  0  0  0
  139.5370   77.2820  221.3220 N   0  0  0  0  0  0  0  0  0  0  0  0
  138.7440   78.5100  221.2440 C   0  0  0  0  0  0  0  0  0  0  0  0
  139.4340   79.2910  220.1450 C   0  0  2  0  0  0  0  0  0  0  0  0
  138.5000   79.6440  219.1520 O   0  0  0  0  0  0  0  0  0  0  0  0
  140.4970   78.3590  219.5870 C   0  0  0  0  0  0  0  0  0  0  0  0
  140.8920   77.6250  220.8760 C   0  0  1  0  0  0  0  0  0  0  0  0
  141.4500   78.5320  221.8900 C   0  0  0  0  0  0  0  0  0  0  0  0
  141.3060   78.2770  223.2460 C   0  0  0  0  0  0  0  0  0  0  0  0
  141.8240   79.1180  224.2140 C   0  0  0  0  0  0  0  0  0  0  0  0
  142.5230   80.2710  223.8460 C   0  0  0  0  0  0  0  0  0  0  0  0
  142.6630   80.5190  222.5120 C   0  0  0  0  0  0  0  0  0  0  0  0
  142.1430   79.6740  221.5510 C   0  0  0  0  0  0  0  0  0  0  0  0
  140.1690   71.4880  223.2450 C   0  0  0  0  0  0  0  0  0  0  0  0
  139.3250   70.4530  222.8680 C   0  0  0  0  0  0  0  0  0  0  0  0
  139.0740   69.4250  223.7770 C   0  0  0  0  0  0  0  0  0  0  0  0
  139.6290   69.3970  225.0250 C   0  0  0  0  0  0  0  0  0  0  0  0
  139.4110   68.4070  225.9540 C   0  0  0  0  0  0  0  0  0  0  0  0
  140.0150   68.4520  227.2100 C   0  0  0  0  0  0  0  0  0  0  0  0
  140.8420   69.4980  227.5360 C   0  0  0  0  0  0  0  0  0  0  0  0
  141.4510   69.5820  228.7470 F   0  0  0  0  0  0  0  0  0  0  0  0
  141.0690   70.4970  226.6160 C   0  0  0  0  0  0  0  0  0  0  0  0
  140.4700   70.4610  225.3580 C   0  0  0  0  0  0  0  0  0  0  0  0
  140.7060   71.4470  224.4740 N   0  0  0  0  0  0  0  0  0  0  0  0
  138.8360   73.7890  223.0280 H   0  0  0  0  0  0  0  0  0  0  0  0
  140.9381   75.1116  221.5547 H   0  0  0  0  0  0  0  0  0  0  0  0
  139.6164   74.4866  220.4565 H   0  0  0  0  0  0  0  0  0  0  0  0
  137.6998   78.2902  220.9772 H   0  0  0  0  0  0  0  0  0  0  0  0
  138.6940   79.0554  222.1980 H   0  0  0  0  0  0  0  0  0  0  0  0
  139.8806   80.2261  220.5141 H   0  0  0  0  0  0  0  0  0  0  0  0
  137.8410   78.9110  219.0530 H   0  0  0  0  0  0  0  0  0  0  0  0
  140.0855   77.6718  218.8331 H   0  0  0  0  0  0  0  0  0  0  0  0
  141.3242   78.8553  219.0585 H   0  0  0  0  0  0  0  0  0  0  0  0
  141.6350   76.8265  220.7334 H   0  0  0  0  0  0  0  0  0  0  0  0
  140.7612   77.3751  223.5621 H   0  0  0  0  0  0  0  0  0  0  0  0
  141.6852   78.8783  225.2786 H   0  0  0  0  0  0  0  0  0  0  0  0
  142.9433   80.9510  224.6016 H   0  0  0  0  0  0  0  0  0  0  0  0
  143.2069   81.4199  222.1916 H   0  0  0  0  0  0  0  0  0  0  0  0
  142.2857   79.9188  220.4881 H   0  0  0  0  0  0  0  0  0  0  0  0
  138.8621   70.4434  221.8702 H   0  0  0  0  0  0  0  0  0  0  0  0
  138.4037   68.6058  223.4775 H   0  0  0  0  0  0  0  0  0  0  0  0
  138.7490   67.5654  225.7021 H   0  0  0  0  0  0  0  0  0  0  0  0
  139.8289   67.6497  227.9392 H   0  0  0  0  0  0  0  0  0  0  0  0
  141.7321   71.3349  226.8774 H   0  0  0  0  0  0  0  0  0  0  0  0
  1  2  2  0
  2  3  1  0
  3  4  1  0
  4  5  1  0
  5  6  2  0
  5  7  1  0
  7  8  1  0
  8  9  1  0
  9 10  1  0
  9 11  1  0
 11 12  1  0
 12 13  1  0
 13 14  2  0
 14 15  1  0
 15 16  2  0
 16 17  1  0
 17 18  2  0
  2 19  1  0
 19 20  2  0
 20 21  1  0
 21 22  2  0
 22 23  1  0
 23 24  2  0
 24 25  1  0
 25 26  1  0
 25 27  2  0
 27 28  1  0
 28 29  2  0
 12  7  1  0
 18 13  1  0
 29 19  1  0
 28 22  1  0
  3 30  1  0
  4 31  1  0
  4 32  1  0
  8 33  1  0
  8 34  1  0
  9 35  1  1
 10 36  1  0
 11 37  1  0
 11 38  1  0
 12 39  1  6
 14 40  1  0
 15 41  1  0
 16 42  1  0
 17 43  1  0
 18 44  1  0
 20 45  1  0
 21 46  1  0
 23 47  1  0
 24 48  1  0
 27 49  1  0
M  END
>  <smiles>  (33) 
O=C(NCC(=O)N1C[C@H](O)C[C@H]1c1ccccc1)c1ccc2ccc(F)cc2n1

>  <score_type>  (33) 
oracle

>  <origin>  (33) 
autodockgpu

>  <m_score__min__energy>  (33) 
-8.2200000000000006

>  <m_primary>  (33) 
energy

>  <rmsd>  (33) 
2.4587769761320413

>  <m_score__min__rmsd>  (33) 
2.4587769761320413

>  <meeko>  (33) 
{"free_energy": -7.97, "intermolecular_energy": -9.76, "internal_energy": -1.38, "cluster_size": 31, "cluster_id": 2, "rank_in_cluster": 19}

>  <energy>  (33) 
-7.04

>  <cluster_rmsd>  (33) 
1.81

>  <cluster>  (33) 
2

$$$$

     RDKit          3D

 49 52  0  0  0  0  0  0  0  0999 V2000
  138.8890   73.1100  221.2520 O   0  0  0  0  0  0  0  0  0  0  0  0
  139.9190   72.7190  221.8680 C   0  0  0  0  0  0  0  0  0  0  0  0
  141.2040   73.0660  221.4000 N   0  0  0  0  0  0  0  0  0  0  0  0
  141.3480   73.8650  220.2250 C   0  0  0  0  0  0  0  0  0  0  0  0
  141.6320   75.2810  220.5020 C   0  0  0  0  0  0  0  0  0  0  0  0
  142.7020   75.8700  220.2100 O   0  0  0  0  0  0  0  0  0  0  0  0
  140.6260   76.0530  221.1480 N   0  0  0  0  0  0  0  0  0  0  0  0
  139.9810   75.7180  222.4200 C   0  0  0  0  0  0  0  0  0  0  0  0
  138.6230   76.3750  222.2960 C   0  0  2  0  0  0  0  0  0  0  0  0
  137.6090   75.4220  222.5160 O   0  0  0  0  0  0  0  0  0  0  0  0
  138.5600   76.9220  220.8790 C   0  0  0  0  0  0  0  0  0  0  0  0
  140.0320   77.3160  220.6950 C   0  0  1  0  0  0  0  0  0  0  0  0
  140.4600   78.3490  221.6500 C   0  0  0  0  0  0  0  0  0  0  0  0
  139.5640   79.2740  222.1640 C   0  0  0  0  0  0  0  0  0  0  0  0
  139.9490   80.2530  223.0630 C   0  0  0  0  0  0  0  0  0  0  0  0
  141.2770   80.3370  223.4900 C   0  0  0  0  0  0  0  0  0  0  0  0
  142.1550   79.4250  222.9830 C   0  0  0  0  0  0  0  0  0  0  0  0
  141.7640   78.4510  222.0850 C   0  0  0  0  0  0  0  0  0  0  0  0
  139.8180   71.8950  223.0830 C   0  0  0  0  0  0  0  0  0  0  0  0
  139.0270   70.7550  223.0960 C   0  0  0  0  0  0  0  0  0  0  0  0
  138.9560   69.9990  224.2670 C   0  0  0  0  0  0  0  0  0  0  0  0
  139.6370   70.3390  225.4010 C   0  0  0  0  0  0  0  0  0  0  0  0
  139.5980   69.6270  226.5770 C   0  0  0  0  0  0  0  0  0  0  0  0
  140.3230   70.0410  227.6940 C   0  0  0  0  0  0  0  0  0  0  0  0
  141.0920   71.1770  227.6310 C   0  0  0  0  0  0  0  0  0  0  0  0
  141.8130   71.6160  228.6940 F   0  0  0  0  0  0  0  0  0  0  0  0
  141.1400   71.9000  226.4600 C   0  0  0  0  0  0  0  0  0  0  0  0
  140.4190   71.4940  225.3380 C   0  0  0  0  0  0  0  0  0  0  0  0
  140.4800   72.2160  224.2050 N   0  0  0  0  0  0  0  0  0  0  0  0
  142.0590   72.7440  221.9080 H   0  0  0  0  0  0  0  0  0  0  0  0
  142.1753   73.4559  219.6265 H   0  0  0  0  0  0  0  0  0  0  0  0
  140.3859   73.8291  219.6929 H   0  0  0  0  0  0  0  0  0  0  0  0
  139.8839   74.6288  222.5394 H   0  0  0  0  0  0  0  0  0  0  0  0
  140.5495   76.0595  223.2976 H   0  0  0  0  0  0  0  0  0  0  0  0
  138.4780   77.1756  223.0362 H   0  0  0  0  0  0  0  0  0  0  0  0
  138.0280   74.5410  222.6940 H   0  0  0  0  0  0  0  0  0  0  0  0
  138.2471   76.1542  220.1561 H   0  0  0  0  0  0  0  0  0  0  0  0
  137.8345   77.7337  220.7219 H   0  0  0  0  0  0  0  0  0  0  0  0
  140.2763   77.7013  219.6941 H   0  0  0  0  0  0  0  0  0  0  0  0
  138.5118   79.2280  221.8465 H   0  0  0  0  0  0  0  0  0  0  0  0
  139.2057   80.9690  223.4436 H   0  0  0  0  0  0  0  0  0  0  0  0
  141.6008   81.1071  224.2056 H   0  0  0  0  0  0  0  0  0  0  0  0
  143.2078   79.4663  223.2991 H   0  0  0  0  0  0  0  0  0  0  0  0
  142.5123   77.7386  221.7074 H   0  0  0  0  0  0  0  0  0  0  0  0
  138.4660   70.4526  222.1994 H   0  0  0  0  0  0  0  0  0  0  0  0
  138.3282   69.0958  224.2770 H   0  0  0  0  0  0  0  0  0  0  0  0
  138.9848   68.7158  226.6375 H   0  0  0  0  0  0  0  0  0  0  0  0
  140.2789   69.4576  228.6255 H   0  0  0  0  0  0  0  0  0  0  0  0
  141.7556   72.8102  226.4092 H   0  0  0  0  0  0  0  0  0  0  0  0
  1  2  2  0
  2  3  1  0
  3  4  1  0
  4  5  1  0
  5  6  2  0
  5  7  1  0
  7  8  1  0
  8  9  1  0
  9 10  1  0
  9 11  1  0
 11 12  1  0
 12 13  1  0
 13 14  2  0
 14 15  1  0
 15 16  2  0
 16 17  1  0
 17 18  2  0
  2 19  1  0
 19 20  2  0
 20 21  1  0
 21 22  2  0
 22 23  1  0
 23 24  2  0
 24 25  1  0
 25 26  1  0
 25 27  2  0
 27 28  1  0
 28 29  2  0
 12  7  1  0
 18 13  1  0
 29 19  1  0
 28 22  1  0
  3 30  1  0
  4 31  1  0
  4 32  1  0
  8 33  1  0
  8 34  1  0
  9 35  1  1
 10 36  1  0
 11 37  1  0
 11 38  1  0
 12 39  1  6
 14 40  1  0
 15 41  1  0
 16 42  1  0
 17 43  1  0
 18 44  1  0
 20 45  1  0
 21 46  1  0
 23 47  1  0
 24 48  1  0
 27 49  1  0
M  END
>  <smiles>  (34) 
O=C(NCC(=O)N1C[C@H](O)C[C@H]1c1ccccc1)c1ccc2ccc(F)cc2n1

>  <score_type>  (34) 
oracle

>  <origin>  (34) 
autodockgpu

>  <m_score__min__energy>  (34) 
-8.2200000000000006

>  <m_primary>  (34) 
energy

>  <rmsd>  (34) 
2.8503062226808185

>  <m_score__min__rmsd>  (34) 
2.8503062226808185

>  <meeko>  (34) 
{"free_energy": -7.22, "intermolecular_energy": -9.01, "internal_energy": -2.1, "cluster_size": 31, "cluster_id": 2, "rank_in_cluster": 27}

>  <energy>  (34) 
-7.03

>  <cluster_rmsd>  (34) 
1.72

>  <cluster>  (34) 
2

$$$$

     RDKit          3D

 49 52  0  0  0  0  0  0  0  0999 V2000
  140.2910   71.9270  221.0440 O   0  0  0  0  0  0  0  0  0  0  0  0
  139.9600   72.3670  222.1800 C   0  0  0  0  0  0  0  0  0  0  0  0
  139.5660   73.7120  222.3350 N   0  0  0  0  0  0  0  0  0  0  0  0
  139.5390   74.5870  221.2070 C   0  0  0  0  0  0  0  0  0  0  0  0
  139.1820   75.9750  221.5420 C   0  0  0  0  0  0  0  0  0  0  0  0
  138.1470   76.3200  222.1640 O   0  0  0  0  0  0  0  0  0  0  0  0
  140.0680   77.0120  221.1380 N   0  0  0  0  0  0  0  0  0  0  0  0
  139.7530   78.0750  220.1810 C   0  0  0  0  0  0  0  0  0  0  0  0
  141.1070   78.4210  219.5980 C   0  0  2  0  0  0  0  0  0  0  0  0
  141.0620   78.3220  218.1940 O   0  0  0  0  0  0  0  0  0  0  0  0
  142.0760   77.4070  220.1860 C   0  0  0  0  0  0  0  0  0  0  0  0
  141.4490   77.2360  221.5770 C   0  0  1  0  0  0  0  0  0  0  0  0
  141.4470   78.4880  222.3500 C   0  0  0  0  0  0  0  0  0  0  0  0
  140.3450   78.8730  223.0980 C   0  0  0  0  0  0  0  0  0  0  0  0
  140.3240   80.0460  223.8300 C   0  0  0  0  0  0  0  0  0  0  0  0
  141.4360   80.8930  223.8380 C   0  0  0  0  0  0  0  0  0  0  0  0
  142.5180   80.5110  223.1020 C   0  0  0  0  0  0  0  0  0  0  0  0
  142.5310   79.3380  222.3720 C   0  0  0  0  0  0  0  0  0  0  0  0
  139.9730   71.5020  223.3690 C   0  0  0  0  0  0  0  0  0  0  0  0
  139.4590   70.2140  223.3080 C   0  0  0  0  0  0  0  0  0  0  0  0
  139.4880   69.4230  224.4570 C   0  0  0  0  0  0  0  0  0  0  0  0
  140.0060   69.8680  225.6410 C   0  0  0  0  0  0  0  0  0  0  0  0
  140.0570   69.1260  226.7970 C   0  0  0  0  0  0  0  0  0  0  0  0
  140.6020   69.6540  227.9680 C   0  0  0  0  0  0  0  0  0  0  0  0
  141.0990   70.9340  227.9770 C   0  0  0  0  0  0  0  0  0  0  0  0
  141.6380   71.4870  229.0940 F   0  0  0  0  0  0  0  0  0  0  0  0
  141.0540   71.6880  226.8260 C   0  0  0  0  0  0  0  0  0  0  0  0
  140.5110   71.1700  225.6510 C   0  0  0  0  0  0  0  0  0  0  0  0
  140.4770   71.9240  224.5380 N   0  0  0  0  0  0  0  0  0  0  0  0
  139.2910   74.0800  223.2740 H   0  0  0  0  0  0  0  0  0  0  0  0
  140.5368   74.5873  220.7441 H   0  0  0  0  0  0  0  0  0  0  0  0
  138.7605   74.2105  220.5272 H   0  0  0  0  0  0  0  0  0  0  0  0
  139.0672   77.7138  219.4005 H   0  0  0  0  0  0  0  0  0  0  0  0
  139.2464   78.9362  220.6411 H   0  0  0  0  0  0  0  0  0  0  0  0
  141.4148   79.4494  219.8381 H   0  0  0  0  0  0  0  0  0  0  0  0
  140.4690   79.0320  217.8400 H   0  0  0  0  0  0  0  0  0  0  0  0
  142.0788   76.4648  219.6183 H   0  0  0  0  0  0  0  0  0  0  0  0
  143.1328   77.7122  220.1827 H   0  0  0  0  0  0  0  0  0  0  0  0
  141.9455   76.4844  222.2084 H   0  0  0  0  0  0  0  0  0  0  0  0
  139.4574   78.2234  223.1096 H   0  0  0  0  0  0  0  0  0  0  0  0
  139.4278   80.3139  224.4089 H   0  0  0  0  0  0  0  0  0  0  0  0
  141.4379   81.8297  224.4147 H   0  0  0  0  0  0  0  0  0  0  0  0
  143.4084   81.1567  223.0889 H   0  0  0  0  0  0  0  0  0  0  0  0
  143.4294   79.0762  221.7938 H   0  0  0  0  0  0  0  0  0  0  0  0
  139.0363   69.8239  222.3704 H   0  0  0  0  0  0  0  0  0  0  0  0
  139.0787   68.4031  224.4082 H   0  0  0  0  0  0  0  0  0  0  0  0
  139.6618   68.0994  226.7990 H   0  0  0  0  0  0  0  0  0  0  0  0
  140.6335   69.0451  228.8836 H   0  0  0  0  0  0  0  0  0  0  0  0
  141.4520   72.7134  226.8335 H   0  0  0  0  0  0  0  0  0  0  0  0
  1  2  2  0
  2  3  1  0
  3  4  1  0
  4  5  1  0
  5  6  2  0
  5  7  1  0
  7  8  1  0
  8  9  1  0
  9 10  1  0
  9 11  1  0
 11 12  1  0
 12 13  1  0
 13 14  2  0
 14 15  1  0
 15 16  2  0
 16 17  1  0
 17 18  2  0
  2 19  1  0
 19 20  2  0
 20 21  1  0
 21 22  2  0
 22 23  1  0
 23 24  2  0
 24 25  1  0
 25 26  1  0
 25 27  2  0
 27 28  1  0
 28 29  2  0
 12  7  1  0
 18 13  1  0
 29 19  1  0
 28 22  1  0
  3 30  1  0
  4 31  1  0
  4 32  1  0
  8 33  1  0
  8 34  1  0
  9 35  1  6
 10 36  1  0
 11 37  1  0
 11 38  1  0
 12 39  1  1
 14 40  1  0
 15 41  1  0
 16 42  1  0
 17 43  1  0
 18 44  1  0
 20 45  1  0
 21 46  1  0
 23 47  1  0
 24 48  1  0
 27 49  1  0
M  END
>  <smiles>  (35) 
O=C(NCC(=O)N1C[C@H](O)C[C@H]1c1ccccc1)c1ccc2ccc(F)cc2n1

>  <score_type>  (35) 
oracle

>  <origin>  (35) 
autodockgpu

>  <m_score__min__energy>  (35) 
-8.2200000000000006

>  <m_primary>  (35) 
energy

>  <rmsd>  (35) 
2.1190969838527893

>  <m_score__min__rmsd>  (35) 
2.1190969838527893

>  <meeko>  (35) 
{"free_energy": -8.09, "intermolecular_energy": -9.88, "internal_energy": -1.29, "cluster_size": 31, "cluster_id": 2, "rank_in_cluster": 7}

>  <energy>  (35) 
-6.71

>  <cluster_rmsd>  (35) 
1.98

>  <cluster>  (35) 
2

$$$$

     RDKit          3D

 49 52  0  0  0  0  0  0  0  0999 V2000
  139.9730   71.7800  221.0590 O   0  0  0  0  0  0  0  0  0  0  0  0
  139.8290   72.2950  222.2030 C   0  0  0  0  0  0  0  0  0  0  0  0
  139.6610   73.6880  222.3410 N   0  0  0  0  0  0  0  0  0  0  0  0
  139.6510   74.5280  221.1860 C   0  0  0  0  0  0  0  0  0  0  0  0
  140.8550   75.3620  221.0500 C   0  0  0  0  0  0  0  0  0  0  0  0
  142.0350   74.9370  221.1160 O   0  0  0  0  0  0  0  0  0  0  0  0
  140.6840   76.7570  220.8250 N   0  0  0  0  0  0  0  0  0  0  0  0
  139.4070   77.4730  220.8540 C   0  0  0  0  0  0  0  0  0  0  0  0
  139.6480   78.6380  219.9180 C   0  0  2  0  0  0  0  0  0  0  0  0
  138.6570   78.6600  218.9180 O   0  0  0  0  0  0  0  0  0  0  0  0
  141.0240   78.4010  219.3170 C   0  0  0  0  0  0  0  0  0  0  0  0
  141.7180   77.7520  220.5230 C   0  0  1  0  0  0  0  0  0  0  0  0
  141.7860   78.6530  221.6830 C   0  0  0  0  0  0  0  0  0  0  0  0
  142.1410   79.9870  221.5440 C   0  0  0  0  0  0  0  0  0  0  0  0
  142.2100   80.8490  222.6230 C   0  0  0  0  0  0  0  0  0  0  0  0
  141.9170   80.3920  223.9110 C   0  0  0  0  0  0  0  0  0  0  0  0
  141.5680   79.0810  224.0450 C   0  0  0  0  0  0  0  0  0  0  0  0
  141.5010   78.2260  222.9620 C   0  0  0  0  0  0  0  0  0  0  0  0
  139.8330   71.4680  223.4190 C   0  0  0  0  0  0  0  0  0  0  0  0
  139.2430   70.2120  223.4190 C   0  0  0  0  0  0  0  0  0  0  0  0
  139.2660   69.4570  224.5920 C   0  0  0  0  0  0  0  0  0  0  0  0
  139.8500   69.9080  225.7430 C   0  0  0  0  0  0  0  0  0  0  0  0
  139.8970   69.2020  226.9210 C   0  0  0  0  0  0  0  0  0  0  0  0
  140.5110   69.7330  228.0550 C   0  0  0  0  0  0  0  0  0  0  0  0
  141.0810   70.9810  228.0060 C   0  0  0  0  0  0  0  0  0  0  0  0
  141.6890   71.5360  229.0850 F   0  0  0  0  0  0  0  0  0  0  0  0
  141.0410   71.7000  226.8320 C   0  0  0  0  0  0  0  0  0  0  0  0
  140.4290   71.1770  225.6930 C   0  0  0  0  0  0  0  0  0  0  0  0
  140.4010   71.8970  224.5570 N   0  0  0  0  0  0  0  0  0  0  0  0
  139.5420   74.1180  223.2870 H   0  0  0  0  0  0  0  0  0  0  0  0
  139.5679   73.8902  220.2936 H   0  0  0  0  0  0  0  0  0  0  0  0
  138.7968   75.2125  221.2942 H   0  0  0  0  0  0  0  0  0  0  0  0
  138.5881   76.8356  220.4891 H   0  0  0  0  0  0  0  0  0  0  0  0
  139.1078   77.7846  221.8656 H   0  0  0  0  0  0  0  0  0  0  0  0
  139.6031   79.6069  220.4368 H   0  0  0  0  0  0  0  0  0  0  0  0
  139.0900   78.5620  218.0320 H   0  0  0  0  0  0  0  0  0  0  0  0
  140.9830   77.7219  218.4526 H   0  0  0  0  0  0  0  0  0  0  0  0
  141.5210   79.2969  218.9167 H   0  0  0  0  0  0  0  0  0  0  0  0
  142.7488   77.4208  220.3287 H   0  0  0  0  0  0  0  0  0  0  0  0
  142.3757   80.3722  220.5408 H   0  0  0  0  0  0  0  0  0  0  0  0
  142.4969   81.8994  222.4670 H   0  0  0  0  0  0  0  0  0  0  0  0
  141.9660   81.0630  224.7813 H   0  0  0  0  0  0  0  0  0  0  0  0
  141.3324   78.6919  225.0466 H   0  0  0  0  0  0  0  0  0  0  0  0
  141.2127   77.1770  223.1247 H   0  0  0  0  0  0  0  0  0  0  0  0
  138.7653   69.8184  222.5097 H   0  0  0  0  0  0  0  0  0  0  0  0
  138.7969   68.4620  224.5907 H   0  0  0  0  0  0  0  0  0  0  0  0
  139.4428   68.2014  226.9704 H   0  0  0  0  0  0  0  0  0  0  0  0
  140.5386   69.1520  228.9886 H   0  0  0  0  0  0  0  0  0  0  0  0
  141.4977   72.6999  226.7921 H   0  0  0  0  0  0  0  0  0  0  0  0
  1  2  2  0
  2  3  1  0
  3  4  1  0
  4  5  1  0
  5  6  2  0
  5  7  1  0
  7  8  1  0
  8  9  1  0
  9 10  1  0
  9 11  1  0
 11 12  1  0
 12 13  1  0
 13 14  2  0
 14 15  1  0
 15 16  2  0
 16 17  1  0
 17 18  2  0
  2 19  1  0
 19 20  2  0
 20 21  1  0
 21 22  2  0
 22 23  1  0
 23 24  2  0
 24 25  1  0
 25 26  1  0
 25 27  2  0
 27 28  1  0
 28 29  2  0
 12  7  1  0
 18 13  1  0
 29 19  1  0
 28 22  1  0
  3 30  1  0
  4 31  1  0
  4 32  1  0
  8 33  1  0
  8 34  1  0
  9 35  1  1
 10 36  1  0
 11 37  1  0
 11 38  1  0
 12 39  1  6
 14 40  1  0
 15 41  1  0
 16 42  1  0
 17 43  1  0
 18 44  1  0
 20 45  1  0
 21 46  1  0
 23 47  1  0
 24 48  1  0
 27 49  1  0
M  END
>  <smiles>  (36) 
O=C(NCC(=O)N1C[C@H](O)C[C@H]1c1ccccc1)c1ccc2ccc(F)cc2n1

>  <score_type>  (36) 
oracle

>  <origin>  (36) 
autodockgpu

>  <m_score__min__energy>  (36) 
-8.2200000000000006

>  <m_primary>  (36) 
energy

>  <rmsd>  (36) 
1.9645777977065622

>  <m_score__min__rmsd>  (36) 
1.9645777977065622

>  <meeko>  (36) 
{"free_energy": -8.17, "intermolecular_energy": -9.96, "internal_energy": -1.25, "cluster_size": 31, "cluster_id": 2, "rank_in_cluster": 3}

>  <energy>  (36) 
-6.68

>  <cluster_rmsd>  (36) 
1.98

>  <cluster>  (36) 
2

$$$$

     RDKit          3D

 49 52  0  0  0  0  0  0  0  0999 V2000
  135.8320   76.8840  222.4140 O   0  0  0  0  0  0  0  0  0  0  0  0
  136.0640   75.7850  222.9910 C   0  0  0  0  0  0  0  0  0  0  0  0
  137.1630   74.9920  222.5970 N   0  0  0  0  0  0  0  0  0  0  0  0
  138.0210   75.4280  221.5430 C   0  0  0  0  0  0  0  0  0  0  0  0
  139.2040   76.1680  222.0090 C   0  0  0  0  0  0  0  0  0  0  0  0
  140.2900   75.6410  222.3550 O   0  0  0  0  0  0  0  0  0  0  0  0
  139.1240   77.5870  222.0760 N   0  0  0  0  0  0  0  0  0  0  0  0
  138.2910   78.3500  223.0080 C   0  0  0  0  0  0  0  0  0  0  0  0
  138.0240   79.6340  222.2530 C   0  0  2  0  0  0  0  0  0  0  0  0
  136.6360   79.8600  222.1720 O   0  0  0  0  0  0  0  0  0  0  0  0
  138.6260   79.4300  220.8720 C   0  0  0  0  0  0  0  0  0  0  0  0
  139.8380   78.5670  221.2500 C   0  0  1  0  0  0  0  0  0  0  0  0
  140.7700   79.2710  222.1440 C   0  0  0  0  0  0  0  0  0  0  0  0
  141.3190   78.6450  223.2530 C   0  0  0  0  0  0  0  0  0  0  0  0
  142.1970   79.2900  224.1050 C   0  0  0  0  0  0  0  0  0  0  0  0
  142.5660   80.6170  223.8660 C   0  0  0  0  0  0  0  0  0  0  0  0
  142.0250   81.2290  222.7740 C   0  0  0  0  0  0  0  0  0  0  0  0
  141.1480   80.5790  221.9280 C   0  0  0  0  0  0  0  0  0  0  0  0
  135.2070   75.2980  224.0820 C   0  0  0  0  0  0  0  0  0  0  0  0
  134.4550   76.1870  224.8380 C   0  0  0  0  0  0  0  0  0  0  0  0
  133.6540   75.6860  225.8650 C   0  0  0  0  0  0  0  0  0  0  0  0
  133.5800   74.3530  226.1540 C   0  0  0  0  0  0  0  0  0  0  0  0
  132.8070   73.8140  227.1550 C   0  0  0  0  0  0  0  0  0  0  0  0
  132.7860   72.4390  227.3880 C   0  0  0  0  0  0  0  0  0  0  0  0
  133.5480   71.6000  226.6130 C   0  0  0  0  0  0  0  0  0  0  0  0
  133.5590   70.2560  226.8050 F   0  0  0  0  0  0  0  0  0  0  0  0
  134.3280   72.1260  225.6070 C   0  0  0  0  0  0  0  0  0  0  0  0
  134.3550   73.4990  225.3660 C   0  0  0  0  0  0  0  0  0  0  0  0
  135.1240   73.9920  224.3790 N   0  0  0  0  0  0  0  0  0  0  0  0
  137.3580   74.0820  223.0730 H   0  0  0  0  0  0  0  0  0  0  0  0
  138.3625   74.5435  220.9853 H   0  0  0  0  0  0  0  0  0  0  0  0
  137.4360   76.1191  220.9184 H   0  0  0  0  0  0  0  0  0  0  0  0
  137.3535   77.8179  223.2270 H   0  0  0  0  0  0  0  0  0  0  0  0
  138.7706   78.5130  223.9844 H   0  0  0  0  0  0  0  0  0  0  0  0
  138.4642   80.5106  222.7508 H   0  0  0  0  0  0  0  0  0  0  0  0
  136.1630   78.9920  222.2390 H   0  0  0  0  0  0  0  0  0  0  0  0
  137.9376   78.8984  220.1985 H   0  0  0  0  0  0  0  0  0  0  0  0
  138.8614   80.3533  220.3224 H   0  0  0  0  0  0  0  0  0  0  0  0
  140.4339   78.2212  220.3925 H   0  0  0  0  0  0  0  0  0  0  0  0
  141.0469   77.5999  223.4622 H   0  0  0  0  0  0  0  0  0  0  0  0
  142.6070   78.7562  224.9750 H   0  0  0  0  0  0  0  0  0  0  0  0
  143.2641   81.1459  224.5315 H   0  0  0  0  0  0  0  0  0  0  0  0
  142.2957   82.2735  222.5602 H   0  0  0  0  0  0  0  0  0  0  0  0
  140.7409   81.1185  221.0601 H   0  0  0  0  0  0  0  0  0  0  0  0
  134.4899   77.2668  224.6312 H   0  0  0  0  0  0  0  0  0  0  0  0
  133.0597   76.3912  226.4645 H   0  0  0  0  0  0  0  0  0  0  0  0
  132.1948   74.4783  227.7827 H   0  0  0  0  0  0  0  0  0  0  0  0
  132.1591   72.0269  228.1924 H   0  0  0  0  0  0  0  0  0  0  0  0
  134.9378   71.4539  224.9854 H   0  0  0  0  0  0  0  0  0  0  0  0
  1  2  2  0
  2  3  1  0
  3  4  1  0
  4  5  1  0
  5  6  2  0
  5  7  1  0
  7  8  1  0
  8  9  1  0
  9 10  1  0
  9 11  1  0
 11 12  1  0
 12 13  1  0
 13 14  2  0
 14 15  1  0
 15 16  2  0
 16 17  1  0
 17 18  2  0
  2 19  1  0
 19 20  2  0
 20 21  1  0
 21 22  2  0
 22 23  1  0
 23 24  2  0
 24 25  1  0
 25 26  1  0
 25 27  2  0
 27 28  1  0
 28 29  2  0
 12  7  1  0
 18 13  1  0
 29 19  1  0
 28 22  1  0
  3 30  1  0
  4 31  1  0
  4 32  1  0
  8 33  1  0
  8 34  1  0
  9 35  1  1
 10 36  1  0
 11 37  1  0
 11 38  1  0
 12 39  1  6
 14 40  1  0
 15 41  1  0
 16 42  1  0
 17 43  1  0
 18 44  1  0
 20 45  1  0
 21 46  1  0
 23 47  1  0
 24 48  1  0
 27 49  1  0
M  END
>  <smiles>  (37) 
O=C(NCC(=O)N1C[C@H](O)C[C@H]1c1ccccc1)c1ccc2ccc(F)cc2n1

>  <score_type>  (37) 
oracle

>  <origin>  (37) 
autodockgpu

>  <m_score__min__energy>  (37) 
-8.2200000000000006

>  <m_primary>  (37) 
energy

>  <rmsd>  (37) 
6.15627438852918

>  <m_score__min__rmsd>  (37) 
6.15627438852918

>  <meeko>  (37) 
{"free_energy": -6.59, "intermolecular_energy": -8.38, "internal_energy": -2.23, "cluster_size": 1, "cluster_id": 5, "rank_in_cluster": 1}

>  <energy>  (37) 
-8.06

>  <cluster_rmsd>  (37) 
0.0

>  <cluster>  (37) 
3

$$$$

     RDKit          3D

 49 52  0  0  0  0  0  0  0  0999 V2000
  141.4760   72.6230  221.6000 O   0  0  0  0  0  0  0  0  0  0  0  0
  140.4600   72.6430  222.3480 C   0  0  0  0  0  0  0  0  0  0  0  0
  139.5940   73.7560  222.3440 N   0  0  0  0  0  0  0  0  0  0  0  0
  139.8610   74.8700  221.4920 C   0  0  0  0  0  0  0  0  0  0  0  0
  138.9250   75.9910  221.6710 C   0  0  0  0  0  0  0  0  0  0  0  0
  137.7580   75.8870  222.1230 O   0  0  0  0  0  0  0  0  0  0  0  0
  139.3640   77.2960  221.3090 N   0  0  0  0  0  0  0  0  0  0  0  0
  138.5580   78.5160  221.3870 C   0  0  0  0  0  0  0  0  0  0  0  0
  139.1580   79.3900  220.3060 C   0  0  2  0  0  0  0  0  0  0  0  0
  138.1500   79.8070  219.4150 O   0  0  0  0  0  0  0  0  0  0  0  0
  140.1840   78.5190  219.5990 C   0  0  0  0  0  0  0  0  0  0  0  0
  140.6790   77.6910  220.7930 C   0  0  1  0  0  0  0  0  0  0  0  0
  141.3040   78.5240  221.8320 C   0  0  0  0  0  0  0  0  0  0  0  0
  142.0200   79.6670  221.5090 C   0  0  0  0  0  0  0  0  0  0  0  0
  142.6150   80.4620  222.4720 C   0  0  0  0  0  0  0  0  0  0  0  0
  142.5090   80.1290  223.8260 C   0  0  0  0  0  0  0  0  0  0  0  0
  141.8050   79.0050  224.1400 C   0  0  0  0  0  0  0  0  0  0  0  0
  141.2130   78.2160  223.1730 C   0  0  0  0  0  0  0  0  0  0  0  0
  140.1460   71.5180  223.2420 C   0  0  0  0  0  0  0  0  0  0  0  0
  139.2690   70.5210  222.8390 C   0  0  0  0  0  0  0  0  0  0  0  0
  138.9950   69.4700  223.7150 C   0  0  0  0  0  0  0  0  0  0  0  0
  139.5600   69.3840  224.9560 C   0  0  0  0  0  0  0  0  0  0  0  0
  139.3220   68.3690  225.8530 C   0  0  0  0  0  0  0  0  0  0  0  0
  139.9380   68.3540  227.1040 C   0  0  0  0  0  0  0  0  0  0  0  0
  140.7990   69.3640  227.4570 C   0  0  0  0  0  0  0  0  0  0  0  0
  141.4200   69.3880  228.6640 F   0  0  0  0  0  0  0  0  0  0  0  0
  141.0470   70.3860  226.5690 C   0  0  0  0  0  0  0  0  0  0  0  0
  140.4360   70.4110  225.3160 C   0  0  0  0  0  0  0  0  0  0  0  0
  140.6920   71.4190  224.4640 N   0  0  0  0  0  0  0  0  0  0  0  0
  138.7520   73.7760  222.9630 H   0  0  0  0  0  0  0  0  0  0  0  0
  140.8788   75.2309  221.7014 H   0  0  0  0  0  0  0  0  0  0  0  0
  139.7447   74.5172  220.4566 H   0  0  0  0  0  0  0  0  0  0  0  0
  137.4985   78.3038  221.1811 H   0  0  0  0  0  0  0  0  0  0  0  0
  138.5752   78.9841  222.3823 H   0  0  0  0  0  0  0  0  0  0  0  0
  139.6233   80.2992  220.7144 H   0  0  0  0  0  0  0  0  0  0  0  0
  138.1860   79.2450  218.6000 H   0  0  0  0  0  0  0  0  0  0  0  0
  139.7229   77.8879  218.8249 H   0  0  0  0  0  0  0  0  0  0  0  0
  140.9660   79.0665  219.0525 H   0  0  0  0  0  0  0  0  0  0  0  0
  141.4150   76.9158  220.5333 H   0  0  0  0  0  0  0  0  0  0  0  0
  142.1181   79.9511  220.4509 H   0  0  0  0  0  0  0  0  0  0  0  0
  143.1741   81.3603  222.1713 H   0  0  0  0  0  0  0  0  0  0  0  0
  142.9749   80.7491  224.6060 H   0  0  0  0  0  0  0  0  0  0  0  0
  141.7051   78.7170  225.1969 H   0  0  0  0  0  0  0  0  0  0  0  0
  140.6549   77.3194  223.4805 H   0  0  0  0  0  0  0  0  0  0  0  0
  138.7978   70.5586  221.8458 H   0  0  0  0  0  0  0  0  0  0  0  0
  138.2982   68.6814  223.3945 H   0  0  0  0  0  0  0  0  0  0  0  0
  138.6342   67.5554  225.5791 H   0  0  0  0  0  0  0  0  0  0  0  0
  139.7343   67.5335  227.8078 H   0  0  0  0  0  0  0  0  0  0  0  0
  141.7371   71.1946  226.8519 H   0  0  0  0  0  0  0  0  0  0  0  0
  1  2  2  0
  2  3  1  0
  3  4  1  0
  4  5  1  0
  5  6  2  0
  5  7  1  0
  7  8  1  0
  8  9  1  0
  9 10  1  0
  9 11  1  0
 11 12  1  0
 12 13  1  0
 13 14  2  0
 14 15  1  0
 15 16  2  0
 16 17  1  0
 17 18  2  0
  2 19  1  0
 19 20  2  0
 20 21  1  0
 21 22  2  0
 22 23  1  0
 23 24  2  0
 24 25  1  0
 25 26  1  0
 25 27  2  0
 27 28  1  0
 28 29  2  0
 12  7  1  0
 18 13  1  0
 29 19  1  0
 28 22  1  0
  3 30  1  0
  4 31  1  0
  4 32  1  0
  8 33  1  0
  8 34  1  0
  9 35  1  1
 10 36  1  0
 11 37  1  0
 11 38  1  0
 12 39  1  6
 14 40  1  0
 15 41  1  0
 16 42  1  0
 17 43  1  0
 18 44  1  0
 20 45  1  0
 21 46  1  0
 23 47  1  0
 24 48  1  0
 27 49  1  0
M  END
>  <smiles>  (38) 
O=C(NCC(=O)N1C[C@H](O)C[C@H]1c1ccccc1)c1ccc2ccc(F)cc2n1

>  <score_type>  (38) 
oracle

>  <origin>  (38) 
autodockgpu

>  <m_score__min__energy>  (38) 
-8.2200000000000006

>  <m_primary>  (38) 
energy

>  <rmsd>  (38) 
2.547733143750882

>  <m_score__min__rmsd>  (38) 
2.547733143750882

>  <meeko>  (38) 
{"free_energy": -7.86, "intermolecular_energy": -9.65, "internal_energy": -1.37, "cluster_size": 31, "cluster_id": 2, "rank_in_cluster": 23}

>  <energy>  (38) 
-8.06

>  <cluster_rmsd>  (38) 
0.2

>  <cluster>  (38) 
3

$$$$

     RDKit          3D

 49 52  0  0  0  0  0  0  0  0999 V2000
  140.7880   72.2680  221.1790 O   0  0  0  0  0  0  0  0  0  0  0  0
  140.1160   72.6190  222.1890 C   0  0  0  0  0  0  0  0  0  0  0  0
  139.4330   73.8540  222.1960 N   0  0  0  0  0  0  0  0  0  0  0  0
  139.4970   74.7160  221.0600 C   0  0  0  0  0  0  0  0  0  0  0  0
  140.7660   75.4500  220.9430 C   0  0  0  0  0  0  0  0  0  0  0  0
  141.9070   74.9360  221.0590 O   0  0  0  0  0  0  0  0  0  0  0  0
  140.7120   76.8470  220.6780 N   0  0  0  0  0  0  0  0  0  0  0  0
  139.4890   77.6380  220.5320 C   0  0  0  0  0  0  0  0  0  0  0  0
  139.9190   78.7650  219.6180 C   0  0  2  0  0  0  0  0  0  0  0  0
  139.0670   78.8240  218.4980 O   0  0  0  0  0  0  0  0  0  0  0  0
  141.3440   78.4340  219.2030 C   0  0  0  0  0  0  0  0  0  0  0  0
  141.8360   77.7720  220.4970 C   0  0  1  0  0  0  0  0  0  0  0  0
  141.8110   78.6930  221.6430 C   0  0  0  0  0  0  0  0  0  0  0  0
  142.1430   80.0320  221.5020 C   0  0  0  0  0  0  0  0  0  0  0  0
  142.1250   80.9130  222.5680 C   0  0  0  0  0  0  0  0  0  0  0  0
  141.7640   80.4700  223.8440 C   0  0  0  0  0  0  0  0  0  0  0  0
  141.4390   79.1530  223.9790 C   0  0  0  0  0  0  0  0  0  0  0  0
  141.4590   78.2790  222.9100 C   0  0  0  0  0  0  0  0  0  0  0  0
  140.0230   71.7630  223.3810 C   0  0  0  0  0  0  0  0  0  0  0  0
  139.3200   70.5670  223.3360 C   0  0  0  0  0  0  0  0  0  0  0  0
  139.2540   69.7820  224.4870 C   0  0  0  0  0  0  0  0  0  0  0  0
  139.8550   70.1450  225.6590 C   0  0  0  0  0  0  0  0  0  0  0  0
  139.8170   69.4060  226.8170 C   0  0  0  0  0  0  0  0  0  0  0  0
  140.4570   69.8480  227.9750 C   0  0  0  0  0  0  0  0  0  0  0  0
  141.1400   71.0390  227.9700 C   0  0  0  0  0  0  0  0  0  0  0  0
  141.7770   71.5070  229.0740 F   0  0  0  0  0  0  0  0  0  0  0  0
  141.1860   71.7900  226.8170 C   0  0  0  0  0  0  0  0  0  0  0  0
  140.5490   71.3570  225.6550 C   0  0  0  0  0  0  0  0  0  0  0  0
  140.6070   72.1070  224.5390 N   0  0  0  0  0  0  0  0  0  0  0  0
  138.8760   74.1470  223.0300 H   0  0  0  0  0  0  0  0  0  0  0  0
  139.3641   74.1064  220.1541 H   0  0  0  0  0  0  0  0  0  0  0  0
  138.7025   75.4669  221.1823 H   0  0  0  0  0  0  0  0  0  0  0  0
  138.6854   77.0425  220.0742 H   0  0  0  0  0  0  0  0  0  0  0  0
  139.0832   77.9896  221.4920 H   0  0  0  0  0  0  0  0  0  0  0  0
  139.8678   79.7461  220.1127 H   0  0  0  0  0  0  0  0  0  0  0  0
  138.2990   78.2150  218.6450 H   0  0  0  0  0  0  0  0  0  0  0  0
  141.3725   77.7398  218.3502 H   0  0  0  0  0  0  0  0  0  0  0  0
  141.9424   79.2900  218.8576 H   0  0  0  0  0  0  0  0  0  0  0  0
  142.8606   77.3755  220.4418 H   0  0  0  0  0  0  0  0  0  0  0  0
  142.4305   80.4062  220.5084 H   0  0  0  0  0  0  0  0  0  0  0  0
  142.3960   81.9675  222.4111 H   0  0  0  0  0  0  0  0  0  0  0  0
  141.7431   81.1560  224.7036 H   0  0  0  0  0  0  0  0  0  0  0  0
  141.1517   78.7744  224.9710 H   0  0  0  0  0  0  0  0  0  0  0  0
  141.1872   77.2257  223.0736 H   0  0  0  0  0  0  0  0  0  0  0  0
  138.8237   70.2440  222.4090 H   0  0  0  0  0  0  0  0  0  0  0  0
  138.6967   68.8343  224.4497 H   0  0  0  0  0  0  0  0  0  0  0  0
  139.2729   68.4501  226.8310 H   0  0  0  0  0  0  0  0  0  0  0  0
  140.4145   69.2423  228.8922 H   0  0  0  0  0  0  0  0  0  0  0  0
  141.7327   72.7445  226.8126 H   0  0  0  0  0  0  0  0  0  0  0  0
  1  2  2  0
  2  3  1  0
  3  4  1  0
  4  5  1  0
  5  6  2  0
  5  7  1  0
  7  8  1  0
  8  9  1  0
  9 10  1  0
  9 11  1  0
 11 12  1  0
 12 13  1  0
 13 14  2  0
 14 15  1  0
 15 16  2  0
 16 17  1  0
 17 18  2  0
  2 19  1  0
 19 20  2  0
 20 21  1  0
 21 22  2  0
 22 23  1  0
 23 24  2  0
 24 25  1  0
 25 26  1  0
 25 27  2  0
 27 28  1  0
 28 29  2  0
 12  7  1  0
 18 13  1  0
 29 19  1  0
 28 22  1  0
  3 30  1  0
  4 31  1  0
  4 32  1  0
  8 33  1  0
  8 34  1  0
  9 35  1  1
 10 36  1  0
 11 37  1  0
 11 38  1  0
 12 39  1  6
 14 40  1  0
 15 41  1  0
 16 42  1  0
 17 43  1  0
 18 44  1  0
 20 45  1  0
 21 46  1  0
 23 47  1  0
 24 48  1  0
 27 49  1  0
M  END
>  <smiles>  (39) 
O=C(NCC(=O)N1C[C@H](O)C[C@H]1c1ccccc1)c1ccc2ccc(F)cc2n1

>  <score_type>  (39) 
oracle

>  <origin>  (39) 
autodockgpu

>  <m_score__min__energy>  (39) 
-8.2200000000000006

>  <m_primary>  (39) 
energy

>  <rmsd>  (39) 
2.019801050706726

>  <m_score__min__rmsd>  (39) 
2.019801050706726

>  <meeko>  (39) 
{"free_energy": -8.19, "intermolecular_energy": -9.98, "internal_energy": -1.17, "cluster_size": 31, "cluster_id": 2, "rank_in_cluster": 2}

>  <energy>  (39) 
-8.05

>  <cluster_rmsd>  (39) 
0.17

>  <cluster>  (39) 
3

$$$$

     RDKit          3D

 49 52  0  0  0  0  0  0  0  0999 V2000
  140.8670   72.5410  221.3660 O   0  0  0  0  0  0  0  0  0  0  0  0
  140.0000   72.7000  222.2700 C   0  0  0  0  0  0  0  0  0  0  0  0
  139.1780   73.8470  222.2740 N   0  0  0  0  0  0  0  0  0  0  0  0
  139.3200   74.8350  221.2540 C   0  0  0  0  0  0  0  0  0  0  0  0
  140.6130   75.5350  221.2820 C   0  0  0  0  0  0  0  0  0  0  0  0
  141.7090   75.0080  221.5970 O   0  0  0  0  0  0  0  0  0  0  0  0
  140.6390   76.9130  220.9270 N   0  0  0  0  0  0  0  0  0  0  0  0
  139.4630   77.7600  220.7200 C   0  0  0  0  0  0  0  0  0  0  0  0
  139.9610   78.8000  219.7390 C   0  0  2  0  0  0  0  0  0  0  0  0
  139.1210   78.8340  218.6090 O   0  0  0  0  0  0  0  0  0  0  0  0
  141.3680   78.3640  219.3600 C   0  0  0  0  0  0  0  0  0  0  0  0
  141.8150   77.7600  220.6980 C   0  0  1  0  0  0  0  0  0  0  0  0
  141.8350   78.7540  221.7830 C   0  0  0  0  0  0  0  0  0  0  0  0
  141.5040   78.4090  223.0850 C   0  0  0  0  0  0  0  0  0  0  0  0
  141.5170   79.3290  224.1180 C   0  0  0  0  0  0  0  0  0  0  0  0
  141.8720   80.6590  223.8740 C   0  0  0  0  0  0  0  0  0  0  0  0
  142.1960   80.9940  222.5920 C   0  0  0  0  0  0  0  0  0  0  0  0
  142.1810   80.0700  221.5660 C   0  0  0  0  0  0  0  0  0  0  0  0
  139.8200   71.7080  223.3410 C   0  0  0  0  0  0  0  0  0  0  0  0
  138.9050   70.6750  223.1960 C   0  0  0  0  0  0  0  0  0  0  0  0
  138.7610   69.7530  224.2330 C   0  0  0  0  0  0  0  0  0  0  0  0
  139.4890   69.8280  225.3870 C   0  0  0  0  0  0  0  0  0  0  0  0
  139.3820   68.9450  226.4360 C   0  0  0  0  0  0  0  0  0  0  0  0
  140.1610   69.0910  227.5830 C   0  0  0  0  0  0  0  0  0  0  0  0
  141.0530   70.1310  227.6790 C   0  0  0  0  0  0  0  0  0  0  0  0
  141.8310   70.3110  228.7770 F   0  0  0  0  0  0  0  0  0  0  0  0
  141.1700   71.0230  226.6370 C   0  0  0  0  0  0  0  0  0  0  0  0
  140.3960   70.8860  225.4860 C   0  0  0  0  0  0  0  0  0  0  0  0
  140.5260   71.7690  224.4800 N   0  0  0  0  0  0  0  0  0  0  0  0
  138.4600   73.9820  223.0220 H   0  0  0  0  0  0  0  0  0  0  0  0
  139.2135   74.3421  220.2764 H   0  0  0  0  0  0  0  0  0  0  0  0
  138.5418   75.5921  221.4306 H   0  0  0  0  0  0  0  0  0  0  0  0
  138.6295   77.1821  220.2943 H   0  0  0  0  0  0  0  0  0  0  0  0
  139.0725   78.1949  221.6519 H   0  0  0  0  0  0  0  0  0  0  0  0
  139.9613   79.8124  220.1692 H   0  0  0  0  0  0  0  0  0  0  0  0
  139.6800   78.8910  217.7930 H   0  0  0  0  0  0  0  0  0  0  0  0
  141.3625   77.6160  218.5535 H   0  0  0  0  0  0  0  0  0  0  0  0
  142.0154   79.1617  218.9668 H   0  0  0  0  0  0  0  0  0  0  0  0
  142.8158   77.3040  220.6781 H   0  0  0  0  0  0  0  0  0  0  0  0
  141.2216   77.3686  223.3036 H   0  0  0  0  0  0  0  0  0  0  0  0
  141.2467   79.0126  225.1362 H   0  0  0  0  0  0  0  0  0  0  0  0
  141.8893   81.4046  224.6825 H   0  0  0  0  0  0  0  0  0  0  0  0
  142.4782   82.0334  222.3684 H   0  0  0  0  0  0  0  0  0  0  0  0
  142.4521   80.3926  220.5499 H   0  0  0  0  0  0  0  0  0  0  0  0
  138.3037   70.5847  222.2794 H   0  0  0  0  0  0  0  0  0  0  0  0
  138.0344   68.9352  224.1174 H   0  0  0  0  0  0  0  0  0  0  0  0
  138.6697   68.1094  226.3689 H   0  0  0  0  0  0  0  0  0  0  0  0
  140.0613   68.3735  228.4108 H   0  0  0  0  0  0  0  0  0  0  0  0
  141.8845   71.8558  226.7139 H   0  0  0  0  0  0  0  0  0  0  0  0
  1  2  2  0
  2  3  1  0
  3  4  1  0
  4  5  1  0
  5  6  2  0
  5  7  1  0
  7  8  1  0
  8  9  1  0
  9 10  1  0
  9 11  1  0
 11 12  1  0
 12 13  1  0
 13 14  2  0
 14 15  1  0
 15 16  2  0
 16 17  1  0
 17 18  2  0
  2 19  1  0
 19 20  2  0
 20 21  1  0
 21 22  2  0
 22 23  1  0
 23 24  2  0
 24 25  1  0
 25 26  1  0
 25 27  2  0
 27 28  1  0
 28 29  2  0
 12  7  1  0
 18 13  1  0
 29 19  1  0
 28 22  1  0
  3 30  1  0
  4 31  1  0
  4 32  1  0
  8 33  1  0
  8 34  1  0
  9 35  1  1
 10 36  1  0
 11 37  1  0
 11 38  1  0
 12 39  1  6
 14 40  1  0
 15 41  1  0
 16 42  1  0
 17 43  1  0
 18 44  1  0
 20 45  1  0
 21 46  1  0
 23 47  1  0
 24 48  1  0
 27 49  1  0
M  END
>  <smiles>  (40) 
O=C(NCC(=O)N1C[C@H](O)C[C@H]1c1ccccc1)c1ccc2ccc(F)cc2n1

>  <score_type>  (40) 
oracle

>  <origin>  (40) 
autodockgpu

>  <m_score__min__energy>  (40) 
-8.2200000000000006

>  <m_primary>  (40) 
energy

>  <rmsd>  (40) 
2.065240427326468

>  <m_score__min__rmsd>  (40) 
2.065240427326468

>  <meeko>  (40) 
{"free_energy": -8.08, "intermolecular_energy": -9.87, "internal_energy": -1.06, "cluster_size": 31, "cluster_id": 2, "rank_in_cluster": 9}

>  <energy>  (40) 
-8.04

>  <cluster_rmsd>  (40) 
0.18

>  <cluster>  (40) 
3

$$$$

     RDKit          3D

 49 52  0  0  0  0  0  0  0  0999 V2000
  140.2800   71.5840  220.9970 O   0  0  0  0  0  0  0  0  0  0  0  0
  140.0500   72.1460  222.1040 C   0  0  0  0  0  0  0  0  0  0  0  0
  139.8000   73.5340  222.1590 N   0  0  0  0  0  0  0  0  0  0  0  0
  139.8040   74.3120  220.9620 C   0  0  0  0  0  0  0  0  0  0  0  0
  140.6650   75.5030  221.0340 C   0  0  0  0  0  0  0  0  0  0  0  0
  140.5110   76.4540  221.8390 O   0  0  0  0  0  0  0  0  0  0  0  0
  141.7600   75.5950  220.1290 N   0  0  0  0  0  0  0  0  0  0  0  0
  142.7390   76.6830  220.0860 C   0  0  0  0  0  0  0  0  0  0  0  0
  143.1800   76.6870  218.6380 C   0  0  2  0  0  0  0  0  0  0  0  0
  143.0060   77.9730  218.0890 O   0  0  0  0  0  0  0  0  0  0  0  0
  142.2930   75.6700  217.9370 C   0  0  0  0  0  0  0  0  0  0  0  0
  142.1340   74.6490  219.0720 C   0  0  1  0  0  0  0  0  0  0  0  0
  143.4180   74.0550  219.4760 C   0  0  0  0  0  0  0  0  0  0  0  0
  143.7100   73.8030  220.8080 C   0  0  0  0  0  0  0  0  0  0  0  0
  144.9110   73.2450  221.2070 C   0  0  0  0  0  0  0  0  0  0  0  0
  145.8830   72.9110  220.2590 C   0  0  0  0  0  0  0  0  0  0  0  0
  145.5920   73.1600  218.9510 C   0  0  0  0  0  0  0  0  0  0  0  0
  144.3910   73.7180  218.5600 C   0  0  0  0  0  0  0  0  0  0  0  0
  140.0350   71.3840  223.3610 C   0  0  0  0  0  0  0  0  0  0  0  0
  139.5020   70.1030  223.4020 C   0  0  0  0  0  0  0  0  0  0  0  0
  139.5050   69.4110  224.6130 C   0  0  0  0  0  0  0  0  0  0  0  0
  140.0150   69.9460  225.7620 C   0  0  0  0  0  0  0  0  0  0  0  0
  140.0400   69.3030  226.9780 C   0  0  0  0  0  0  0  0  0  0  0  0
  140.5780   69.9190  228.1070 C   0  0  0  0  0  0  0  0  0  0  0  0
  141.0940   71.1890  228.0160 C   0  0  0  0  0  0  0  0  0  0  0  0
  141.6270   71.8260  229.0900 F   0  0  0  0  0  0  0  0  0  0  0  0
  141.0750   71.8440  226.8060 C   0  0  0  0  0  0  0  0  0  0  0  0
  140.5390   71.2370  225.6710 C   0  0  0  0  0  0  0  0  0  0  0  0
  140.5310   71.8960  224.4980 N   0  0  0  0  0  0  0  0  0  0  0  0
  139.6090   74.0020  223.0740 H   0  0  0  0  0  0  0  0  0  0  0  0
  140.1577   73.6771  220.1363 H   0  0  0  0  0  0  0  0  0  0  0  0
  138.7749   74.6680  220.8064 H   0  0  0  0  0  0  0  0  0  0  0  0
  142.2763   77.6423  220.3610 H   0  0  0  0  0  0  0  0  0  0  0  0
  143.5711   76.5457  220.7922 H   0  0  0  0  0  0  0  0  0  0  0  0
  144.2436   76.4299  218.5250 H   0  0  0  0  0  0  0  0  0  0  0  0
  143.5920   78.6110  218.5710 H   0  0  0  0  0  0  0  0  0  0  0  0
  141.3278   76.1044  217.6375 H   0  0  0  0  0  0  0  0  0  0  0  0
  142.6960   75.2662  216.9965 H   0  0  0  0  0  0  0  0  0  0  0  0
  141.4651   73.8086  218.8349 H   0  0  0  0  0  0  0  0  0  0  0  0
  142.9611   74.0554  221.5731 H   0  0  0  0  0  0  0  0  0  0  0  0
  145.1023   73.0632  222.2749 H   0  0  0  0  0  0  0  0  0  0  0  0
  146.8436   72.4654  220.5568 H   0  0  0  0  0  0  0  0  0  0  0  0
  146.3376   72.9084  218.1824 H   0  0  0  0  0  0  0  0  0  0  0  0
  144.2063   73.8980  217.4907 H   0  0  0  0  0  0  0  0  0  0  0  0
  139.0844   69.6415  222.4950 H   0  0  0  0  0  0  0  0  0  0  0  0
  139.0809   68.3965  224.6441 H   0  0  0  0  0  0  0  0  0  0  0  0
  139.6287   68.2861  227.0608 H   0  0  0  0  0  0  0  0  0  0  0  0
  140.5894   69.3883  229.0704 H   0  0  0  0  0  0  0  0  0  0  0  0
  141.4885   72.8607  226.7332 H   0  0  0  0  0  0  0  0  0  0  0  0
  1  2  2  0
  2  3  1  0
  3  4  1  0
  4  5  1  0
  5  6  2  0
  5  7  1  0
  7  8  1  0
  8  9  1  0
  9 10  1  0
  9 11  1  0
 11 12  1  0
 12 13  1  0
 13 14  2  0
 14 15  1  0
 15 16  2  0
 16 17  1  0
 17 18  2  0
  2 19  1  0
 19 20  2  0
 20 21  1  0
 21 22  2  0
 22 23  1  0
 23 24  2  0
 24 25  1  0
 25 26  1  0
 25 27  2  0
 27 28  1  0
 28 29  2  0
 12  7  1  0
 18 13  1  0
 29 19  1  0
 28 22  1  0
  3 30  1  0
  4 31  1  0
  4 32  1  0
  8 33  1  0
  8 34  1  0
  9 35  1  1
 10 36  1  0
 11 37  1  0
 11 38  1  0
 12 39  1  6
 14 40  1  0
 15 41  1  0
 16 42  1  0
 17 43  1  0
 18 44  1  0
 20 45  1  0
 21 46  1  0
 23 47  1  0
 24 48  1  0
 27 49  1  0
M  END
>  <smiles>  (41) 
O=C(NCC(=O)N1C[C@H](O)C[C@H]1c1ccccc1)c1ccc2ccc(F)cc2n1

>  <score_type>  (41) 
oracle

>  <origin>  (41) 
autodockgpu

>  <m_score__min__energy>  (41) 
-8.2200000000000006

>  <m_primary>  (41) 
energy

>  <rmsd>  (41) 
2.3811073125929876

>  <m_score__min__rmsd>  (41) 
2.3811073125929876

>  <meeko>  (41) 
{"free_energy": -7.93, "intermolecular_energy": -9.72, "internal_energy": -1.58, "cluster_size": 10, "cluster_id": 3, "rank_in_cluster": 9}

>  <energy>  (41) 
-8.03

>  <cluster_rmsd>  (41) 
0.1

>  <cluster>  (41) 
3

$$$$

     RDKit          3D

 49 52  0  0  0  0  0  0  0  0999 V2000
  139.7020   71.9180  220.9750 O   0  0  0  0  0  0  0  0  0  0  0  0
  139.6900   72.3920  222.1450 C   0  0  0  0  0  0  0  0  0  0  0  0
  139.5610   73.7820  222.3480 N   0  0  0  0  0  0  0  0  0  0  0  0
  139.4410   74.6630  221.2300 C   0  0  0  0  0  0  0  0  0  0  0  0
  139.1510   76.0560  221.6030 C   0  0  0  0  0  0  0  0  0  0  0  0
  138.1590   76.4280  222.2780 O   0  0  0  0  0  0  0  0  0  0  0  0
  140.0550   77.0680  221.1740 N   0  0  0  0  0  0  0  0  0  0  0  0
  139.7590   78.1110  220.1900 C   0  0  0  0  0  0  0  0  0  0  0  0
  141.1200   78.4190  219.6010 C   0  0  2  0  0  0  0  0  0  0  0  0
  141.0760   78.2850  218.2000 O   0  0  0  0  0  0  0  0  0  0  0  0
  142.0710   77.4060  220.2170 C   0  0  0  0  0  0  0  0  0  0  0  0
  141.4390   77.2800  221.6100 C   0  0  1  0  0  0  0  0  0  0  0  0
  141.4560   78.5510  222.3500 C   0  0  0  0  0  0  0  0  0  0  0  0
  140.3600   78.9740  223.0870 C   0  0  0  0  0  0  0  0  0  0  0  0
  140.3580   80.1650  223.7890 C   0  0  0  0  0  0  0  0  0  0  0  0
  141.4830   80.9940  223.7770 C   0  0  0  0  0  0  0  0  0  0  0  0
  142.5590   80.5760  223.0520 C   0  0  0  0  0  0  0  0  0  0  0  0
  142.5550   79.3850  222.3530 C   0  0  0  0  0  0  0  0  0  0  0  0
  139.8100   71.5230  223.3240 C   0  0  0  0  0  0  0  0  0  0  0  0
  139.4240   70.1910  223.2600 C   0  0  0  0  0  0  0  0  0  0  0  0
  139.5530   69.3970  224.4000 C   0  0  0  0  0  0  0  0  0  0  0  0
  140.0460   69.8810  225.5790 C   0  0  0  0  0  0  0  0  0  0  0  0
  140.1910   69.1380  226.7270 C   0  0  0  0  0  0  0  0  0  0  0  0
  140.7020   69.7070  227.8930 C   0  0  0  0  0  0  0  0  0  0  0  0
  141.0700   71.0300  227.9070 C   0  0  0  0  0  0  0  0  0  0  0  0
  141.5730   71.6240  229.0190 F   0  0  0  0  0  0  0  0  0  0  0  0
  140.9310   71.7860  226.7640 C   0  0  0  0  0  0  0  0  0  0  0  0
  140.4200   71.2260  225.5940 C   0  0  0  0  0  0  0  0  0  0  0  0
  140.2920   71.9830  224.4890 N   0  0  0  0  0  0  0  0  0  0  0  0
  139.5510   74.1790  223.3150 H   0  0  0  0  0  0  0  0  0  0  0  0
  140.3872   74.6434  220.6694 H   0  0  0  0  0  0  0  0  0  0  0  0
  138.5903   74.3071  220.6303 H   0  0  0  0  0  0  0  0  0  0  0  0
  139.0683   77.7415  219.4177 H   0  0  0  0  0  0  0  0  0  0  0  0
  139.2660   78.9920  220.6268 H   0  0  0  0  0  0  0  0  0  0  0  0
  141.4443   79.4481  219.8151 H   0  0  0  0  0  0  0  0  0  0  0  0
  140.6470   77.4210  217.9720 H   0  0  0  0  0  0  0  0  0  0  0  0
  142.0603   76.4497  219.6735 H   0  0  0  0  0  0  0  0  0  0  0  0
  143.1324   77.6948  220.2087 H   0  0  0  0  0  0  0  0  0  0  0  0
  141.9218   76.5363  222.2610 H   0  0  0  0  0  0  0  0  0  0  0  0
  139.4614   78.3401  223.1139 H   0  0  0  0  0  0  0  0  0  0  0  0
  139.4660   80.4618  224.3602 H   0  0  0  0  0  0  0  0  0  0  0  0
  141.4995   81.9448  224.3299 H   0  0  0  0  0  0  0  0  0  0  0  0
  143.4592   81.2075  223.0228 H   0  0  0  0  0  0  0  0  0  0  0  0
  143.4505   79.0940  221.7843 H   0  0  0  0  0  0  0  0  0  0  0  0
  139.0233   69.7689  222.3266 H   0  0  0  0  0  0  0  0  0  0  0  0
  139.2464   68.3419  224.3478 H   0  0  0  0  0  0  0  0  0  0  0  0
  139.8991   68.0774  226.7255 H   0  0  0  0  0  0  0  0  0  0  0  0
  140.8103   69.0963  228.8014 H   0  0  0  0  0  0  0  0  0  0  0  0
  141.2270   72.8454  226.7745 H   0  0  0  0  0  0  0  0  0  0  0  0
  1  2  2  0
  2  3  1  0
  3  4  1  0
  4  5  1  0
  5  6  2  0
  5  7  1  0
  7  8  1  0
  8  9  1  0
  9 10  1  0
  9 11  1  0
 11 12  1  0
 12 13  1  0
 13 14  2  0
 14 15  1  0
 15 16  2  0
 16 17  1  0
 17 18  2  0
  2 19  1  0
 19 20  2  0
 20 21  1  0
 21 22  2  0
 22 23  1  0
 23 24  2  0
 24 25  1  0
 25 26  1  0
 25 27  2  0
 27 28  1  0
 28 29  2  0
 12  7  1  0
 18 13  1  0
 29 19  1  0
 28 22  1  0
  3 30  1  0
  4 31  1  0
  4 32  1  0
  8 33  1  0
  8 34  1  0
  9 35  1  6
 10 36  1  0
 11 37  1  0
 11 38  1  0
 12 39  1  1
 14 40  1  0
 15 41  1  0
 16 42  1  0
 17 43  1  0
 18 44  1  0
 20 45  1  0
 21 46  1  0
 23 47  1  0
 24 48  1  0
 27 49  1  0
M  END
>  <smiles>  (42) 
O=C(NCC(=O)N1C[C@H](O)C[C@H]1c1ccccc1)c1ccc2ccc(F)cc2n1

>  <score_type>  (42) 
oracle

>  <origin>  (42) 
autodockgpu

>  <m_score__min__energy>  (42) 
-8.2200000000000006

>  <m_primary>  (42) 
energy

>  <rmsd>  (42) 
2.12080816449346

>  <m_score__min__rmsd>  (42) 
2.12080816449346

>  <meeko>  (42) 
{"free_energy": -7.97, "intermolecular_energy": -9.76, "internal_energy": -1.36, "cluster_size": 31, "cluster_id": 2, "rank_in_cluster": 18}

>  <energy>  (42) 
-8.03

>  <cluster_rmsd>  (42) 
0.13

>  <cluster>  (42) 
3

$$$$

     RDKit          3D

 49 52  0  0  0  0  0  0  0  0999 V2000
  140.4370   71.7310  220.9910 O   0  0  0  0  0  0  0  0  0  0  0  0
  140.1220   72.2620  222.0920 C   0  0  0  0  0  0  0  0  0  0  0  0
  139.8220   73.6390  222.1590 N   0  0  0  0  0  0  0  0  0  0  0  0
  139.8720   74.4430  220.9800 C   0  0  0  0  0  0  0  0  0  0  0  0
  140.8220   75.5620  221.0660 C   0  0  0  0  0  0  0  0  0  0  0  0
  140.7810   76.4750  221.9270 O   0  0  0  0  0  0  0  0  0  0  0  0
  141.8730   75.6250  220.1080 N   0  0  0  0  0  0  0  0  0  0  0  0
  142.7940   76.7490  219.9290 C   0  0  0  0  0  0  0  0  0  0  0  0
  143.1760   76.6480  218.4680 C   0  0  2  0  0  0  0  0  0  0  0  0
  142.9160   77.8710  217.8200 O   0  0  0  0  0  0  0  0  0  0  0  0
  142.3120   75.5350  217.8960 C   0  0  0  0  0  0  0  0  0  0  0  0
  142.2500   74.6090  219.1190 C   0  0  1  0  0  0  0  0  0  0  0  0
  143.5770   74.1120  219.5140 C   0  0  0  0  0  0  0  0  0  0  0  0
  144.5090   73.7120  218.5690 C   0  0  0  0  0  0  0  0  0  0  0  0
  145.7620   73.2410  218.9210 C   0  0  0  0  0  0  0  0  0  0  0  0
  146.1310   73.1550  220.2660 C   0  0  0  0  0  0  0  0  0  0  0  0
  145.2110   73.5490  221.1930 C   0  0  0  0  0  0  0  0  0  0  0  0
  143.9630   74.0180  220.8340 C   0  0  0  0  0  0  0  0  0  0  0  0
  140.0580   71.4730  223.3310 C   0  0  0  0  0  0  0  0  0  0  0  0
  139.4580   70.2210  223.3390 C   0  0  0  0  0  0  0  0  0  0  0  0
  139.4160   69.5020  224.5340 C   0  0  0  0  0  0  0  0  0  0  0  0
  139.9450   69.9840  225.6980 C   0  0  0  0  0  0  0  0  0  0  0  0
  139.9270   69.3130  226.8980 C   0  0  0  0  0  0  0  0  0  0  0  0
  140.4890   69.8740  228.0450 C   0  0  0  0  0  0  0  0  0  0  0  0
  141.0710   71.1160  227.9870 C   0  0  0  0  0  0  0  0  0  0  0  0
  141.6300   71.6990  229.0780 F   0  0  0  0  0  0  0  0  0  0  0  0
  141.0960   71.7990  226.7910 C   0  0  0  0  0  0  0  0  0  0  0  0
  140.5370   71.2470  225.6400 C   0  0  0  0  0  0  0  0  0  0  0  0
  140.5720   71.9320  224.4830 N   0  0  0  0  0  0  0  0  0  0  0  0
  139.5600   74.0820  223.0690 H   0  0  0  0  0  0  0  0  0  0  0  0
  140.1658   73.8025  220.1354 H   0  0  0  0  0  0  0  0  0  0  0  0
  138.8716   74.8808  220.8475 H   0  0  0  0  0  0  0  0  0  0  0  0
  142.2955   77.7062  220.1419 H   0  0  0  0  0  0  0  0  0  0  0  0
  143.6597   76.7117  220.6066 H   0  0  0  0  0  0  0  0  0  0  0  0
  144.2457   76.4317  218.3307 H   0  0  0  0  0  0  0  0  0  0  0  0
  143.7240   78.1470  217.3160 H   0  0  0  0  0  0  0  0  0  0  0  0
  141.3152   75.8977  217.6049 H   0  0  0  0  0  0  0  0  0  0  0  0
  142.6955   75.0703  216.9757 H   0  0  0  0  0  0  0  0  0  0  0  0
  141.6147   73.7213  218.9837 H   0  0  0  0  0  0  0  0  0  0  0  0
  144.2437   73.7709  217.5031 H   0  0  0  0  0  0  0  0  0  0  0  0
  146.4707   72.9329  218.1382 H   0  0  0  0  0  0  0  0  0  0  0  0
  147.1227   72.7848  220.5651 H   0  0  0  0  0  0  0  0  0  0  0  0
  145.4716   73.4912  222.2601 H   0  0  0  0  0  0  0  0  0  0  0  0
  143.2587   74.3245  221.6215 H   0  0  0  0  0  0  0  0  0  0  0  0
  139.0232   69.8031  222.4191 H   0  0  0  0  0  0  0  0  0  0  0  0
  138.9395   68.5106  224.5393 H   0  0  0  0  0  0  0  0  0  0  0  0
  139.4619   68.3178  226.9545 H   0  0  0  0  0  0  0  0  0  0  0  0
  140.4658   69.3213  228.9958 H   0  0  0  0  0  0  0  0  0  0  0  0
  141.5635   72.7936  226.7439 H   0  0  0  0  0  0  0  0  0  0  0  0
  1  2  2  0
  2  3  1  0
  3  4  1  0
  4  5  1  0
  5  6  2  0
  5  7  1  0
  7  8  1  0
  8  9  1  0
  9 10  1  0
  9 11  1  0
 11 12  1  0
 12 13  1  0
 13 14  2  0
 14 15  1  0
 15 16  2  0
 16 17  1  0
 17 18  2  0
  2 19  1  0
 19 20  2  0
 20 21  1  0
 21 22  2  0
 22 23  1  0
 23 24  2  0
 24 25  1  0
 25 26  1  0
 25 27  2  0
 27 28  1  0
 28 29  2  0
 12  7  1  0
 18 13  1  0
 29 19  1  0
 28 22  1  0
  3 30  1  0
  4 31  1  0
  4 32  1  0
  8 33  1  0
  8 34  1  0
  9 35  1  1
 10 36  1  0
 11 37  1  0
 11 38  1  0
 12 39  1  6
 14 40  1  0
 15 41  1  0
 16 42  1  0
 17 43  1  0
 18 44  1  0
 20 45  1  0
 21 46  1  0
 23 47  1  0
 24 48  1  0
 27 49  1  0
M  END
>  <smiles>  (43) 
O=C(NCC(=O)N1C[C@H](O)C[C@H]1c1ccccc1)c1ccc2ccc(F)cc2n1

>  <score_type>  (43) 
oracle

>  <origin>  (43) 
autodockgpu

>  <m_score__min__energy>  (43) 
-8.2200000000000006

>  <m_primary>  (43) 
energy

>  <rmsd>  (43) 
2.4201439850800703

>  <m_score__min__rmsd>  (43) 
2.4201439850800703

>  <meeko>  (43) 
{"free_energy": -8.05, "intermolecular_energy": -9.83, "internal_energy": -1.53, "cluster_size": 10, "cluster_id": 3, "rank_in_cluster": 3}

>  <energy>  (43) 
-7.98

>  <cluster_rmsd>  (43) 
0.22

>  <cluster>  (43) 
3

$$$$

     RDKit          3D

 49 52  0  0  0  0  0  0  0  0999 V2000
  139.5960   71.7470  221.0500 O   0  0  0  0  0  0  0  0  0  0  0  0
  139.6320   72.2530  222.2060 C   0  0  0  0  0  0  0  0  0  0  0  0
  139.5310   73.6500  222.3750 N   0  0  0  0  0  0  0  0  0  0  0  0
  139.3860   74.5020  221.2390 C   0  0  0  0  0  0  0  0  0  0  0  0
  139.0420   75.8910  221.5810 C   0  0  0  0  0  0  0  0  0  0  0  0
  138.0200   76.2410  222.2210 O   0  0  0  0  0  0  0  0  0  0  0  0
  139.9260   76.9240  221.1610 N   0  0  0  0  0  0  0  0  0  0  0  0
  139.6100   77.9710  220.1870 C   0  0  0  0  0  0  0  0  0  0  0  0
  140.9640   78.3100  219.6010 C   0  0  2  0  0  0  0  0  0  0  0  0
  140.9210   78.1890  218.1980 O   0  0  0  0  0  0  0  0  0  0  0  0
  141.9340   77.3090  220.2070 C   0  0  0  0  0  0  0  0  0  0  0  0
  141.3060   77.1590  221.5990 C   0  0  1  0  0  0  0  0  0  0  0  0
  141.2990   78.4230  222.3510 C   0  0  0  0  0  0  0  0  0  0  0  0
  140.2100   78.7990  223.1230 C   0  0  0  0  0  0  0  0  0  0  0  0
  140.1850   79.9840  223.8360 C   0  0  0  0  0  0  0  0  0  0  0  0
  141.2790   80.8520  223.8010 C   0  0  0  0  0  0  0  0  0  0  0  0
  142.3490   80.4790  223.0410 C   0  0  0  0  0  0  0  0  0  0  0  0
  142.3660   79.2950  222.3310 C   0  0  0  0  0  0  0  0  0  0  0  0
  139.7810   71.4140  223.4040 C   0  0  0  0  0  0  0  0  0  0  0  0
  139.3790   70.0850  223.3870 C   0  0  0  0  0  0  0  0  0  0  0  0
  139.5360   69.3200  224.5440 C   0  0  0  0  0  0  0  0  0  0  0  0
  140.0710   69.8300  225.6930 C   0  0  0  0  0  0  0  0  0  0  0  0
  140.2450   69.1160  226.8550 C   0  0  0  0  0  0  0  0  0  0  0  0
  140.8000   69.7090  227.9890 C   0  0  0  0  0  0  0  0  0  0  0  0
  141.1820   71.0280  227.9560 C   0  0  0  0  0  0  0  0  0  0  0  0
  141.7260   71.6450  229.0350 F   0  0  0  0  0  0  0  0  0  0  0  0
  141.0140   71.7550  226.7980 C   0  0  0  0  0  0  0  0  0  0  0  0
  140.4600   71.1700  225.6600 C   0  0  0  0  0  0  0  0  0  0  0  0
  140.3050   71.8990  224.5400 N   0  0  0  0  0  0  0  0  0  0  0  0
  139.5610   74.0720  223.3310 H   0  0  0  0  0  0  0  0  0  0  0  0
  140.3360   74.5060  220.6845 H   0  0  0  0  0  0  0  0  0  0  0  0
  138.5530   74.1024  220.6420 H   0  0  0  0  0  0  0  0  0  0  0  0
  138.9260   77.5961  219.4113 H   0  0  0  0  0  0  0  0  0  0  0  0
  139.1007   78.8383  220.6324 H   0  0  0  0  0  0  0  0  0  0  0  0
  141.2698   79.3426  219.8250 H   0  0  0  0  0  0  0  0  0  0  0  0
  140.2650   78.8380  217.8380 H   0  0  0  0  0  0  0  0  0  0  0  0
  141.9402   76.3576  219.6549 H   0  0  0  0  0  0  0  0  0  0  0  0
  142.9899   77.6172  220.2004 H   0  0  0  0  0  0  0  0  0  0  0  0
  141.8037   76.4194  222.2435 H   0  0  0  0  0  0  0  0  0  0  0  0
  139.3364   78.1322  223.1699 H   0  0  0  0  0  0  0  0  0  0  0  0
  139.2990   80.2443  224.4337 H   0  0  0  0  0  0  0  0  0  0  0  0
  141.2779   81.7975  224.3631 H   0  0  0  0  0  0  0  0  0  0  0  0
  143.2253   81.1422  222.9925 H   0  0  0  0  0  0  0  0  0  0  0  0
  143.2542   79.0411  221.7339 H   0  0  0  0  0  0  0  0  0  0  0  0
  138.9447   69.6430  222.4782 H   0  0  0  0  0  0  0  0  0  0  0  0
  139.2171   68.2673  224.5301 H   0  0  0  0  0  0  0  0  0  0  0  0
  139.9414   68.0593  226.8910 H   0  0  0  0  0  0  0  0  0  0  0  0
  140.9317   69.1207  228.9091 H   0  0  0  0  0  0  0  0  0  0  0  0
  141.3210   72.8110  226.7708 H   0  0  0  0  0  0  0  0  0  0  0  0
  1  2  2  0
  2  3  1  0
  3  4  1  0
  4  5  1  0
  5  6  2  0
  5  7  1  0
  7  8  1  0
  8  9  1  0
  9 10  1  0
  9 11  1  0
 11 12  1  0
 12 13  1  0
 13 14  2  0
 14 15  1  0
 15 16  2  0
 16 17  1  0
 17 18  2  0
  2 19  1  0
 19 20  2  0
 20 21  1  0
 21 22  2  0
 22 23  1  0
 23 24  2  0
 24 25  1  0
 25 26  1  0
 25 27  2  0
 27 28  1  0
 28 29  2  0
 12  7  1  0
 18 13  1  0
 29 19  1  0
 28 22  1  0
  3 30  1  0
  4 31  1  0
  4 32  1  0
  8 33  1  0
  8 34  1  0
  9 35  1  6
 10 36  1  0
 11 37  1  0
 11 38  1  0
 12 39  1  1
 14 40  1  0
 15 41  1  0
 16 42  1  0
 17 43  1  0
 18 44  1  0
 20 45  1  0
 21 46  1  0
 23 47  1  0
 24 48  1  0
 27 49  1  0
M  END
>  <smiles>  (44) 
O=C(NCC(=O)N1C[C@H](O)C[C@H]1c1ccccc1)c1ccc2ccc(F)cc2n1

>  <score_type>  (44) 
oracle

>  <origin>  (44) 
autodockgpu

>  <m_score__min__energy>  (44) 
-8.2200000000000006

>  <m_primary>  (44) 
energy

>  <rmsd>  (44) 
2.0423570798646873

>  <m_score__min__rmsd>  (44) 
2.0423570798646873

>  <meeko>  (44) 
{"free_energy": -7.96, "intermolecular_energy": -9.75, "internal_energy": -1.35, "cluster_size": 31, "cluster_id": 2, "rank_in_cluster": 20}

>  <energy>  (44) 
-7.95

>  <cluster_rmsd>  (44) 
0.11

>  <cluster>  (44) 
3

$$$$

     RDKit          3D

 49 52  0  0  0  0  0  0  0  0999 V2000
  138.2950   71.1870  221.5320 O   0  0  0  0  0  0  0  0  0  0  0  0
  139.0790   70.3270  222.0210 C   0  0  0  0  0  0  0  0  0  0  0  0
  139.9120   69.5620  221.1770 N   0  0  0  0  0  0  0  0  0  0  0  0
  139.8730   69.7570  219.7620 C   0  0  0  0  0  0  0  0  0  0  0  0
  140.9440   70.6280  219.2550 C   0  0  0  0  0  0  0  0  0  0  0  0
  141.5890   70.4320  218.1950 O   0  0  0  0  0  0  0  0  0  0  0  0
  141.2840   71.7840  220.0120 N   0  0  0  0  0  0  0  0  0  0  0  0
  141.3670   71.8510  221.4730 C   0  0  0  0  0  0  0  0  0  0  0  0
  141.0540   73.3020  221.7660 C   0  0  2  0  0  0  0  0  0  0  0  0
  139.9860   73.3850  222.6800 O   0  0  0  0  0  0  0  0  0  0  0  0
  140.6760   73.9170  220.4280 C   0  0  0  0  0  0  0  0  0  0  0  0
  141.6140   73.1220  219.5100 C   0  0  1  0  0  0  0  0  0  0  0  0
  143.0330   73.3510  219.8250 C   0  0  0  0  0  0  0  0  0  0  0  0
  143.9580   72.3180  219.7840 C   0  0  0  0  0  0  0  0  0  0  0  0
  145.2950   72.5130  220.0770 C   0  0  0  0  0  0  0  0  0  0  0  0
  145.7630   73.7840  220.4270 C   0  0  0  0  0  0  0  0  0  0  0  0
  144.8510   74.7970  220.4650 C   0  0  0  0  0  0  0  0  0  0  0  0
  143.5170   74.5940  220.1720 C   0  0  0  0  0  0  0  0  0  0  0  0
  139.1520   70.0940  223.4710 C   0  0  0  0  0  0  0  0  0  0  0  0
  138.4280   69.0640  224.0550 C   0  0  0  0  0  0  0  0  0  0  0  0
  138.5220   68.8740  225.4340 C   0  0  0  0  0  0  0  0  0  0  0  0
  139.3020   69.6620  226.2320 C   0  0  0  0  0  0  0  0  0  0  0  0
  139.4260   69.5140  227.5930 C   0  0  0  0  0  0  0  0  0  0  0  0
  140.2440   70.3630  228.3390 C   0  0  0  0  0  0  0  0  0  0  0  0
  140.9410   71.3670  227.7140 C   0  0  0  0  0  0  0  0  0  0  0  0
  141.7480   72.2160  228.4010 F   0  0  0  0  0  0  0  0  0  0  0  0
  140.8250   71.5280  226.3510 C   0  0  0  0  0  0  0  0  0  0  0  0
  140.0110   70.6850  225.5970 C   0  0  0  0  0  0  0  0  0  0  0  0
  139.9120   70.8600  224.2680 N   0  0  0  0  0  0  0  0  0  0  0  0
  140.5620   68.8490  221.5770 H   0  0  0  0  0  0  0  0  0  0  0  0
  139.9633   68.7755  219.2737 H   0  0  0  0  0  0  0  0  0  0  0  0
  138.9190   70.2541  219.5324 H   0  0  0  0  0  0  0  0  0  0  0  0
  140.6279   71.1847  221.9419 H   0  0  0  0  0  0  0  0  0  0  0  0
  142.3427   71.5302  221.8667 H   0  0  0  0  0  0  0  0  0  0  0  0
  141.9064   73.8299  222.2184 H   0  0  0  0  0  0  0  0  0  0  0  0
  139.5850   72.4850  222.7910 H   0  0  0  0  0  0  0  0  0  0  0  0
  139.6178   73.7450  220.1816 H   0  0  0  0  0  0  0  0  0  0  0  0
  140.7794   75.0106  220.3694 H   0  0  0  0  0  0  0  0  0  0  0  0
  141.4952   73.3433  218.4390 H   0  0  0  0  0  0  0  0  0  0  0  0
  143.6160   71.3093  219.5090 H   0  0  0  0  0  0  0  0  0  0  0  0
  145.9940   71.6647  220.0347 H   0  0  0  0  0  0  0  0  0  0  0  0
  146.8233   73.9591  220.6619 H   0  0  0  0  0  0  0  0  0  0  0  0
  145.1886   75.8078  220.7377 H   0  0  0  0  0  0  0  0  0  0  0  0
  142.8228   75.4461  220.2167 H   0  0  0  0  0  0  0  0  0  0  0  0
  137.7915   68.4092  223.4417 H   0  0  0  0  0  0  0  0  0  0  0  0
  137.9462   68.0587  225.8962 H   0  0  0  0  0  0  0  0  0  0  0  0
  138.8709   68.7126  228.1025 H   0  0  0  0  0  0  0  0  0  0  0  0
  140.3304   70.2280  229.4273 H   0  0  0  0  0  0  0  0  0  0  0  0
  141.3827   72.3333  225.8507 H   0  0  0  0  0  0  0  0  0  0  0  0
  1  2  2  0
  2  3  1  0
  3  4  1  0
  4  5  1  0
  5  6  2  0
  5  7  1  0
  7  8  1  0
  8  9  1  0
  9 10  1  0
  9 11  1  0
 11 12  1  0
 12 13  1  0
 13 14  2  0
 14 15  1  0
 15 16  2  0
 16 17  1  0
 17 18  2  0
  2 19  1  0
 19 20  2  0
 20 21  1  0
 21 22  2  0
 22 23  1  0
 23 24  2  0
 24 25  1  0
 25 26  1  0
 25 27  2  0
 27 28  1  0
 28 29  2  0
 12  7  1  0
 18 13  1  0
 29 19  1  0
 28 22  1  0
  3 30  1  0
  4 31  1  0
  4 32  1  0
  8 33  1  0
  8 34  1  0
  9 35  1  1
 10 36  1  0
 11 37  1  0
 11 38  1  0
 12 39  1  6
 14 40  1  0
 15 41  1  0
 16 42  1  0
 17 43  1  0
 18 44  1  0
 20 45  1  0
 21 46  1  0
 23 47  1  0
 24 48  1  0
 27 49  1  0
M  END
>  <smiles>  (45) 
O=C(NCC(=O)N1C[C@H](O)C[C@H]1c1ccccc1)c1ccc2ccc(F)cc2n1

>  <score_type>  (45) 
oracle

>  <origin>  (45) 
autodockgpu

>  <m_score__min__energy>  (45) 
-8.2200000000000006

>  <m_primary>  (45) 
energy

>  <rmsd>  (45) 
3.5275743632472896

>  <m_score__min__rmsd>  (45) 
3.5275743632472896

>  <meeko>  (45) 
{"free_energy": -6.91, "intermolecular_energy": -8.69, "internal_energy": -2.31, "cluster_size": 3, "cluster_id": 4, "rank_in_cluster": 1}

>  <energy>  (45) 
-7.93

>  <cluster_rmsd>  (45) 
0.42

>  <cluster>  (45) 
3

$$$$

     RDKit          3D

 49 52  0  0  0  0  0  0  0  0999 V2000
  138.3260   70.4340  221.4150 O   0  0  0  0  0  0  0  0  0  0  0  0
  138.3510   71.0680  222.5070 C   0  0  0  0  0  0  0  0  0  0  0  0
  137.8780   72.3950  222.5710 N   0  0  0  0  0  0  0  0  0  0  0  0
  137.3680   73.0330  221.4000 C   0  0  0  0  0  0  0  0  0  0  0  0
  138.3670   73.8380  220.6810 C   0  0  0  0  0  0  0  0  0  0  0  0
  138.1290   74.9240  220.0960 O   0  0  0  0  0  0  0  0  0  0  0  0
  139.7070   73.3620  220.6380 N   0  0  0  0  0  0  0  0  0  0  0  0
  140.2590   72.4650  219.6210 C   0  0  0  0  0  0  0  0  0  0  0  0
  141.3670   71.7490  220.3640 C   0  0  2  0  0  0  0  0  0  0  0  0
  141.1870   70.3560  220.2640 O   0  0  0  0  0  0  0  0  0  0  0  0
  141.2570   72.2110  221.8080 C   0  0  0  0  0  0  0  0  0  0  0  0
  140.7960   73.6570  221.5750 C   0  0  1  0  0  0  0  0  0  0  0  0
  141.7880   74.4490  220.8320 C   0  0  0  0  0  0  0  0  0  0  0  0
  141.4150   75.5550  220.0820 C   0  0  0  0  0  0  0  0  0  0  0  0
  142.3320   76.3110  219.3760 C   0  0  0  0  0  0  0  0  0  0  0  0
  143.6900   75.9780  219.4010 C   0  0  0  0  0  0  0  0  0  0  0  0
  144.0530   74.8910  220.1390 C   0  0  0  0  0  0  0  0  0  0  0  0
  143.1310   74.1400  220.8410 C   0  0  0  0  0  0  0  0  0  0  0  0
  138.8680   70.4510  223.7380 C   0  0  0  0  0  0  0  0  0  0  0  0
  138.7430   69.0840  223.9460 C   0  0  0  0  0  0  0  0  0  0  0  0
  139.2460   68.5350  225.1270 C   0  0  0  0  0  0  0  0  0  0  0  0
  139.8570   69.2920  226.0860 C   0  0  0  0  0  0  0  0  0  0  0  0
  140.3670   68.7970  227.2630 C   0  0  0  0  0  0  0  0  0  0  0  0
  140.9770   69.6370  228.1930 C   0  0  0  0  0  0  0  0  0  0  0  0
  141.0760   70.9840  227.9410 C   0  0  0  0  0  0  0  0  0  0  0  0
  141.6620   71.8380  228.8190 F   0  0  0  0  0  0  0  0  0  0  0  0
  140.5700   71.4930  226.7660 C   0  0  0  0  0  0  0  0  0  0  0  0
  139.9580   70.6610  225.8300 C   0  0  0  0  0  0  0  0  0  0  0  0
  139.4700   71.1800  224.6890 N   0  0  0  0  0  0  0  0  0  0  0  0
  137.8970   72.9220  223.4740 H   0  0  0  0  0  0  0  0  0  0  0  0
  136.9918   72.2565  220.7177 H   0  0  0  0  0  0  0  0  0  0  0  0
  136.5768   73.7227  221.7292 H   0  0  0  0  0  0  0  0  0  0  0  0
  139.4982   71.7546  219.2653 H   0  0  0  0  0  0  0  0  0  0  0  0
  140.6103   72.9927  218.7221 H   0  0  0  0  0  0  0  0  0  0  0  0
  142.3607   71.9755  219.9501 H   0  0  0  0  0  0  0  0  0  0  0  0
  140.2430   70.1370  220.4730 H   0  0  0  0  0  0  0  0  0  0  0  0
  140.5125   71.6281  222.3701 H   0  0  0  0  0  0  0  0  0  0  0  0
  142.1735   72.1017  222.4064 H   0  0  0  0  0  0  0  0  0  0  0  0
  140.5805   74.2181  222.4962 H   0  0  0  0  0  0  0  0  0  0  0  0
  140.3531   75.8401  220.0480 H   0  0  0  0  0  0  0  0  0  0  0  0
  141.9919   77.1787  218.7917 H   0  0  0  0  0  0  0  0  0  0  0  0
  144.4347   76.5690  218.8478 H   0  0  0  0  0  0  0  0  0  0  0  0
  145.1139   74.6029  220.1766 H   0  0  0  0  0  0  0  0  0  0  0  0
  143.4774   73.2728  221.4223 H   0  0  0  0  0  0  0  0  0  0  0  0
  138.2566   68.4452  223.1941 H   0  0  0  0  0  0  0  0  0  0  0  0
  139.1466   67.4519  225.2915 H   0  0  0  0  0  0  0  0  0  0  0  0
  140.2924   67.7200  227.4742 H   0  0  0  0  0  0  0  0  0  0  0  0
  141.3792   69.2215  229.1287 H   0  0  0  0  0  0  0  0  0  0  0  0
  140.6498   72.5712  226.5631 H   0  0  0  0  0  0  0  0  0  0  0  0
  1  2  2  0
  2  3  1  0
  3  4  1  0
  4  5  1  0
  5  6  2  0
  5  7  1  0
  7  8  1  0
  8  9  1  0
  9 10  1  0
  9 11  1  0
 11 12  1  0
 12 13  1  0
 13 14  2  0
 14 15  1  0
 15 16  2  0
 16 17  1  0
 17 18  2  0
  2 19  1  0
 19 20  2  0
 20 21  1  0
 21 22  2  0
 22 23  1  0
 23 24  2  0
 24 25  1  0
 25 26  1  0
 25 27  2  0
 27 28  1  0
 28 29  2  0
 12  7  1  0
 18 13  1  0
 29 19  1  0
 28 22  1  0
  3 30  1  0
  4 31  1  0
  4 32  1  0
  8 33  1  0
  8 34  1  0
  9 35  1  6
 10 36  1  0
 11 37  1  0
 11 38  1  0
 12 39  1  1
 14 40  1  0
 15 41  1  0
 16 42  1  0
 17 43  1  0
 18 44  1  0
 20 45  1  0
 21 46  1  0
 23 47  1  0
 24 48  1  0
 27 49  1  0
M  END
>  <smiles>  (46) 
O=C(NCC(=O)N1C[C@H](O)C[C@H]1c1ccccc1)c1ccc2ccc(F)cc2n1

>  <score_type>  (46) 
oracle

>  <origin>  (46) 
autodockgpu

>  <m_score__min__energy>  (46) 
-8.2200000000000006

>  <m_primary>  (46) 
energy

>  <rmsd>  (46) 
2.862322804924755

>  <m_score__min__rmsd>  (46) 
2.862322804924755

>  <meeko>  (46) 
{"free_energy": -6.45, "intermolecular_energy": -8.24, "internal_energy": -2.58, "cluster_size": 3, "cluster_id": 4, "rank_in_cluster": 3}

>  <energy>  (46) 
-7.9

>  <cluster_rmsd>  (46) 
0.2

>  <cluster>  (46) 
3

$$$$

     RDKit          3D

 49 52  0  0  0  0  0  0  0  0999 V2000
  140.3240   71.7170  221.0040 O   0  0  0  0  0  0  0  0  0  0  0  0
  140.0630   72.2560  222.1150 C   0  0  0  0  0  0  0  0  0  0  0  0
  139.7920   73.6390  222.1890 N   0  0  0  0  0  0  0  0  0  0  0  0
  139.8100   74.4380  221.0070 C   0  0  0  0  0  0  0  0  0  0  0  0
  140.7450   75.5720  221.0720 C   0  0  0  0  0  0  0  0  0  0  0  0
  140.6850   76.5050  221.9120 O   0  0  0  0  0  0  0  0  0  0  0  0
  141.8010   75.6270  220.1200 N   0  0  0  0  0  0  0  0  0  0  0  0
  142.7430   76.7370  219.9580 C   0  0  0  0  0  0  0  0  0  0  0  0
  143.1290   76.6440  218.4970 C   0  0  2  0  0  0  0  0  0  0  0  0
  142.8940   77.8790  217.8610 O   0  0  0  0  0  0  0  0  0  0  0  0
  142.2490   75.5520  217.9090 C   0  0  0  0  0  0  0  0  0  0  0  0
  142.1650   74.6150  219.1220 C   0  0  1  0  0  0  0  0  0  0  0  0
  143.4810   74.0900  219.5170 C   0  0  0  0  0  0  0  0  0  0  0  0
  144.4190   73.7050  218.5720 C   0  0  0  0  0  0  0  0  0  0  0  0
  145.6610   73.2090  218.9240 C   0  0  0  0  0  0  0  0  0  0  0  0
  146.0140   73.0810  220.2710 C   0  0  0  0  0  0  0  0  0  0  0  0
  145.0890   73.4610  221.1980 C   0  0  0  0  0  0  0  0  0  0  0  0
  143.8500   73.9550  220.8380 C   0  0  0  0  0  0  0  0  0  0  0  0
  140.0330   71.4710  223.3580 C   0  0  0  0  0  0  0  0  0  0  0  0
  139.4830   70.1970  223.3740 C   0  0  0  0  0  0  0  0  0  0  0  0
  139.4720   69.4840  224.5730 C   0  0  0  0  0  0  0  0  0  0  0  0
  139.9860   69.9910  225.7330 C   0  0  0  0  0  0  0  0  0  0  0  0
  139.9980   69.3260  226.9370 C   0  0  0  0  0  0  0  0  0  0  0  0
  140.5400   69.9150  228.0790 C   0  0  0  0  0  0  0  0  0  0  0  0
  141.0740   71.1780  228.0130 C   0  0  0  0  0  0  0  0  0  0  0  0
  141.6120   71.7890  229.0990 F   0  0  0  0  0  0  0  0  0  0  0  0
  141.0680   71.8550  226.8140 C   0  0  0  0  0  0  0  0  0  0  0  0
  140.5280   71.2760  225.6670 C   0  0  0  0  0  0  0  0  0  0  0  0
  140.5320   71.9560  224.5060 N   0  0  0  0  0  0  0  0  0  0  0  0
  139.5760   74.0890  223.1080 H   0  0  0  0  0  0  0  0  0  0  0  0
  140.0989   73.7982  220.1601 H   0  0  0  0  0  0  0  0  0  0  0  0
  138.8011   74.8604  220.8900 H   0  0  0  0  0  0  0  0  0  0  0  0
  142.2607   77.7006  220.1791 H   0  0  0  0  0  0  0  0  0  0  0  0
  143.6047   76.6778  220.6391 H   0  0  0  0  0  0  0  0  0  0  0  0
  144.1952   76.4096  218.3617 H   0  0  0  0  0  0  0  0  0  0  0  0
  143.7010   78.1350  217.3450 H   0  0  0  0  0  0  0  0  0  0  0  0
  141.2600   75.9347  217.6167 H   0  0  0  0  0  0  0  0  0  0  0  0
  142.6291   75.0903  216.9858 H   0  0  0  0  0  0  0  0  0  0  0  0
  141.5145   73.7402  218.9749 H   0  0  0  0  0  0  0  0  0  0  0  0
  144.1668   73.7972  217.5053 H   0  0  0  0  0  0  0  0  0  0  0  0
  146.3746   72.9138  218.1407 H   0  0  0  0  0  0  0  0  0  0  0  0
  146.9975   72.6898  220.5705 H   0  0  0  0  0  0  0  0  0  0  0  0
  145.3371   73.3714  222.2659 H   0  0  0  0  0  0  0  0  0  0  0  0
  143.1401   74.2480  221.6256 H   0  0  0  0  0  0  0  0  0  0  0  0
  139.0631   69.7571  222.4574 H   0  0  0  0  0  0  0  0  0  0  0  0
  139.0329   68.4755  224.5850 H   0  0  0  0  0  0  0  0  0  0  0  0
  139.5733   68.3133  227.0001 H   0  0  0  0  0  0  0  0  0  0  0  0
  140.5396   69.3674  229.0330 H   0  0  0  0  0  0  0  0  0  0  0  0
  141.4954   72.8672  226.7607 H   0  0  0  0  0  0  0  0  0  0  0  0
  1  2  2  0
  2  3  1  0
  3  4  1  0
  4  5  1  0
  5  6  2  0
  5  7  1  0
  7  8  1  0
  8  9  1  0
  9 10  1  0
  9 11  1  0
 11 12  1  0
 12 13  1  0
 13 14  2  0
 14 15  1  0
 15 16  2  0
 16 17  1  0
 17 18  2  0
  2 19  1  0
 19 20  2  0
 20 21  1  0
 21 22  2  0
 22 23  1  0
 23 24  2  0
 24 25  1  0
 25 26  1  0
 25 27  2  0
 27 28  1  0
 28 29  2  0
 12  7  1  0
 18 13  1  0
 29 19  1  0
 28 22  1  0
  3 30  1  0
  4 31  1  0
  4 32  1  0
  8 33  1  0
  8 34  1  0
  9 35  1  1
 10 36  1  0
 11 37  1  0
 11 38  1  0
 12 39  1  6
 14 40  1  0
 15 41  1  0
 16 42  1  0
 17 43  1  0
 18 44  1  0
 20 45  1  0
 21 46  1  0
 23 47  1  0
 24 48  1  0
 27 49  1  0
M  END
>  <smiles>  (47) 
O=C(NCC(=O)N1C[C@H](O)C[C@H]1c1ccccc1)c1ccc2ccc(F)cc2n1

>  <score_type>  (47) 
oracle

>  <origin>  (47) 
autodockgpu

>  <m_score__min__energy>  (47) 
-8.2200000000000006

>  <m_primary>  (47) 
energy

>  <rmsd>  (47) 
2.3939360235110554

>  <m_score__min__rmsd>  (47) 
2.3939360235110554

>  <meeko>  (47) 
{"free_energy": -7.98, "intermolecular_energy": -9.77, "internal_energy": -1.56, "cluster_size": 10, "cluster_id": 3, "rank_in_cluster": 7}

>  <energy>  (47) 
-6.91

>  <cluster_rmsd>  (47) 
0.0

>  <cluster>  (47) 
4

$$$$

     RDKit          3D

 49 52  0  0  0  0  0  0  0  0999 V2000
  141.4590   72.8020  221.9230 O   0  0  0  0  0  0  0  0  0  0  0  0
  140.3510   72.6610  222.5120 C   0  0  0  0  0  0  0  0  0  0  0  0
  139.3260   73.6160  222.3400 N   0  0  0  0  0  0  0  0  0  0  0  0
  139.5350   74.7490  221.4970 C   0  0  0  0  0  0  0  0  0  0  0  0
  138.8950   75.9790  221.9890 C   0  0  0  0  0  0  0  0  0  0  0  0
  137.9480   76.0160  222.8140 O   0  0  0  0  0  0  0  0  0  0  0  0
  139.3760   77.2270  221.5030 N   0  0  0  0  0  0  0  0  0  0  0  0
  138.6010   78.4660  221.4270 C   0  0  0  0  0  0  0  0  0  0  0  0
  139.2510   79.2050  220.2770 C   0  0  2  0  0  0  0  0  0  0  0  0
  138.2780   79.5480  219.3180 O   0  0  0  0  0  0  0  0  0  0  0  0
  140.2730   78.2400  219.6970 C   0  0  0  0  0  0  0  0  0  0  0  0
  140.7150   77.5350  220.9870 C   0  0  1  0  0  0  0  0  0  0  0  0
  141.3340   78.4590  221.9490 C   0  0  0  0  0  0  0  0  0  0  0  0
  142.0430   79.5740  221.5260 C   0  0  0  0  0  0  0  0  0  0  0  0
  142.6320   80.4540  222.4160 C   0  0  0  0  0  0  0  0  0  0  0  0
  142.5260   80.2420  223.7930 C   0  0  0  0  0  0  0  0  0  0  0  0
  141.8280   79.1450  224.2050 C   0  0  0  0  0  0  0  0  0  0  0  0
  141.2430   78.2700  223.3110 C   0  0  0  0  0  0  0  0  0  0  0  0
  140.0920   71.5090  223.3890 C   0  0  0  0  0  0  0  0  0  0  0  0
  139.2650   70.4760  222.9680 C   0  0  0  0  0  0  0  0  0  0  0  0
  139.0430   69.4010  223.8290 C   0  0  0  0  0  0  0  0  0  0  0  0
  139.6100   69.3240  225.0700 C   0  0  0  0  0  0  0  0  0  0  0  0
  139.4210   68.2860  225.9510 C   0  0  0  0  0  0  0  0  0  0  0  0
  140.0350   68.2830  227.2030 C   0  0  0  0  0  0  0  0  0  0  0  0
  140.8450   69.3290  227.5730 C   0  0  0  0  0  0  0  0  0  0  0  0
  141.4630   69.3660  228.7810 F   0  0  0  0  0  0  0  0  0  0  0  0
  141.0430   70.3750  226.7000 C   0  0  0  0  0  0  0  0  0  0  0  0
  140.4330   70.3880  225.4470 C   0  0  0  0  0  0  0  0  0  0  0  0
  140.6400   71.4200  224.6100 N   0  0  0  0  0  0  0  0  0  0  0  0
  138.4080   73.5020  222.8260 H   0  0  0  0  0  0  0  0  0  0  0  0
  140.6174   74.9284  221.4185 H   0  0  0  0  0  0  0  0  0  0  0  0
  139.0765   74.5150  220.5249 H   0  0  0  0  0  0  0  0  0  0  0  0
  137.5420   78.2574  221.2146 H   0  0  0  0  0  0  0  0  0  0  0  0
  138.6048   79.0377  222.3668 H   0  0  0  0  0  0  0  0  0  0  0  0
  139.7285   80.1421  220.5994 H   0  0  0  0  0  0  0  0  0  0  0  0
  137.9600   78.7220  218.8730 H   0  0  0  0  0  0  0  0  0  0  0  0
  139.8166   77.5395  218.9821 H   0  0  0  0  0  0  0  0  0  0  0  0
  141.0827   78.7075  219.1175 H   0  0  0  0  0  0  0  0  0  0  0  0
  141.4382   76.7205  220.8335 H   0  0  0  0  0  0  0  0  0  0  0  0
  142.1400   79.7646  220.4470 H   0  0  0  0  0  0  0  0  0  0  0  0
  143.1868   81.3253  222.0377 H   0  0  0  0  0  0  0  0  0  0  0  0
  142.9868   80.9318  224.5154 H   0  0  0  0  0  0  0  0  0  0  0  0
  141.7279   78.9512  225.2832 H   0  0  0  0  0  0  0  0  0  0  0  0
  140.6904   77.4002  223.6958 H   0  0  0  0  0  0  0  0  0  0  0  0
  138.7939   70.5048  221.9744 H   0  0  0  0  0  0  0  0  0  0  0  0
  138.3862   68.5838  223.4961 H   0  0  0  0  0  0  0  0  0  0  0  0
  138.7746   67.4436  225.6636 H   0  0  0  0  0  0  0  0  0  0  0  0
  139.8708   67.4432  227.8942 H   0  0  0  0  0  0  0  0  0  0  0  0
  141.6920   71.2125  226.9957 H   0  0  0  0  0  0  0  0  0  0  0  0
  1  2  2  0
  2  3  1  0
  3  4  1  0
  4  5  1  0
  5  6  2  0
  5  7  1  0
  7  8  1  0
  8  9  1  0
  9 10  1  0
  9 11  1  0
 11 12  1  0
 12 13  1  0
 13 14  2  0
 14 15  1  0
 15 16  2  0
 16 17  1  0
 17 18  2  0
  2 19  1  0
 19 20  2  0
 20 21  1  0
 21 22  2  0
 22 23  1  0
 23 24  2  0
 24 25  1  0
 25 26  1  0
 25 27  2  0
 27 28  1  0
 28 29  2  0
 12  7  1  0
 18 13  1  0
 29 19  1  0
 28 22  1  0
  3 30  1  0
  4 31  1  0
  4 32  1  0
  8 33  1  0
  8 34  1  0
  9 35  1  1
 10 36  1  0
 11 37  1  0
 11 38  1  0
 12 39  1  6
 14 40  1  0
 15 41  1  0
 16 42  1  0
 17 43  1  0
 18 44  1  0
 20 45  1  0
 21 46  1  0
 23 47  1  0
 24 48  1  0
 27 49  1  0
M  END
>  <smiles>  (48) 
O=C(NCC(=O)N1C[C@H](O)C[C@H]1c1ccccc1)c1ccc2ccc(F)cc2n1

>  <score_type>  (48) 
oracle

>  <origin>  (48) 
autodockgpu

>  <m_score__min__energy>  (48) 
-8.2200000000000006

>  <m_primary>  (48) 
energy

>  <rmsd>  (48) 
2.468481363866166

>  <m_score__min__rmsd>  (48) 
2.468481363866166

>  <meeko>  (48) 
{"free_energy": -8.0, "intermolecular_energy": -9.79, "internal_energy": -1.31, "cluster_size": 31, "cluster_id": 2, "rank_in_cluster": 15}

>  <energy>  (48) 
-6.46

>  <cluster_rmsd>  (48) 
1.71

>  <cluster>  (48) 
4

$$$$

     RDKit          3D

 49 52  0  0  0  0  0  0  0  0999 V2000
  140.5090   72.0860  220.9190 O   0  0  0  0  0  0  0  0  0  0  0  0
  140.1570   72.5490  222.0390 C   0  0  0  0  0  0  0  0  0  0  0  0
  139.8010   73.9080  222.1680 N   0  0  0  0  0  0  0  0  0  0  0  0
  139.8360   74.7700  221.0310 C   0  0  0  0  0  0  0  0  0  0  0  0
  140.9260   75.7570  221.0680 C   0  0  0  0  0  0  0  0  0  0  0  0
  141.0450   76.6640  221.9290 O   0  0  0  0  0  0  0  0  0  0  0  0
  141.9280   75.6890  220.0600 N   0  0  0  0  0  0  0  0  0  0  0  0
  142.8800   76.7520  219.7340 C   0  0  0  0  0  0  0  0  0  0  0  0
  143.1820   76.5020  218.2710 C   0  0  2  0  0  0  0  0  0  0  0  0
  142.9360   77.6710  217.5260 O   0  0  0  0  0  0  0  0  0  0  0  0
  142.2500   75.3780  217.8480 C   0  0  0  0  0  0  0  0  0  0  0  0
  142.2160   74.5720  219.1540 C   0  0  1  0  0  0  0  0  0  0  0  0
  143.5420   74.0570  219.5300 C   0  0  0  0  0  0  0  0  0  0  0  0
  143.9750   74.0710  220.8470 C   0  0  0  0  0  0  0  0  0  0  0  0
  145.2180   73.5910  221.2200 C   0  0  0  0  0  0  0  0  0  0  0  0
  146.0890   73.0670  220.2600 C   0  0  0  0  0  0  0  0  0  0  0  0
  145.6600   73.0550  218.9660 C   0  0  0  0  0  0  0  0  0  0  0  0
  144.4180   73.5360  218.6010 C   0  0  0  0  0  0  0  0  0  0  0  0
  140.1070   71.6980  223.2370 C   0  0  0  0  0  0  0  0  0  0  0  0
  139.5560   70.4260  223.1740 C   0  0  0  0  0  0  0  0  0  0  0  0
  139.5260   69.6480  224.3320 C   0  0  0  0  0  0  0  0  0  0  0  0
  140.0200   70.0910  225.5270 C   0  0  0  0  0  0  0  0  0  0  0  0
  140.0120   69.3610  226.6930 C   0  0  0  0  0  0  0  0  0  0  0  0
  140.5360   69.8860  227.8740 C   0  0  0  0  0  0  0  0  0  0  0  0
  141.0710   71.1510  227.8850 C   0  0  0  0  0  0  0  0  0  0  0  0
  141.5910   71.7000  229.0120 F   0  0  0  0  0  0  0  0  0  0  0  0
  141.0850   71.8920  226.7250 C   0  0  0  0  0  0  0  0  0  0  0  0
  140.5630   71.3770  225.5390 C   0  0  0  0  0  0  0  0  0  0  0  0
  140.5870   72.1190  224.4180 N   0  0  0  0  0  0  0  0  0  0  0  0
  139.5090   74.2950  223.0950 H   0  0  0  0  0  0  0  0  0  0  0  0
  139.9590   74.1510  220.1301 H   0  0  0  0  0  0  0  0  0  0  0  0
  138.8921   75.3349  221.0279 H   0  0  0  0  0  0  0  0  0  0  0  0
  142.4296   77.7448  219.8807 H   0  0  0  0  0  0  0  0  0  0  0  0
  143.7774   76.7403  220.3700 H   0  0  0  0  0  0  0  0  0  0  0  0
  144.2342   76.2292  218.1021 H   0  0  0  0  0  0  0  0  0  0  0  0
  143.8000   78.0390  217.2080 H   0  0  0  0  0  0  0  0  0  0  0  0
  141.2537   75.7533  217.5714 H   0  0  0  0  0  0  0  0  0  0  0  0
  142.5691   74.8150  216.9585 H   0  0  0  0  0  0  0  0  0  0  0  0
  141.5416   73.7032  219.1332 H   0  0  0  0  0  0  0  0  0  0  0  0
  143.3079   74.4774  221.6215 H   0  0  0  0  0  0  0  0  0  0  0  0
  145.5223   73.6218  222.2766 H   0  0  0  0  0  0  0  0  0  0  0  0
  147.0805   72.6800  220.5376 H   0  0  0  0  0  0  0  0  0  0  0  0
  146.3239   72.6495  218.1883 H   0  0  0  0  0  0  0  0  0  0  0  0
  144.1200   73.5027  217.5427 H   0  0  0  0  0  0  0  0  0  0  0  0
  139.1501   70.0379  222.2281 H   0  0  0  0  0  0  0  0  0  0  0  0
  139.0883   68.6401  224.2813 H   0  0  0  0  0  0  0  0  0  0  0  0
  139.5855   68.3470  226.6938 H   0  0  0  0  0  0  0  0  0  0  0  0
  140.5208   69.2871  228.7965 H   0  0  0  0  0  0  0  0  0  0  0  0
  141.5141   72.9048  226.7338 H   0  0  0  0  0  0  0  0  0  0  0  0
  1  2  2  0
  2  3  1  0
  3  4  1  0
  4  5  1  0
  5  6  2  0
  5  7  1  0
  7  8  1  0
  8  9  1  0
  9 10  1  0
  9 11  1  0
 11 12  1  0
 12 13  1  0
 13 14  2  0
 14 15  1  0
 15 16  2  0
 16 17  1  0
 17 18  2  0
  2 19  1  0
 19 20  2  0
 20 21  1  0
 21 22  2  0
 22 23  1  0
 23 24  2  0
 24 25  1  0
 25 26  1  0
 25 27  2  0
 27 28  1  0
 28 29  2  0
 12  7  1  0
 18 13  1  0
 29 19  1  0
 28 22  1  0
  3 30  1  0
  4 31  1  0
  4 32  1  0
  8 33  1  0
  8 34  1  0
  9 35  1  1
 10 36  1  0
 11 37  1  0
 11 38  1  0
 12 39  1  6
 14 40  1  0
 15 41  1  0
 16 42  1  0
 17 43  1  0
 18 44  1  0
 20 45  1  0
 21 46  1  0
 23 47  1  0
 24 48  1  0
 27 49  1  0
M  END
>  <smiles>  (49) 
O=C(NCC(=O)N1C[C@H](O)C[C@H]1c1ccccc1)c1ccc2ccc(F)cc2n1

>  <score_type>  (49) 
oracle

>  <origin>  (49) 
autodockgpu

>  <m_score__min__energy>  (49) 
-8.2200000000000006

>  <m_primary>  (49) 
energy

>  <rmsd>  (49) 
2.478126627592823

>  <m_score__min__rmsd>  (49) 
2.478126627592823

>  <meeko>  (49) 
{"free_energy": -7.95, "intermolecular_energy": -9.74, "internal_energy": -1.58, "cluster_size": 10, "cluster_id": 3, "rank_in_cluster": 8}

>  <energy>  (49) 
-6.45

>  <cluster_rmsd>  (49) 
1.68

>  <cluster>  (49) 
4

$$$$

     RDKit          3D

 49 52  0  0  0  0  0  0  0  0999 V2000
  140.3440   72.2000  220.8150 O   0  0  0  0  0  0  0  0  0  0  0  0
  139.9720   72.4750  221.9900 C   0  0  0  0  0  0  0  0  0  0  0  0
  139.6100   73.7950  222.3310 N   0  0  0  0  0  0  0  0  0  0  0  0
  139.6600   74.8300  221.3480 C   0  0  0  0  0  0  0  0  0  0  0  0
  139.2420   76.1470  221.8530 C   0  0  0  0  0  0  0  0  0  0  0  0
  138.3880   76.3330  222.7550 O   0  0  0  0  0  0  0  0  0  0  0  0
  139.8450   77.3050  221.2870 N   0  0  0  0  0  0  0  0  0  0  0  0
  139.1290   78.4890  220.8070 C   0  0  0  0  0  0  0  0  0  0  0  0
  140.0510   79.0350  219.7380 C   0  0  2  0  0  0  0  0  0  0  0  0
  139.3480   79.1760  218.5260 O   0  0  0  0  0  0  0  0  0  0  0  0
  141.1710   78.0150  219.6040 C   0  0  0  0  0  0  0  0  0  0  0  0
  141.2730   77.5580  221.0660 C   0  0  1  0  0  0  0  0  0  0  0  0
  141.6510   78.6540  221.9710 C   0  0  0  0  0  0  0  0  0  0  0  0
  141.4400   78.5670  223.3390 C   0  0  0  0  0  0  0  0  0  0  0  0
  141.7880   79.5870  224.2060 C   0  0  0  0  0  0  0  0  0  0  0  0
  142.3750   80.7580  223.7180 C   0  0  0  0  0  0  0  0  0  0  0  0
  142.5810   80.8410  222.3730 C   0  0  0  0  0  0  0  0  0  0  0  0
  142.2300   79.8180  221.5130 C   0  0  0  0  0  0  0  0  0  0  0  0
  139.9050   71.4420  223.0340 C   0  0  0  0  0  0  0  0  0  0  0  0
  139.3030   70.2180  222.7750 C   0  0  0  0  0  0  0  0  0  0  0  0
  139.2580   69.2620  223.7910 C   0  0  0  0  0  0  0  0  0  0  0  0
  139.7870   69.4850  225.0310 C   0  0  0  0  0  0  0  0  0  0  0  0
  139.7670   68.5750  226.0620 C   0  0  0  0  0  0  0  0  0  0  0  0
  140.3290   68.8780  227.3010 C   0  0  0  0  0  0  0  0  0  0  0  0
  140.9140   70.1030  227.5080 C   0  0  0  0  0  0  0  0  0  0  0  0
  141.4720   70.4410  228.6990 F   0  0  0  0  0  0  0  0  0  0  0  0
  140.9410   71.0240  226.4850 C   0  0  0  0  0  0  0  0  0  0  0  0
  140.3820   70.7300  225.2420 C   0  0  0  0  0  0  0  0  0  0  0  0
  140.4190   71.6450  224.2570 N   0  0  0  0  0  0  0  0  0  0  0  0
  139.3010   74.0270  223.3020 H   0  0  0  0  0  0  0  0  0  0  0  0
  140.6940   74.9110  220.9815 H   0  0  0  0  0  0  0  0  0  0  0  0
  138.9529   74.5519  220.5526 H   0  0  0  0  0  0  0  0  0  0  0  0
  138.1514   78.2151  220.3836 H   0  0  0  0  0  0  0  0  0  0  0  0
  138.9107   79.2157  221.6034 H   0  0  0  0  0  0  0  0  0  0  0  0
  140.4475   80.0279  219.9966 H   0  0  0  0  0  0  0  0  0  0  0  0
  139.9940   79.1550  217.7740 H   0  0  0  0  0  0  0  0  0  0  0  0
  140.8947   77.1877  218.9337 H   0  0  0  0  0  0  0  0  0  0  0  0
  142.1046   78.3991  219.1671 H   0  0  0  0  0  0  0  0  0  0  0  0
  141.9994   76.7503  221.2389 H   0  0  0  0  0  0  0  0  0  0  0  0
  140.9801   77.6555  223.7486 H   0  0  0  0  0  0  0  0  0  0  0  0
  141.6020   79.4762  225.2845 H   0  0  0  0  0  0  0  0  0  0  0  0
  142.6593   81.5794  224.3921 H   0  0  0  0  0  0  0  0  0  0  0  0
  143.0409   81.7506  221.9595 H   0  0  0  0  0  0  0  0  0  0  0  0
  142.4174   79.9355  220.4355 H   0  0  0  0  0  0  0  0  0  0  0  0
  138.8692   70.0055  221.7867 H   0  0  0  0  0  0  0  0  0  0  0  0
  138.7790   68.2933  223.5859 H   0  0  0  0  0  0  0  0  0  0  0  0
  139.2996   67.5915  225.9062 H   0  0  0  0  0  0  0  0  0  0  0  0
  140.3039   68.1361  228.1127 H   0  0  0  0  0  0  0  0  0  0  0  0
  141.4100   72.0052  226.6506 H   0  0  0  0  0  0  0  0  0  0  0  0
  1  2  2  0
  2  3  1  0
  3  4  1  0
  4  5  1  0
  5  6  2  0
  5  7  1  0
  7  8  1  0
  8  9  1  0
  9 10  1  0
  9 11  1  0
 11 12  1  0
 12 13  1  0
 13 14  2  0
 14 15  1  0
 15 16  2  0
 16 17  1  0
 17 18  2  0
  2 19  1  0
 19 20  2  0
 20 21  1  0
 21 22  2  0
 22 23  1  0
 23 24  2  0
 24 25  1  0
 25 26  1  0
 25 27  2  0
 27 28  1  0
 28 29  2  0
 12  7  1  0
 18 13  1  0
 29 19  1  0
 28 22  1  0
  3 30  1  0
  4 31  1  0
  4 32  1  0
  8 33  1  0
  8 34  1  0
  9 35  1  1
 10 36  1  0
 11 37  1  0
 11 38  1  0
 12 39  1  6
 14 40  1  0
 15 41  1  0
 16 42  1  0
 17 43  1  0
 18 44  1  0
 20 45  1  0
 21 46  1  0
 23 47  1  0
 24 48  1  0
 27 49  1  0
M  END
>  <smiles>  (50) 
O=C(NCC(=O)N1C[C@H](O)C[C@H]1c1ccccc1)c1ccc2ccc(F)cc2n1

>  <score_type>  (50) 
oracle

>  <origin>  (50) 
autodockgpu

>  <m_score__min__energy>  (50) 
-8.2200000000000006

>  <m_primary>  (50) 
energy

>  <rmsd>  (50) 
2.2228358533703076

>  <m_score__min__rmsd>  (50) 
2.2228358533703076

>  <meeko>  (50) 
{"free_energy": -7.77, "intermolecular_energy": -9.56, "internal_energy": -1.28, "cluster_size": 31, "cluster_id": 2, "rank_in_cluster": 24}

>  <energy>  (50) 
-6.59

>  <cluster_rmsd>  (50) 
0.0

>  <cluster>  (50) 
5

$$$$
