
     RDKit          3D

 45 48  0  0  0  0  0  0  0  0999 V2000
  142.6200   75.8470  219.5090 O   0  0  0  0  0  0  0  0  0  0  0  0
  141.7780   75.6190  220.4150 C   0  0  0  0  0  0  0  0  0  0  0  0
  141.2360   76.7030  221.0490 C   0  0  0  0  0  0  0  0  0  0  0  0
  141.6030   77.9780  220.7010 C   0  0  0  0  0  0  0  0  0  0  0  0
  141.0020   79.0210  221.3970 C   0  0  0  0  0  0  0  0  0  0  0  0
  141.4320   80.6610  220.9940 Cl  0  0  0  0  0  0  0  0  0  0  0  0
  140.0800   78.7590  222.3890 C   0  0  0  0  0  0  0  0  0  0  0  0
  139.7100   77.4650  222.7400 C   0  0  0  0  0  0  0  0  0  0  0  0
  140.3210   76.4520  222.0360 C   0  0  0  0  0  0  0  0  0  0  0  0
  140.0160   75.2020  222.3170 N   0  0  0  0  0  0  0  0  0  0  0  0
  140.5360   74.0970  221.7070 C   0  0  0  0  0  0  0  0  0  0  0  0
  140.0740   72.8430  222.2250 C   0  0  0  0  0  0  0  0  0  0  0  0
  140.6950   71.8270  222.7380 C   0  0  0  0  0  0  0  0  0  0  0  0
  140.3710   71.2290  224.0490 C   0  0  0  0  0  0  0  0  0  0  0  0
  141.0380   71.5310  225.2010 C   0  0  0  0  0  0  0  0  0  0  0  0
  140.6680   70.9200  226.4040 C   0  0  0  0  0  0  0  0  0  0  0  0
  139.6370   70.0060  226.4730 C   0  0  0  0  0  0  0  0  0  0  0  0
  138.9660   69.7020  225.3130 C   0  0  0  0  0  0  0  0  0  0  0  0
  139.3410   70.3100  224.1410 C   0  0  0  0  0  0  0  0  0  0  0  0
  141.4270   74.3200  220.7440 N   0  0  0  0  0  0  0  0  0  0  0  0
  142.0770   73.3270  219.9440 C   0  0  0  0  0  0  0  0  0  0  0  0
  143.5310   73.2510  220.0730 C   0  0  0  0  0  0  0  0  0  0  0  0
  144.2560   73.1180  221.2170 C   0  0  0  0  0  0  0  0  0  0  0  0
  145.6600   73.0700  221.2330 C   0  0  0  0  0  0  0  0  0  0  0  0
  146.3850   73.1560  220.0650 C   0  0  0  0  0  0  0  0  0  0  0  0
  145.6680   73.2900  218.8970 C   0  0  0  0  0  0  0  0  0  0  0  0
  146.3690   73.3820  217.6790 O   0  0  0  0  0  0  0  0  0  0  0  0
  144.2940   73.3360  218.8960 C   0  0  0  0  0  0  0  0  0  0  0  0
  142.3400   78.1670  219.9066 H   0  0  0  0  0  0  0  0  0  0  0  0
  139.6205   79.6045  222.9220 H   0  0  0  0  0  0  0  0  0  0  0  0
  138.9738   77.2633  223.5321 H   0  0  0  0  0  0  0  0  0  0  0  0
  138.9821   72.7186  222.1783 H   0  0  0  0  0  0  0  0  0  0  0  0
  141.5171   71.3812  222.1588 H   0  0  0  0  0  0  0  0  0  0  0  0
  141.8663   72.2546  225.1835 H   0  0  0  0  0  0  0  0  0  0  0  0
  141.2159   71.1762  227.3228 H   0  0  0  0  0  0  0  0  0  0  0  0
  139.3604   69.5348  227.4277 H   0  0  0  0  0  0  0  0  0  0  0  0
  138.1371   68.9790  225.3236 H   0  0  0  0  0  0  0  0  0  0  0  0
  138.7918   70.0521  223.2235 H   0  0  0  0  0  0  0  0  0  0  0  0
  141.6628   72.3467  220.2222 H   0  0  0  0  0  0  0  0  0  0  0  0
  141.8867   73.6163  218.8999 H   0  0  0  0  0  0  0  0  0  0  0  0
  143.7178   73.0447  222.1735 H   0  0  0  0  0  0  0  0  0  0  0  0
  146.1879   72.9622  222.1920 H   0  0  0  0  0  0  0  0  0  0  0  0
  147.4844   73.1194  220.0652 H   0  0  0  0  0  0  0  0  0  0  0  0
  146.8060   74.2920  217.4670 H   0  0  0  0  0  0  0  0  0  0  0  0
  143.7705   73.4437  217.9346 H   0  0  0  0  0  0  0  0  0  0  0  0
  1  2  2  0
  2  3  1  0
  3  4  2  0
  4  5  1  0
  5  6  1  0
  5  7  2  0
  7  8  1  0
  8  9  2  0
  9 10  1  0
 10 11  2  0
 11 12  1  0
 12 13  2  0
 13 14  1  0
 14 15  2  0
 15 16  1  0
 16 17  2  0
 17 18  1  0
 18 19  2  0
 11 20  1  0
 20 21  1  0
 21 22  1  0
 22 23  2  0
 23 24  1  0
 24 25  2  0
 25 26  1  0
 26 27  1  0
 26 28  2  0
 20  2  1  0
 28 22  1  0
  9  3  1  0
 19 14  1  0
  4 29  1  0
  7 30  1  0
  8 31  1  0
 12 32  1  0
 13 33  1  0
 15 34  1  0
 16 35  1  0
 17 36  1  0
 18 37  1  0
 19 38  1  0
 21 39  1  0
 21 40  1  0
 23 41  1  0
 24 42  1  0
 25 43  1  0
 27 44  1  0
 28 45  1  0
M  END
>  <smiles>  (1) 
O=c1c2cc(Cl)ccc2nc(/C=C/c2ccccc2)n1Cc1cccc(O)c1

>  <score_type>  (1) 
oracle

>  <origin>  (1) 
autodockgpu

>  <m_score__min__energy>  (1) 
-8.5099999999999998

>  <m_primary>  (1) 
energy

>  <rmsd>  (1) 
7.869303160771358

>  <m_score__min__rmsd>  (1) 
7.869303160771358

>  <meeko>  (1) 
{"free_energy": -8.38, "intermolecular_energy": -10.17, "internal_energy": -1.0, "cluster_size": 27, "cluster_id": 1, "rank_in_cluster": 3}

>  <energy>  (1) 
-8.51

>  <cluster_rmsd>  (1) 
0.0

>  <cluster>  (1) 
1

$$$$

     RDKit          3D

 45 48  0  0  0  0  0  0  0  0999 V2000
  142.5970   75.9270  219.6610 O   0  0  0  0  0  0  0  0  0  0  0  0
  141.6460   75.6340  220.4290 C   0  0  0  0  0  0  0  0  0  0  0  0
  141.1040   76.6510  221.1660 C   0  0  0  0  0  0  0  0  0  0  0  0
  141.5860   77.9310  221.0610 C   0  0  0  0  0  0  0  0  0  0  0  0
  140.9750   78.9020  221.8460 C   0  0  0  0  0  0  0  0  0  0  0  0
  141.5490   80.5450  221.7510 Cl  0  0  0  0  0  0  0  0  0  0  0  0
  139.9320   78.5690  222.6850 C   0  0  0  0  0  0  0  0  0  0  0  0
  139.4450   77.2710  222.7890 C   0  0  0  0  0  0  0  0  0  0  0  0
  140.0680   76.3290  222.0020 C   0  0  0  0  0  0  0  0  0  0  0  0
  139.6560   75.0790  222.0520 N   0  0  0  0  0  0  0  0  0  0  0  0
  140.1730   74.0390  221.3320 C   0  0  0  0  0  0  0  0  0  0  0  0
  139.5780   72.7620  221.5980 C   0  0  0  0  0  0  0  0  0  0  0  0
  140.0710   71.6390  222.0190 C   0  0  0  0  0  0  0  0  0  0  0  0
  140.0860   71.2140  223.4330 C   0  0  0  0  0  0  0  0  0  0  0  0
  140.7360   71.8990  224.4190 C   0  0  0  0  0  0  0  0  0  0  0  0
  140.7020   71.4290  225.7360 C   0  0  0  0  0  0  0  0  0  0  0  0
  140.0240   70.2790  226.0850 C   0  0  0  0  0  0  0  0  0  0  0  0
  139.3700   69.5900  225.0920 C   0  0  0  0  0  0  0  0  0  0  0  0
  139.4130   70.0640  223.8050 C   0  0  0  0  0  0  0  0  0  0  0  0
  141.1790   74.3320  220.5130 N   0  0  0  0  0  0  0  0  0  0  0  0
  141.8530   73.4210  219.6390 C   0  0  0  0  0  0  0  0  0  0  0  0
  143.2810   73.2310  219.8870 C   0  0  0  0  0  0  0  0  0  0  0  0
  143.8870   72.9600  221.0750 C   0  0  0  0  0  0  0  0  0  0  0  0
  145.2770   72.8100  221.2090 C   0  0  0  0  0  0  0  0  0  0  0  0
  146.1110   72.9340  220.1200 C   0  0  0  0  0  0  0  0  0  0  0  0
  145.5160   73.2070  218.9090 C   0  0  0  0  0  0  0  0  0  0  0  0
  146.3310   73.3420  217.7690 O   0  0  0  0  0  0  0  0  0  0  0  0
  144.1540   73.3520  218.7920 C   0  0  0  0  0  0  0  0  0  0  0  0
  142.4186   78.1780  220.3859 H   0  0  0  0  0  0  0  0  0  0  0  0
  139.4687   79.3592  223.2940 H   0  0  0  0  0  0  0  0  0  0  0  0
  138.6123   77.0124  223.4596 H   0  0  0  0  0  0  0  0  0  0  0  0
  138.4950   72.7284  221.4085 H   0  0  0  0  0  0  0  0  0  0  0  0
  140.5069   70.9578  221.2733 H   0  0  0  0  0  0  0  0  0  0  0  0
  141.2863   72.8204  224.1778 H   0  0  0  0  0  0  0  0  0  0  0  0
  141.2320   71.9934  226.5174 H   0  0  0  0  0  0  0  0  0  0  0  0
  140.0075   69.9246  227.1262 H   0  0  0  0  0  0  0  0  0  0  0  0
  138.8177   68.6680  225.3264 H   0  0  0  0  0  0  0  0  0  0  0  0
  138.8825   69.4978  223.0253 H   0  0  0  0  0  0  0  0  0  0  0  0
  141.3623   72.4409  219.7315 H   0  0  0  0  0  0  0  0  0  0  0  0
  141.7836   73.8671  218.6359 H   0  0  0  0  0  0  0  0  0  0  0  0
  143.2591   72.8535  221.9719 H   0  0  0  0  0  0  0  0  0  0  0  0
  145.7057   72.5903  222.1979 H   0  0  0  0  0  0  0  0  0  0  0  0
  147.2011   72.8203  220.2135 H   0  0  0  0  0  0  0  0  0  0  0  0
  146.4560   74.2970  217.4020 H   0  0  0  0  0  0  0  0  0  0  0  0
  143.7300   73.5717  217.8010 H   0  0  0  0  0  0  0  0  0  0  0  0
  1  2  2  0
  2  3  1  0
  3  4  2  0
  4  5  1  0
  5  6  1  0
  5  7  2  0
  7  8  1  0
  8  9  2  0
  9 10  1  0
 10 11  2  0
 11 12  1  0
 12 13  2  0
 13 14  1  0
 14 15  2  0
 15 16  1  0
 16 17  2  0
 17 18  1  0
 18 19  2  0
 11 20  1  0
 20 21  1  0
 21 22  1  0
 22 23  2  0
 23 24  1  0
 24 25  2  0
 25 26  1  0
 26 27  1  0
 26 28  2  0
 20  2  1  0
 28 22  1  0
  9  3  1  0
 19 14  1  0
  4 29  1  0
  7 30  1  0
  8 31  1  0
 12 32  1  0
 13 33  1  0
 15 34  1  0
 16 35  1  0
 17 36  1  0
 18 37  1  0
 19 38  1  0
 21 39  1  0
 21 40  1  0
 23 41  1  0
 24 42  1  0
 25 43  1  0
 27 44  1  0
 28 45  1  0
M  END
>  <smiles>  (2) 
O=c1c2cc(Cl)ccc2nc(/C=C/c2ccccc2)n1Cc1cccc(O)c1

>  <score_type>  (2) 
oracle

>  <origin>  (2) 
autodockgpu

>  <m_score__min__energy>  (2) 
-8.5099999999999998

>  <m_primary>  (2) 
energy

>  <rmsd>  (2) 
7.8594912100371275

>  <m_score__min__rmsd>  (2) 
7.8594912100371275

>  <meeko>  (2) 
{"free_energy": -7.93, "intermolecular_energy": -9.72, "internal_energy": -1.14, "cluster_size": 27, "cluster_id": 1, "rank_in_cluster": 15}

>  <energy>  (2) 
-8.4

>  <cluster_rmsd>  (2) 
0.91

>  <cluster>  (2) 
1

$$$$

     RDKit          3D

 45 48  0  0  0  0  0  0  0  0999 V2000
  142.6010   75.8840  219.4880 O   0  0  0  0  0  0  0  0  0  0  0  0
  141.7510   75.6550  220.3870 C   0  0  0  0  0  0  0  0  0  0  0  0
  141.2160   76.7370  221.0300 C   0  0  0  0  0  0  0  0  0  0  0  0
  141.5960   78.0130  220.6970 C   0  0  0  0  0  0  0  0  0  0  0  0
  141.0010   79.0530  221.4010 C   0  0  0  0  0  0  0  0  0  0  0  0
  141.4490   80.6930  221.0190 Cl  0  0  0  0  0  0  0  0  0  0  0  0
  140.0710   78.7890  222.3850 C   0  0  0  0  0  0  0  0  0  0  0  0
  139.6870   77.4950  222.7200 C   0  0  0  0  0  0  0  0  0  0  0  0
  140.2920   76.4840  222.0080 C   0  0  0  0  0  0  0  0  0  0  0  0
  139.9740   75.2340  222.2740 N   0  0  0  0  0  0  0  0  0  0  0  0
  140.4870   74.1310  221.6550 C   0  0  0  0  0  0  0  0  0  0  0  0
  140.0100   72.8760  222.1570 C   0  0  0  0  0  0  0  0  0  0  0  0
  140.6200   71.8430  222.6510 C   0  0  0  0  0  0  0  0  0  0  0  0
  140.2880   71.2230  223.9480 C   0  0  0  0  0  0  0  0  0  0  0  0
  140.9350   71.5190  225.1140 C   0  0  0  0  0  0  0  0  0  0  0  0
  140.5580   70.8860  226.3030 C   0  0  0  0  0  0  0  0  0  0  0  0
  139.5410   69.9560  226.3460 C   0  0  0  0  0  0  0  0  0  0  0  0
  138.8900   69.6570  225.1730 C   0  0  0  0  0  0  0  0  0  0  0  0
  139.2710   70.2870  224.0150 C   0  0  0  0  0  0  0  0  0  0  0  0
  141.3860   74.3560  220.6990 N   0  0  0  0  0  0  0  0  0  0  0  0
  142.0310   73.3660  219.8930 C   0  0  0  0  0  0  0  0  0  0  0  0
  143.4800   73.2530  220.0520 C   0  0  0  0  0  0  0  0  0  0  0  0
  144.1760   73.0770  221.2080 C   0  0  0  0  0  0  0  0  0  0  0  0
  145.5770   72.9970  221.2550 C   0  0  0  0  0  0  0  0  0  0  0  0
  146.3300   73.0930  220.1050 C   0  0  0  0  0  0  0  0  0  0  0  0
  145.6430   73.2690  218.9260 C   0  0  0  0  0  0  0  0  0  0  0  0
  146.3740   73.3720  217.7260 O   0  0  0  0  0  0  0  0  0  0  0  0
  144.2710   73.3470  218.8950 C   0  0  0  0  0  0  0  0  0  0  0  0
  142.3384   78.2040  219.9081 H   0  0  0  0  0  0  0  0  0  0  0  0
  139.6164   79.6330  222.9245 H   0  0  0  0  0  0  0  0  0  0  0  0
  138.9449   77.2917  223.5061 H   0  0  0  0  0  0  0  0  0  0  0  0
  138.9161   72.7679  222.1154 H   0  0  0  0  0  0  0  0  0  0  0  0
  141.4385   71.4003  222.0643 H   0  0  0  0  0  0  0  0  0  0  0  0
  141.7524   72.2551  225.1179 H   0  0  0  0  0  0  0  0  0  0  0  0
  141.0894   71.1380  227.2326 H   0  0  0  0  0  0  0  0  0  0  0  0
  139.2591   69.4680  227.2907 H   0  0  0  0  0  0  0  0  0  0  0  0
  138.0727   68.9209  225.1626 H   0  0  0  0  0  0  0  0  0  0  0  0
  138.7375   70.0335  223.0870 H   0  0  0  0  0  0  0  0  0  0  0  0
  141.5883   72.3900  220.1408 H   0  0  0  0  0  0  0  0  0  0  0  0
  141.8712   73.6821  218.8516 H   0  0  0  0  0  0  0  0  0  0  0  0
  143.6145   72.9935  222.1502 H   0  0  0  0  0  0  0  0  0  0  0  0
  146.0802   72.8558  222.2229 H   0  0  0  0  0  0  0  0  0  0  0  0
  147.4280   73.0318  220.1285 H   0  0  0  0  0  0  0  0  0  0  0  0
  146.4210   74.3080  217.2940 H   0  0  0  0  0  0  0  0  0  0  0  0
  143.7723   73.4888  217.9249 H   0  0  0  0  0  0  0  0  0  0  0  0
  1  2  2  0
  2  3  1  0
  3  4  2  0
  4  5  1  0
  5  6  1  0
  5  7  2  0
  7  8  1  0
  8  9  2  0
  9 10  1  0
 10 11  2  0
 11 12  1  0
 12 13  2  0
 13 14  1  0
 14 15  2  0
 15 16  1  0
 16 17  2  0
 17 18  1  0
 18 19  2  0
 11 20  1  0
 20 21  1  0
 21 22  1  0
 22 23  2  0
 23 24  1  0
 24 25  2  0
 25 26  1  0
 26 27  1  0
 26 28  2  0
 20  2  1  0
 28 22  1  0
  9  3  1  0
 19 14  1  0
  4 29  1  0
  7 30  1  0
  8 31  1  0
 12 32  1  0
 13 33  1  0
 15 34  1  0
 16 35  1  0
 17 36  1  0
 18 37  1  0
 19 38  1  0
 21 39  1  0
 21 40  1  0
 23 41  1  0
 24 42  1  0
 25 43  1  0
 27 44  1  0
 28 45  1  0
M  END
>  <smiles>  (3) 
O=c1c2cc(Cl)ccc2nc(/C=C/c2ccccc2)n1Cc1cccc(O)c1

>  <score_type>  (3) 
oracle

>  <origin>  (3) 
autodockgpu

>  <m_score__min__energy>  (3) 
-8.5099999999999998

>  <m_primary>  (3) 
energy

>  <rmsd>  (3) 
7.8632785162189025

>  <m_score__min__rmsd>  (3) 
7.8632785162189025

>  <meeko>  (3) 
{"free_energy": -8.4, "intermolecular_energy": -10.19, "internal_energy": -1.02, "cluster_size": 27, "cluster_id": 1, "rank_in_cluster": 2}

>  <energy>  (3) 
-8.38

>  <cluster_rmsd>  (3) 
0.88

>  <cluster>  (3) 
1

$$$$

     RDKit          3D

 45 48  0  0  0  0  0  0  0  0999 V2000
  142.8730   76.7650  219.4050 O   0  0  0  0  0  0  0  0  0  0  0  0
  142.0360   76.3740  220.2590 C   0  0  0  0  0  0  0  0  0  0  0  0
  141.4620   77.3300  221.0520 C   0  0  0  0  0  0  0  0  0  0  0  0
  141.7930   78.6540  220.9100 C   0  0  0  0  0  0  0  0  0  0  0  0
  141.1610   79.5570  221.7570 C   0  0  0  0  0  0  0  0  0  0  0  0
  141.5450   81.2510  221.6190 Cl  0  0  0  0  0  0  0  0  0  0  0  0
  140.2450   79.1170  222.6900 C   0  0  0  0  0  0  0  0  0  0  0  0
  139.9120   77.7740  222.8310 C   0  0  0  0  0  0  0  0  0  0  0  0
  140.5520   76.9020  221.9810 C   0  0  0  0  0  0  0  0  0  0  0  0
  140.2830   75.6150  222.0610 N   0  0  0  0  0  0  0  0  0  0  0  0
  140.8350   74.6350  221.2880 C   0  0  0  0  0  0  0  0  0  0  0  0
  140.4080   73.3020  221.6000 C   0  0  0  0  0  0  0  0  0  0  0  0
  140.9510   72.3500  222.2930 C   0  0  0  0  0  0  0  0  0  0  0  0
  140.2330   71.5360  223.2940 C   0  0  0  0  0  0  0  0  0  0  0  0
  139.1260   70.7910  223.0060 C   0  0  0  0  0  0  0  0  0  0  0  0
  138.5040   70.0460  224.0140 C   0  0  0  0  0  0  0  0  0  0  0  0
  138.9730   70.0340  225.3110 C   0  0  0  0  0  0  0  0  0  0  0  0
  140.0880   70.7840  225.6000 C   0  0  0  0  0  0  0  0  0  0  0  0
  140.6870   71.5100  224.6010 C   0  0  0  0  0  0  0  0  0  0  0  0
  141.7210   75.0310  220.3770 N   0  0  0  0  0  0  0  0  0  0  0  0
  142.4000   74.1940  219.4360 C   0  0  0  0  0  0  0  0  0  0  0  0
  143.7260   73.7230  219.8360 C   0  0  0  0  0  0  0  0  0  0  0  0
  144.5190   74.2210  220.8240 C   0  0  0  0  0  0  0  0  0  0  0  0
  145.7910   73.7030  221.1190 C   0  0  0  0  0  0  0  0  0  0  0  0
  146.3060   72.6420  220.4070 C   0  0  0  0  0  0  0  0  0  0  0  0
  145.5170   72.1250  219.4050 C   0  0  0  0  0  0  0  0  0  0  0  0
  146.0050   71.0390  218.6520 O   0  0  0  0  0  0  0  0  0  0  0  0
  144.2740   72.6420  219.1260 C   0  0  0  0  0  0  0  0  0  0  0  0
  142.5256   78.9859  220.1596 H   0  0  0  0  0  0  0  0  0  0  0  0
  139.7604   79.8550  223.3462 H   0  0  0  0  0  0  0  0  0  0  0  0
  139.1809   77.4298  223.5773 H   0  0  0  0  0  0  0  0  0  0  0  0
  139.4319   73.0359  221.1683 H   0  0  0  0  0  0  0  0  0  0  0  0
  142.0164   72.1347  222.1241 H   0  0  0  0  0  0  0  0  0  0  0  0
  138.7233   70.7763  221.9825 H   0  0  0  0  0  0  0  0  0  0  0  0
  137.6130   69.4512  223.7642 H   0  0  0  0  0  0  0  0  0  0  0  0
  138.4702   69.4424  226.0902 H   0  0  0  0  0  0  0  0  0  0  0  0
  140.4960   70.8022  226.6214 H   0  0  0  0  0  0  0  0  0  0  0  0
  141.5776   72.1043  224.8533 H   0  0  0  0  0  0  0  0  0  0  0  0
  141.7697   73.3108  219.2552 H   0  0  0  0  0  0  0  0  0  0  0  0
  142.5638   74.8202  218.5466 H   0  0  0  0  0  0  0  0  0  0  0  0
  144.1466   75.0681  221.4188 H   0  0  0  0  0  0  0  0  0  0  0  0
  146.3842   74.1509  221.9299 H   0  0  0  0  0  0  0  0  0  0  0  0
  147.3006   72.2278  220.6289 H   0  0  0  0  0  0  0  0  0  0  0  0
  145.3870   70.2160  218.5770 H   0  0  0  0  0  0  0  0  0  0  0  0
  143.6849   72.1909  218.3140 H   0  0  0  0  0  0  0  0  0  0  0  0
  1  2  2  0
  2  3  1  0
  3  4  2  0
  4  5  1  0
  5  6  1  0
  5  7  2  0
  7  8  1  0
  8  9  2  0
  9 10  1  0
 10 11  2  0
 11 12  1  0
 12 13  2  0
 13 14  1  0
 14 15  2  0
 15 16  1  0
 16 17  2  0
 17 18  1  0
 18 19  2  0
 11 20  1  0
 20 21  1  0
 21 22  1  0
 22 23  2  0
 23 24  1  0
 24 25  2  0
 25 26  1  0
 26 27  1  0
 26 28  2  0
 20  2  1  0
 28 22  1  0
  9  3  1  0
 19 14  1  0
  4 29  1  0
  7 30  1  0
  8 31  1  0
 12 32  1  0
 13 33  1  0
 15 34  1  0
 16 35  1  0
 17 36  1  0
 18 37  1  0
 19 38  1  0
 21 39  1  0
 21 40  1  0
 23 41  1  0
 24 42  1  0
 25 43  1  0
 27 44  1  0
 28 45  1  0
M  END
>  <smiles>  (4) 
O=c1c2cc(Cl)ccc2nc(/C=C/c2ccccc2)n1Cc1cccc(O)c1

>  <score_type>  (4) 
oracle

>  <origin>  (4) 
autodockgpu

>  <m_score__min__energy>  (4) 
-8.5099999999999998

>  <m_primary>  (4) 
energy

>  <rmsd>  (4) 
7.902377536801356

>  <m_score__min__rmsd>  (4) 
7.902377536801356

>  <meeko>  (4) 
{"free_energy": -7.66, "intermolecular_energy": -9.45, "internal_energy": -1.05, "cluster_size": 27, "cluster_id": 1, "rank_in_cluster": 25}

>  <energy>  (4) 
-8.35

>  <cluster_rmsd>  (4) 
0.79

>  <cluster>  (4) 
1

$$$$

     RDKit          3D

 45 48  0  0  0  0  0  0  0  0999 V2000
  142.6610   75.4870  219.7290 O   0  0  0  0  0  0  0  0  0  0  0  0
  141.7540   75.2670  220.5720 C   0  0  0  0  0  0  0  0  0  0  0  0
  141.1690   76.3560  221.1580 C   0  0  0  0  0  0  0  0  0  0  0  0
  141.5630   77.6280  220.8300 C   0  0  0  0  0  0  0  0  0  0  0  0
  140.9140   78.6760  221.4730 C   0  0  0  0  0  0  0  0  0  0  0  0
  141.3760   80.3130  221.0940 Cl  0  0  0  0  0  0  0  0  0  0  0  0
  139.9210   78.4210  222.3970 C   0  0  0  0  0  0  0  0  0  0  0  0
  139.5230   77.1310  222.7270 C   0  0  0  0  0  0  0  0  0  0  0  0
  140.1820   76.1120  222.0760 C   0  0  0  0  0  0  0  0  0  0  0  0
  139.8550   74.8640  222.3410 N   0  0  0  0  0  0  0  0  0  0  0  0
  140.4160   73.7550  221.7770 C   0  0  0  0  0  0  0  0  0  0  0  0
  139.9140   72.5050  222.2680 C   0  0  0  0  0  0  0  0  0  0  0  0
  140.4930   71.4910  222.8320 C   0  0  0  0  0  0  0  0  0  0  0  0
  140.3940   71.1700  224.2700 C   0  0  0  0  0  0  0  0  0  0  0  0
  141.0170   71.8910  225.2480 C   0  0  0  0  0  0  0  0  0  0  0  0
  140.8720   71.5200  226.5890 C   0  0  0  0  0  0  0  0  0  0  0  0
  140.1110   70.4350  226.9700 C   0  0  0  0  0  0  0  0  0  0  0  0
  139.4850   69.7090  225.9850 C   0  0  0  0  0  0  0  0  0  0  0  0
  139.6370   70.0850  224.6740 C   0  0  0  0  0  0  0  0  0  0  0  0
  141.3760   73.9710  220.8820 N   0  0  0  0  0  0  0  0  0  0  0  0
  142.0810   72.9720  220.1380 C   0  0  0  0  0  0  0  0  0  0  0  0
  143.5390   73.0810  220.1390 C   0  0  0  0  0  0  0  0  0  0  0  0
  144.3510   73.3340  221.2020 C   0  0  0  0  0  0  0  0  0  0  0  0
  145.7470   73.4350  221.0930 C   0  0  0  0  0  0  0  0  0  0  0  0
  146.3760   73.2780  219.8770 C   0  0  0  0  0  0  0  0  0  0  0  0
  145.5700   73.0200  218.7900 C   0  0  0  0  0  0  0  0  0  0  0  0
  146.1710   72.8530  217.5280 O   0  0  0  0  0  0  0  0  0  0  0  0
  144.2050   72.9240  218.9120 C   0  0  0  0  0  0  0  0  0  0  0  0
  142.3571   77.8109  220.0911 H   0  0  0  0  0  0  0  0  0  0  0  0
  139.4262   79.2704  222.8906 H   0  0  0  0  0  0  0  0  0  0  0  0
  138.7297   76.9357  223.4636 H   0  0  0  0  0  0  0  0  0  0  0  0
  138.8281   72.3825  222.1420 H   0  0  0  0  0  0  0  0  0  0  0  0
  141.0976   70.8262  222.1976 H   0  0  0  0  0  0  0  0  0  0  0  0
  141.6325   72.7629  224.9816 H   0  0  0  0  0  0  0  0  0  0  0  0
  141.3809   72.1123  227.3637 H   0  0  0  0  0  0  0  0  0  0  0  0
  140.0081   70.1590  228.0298 H   0  0  0  0  0  0  0  0  0  0  0  0
  138.8686   68.8357  226.2448 H   0  0  0  0  0  0  0  0  0  0  0  0
  139.1283   69.4902  223.9010 H   0  0  0  0  0  0  0  0  0  0  0  0
  141.8167   71.9904  220.5584 H   0  0  0  0  0  0  0  0  0  0  0  0
  141.7742   73.1110  219.0908 H   0  0  0  0  0  0  0  0  0  0  0  0
  143.8917   73.4655  222.1928 H   0  0  0  0  0  0  0  0  0  0  0  0
  146.3473   73.6424  221.9911 H   0  0  0  0  0  0  0  0  0  0  0  0
  147.4689   73.3550  219.7790 H   0  0  0  0  0  0  0  0  0  0  0  0
  145.5330   72.7780  216.7200 H   0  0  0  0  0  0  0  0  0  0  0  0
  143.6087   72.7155  218.0115 H   0  0  0  0  0  0  0  0  0  0  0  0
  1  2  2  0
  2  3  1  0
  3  4  2  0
  4  5  1  0
  5  6  1  0
  5  7  2  0
  7  8  1  0
  8  9  2  0
  9 10  1  0
 10 11  2  0
 11 12  1  0
 12 13  2  0
 13 14  1  0
 14 15  2  0
 15 16  1  0
 16 17  2  0
 17 18  1  0
 18 19  2  0
 11 20  1  0
 20 21  1  0
 21 22  1  0
 22 23  2  0
 23 24  1  0
 24 25  2  0
 25 26  1  0
 26 27  1  0
 26 28  2  0
 20  2  1  0
 28 22  1  0
  9  3  1  0
 19 14  1  0
  4 29  1  0
  7 30  1  0
  8 31  1  0
 12 32  1  0
 13 33  1  0
 15 34  1  0
 16 35  1  0
 17 36  1  0
 18 37  1  0
 19 38  1  0
 21 39  1  0
 21 40  1  0
 23 41  1  0
 24 42  1  0
 25 43  1  0
 27 44  1  0
 28 45  1  0
M  END
>  <smiles>  (5) 
O=c1c2cc(Cl)ccc2nc(/C=C/c2ccccc2)n1Cc1cccc(O)c1

>  <score_type>  (5) 
oracle

>  <origin>  (5) 
autodockgpu

>  <m_score__min__energy>  (5) 
-8.5099999999999998

>  <m_primary>  (5) 
energy

>  <rmsd>  (5) 
7.8964240242448325

>  <m_score__min__rmsd>  (5) 
7.8964240242448325

>  <meeko>  (5) 
{"free_energy": -8.2, "intermolecular_energy": -9.99, "internal_energy": -0.83, "cluster_size": 27, "cluster_id": 1, "rank_in_cluster": 6}

>  <energy>  (5) 
-8.21

>  <cluster_rmsd>  (5) 
0.76

>  <cluster>  (5) 
1

$$$$

     RDKit          3D

 45 48  0  0  0  0  0  0  0  0999 V2000
  142.6470   77.1000  219.3890 O   0  0  0  0  0  0  0  0  0  0  0  0
  141.8640   76.7350  220.3040 C   0  0  0  0  0  0  0  0  0  0  0  0
  141.4240   77.6980  221.1690 C   0  0  0  0  0  0  0  0  0  0  0  0
  141.8250   79.0030  221.0330 C   0  0  0  0  0  0  0  0  0  0  0  0
  141.3290   79.9170  221.9560 C   0  0  0  0  0  0  0  0  0  0  0  0
  141.8070   81.5880  221.8290 Cl  0  0  0  0  0  0  0  0  0  0  0  0
  140.4720   79.5040  222.9560 C   0  0  0  0  0  0  0  0  0  0  0  0
  140.0670   78.1810  223.0910 C   0  0  0  0  0  0  0  0  0  0  0  0
  140.5740   77.2980  222.1650 C   0  0  0  0  0  0  0  0  0  0  0  0
  140.2300   76.0280  222.2350 N   0  0  0  0  0  0  0  0  0  0  0  0
  140.6490   75.0410  221.3900 C   0  0  0  0  0  0  0  0  0  0  0  0
  140.1670   73.7280  221.7050 C   0  0  0  0  0  0  0  0  0  0  0  0
  140.7710   72.6340  222.0510 C   0  0  0  0  0  0  0  0  0  0  0  0
  140.2680   71.6920  223.0700 C   0  0  0  0  0  0  0  0  0  0  0  0
  139.4000   70.6740  222.7940 C   0  0  0  0  0  0  0  0  0  0  0  0
  138.9710   69.8240  223.8190 C   0  0  0  0  0  0  0  0  0  0  0  0
  139.3970   69.9760  225.1220 C   0  0  0  0  0  0  0  0  0  0  0  0
  140.2710   71.0000  225.3990 C   0  0  0  0  0  0  0  0  0  0  0  0
  140.6820   71.8260  224.3830 C   0  0  0  0  0  0  0  0  0  0  0  0
  141.4760   75.4100  220.4150 N   0  0  0  0  0  0  0  0  0  0  0  0
  142.0150   74.5630  219.3960 C   0  0  0  0  0  0  0  0  0  0  0  0
  143.2710   73.8890  219.7210 C   0  0  0  0  0  0  0  0  0  0  0  0
  143.5880   73.2340  220.8710 C   0  0  0  0  0  0  0  0  0  0  0  0
  144.8360   72.6300  221.0910 C   0  0  0  0  0  0  0  0  0  0  0  0
  145.8210   72.6710  220.1290 C   0  0  0  0  0  0  0  0  0  0  0  0
  145.5190   73.3270  218.9570 C   0  0  0  0  0  0  0  0  0  0  0  0
  146.4970   73.3930  217.9460 O   0  0  0  0  0  0  0  0  0  0  0  0
  144.2930   73.9150  218.7560 C   0  0  0  0  0  0  0  0  0  0  0  0
  142.5089   79.3126  220.2290 H   0  0  0  0  0  0  0  0  0  0  0  0
  140.0957   80.2490  223.6724 H   0  0  0  0  0  0  0  0  0  0  0  0
  139.3826   77.8593  223.8898 H   0  0  0  0  0  0  0  0  0  0  0  0
  139.0733   73.6297  221.6407 H   0  0  0  0  0  0  0  0  0  0  0  0
  141.7210   72.3919  221.5521 H   0  0  0  0  0  0  0  0  0  0  0  0
  139.0385   70.5226  221.7662 H   0  0  0  0  0  0  0  0  0  0  0  0
  138.2723   69.0092  223.5783 H   0  0  0  0  0  0  0  0  0  0  0  0
  139.0480   69.2985  225.9152 H   0  0  0  0  0  0  0  0  0  0  0  0
  140.6372   71.1559  226.4245 H   0  0  0  0  0  0  0  0  0  0  0  0
  141.3800   72.6405  224.6265 H   0  0  0  0  0  0  0  0  0  0  0  0
  141.2663   73.7892  219.1707 H   0  0  0  0  0  0  0  0  0  0  0  0
  142.2450   75.2268  218.5496 H   0  0  0  0  0  0  0  0  0  0  0  0
  142.8302   73.1750  221.6661 H   0  0  0  0  0  0  0  0  0  0  0  0
  145.0299   72.1170  222.0445 H   0  0  0  0  0  0  0  0  0  0  0  0
  146.8028   72.2016  220.2897 H   0  0  0  0  0  0  0  0  0  0  0  0
  146.5880   74.2930  217.4510 H   0  0  0  0  0  0  0  0  0  0  0  0
  144.1037   74.4269  217.8009 H   0  0  0  0  0  0  0  0  0  0  0  0
  1  2  2  0
  2  3  1  0
  3  4  2  0
  4  5  1  0
  5  6  1  0
  5  7  2  0
  7  8  1  0
  8  9  2  0
  9 10  1  0
 10 11  2  0
 11 12  1  0
 12 13  2  0
 13 14  1  0
 14 15  2  0
 15 16  1  0
 16 17  2  0
 17 18  1  0
 18 19  2  0
 11 20  1  0
 20 21  1  0
 21 22  1  0
 22 23  2  0
 23 24  1  0
 24 25  2  0
 25 26  1  0
 26 27  1  0
 26 28  2  0
 20  2  1  0
 28 22  1  0
  9  3  1  0
 19 14  1  0
  4 29  1  0
  7 30  1  0
  8 31  1  0
 12 32  1  0
 13 33  1  0
 15 34  1  0
 16 35  1  0
 17 36  1  0
 18 37  1  0
 19 38  1  0
 21 39  1  0
 21 40  1  0
 23 41  1  0
 24 42  1  0
 25 43  1  0
 27 44  1  0
 28 45  1  0
M  END
>  <smiles>  (6) 
O=c1c2cc(Cl)ccc2nc(/C=C/c2ccccc2)n1Cc1cccc(O)c1

>  <score_type>  (6) 
oracle

>  <origin>  (6) 
autodockgpu

>  <m_score__min__energy>  (6) 
-8.5099999999999998

>  <m_primary>  (6) 
energy

>  <rmsd>  (6) 
7.7553767683093175

>  <m_score__min__rmsd>  (6) 
7.7553767683093175

>  <meeko>  (6) 
{"free_energy": -8.01, "intermolecular_energy": -9.8, "internal_energy": -1.05, "cluster_size": 27, "cluster_id": 1, "rank_in_cluster": 12}

>  <energy>  (6) 
-8.2

>  <cluster_rmsd>  (6) 
0.79

>  <cluster>  (6) 
1

$$$$

     RDKit          3D

 45 48  0  0  0  0  0  0  0  0999 V2000
  135.0170   72.3620  222.8260 O   0  0  0  0  0  0  0  0  0  0  0  0
  135.3670   71.4530  223.6210 C   0  0  0  0  0  0  0  0  0  0  0  0
  134.7070   71.3820  224.8170 C   0  0  0  0  0  0  0  0  0  0  0  0
  133.7060   72.2700  225.1220 C   0  0  0  0  0  0  0  0  0  0  0  0
  133.0880   72.1250  226.3590 C   0  0  0  0  0  0  0  0  0  0  0  0
  131.8100   73.2270  226.7970 Cl  0  0  0  0  0  0  0  0  0  0  0  0
  133.4810   71.1240  227.2230 C   0  0  0  0  0  0  0  0  0  0  0  0
  134.4950   70.2260  226.9120 C   0  0  0  0  0  0  0  0  0  0  0  0
  135.0900   70.3920  225.6820 C   0  0  0  0  0  0  0  0  0  0  0  0
  136.0590   69.5750  225.3220 N   0  0  0  0  0  0  0  0  0  0  0  0
  136.7390   69.6150  224.1400 C   0  0  0  0  0  0  0  0  0  0  0  0
  137.7820   68.6410  224.0060 C   0  0  0  0  0  0  0  0  0  0  0  0
  138.9580   68.5390  224.5420 C   0  0  0  0  0  0  0  0  0  0  0  0
  139.5190   69.5060  225.5060 C   0  0  0  0  0  0  0  0  0  0  0  0
  140.1290   70.6710  225.1380 C   0  0  0  0  0  0  0  0  0  0  0  0
  140.6350   71.5340  226.1160 C   0  0  0  0  0  0  0  0  0  0  0  0
  140.5410   71.2500  227.4630 C   0  0  0  0  0  0  0  0  0  0  0  0
  139.9270   70.0770  227.8320 C   0  0  0  0  0  0  0  0  0  0  0  0
  139.4360   69.2410  226.8620 C   0  0  0  0  0  0  0  0  0  0  0  0
  136.3800   70.5700  223.2850 N   0  0  0  0  0  0  0  0  0  0  0  0
  136.9230   70.7860  221.9790 C   0  0  0  0  0  0  0  0  0  0  0  0
  138.2520   71.3910  221.9280 C   0  0  0  0  0  0  0  0  0  0  0  0
  139.4380   70.7690  221.6870 C   0  0  0  0  0  0  0  0  0  0  0  0
  140.6700   71.4430  221.6760 C   0  0  0  0  0  0  0  0  0  0  0  0
  140.7370   72.7990  221.9140 C   0  0  0  0  0  0  0  0  0  0  0  0
  139.5470   73.4460  222.1590 C   0  0  0  0  0  0  0  0  0  0  0  0
  139.5690   74.8320  222.4070 O   0  0  0  0  0  0  0  0  0  0  0  0
  138.3480   72.7730  222.1670 C   0  0  0  0  0  0  0  0  0  0  0  0
  133.4060   73.0612  224.4191 H   0  0  0  0  0  0  0  0  0  0  0  0
  132.9728   71.0332  228.1944 H   0  0  0  0  0  0  0  0  0  0  0  0
  134.8034   69.4308  227.6067 H   0  0  0  0  0  0  0  0  0  0  0  0
  137.5372   67.8213  223.3144 H   0  0  0  0  0  0  0  0  0  0  0  0
  139.5783   67.6755  224.2601 H   0  0  0  0  0  0  0  0  0  0  0  0
  140.2225   70.9308  224.0732 H   0  0  0  0  0  0  0  0  0  0  0  0
  141.1231   72.4682  225.8013 H   0  0  0  0  0  0  0  0  0  0  0  0
  140.9448   71.9407  228.2179 H   0  0  0  0  0  0  0  0  0  0  0  0
  139.8304   69.8113  228.8951 H   0  0  0  0  0  0  0  0  0  0  0  0
  138.9488   68.3073  227.1795 H   0  0  0  0  0  0  0  0  0  0  0  0
  136.9777   69.8112  221.4722 H   0  0  0  0  0  0  0  0  0  0  0  0
  136.2501   71.5091  221.4949 H   0  0  0  0  0  0  0  0  0  0  0  0
  139.4315   69.6865  221.4915 H   0  0  0  0  0  0  0  0  0  0  0  0
  141.5940   70.8812  221.4747 H   0  0  0  0  0  0  0  0  0  0  0  0
  141.6957   73.3384  221.9084 H   0  0  0  0  0  0  0  0  0  0  0  0
  138.8800   75.1890  223.0860 H   0  0  0  0  0  0  0  0  0  0  0  0
  137.4266   73.3389  222.3686 H   0  0  0  0  0  0  0  0  0  0  0  0
  1  2  2  0
  2  3  1  0
  3  4  2  0
  4  5  1  0
  5  6  1  0
  5  7  2  0
  7  8  1  0
  8  9  2  0
  9 10  1  0
 10 11  2  0
 11 12  1  0
 12 13  2  0
 13 14  1  0
 14 15  2  0
 15 16  1  0
 16 17  2  0
 17 18  1  0
 18 19  2  0
 11 20  1  0
 20 21  1  0
 21 22  1  0
 22 23  2  0
 23 24  1  0
 24 25  2  0
 25 26  1  0
 26 27  1  0
 26 28  2  0
 20  2  1  0
 28 22  1  0
  9  3  1  0
 19 14  1  0
  4 29  1  0
  7 30  1  0
  8 31  1  0
 12 32  1  0
 13 33  1  0
 15 34  1  0
 16 35  1  0
 17 36  1  0
 18 37  1  0
 19 38  1  0
 21 39  1  0
 21 40  1  0
 23 41  1  0
 24 42  1  0
 25 43  1  0
 27 44  1  0
 28 45  1  0
M  END
>  <smiles>  (7) 
O=c1c2cc(Cl)ccc2nc(/C=C/c2ccccc2)n1Cc1cccc(O)c1

>  <score_type>  (7) 
oracle

>  <origin>  (7) 
autodockgpu

>  <m_score__min__energy>  (7) 
-8.5099999999999998

>  <m_primary>  (7) 
energy

>  <rmsd>  (7) 
10.405817664074835

>  <m_score__min__rmsd>  (7) 
10.405817664074835

>  <meeko>  (7) 
{"free_energy": -6.94, "intermolecular_energy": -8.73, "internal_energy": -1.86, "cluster_size": 5, "cluster_id": 4, "rank_in_cluster": 4}

>  <energy>  (7) 
-8.14

>  <cluster_rmsd>  (7) 
0.48

>  <cluster>  (7) 
1

$$$$

     RDKit          3D

 45 48  0  0  0  0  0  0  0  0999 V2000
  135.0640   72.5480  222.9870 O   0  0  0  0  0  0  0  0  0  0  0  0
  135.3830   71.5910  223.7380 C   0  0  0  0  0  0  0  0  0  0  0  0
  134.7280   71.4930  224.9350 C   0  0  0  0  0  0  0  0  0  0  0  0
  133.7640   72.4040  225.2870 C   0  0  0  0  0  0  0  0  0  0  0  0
  133.1480   72.2270  226.5200 C   0  0  0  0  0  0  0  0  0  0  0  0
  131.9180   73.3570  227.0170 Cl  0  0  0  0  0  0  0  0  0  0  0  0
  133.5070   71.1750  227.3370 C   0  0  0  0  0  0  0  0  0  0  0  0
  134.4830   70.2520  226.9770 C   0  0  0  0  0  0  0  0  0  0  0  0
  135.0770   70.4510  225.7510 C   0  0  0  0  0  0  0  0  0  0  0  0
  136.0100   69.6130  225.3480 N   0  0  0  0  0  0  0  0  0  0  0  0
  136.6850   69.6800  224.1640 C   0  0  0  0  0  0  0  0  0  0  0  0
  137.6880   68.6720  223.9780 C   0  0  0  0  0  0  0  0  0  0  0  0
  138.9090   68.5650  224.4020 C   0  0  0  0  0  0  0  0  0  0  0  0
  139.4800   69.3640  225.5040 C   0  0  0  0  0  0  0  0  0  0  0  0
  139.5550   68.9240  226.7950 C   0  0  0  0  0  0  0  0  0  0  0  0
  140.1120   69.7440  227.7820 C   0  0  0  0  0  0  0  0  0  0  0  0
  140.5970   71.0040  227.4980 C   0  0  0  0  0  0  0  0  0  0  0  0
  140.5210   71.4470  226.2000 C   0  0  0  0  0  0  0  0  0  0  0  0
  139.9720   70.6310  225.2430 C   0  0  0  0  0  0  0  0  0  0  0  0
  136.3590   70.6850  223.3550 N   0  0  0  0  0  0  0  0  0  0  0  0
  136.9020   70.9380  222.0560 C   0  0  0  0  0  0  0  0  0  0  0  0
  138.2710   71.4480  222.0210 C   0  0  0  0  0  0  0  0  0  0  0  0
  139.4180   70.7340  221.8570 C   0  0  0  0  0  0  0  0  0  0  0  0
  140.6940   71.3220  221.8540 C   0  0  0  0  0  0  0  0  0  0  0  0
  140.8470   72.6810  222.0200 C   0  0  0  0  0  0  0  0  0  0  0  0
  139.6980   73.4200  222.1860 C   0  0  0  0  0  0  0  0  0  0  0  0
  139.8090   74.8130  222.3590 O   0  0  0  0  0  0  0  0  0  0  0  0
  138.4560   72.8310  222.1880 C   0  0  0  0  0  0  0  0  0  0  0  0
  133.4911   73.2372  224.6228 H   0  0  0  0  0  0  0  0  0  0  0  0
  133.0031   71.0621  228.3083 H   0  0  0  0  0  0  0  0  0  0  0  0
  134.7633   69.4139  227.6320 H   0  0  0  0  0  0  0  0  0  0  0  0
  137.3582   67.8268  223.3559 H   0  0  0  0  0  0  0  0  0  0  0  0
  139.5620   67.8305  223.9079 H   0  0  0  0  0  0  0  0  0  0  0  0
  139.1774   67.9250  227.0585 H   0  0  0  0  0  0  0  0  0  0  0  0
  140.1649   69.3729  228.8161 H   0  0  0  0  0  0  0  0  0  0  0  0
  141.0315   71.6349  228.2874 H   0  0  0  0  0  0  0  0  0  0  0  0
  140.8962   72.4453  225.9305 H   0  0  0  0  0  0  0  0  0  0  0  0
  139.9200   71.0051  224.2099 H   0  0  0  0  0  0  0  0  0  0  0  0
  136.8804   69.9935  221.4927 H   0  0  0  0  0  0  0  0  0  0  0  0
  136.2782   71.7346  221.6244 H   0  0  0  0  0  0  0  0  0  0  0  0
  139.3424   69.6451  221.7203 H   0  0  0  0  0  0  0  0  0  0  0  0
  141.5829   70.6886  221.7173 H   0  0  0  0  0  0  0  0  0  0  0  0
  141.8405   73.1531  222.0199 H   0  0  0  0  0  0  0  0  0  0  0  0
  139.2560   75.2280  223.1240 H   0  0  0  0  0  0  0  0  0  0  0  0
  137.5703   73.4686  222.3260 H   0  0  0  0  0  0  0  0  0  0  0  0
  1  2  2  0
  2  3  1  0
  3  4  2  0
  4  5  1  0
  5  6  1  0
  5  7  2  0
  7  8  1  0
  8  9  2  0
  9 10  1  0
 10 11  2  0
 11 12  1  0
 12 13  2  0
 13 14  1  0
 14 15  2  0
 15 16  1  0
 16 17  2  0
 17 18  1  0
 18 19  2  0
 11 20  1  0
 20 21  1  0
 21 22  1  0
 22 23  2  0
 23 24  1  0
 24 25  2  0
 25 26  1  0
 26 27  1  0
 26 28  2  0
 20  2  1  0
 28 22  1  0
  9  3  1  0
 19 14  1  0
  4 29  1  0
  7 30  1  0
  8 31  1  0
 12 32  1  0
 13 33  1  0
 15 34  1  0
 16 35  1  0
 17 36  1  0
 18 37  1  0
 19 38  1  0
 21 39  1  0
 21 40  1  0
 23 41  1  0
 24 42  1  0
 25 43  1  0
 27 44  1  0
 28 45  1  0
M  END
>  <smiles>  (8) 
O=c1c2cc(Cl)ccc2nc(/C=C/c2ccccc2)n1Cc1cccc(O)c1

>  <score_type>  (8) 
oracle

>  <origin>  (8) 
autodockgpu

>  <m_score__min__energy>  (8) 
-8.5099999999999998

>  <m_primary>  (8) 
energy

>  <rmsd>  (8) 
10.408385140770894

>  <m_score__min__rmsd>  (8) 
10.408385140770894

>  <meeko>  (8) 
{"free_energy": -6.94, "intermolecular_energy": -8.73, "internal_energy": -1.83, "cluster_size": 5, "cluster_id": 4, "rank_in_cluster": 5}

>  <energy>  (8) 
-8.06

>  <cluster_rmsd>  (8) 
1.24

>  <cluster>  (8) 
1

$$$$

     RDKit          3D

 45 48  0  0  0  0  0  0  0  0999 V2000
  142.6670   75.5160  219.8560 O   0  0  0  0  0  0  0  0  0  0  0  0
  141.6840   75.1760  220.5630 C   0  0  0  0  0  0  0  0  0  0  0  0
  141.0340   76.1680  221.2460 C   0  0  0  0  0  0  0  0  0  0  0  0
  141.4470   77.4730  221.1520 C   0  0  0  0  0  0  0  0  0  0  0  0
  140.7290   78.4160  221.8790 C   0  0  0  0  0  0  0  0  0  0  0  0
  141.2110   80.0890  221.7970 Cl  0  0  0  0  0  0  0  0  0  0  0  0
  139.6530   78.0310  222.6520 C   0  0  0  0  0  0  0  0  0  0  0  0
  139.2360   76.7080  222.7440 C   0  0  0  0  0  0  0  0  0  0  0  0
  139.9650   75.7950  222.0150 C   0  0  0  0  0  0  0  0  0  0  0  0
  139.6240   74.5240  222.0570 N   0  0  0  0  0  0  0  0  0  0  0  0
  140.2480   73.5080  221.3910 C   0  0  0  0  0  0  0  0  0  0  0  0
  139.7120   72.2020  221.6370 C   0  0  0  0  0  0  0  0  0  0  0  0
  139.0030   71.7160  222.6070 C   0  0  0  0  0  0  0  0  0  0  0  0
  139.5580   71.2570  223.8960 C   0  0  0  0  0  0  0  0  0  0  0  0
  140.6510   71.8200  224.4890 C   0  0  0  0  0  0  0  0  0  0  0  0
  141.1150   71.3250  225.7130 C   0  0  0  0  0  0  0  0  0  0  0  0
  140.5010   70.2700  226.3550 C   0  0  0  0  0  0  0  0  0  0  0  0
  139.4010   69.7040  225.7570 C   0  0  0  0  0  0  0  0  0  0  0  0
  138.9590   70.2000  224.5570 C   0  0  0  0  0  0  0  0  0  0  0  0
  141.2900   73.8510  220.6360 N   0  0  0  0  0  0  0  0  0  0  0  0
  142.0730   72.9700  219.8240 C   0  0  0  0  0  0  0  0  0  0  0  0
  143.5180   73.0170  220.0380 C   0  0  0  0  0  0  0  0  0  0  0  0
  144.1840   72.9400  221.2230 C   0  0  0  0  0  0  0  0  0  0  0  0
  145.5830   73.0110  221.3210 C   0  0  0  0  0  0  0  0  0  0  0  0
  146.3660   73.1640  220.1980 C   0  0  0  0  0  0  0  0  0  0  0  0
  145.7100   73.2420  218.9900 C   0  0  0  0  0  0  0  0  0  0  0  0
  146.4710   73.3980  217.8150 O   0  0  0  0  0  0  0  0  0  0  0  0
  144.3390   73.1720  218.9080 C   0  0  0  0  0  0  0  0  0  0  0  0
  142.3073   77.7603  220.5296 H   0  0  0  0  0  0  0  0  0  0  0  0
  139.1046   78.7995  223.2165 H   0  0  0  0  0  0  0  0  0  0  0  0
  138.3762   76.4087  223.3614 H   0  0  0  0  0  0  0  0  0  0  0  0
  139.9480   71.4703  220.8503 H   0  0  0  0  0  0  0  0  0  0  0  0
  137.9155   71.6404  222.4602 H   0  0  0  0  0  0  0  0  0  0  0  0
  141.1669   72.6624  224.0050 H   0  0  0  0  0  0  0  0  0  0  0  0
  141.9964   71.7916  226.1772 H   0  0  0  0  0  0  0  0  0  0  0  0
  140.8803   69.8932  227.3163 H   0  0  0  0  0  0  0  0  0  0  0  0
  138.8801   68.8617  226.2358 H   0  0  0  0  0  0  0  0  0  0  0  0
  138.0784   69.7306  224.0942 H   0  0  0  0  0  0  0  0  0  0  0  0
  141.7366   71.9416  220.0220 H   0  0  0  0  0  0  0  0  0  0  0  0
  141.9155   73.3031  218.7876 H   0  0  0  0  0  0  0  0  0  0  0  0
  143.5991   72.8165  222.1464 H   0  0  0  0  0  0  0  0  0  0  0  0
  146.0609   72.9434  222.3095 H   0  0  0  0  0  0  0  0  0  0  0  0
  147.4626   73.2211  220.2632 H   0  0  0  0  0  0  0  0  0  0  0  0
  146.4780   74.3390  217.3930 H   0  0  0  0  0  0  0  0  0  0  0  0
  143.8656   73.2401  217.9174 H   0  0  0  0  0  0  0  0  0  0  0  0
  1  2  2  0
  2  3  1  0
  3  4  2  0
  4  5  1  0
  5  6  1  0
  5  7  2  0
  7  8  1  0
  8  9  2  0
  9 10  1  0
 10 11  2  0
 11 12  1  0
 12 13  2  0
 13 14  1  0
 14 15  2  0
 15 16  1  0
 16 17  2  0
 17 18  1  0
 18 19  2  0
 11 20  1  0
 20 21  1  0
 21 22  1  0
 22 23  2  0
 23 24  1  0
 24 25  2  0
 25 26  1  0
 26 27  1  0
 26 28  2  0
 20  2  1  0
 28 22  1  0
  9  3  1  0
 19 14  1  0
  4 29  1  0
  7 30  1  0
  8 31  1  0
 12 32  1  0
 13 33  1  0
 15 34  1  0
 16 35  1  0
 17 36  1  0
 18 37  1  0
 19 38  1  0
 21 39  1  0
 21 40  1  0
 23 41  1  0
 24 42  1  0
 25 43  1  0
 27 44  1  0
 28 45  1  0
M  END
>  <smiles>  (9) 
O=c1c2cc(Cl)ccc2nc(/C=C/c2ccccc2)n1Cc1cccc(O)c1

>  <score_type>  (9) 
oracle

>  <origin>  (9) 
autodockgpu

>  <m_score__min__energy>  (9) 
-8.5099999999999998

>  <m_primary>  (9) 
energy

>  <rmsd>  (9) 
7.933182200361684

>  <m_score__min__rmsd>  (9) 
7.933182200361684

>  <meeko>  (9) 
{"free_energy": -8.35, "intermolecular_energy": -10.14, "internal_energy": -1.0, "cluster_size": 27, "cluster_id": 1, "rank_in_cluster": 4}

>  <energy>  (9) 
-8.06

>  <cluster_rmsd>  (9) 
1.26

>  <cluster>  (9) 
1

$$$$

     RDKit          3D

 45 48  0  0  0  0  0  0  0  0999 V2000
  143.3830   77.0640  219.4660 O   0  0  0  0  0  0  0  0  0  0  0  0
  142.5070   76.3990  220.0760 C   0  0  0  0  0  0  0  0  0  0  0  0
  142.7680   75.0740  220.2930 C   0  0  0  0  0  0  0  0  0  0  0  0
  143.9410   74.5080  219.8610 C   0  0  0  0  0  0  0  0  0  0  0  0
  144.1240   73.1550  220.1250 C   0  0  0  0  0  0  0  0  0  0  0  0
  145.5960   72.3850  219.5970 Cl  0  0  0  0  0  0  0  0  0  0  0  0
  143.1550   72.4360  220.7940 C   0  0  0  0  0  0  0  0  0  0  0  0
  141.9680   73.0130  221.2310 C   0  0  0  0  0  0  0  0  0  0  0  0
  141.8120   74.3530  220.9560 C   0  0  0  0  0  0  0  0  0  0  0  0
  140.7100   74.9620  221.3430 N   0  0  0  0  0  0  0  0  0  0  0  0
  140.4160   76.2800  221.1440 C   0  0  0  0  0  0  0  0  0  0  0  0
  139.1290   76.6940  221.6220 C   0  0  0  0  0  0  0  0  0  0  0  0
  138.7570   77.3400  222.6830 C   0  0  0  0  0  0  0  0  0  0  0  0
  138.5560   78.8020  222.7390 C   0  0  0  0  0  0  0  0  0  0  0  0
  137.9680   79.5210  221.7380 C   0  0  0  0  0  0  0  0  0  0  0  0
  137.8150   80.9060  221.8700 C   0  0  0  0  0  0  0  0  0  0  0  0
  138.2430   81.5860  222.9910 C   0  0  0  0  0  0  0  0  0  0  0  0
  138.8350   80.8610  223.9980 C   0  0  0  0  0  0  0  0  0  0  0  0
  138.9780   79.5040  223.8540 C   0  0  0  0  0  0  0  0  0  0  0  0
  141.3330   76.9990  220.5020 N   0  0  0  0  0  0  0  0  0  0  0  0
  141.2620   78.3980  220.2100 C   0  0  0  0  0  0  0  0  0  0  0  0
  141.6170   79.3000  221.3050 C   0  0  0  0  0  0  0  0  0  0  0  0
  142.1490   78.9680  222.5130 C   0  0  0  0  0  0  0  0  0  0  0  0
  142.4410   79.9160  223.5080 C   0  0  0  0  0  0  0  0  0  0  0  0
  142.1980   81.2560  223.3020 C   0  0  0  0  0  0  0  0  0  0  0  0
  141.6620   81.6110  222.0850 C   0  0  0  0  0  0  0  0  0  0  0  0
  141.3980   82.9710  221.8320 O   0  0  0  0  0  0  0  0  0  0  0  0
  141.3800   80.6730  221.1200 C   0  0  0  0  0  0  0  0  0  0  0  0
  144.7023   75.0980  219.3297 H   0  0  0  0  0  0  0  0  0  0  0  0
  143.3279   71.3673  220.9887 H   0  0  0  0  0  0  0  0  0  0  0  0
  141.1998   72.4338  221.7643 H   0  0  0  0  0  0  0  0  0  0  0  0
  138.2971   76.4086  220.9614 H   0  0  0  0  0  0  0  0  0  0  0  0
  138.5795   76.7612  223.6014 H   0  0  0  0  0  0  0  0  0  0  0  0
  137.6150   79.0122  220.8289 H   0  0  0  0  0  0  0  0  0  0  0  0
  137.3386   81.4697  221.0543 H   0  0  0  0  0  0  0  0  0  0  0  0
  138.1146   82.6751  223.0767 H   0  0  0  0  0  0  0  0  0  0  0  0
  139.1903   81.3636  224.9097 H   0  0  0  0  0  0  0  0  0  0  0  0
  139.4550   78.9427  224.6710 H   0  0  0  0  0  0  0  0  0  0  0  0
  141.9440   78.6019  219.3714 H   0  0  0  0  0  0  0  0  0  0  0  0
  140.2038   78.6016  219.9891 H   0  0  0  0  0  0  0  0  0  0  0  0
  142.3601   77.9085  222.7199 H   0  0  0  0  0  0  0  0  0  0  0  0
  142.8697   79.5834  224.4649 H   0  0  0  0  0  0  0  0  0  0  0  0
  142.4218   82.0071  224.0738 H   0  0  0  0  0  0  0  0  0  0  0  0
  140.9290   83.1910  220.9400 H   0  0  0  0  0  0  0  0  0  0  0  0
  140.9517   81.0107  220.1648 H   0  0  0  0  0  0  0  0  0  0  0  0
  1  2  2  0
  2  3  1  0
  3  4  2  0
  4  5  1  0
  5  6  1  0
  5  7  2  0
  7  8  1  0
  8  9  2  0
  9 10  1  0
 10 11  2  0
 11 12  1  0
 12 13  2  0
 13 14  1  0
 14 15  2  0
 15 16  1  0
 16 17  2  0
 17 18  1  0
 18 19  2  0
 11 20  1  0
 20 21  1  0
 21 22  1  0
 22 23  2  0
 23 24  1  0
 24 25  2  0
 25 26  1  0
 26 27  1  0
 26 28  2  0
 20  2  1  0
 28 22  1  0
  9  3  1  0
 19 14  1  0
  4 29  1  0
  7 30  1  0
  8 31  1  0
 12 32  1  0
 13 33  1  0
 15 34  1  0
 16 35  1  0
 17 36  1  0
 18 37  1  0
 19 38  1  0
 21 39  1  0
 21 40  1  0
 23 41  1  0
 24 42  1  0
 25 43  1  0
 27 44  1  0
 28 45  1  0
M  END
>  <smiles>  (10) 
O=c1c2cc(Cl)ccc2nc(/C=C/c2ccccc2)n1Cc1cccc(O)c1

>  <score_type>  (10) 
oracle

>  <origin>  (10) 
autodockgpu

>  <m_score__min__energy>  (10) 
-8.5099999999999998

>  <m_primary>  (10) 
energy

>  <rmsd>  (10) 
3.988444348119594

>  <m_score__min__rmsd>  (10) 
3.988444348119594

>  <meeko>  (10) 
{"free_energy": -6.67, "intermolecular_energy": -8.46, "internal_energy": -2.03, "cluster_size": 11, "cluster_id": 3, "rank_in_cluster": 7}

>  <energy>  (10) 
-8.05

>  <cluster_rmsd>  (10) 
1.25

>  <cluster>  (10) 
1

$$$$

     RDKit          3D

 45 48  0  0  0  0  0  0  0  0999 V2000
  143.6940   76.7490  219.4080 O   0  0  0  0  0  0  0  0  0  0  0  0
  142.7840   76.2080  220.0870 C   0  0  0  0  0  0  0  0  0  0  0  0
  142.8720   74.8580  220.2860 C   0  0  0  0  0  0  0  0  0  0  0  0
  143.9150   74.1360  219.7630 C   0  0  0  0  0  0  0  0  0  0  0  0
  143.9270   72.7690  220.0160 C   0  0  0  0  0  0  0  0  0  0  0  0
  145.2290   71.8050  219.3740 Cl  0  0  0  0  0  0  0  0  0  0  0  0
  142.9220   72.1880  220.7610 C   0  0  0  0  0  0  0  0  0  0  0  0
  141.8660   72.9220  221.2900 C   0  0  0  0  0  0  0  0  0  0  0  0
  141.8790   74.2730  221.0250 C   0  0  0  0  0  0  0  0  0  0  0  0
  140.9080   75.0270  221.4960 N   0  0  0  0  0  0  0  0  0  0  0  0
  140.7870   76.3760  221.3180 C   0  0  0  0  0  0  0  0  0  0  0  0
  139.6140   76.9620  221.8950 C   0  0  0  0  0  0  0  0  0  0  0  0
  139.4440   77.9450  222.7240 C   0  0  0  0  0  0  0  0  0  0  0  0
  140.4590   78.9800  223.0040 C   0  0  0  0  0  0  0  0  0  0  0  0
  141.6590   78.7190  223.6000 C   0  0  0  0  0  0  0  0  0  0  0  0
  142.5660   79.7580  223.8310 C   0  0  0  0  0  0  0  0  0  0  0  0
  142.2910   81.0620  223.4750 C   0  0  0  0  0  0  0  0  0  0  0  0
  141.0820   81.3250  222.8750 C   0  0  0  0  0  0  0  0  0  0  0  0
  140.2030   80.2950  222.6560 C   0  0  0  0  0  0  0  0  0  0  0  0
  141.7440   76.9640  220.6030 N   0  0  0  0  0  0  0  0  0  0  0  0
  141.8480   78.3610  220.3150 C   0  0  0  0  0  0  0  0  0  0  0  0
  141.6400   78.7460  218.9200 C   0  0  0  0  0  0  0  0  0  0  0  0
  140.8510   78.1280  217.9980 C   0  0  0  0  0  0  0  0  0  0  0  0
  140.7320   78.5720  216.6710 C   0  0  0  0  0  0  0  0  0  0  0  0
  141.4230   79.6790  216.2300 C   0  0  0  0  0  0  0  0  0  0  0  0
  142.2250   80.3180  217.1480 C   0  0  0  0  0  0  0  0  0  0  0  0
  142.9500   81.4540  216.7400 O   0  0  0  0  0  0  0  0  0  0  0  0
  142.3330   79.8720  218.4440 C   0  0  0  0  0  0  0  0  0  0  0  0
  144.7065   74.6174  219.1699 H   0  0  0  0  0  0  0  0  0  0  0  0
  142.9572   71.1038  220.9434 H   0  0  0  0  0  0  0  0  0  0  0  0
  141.0686   72.4517  221.8842 H   0  0  0  0  0  0  0  0  0  0  0  0
  138.6760   76.4863  221.5727 H   0  0  0  0  0  0  0  0  0  0  0  0
  138.4816   78.0118  223.2525 H   0  0  0  0  0  0  0  0  0  0  0  0
  141.9126   77.6911  223.8987 H   0  0  0  0  0  0  0  0  0  0  0  0
  143.5285   79.5283  224.3114 H   0  0  0  0  0  0  0  0  0  0  0  0
  143.0165   81.8667  223.6652 H   0  0  0  0  0  0  0  0  0  0  0  0
  140.8225   82.3506  222.5738 H   0  0  0  0  0  0  0  0  0  0  0  0
  139.2404   80.5271  222.1768 H   0  0  0  0  0  0  0  0  0  0  0  0
  141.0982   78.8868  220.9244 H   0  0  0  0  0  0  0  0  0  0  0  0
  142.8883   78.6342  220.5456 H   0  0  0  0  0  0  0  0  0  0  0  0
  140.2804   77.2398  218.3070 H   0  0  0  0  0  0  0  0  0  0  0  0
  140.0777   78.0280  215.9739 H   0  0  0  0  0  0  0  0  0  0  0  0
  141.3378   80.0355  215.1929 H   0  0  0  0  0  0  0  0  0  0  0  0
  143.8260   81.2810  216.2240 H   0  0  0  0  0  0  0  0  0  0  0  0
  142.9890   80.4192  219.1370 H   0  0  0  0  0  0  0  0  0  0  0  0
  1  2  2  0
  2  3  1  0
  3  4  2  0
  4  5  1  0
  5  6  1  0
  5  7  2  0
  7  8  1  0
  8  9  2  0
  9 10  1  0
 10 11  2  0
 11 12  1  0
 12 13  2  0
 13 14  1  0
 14 15  2  0
 15 16  1  0
 16 17  2  0
 17 18  1  0
 18 19  2  0
 11 20  1  0
 20 21  1  0
 21 22  1  0
 22 23  2  0
 23 24  1  0
 24 25  2  0
 25 26  1  0
 26 27  1  0
 26 28  2  0
 20  2  1  0
 28 22  1  0
  9  3  1  0
 19 14  1  0
  4 29  1  0
  7 30  1  0
  8 31  1  0
 12 32  1  0
 13 33  1  0
 15 34  1  0
 16 35  1  0
 17 36  1  0
 18 37  1  0
 19 38  1  0
 21 39  1  0
 21 40  1  0
 23 41  1  0
 24 42  1  0
 25 43  1  0
 27 44  1  0
 28 45  1  0
M  END
>  <smiles>  (11) 
O=c1c2cc(Cl)ccc2nc(/C=C/c2ccccc2)n1Cc1cccc(O)c1

>  <score_type>  (11) 
oracle

>  <origin>  (11) 
autodockgpu

>  <m_score__min__energy>  (11) 
-8.5099999999999998

>  <m_primary>  (11) 
energy

>  <rmsd>  (11) 
4.590933559681029

>  <m_score__min__rmsd>  (11) 
4.590933559681029

>  <meeko>  (11) 
{"free_energy": -7.23, "intermolecular_energy": -9.02, "internal_energy": -1.45, "cluster_size": 11, "cluster_id": 3, "rank_in_cluster": 1}

>  <energy>  (11) 
-8.04

>  <cluster_rmsd>  (11) 
1.25

>  <cluster>  (11) 
1

$$$$

     RDKit          3D

 45 48  0  0  0  0  0  0  0  0999 V2000
  143.0700   74.7090  220.6770 O   0  0  0  0  0  0  0  0  0  0  0  0
  141.9780   74.3960  221.2150 C   0  0  0  0  0  0  0  0  0  0  0  0
  141.0800   75.4040  221.4380 C   0  0  0  0  0  0  0  0  0  0  0  0
  141.3720   76.6970  221.0820 C   0  0  0  0  0  0  0  0  0  0  0  0
  140.4020   77.6580  221.3440 C   0  0  0  0  0  0  0  0  0  0  0  0
  140.7220   79.3160  220.9140 Cl  0  0  0  0  0  0  0  0  0  0  0  0
  139.2080   77.3030  221.9360 C   0  0  0  0  0  0  0  0  0  0  0  0
  138.9150   75.9920  222.2940 C   0  0  0  0  0  0  0  0  0  0  0  0
  139.8920   75.0600  222.0240 C   0  0  0  0  0  0  0  0  0  0  0  0
  139.6800   73.7990  222.3380 N   0  0  0  0  0  0  0  0  0  0  0  0
  140.5500   72.7680  222.1320 C   0  0  0  0  0  0  0  0  0  0  0  0
  140.1010   71.4910  222.6030 C   0  0  0  0  0  0  0  0  0  0  0  0
  139.3780   71.1390  223.6200 C   0  0  0  0  0  0  0  0  0  0  0  0
  139.9250   70.7690  224.9410 C   0  0  0  0  0  0  0  0  0  0  0  0
  139.8090   69.5210  225.4830 C   0  0  0  0  0  0  0  0  0  0  0  0
  140.3560   69.2520  226.7420 C   0  0  0  0  0  0  0  0  0  0  0  0
  141.0190   70.2160  227.4730 C   0  0  0  0  0  0  0  0  0  0  0  0
  141.1360   71.4720  226.9270 C   0  0  0  0  0  0  0  0  0  0  0  0
  140.5940   71.7200  225.6910 C   0  0  0  0  0  0  0  0  0  0  0  0
  141.7110   73.0820  221.5610 N   0  0  0  0  0  0  0  0  0  0  0  0
  142.7590   72.1700  221.2160 C   0  0  0  0  0  0  0  0  0  0  0  0
  143.1770   72.1740  219.8160 C   0  0  0  0  0  0  0  0  0  0  0  0
  142.4530   71.7760  218.7330 C   0  0  0  0  0  0  0  0  0  0  0  0
  142.9560   71.8040  217.4230 C   0  0  0  0  0  0  0  0  0  0  0  0
  144.2350   72.2470  217.1640 C   0  0  0  0  0  0  0  0  0  0  0  0
  144.9810   72.6550  218.2470 C   0  0  0  0  0  0  0  0  0  0  0  0
  146.2940   73.1160  218.0280 O   0  0  0  0  0  0  0  0  0  0  0  0
  144.4760   72.6210  219.5250 C   0  0  0  0  0  0  0  0  0  0  0  0
  142.3302   76.9610  220.6107 H   0  0  0  0  0  0  0  0  0  0  0  0
  138.4603   78.0857  222.1320 H   0  0  0  0  0  0  0  0  0  0  0  0
  137.9599   75.7158  222.7647 H   0  0  0  0  0  0  0  0  0  0  0  0
  140.4341   70.6466  221.9817 H   0  0  0  0  0  0  0  0  0  0  0  0
  138.2859   71.1143  223.4905 H   0  0  0  0  0  0  0  0  0  0  0  0
  139.2855   68.7274  224.9297 H   0  0  0  0  0  0  0  0  0  0  0  0
  140.2544   68.2405  227.1622 H   0  0  0  0  0  0  0  0  0  0  0  0
  141.4411   69.9865  228.4625 H   0  0  0  0  0  0  0  0  0  0  0  0
  141.6586   72.2699  227.4750 H   0  0  0  0  0  0  0  0  0  0  0  0
  140.6972   72.7321  225.2728 H   0  0  0  0  0  0  0  0  0  0  0  0
  143.6371   72.4187  221.8300 H   0  0  0  0  0  0  0  0  0  0  0  0
  142.3504   71.1655  221.4004 H   0  0  0  0  0  0  0  0  0  0  0  0
  141.4260   71.4158  218.8926 H   0  0  0  0  0  0  0  0  0  0  0  0
  142.3201   71.4675  216.5909 H   0  0  0  0  0  0  0  0  0  0  0  0
  144.6402   72.2734  216.1417 H   0  0  0  0  0  0  0  0  0  0  0  0
  146.4570   74.1260  218.1650 H   0  0  0  0  0  0  0  0  0  0  0  0
  145.1158   72.9578  220.3539 H   0  0  0  0  0  0  0  0  0  0  0  0
  1  2  2  0
  2  3  1  0
  3  4  2  0
  4  5  1  0
  5  6  1  0
  5  7  2  0
  7  8  1  0
  8  9  2  0
  9 10  1  0
 10 11  2  0
 11 12  1  0
 12 13  2  0
 13 14  1  0
 14 15  2  0
 15 16  1  0
 16 17  2  0
 17 18  1  0
 18 19  2  0
 11 20  1  0
 20 21  1  0
 21 22  1  0
 22 23  2  0
 23 24  1  0
 24 25  2  0
 25 26  1  0
 26 27  1  0
 26 28  2  0
 20  2  1  0
 28 22  1  0
  9  3  1  0
 19 14  1  0
  4 29  1  0
  7 30  1  0
  8 31  1  0
 12 32  1  0
 13 33  1  0
 15 34  1  0
 16 35  1  0
 17 36  1  0
 18 37  1  0
 19 38  1  0
 21 39  1  0
 21 40  1  0
 23 41  1  0
 24 42  1  0
 25 43  1  0
 27 44  1  0
 28 45  1  0
M  END
>  <smiles>  (12) 
O=c1c2cc(Cl)ccc2nc(/C=C/c2ccccc2)n1Cc1cccc(O)c1

>  <score_type>  (12) 
oracle

>  <origin>  (12) 
autodockgpu

>  <m_score__min__energy>  (12) 
-8.5099999999999998

>  <m_primary>  (12) 
energy

>  <rmsd>  (12) 
8.154052243300475

>  <m_score__min__rmsd>  (12) 
8.154052243300475

>  <meeko>  (12) 
{"free_energy": -7.88, "intermolecular_energy": -9.67, "internal_energy": -0.85, "cluster_size": 27, "cluster_id": 1, "rank_in_cluster": 19}

>  <energy>  (12) 
-8.01

>  <cluster_rmsd>  (12) 
1.53

>  <cluster>  (12) 
1

$$$$

     RDKit          3D

 45 48  0  0  0  0  0  0  0  0999 V2000
  142.0280   75.0130  218.6360 O   0  0  0  0  0  0  0  0  0  0  0  0
  141.5790   74.8260  219.7960 C   0  0  0  0  0  0  0  0  0  0  0  0
  141.3860   75.9330  220.5750 C   0  0  0  0  0  0  0  0  0  0  0  0
  141.6710   77.1880  220.0990 C   0  0  0  0  0  0  0  0  0  0  0  0
  141.4430   78.2570  220.9590 C   0  0  0  0  0  0  0  0  0  0  0  0
  141.7890   79.8720  220.4050 Cl  0  0  0  0  0  0  0  0  0  0  0  0
  140.9520   78.0390  222.2290 C   0  0  0  0  0  0  0  0  0  0  0  0
  140.6630   76.7670  222.7090 C   0  0  0  0  0  0  0  0  0  0  0  0
  140.8980   75.7270  221.8380 C   0  0  0  0  0  0  0  0  0  0  0  0
  140.6460   74.4940  222.2280 N   0  0  0  0  0  0  0  0  0  0  0  0
  140.8270   73.3670  221.4790 C   0  0  0  0  0  0  0  0  0  0  0  0
  140.5190   72.1380  222.1480 C   0  0  0  0  0  0  0  0  0  0  0  0
  139.6350   71.8270  223.0440 C   0  0  0  0  0  0  0  0  0  0  0  0
  139.9530   71.2330  224.3580 C   0  0  0  0  0  0  0  0  0  0  0  0
  140.7290   71.8500  225.2970 C   0  0  0  0  0  0  0  0  0  0  0  0
  140.9830   71.2180  226.5180 C   0  0  0  0  0  0  0  0  0  0  0  0
  140.4740   69.9720  226.8170 C   0  0  0  0  0  0  0  0  0  0  0  0
  139.6930   69.3510  225.8720 C   0  0  0  0  0  0  0  0  0  0  0  0
  139.4530   69.9840  224.6780 C   0  0  0  0  0  0  0  0  0  0  0  0
  141.2990   73.5480  220.2480 N   0  0  0  0  0  0  0  0  0  0  0  0
  141.5350   72.5270  219.2740 C   0  0  0  0  0  0  0  0  0  0  0  0
  142.8510   71.8900  219.3170 C   0  0  0  0  0  0  0  0  0  0  0  0
  143.1410   70.6090  219.6760 C   0  0  0  0  0  0  0  0  0  0  0  0
  144.4480   70.0970  219.7000 C   0  0  0  0  0  0  0  0  0  0  0  0
  145.5240   70.8850  219.3520 C   0  0  0  0  0  0  0  0  0  0  0  0
  145.2500   72.1830  218.9850 C   0  0  0  0  0  0  0  0  0  0  0  0
  146.3190   73.0240  218.6210 O   0  0  0  0  0  0  0  0  0  0  0  0
  143.9650   72.6720  218.9670 C   0  0  0  0  0  0  0  0  0  0  0  0
  142.0624   77.3418  219.0825 H   0  0  0  0  0  0  0  0  0  0  0  0
  140.7827   78.9042  222.8869 H   0  0  0  0  0  0  0  0  0  0  0  0
  140.2704   76.6013  223.7231 H   0  0  0  0  0  0  0  0  0  0  0  0
  141.1560   71.2949  221.8422 H   0  0  0  0  0  0  0  0  0  0  0  0
  138.5774   72.0184  222.8097 H   0  0  0  0  0  0  0  0  0  0  0  0
  141.1541   72.8438  225.0929 H   0  0  0  0  0  0  0  0  0  0  0  0
  141.6085   71.7309  227.2634 H   0  0  0  0  0  0  0  0  0  0  0  0
  140.6866   69.4897  227.7825 H   0  0  0  0  0  0  0  0  0  0  0  0
  139.2648   68.3574  226.0704 H   0  0  0  0  0  0  0  0  0  0  0  0
  138.8278   69.4689  223.9338 H   0  0  0  0  0  0  0  0  0  0  0  0
  140.7770   71.7430  219.4182 H   0  0  0  0  0  0  0  0  0  0  0  0
  141.4820   73.0313  218.2978 H   0  0  0  0  0  0  0  0  0  0  0  0
  142.3123   69.9440  219.9606 H   0  0  0  0  0  0  0  0  0  0  0  0
  144.6157   69.0523  220.0007 H   0  0  0  0  0  0  0  0  0  0  0  0
  146.5525   70.4952  219.3669 H   0  0  0  0  0  0  0  0  0  0  0  0
  146.1330   74.0380  218.6330 H   0  0  0  0  0  0  0  0  0  0  0  0
  143.8024   73.7176  218.6665 H   0  0  0  0  0  0  0  0  0  0  0  0
  1  2  2  0
  2  3  1  0
  3  4  2  0
  4  5  1  0
  5  6  1  0
  5  7  2  0
  7  8  1  0
  8  9  2  0
  9 10  1  0
 10 11  2  0
 11 12  1  0
 12 13  2  0
 13 14  1  0
 14 15  2  0
 15 16  1  0
 16 17  2  0
 17 18  1  0
 18 19  2  0
 11 20  1  0
 20 21  1  0
 21 22  1  0
 22 23  2  0
 23 24  1  0
 24 25  2  0
 25 26  1  0
 26 27  1  0
 26 28  2  0
 20  2  1  0
 28 22  1  0
  9  3  1  0
 19 14  1  0
  4 29  1  0
  7 30  1  0
  8 31  1  0
 12 32  1  0
 13 33  1  0
 15 34  1  0
 16 35  1  0
 17 36  1  0
 18 37  1  0
 19 38  1  0
 21 39  1  0
 21 40  1  0
 23 41  1  0
 24 42  1  0
 25 43  1  0
 27 44  1  0
 28 45  1  0
M  END
>  <smiles>  (13) 
O=c1c2cc(Cl)ccc2nc(/C=C/c2ccccc2)n1Cc1cccc(O)c1

>  <score_type>  (13) 
oracle

>  <origin>  (13) 
autodockgpu

>  <m_score__min__energy>  (13) 
-8.5099999999999998

>  <m_primary>  (13) 
energy

>  <rmsd>  (13) 
8.733079425081183

>  <m_score__min__rmsd>  (13) 
8.733079425081183

>  <meeko>  (13) 
{"free_energy": -8.06, "intermolecular_energy": -9.85, "internal_energy": -1.0, "cluster_size": 27, "cluster_id": 1, "rank_in_cluster": 8}

>  <energy>  (13) 
-7.99

>  <cluster_rmsd>  (13) 
1.25

>  <cluster>  (13) 
1

$$$$

     RDKit          3D

 45 48  0  0  0  0  0  0  0  0999 V2000
  142.8370   76.6710  219.4390 O   0  0  0  0  0  0  0  0  0  0  0  0
  142.0000   76.3000  220.3010 C   0  0  0  0  0  0  0  0  0  0  0  0
  141.4460   77.2710  221.0900 C   0  0  0  0  0  0  0  0  0  0  0  0
  141.7950   78.5880  220.9350 C   0  0  0  0  0  0  0  0  0  0  0  0
  141.1820   79.5080  221.7780 C   0  0  0  0  0  0  0  0  0  0  0  0
  141.5900   81.1950  221.6250 Cl  0  0  0  0  0  0  0  0  0  0  0  0
  140.2660   79.0890  222.7210 C   0  0  0  0  0  0  0  0  0  0  0  0
  139.9130   77.7530  222.8760 C   0  0  0  0  0  0  0  0  0  0  0  0
  140.5350   76.8640  222.0280 C   0  0  0  0  0  0  0  0  0  0  0  0
  140.2470   75.5820  222.1210 N   0  0  0  0  0  0  0  0  0  0  0  0
  140.7800   74.5870  221.3520 C   0  0  0  0  0  0  0  0  0  0  0  0
  140.3350   73.2640  221.6790 C   0  0  0  0  0  0  0  0  0  0  0  0
  140.8970   72.2850  222.3160 C   0  0  0  0  0  0  0  0  0  0  0  0
  140.2470   71.5110  223.3930 C   0  0  0  0  0  0  0  0  0  0  0  0
  140.7010   71.4820  224.6800 C   0  0  0  0  0  0  0  0  0  0  0  0
  140.0260   70.7220  225.6420 C   0  0  0  0  0  0  0  0  0  0  0  0
  138.9010   69.9860  225.3350 C   0  0  0  0  0  0  0  0  0  0  0  0
  138.4450   70.0150  224.0390 C   0  0  0  0  0  0  0  0  0  0  0  0
  139.1180   70.7650  223.1070 C   0  0  0  0  0  0  0  0  0  0  0  0
  141.6660   74.9620  220.4330 N   0  0  0  0  0  0  0  0  0  0  0  0
  142.3270   74.1080  219.4950 C   0  0  0  0  0  0  0  0  0  0  0  0
  143.6700   73.6670  219.8640 C   0  0  0  0  0  0  0  0  0  0  0  0
  144.4790   74.1880  220.8280 C   0  0  0  0  0  0  0  0  0  0  0  0
  145.7680   73.6980  221.0950 C   0  0  0  0  0  0  0  0  0  0  0  0
  146.2860   72.6420  220.3780 C   0  0  0  0  0  0  0  0  0  0  0  0
  145.4820   72.1000  219.4010 C   0  0  0  0  0  0  0  0  0  0  0  0
  145.9720   71.0180  218.6440 O   0  0  0  0  0  0  0  0  0  0  0  0
  144.2230   72.5900  219.1490 C   0  0  0  0  0  0  0  0  0  0  0  0
  142.5276   78.9026  220.1772 H   0  0  0  0  0  0  0  0  0  0  0  0
  139.7976   79.8397  223.3744 H   0  0  0  0  0  0  0  0  0  0  0  0
  139.1816   77.4262  223.6299 H   0  0  0  0  0  0  0  0  0  0  0  0
  139.3207   73.0356  221.3199 H   0  0  0  0  0  0  0  0  0  0  0  0
  141.9254   72.0128  222.0362 H   0  0  0  0  0  0  0  0  0  0  0  0
  141.5967   72.0555  224.9608 H   0  0  0  0  0  0  0  0  0  0  0  0
  140.4045   70.7114  226.6748 H   0  0  0  0  0  0  0  0  0  0  0  0
  138.3842   69.3935  226.1043 H   0  0  0  0  0  0  0  0  0  0  0  0
  137.5503   69.4433  223.7516 H   0  0  0  0  0  0  0  0  0  0  0  0
  138.7381   70.7732  222.0747 H   0  0  0  0  0  0  0  0  0  0  0  0
  141.7041   73.2115  219.3595 H   0  0  0  0  0  0  0  0  0  0  0  0
  142.4536   74.7112  218.5839 H   0  0  0  0  0  0  0  0  0  0  0  0
  144.1052   75.0324  221.4257 H   0  0  0  0  0  0  0  0  0  0  0  0
  146.3721   74.1639  221.8875 H   0  0  0  0  0  0  0  0  0  0  0  0
  147.2945   72.2504  220.5768 H   0  0  0  0  0  0  0  0  0  0  0  0
  145.2700   70.3590  218.2750 H   0  0  0  0  0  0  0  0  0  0  0  0
  143.6233   72.1204  218.3554 H   0  0  0  0  0  0  0  0  0  0  0  0
  1  2  2  0
  2  3  1  0
  3  4  2  0
  4  5  1  0
  5  6  1  0
  5  7  2  0
  7  8  1  0
  8  9  2  0
  9 10  1  0
 10 11  2  0
 11 12  1  0
 12 13  2  0
 13 14  1  0
 14 15  2  0
 15 16  1  0
 16 17  2  0
 17 18  1  0
 18 19  2  0
 11 20  1  0
 20 21  1  0
 21 22  1  0
 22 23  2  0
 23 24  1  0
 24 25  2  0
 25 26  1  0
 26 27  1  0
 26 28  2  0
 20  2  1  0
 28 22  1  0
  9  3  1  0
 19 14  1  0
  4 29  1  0
  7 30  1  0
  8 31  1  0
 12 32  1  0
 13 33  1  0
 15 34  1  0
 16 35  1  0
 17 36  1  0
 18 37  1  0
 19 38  1  0
 21 39  1  0
 21 40  1  0
 23 41  1  0
 24 42  1  0
 25 43  1  0
 27 44  1  0
 28 45  1  0
M  END
>  <smiles>  (14) 
O=c1c2cc(Cl)ccc2nc(/C=C/c2ccccc2)n1Cc1cccc(O)c1

>  <score_type>  (14) 
oracle

>  <origin>  (14) 
autodockgpu

>  <m_score__min__energy>  (14) 
-8.5099999999999998

>  <m_primary>  (14) 
energy

>  <rmsd>  (14) 
7.913206707843402

>  <m_score__min__rmsd>  (14) 
7.913206707843402

>  <meeko>  (14) 
{"free_energy": -7.68, "intermolecular_energy": -9.47, "internal_energy": -1.05, "cluster_size": 27, "cluster_id": 1, "rank_in_cluster": 24}

>  <energy>  (14) 
-7.96

>  <cluster_rmsd>  (14) 
1.25

>  <cluster>  (14) 
1

$$$$

     RDKit          3D

 45 48  0  0  0  0  0  0  0  0999 V2000
  142.5600   77.2050  216.9580 O   0  0  0  0  0  0  0  0  0  0  0  0
  142.2100   77.7160  218.0530 C   0  0  0  0  0  0  0  0  0  0  0  0
  142.1990   79.0820  218.1280 C   0  0  0  0  0  0  0  0  0  0  0  0
  142.5550   79.8500  217.0480 C   0  0  0  0  0  0  0  0  0  0  0  0
  142.5140   81.2290  217.2130 C   0  0  0  0  0  0  0  0  0  0  0  0
  142.9570   82.2520  215.8730 Cl  0  0  0  0  0  0  0  0  0  0  0  0
  142.1290   81.7780  218.4190 C   0  0  0  0  0  0  0  0  0  0  0  0
  141.7680   80.9980  219.5110 C   0  0  0  0  0  0  0  0  0  0  0  0
  141.8180   79.6350  219.3210 C   0  0  0  0  0  0  0  0  0  0  0  0
  141.4890   78.8370  220.3160 N   0  0  0  0  0  0  0  0  0  0  0  0
  141.4880   77.4720  220.2770 C   0  0  0  0  0  0  0  0  0  0  0  0
  141.1310   76.8300  221.5080 C   0  0  0  0  0  0  0  0  0  0  0  0
  141.0150   77.2700  222.7220 C   0  0  0  0  0  0  0  0  0  0  0  0
  141.2770   78.6640  223.1300 C   0  0  0  0  0  0  0  0  0  0  0  0
  140.2930   79.5490  223.4670 C   0  0  0  0  0  0  0  0  0  0  0  0
  140.6250   80.8550  223.8430 C   0  0  0  0  0  0  0  0  0  0  0  0
  141.9320   81.2920  223.8880 C   0  0  0  0  0  0  0  0  0  0  0  0
  142.9230   80.4010  223.5500 C   0  0  0  0  0  0  0  0  0  0  0  0
  142.5800   79.1240  223.1820 C   0  0  0  0  0  0  0  0  0  0  0  0
  141.8550   76.9150  219.1250 N   0  0  0  0  0  0  0  0  0  0  0  0
  141.8980   75.5140  218.8380 C   0  0  0  0  0  0  0  0  0  0  0  0
  143.0420   74.7830  219.3780 C   0  0  0  0  0  0  0  0  0  0  0  0
  143.2610   74.4250  220.6730 C   0  0  0  0  0  0  0  0  0  0  0  0
  144.4080   73.7330  221.0940 C   0  0  0  0  0  0  0  0  0  0  0  0
  145.3890   73.3750  220.1950 C   0  0  0  0  0  0  0  0  0  0  0  0
  145.1840   73.7270  218.8800 C   0  0  0  0  0  0  0  0  0  0  0  0
  146.1610   73.3800  217.9260 O   0  0  0  0  0  0  0  0  0  0  0  0
  144.0560   74.4050  218.4820 C   0  0  0  0  0  0  0  0  0  0  0  0
  142.8592   79.3943  216.0942 H   0  0  0  0  0  0  0  0  0  0  0  0
  142.1070   82.8732  218.5197 H   0  0  0  0  0  0  0  0  0  0  0  0
  141.4609   81.4425  220.4692 H   0  0  0  0  0  0  0  0  0  0  0  0
  140.9135   75.7569  221.4021 H   0  0  0  0  0  0  0  0  0  0  0  0
  140.7007   76.5576  223.4990 H   0  0  0  0  0  0  0  0  0  0  0  0
  139.2391   79.2349  223.4428 H   0  0  0  0  0  0  0  0  0  0  0  0
  139.8192   81.5542  224.1108 H   0  0  0  0  0  0  0  0  0  0  0  0
  142.1746   82.3229  224.1855 H   0  0  0  0  0  0  0  0  0  0  0  0
  143.9790   80.7081  223.5742 H   0  0  0  0  0  0  0  0  0  0  0  0
  143.3874   78.4270  222.9132 H   0  0  0  0  0  0  0  0  0  0  0  0
  140.9843   75.0587  219.2476 H   0  0  0  0  0  0  0  0  0  0  0  0
  141.9882   75.4386  217.7443 H   0  0  0  0  0  0  0  0  0  0  0  0
  142.5036   74.6904  221.4252 H   0  0  0  0  0  0  0  0  0  0  0  0
  144.5251   73.4730  222.1564 H   0  0  0  0  0  0  0  0  0  0  0  0
  146.2925   72.8340  220.5128 H   0  0  0  0  0  0  0  0  0  0  0  0
  146.6640   74.1600  217.4780 H   0  0  0  0  0  0  0  0  0  0  0  0
  143.9428   74.6620  217.4184 H   0  0  0  0  0  0  0  0  0  0  0  0
  1  2  2  0
  2  3  1  0
  3  4  2  0
  4  5  1  0
  5  6  1  0
  5  7  2  0
  7  8  1  0
  8  9  2  0
  9 10  1  0
 10 11  2  0
 11 12  1  0
 12 13  2  0
 13 14  1  0
 14 15  2  0
 15 16  1  0
 16 17  2  0
 17 18  1  0
 18 19  2  0
 11 20  1  0
 20 21  1  0
 21 22  1  0
 22 23  2  0
 23 24  1  0
 24 25  2  0
 25 26  1  0
 26 27  1  0
 26 28  2  0
 20  2  1  0
 28 22  1  0
  9  3  1  0
 19 14  1  0
  4 29  1  0
  7 30  1  0
  8 31  1  0
 12 32  1  0
 13 33  1  0
 15 34  1  0
 16 35  1  0
 17 36  1  0
 18 37  1  0
 19 38  1  0
 21 39  1  0
 21 40  1  0
 23 41  1  0
 24 42  1  0
 25 43  1  0
 27 44  1  0
 28 45  1  0
M  END
>  <smiles>  (15) 
O=c1c2cc(Cl)ccc2nc(/C=C/c2ccccc2)n1Cc1cccc(O)c1

>  <score_type>  (15) 
oracle

>  <origin>  (15) 
autodockgpu

>  <m_score__min__energy>  (15) 
-8.5099999999999998

>  <m_primary>  (15) 
energy

>  <rmsd>  (15) 
7.3873017827465475

>  <m_score__min__rmsd>  (15) 
7.3873017827465475

>  <meeko>  (15) 
{"free_energy": -7.57, "intermolecular_energy": -9.36, "internal_energy": -1.38, "cluster_size": 3, "cluster_id": 2, "rank_in_cluster": 1}

>  <energy>  (15) 
-7.93

>  <cluster_rmsd>  (15) 
1.03

>  <cluster>  (15) 
1

$$$$

     RDKit          3D

 45 48  0  0  0  0  0  0  0  0999 V2000
  143.4140   77.0370  219.4350 O   0  0  0  0  0  0  0  0  0  0  0  0
  142.5370   76.3820  220.0540 C   0  0  0  0  0  0  0  0  0  0  0  0
  142.7880   75.0550  220.2720 C   0  0  0  0  0  0  0  0  0  0  0  0
  143.9510   74.4760  219.8310 C   0  0  0  0  0  0  0  0  0  0  0  0
  144.1240   73.1230  220.0960 C   0  0  0  0  0  0  0  0  0  0  0  0
  145.5830   72.3380  219.5560 Cl  0  0  0  0  0  0  0  0  0  0  0  0
  143.1540   72.4150  220.7760 C   0  0  0  0  0  0  0  0  0  0  0  0
  141.9770   73.0040  221.2230 C   0  0  0  0  0  0  0  0  0  0  0  0
  141.8310   74.3440  220.9460 C   0  0  0  0  0  0  0  0  0  0  0  0
  140.7390   74.9650  221.3420 N   0  0  0  0  0  0  0  0  0  0  0  0
  140.4550   76.2850  221.1420 C   0  0  0  0  0  0  0  0  0  0  0  0
  139.1770   76.7120  221.6310 C   0  0  0  0  0  0  0  0  0  0  0  0
  138.8210   77.3670  222.6920 C   0  0  0  0  0  0  0  0  0  0  0  0
  138.6200   78.8290  222.7390 C   0  0  0  0  0  0  0  0  0  0  0  0
  138.0630   79.5470  221.7200 C   0  0  0  0  0  0  0  0  0  0  0  0
  137.9070   80.9310  221.8440 C   0  0  0  0  0  0  0  0  0  0  0  0
  138.3010   81.6140  222.9760 C   0  0  0  0  0  0  0  0  0  0  0  0
  138.8610   80.8910  224.0010 C   0  0  0  0  0  0  0  0  0  0  0  0
  139.0080   79.5330  223.8650 C   0  0  0  0  0  0  0  0  0  0  0  0
  141.3730   76.9940  220.4900 N   0  0  0  0  0  0  0  0  0  0  0  0
  141.3130   78.3930  220.1960 C   0  0  0  0  0  0  0  0  0  0  0  0
  141.6610   79.2940  221.2920 C   0  0  0  0  0  0  0  0  0  0  0  0
  142.1830   78.9630  222.5050 C   0  0  0  0  0  0  0  0  0  0  0  0
  142.4690   79.9100  223.5010 C   0  0  0  0  0  0  0  0  0  0  0  0
  142.2280   81.2500  223.2940 C   0  0  0  0  0  0  0  0  0  0  0  0
  141.7010   81.6050  222.0730 C   0  0  0  0  0  0  0  0  0  0  0  0
  141.4400   82.9660  221.8180 O   0  0  0  0  0  0  0  0  0  0  0  0
  141.4260   80.6670  221.1060 C   0  0  0  0  0  0  0  0  0  0  0  0
  144.7131   75.0574  219.2913 H   0  0  0  0  0  0  0  0  0  0  0  0
  143.3184   71.3451  220.9715 H   0  0  0  0  0  0  0  0  0  0  0  0
  141.2087   72.4335  221.7654 H   0  0  0  0  0  0  0  0  0  0  0  0
  138.3360   76.4295  220.9807 H   0  0  0  0  0  0  0  0  0  0  0  0
  138.6580   76.7959  223.6179 H   0  0  0  0  0  0  0  0  0  0  0  0
  137.7370   79.0368  220.8016 H   0  0  0  0  0  0  0  0  0  0  0  0
  137.4559   81.4928  221.0128 H   0  0  0  0  0  0  0  0  0  0  0  0
  138.1708   82.7034  223.0553 H   0  0  0  0  0  0  0  0  0  0  0  0
  139.1885   81.3955  224.9220 H   0  0  0  0  0  0  0  0  0  0  0  0
  139.4594   78.9734  224.6976 H   0  0  0  0  0  0  0  0  0  0  0  0
  142.0050   78.5919  219.3644 H   0  0  0  0  0  0  0  0  0  0  0  0
  140.2582   78.6020  219.9643 H   0  0  0  0  0  0  0  0  0  0  0  0
  142.3905   77.9033  222.7146 H   0  0  0  0  0  0  0  0  0  0  0  0
  142.8916   79.5770  224.4604 H   0  0  0  0  0  0  0  0  0  0  0  0
  142.4463   82.0009  224.0676 H   0  0  0  0  0  0  0  0  0  0  0  0
  141.2120   83.2160  220.8440 H   0  0  0  0  0  0  0  0  0  0  0  0
  141.0049   81.0051  220.1477 H   0  0  0  0  0  0  0  0  0  0  0  0
  1  2  2  0
  2  3  1  0
  3  4  2  0
  4  5  1  0
  5  6  1  0
  5  7  2  0
  7  8  1  0
  8  9  2  0
  9 10  1  0
 10 11  2  0
 11 12  1  0
 12 13  2  0
 13 14  1  0
 14 15  2  0
 15 16  1  0
 16 17  2  0
 17 18  1  0
 18 19  2  0
 11 20  1  0
 20 21  1  0
 21 22  1  0
 22 23  2  0
 23 24  1  0
 24 25  2  0
 25 26  1  0
 26 27  1  0
 26 28  2  0
 20  2  1  0
 28 22  1  0
  9  3  1  0
 19 14  1  0
  4 29  1  0
  7 30  1  0
  8 31  1  0
 12 32  1  0
 13 33  1  0
 15 34  1  0
 16 35  1  0
 17 36  1  0
 18 37  1  0
 19 38  1  0
 21 39  1  0
 21 40  1  0
 23 41  1  0
 24 42  1  0
 25 43  1  0
 27 44  1  0
 28 45  1  0
M  END
>  <smiles>  (16) 
O=c1c2cc(Cl)ccc2nc(/C=C/c2ccccc2)n1Cc1cccc(O)c1

>  <score_type>  (16) 
oracle

>  <origin>  (16) 
autodockgpu

>  <m_score__min__energy>  (16) 
-8.5099999999999998

>  <m_primary>  (16) 
energy

>  <rmsd>  (16) 
4.002790366335116

>  <m_score__min__rmsd>  (16) 
4.002790366335116

>  <meeko>  (16) 
{"free_energy": -6.67, "intermolecular_energy": -8.46, "internal_energy": -2.03, "cluster_size": 11, "cluster_id": 3, "rank_in_cluster": 6}

>  <energy>  (16) 
-7.93

>  <cluster_rmsd>  (16) 
1.2

>  <cluster>  (16) 
1

$$$$

     RDKit          3D

 45 48  0  0  0  0  0  0  0  0999 V2000
  142.7930   76.6600  219.6010 O   0  0  0  0  0  0  0  0  0  0  0  0
  141.9550   76.3220  220.4760 C   0  0  0  0  0  0  0  0  0  0  0  0
  141.4430   77.3150  221.2650 C   0  0  0  0  0  0  0  0  0  0  0  0
  141.8340   78.6200  221.0970 C   0  0  0  0  0  0  0  0  0  0  0  0
  141.2620   79.5640  221.9420 C   0  0  0  0  0  0  0  0  0  0  0  0
  141.7240   81.2360  221.7720 Cl  0  0  0  0  0  0  0  0  0  0  0  0
  140.3460   79.1820  222.9000 C   0  0  0  0  0  0  0  0  0  0  0  0
  139.9510   77.8590  223.0670 C   0  0  0  0  0  0  0  0  0  0  0  0
  140.5330   76.9450  222.2180 C   0  0  0  0  0  0  0  0  0  0  0  0
  140.2030   75.6740  222.3220 N   0  0  0  0  0  0  0  0  0  0  0  0
  140.6930   74.6570  221.5540 C   0  0  0  0  0  0  0  0  0  0  0  0
  140.2090   73.3510  221.8940 C   0  0  0  0  0  0  0  0  0  0  0  0
  140.7960   72.3000  222.3750 C   0  0  0  0  0  0  0  0  0  0  0  0
  140.2740   71.4970  223.4990 C   0  0  0  0  0  0  0  0  0  0  0  0
  140.8180   71.5100  224.7520 C   0  0  0  0  0  0  0  0  0  0  0  0
  140.2630   70.7180  225.7630 C   0  0  0  0  0  0  0  0  0  0  0  0
  139.1680   69.9100  225.5410 C   0  0  0  0  0  0  0  0  0  0  0  0
  138.6210   69.8970  224.2810 C   0  0  0  0  0  0  0  0  0  0  0  0
  139.1770   70.6790  223.2990 C   0  0  0  0  0  0  0  0  0  0  0  0
  141.5790   74.9970  220.6210 N   0  0  0  0  0  0  0  0  0  0  0  0
  142.1990   74.1160  219.6800 C   0  0  0  0  0  0  0  0  0  0  0  0
  143.5930   73.7680  219.9490 C   0  0  0  0  0  0  0  0  0  0  0  0
  144.4340   74.3470  220.8490 C   0  0  0  0  0  0  0  0  0  0  0  0
  145.7690   73.9460  221.0190 C   0  0  0  0  0  0  0  0  0  0  0  0
  146.3020   72.9230  220.2670 C   0  0  0  0  0  0  0  0  0  0  0  0
  145.4660   72.3240  219.3520 C   0  0  0  0  0  0  0  0  0  0  0  0
  145.9710   71.2730  218.5620 O   0  0  0  0  0  0  0  0  0  0  0  0
  144.1620   72.7270  219.1950 C   0  0  0  0  0  0  0  0  0  0  0  0
  142.5670   78.9059  220.3283 H   0  0  0  0  0  0  0  0  0  0  0  0
  139.9123   79.9515  223.5555 H   0  0  0  0  0  0  0  0  0  0  0  0
  139.2180   77.5611  223.8312 H   0  0  0  0  0  0  0  0  0  0  0  0
  139.1328   73.2146  221.7117 H   0  0  0  0  0  0  0  0  0  0  0  0
  141.7450   71.9858  221.9159 H   0  0  0  0  0  0  0  0  0  0  0  0
  141.6919   72.1428  224.9660 H   0  0  0  0  0  0  0  0  0  0  0  0
  140.7141   70.7406  226.7660 H   0  0  0  0  0  0  0  0  0  0  0  0
  138.7452   69.2943  226.3486 H   0  0  0  0  0  0  0  0  0  0  0  0
  137.7467   69.2667  224.0611 H   0  0  0  0  0  0  0  0  0  0  0  0
  138.7244   70.6535  222.2967 H   0  0  0  0  0  0  0  0  0  0  0  0
  141.6173   73.1826  219.6592 H   0  0  0  0  0  0  0  0  0  0  0  0
  142.2090   74.6621  218.7252 H   0  0  0  0  0  0  0  0  0  0  0  0
  144.0498   75.1677  221.4726 H   0  0  0  0  0  0  0  0  0  0  0  0
  146.3978   74.4563  221.7634 H   0  0  0  0  0  0  0  0  0  0  0  0
  147.3461   72.5998  220.3915 H   0  0  0  0  0  0  0  0  0  0  0  0
  145.2880   70.7700  217.9750 H   0  0  0  0  0  0  0  0  0  0  0  0
  143.5376   72.2140  218.4487 H   0  0  0  0  0  0  0  0  0  0  0  0
  1  2  2  0
  2  3  1  0
  3  4  2  0
  4  5  1  0
  5  6  1  0
  5  7  2  0
  7  8  1  0
  8  9  2  0
  9 10  1  0
 10 11  2  0
 11 12  1  0
 12 13  2  0
 13 14  1  0
 14 15  2  0
 15 16  1  0
 16 17  2  0
 17 18  1  0
 18 19  2  0
 11 20  1  0
 20 21  1  0
 21 22  1  0
 22 23  2  0
 23 24  1  0
 24 25  2  0
 25 26  1  0
 26 27  1  0
 26 28  2  0
 20  2  1  0
 28 22  1  0
  9  3  1  0
 19 14  1  0
  4 29  1  0
  7 30  1  0
  8 31  1  0
 12 32  1  0
 13 33  1  0
 15 34  1  0
 16 35  1  0
 17 36  1  0
 18 37  1  0
 19 38  1  0
 21 39  1  0
 21 40  1  0
 23 41  1  0
 24 42  1  0
 25 43  1  0
 27 44  1  0
 28 45  1  0
M  END
>  <smiles>  (17) 
O=c1c2cc(Cl)ccc2nc(/C=C/c2ccccc2)n1Cc1cccc(O)c1

>  <score_type>  (17) 
oracle

>  <origin>  (17) 
autodockgpu

>  <m_score__min__energy>  (17) 
-8.5099999999999998

>  <m_primary>  (17) 
energy

>  <rmsd>  (17) 
7.844810517029172

>  <m_score__min__rmsd>  (17) 
7.844810517029172

>  <meeko>  (17) 
{"free_energy": -7.8, "intermolecular_energy": -9.59, "internal_energy": -1.0, "cluster_size": 27, "cluster_id": 1, "rank_in_cluster": 21}

>  <energy>  (17) 
-7.92

>  <cluster_rmsd>  (17) 
1.44

>  <cluster>  (17) 
1

$$$$

     RDKit          3D

 45 48  0  0  0  0  0  0  0  0999 V2000
  139.9780   74.6060  222.0190 O   0  0  0  0  0  0  0  0  0  0  0  0
  140.5210   75.5070  221.3290 C   0  0  0  0  0  0  0  0  0  0  0  0
  141.7240   75.2100  220.7500 C   0  0  0  0  0  0  0  0  0  0  0  0
  142.3010   73.9770  220.9200 C   0  0  0  0  0  0  0  0  0  0  0  0
  143.5240   73.7610  220.2950 C   0  0  0  0  0  0  0  0  0  0  0  0
  144.3020   72.2120  220.4790 Cl  0  0  0  0  0  0  0  0  0  0  0  0
  144.1100   74.7570  219.5420 C   0  0  0  0  0  0  0  0  0  0  0  0
  143.5220   76.0050  219.3700 C   0  0  0  0  0  0  0  0  0  0  0  0
  142.3120   76.1930  220.0000 C   0  0  0  0  0  0  0  0  0  0  0  0
  141.7000   77.3520  219.8790 N   0  0  0  0  0  0  0  0  0  0  0  0
  140.5010   77.6840  220.4420 C   0  0  0  0  0  0  0  0  0  0  0  0
  140.0660   79.0280  220.1970 C   0  0  0  0  0  0  0  0  0  0  0  0
  140.5370   80.1800  220.5620 C   0  0  0  0  0  0  0  0  0  0  0  0
  141.4260   80.3850  221.7230 C   0  0  0  0  0  0  0  0  0  0  0  0
  142.4980   79.5870  222.0030 C   0  0  0  0  0  0  0  0  0  0  0  0
  143.2910   79.8500  223.1250 C   0  0  0  0  0  0  0  0  0  0  0  0
  143.0290   80.9040  223.9750 C   0  0  0  0  0  0  0  0  0  0  0  0
  141.9510   81.7070  223.6930 C   0  0  0  0  0  0  0  0  0  0  0  0
  141.1820   81.4360  222.5890 C   0  0  0  0  0  0  0  0  0  0  0  0
  139.9120   76.7410  221.1740 N   0  0  0  0  0  0  0  0  0  0  0  0
  138.6440   76.8460  221.8280 C   0  0  0  0  0  0  0  0  0  0  0  0
  138.4380   78.0430  222.6410 C   0  0  0  0  0  0  0  0  0  0  0  0
  139.3350   78.6500  223.4660 C   0  0  0  0  0  0  0  0  0  0  0  0
  139.0310   79.7950  224.2200 C   0  0  0  0  0  0  0  0  0  0  0  0
  137.7810   80.3710  224.1590 C   0  0  0  0  0  0  0  0  0  0  0  0
  136.8600   79.7710  223.3290 C   0  0  0  0  0  0  0  0  0  0  0  0
  135.5700   80.3280  223.2360 O   0  0  0  0  0  0  0  0  0  0  0  0
  137.1720   78.6510  222.5970 C   0  0  0  0  0  0  0  0  0  0  0  0
  141.8178   73.1945  221.5236 H   0  0  0  0  0  0  0  0  0  0  0  0
  145.0782   74.5565  219.0599 H   0  0  0  0  0  0  0  0  0  0  0  0
  143.9947   76.7944  218.7672 H   0  0  0  0  0  0  0  0  0  0  0  0
  139.1575   79.0951  219.5805 H   0  0  0  0  0  0  0  0  0  0  0  0
  140.2558   81.0620  219.9678 H   0  0  0  0  0  0  0  0  0  0  0  0
  142.7380   78.7376  221.3465 H   0  0  0  0  0  0  0  0  0  0  0  0
  144.1500   79.1960  223.3358 H   0  0  0  0  0  0  0  0  0  0  0  0
  143.6642   81.0958  224.8523 H   0  0  0  0  0  0  0  0  0  0  0  0
  141.7065   82.5584  224.3452 H   0  0  0  0  0  0  0  0  0  0  0  0
  140.3233   82.0913  222.3810 H   0  0  0  0  0  0  0  0  0  0  0  0
  137.8634   76.8274  221.0532 H   0  0  0  0  0  0  0  0  0  0  0  0
  138.6024   76.0005  222.5304 H   0  0  0  0  0  0  0  0  0  0  0  0
  140.3457   78.2233  223.5457 H   0  0  0  0  0  0  0  0  0  0  0  0
  139.8014   80.2380  224.8682 H   0  0  0  0  0  0  0  0  0  0  0  0
  137.5304   81.2674  224.7452 H   0  0  0  0  0  0  0  0  0  0  0  0
  135.1820   80.7390  224.0990 H   0  0  0  0  0  0  0  0  0  0  0  0
  136.3986   78.2120  221.9496 H   0  0  0  0  0  0  0  0  0  0  0  0
  1  2  2  0
  2  3  1  0
  3  4  2  0
  4  5  1  0
  5  6  1  0
  5  7  2  0
  7  8  1  0
  8  9  2  0
  9 10  1  0
 10 11  2  0
 11 12  1  0
 12 13  2  0
 13 14  1  0
 14 15  2  0
 15 16  1  0
 16 17  2  0
 17 18  1  0
 18 19  2  0
 11 20  1  0
 20 21  1  0
 21 22  1  0
 22 23  2  0
 23 24  1  0
 24 25  2  0
 25 26  1  0
 26 27  1  0
 26 28  2  0
 20  2  1  0
 28 22  1  0
  9  3  1  0
 19 14  1  0
  4 29  1  0
  7 30  1  0
  8 31  1  0
 12 32  1  0
 13 33  1  0
 15 34  1  0
 16 35  1  0
 17 36  1  0
 18 37  1  0
 19 38  1  0
 21 39  1  0
 21 40  1  0
 23 41  1  0
 24 42  1  0
 25 43  1  0
 27 44  1  0
 28 45  1  0
M  END
>  <smiles>  (18) 
O=c1c2cc(Cl)ccc2nc(/C=C/c2ccccc2)n1Cc1cccc(O)c1

>  <score_type>  (18) 
oracle

>  <origin>  (18) 
autodockgpu

>  <m_score__min__energy>  (18) 
-8.5099999999999998

>  <m_primary>  (18) 
energy

>  <rmsd>  (18) 
4.05866230547999

>  <m_score__min__rmsd>  (18) 
4.05866230547999

>  <meeko>  (18) 
{"free_energy": -6.84, "intermolecular_energy": -8.63, "internal_energy": -1.75, "cluster_size": 3, "cluster_id": 5, "rank_in_cluster": 2}

>  <energy>  (18) 
-7.88

>  <cluster_rmsd>  (18) 
1.51

>  <cluster>  (18) 
1

$$$$

     RDKit          3D

 45 48  0  0  0  0  0  0  0  0999 V2000
  143.5000   76.9780  219.4150 O   0  0  0  0  0  0  0  0  0  0  0  0
  142.6130   76.3460  220.0420 C   0  0  0  0  0  0  0  0  0  0  0  0
  142.8360   75.0140  220.2650 C   0  0  0  0  0  0  0  0  0  0  0  0
  143.9830   74.4090  219.8190 C   0  0  0  0  0  0  0  0  0  0  0  0
  144.1280   73.0530  220.0890 C   0  0  0  0  0  0  0  0  0  0  0  0
  145.5660   72.2340  219.5440 Cl  0  0  0  0  0  0  0  0  0  0  0  0
  143.1470   72.3690  220.7780 C   0  0  0  0  0  0  0  0  0  0  0  0
  141.9860   72.9860  221.2300 C   0  0  0  0  0  0  0  0  0  0  0  0
  141.8680   74.3280  220.9480 C   0  0  0  0  0  0  0  0  0  0  0  0
  140.7920   74.9740  221.3470 N   0  0  0  0  0  0  0  0  0  0  0  0
  140.5360   76.3000  221.1430 C   0  0  0  0  0  0  0  0  0  0  0  0
  139.2700   76.7570  221.6380 C   0  0  0  0  0  0  0  0  0  0  0  0
  138.9320   77.3960  222.7140 C   0  0  0  0  0  0  0  0  0  0  0  0
  138.6760   78.8490  222.7740 C   0  0  0  0  0  0  0  0  0  0  0  0
  138.1350   79.5620  221.7420 C   0  0  0  0  0  0  0  0  0  0  0  0
  137.9250   80.9380  221.8790 C   0  0  0  0  0  0  0  0  0  0  0  0
  138.2490   81.6170  223.0360 C   0  0  0  0  0  0  0  0  0  0  0  0
  138.7930   80.8980  224.0730 C   0  0  0  0  0  0  0  0  0  0  0  0
  138.9940   79.5490  223.9240 C   0  0  0  0  0  0  0  0  0  0  0  0
  141.4650   76.9850  220.4820 N   0  0  0  0  0  0  0  0  0  0  0  0
  141.4340   78.3840  220.1820 C   0  0  0  0  0  0  0  0  0  0  0  0
  141.7230   79.2850  221.2960 C   0  0  0  0  0  0  0  0  0  0  0  0
  142.2090   78.9570  222.5240 C   0  0  0  0  0  0  0  0  0  0  0  0
  142.4380   79.9030  223.5360 C   0  0  0  0  0  0  0  0  0  0  0  0
  142.1760   81.2390  223.3280 C   0  0  0  0  0  0  0  0  0  0  0  0
  141.6850   81.5910  222.0910 C   0  0  0  0  0  0  0  0  0  0  0  0
  141.4040   82.9470  221.8350 O   0  0  0  0  0  0  0  0  0  0  0  0
  141.4650   80.6540  221.1100 C   0  0  0  0  0  0  0  0  0  0  0  0
  144.7539   74.9715  219.2720 H   0  0  0  0  0  0  0  0  0  0  0  0
  143.2889   71.2965  220.9768 H   0  0  0  0  0  0  0  0  0  0  0  0
  141.2087   72.4350  221.7797 H   0  0  0  0  0  0  0  0  0  0  0  0
  138.4229   76.5197  220.9776 H   0  0  0  0  0  0  0  0  0  0  0  0
  138.8291   76.8175  223.6439 H   0  0  0  0  0  0  0  0  0  0  0  0
  137.8648   79.0545  220.8042 H   0  0  0  0  0  0  0  0  0  0  0  0
  137.4879   81.4965  221.0382 H   0  0  0  0  0  0  0  0  0  0  0  0
  138.0771   82.6998  223.1253 H   0  0  0  0  0  0  0  0  0  0  0  0
  139.0648   81.3993  225.0137 H   0  0  0  0  0  0  0  0  0  0  0  0
  139.4324   78.9931  224.7659 H   0  0  0  0  0  0  0  0  0  0  0  0
  142.1763   78.5755  219.3931 H   0  0  0  0  0  0  0  0  0  0  0  0
  140.3968   78.6009  219.8867 H   0  0  0  0  0  0  0  0  0  0  0  0
  142.4331   77.9007  222.7338 H   0  0  0  0  0  0  0  0  0  0  0  0
  142.8321   79.5725  224.5083 H   0  0  0  0  0  0  0  0  0  0  0  0
  142.3508   81.9893  224.1132 H   0  0  0  0  0  0  0  0  0  0  0  0
  140.6430   83.1410  221.1660 H   0  0  0  0  0  0  0  0  0  0  0  0
  141.0708   80.9893  220.1393 H   0  0  0  0  0  0  0  0  0  0  0  0
  1  2  2  0
  2  3  1  0
  3  4  2  0
  4  5  1  0
  5  6  1  0
  5  7  2  0
  7  8  1  0
  8  9  2  0
  9 10  1  0
 10 11  2  0
 11 12  1  0
 12 13  2  0
 13 14  1  0
 14 15  2  0
 15 16  1  0
 16 17  2  0
 17 18  1  0
 18 19  2  0
 11 20  1  0
 20 21  1  0
 21 22  1  0
 22 23  2  0
 23 24  1  0
 24 25  2  0
 25 26  1  0
 26 27  1  0
 26 28  2  0
 20  2  1  0
 28 22  1  0
  9  3  1  0
 19 14  1  0
  4 29  1  0
  7 30  1  0
  8 31  1  0
 12 32  1  0
 13 33  1  0
 15 34  1  0
 16 35  1  0
 17 36  1  0
 18 37  1  0
 19 38  1  0
 21 39  1  0
 21 40  1  0
 23 41  1  0
 24 42  1  0
 25 43  1  0
 27 44  1  0
 28 45  1  0
M  END
>  <smiles>  (19) 
O=c1c2cc(Cl)ccc2nc(/C=C/c2ccccc2)n1Cc1cccc(O)c1

>  <score_type>  (19) 
oracle

>  <origin>  (19) 
autodockgpu

>  <m_score__min__energy>  (19) 
-8.5099999999999998

>  <m_primary>  (19) 
energy

>  <rmsd>  (19) 
4.020562942341068

>  <m_score__min__rmsd>  (19) 
4.020562942341068

>  <meeko>  (19) 
{"free_energy": -6.67, "intermolecular_energy": -8.46, "internal_energy": -2.03, "cluster_size": 11, "cluster_id": 3, "rank_in_cluster": 8}

>  <energy>  (19) 
-7.88

>  <cluster_rmsd>  (19) 
1.0

>  <cluster>  (19) 
1

$$$$

     RDKit          3D

 45 48  0  0  0  0  0  0  0  0999 V2000
  142.6030   75.8690  219.2550 O   0  0  0  0  0  0  0  0  0  0  0  0
  141.8220   75.6650  220.2190 C   0  0  0  0  0  0  0  0  0  0  0  0
  141.3970   76.7590  220.9200 C   0  0  0  0  0  0  0  0  0  0  0  0
  141.8110   78.0210  220.5750 C   0  0  0  0  0  0  0  0  0  0  0  0
  141.3290   79.0760  221.3410 C   0  0  0  0  0  0  0  0  0  0  0  0
  141.8240   80.7000  220.9460 Cl  0  0  0  0  0  0  0  0  0  0  0  0
  140.4730   78.8390  222.3970 C   0  0  0  0  0  0  0  0  0  0  0  0
  140.0540   77.5600  222.7440 C   0  0  0  0  0  0  0  0  0  0  0  0
  140.5470   76.5340  221.9700 C   0  0  0  0  0  0  0  0  0  0  0  0
  140.1900   75.2960  222.2440 N   0  0  0  0  0  0  0  0  0  0  0  0
  140.5940   74.1810  221.5670 C   0  0  0  0  0  0  0  0  0  0  0  0
  140.0990   72.9410  222.0900 C   0  0  0  0  0  0  0  0  0  0  0  0
  140.6950   71.8990  222.5800 C   0  0  0  0  0  0  0  0  0  0  0  0
  140.3490   71.2730  223.8720 C   0  0  0  0  0  0  0  0  0  0  0  0
  141.0140   71.5300  225.0370 C   0  0  0  0  0  0  0  0  0  0  0  0
  140.6220   70.8950  226.2200 C   0  0  0  0  0  0  0  0  0  0  0  0
  139.5720   70.0010  226.2570 C   0  0  0  0  0  0  0  0  0  0  0  0
  138.9030   69.7430  225.0850 C   0  0  0  0  0  0  0  0  0  0  0  0
  139.2990   70.3740  223.9330 C   0  0  0  0  0  0  0  0  0  0  0  0
  141.4200   74.3800  220.5430 N   0  0  0  0  0  0  0  0  0  0  0  0
  141.9450   73.3740  219.6710 C   0  0  0  0  0  0  0  0  0  0  0  0
  143.4020   73.2700  219.6160 C   0  0  0  0  0  0  0  0  0  0  0  0
  144.1860   73.1900  218.5060 C   0  0  0  0  0  0  0  0  0  0  0  0
  145.5850   73.0760  218.5620 C   0  0  0  0  0  0  0  0  0  0  0  0
  146.2440   73.0410  219.7700 C   0  0  0  0  0  0  0  0  0  0  0  0
  145.4680   73.1220  220.9040 C   0  0  0  0  0  0  0  0  0  0  0  0
  146.1010   73.0900  222.1620 O   0  0  0  0  0  0  0  0  0  0  0  0
  144.0990   73.2330  220.8350 C   0  0  0  0  0  0  0  0  0  0  0  0
  142.4941   78.1903  219.7296 H   0  0  0  0  0  0  0  0  0  0  0  0
  140.1088   79.6938  222.9859 H   0  0  0  0  0  0  0  0  0  0  0  0
  139.3699   77.3787  223.5861 H   0  0  0  0  0  0  0  0  0  0  0  0
  139.0023   72.8578  222.0720 H   0  0  0  0  0  0  0  0  0  0  0  0
  141.5121   71.4519  221.9949 H   0  0  0  0  0  0  0  0  0  0  0  0
  141.8575   72.2360  225.0449 H   0  0  0  0  0  0  0  0  0  0  0  0
  141.1677   71.1152  227.1494 H   0  0  0  0  0  0  0  0  0  0  0  0
  139.2792   69.5095  227.1965 H   0  0  0  0  0  0  0  0  0  0  0  0
  138.0588   69.0379  225.0705 H   0  0  0  0  0  0  0  0  0  0  0  0
  138.7508   70.1527  223.0054 H   0  0  0  0  0  0  0  0  0  0  0  0
  141.5506   72.4021  220.0025 H   0  0  0  0  0  0  0  0  0  0  0  0
  141.6303   73.6660  218.6582 H   0  0  0  0  0  0  0  0  0  0  0  0
  143.7013   73.2158  217.5189 H   0  0  0  0  0  0  0  0  0  0  0  0
  146.1619   73.0138  217.6275 H   0  0  0  0  0  0  0  0  0  0  0  0
  147.3390   72.9525  219.8265 H   0  0  0  0  0  0  0  0  0  0  0  0
  145.9820   72.2280  222.7160 H   0  0  0  0  0  0  0  0  0  0  0  0
  143.5267   73.2953  221.7723 H   0  0  0  0  0  0  0  0  0  0  0  0
  1  2  2  0
  2  3  1  0
  3  4  2  0
  4  5  1  0
  5  6  1  0
  5  7  2  0
  7  8  1  0
  8  9  2  0
  9 10  1  0
 10 11  2  0
 11 12  1  0
 12 13  2  0
 13 14  1  0
 14 15  2  0
 15 16  1  0
 16 17  2  0
 17 18  1  0
 18 19  2  0
 11 20  1  0
 20 21  1  0
 21 22  1  0
 22 23  2  0
 23 24  1  0
 24 25  2  0
 25 26  1  0
 26 27  1  0
 26 28  2  0
 20  2  1  0
 28 22  1  0
  9  3  1  0
 19 14  1  0
  4 29  1  0
  7 30  1  0
  8 31  1  0
 12 32  1  0
 13 33  1  0
 15 34  1  0
 16 35  1  0
 17 36  1  0
 18 37  1  0
 19 38  1  0
 21 39  1  0
 21 40  1  0
 23 41  1  0
 24 42  1  0
 25 43  1  0
 27 44  1  0
 28 45  1  0
M  END
>  <smiles>  (20) 
O=c1c2cc(Cl)ccc2nc(/C=C/c2ccccc2)n1Cc1cccc(O)c1

>  <score_type>  (20) 
oracle

>  <origin>  (20) 
autodockgpu

>  <m_score__min__energy>  (20) 
-8.5099999999999998

>  <m_primary>  (20) 
energy

>  <rmsd>  (20) 
8.011048196245008

>  <m_score__min__rmsd>  (20) 
8.011048196245008

>  <meeko>  (20) 
{"free_energy": -7.74, "intermolecular_energy": -9.53, "internal_energy": -0.94, "cluster_size": 27, "cluster_id": 1, "rank_in_cluster": 22}

>  <energy>  (20) 
-7.85

>  <cluster_rmsd>  (20) 
1.49

>  <cluster>  (20) 
1

$$$$

     RDKit          3D

 45 48  0  0  0  0  0  0  0  0999 V2000
  141.9720   74.9760  218.6310 O   0  0  0  0  0  0  0  0  0  0  0  0
  141.5640   74.8080  219.8090 C   0  0  0  0  0  0  0  0  0  0  0  0
  141.3840   75.9290  220.5720 C   0  0  0  0  0  0  0  0  0  0  0  0
  141.6400   77.1770  220.0620 C   0  0  0  0  0  0  0  0  0  0  0  0
  141.4300   78.2600  220.9070 C   0  0  0  0  0  0  0  0  0  0  0  0
  141.7400   79.8680  220.3100 Cl  0  0  0  0  0  0  0  0  0  0  0  0
  140.9830   78.0630  222.1980 C   0  0  0  0  0  0  0  0  0  0  0  0
  140.7230   76.7980  222.7120 C   0  0  0  0  0  0  0  0  0  0  0  0
  140.9400   75.7430  221.8540 C   0  0  0  0  0  0  0  0  0  0  0  0
  140.7140   74.5160  222.2770 N   0  0  0  0  0  0  0  0  0  0  0  0
  140.8820   73.3760  221.5440 C   0  0  0  0  0  0  0  0  0  0  0  0
  140.6100   72.1570  222.2480 C   0  0  0  0  0  0  0  0  0  0  0  0
  139.6730   71.8170  223.0770 C   0  0  0  0  0  0  0  0  0  0  0  0
  139.9130   71.2130  224.4020 C   0  0  0  0  0  0  0  0  0  0  0  0
  139.3660   70.0280  224.8020 C   0  0  0  0  0  0  0  0  0  0  0  0
  139.6440   69.5230  226.0760 C   0  0  0  0  0  0  0  0  0  0  0  0
  140.4640   70.1890  226.9630 C   0  0  0  0  0  0  0  0  0  0  0  0
  141.0150   71.3830  226.5610 C   0  0  0  0  0  0  0  0  0  0  0  0
  140.7320   71.8640  225.3080 C   0  0  0  0  0  0  0  0  0  0  0  0
  141.3120   73.5360  220.2950 N   0  0  0  0  0  0  0  0  0  0  0  0
  141.5270   72.4980  219.3340 C   0  0  0  0  0  0  0  0  0  0  0  0
  142.8450   71.8670  219.3560 C   0  0  0  0  0  0  0  0  0  0  0  0
  143.1420   70.5790  219.6820 C   0  0  0  0  0  0  0  0  0  0  0  0
  144.4520   70.0720  219.6870 C   0  0  0  0  0  0  0  0  0  0  0  0
  145.5220   70.8720  219.3540 C   0  0  0  0  0  0  0  0  0  0  0  0
  145.2410   72.1780  219.0200 C   0  0  0  0  0  0  0  0  0  0  0  0
  146.3060   73.0320  218.6730 O   0  0  0  0  0  0  0  0  0  0  0  0
  143.9540   72.6610  219.0200 C   0  0  0  0  0  0  0  0  0  0  0  0
  141.9956   77.3140  219.0301 H   0  0  0  0  0  0  0  0  0  0  0  0
  140.8268   78.9396  222.8439 H   0  0  0  0  0  0  0  0  0  0  0  0
  140.3656   76.6487  223.7416 H   0  0  0  0  0  0  0  0  0  0  0  0
  141.3362   71.3559  222.0458 H   0  0  0  0  0  0  0  0  0  0  0  0
  138.6302   71.9902  222.7727 H   0  0  0  0  0  0  0  0  0  0  0  0
  138.7060   69.4699  224.1216 H   0  0  0  0  0  0  0  0  0  0  0  0
  139.1952   68.5658  226.3800 H   0  0  0  0  0  0  0  0  0  0  0  0
  140.6709   69.7773  227.9619 H   0  0  0  0  0  0  0  0  0  0  0  0
  141.6754   71.9462  227.2368 H   0  0  0  0  0  0  0  0  0  0  0  0
  141.1815   72.8215  225.0061 H   0  0  0  0  0  0  0  0  0  0  0  0
  140.7758   71.7143  219.5115 H   0  0  0  0  0  0  0  0  0  0  0  0
  141.4474   72.9837  218.3503 H   0  0  0  0  0  0  0  0  0  0  0  0
  142.3175   69.9037  219.9543 H   0  0  0  0  0  0  0  0  0  0  0  0
  144.6255   69.0208  219.9608 H   0  0  0  0  0  0  0  0  0  0  0  0
  146.5522   70.4863  219.3547 H   0  0  0  0  0  0  0  0  0  0  0  0
  146.0990   74.0420  218.6530 H   0  0  0  0  0  0  0  0  0  0  0  0
  143.7856   73.7128  218.7455 H   0  0  0  0  0  0  0  0  0  0  0  0
  1  2  2  0
  2  3  1  0
  3  4  2  0
  4  5  1  0
  5  6  1  0
  5  7  2  0
  7  8  1  0
  8  9  2  0
  9 10  1  0
 10 11  2  0
 11 12  1  0
 12 13  2  0
 13 14  1  0
 14 15  2  0
 15 16  1  0
 16 17  2  0
 17 18  1  0
 18 19  2  0
 11 20  1  0
 20 21  1  0
 21 22  1  0
 22 23  2  0
 23 24  1  0
 24 25  2  0
 25 26  1  0
 26 27  1  0
 26 28  2  0
 20  2  1  0
 28 22  1  0
  9  3  1  0
 19 14  1  0
  4 29  1  0
  7 30  1  0
  8 31  1  0
 12 32  1  0
 13 33  1  0
 15 34  1  0
 16 35  1  0
 17 36  1  0
 18 37  1  0
 19 38  1  0
 21 39  1  0
 21 40  1  0
 23 41  1  0
 24 42  1  0
 25 43  1  0
 27 44  1  0
 28 45  1  0
M  END
>  <smiles>  (21) 
O=c1c2cc(Cl)ccc2nc(/C=C/c2ccccc2)n1Cc1cccc(O)c1

>  <score_type>  (21) 
oracle

>  <origin>  (21) 
autodockgpu

>  <m_score__min__energy>  (21) 
-8.5099999999999998

>  <m_primary>  (21) 
energy

>  <rmsd>  (21) 
8.742430911290933

>  <m_score__min__rmsd>  (21) 
8.742430911290933

>  <meeko>  (21) 
{"free_energy": -8.05, "intermolecular_energy": -9.84, "internal_energy": -1.0, "cluster_size": 27, "cluster_id": 1, "rank_in_cluster": 10}

>  <energy>  (21) 
-7.8

>  <cluster_rmsd>  (21) 
1.6

>  <cluster>  (21) 
1

$$$$

     RDKit          3D

 45 48  0  0  0  0  0  0  0  0999 V2000
  142.6580   76.7100  219.4700 O   0  0  0  0  0  0  0  0  0  0  0  0
  141.8600   76.4020  220.3910 C   0  0  0  0  0  0  0  0  0  0  0  0
  141.4110   77.4150  221.1930 C   0  0  0  0  0  0  0  0  0  0  0  0
  141.8200   78.7080  220.9880 C   0  0  0  0  0  0  0  0  0  0  0  0
  141.3130   79.6750  221.8500 C   0  0  0  0  0  0  0  0  0  0  0  0
  141.8020   81.3340  221.6350 Cl  0  0  0  0  0  0  0  0  0  0  0  0
  140.4390   79.3240  222.8570 C   0  0  0  0  0  0  0  0  0  0  0  0
  140.0240   78.0130  223.0610 C   0  0  0  0  0  0  0  0  0  0  0  0
  140.5420   77.0760  222.1950 C   0  0  0  0  0  0  0  0  0  0  0  0
  140.1910   75.8140  222.3320 N   0  0  0  0  0  0  0  0  0  0  0  0
  140.6180   74.7780  221.5530 C   0  0  0  0  0  0  0  0  0  0  0  0
  140.1240   73.4870  221.9340 C   0  0  0  0  0  0  0  0  0  0  0  0
  140.7160   72.4150  222.3600 C   0  0  0  0  0  0  0  0  0  0  0  0
  140.2170   71.5710  223.4640 C   0  0  0  0  0  0  0  0  0  0  0  0
  140.8050   71.5160  224.6950 C   0  0  0  0  0  0  0  0  0  0  0  0
  140.2690   70.6890  225.6890 C   0  0  0  0  0  0  0  0  0  0  0  0
  139.1500   69.9130  225.4690 C   0  0  0  0  0  0  0  0  0  0  0  0
  138.5590   69.9690  224.2300 C   0  0  0  0  0  0  0  0  0  0  0  0
  139.0960   70.7850  223.2660 C   0  0  0  0  0  0  0  0  0  0  0  0
  141.4620   75.0870  220.5720 N   0  0  0  0  0  0  0  0  0  0  0  0
  142.0140   74.1810  219.6120 C   0  0  0  0  0  0  0  0  0  0  0  0
  143.4220   73.8310  219.7950 C   0  0  0  0  0  0  0  0  0  0  0  0
  144.2200   74.1330  220.8550 C   0  0  0  0  0  0  0  0  0  0  0  0
  145.5720   73.7610  220.9270 C   0  0  0  0  0  0  0  0  0  0  0  0
  146.1680   73.0550  219.9050 C   0  0  0  0  0  0  0  0  0  0  0  0
  145.3750   72.7390  218.8240 C   0  0  0  0  0  0  0  0  0  0  0  0
  145.9430   72.0170  217.7570 O   0  0  0  0  0  0  0  0  0  0  0  0
  144.0530   73.1100  218.7670 C   0  0  0  0  0  0  0  0  0  0  0  0
  142.5176   78.9686  220.1784 H   0  0  0  0  0  0  0  0  0  0  0  0
  140.0559   80.1106  223.5237 H   0  0  0  0  0  0  0  0  0  0  0  0
  139.3245   77.7407  223.8651 H   0  0  0  0  0  0  0  0  0  0  0  0
  139.0319   73.3867  221.8484 H   0  0  0  0  0  0  0  0  0  0  0  0
  141.6519   72.1144  221.8663 H   0  0  0  0  0  0  0  0  0  0  0  0
  141.6992   72.1211  224.9055 H   0  0  0  0  0  0  0  0  0  0  0  0
  140.7548   70.6569  226.6754 H   0  0  0  0  0  0  0  0  0  0  0  0
  138.7429   69.2685  226.2620 H   0  0  0  0  0  0  0  0  0  0  0  0
  137.6649   69.3662  224.0129 H   0  0  0  0  0  0  0  0  0  0  0  0
  138.6077   70.8158  222.2808 H   0  0  0  0  0  0  0  0  0  0  0  0
  141.4283   73.2508  219.6518 H   0  0  0  0  0  0  0  0  0  0  0  0
  141.9623   74.7052  218.6463 H   0  0  0  0  0  0  0  0  0  0  0  0
  143.7855   74.6949  221.6949 H   0  0  0  0  0  0  0  0  0  0  0  0
  146.1639   74.0372  221.8121 H   0  0  0  0  0  0  0  0  0  0  0  0
  147.2262   72.7580  219.9501 H   0  0  0  0  0  0  0  0  0  0  0  0
  145.2880   71.6480  217.0500 H   0  0  0  0  0  0  0  0  0  0  0  0
  143.4646   72.8312  217.8804 H   0  0  0  0  0  0  0  0  0  0  0  0
  1  2  2  0
  2  3  1  0
  3  4  2  0
  4  5  1  0
  5  6  1  0
  5  7  2  0
  7  8  1  0
  8  9  2  0
  9 10  1  0
 10 11  2  0
 11 12  1  0
 12 13  2  0
 13 14  1  0
 14 15  2  0
 15 16  1  0
 16 17  2  0
 17 18  1  0
 18 19  2  0
 11 20  1  0
 20 21  1  0
 21 22  1  0
 22 23  2  0
 23 24  1  0
 24 25  2  0
 25 26  1  0
 26 27  1  0
 26 28  2  0
 20  2  1  0
 28 22  1  0
  9  3  1  0
 19 14  1  0
  4 29  1  0
  7 30  1  0
  8 31  1  0
 12 32  1  0
 13 33  1  0
 15 34  1  0
 16 35  1  0
 17 36  1  0
 18 37  1  0
 19 38  1  0
 21 39  1  0
 21 40  1  0
 23 41  1  0
 24 42  1  0
 25 43  1  0
 27 44  1  0
 28 45  1  0
M  END
>  <smiles>  (22) 
O=c1c2cc(Cl)ccc2nc(/C=C/c2ccccc2)n1Cc1cccc(O)c1

>  <score_type>  (22) 
oracle

>  <origin>  (22) 
autodockgpu

>  <m_score__min__energy>  (22) 
-8.5099999999999998

>  <m_primary>  (22) 
energy

>  <rmsd>  (22) 
7.766752031620304

>  <m_score__min__rmsd>  (22) 
7.766752031620304

>  <meeko>  (22) 
{"free_energy": -7.88, "intermolecular_energy": -9.67, "internal_energy": -1.03, "cluster_size": 27, "cluster_id": 1, "rank_in_cluster": 18}

>  <energy>  (22) 
-7.74

>  <cluster_rmsd>  (22) 
1.73

>  <cluster>  (22) 
1

$$$$

     RDKit          3D

 45 48  0  0  0  0  0  0  0  0999 V2000
  143.2350   76.0840  219.8220 O   0  0  0  0  0  0  0  0  0  0  0  0
  142.2240   75.7910  220.5100 C   0  0  0  0  0  0  0  0  0  0  0  0
  142.0200   74.4670  220.7870 C   0  0  0  0  0  0  0  0  0  0  0  0
  142.8900   73.5100  220.3280 C   0  0  0  0  0  0  0  0  0  0  0  0
  142.6060   72.1890  220.6560 C   0  0  0  0  0  0  0  0  0  0  0  0
  143.6770   70.9340  220.0980 Cl  0  0  0  0  0  0  0  0  0  0  0  0
  141.4930   71.8810  221.4110 C   0  0  0  0  0  0  0  0  0  0  0  0
  140.6140   72.8530  221.8750 C   0  0  0  0  0  0  0  0  0  0  0  0
  140.9180   74.1520  221.5360 C   0  0  0  0  0  0  0  0  0  0  0  0
  140.1270   75.1230  221.9430 N   0  0  0  0  0  0  0  0  0  0  0  0
  140.2990   76.4530  221.6870 C   0  0  0  0  0  0  0  0  0  0  0  0
  139.2730   77.3080  222.2060 C   0  0  0  0  0  0  0  0  0  0  0  0
  139.2960   78.2820  223.0620 C   0  0  0  0  0  0  0  0  0  0  0  0
  140.3910   79.2670  223.1720 C   0  0  0  0  0  0  0  0  0  0  0  0
  141.5850   79.0020  223.7790 C   0  0  0  0  0  0  0  0  0  0  0  0
  142.5720   79.9920  223.8420 C   0  0  0  0  0  0  0  0  0  0  0  0
  142.3820   81.2490  223.3050 C   0  0  0  0  0  0  0  0  0  0  0  0
  141.1800   81.5140  222.6950 C   0  0  0  0  0  0  0  0  0  0  0  0
  140.2220   80.5330  222.6420 C   0  0  0  0  0  0  0  0  0  0  0  0
  141.3650   76.7800  220.9610 N   0  0  0  0  0  0  0  0  0  0  0  0
  141.7690   78.1040  220.5970 C   0  0  0  0  0  0  0  0  0  0  0  0
  141.6020   78.4610  219.1900 C   0  0  0  0  0  0  0  0  0  0  0  0
  140.8890   77.7920  218.2430 C   0  0  0  0  0  0  0  0  0  0  0  0
  140.8050   78.2140  216.9060 C   0  0  0  0  0  0  0  0  0  0  0  0
  141.4550   79.3520  216.4800 C   0  0  0  0  0  0  0  0  0  0  0  0
  142.1800   80.0420  217.4240 C   0  0  0  0  0  0  0  0  0  0  0  0
  142.8600   81.2120  217.0330 O   0  0  0  0  0  0  0  0  0  0  0  0
  142.2540   79.6180  218.7300 C   0  0  0  0  0  0  0  0  0  0  0  0
  143.7724   73.7761  219.7275 H   0  0  0  0  0  0  0  0  0  0  0  0
  141.2937   70.8270  221.6549 H   0  0  0  0  0  0  0  0  0  0  0  0
  139.7289   72.5993  222.4768 H   0  0  0  0  0  0  0  0  0  0  0  0
  138.2726   77.0976  221.8000 H   0  0  0  0  0  0  0  0  0  0  0  0
  138.4444   78.3810  223.7511 H   0  0  0  0  0  0  0  0  0  0  0  0
  141.7710   78.0108  224.2183 H   0  0  0  0  0  0  0  0  0  0  0  0
  143.5282   79.7613  224.3344 H   0  0  0  0  0  0  0  0  0  0  0  0
  143.1690   82.0153  223.3636 H   0  0  0  0  0  0  0  0  0  0  0  0
  140.9873   82.5029  222.2534 H   0  0  0  0  0  0  0  0  0  0  0  0
  139.2661   80.7667  222.1504 H   0  0  0  0  0  0  0  0  0  0  0  0
  141.1786   78.8127  221.1963 H   0  0  0  0  0  0  0  0  0  0  0  0
  142.8516   78.1463  220.7870 H   0  0  0  0  0  0  0  0  0  0  0  0
  140.3534   76.8778  218.5387 H   0  0  0  0  0  0  0  0  0  0  0  0
  140.2119   77.6277  216.1887 H   0  0  0  0  0  0  0  0  0  0  0  0
  141.3970   79.6923  215.4356 H   0  0  0  0  0  0  0  0  0  0  0  0
  143.6730   81.0850  216.4100 H   0  0  0  0  0  0  0  0  0  0  0  0
  142.8475   80.2083  219.4436 H   0  0  0  0  0  0  0  0  0  0  0  0
  1  2  2  0
  2  3  1  0
  3  4  2  0
  4  5  1  0
  5  6  1  0
  5  7  2  0
  7  8  1  0
  8  9  2  0
  9 10  1  0
 10 11  2  0
 11 12  1  0
 12 13  2  0
 13 14  1  0
 14 15  2  0
 15 16  1  0
 16 17  2  0
 17 18  1  0
 18 19  2  0
 11 20  1  0
 20 21  1  0
 21 22  1  0
 22 23  2  0
 23 24  1  0
 24 25  2  0
 25 26  1  0
 26 27  1  0
 26 28  2  0
 20  2  1  0
 28 22  1  0
  9  3  1  0
 19 14  1  0
  4 29  1  0
  7 30  1  0
  8 31  1  0
 12 32  1  0
 13 33  1  0
 15 34  1  0
 16 35  1  0
 17 36  1  0
 18 37  1  0
 19 38  1  0
 21 39  1  0
 21 40  1  0
 23 41  1  0
 24 42  1  0
 25 43  1  0
 27 44  1  0
 28 45  1  0
M  END
>  <smiles>  (23) 
O=c1c2cc(Cl)ccc2nc(/C=C/c2ccccc2)n1Cc1cccc(O)c1

>  <score_type>  (23) 
oracle

>  <origin>  (23) 
autodockgpu

>  <m_score__min__energy>  (23) 
-8.5099999999999998

>  <m_primary>  (23) 
energy

>  <rmsd>  (23) 
4.574274765880958

>  <m_score__min__rmsd>  (23) 
4.574274765880958

>  <meeko>  (23) 
{"free_energy": -7.2, "intermolecular_energy": -8.99, "internal_energy": -1.48, "cluster_size": 11, "cluster_id": 3, "rank_in_cluster": 3}

>  <energy>  (23) 
-7.74

>  <cluster_rmsd>  (23) 
1.23

>  <cluster>  (23) 
1

$$$$

     RDKit          3D

 45 48  0  0  0  0  0  0  0  0999 V2000
  142.4010   75.1850  219.6430 O   0  0  0  0  0  0  0  0  0  0  0  0
  141.5450   74.8500  220.5010 C   0  0  0  0  0  0  0  0  0  0  0  0
  140.8400   75.8560  221.1030 C   0  0  0  0  0  0  0  0  0  0  0  0
  141.0660   77.1690  220.7740 C   0  0  0  0  0  0  0  0  0  0  0  0
  140.3030   78.1260  221.4340 C   0  0  0  0  0  0  0  0  0  0  0  0
  140.5500   79.8080  221.0540 Cl  0  0  0  0  0  0  0  0  0  0  0  0
  139.3680   77.7470  222.3740 C   0  0  0  0  0  0  0  0  0  0  0  0
  139.1410   76.4160  222.7050 C   0  0  0  0  0  0  0  0  0  0  0  0
  139.9090   75.4890  222.0370 C   0  0  0  0  0  0  0  0  0  0  0  0
  139.7450   74.2090  222.3030 N   0  0  0  0  0  0  0  0  0  0  0  0
  140.4300   73.1800  221.7230 C   0  0  0  0  0  0  0  0  0  0  0  0
  140.0980   71.8760  222.2170 C   0  0  0  0  0  0  0  0  0  0  0  0
  139.3310   71.4760  223.1830 C   0  0  0  0  0  0  0  0  0  0  0  0
  139.8080   71.1370  224.5390 C   0  0  0  0  0  0  0  0  0  0  0  0
  140.7260   71.8810  225.2230 C   0  0  0  0  0  0  0  0  0  0  0  0
  141.1260   71.4910  226.5060 C   0  0  0  0  0  0  0  0  0  0  0  0
  140.6220   70.3620  227.1170 C   0  0  0  0  0  0  0  0  0  0  0  0
  139.6980   69.6130  226.4280 C   0  0  0  0  0  0  0  0  0  0  0  0
  139.3160   70.0090  225.1710 C   0  0  0  0  0  0  0  0  0  0  0  0
  141.3390   73.5160  220.8110 N   0  0  0  0  0  0  0  0  0  0  0  0
  142.1490   72.6150  220.0500 C   0  0  0  0  0  0  0  0  0  0  0  0
  143.5920   72.8350  220.1200 C   0  0  0  0  0  0  0  0  0  0  0  0
  144.3430   73.0670  221.2310 C   0  0  0  0  0  0  0  0  0  0  0  0
  145.7300   73.2830  221.1880 C   0  0  0  0  0  0  0  0  0  0  0  0
  146.4120   73.2690  219.9910 C   0  0  0  0  0  0  0  0  0  0  0  0
  145.6690   73.0350  218.8560 C   0  0  0  0  0  0  0  0  0  0  0  0
  146.3260   73.0110  217.6100 O   0  0  0  0  0  0  0  0  0  0  0  0
  144.3110   72.8250  218.9130 C   0  0  0  0  0  0  0  0  0  0  0  0
  141.8172   77.4518  220.0218 H   0  0  0  0  0  0  0  0  0  0  0  0
  138.7801   78.5265  222.8806 H   0  0  0  0  0  0  0  0  0  0  0  0
  138.3928   76.1212  223.4555 H   0  0  0  0  0  0  0  0  0  0  0  0
  140.5886   71.0565  221.6713 H   0  0  0  0  0  0  0  0  0  0  0  0
  138.2541   71.3830  222.9790 H   0  0  0  0  0  0  0  0  0  0  0  0
  141.1510   72.7867  224.7657 H   0  0  0  0  0  0  0  0  0  0  0  0
  141.8649   72.1035  227.0435 H   0  0  0  0  0  0  0  0  0  0  0  0
  140.9496   70.0696  228.1256 H   0  0  0  0  0  0  0  0  0  0  0  0
  139.2695   68.7060  226.8794 H   0  0  0  0  0  0  0  0  0  0  0  0
  138.5769   69.3949  224.6356 H   0  0  0  0  0  0  0  0  0  0  0  0
  141.9463   71.5952  220.4092 H   0  0  0  0  0  0  0  0  0  0  0  0
  141.8740   72.7853  218.9986 H   0  0  0  0  0  0  0  0  0  0  0  0
  143.8398   73.0862  222.2090 H   0  0  0  0  0  0  0  0  0  0  0  0
  146.2796   73.4659  222.1232 H   0  0  0  0  0  0  0  0  0  0  0  0
  147.4981   73.4368  219.9445 H   0  0  0  0  0  0  0  0  0  0  0  0
  145.7510   73.2320  216.7820 H   0  0  0  0  0  0  0  0  0  0  0  0
  143.7656   72.6418  217.9755 H   0  0  0  0  0  0  0  0  0  0  0  0
  1  2  2  0
  2  3  1  0
  3  4  2  0
  4  5  1  0
  5  6  1  0
  5  7  2  0
  7  8  1  0
  8  9  2  0
  9 10  1  0
 10 11  2  0
 11 12  1  0
 12 13  2  0
 13 14  1  0
 14 15  2  0
 15 16  1  0
 16 17  2  0
 17 18  1  0
 18 19  2  0
 11 20  1  0
 20 21  1  0
 21 22  1  0
 22 23  2  0
 23 24  1  0
 24 25  2  0
 25 26  1  0
 26 27  1  0
 26 28  2  0
 20  2  1  0
 28 22  1  0
  9  3  1  0
 19 14  1  0
  4 29  1  0
  7 30  1  0
  8 31  1  0
 12 32  1  0
 13 33  1  0
 15 34  1  0
 16 35  1  0
 17 36  1  0
 18 37  1  0
 19 38  1  0
 21 39  1  0
 21 40  1  0
 23 41  1  0
 24 42  1  0
 25 43  1  0
 27 44  1  0
 28 45  1  0
M  END
>  <smiles>  (24) 
O=c1c2cc(Cl)ccc2nc(/C=C/c2ccccc2)n1Cc1cccc(O)c1

>  <score_type>  (24) 
oracle

>  <origin>  (24) 
autodockgpu

>  <m_score__min__energy>  (24) 
-8.5099999999999998

>  <m_primary>  (24) 
energy

>  <rmsd>  (24) 
7.98163200553948

>  <m_score__min__rmsd>  (24) 
7.98163200553948

>  <meeko>  (24) 
{"free_energy": -8.14, "intermolecular_energy": -9.93, "internal_energy": -0.95, "cluster_size": 27, "cluster_id": 1, "rank_in_cluster": 7}

>  <energy>  (24) 
-7.68

>  <cluster_rmsd>  (24) 
1.66

>  <cluster>  (24) 
1

$$$$

     RDKit          3D

 45 48  0  0  0  0  0  0  0  0999 V2000
  142.0210   75.2390  218.5950 O   0  0  0  0  0  0  0  0  0  0  0  0
  141.5690   75.0250  219.7490 C   0  0  0  0  0  0  0  0  0  0  0  0
  141.3720   76.1140  220.5540 C   0  0  0  0  0  0  0  0  0  0  0  0
  141.6590   77.3790  220.1080 C   0  0  0  0  0  0  0  0  0  0  0  0
  141.4290   78.4280  220.9910 C   0  0  0  0  0  0  0  0  0  0  0  0
  141.7770   80.0560  220.4760 Cl  0  0  0  0  0  0  0  0  0  0  0  0
  140.9330   78.1810  222.2550 C   0  0  0  0  0  0  0  0  0  0  0  0
  140.6430   76.8970  222.7040 C   0  0  0  0  0  0  0  0  0  0  0  0
  140.8810   75.8780  221.8090 C   0  0  0  0  0  0  0  0  0  0  0  0
  140.6270   74.6370  222.1700 N   0  0  0  0  0  0  0  0  0  0  0  0
  140.8100   73.5280  221.3960 C   0  0  0  0  0  0  0  0  0  0  0  0
  140.5000   72.2830  222.0350 C   0  0  0  0  0  0  0  0  0  0  0  0
  139.5750   71.9380  222.8760 C   0  0  0  0  0  0  0  0  0  0  0  0
  139.8320   71.2830  224.1740 C   0  0  0  0  0  0  0  0  0  0  0  0
  139.1990   70.1430  224.5810 C   0  0  0  0  0  0  0  0  0  0  0  0
  139.5000   69.5850  225.8280 C   0  0  0  0  0  0  0  0  0  0  0  0
  140.4270   70.1500  226.6780 C   0  0  0  0  0  0  0  0  0  0  0  0
  141.0630   71.2970  226.2680 C   0  0  0  0  0  0  0  0  0  0  0  0
  140.7570   71.8330  225.0420 C   0  0  0  0  0  0  0  0  0  0  0  0
  141.2870   73.7360  220.1710 N   0  0  0  0  0  0  0  0  0  0  0  0
  141.5260   72.7380  219.1740 C   0  0  0  0  0  0  0  0  0  0  0  0
  142.8180   72.0570  219.2450 C   0  0  0  0  0  0  0  0  0  0  0  0
  143.0610   70.7820  219.6530 C   0  0  0  0  0  0  0  0  0  0  0  0
  144.3490   70.2240  219.7000 C   0  0  0  0  0  0  0  0  0  0  0  0
  145.4530   70.9590  219.3250 C   0  0  0  0  0  0  0  0  0  0  0  0
  145.2260   72.2510  218.9070 C   0  0  0  0  0  0  0  0  0  0  0  0
  146.3260   73.0380  218.5140 O   0  0  0  0  0  0  0  0  0  0  0  0
  143.9590   72.7840  218.8680 C   0  0  0  0  0  0  0  0  0  0  0  0
  142.0536   77.5557  219.0965 H   0  0  0  0  0  0  0  0  0  0  0  0
  140.7607   79.0307  222.9321 H   0  0  0  0  0  0  0  0  0  0  0  0
  140.2476   76.7071  223.7127 H   0  0  0  0  0  0  0  0  0  0  0  0
  141.1774   71.4616  221.7587 H   0  0  0  0  0  0  0  0  0  0  0  0
  138.5298   72.1472  222.6043 H   0  0  0  0  0  0  0  0  0  0  0  0
  138.4535   69.6643  223.9290 H   0  0  0  0  0  0  0  0  0  0  0  0
  138.9809   68.6668  226.1402 H   0  0  0  0  0  0  0  0  0  0  0  0
  140.6507   69.6963  227.6548 H   0  0  0  0  0  0  0  0  0  0  0  0
  141.8094   71.7805  226.9154 H   0  0  0  0  0  0  0  0  0  0  0  0
  141.2769   72.7517  224.7327 H   0  0  0  0  0  0  0  0  0  0  0  0
  140.7383   71.9756  219.2655 H   0  0  0  0  0  0  0  0  0  0  0  0
  141.5254   73.2731  218.2129 H   0  0  0  0  0  0  0  0  0  0  0  0
  142.2084   70.1588  219.9606 H   0  0  0  0  0  0  0  0  0  0  0  0
  144.4785   69.1862  220.0408 H   0  0  0  0  0  0  0  0  0  0  0  0
  146.4669   70.5337  219.3581 H   0  0  0  0  0  0  0  0  0  0  0  0
  146.1960   74.0610  218.5500 H   0  0  0  0  0  0  0  0  0  0  0  0
  143.8340   73.8225  218.5275 H   0  0  0  0  0  0  0  0  0  0  0  0
  1  2  2  0
  2  3  1  0
  3  4  2  0
  4  5  1  0
  5  6  1  0
  5  7  2  0
  7  8  1  0
  8  9  2  0
  9 10  1  0
 10 11  2  0
 11 12  1  0
 12 13  2  0
 13 14  1  0
 14 15  2  0
 15 16  1  0
 16 17  2  0
 17 18  1  0
 18 19  2  0
 11 20  1  0
 20 21  1  0
 21 22  1  0
 22 23  2  0
 23 24  1  0
 24 25  2  0
 25 26  1  0
 26 27  1  0
 26 28  2  0
 20  2  1  0
 28 22  1  0
  9  3  1  0
 19 14  1  0
  4 29  1  0
  7 30  1  0
  8 31  1  0
 12 32  1  0
 13 33  1  0
 15 34  1  0
 16 35  1  0
 17 36  1  0
 18 37  1  0
 19 38  1  0
 21 39  1  0
 21 40  1  0
 23 41  1  0
 24 42  1  0
 25 43  1  0
 27 44  1  0
 28 45  1  0
M  END
>  <smiles>  (25) 
O=c1c2cc(Cl)ccc2nc(/C=C/c2ccccc2)n1Cc1cccc(O)c1

>  <score_type>  (25) 
oracle

>  <origin>  (25) 
autodockgpu

>  <m_score__min__energy>  (25) 
-8.5099999999999998

>  <m_primary>  (25) 
energy

>  <rmsd>  (25) 
8.64380400834306

>  <m_score__min__rmsd>  (25) 
8.64380400834306

>  <meeko>  (25) 
{"free_energy": -7.96, "intermolecular_energy": -9.75, "internal_energy": -1.02, "cluster_size": 27, "cluster_id": 1, "rank_in_cluster": 14}

>  <energy>  (25) 
-7.66

>  <cluster_rmsd>  (25) 
1.69

>  <cluster>  (25) 
1

$$$$

     RDKit          3D

 45 48  0  0  0  0  0  0  0  0999 V2000
  142.5130   77.2950  216.9260 O   0  0  0  0  0  0  0  0  0  0  0  0
  142.1690   77.7940  218.0280 C   0  0  0  0  0  0  0  0  0  0  0  0
  142.1720   79.1590  218.1230 C   0  0  0  0  0  0  0  0  0  0  0  0
  142.5370   79.9380  217.0540 C   0  0  0  0  0  0  0  0  0  0  0  0
  142.5110   81.3150  217.2380 C   0  0  0  0  0  0  0  0  0  0  0  0
  142.9660   82.3510  215.9130 Cl  0  0  0  0  0  0  0  0  0  0  0  0
  142.1320   81.8510  218.4520 C   0  0  0  0  0  0  0  0  0  0  0  0
  141.7630   81.0590  219.5330 C   0  0  0  0  0  0  0  0  0  0  0  0
  141.7970   79.6990  219.3240 C   0  0  0  0  0  0  0  0  0  0  0  0
  141.4590   78.8910  220.3070 N   0  0  0  0  0  0  0  0  0  0  0  0
  141.4440   77.5270  220.2490 C   0  0  0  0  0  0  0  0  0  0  0  0
  141.0790   76.8710  221.4700 C   0  0  0  0  0  0  0  0  0  0  0  0
  141.0430   77.2750  222.7020 C   0  0  0  0  0  0  0  0  0  0  0  0
  141.2660   78.6710  223.1270 C   0  0  0  0  0  0  0  0  0  0  0  0
  140.2550   79.5330  223.4430 C   0  0  0  0  0  0  0  0  0  0  0  0
  140.5520   80.8420  223.8370 C   0  0  0  0  0  0  0  0  0  0  0  0
  141.8480   81.3050  223.9210 C   0  0  0  0  0  0  0  0  0  0  0  0
  142.8650   80.4370  223.6040 C   0  0  0  0  0  0  0  0  0  0  0  0
  142.5580   79.1560  223.2180 C   0  0  0  0  0  0  0  0  0  0  0  0
  141.8040   76.9820  219.0890 N   0  0  0  0  0  0  0  0  0  0  0  0
  141.8320   75.5850  218.7820 C   0  0  0  0  0  0  0  0  0  0  0  0
  142.9590   74.8300  219.3260 C   0  0  0  0  0  0  0  0  0  0  0  0
  143.1640   74.4620  220.6200 C   0  0  0  0  0  0  0  0  0  0  0  0
  144.2960   73.7480  221.0440 C   0  0  0  0  0  0  0  0  0  0  0  0
  145.2750   73.3760  220.1490 C   0  0  0  0  0  0  0  0  0  0  0  0
  145.0850   73.7390  218.8350 C   0  0  0  0  0  0  0  0  0  0  0  0
  146.0610   73.3790  217.8860 O   0  0  0  0  0  0  0  0  0  0  0  0
  143.9720   74.4390  218.4340 C   0  0  0  0  0  0  0  0  0  0  0  0
  142.8368   79.4922  216.0941 H   0  0  0  0  0  0  0  0  0  0  0  0
  142.1216   82.9448  218.5683 H   0  0  0  0  0  0  0  0  0  0  0  0
  141.4618   81.4931  220.4978 H   0  0  0  0  0  0  0  0  0  0  0  0
  140.7700   75.8237  221.3366 H   0  0  0  0  0  0  0  0  0  0  0  0
  140.8324   76.5281  223.4816 H   0  0  0  0  0  0  0  0  0  0  0  0
  139.2086   79.1985  223.3878 H   0  0  0  0  0  0  0  0  0  0  0  0
  139.7256   81.5233  224.0877 H   0  0  0  0  0  0  0  0  0  0  0  0
  142.0614   82.3382  224.2324 H   0  0  0  0  0  0  0  0  0  0  0  0
  143.9135   80.7650  223.6590 H   0  0  0  0  0  0  0  0  0  0  0  0
  143.3862   78.4770  222.9669 H   0  0  0  0  0  0  0  0  0  0  0  0
  140.9068   75.1363  219.1728 H   0  0  0  0  0  0  0  0  0  0  0  0
  141.9359   75.5246  217.6886 H   0  0  0  0  0  0  0  0  0  0  0  0
  142.4070   74.7370  221.3692 H   0  0  0  0  0  0  0  0  0  0  0  0
  144.4028   73.4818  222.1060 H   0  0  0  0  0  0  0  0  0  0  0  0
  146.1658   72.8157  220.4691 H   0  0  0  0  0  0  0  0  0  0  0  0
  146.6080   74.1500  217.4730 H   0  0  0  0  0  0  0  0  0  0  0  0
  143.8701   74.7040  217.3713 H   0  0  0  0  0  0  0  0  0  0  0  0
  1  2  2  0
  2  3  1  0
  3  4  2  0
  4  5  1  0
  5  6  1  0
  5  7  2  0
  7  8  1  0
  8  9  2  0
  9 10  1  0
 10 11  2  0
 11 12  1  0
 12 13  2  0
 13 14  1  0
 14 15  2  0
 15 16  1  0
 16 17  2  0
 17 18  1  0
 18 19  2  0
 11 20  1  0
 20 21  1  0
 21 22  1  0
 22 23  2  0
 23 24  1  0
 24 25  2  0
 25 26  1  0
 26 27  1  0
 26 28  2  0
 20  2  1  0
 28 22  1  0
  9  3  1  0
 19 14  1  0
  4 29  1  0
  7 30  1  0
  8 31  1  0
 12 32  1  0
 13 33  1  0
 15 34  1  0
 16 35  1  0
 17 36  1  0
 18 37  1  0
 19 38  1  0
 21 39  1  0
 21 40  1  0
 23 41  1  0
 24 42  1  0
 25 43  1  0
 27 44  1  0
 28 45  1  0
M  END
>  <smiles>  (26) 
O=c1c2cc(Cl)ccc2nc(/C=C/c2ccccc2)n1Cc1cccc(O)c1

>  <score_type>  (26) 
oracle

>  <origin>  (26) 
autodockgpu

>  <m_score__min__energy>  (26) 
-8.5099999999999998

>  <m_primary>  (26) 
energy

>  <rmsd>  (26) 
7.369093127913519

>  <m_score__min__rmsd>  (26) 
7.369093127913519

>  <meeko>  (26) 
{"free_energy": -7.56, "intermolecular_energy": -9.35, "internal_energy": -1.39, "cluster_size": 3, "cluster_id": 2, "rank_in_cluster": 2}

>  <energy>  (26) 
-7.63

>  <cluster_rmsd>  (26) 
1.38

>  <cluster>  (26) 
1

$$$$

     RDKit          3D

 45 48  0  0  0  0  0  0  0  0999 V2000
  142.6640   76.0150  219.4150 O   0  0  0  0  0  0  0  0  0  0  0  0
  141.8300   75.7810  220.3260 C   0  0  0  0  0  0  0  0  0  0  0  0
  141.3150   76.8600  220.9920 C   0  0  0  0  0  0  0  0  0  0  0  0
  141.6990   78.1360  220.6670 C   0  0  0  0  0  0  0  0  0  0  0  0
  141.1250   79.1730  221.3940 C   0  0  0  0  0  0  0  0  0  0  0  0
  141.5790   80.8140  221.0230 Cl  0  0  0  0  0  0  0  0  0  0  0  0
  140.2120   78.9040  222.3920 C   0  0  0  0  0  0  0  0  0  0  0  0
  139.8230   77.6100  222.7180 C   0  0  0  0  0  0  0  0  0  0  0  0
  140.4070   76.6030  221.9840 C   0  0  0  0  0  0  0  0  0  0  0  0
  140.0840   75.3520  222.2410 N   0  0  0  0  0  0  0  0  0  0  0  0
  140.5770   74.2520  221.5990 C   0  0  0  0  0  0  0  0  0  0  0  0
  140.0990   72.9950  222.0950 C   0  0  0  0  0  0  0  0  0  0  0  0
  140.7090   71.9550  222.5730 C   0  0  0  0  0  0  0  0  0  0  0  0
  140.3720   71.3100  223.8570 C   0  0  0  0  0  0  0  0  0  0  0  0
  141.0460   71.5480  225.0200 C   0  0  0  0  0  0  0  0  0  0  0  0
  140.6630   70.8950  226.1970 C   0  0  0  0  0  0  0  0  0  0  0  0
  139.6120   70.0020  226.2290 C   0  0  0  0  0  0  0  0  0  0  0  0
  138.9330   69.7630  225.0580 C   0  0  0  0  0  0  0  0  0  0  0  0
  139.3220   70.4110  223.9120 C   0  0  0  0  0  0  0  0  0  0  0  0
  141.4600   74.4820  220.6300 N   0  0  0  0  0  0  0  0  0  0  0  0
  142.0820   73.4960  219.8000 C   0  0  0  0  0  0  0  0  0  0  0  0
  143.5140   73.2910  220.0110 C   0  0  0  0  0  0  0  0  0  0  0  0
  144.3370   73.9850  220.8440 C   0  0  0  0  0  0  0  0  0  0  0  0
  145.7100   73.7170  220.9620 C   0  0  0  0  0  0  0  0  0  0  0  0
  146.3030   72.7160  220.2240 C   0  0  0  0  0  0  0  0  0  0  0  0
  145.4850   72.0030  219.3770 C   0  0  0  0  0  0  0  0  0  0  0  0
  146.0490   70.9700  218.6030 O   0  0  0  0  0  0  0  0  0  0  0  0
  144.1420   72.2760  219.2700 C   0  0  0  0  0  0  0  0  0  0  0  0
  142.4285   78.3303  219.8670 H   0  0  0  0  0  0  0  0  0  0  0  0
  139.7754   79.7448  222.9509 H   0  0  0  0  0  0  0  0  0  0  0  0
  139.0927   77.4034  223.5143 H   0  0  0  0  0  0  0  0  0  0  0  0
  139.0042   72.8927  222.0644 H   0  0  0  0  0  0  0  0  0  0  0  0
  141.5317   71.5254  221.9825 H   0  0  0  0  0  0  0  0  0  0  0  0
  141.8902   72.2531  225.0320 H   0  0  0  0  0  0  0  0  0  0  0  0
  141.2169   71.1000  227.1250 H   0  0  0  0  0  0  0  0  0  0  0  0
  139.3260   69.4966  227.1632 H   0  0  0  0  0  0  0  0  0  0  0  0
  138.0871   69.0601  225.0394 H   0  0  0  0  0  0  0  0  0  0  0  0
  138.7674   70.2036  222.9850 H   0  0  0  0  0  0  0  0  0  0  0  0
  141.5747   72.5366  219.9795 H   0  0  0  0  0  0  0  0  0  0  0  0
  141.9849   73.8712  218.7705 H   0  0  0  0  0  0  0  0  0  0  0  0
  143.9062   74.7934  221.4530 H   0  0  0  0  0  0  0  0  0  0  0  0
  146.3214   74.3150  221.6539 H   0  0  0  0  0  0  0  0  0  0  0  0
  147.3778   72.4972  220.3076 H   0  0  0  0  0  0  0  0  0  0  0  0
  145.4090   70.2210  218.2980 H   0  0  0  0  0  0  0  0  0  0  0  0
  143.5348   71.6757  218.5765 H   0  0  0  0  0  0  0  0  0  0  0  0
  1  2  2  0
  2  3  1  0
  3  4  2  0
  4  5  1  0
  5  6  1  0
  5  7  2  0
  7  8  1  0
  8  9  2  0
  9 10  1  0
 10 11  2  0
 11 12  1  0
 12 13  2  0
 13 14  1  0
 14 15  2  0
 15 16  1  0
 16 17  2  0
 17 18  1  0
 18 19  2  0
 11 20  1  0
 20 21  1  0
 21 22  1  0
 22 23  2  0
 23 24  1  0
 24 25  2  0
 25 26  1  0
 26 27  1  0
 26 28  2  0
 20  2  1  0
 28 22  1  0
  9  3  1  0
 19 14  1  0
  4 29  1  0
  7 30  1  0
  8 31  1  0
 12 32  1  0
 13 33  1  0
 15 34  1  0
 16 35  1  0
 17 36  1  0
 18 37  1  0
 19 38  1  0
 21 39  1  0
 21 40  1  0
 23 41  1  0
 24 42  1  0
 25 43  1  0
 27 44  1  0
 28 45  1  0
M  END
>  <smiles>  (27) 
O=c1c2cc(Cl)ccc2nc(/C=C/c2ccccc2)n1Cc1cccc(O)c1

>  <score_type>  (27) 
oracle

>  <origin>  (27) 
autodockgpu

>  <m_score__min__energy>  (27) 
-8.5099999999999998

>  <m_primary>  (27) 
energy

>  <rmsd>  (27) 
7.956093404195167

>  <m_score__min__rmsd>  (27) 
7.956093404195167

>  <meeko>  (27) 
{"free_energy": -7.92, "intermolecular_energy": -9.71, "internal_energy": -0.95, "cluster_size": 27, "cluster_id": 1, "rank_in_cluster": 17}

>  <energy>  (27) 
-7.5

>  <cluster_rmsd>  (27) 
1.53

>  <cluster>  (27) 
1

$$$$

     RDKit          3D

 45 48  0  0  0  0  0  0  0  0999 V2000
  143.1030   76.7220  219.4830 O   0  0  0  0  0  0  0  0  0  0  0  0
  142.3020   76.0850  220.2140 C   0  0  0  0  0  0  0  0  0  0  0  0
  142.5550   74.7530  220.4010 C   0  0  0  0  0  0  0  0  0  0  0  0
  143.6390   74.1530  219.8130 C   0  0  0  0  0  0  0  0  0  0  0  0
  143.8200   72.7960  220.0580 C   0  0  0  0  0  0  0  0  0  0  0  0
  145.1810   71.9830  219.3340 Cl  0  0  0  0  0  0  0  0  0  0  0  0
  142.9340   72.1070  220.8600 C   0  0  0  0  0  0  0  0  0  0  0  0
  141.8370   72.7180  221.4560 C   0  0  0  0  0  0  0  0  0  0  0  0
  141.6810   74.0610  221.1960 C   0  0  0  0  0  0  0  0  0  0  0  0
  140.6620   74.7030  221.7300 N   0  0  0  0  0  0  0  0  0  0  0  0
  140.3790   76.0290  221.5650 C   0  0  0  0  0  0  0  0  0  0  0  0
  139.1840   76.4800  222.2150 C   0  0  0  0  0  0  0  0  0  0  0  0
  138.2620   77.3210  221.8640 C   0  0  0  0  0  0  0  0  0  0  0  0
  138.2790   78.7600  222.1930 C   0  0  0  0  0  0  0  0  0  0  0  0
  137.9370   79.7400  221.3060 C   0  0  0  0  0  0  0  0  0  0  0  0
  137.9800   81.0830  221.6980 C   0  0  0  0  0  0  0  0  0  0  0  0
  138.3610   81.4630  222.9670 C   0  0  0  0  0  0  0  0  0  0  0  0
  138.7050   80.4760  223.8600 C   0  0  0  0  0  0  0  0  0  0  0  0
  138.6580   79.1640  223.4610 C   0  0  0  0  0  0  0  0  0  0  0  0
  141.2170   76.7190  220.7950 N   0  0  0  0  0  0  0  0  0  0  0  0
  141.1450   78.1190  220.5080 C   0  0  0  0  0  0  0  0  0  0  0  0
  141.5140   79.0180  221.6000 C   0  0  0  0  0  0  0  0  0  0  0  0
  141.8800   78.6780  222.8660 C   0  0  0  0  0  0  0  0  0  0  0  0
  142.2010   79.6260  223.8510 C   0  0  0  0  0  0  0  0  0  0  0  0
  142.1610   80.9750  223.5760 C   0  0  0  0  0  0  0  0  0  0  0  0
  141.7940   81.3380  222.2990 C   0  0  0  0  0  0  0  0  0  0  0  0
  141.7400   82.7070  221.9740 O   0  0  0  0  0  0  0  0  0  0  0  0
  141.4810   80.3990  221.3450 C   0  0  0  0  0  0  0  0  0  0  0  0
  144.3342   74.7197  219.1761 H   0  0  0  0  0  0  0  0  0  0  0  0
  143.1019   71.0340  221.0344 H   0  0  0  0  0  0  0  0  0  0  0  0
  141.1362   72.1624  222.0964 H   0  0  0  0  0  0  0  0  0  0  0  0
  139.0169   76.0247  223.2023 H   0  0  0  0  0  0  0  0  0  0  0  0
  137.4108   76.9370  221.2826 H   0  0  0  0  0  0  0  0  0  0  0  0
  137.6279   79.4744  220.2843 H   0  0  0  0  0  0  0  0  0  0  0  0
  137.7010   81.8595  220.9706 H   0  0  0  0  0  0  0  0  0  0  0  0
  138.3889   82.5239  223.2564 H   0  0  0  0  0  0  0  0  0  0  0  0
  139.0146   80.7352  224.8832 H   0  0  0  0  0  0  0  0  0  0  0  0
  138.9374   78.3895  224.1904 H   0  0  0  0  0  0  0  0  0  0  0  0
  141.8175   78.3239  219.6619 H   0  0  0  0  0  0  0  0  0  0  0  0
  140.0844   78.3246  220.3009 H   0  0  0  0  0  0  0  0  0  0  0  0
  141.9265   77.6111  223.1299 H   0  0  0  0  0  0  0  0  0  0  0  0
  142.4886   79.2862  224.8569 H   0  0  0  0  0  0  0  0  0  0  0  0
  142.4102   81.7265  224.3396 H   0  0  0  0  0  0  0  0  0  0  0  0
  141.3900   82.9440  221.0330 H   0  0  0  0  0  0  0  0  0  0  0  0
  141.1929   80.7432  220.3407 H   0  0  0  0  0  0  0  0  0  0  0  0
  1  2  2  0
  2  3  1  0
  3  4  2  0
  4  5  1  0
  5  6  1  0
  5  7  2  0
  7  8  1  0
  8  9  2  0
  9 10  1  0
 10 11  2  0
 11 12  1  0
 12 13  2  0
 13 14  1  0
 14 15  2  0
 15 16  1  0
 16 17  2  0
 17 18  1  0
 18 19  2  0
 11 20  1  0
 20 21  1  0
 21 22  1  0
 22 23  2  0
 23 24  1  0
 24 25  2  0
 25 26  1  0
 26 27  1  0
 26 28  2  0
 20  2  1  0
 28 22  1  0
  9  3  1  0
 19 14  1  0
  4 29  1  0
  7 30  1  0
  8 31  1  0
 12 32  1  0
 13 33  1  0
 15 34  1  0
 16 35  1  0
 17 36  1  0
 18 37  1  0
 19 38  1  0
 21 39  1  0
 21 40  1  0
 23 41  1  0
 24 42  1  0
 25 43  1  0
 27 44  1  0
 28 45  1  0
M  END
>  <smiles>  (28) 
O=c1c2cc(Cl)ccc2nc(/C=C/c2ccccc2)n1Cc1cccc(O)c1

>  <score_type>  (28) 
oracle

>  <origin>  (28) 
autodockgpu

>  <m_score__min__energy>  (28) 
-8.5099999999999998

>  <m_primary>  (28) 
energy

>  <rmsd>  (28) 
4.081760605552578

>  <m_score__min__rmsd>  (28) 
4.081760605552578

>  <meeko>  (28) 
{"free_energy": -6.64, "intermolecular_energy": -8.43, "internal_energy": -1.91, "cluster_size": 11, "cluster_id": 3, "rank_in_cluster": 10}

>  <energy>  (28) 
-7.57

>  <cluster_rmsd>  (28) 
0.0

>  <cluster>  (28) 
2

$$$$

     RDKit          3D

 45 48  0  0  0  0  0  0  0  0999 V2000
  141.9890   74.8880  218.6490 O   0  0  0  0  0  0  0  0  0  0  0  0
  141.5600   74.7250  219.8190 C   0  0  0  0  0  0  0  0  0  0  0  0
  141.3790   75.8480  220.5790 C   0  0  0  0  0  0  0  0  0  0  0  0
  141.6560   77.0930  220.0730 C   0  0  0  0  0  0  0  0  0  0  0  0
  141.4420   78.1790  220.9150 C   0  0  0  0  0  0  0  0  0  0  0  0
  141.7790   79.7830  220.3220 Cl  0  0  0  0  0  0  0  0  0  0  0  0
  140.9720   77.9870  222.1970 C   0  0  0  0  0  0  0  0  0  0  0  0
  140.6920   76.7250  222.7070 C   0  0  0  0  0  0  0  0  0  0  0  0
  140.9120   75.6670  221.8540 C   0  0  0  0  0  0  0  0  0  0  0  0
  140.6670   74.4430  222.2730 N   0  0  0  0  0  0  0  0  0  0  0  0
  140.8360   73.3010  221.5440 C   0  0  0  0  0  0  0  0  0  0  0  0
  140.5390   72.0850  222.2440 C   0  0  0  0  0  0  0  0  0  0  0  0
  139.6110   71.7690  223.0920 C   0  0  0  0  0  0  0  0  0  0  0  0
  139.8660   71.2120  224.4350 C   0  0  0  0  0  0  0  0  0  0  0  0
  139.2760   70.0730  224.9040 C   0  0  0  0  0  0  0  0  0  0  0  0
  139.5730   69.6120  226.1910 C   0  0  0  0  0  0  0  0  0  0  0  0
  140.4530   70.2740  227.0210 C   0  0  0  0  0  0  0  0  0  0  0  0
  141.0460   71.4200  226.5490 C   0  0  0  0  0  0  0  0  0  0  0  0
  140.7450   71.8600  225.2840 C   0  0  0  0  0  0  0  0  0  0  0  0
  141.2880   73.4560  220.3020 N   0  0  0  0  0  0  0  0  0  0  0  0
  141.5080   72.4150  219.3450 C   0  0  0  0  0  0  0  0  0  0  0  0
  142.8340   71.8000  219.3610 C   0  0  0  0  0  0  0  0  0  0  0  0
  143.1450   70.5090  219.6610 C   0  0  0  0  0  0  0  0  0  0  0  0
  144.4610   70.0180  219.6620 C   0  0  0  0  0  0  0  0  0  0  0  0
  145.5230   70.8390  219.3510 C   0  0  0  0  0  0  0  0  0  0  0  0
  145.2270   72.1480  219.0430 C   0  0  0  0  0  0  0  0  0  0  0  0
  146.2830   73.0220  218.7190 O   0  0  0  0  0  0  0  0  0  0  0  0
  143.9340   72.6150  219.0470 C   0  0  0  0  0  0  0  0  0  0  0  0
  142.0306   77.2261  219.0473 H   0  0  0  0  0  0  0  0  0  0  0  0
  140.8128   78.8653  222.8398 H   0  0  0  0  0  0  0  0  0  0  0  0
  140.3170   76.5801  223.7309 H   0  0  0  0  0  0  0  0  0  0  0  0
  141.2325   71.2617  222.0176 H   0  0  0  0  0  0  0  0  0  0  0  0
  138.5647   71.9262  222.7911 H   0  0  0  0  0  0  0  0  0  0  0  0
  138.5680   69.5187  224.2704 H   0  0  0  0  0  0  0  0  0  0  0  0
  139.0893   68.6925  226.5522 H   0  0  0  0  0  0  0  0  0  0  0  0
  140.6735   69.8961  228.0302 H   0  0  0  0  0  0  0  0  0  0  0  0
  141.7544   71.9790  227.1781 H   0  0  0  0  0  0  0  0  0  0  0  0
  141.2302   72.7797  224.9253 H   0  0  0  0  0  0  0  0  0  0  0  0
  140.7675   71.6234  219.5325 H   0  0  0  0  0  0  0  0  0  0  0  0
  141.4149   72.8939  218.3591 H   0  0  0  0  0  0  0  0  0  0  0  0
  142.3275   69.8181  219.9145 H   0  0  0  0  0  0  0  0  0  0  0  0
  144.6463   68.9635  219.9145 H   0  0  0  0  0  0  0  0  0  0  0  0
  146.5580   70.4664  219.3489 H   0  0  0  0  0  0  0  0  0  0  0  0
  146.0470   74.0240  218.6500 H   0  0  0  0  0  0  0  0  0  0  0  0
  143.7535   73.6702  218.7939 H   0  0  0  0  0  0  0  0  0  0  0  0
  1  2  2  0
  2  3  1  0
  3  4  2  0
  4  5  1  0
  5  6  1  0
  5  7  2  0
  7  8  1  0
  8  9  2  0
  9 10  1  0
 10 11  2  0
 11 12  1  0
 12 13  2  0
 13 14  1  0
 14 15  2  0
 15 16  1  0
 16 17  2  0
 17 18  1  0
 18 19  2  0
 11 20  1  0
 20 21  1  0
 21 22  1  0
 22 23  2  0
 23 24  1  0
 24 25  2  0
 25 26  1  0
 26 27  1  0
 26 28  2  0
 20  2  1  0
 28 22  1  0
  9  3  1  0
 19 14  1  0
  4 29  1  0
  7 30  1  0
  8 31  1  0
 12 32  1  0
 13 33  1  0
 15 34  1  0
 16 35  1  0
 17 36  1  0
 18 37  1  0
 19 38  1  0
 21 39  1  0
 21 40  1  0
 23 41  1  0
 24 42  1  0
 25 43  1  0
 27 44  1  0
 28 45  1  0
M  END
>  <smiles>  (29) 
O=c1c2cc(Cl)ccc2nc(/C=C/c2ccccc2)n1Cc1cccc(O)c1

>  <score_type>  (29) 
oracle

>  <origin>  (29) 
autodockgpu

>  <m_score__min__energy>  (29) 
-8.5099999999999998

>  <m_primary>  (29) 
energy

>  <rmsd>  (29) 
8.775340806146241

>  <m_score__min__rmsd>  (29) 
8.775340806146241

>  <meeko>  (29) 
{"free_energy": -8.06, "intermolecular_energy": -9.85, "internal_energy": -0.99, "cluster_size": 27, "cluster_id": 1, "rank_in_cluster": 9}

>  <energy>  (29) 
-7.56

>  <cluster_rmsd>  (29) 
0.09

>  <cluster>  (29) 
2

$$$$

     RDKit          3D

 45 48  0  0  0  0  0  0  0  0999 V2000
  141.9830   75.1860  218.6120 O   0  0  0  0  0  0  0  0  0  0  0  0
  141.5620   74.9870  219.7810 C   0  0  0  0  0  0  0  0  0  0  0  0
  141.3800   76.0870  220.5730 C   0  0  0  0  0  0  0  0  0  0  0  0
  141.6480   77.3470  220.1010 C   0  0  0  0  0  0  0  0  0  0  0  0
  141.4340   78.4080  220.9740 C   0  0  0  0  0  0  0  0  0  0  0  0
  141.7590   80.0300  220.4250 Cl  0  0  0  0  0  0  0  0  0  0  0  0
  140.9730   78.1780  222.2530 C   0  0  0  0  0  0  0  0  0  0  0  0
  140.7020   76.9000  222.7290 C   0  0  0  0  0  0  0  0  0  0  0  0
  140.9230   75.8680  221.8450 C   0  0  0  0  0  0  0  0  0  0  0  0
  140.6860   74.6310  222.2310 N   0  0  0  0  0  0  0  0  0  0  0  0
  140.8560   73.5110  221.4690 C   0  0  0  0  0  0  0  0  0  0  0  0
  140.5700   72.2750  222.1350 C   0  0  0  0  0  0  0  0  0  0  0  0
  139.7020   71.9510  223.0420 C   0  0  0  0  0  0  0  0  0  0  0  0
  140.0300   71.2370  224.2920 C   0  0  0  0  0  0  0  0  0  0  0  0
  140.7460   71.7940  225.3130 C   0  0  0  0  0  0  0  0  0  0  0  0
  141.0150   71.0480  226.4660 C   0  0  0  0  0  0  0  0  0  0  0  0
  140.5790   69.7480  226.6150 C   0  0  0  0  0  0  0  0  0  0  0  0
  139.8590   69.1880  225.5870 C   0  0  0  0  0  0  0  0  0  0  0  0
  139.6030   69.9320  224.4620 C   0  0  0  0  0  0  0  0  0  0  0  0
  141.2990   73.7040  220.2290 N   0  0  0  0  0  0  0  0  0  0  0  0
  141.5180   72.6920  219.2420 C   0  0  0  0  0  0  0  0  0  0  0  0
  142.8090   72.0080  219.3000 C   0  0  0  0  0  0  0  0  0  0  0  0
  143.0490   70.7180  219.6650 C   0  0  0  0  0  0  0  0  0  0  0  0
  144.3360   70.1590  219.7020 C   0  0  0  0  0  0  0  0  0  0  0  0
  145.4430   70.9060  219.3620 C   0  0  0  0  0  0  0  0  0  0  0  0
  145.2200   72.2120  218.9890 C   0  0  0  0  0  0  0  0  0  0  0  0
  146.3230   73.0110  218.6330 O   0  0  0  0  0  0  0  0  0  0  0  0
  143.9540   72.7470  218.9570 C   0  0  0  0  0  0  0  0  0  0  0  0
  142.0158   77.5107  219.0773 H   0  0  0  0  0  0  0  0  0  0  0  0
  140.8138   79.0371  222.9213 H   0  0  0  0  0  0  0  0  0  0  0  0
  140.3332   76.7241  223.7503 H   0  0  0  0  0  0  0  0  0  0  0  0
  141.2104   71.4399  221.8150 H   0  0  0  0  0  0  0  0  0  0  0  0
  138.6512   72.2264  222.8687 H   0  0  0  0  0  0  0  0  0  0  0  0
  141.1110   72.8283  225.2291 H   0  0  0  0  0  0  0  0  0  0  0  0
  141.5922   71.5129  227.2788 H   0  0  0  0  0  0  0  0  0  0  0  0
  140.8007   69.1769  227.5286 H   0  0  0  0  0  0  0  0  0  0  0  0
  139.4915   68.1541  225.6648 H   0  0  0  0  0  0  0  0  0  0  0  0
  139.0262   69.4645  223.6504 H   0  0  0  0  0  0  0  0  0  0  0  0
  140.7299   71.9334  219.3574 H   0  0  0  0  0  0  0  0  0  0  0  0
  141.5025   73.2140  218.2739 H   0  0  0  0  0  0  0  0  0  0  0  0
  142.1941   70.0844  219.9439 H   0  0  0  0  0  0  0  0  0  0  0  0
  144.4628   69.1097  220.0067 H   0  0  0  0  0  0  0  0  0  0  0  0
  146.4564   70.4790  219.3875 H   0  0  0  0  0  0  0  0  0  0  0  0
  146.1710   74.0310  218.6290 H   0  0  0  0  0  0  0  0  0  0  0  0
  143.8323   73.7964  218.6504 H   0  0  0  0  0  0  0  0  0  0  0  0
  1  2  2  0
  2  3  1  0
  3  4  2  0
  4  5  1  0
  5  6  1  0
  5  7  2  0
  7  8  1  0
  8  9  2  0
  9 10  1  0
 10 11  2  0
 11 12  1  0
 12 13  2  0
 13 14  1  0
 14 15  2  0
 15 16  1  0
 16 17  2  0
 17 18  1  0
 18 19  2  0
 11 20  1  0
 20 21  1  0
 21 22  1  0
 22 23  2  0
 23 24  1  0
 24 25  2  0
 25 26  1  0
 26 27  1  0
 26 28  2  0
 20  2  1  0
 28 22  1  0
  9  3  1  0
 19 14  1  0
  4 29  1  0
  7 30  1  0
  8 31  1  0
 12 32  1  0
 13 33  1  0
 15 34  1  0
 16 35  1  0
 17 36  1  0
 18 37  1  0
 19 38  1  0
 21 39  1  0
 21 40  1  0
 23 41  1  0
 24 42  1  0
 25 43  1  0
 27 44  1  0
 28 45  1  0
M  END
>  <smiles>  (30) 
O=c1c2cc(Cl)ccc2nc(/C=C/c2ccccc2)n1Cc1cccc(O)c1

>  <score_type>  (30) 
oracle

>  <origin>  (30) 
autodockgpu

>  <m_score__min__energy>  (30) 
-8.5099999999999998

>  <m_primary>  (30) 
energy

>  <rmsd>  (30) 
8.670581313193379

>  <m_score__min__rmsd>  (30) 
8.670581313193379

>  <meeko>  (30) 
{"free_energy": -7.99, "intermolecular_energy": -9.78, "internal_energy": -1.01, "cluster_size": 27, "cluster_id": 1, "rank_in_cluster": 13}

>  <energy>  (30) 
-7.46

>  <cluster_rmsd>  (30) 
0.12

>  <cluster>  (30) 
2

$$$$

     RDKit          3D

 45 48  0  0  0  0  0  0  0  0999 V2000
  142.4970   76.4590  219.6840 O   0  0  0  0  0  0  0  0  0  0  0  0
  141.5430   76.2270  220.4710 C   0  0  0  0  0  0  0  0  0  0  0  0
  141.1820   77.2330  221.3260 C   0  0  0  0  0  0  0  0  0  0  0  0
  141.8390   78.4370  221.3130 C   0  0  0  0  0  0  0  0  0  0  0  0
  141.4050   79.4030  222.2140 C   0  0  0  0  0  0  0  0  0  0  0  0
  142.2060   80.9510  222.2400 Cl  0  0  0  0  0  0  0  0  0  0  0  0
  140.3590   79.1370  223.0740 C   0  0  0  0  0  0  0  0  0  0  0  0
  139.6950   77.9150  223.0840 C   0  0  0  0  0  0  0  0  0  0  0  0
  140.1450   76.9780  222.1820 C   0  0  0  0  0  0  0  0  0  0  0  0
  139.5600   75.7980  222.1390 N   0  0  0  0  0  0  0  0  0  0  0  0
  139.8930   74.7730  221.3010 C   0  0  0  0  0  0  0  0  0  0  0  0
  139.1320   73.5710  221.4800 C   0  0  0  0  0  0  0  0  0  0  0  0
  139.4790   72.3320  221.6410 C   0  0  0  0  0  0  0  0  0  0  0  0
  139.6210   71.6720  222.9540 C   0  0  0  0  0  0  0  0  0  0  0  0
  140.6720   71.8880  223.7970 C   0  0  0  0  0  0  0  0  0  0  0  0
  140.7320   71.2210  225.0260 C   0  0  0  0  0  0  0  0  0  0  0  0
  139.7530   70.3370  225.4260 C   0  0  0  0  0  0  0  0  0  0  0  0
  138.6940   70.1190  224.5770 C   0  0  0  0  0  0  0  0  0  0  0  0
  138.6500   70.7810  223.3750 C   0  0  0  0  0  0  0  0  0  0  0  0
  140.8980   75.0020  220.4600 N   0  0  0  0  0  0  0  0  0  0  0  0
  141.3990   74.0960  219.4720 C   0  0  0  0  0  0  0  0  0  0  0  0
  142.6610   73.4310  219.7920 C   0  0  0  0  0  0  0  0  0  0  0  0
  142.9190   72.6000  220.8390 C   0  0  0  0  0  0  0  0  0  0  0  0
  144.1780   72.0220  221.0670 C   0  0  0  0  0  0  0  0  0  0  0  0
  145.2370   72.2750  220.2220 C   0  0  0  0  0  0  0  0  0  0  0  0
  144.9950   73.1120  219.1570 C   0  0  0  0  0  0  0  0  0  0  0  0
  146.0490   73.3970  218.2670 O   0  0  0  0  0  0  0  0  0  0  0  0
  143.7570   73.6710  218.9460 C   0  0  0  0  0  0  0  0  0  0  0  0
  142.6719   78.6297  220.6208 H   0  0  0  0  0  0  0  0  0  0  0  0
  140.0388   79.9200  223.7772 H   0  0  0  0  0  0  0  0  0  0  0  0
  138.8609   77.7099  223.7711 H   0  0  0  0  0  0  0  0  0  0  0  0
  138.0437   73.7308  221.4809 H   0  0  0  0  0  0  0  0  0  0  0  0
  139.6808   71.7335  220.7404 H   0  0  0  0  0  0  0  0  0  0  0  0
  141.4722   72.5864  223.5107 H   0  0  0  0  0  0  0  0  0  0  0  0
  141.5865   71.4080  225.6930 H   0  0  0  0  0  0  0  0  0  0  0  0
  139.8172   69.8214  226.3955 H   0  0  0  0  0  0  0  0  0  0  0  0
  137.8907   69.4219  224.8576 H   0  0  0  0  0  0  0  0  0  0  0  0
  137.7948   70.5924  222.7094 H   0  0  0  0  0  0  0  0  0  0  0  0
  140.6389   73.3168  219.3139 H   0  0  0  0  0  0  0  0  0  0  0  0
  141.6054   74.7111  218.5837 H   0  0  0  0  0  0  0  0  0  0  0  0
  142.1025   72.3706  221.5395 H   0  0  0  0  0  0  0  0  0  0  0  0
  144.3212   71.3579  221.9322 H   0  0  0  0  0  0  0  0  0  0  0  0
  146.2283   71.8291  220.3909 H   0  0  0  0  0  0  0  0  0  0  0  0
  146.0520   74.3380  217.8440 H   0  0  0  0  0  0  0  0  0  0  0  0
  143.6186   74.3336  218.0790 H   0  0  0  0  0  0  0  0  0  0  0  0
  1  2  2  0
  2  3  1  0
  3  4  2  0
  4  5  1  0
  5  6  1  0
  5  7  2  0
  7  8  1  0
  8  9  2  0
  9 10  1  0
 10 11  2  0
 11 12  1  0
 12 13  2  0
 13 14  1  0
 14 15  2  0
 15 16  1  0
 16 17  2  0
 17 18  1  0
 18 19  2  0
 11 20  1  0
 20 21  1  0
 21 22  1  0
 22 23  2  0
 23 24  1  0
 24 25  2  0
 25 26  1  0
 26 27  1  0
 26 28  2  0
 20  2  1  0
 28 22  1  0
  9  3  1  0
 19 14  1  0
  4 29  1  0
  7 30  1  0
  8 31  1  0
 12 32  1  0
 13 33  1  0
 15 34  1  0
 16 35  1  0
 17 36  1  0
 18 37  1  0
 19 38  1  0
 21 39  1  0
 21 40  1  0
 23 41  1  0
 24 42  1  0
 25 43  1  0
 27 44  1  0
 28 45  1  0
M  END
>  <smiles>  (31) 
O=c1c2cc(Cl)ccc2nc(/C=C/c2ccccc2)n1Cc1cccc(O)c1

>  <score_type>  (31) 
oracle

>  <origin>  (31) 
autodockgpu

>  <m_score__min__energy>  (31) 
-8.5099999999999998

>  <m_primary>  (31) 
energy

>  <rmsd>  (31) 
7.810661121371048

>  <m_score__min__rmsd>  (31) 
7.810661121371048

>  <meeko>  (31) 
{"free_energy": -7.5, "intermolecular_energy": -9.29, "internal_energy": -1.3, "cluster_size": 27, "cluster_id": 1, "rank_in_cluster": 27}

>  <energy>  (31) 
-7.23

>  <cluster_rmsd>  (31) 
0.0

>  <cluster>  (31) 
3

$$$$

     RDKit          3D

 45 48  0  0  0  0  0  0  0  0999 V2000
  142.6920   76.1720  219.4320 O   0  0  0  0  0  0  0  0  0  0  0  0
  141.8600   75.9010  220.3350 C   0  0  0  0  0  0  0  0  0  0  0  0
  141.3280   76.9530  221.0290 C   0  0  0  0  0  0  0  0  0  0  0  0
  141.6940   78.2440  220.7400 C   0  0  0  0  0  0  0  0  0  0  0  0
  141.1030   79.2510  221.4940 C   0  0  0  0  0  0  0  0  0  0  0  0
  141.5330   80.9090  221.1690 Cl  0  0  0  0  0  0  0  0  0  0  0  0
  140.1930   78.9420  222.4830 C   0  0  0  0  0  0  0  0  0  0  0  0
  139.8230   77.6330  222.7730 C   0  0  0  0  0  0  0  0  0  0  0  0
  140.4230   76.6550  222.0120 C   0  0  0  0  0  0  0  0  0  0  0  0
  140.1180   75.3940  222.2350 N   0  0  0  0  0  0  0  0  0  0  0  0
  140.6280   74.3190  221.5640 C   0  0  0  0  0  0  0  0  0  0  0  0
  140.1680   73.0420  222.0240 C   0  0  0  0  0  0  0  0  0  0  0  0
  140.7840   72.0280  222.5470 C   0  0  0  0  0  0  0  0  0  0  0  0
  140.3700   71.3560  223.7950 C   0  0  0  0  0  0  0  0  0  0  0  0
  141.0220   71.5080  224.9860 C   0  0  0  0  0  0  0  0  0  0  0  0
  140.5650   70.8350  226.1240 C   0  0  0  0  0  0  0  0  0  0  0  0
  139.4620   70.0070  226.0900 C   0  0  0  0  0  0  0  0  0  0  0  0
  138.8070   69.8540  224.8920 C   0  0  0  0  0  0  0  0  0  0  0  0
  139.2680   70.5210  223.7840 C   0  0  0  0  0  0  0  0  0  0  0  0
  141.5080   74.5880  220.6030 N   0  0  0  0  0  0  0  0  0  0  0  0
  142.1460   73.6350  219.7480 C   0  0  0  0  0  0  0  0  0  0  0  0
  143.5650   73.3920  220.0030 C   0  0  0  0  0  0  0  0  0  0  0  0
  144.3860   74.0820  220.8420 C   0  0  0  0  0  0  0  0  0  0  0  0
  145.7470   73.7760  221.0040 C   0  0  0  0  0  0  0  0  0  0  0  0
  146.3290   72.7400  220.3060 C   0  0  0  0  0  0  0  0  0  0  0  0
  145.5130   72.0300  219.4540 C   0  0  0  0  0  0  0  0  0  0  0  0
  146.0660   70.9620  218.7210 O   0  0  0  0  0  0  0  0  0  0  0  0
  144.1820   72.3410  219.3040 C   0  0  0  0  0  0  0  0  0  0  0  0
  142.4221   78.4714  219.9475 H   0  0  0  0  0  0  0  0  0  0  0  0
  139.7433   79.7608  223.0638 H   0  0  0  0  0  0  0  0  0  0  0  0
  139.0952   77.3937  223.5624 H   0  0  0  0  0  0  0  0  0  0  0  0
  139.0839   72.8936  221.9118 H   0  0  0  0  0  0  0  0  0  0  0  0
  141.6735   71.6430  222.0268 H   0  0  0  0  0  0  0  0  0  0  0  0
  141.9061   72.1594  225.0500 H   0  0  0  0  0  0  0  0  0  0  0  0
  141.1014   70.9701  227.0748 H   0  0  0  0  0  0  0  0  0  0  0  0
  139.1173   69.4850  226.9948 H   0  0  0  0  0  0  0  0  0  0  0  0
  137.9225   69.2039  224.8213 H   0  0  0  0  0  0  0  0  0  0  0  0
  138.7304   70.3834  222.8342 H   0  0  0  0  0  0  0  0  0  0  0  0
  141.6159   72.6774  219.8573 H   0  0  0  0  0  0  0  0  0  0  0  0
  142.0965   74.0650  218.7367 H   0  0  0  0  0  0  0  0  0  0  0  0
  143.9638   74.9176  221.4195 H   0  0  0  0  0  0  0  0  0  0  0  0
  146.3575   74.3720  221.6983 H   0  0  0  0  0  0  0  0  0  0  0  0
  147.3942   72.4922  220.4239 H   0  0  0  0  0  0  0  0  0  0  0  0
  145.4010   70.2700  218.3430 H   0  0  0  0  0  0  0  0  0  0  0  0
  143.5756   71.7425  218.6083 H   0  0  0  0  0  0  0  0  0  0  0  0
  1  2  2  0
  2  3  1  0
  3  4  2  0
  4  5  1  0
  5  6  1  0
  5  7  2  0
  7  8  1  0
  8  9  2  0
  9 10  1  0
 10 11  2  0
 11 12  1  0
 12 13  2  0
 13 14  1  0
 14 15  2  0
 15 16  1  0
 16 17  2  0
 17 18  1  0
 18 19  2  0
 11 20  1  0
 20 21  1  0
 21 22  1  0
 22 23  2  0
 23 24  1  0
 24 25  2  0
 25 26  1  0
 26 27  1  0
 26 28  2  0
 20  2  1  0
 28 22  1  0
  9  3  1  0
 19 14  1  0
  4 29  1  0
  7 30  1  0
  8 31  1  0
 12 32  1  0
 13 33  1  0
 15 34  1  0
 16 35  1  0
 17 36  1  0
 18 37  1  0
 19 38  1  0
 21 39  1  0
 21 40  1  0
 23 41  1  0
 24 42  1  0
 25 43  1  0
 27 44  1  0
 28 45  1  0
M  END
>  <smiles>  (32) 
O=c1c2cc(Cl)ccc2nc(/C=C/c2ccccc2)n1Cc1cccc(O)c1

>  <score_type>  (32) 
oracle

>  <origin>  (32) 
autodockgpu

>  <m_score__min__energy>  (32) 
-8.5099999999999998

>  <m_primary>  (32) 
energy

>  <rmsd>  (32) 
7.938127995358303

>  <m_score__min__rmsd>  (32) 
7.938127995358303

>  <meeko>  (32) 
{"free_energy": -7.85, "intermolecular_energy": -9.64, "internal_energy": -0.98, "cluster_size": 27, "cluster_id": 1, "rank_in_cluster": 20}

>  <energy>  (32) 
-7.22

>  <cluster_rmsd>  (32) 
0.7

>  <cluster>  (32) 
3

$$$$

     RDKit          3D

 45 48  0  0  0  0  0  0  0  0999 V2000
  143.6920   76.7530  219.4290 O   0  0  0  0  0  0  0  0  0  0  0  0
  142.7710   76.2180  220.0990 C   0  0  0  0  0  0  0  0  0  0  0  0
  142.8520   74.8680  220.3020 C   0  0  0  0  0  0  0  0  0  0  0  0
  143.8990   74.1410  219.7940 C   0  0  0  0  0  0  0  0  0  0  0  0
  143.9020   72.7740  220.0500 C   0  0  0  0  0  0  0  0  0  0  0  0
  145.2080   71.8030  219.4270 Cl  0  0  0  0  0  0  0  0  0  0  0  0
  142.8860   72.1990  220.7850 C   0  0  0  0  0  0  0  0  0  0  0  0
  141.8270   72.9380  221.2990 C   0  0  0  0  0  0  0  0  0  0  0  0
  141.8480   74.2880  221.0310 C   0  0  0  0  0  0  0  0  0  0  0  0
  140.8750   75.0480  221.4890 N   0  0  0  0  0  0  0  0  0  0  0  0
  140.7610   76.3960  221.3050 C   0  0  0  0  0  0  0  0  0  0  0  0
  139.5830   76.9880  221.8670 C   0  0  0  0  0  0  0  0  0  0  0  0
  139.4100   77.9170  222.7550 C   0  0  0  0  0  0  0  0  0  0  0  0
  140.3450   79.0370  222.9810 C   0  0  0  0  0  0  0  0  0  0  0  0
  140.0750   80.3280  222.6280 C   0  0  0  0  0  0  0  0  0  0  0  0
  141.0160   81.3330  222.8770 C   0  0  0  0  0  0  0  0  0  0  0  0
  142.2290   81.0660  223.4760 C   0  0  0  0  0  0  0  0  0  0  0  0
  142.5010   79.7660  223.8320 C   0  0  0  0  0  0  0  0  0  0  0  0
  141.5670   78.7920  223.5800 C   0  0  0  0  0  0  0  0  0  0  0  0
  141.7280   76.9780  220.6010 N   0  0  0  0  0  0  0  0  0  0  0  0
  141.8410   78.3750  220.3100 C   0  0  0  0  0  0  0  0  0  0  0  0
  141.7240   78.7490  218.9020 C   0  0  0  0  0  0  0  0  0  0  0  0
  141.0790   78.0690  217.9140 C   0  0  0  0  0  0  0  0  0  0  0  0
  141.0390   78.5090  216.5810 C   0  0  0  0  0  0  0  0  0  0  0  0
  141.6630   79.6770  216.2020 C   0  0  0  0  0  0  0  0  0  0  0  0
  142.3190   80.3790  217.1880 C   0  0  0  0  0  0  0  0  0  0  0  0
  142.9700   81.5800  216.8440 O   0  0  0  0  0  0  0  0  0  0  0  0
  142.3510   79.9360  218.4880 C   0  0  0  0  0  0  0  0  0  0  0  0
  144.7001   74.6181  219.2104 H   0  0  0  0  0  0  0  0  0  0  0  0
  142.9151   71.1153  220.9712 H   0  0  0  0  0  0  0  0  0  0  0  0
  141.0207   72.4722  221.8846 H   0  0  0  0  0  0  0  0  0  0  0  0
  138.6448   76.5747  221.4683 H   0  0  0  0  0  0  0  0  0  0  0  0
  138.5070   77.8673  223.3812 H   0  0  0  0  0  0  0  0  0  0  0  0
  139.1175   80.5780  222.1478 H   0  0  0  0  0  0  0  0  0  0  0  0
  140.7811   82.3675  222.5861 H   0  0  0  0  0  0  0  0  0  0  0  0
  142.9572   81.8689  223.6634 H   0  0  0  0  0  0  0  0  0  0  0  0
  143.4563   79.5094  224.3133 H   0  0  0  0  0  0  0  0  0  0  0  0
  141.8041   77.7581  223.8711 H   0  0  0  0  0  0  0  0  0  0  0  0
  141.0484   78.8991  220.8641 H   0  0  0  0  0  0  0  0  0  0  0  0
  142.8616   78.6576  220.6074 H   0  0  0  0  0  0  0  0  0  0  0  0
  140.5653   77.1312  218.1722 H   0  0  0  0  0  0  0  0  0  0  0  0
  140.5018   77.9125  215.8289 H   0  0  0  0  0  0  0  0  0  0  0  0
  141.6383   80.0320  215.1611 H   0  0  0  0  0  0  0  0  0  0  0  0
  143.8040   81.4950  216.2420 H   0  0  0  0  0  0  0  0  0  0  0  0
  142.8901   80.5358  219.2360 H   0  0  0  0  0  0  0  0  0  0  0  0
  1  2  2  0
  2  3  1  0
  3  4  2  0
  4  5  1  0
  5  6  1  0
  5  7  2  0
  7  8  1  0
  8  9  2  0
  9 10  1  0
 10 11  2  0
 11 12  1  0
 12 13  2  0
 13 14  1  0
 14 15  2  0
 15 16  1  0
 16 17  2  0
 17 18  1  0
 18 19  2  0
 11 20  1  0
 20 21  1  0
 21 22  1  0
 22 23  2  0
 23 24  1  0
 24 25  2  0
 25 26  1  0
 26 27  1  0
 26 28  2  0
 20  2  1  0
 28 22  1  0
  9  3  1  0
 19 14  1  0
  4 29  1  0
  7 30  1  0
  8 31  1  0
 12 32  1  0
 13 33  1  0
 15 34  1  0
 16 35  1  0
 17 36  1  0
 18 37  1  0
 19 38  1  0
 21 39  1  0
 21 40  1  0
 23 41  1  0
 24 42  1  0
 25 43  1  0
 27 44  1  0
 28 45  1  0
M  END
>  <smiles>  (33) 
O=c1c2cc(Cl)ccc2nc(/C=C/c2ccccc2)n1Cc1cccc(O)c1

>  <score_type>  (33) 
oracle

>  <origin>  (33) 
autodockgpu

>  <m_score__min__energy>  (33) 
-8.5099999999999998

>  <m_primary>  (33) 
energy

>  <rmsd>  (33) 
4.646222153035292

>  <m_score__min__rmsd>  (33) 
4.646222153035292

>  <meeko>  (33) 
{"free_energy": -7.18, "intermolecular_energy": -8.97, "internal_energy": -1.44, "cluster_size": 11, "cluster_id": 3, "rank_in_cluster": 4}

>  <energy>  (33) 
-7.2

>  <cluster_rmsd>  (33) 
0.73

>  <cluster>  (33) 
3

$$$$

     RDKit          3D

 45 48  0  0  0  0  0  0  0  0999 V2000
  142.5660   75.0730  219.4480 O   0  0  0  0  0  0  0  0  0  0  0  0
  141.7340   75.0000  220.3880 C   0  0  0  0  0  0  0  0  0  0  0  0
  141.2040   76.1750  220.8440 C   0  0  0  0  0  0  0  0  0  0  0  0
  141.5710   77.3760  220.2900 C   0  0  0  0  0  0  0  0  0  0  0  0
  140.9810   78.5200  220.8140 C   0  0  0  0  0  0  0  0  0  0  0  0
  141.4130   80.0710  220.1470 Cl  0  0  0  0  0  0  0  0  0  0  0  0
  140.0710   78.4270  221.8460 C   0  0  0  0  0  0  0  0  0  0  0  0
  139.7000   77.2100  222.4060 C   0  0  0  0  0  0  0  0  0  0  0  0
  140.2990   76.0930  221.8680 C   0  0  0  0  0  0  0  0  0  0  0  0
  139.9930   74.9060  222.3520 N   0  0  0  0  0  0  0  0  0  0  0  0
  140.5010   73.7140  221.9220 C   0  0  0  0  0  0  0  0  0  0  0  0
  140.0410   72.5630  222.6420 C   0  0  0  0  0  0  0  0  0  0  0  0
  140.6660   71.5790  223.2100 C   0  0  0  0  0  0  0  0  0  0  0  0
  140.5060   71.1980  224.6270 C   0  0  0  0  0  0  0  0  0  0  0  0
  141.0800   71.8800  225.6610 C   0  0  0  0  0  0  0  0  0  0  0  0
  140.8790   71.4530  226.9780 C   0  0  0  0  0  0  0  0  0  0  0  0
  140.1090   70.3490  227.2790 C   0  0  0  0  0  0  0  0  0  0  0  0
  139.5310   69.6620  226.2380 C   0  0  0  0  0  0  0  0  0  0  0  0
  139.7380   70.0940  224.9520 C   0  0  0  0  0  0  0  0  0  0  0  0
  141.3820   73.7740  220.9260 N   0  0  0  0  0  0  0  0  0  0  0  0
  142.0190   72.6610  220.2920 C   0  0  0  0  0  0  0  0  0  0  0  0
  143.4810   72.6650  220.3050 C   0  0  0  0  0  0  0  0  0  0  0  0
  144.3010   73.3740  221.1280 C   0  0  0  0  0  0  0  0  0  0  0  0
  145.7020   73.3190  221.0480 C   0  0  0  0  0  0  0  0  0  0  0  0
  146.3260   72.5260  220.1100 C   0  0  0  0  0  0  0  0  0  0  0  0
  145.5130   71.8000  219.2690 C   0  0  0  0  0  0  0  0  0  0  0  0
  146.1100   70.9750  218.2960 O   0  0  0  0  0  0  0  0  0  0  0  0
  144.1430   71.8640  219.3590 C   0  0  0  0  0  0  0  0  0  0  0  0
  142.2997   77.4306  219.4678 H   0  0  0  0  0  0  0  0  0  0  0  0
  139.6220   79.3503  222.2408 H   0  0  0  0  0  0  0  0  0  0  0  0
  138.9726   77.1434  223.2284 H   0  0  0  0  0  0  0  0  0  0  0  0
  138.9461   72.5028  222.7296 H   0  0  0  0  0  0  0  0  0  0  0  0
  141.3616   70.9891  222.5950 H   0  0  0  0  0  0  0  0  0  0  0  0
  141.7006   72.7654  225.4586 H   0  0  0  0  0  0  0  0  0  0  0  0
  141.3494   72.0148  227.7984 H   0  0  0  0  0  0  0  0  0  0  0  0
  139.9618   70.0279  228.3208 H   0  0  0  0  0  0  0  0  0  0  0  0
  138.9094   68.7758  226.4337 H   0  0  0  0  0  0  0  0  0  0  0  0
  139.2666   69.5306  224.1332 H   0  0  0  0  0  0  0  0  0  0  0  0
  141.6807   71.7458  220.7999 H   0  0  0  0  0  0  0  0  0  0  0  0
  141.7323   72.7204  219.2317 H   0  0  0  0  0  0  0  0  0  0  0  0
  143.8448   74.0207  221.8920 H   0  0  0  0  0  0  0  0  0  0  0  0
  146.3092   73.9170  221.7435 H   0  0  0  0  0  0  0  0  0  0  0  0
  147.4224   72.4753  220.0365 H   0  0  0  0  0  0  0  0  0  0  0  0
  145.4830   70.3300  217.7920 H   0  0  0  0  0  0  0  0  0  0  0  0
  143.5400   71.2636  218.6619 H   0  0  0  0  0  0  0  0  0  0  0  0
  1  2  2  0
  2  3  1  0
  3  4  2  0
  4  5  1  0
  5  6  1  0
  5  7  2  0
  7  8  1  0
  8  9  2  0
  9 10  1  0
 10 11  2  0
 11 12  1  0
 12 13  2  0
 13 14  1  0
 14 15  2  0
 15 16  1  0
 16 17  2  0
 17 18  1  0
 18 19  2  0
 11 20  1  0
 20 21  1  0
 21 22  1  0
 22 23  2  0
 23 24  1  0
 24 25  2  0
 25 26  1  0
 26 27  1  0
 26 28  2  0
 20  2  1  0
 28 22  1  0
  9  3  1  0
 19 14  1  0
  4 29  1  0
  7 30  1  0
  8 31  1  0
 12 32  1  0
 13 33  1  0
 15 34  1  0
 16 35  1  0
 17 36  1  0
 18 37  1  0
 19 38  1  0
 21 39  1  0
 21 40  1  0
 23 41  1  0
 24 42  1  0
 25 43  1  0
 27 44  1  0
 28 45  1  0
M  END
>  <smiles>  (34) 
O=c1c2cc(Cl)ccc2nc(/C=C/c2ccccc2)n1Cc1cccc(O)c1

>  <score_type>  (34) 
oracle

>  <origin>  (34) 
autodockgpu

>  <m_score__min__energy>  (34) 
-8.5099999999999998

>  <m_primary>  (34) 
energy

>  <rmsd>  (34) 
8.131591834621384

>  <m_score__min__rmsd>  (34) 
8.131591834621384

>  <meeko>  (34) 
{"free_energy": -7.93, "intermolecular_energy": -9.72, "internal_energy": -0.85, "cluster_size": 27, "cluster_id": 1, "rank_in_cluster": 16}

>  <energy>  (34) 
-7.18

>  <cluster_rmsd>  (34) 
0.12

>  <cluster>  (34) 
3

$$$$

     RDKit          3D

 45 48  0  0  0  0  0  0  0  0999 V2000
  142.6120   75.6520  219.5960 O   0  0  0  0  0  0  0  0  0  0  0  0
  141.7460   75.4130  220.4770 C   0  0  0  0  0  0  0  0  0  0  0  0
  141.1610   76.4910  221.0830 C   0  0  0  0  0  0  0  0  0  0  0  0
  141.5110   77.7710  220.7350 C   0  0  0  0  0  0  0  0  0  0  0  0
  140.8640   78.8060  221.4010 C   0  0  0  0  0  0  0  0  0  0  0  0
  141.2720   80.4520  220.9970 Cl  0  0  0  0  0  0  0  0  0  0  0  0
  139.9170   78.5320  222.3660 C   0  0  0  0  0  0  0  0  0  0  0  0
  139.5640   77.2340  222.7160 C   0  0  0  0  0  0  0  0  0  0  0  0
  140.2190   76.2280  222.0420 C   0  0  0  0  0  0  0  0  0  0  0  0
  139.9320   74.9740  222.3250 N   0  0  0  0  0  0  0  0  0  0  0  0
  140.4960   73.8760  221.7420 C   0  0  0  0  0  0  0  0  0  0  0  0
  140.0450   72.6170  222.2570 C   0  0  0  0  0  0  0  0  0  0  0  0
  140.6700   71.6200  222.8010 C   0  0  0  0  0  0  0  0  0  0  0  0
  140.4190   71.1260  224.1700 C   0  0  0  0  0  0  0  0  0  0  0  0
  141.0030   71.6600  225.2830 C   0  0  0  0  0  0  0  0  0  0  0  0
  140.7110   71.1340  226.5460 C   0  0  0  0  0  0  0  0  0  0  0  0
  139.8410   70.0770  226.7150 C   0  0  0  0  0  0  0  0  0  0  0  0
  139.2540   69.5400  225.5940 C   0  0  0  0  0  0  0  0  0  0  0  0
  139.5500   70.0670  224.3620 C   0  0  0  0  0  0  0  0  0  0  0  0
  141.4130   74.1100  220.8060 N   0  0  0  0  0  0  0  0  0  0  0  0
  142.1090   73.1250  220.0380 C   0  0  0  0  0  0  0  0  0  0  0  0
  143.5690   73.1700  220.1080 C   0  0  0  0  0  0  0  0  0  0  0  0
  144.3420   73.3020  221.2200 C   0  0  0  0  0  0  0  0  0  0  0  0
  145.7450   73.3510  221.1780 C   0  0  0  0  0  0  0  0  0  0  0  0
  146.4200   73.2660  219.9800 C   0  0  0  0  0  0  0  0  0  0  0  0
  145.6550   73.1320  218.8430 C   0  0  0  0  0  0  0  0  0  0  0  0
  146.3040   73.0410  217.5970 O   0  0  0  0  0  0  0  0  0  0  0  0
  144.2820   73.0850  218.9000 C   0  0  0  0  0  0  0  0  0  0  0  0
  142.2696   77.9697  219.9636 H   0  0  0  0  0  0  0  0  0  0  0  0
  139.4232   79.3715  222.8772 H   0  0  0  0  0  0  0  0  0  0  0  0
  138.8067   77.0232  223.4854 H   0  0  0  0  0  0  0  0  0  0  0  0
  138.9583   72.4677  222.1748 H   0  0  0  0  0  0  0  0  0  0  0  0
  141.4384   71.1079  222.2032 H   0  0  0  0  0  0  0  0  0  0  0  0
  141.7027   72.5033  225.1865 H   0  0  0  0  0  0  0  0  0  0  0  0
  141.1900   71.5770  227.4316 H   0  0  0  0  0  0  0  0  0  0  0  0
  139.6236   69.6761  227.7160 H   0  0  0  0  0  0  0  0  0  0  0  0
  138.5540   68.6962  225.6836 H   0  0  0  0  0  0  0  0  0  0  0  0
  139.0695   69.6226  223.4779 H   0  0  0  0  0  0  0  0  0  0  0  0
  141.7858   72.1341  220.3897 H   0  0  0  0  0  0  0  0  0  0  0  0
  141.8563   73.3352  218.9882 H   0  0  0  0  0  0  0  0  0  0  0  0
  143.8444   73.3738  222.1984 H   0  0  0  0  0  0  0  0  0  0  0  0
  146.3125   73.4587  222.1141 H   0  0  0  0  0  0  0  0  0  0  0  0
  147.5184   73.3034  219.9340 H   0  0  0  0  0  0  0  0  0  0  0  0
  145.9290   73.6300  216.8380 H   0  0  0  0  0  0  0  0  0  0  0  0
  143.7186   72.9764  217.9615 H   0  0  0  0  0  0  0  0  0  0  0  0
  1  2  2  0
  2  3  1  0
  3  4  2  0
  4  5  1  0
  5  6  1  0
  5  7  2  0
  7  8  1  0
  8  9  2  0
  9 10  1  0
 10 11  2  0
 11 12  1  0
 12 13  2  0
 13 14  1  0
 14 15  2  0
 15 16  1  0
 16 17  2  0
 17 18  1  0
 18 19  2  0
 11 20  1  0
 20 21  1  0
 21 22  1  0
 22 23  2  0
 23 24  1  0
 24 25  2  0
 25 26  1  0
 26 27  1  0
 26 28  2  0
 20  2  1  0
 28 22  1  0
  9  3  1  0
 19 14  1  0
  4 29  1  0
  7 30  1  0
  8 31  1  0
 12 32  1  0
 13 33  1  0
 15 34  1  0
 16 35  1  0
 17 36  1  0
 18 37  1  0
 19 38  1  0
 21 39  1  0
 21 40  1  0
 23 41  1  0
 24 42  1  0
 25 43  1  0
 27 44  1  0
 28 45  1  0
M  END
>  <smiles>  (35) 
O=c1c2cc(Cl)ccc2nc(/C=C/c2ccccc2)n1Cc1cccc(O)c1

>  <score_type>  (35) 
oracle

>  <origin>  (35) 
autodockgpu

>  <m_score__min__energy>  (35) 
-8.5099999999999998

>  <m_primary>  (35) 
energy

>  <rmsd>  (35) 
7.874229631675715

>  <m_score__min__rmsd>  (35) 
7.874229631675715

>  <meeko>  (35) 
{"free_energy": -8.21, "intermolecular_energy": -10.0, "internal_energy": -0.95, "cluster_size": 27, "cluster_id": 1, "rank_in_cluster": 5}

>  <energy>  (35) 
-6.73

>  <cluster_rmsd>  (35) 
1.99

>  <cluster>  (35) 
3

$$$$

     RDKit          3D

 45 48  0  0  0  0  0  0  0  0999 V2000
  141.9520   74.9160  218.6450 O   0  0  0  0  0  0  0  0  0  0  0  0
  141.5450   74.7530  219.8240 C   0  0  0  0  0  0  0  0  0  0  0  0
  141.3680   75.8770  220.5830 C   0  0  0  0  0  0  0  0  0  0  0  0
  141.6250   77.1220  220.0680 C   0  0  0  0  0  0  0  0  0  0  0  0
  141.4170   78.2100  220.9090 C   0  0  0  0  0  0  0  0  0  0  0  0
  141.7300   79.8140  220.3050 Cl  0  0  0  0  0  0  0  0  0  0  0  0
  140.9710   78.0190  222.2010 C   0  0  0  0  0  0  0  0  0  0  0  0
  140.7100   76.7550  222.7200 C   0  0  0  0  0  0  0  0  0  0  0  0
  140.9250   75.6970  221.8660 C   0  0  0  0  0  0  0  0  0  0  0  0
  140.6970   74.4720  222.2940 N   0  0  0  0  0  0  0  0  0  0  0  0
  140.8630   73.3290  221.5660 C   0  0  0  0  0  0  0  0  0  0  0  0
  140.5900   72.1130  222.2750 C   0  0  0  0  0  0  0  0  0  0  0  0
  139.6480   71.7750  223.1000 C   0  0  0  0  0  0  0  0  0  0  0  0
  139.8820   71.1720  224.4270 C   0  0  0  0  0  0  0  0  0  0  0  0
  139.3090   70.0010  224.8350 C   0  0  0  0  0  0  0  0  0  0  0  0
  139.5830   69.4970  226.1100 C   0  0  0  0  0  0  0  0  0  0  0  0
  140.4230   70.1470  226.9900 C   0  0  0  0  0  0  0  0  0  0  0  0
  140.9990   71.3250  226.5790 C   0  0  0  0  0  0  0  0  0  0  0  0
  140.7210   71.8080  225.3250 C   0  0  0  0  0  0  0  0  0  0  0  0
  141.2920   73.4830  220.3160 N   0  0  0  0  0  0  0  0  0  0  0  0
  141.5040   72.4410  219.3590 C   0  0  0  0  0  0  0  0  0  0  0  0
  142.8270   71.8180  219.3720 C   0  0  0  0  0  0  0  0  0  0  0  0
  143.1350   70.5320  219.6950 C   0  0  0  0  0  0  0  0  0  0  0  0
  144.4480   70.0340  219.6910 C   0  0  0  0  0  0  0  0  0  0  0  0
  145.5100   70.8420  219.3500 C   0  0  0  0  0  0  0  0  0  0  0  0
  145.2180   72.1460  219.0180 C   0  0  0  0  0  0  0  0  0  0  0  0
  146.2750   73.0060  218.6630 O   0  0  0  0  0  0  0  0  0  0  0  0
  143.9280   72.6200  219.0270 C   0  0  0  0  0  0  0  0  0  0  0  0
  141.9800   77.2541  219.0353 H   0  0  0  0  0  0  0  0  0  0  0  0
  140.8163   78.8982  222.8437 H   0  0  0  0  0  0  0  0  0  0  0  0
  140.3534   76.6097  223.7504 H   0  0  0  0  0  0  0  0  0  0  0  0
  141.3198   71.3129  222.0821 H   0  0  0  0  0  0  0  0  0  0  0  0
  138.6068   71.9490  222.7907 H   0  0  0  0  0  0  0  0  0  0  0  0
  138.6326   69.4550  224.1610 H   0  0  0  0  0  0  0  0  0  0  0  0
  139.1137   68.5521  226.4212 H   0  0  0  0  0  0  0  0  0  0  0  0
  140.6255   69.7352  227.9897 H   0  0  0  0  0  0  0  0  0  0  0  0
  141.6763   71.8754  227.2486 H   0  0  0  0  0  0  0  0  0  0  0  0
  141.1913   72.7533  225.0165 H   0  0  0  0  0  0  0  0  0  0  0  0
  140.7594   71.6537  219.5482 H   0  0  0  0  0  0  0  0  0  0  0  0
  141.4117   72.9204  218.3733 H   0  0  0  0  0  0  0  0  0  0  0  0
  142.3169   69.8509  219.9722 H   0  0  0  0  0  0  0  0  0  0  0  0
  144.6308   68.9842  219.9639 H   0  0  0  0  0  0  0  0  0  0  0  0
  146.5428   70.4634  219.3432 H   0  0  0  0  0  0  0  0  0  0  0  0
  146.0590   74.0150  218.6380 H   0  0  0  0  0  0  0  0  0  0  0  0
  143.7501   73.6703  218.7529 H   0  0  0  0  0  0  0  0  0  0  0  0
  1  2  2  0
  2  3  1  0
  3  4  2  0
  4  5  1  0
  5  6  1  0
  5  7  2  0
  7  8  1  0
  8  9  2  0
  9 10  1  0
 10 11  2  0
 11 12  1  0
 12 13  2  0
 13 14  1  0
 14 15  2  0
 15 16  1  0
 16 17  2  0
 17 18  1  0
 18 19  2  0
 11 20  1  0
 20 21  1  0
 21 22  1  0
 22 23  2  0
 23 24  1  0
 24 25  2  0
 25 26  1  0
 26 27  1  0
 26 28  2  0
 20  2  1  0
 28 22  1  0
  9  3  1  0
 19 14  1  0
  4 29  1  0
  7 30  1  0
  8 31  1  0
 12 32  1  0
 13 33  1  0
 15 34  1  0
 16 35  1  0
 17 36  1  0
 18 37  1  0
 19 38  1  0
 21 39  1  0
 21 40  1  0
 23 41  1  0
 24 42  1  0
 25 43  1  0
 27 44  1  0
 28 45  1  0
M  END
>  <smiles>  (36) 
O=c1c2cc(Cl)ccc2nc(/C=C/c2ccccc2)n1Cc1cccc(O)c1

>  <score_type>  (36) 
oracle

>  <origin>  (36) 
autodockgpu

>  <m_score__min__energy>  (36) 
-8.5099999999999998

>  <m_primary>  (36) 
energy

>  <rmsd>  (36) 
8.763970995842952

>  <m_score__min__rmsd>  (36) 
8.763970995842952

>  <meeko>  (36) 
{"free_energy": -8.04, "intermolecular_energy": -9.83, "internal_energy": -0.99, "cluster_size": 27, "cluster_id": 1, "rank_in_cluster": 11}

>  <energy>  (36) 
-6.67

>  <cluster_rmsd>  (36) 
1.9

>  <cluster>  (36) 
3

$$$$

     RDKit          3D

 45 48  0  0  0  0  0  0  0  0999 V2000
  141.8760   75.3680  218.7880 O   0  0  0  0  0  0  0  0  0  0  0  0
  141.3620   75.2510  219.9290 C   0  0  0  0  0  0  0  0  0  0  0  0
  141.1940   76.3970  220.6580 C   0  0  0  0  0  0  0  0  0  0  0  0
  141.5730   77.6140  220.1510 C   0  0  0  0  0  0  0  0  0  0  0  0
  141.3650   78.7270  220.9590 C   0  0  0  0  0  0  0  0  0  0  0  0
  141.8290   80.2980  220.3650 Cl  0  0  0  0  0  0  0  0  0  0  0  0
  140.8010   78.5860  222.2100 C   0  0  0  0  0  0  0  0  0  0  0  0
  140.4180   77.3510  222.7210 C   0  0  0  0  0  0  0  0  0  0  0  0
  140.6350   76.2670  221.9010 C   0  0  0  0  0  0  0  0  0  0  0  0
  140.2940   75.0660  222.3220 N   0  0  0  0  0  0  0  0  0  0  0  0
  140.4470   73.9030  221.6240 C   0  0  0  0  0  0  0  0  0  0  0  0
  140.0380   72.7190  222.3210 C   0  0  0  0  0  0  0  0  0  0  0  0
  140.7040   71.7300  222.8310 C   0  0  0  0  0  0  0  0  0  0  0  0
  140.3880   71.0930  224.1250 C   0  0  0  0  0  0  0  0  0  0  0  0
  139.4710   70.0910  224.2680 C   0  0  0  0  0  0  0  0  0  0  0  0
  139.2300   69.5400  225.5310 C   0  0  0  0  0  0  0  0  0  0  0  0
  139.8940   69.9770  226.6590 C   0  0  0  0  0  0  0  0  0  0  0  0
  140.8170   70.9840  226.5140 C   0  0  0  0  0  0  0  0  0  0  0  0
  141.0420   71.5150  225.2680 C   0  0  0  0  0  0  0  0  0  0  0  0
  140.9880   74.0080  220.4130 N   0  0  0  0  0  0  0  0  0  0  0  0
  141.2130   72.9390  219.4890 C   0  0  0  0  0  0  0  0  0  0  0  0
  142.5120   72.2750  219.5800 C   0  0  0  0  0  0  0  0  0  0  0  0
  142.7700   71.0170  220.0310 C   0  0  0  0  0  0  0  0  0  0  0  0
  144.0650   70.4760  220.0930 C   0  0  0  0  0  0  0  0  0  0  0  0
  145.1590   71.2090  219.6900 C   0  0  0  0  0  0  0  0  0  0  0  0
  144.9170   72.4840  219.2300 C   0  0  0  0  0  0  0  0  0  0  0  0
  146.0070   73.2690  218.8070 O   0  0  0  0  0  0  0  0  0  0  0  0
  143.6440   73.0010  219.1750 C   0  0  0  0  0  0  0  0  0  0  0  0
  142.0212   77.7056  219.1506 H   0  0  0  0  0  0  0  0  0  0  0  0
  140.6486   79.4843  222.8263 H   0  0  0  0  0  0  0  0  0  0  0  0
  139.9689   77.2466  223.7197 H   0  0  0  0  0  0  0  0  0  0  0  0
  138.9487   72.6327  222.4477 H   0  0  0  0  0  0  0  0  0  0  0  0
  141.5608   71.3400  222.2620 H   0  0  0  0  0  0  0  0  0  0  0  0
  138.9224   69.7176  223.3907 H   0  0  0  0  0  0  0  0  0  0  0  0
  138.4883   68.7335  225.6280 H   0  0  0  0  0  0  0  0  0  0  0  0
  139.6904   69.5325  227.6444 H   0  0  0  0  0  0  0  0  0  0  0  0
  141.3700   71.3610  227.3870 H   0  0  0  0  0  0  0  0  0  0  0  0
  141.7842   72.3214  225.1737 H   0  0  0  0  0  0  0  0  0  0  0  0
  140.4347   72.1800  219.6568 H   0  0  0  0  0  0  0  0  0  0  0  0
  141.1852   73.3998  218.4905 H   0  0  0  0  0  0  0  0  0  0  0  0
  141.9254   70.3951  220.3623 H   0  0  0  0  0  0  0  0  0  0  0  0
  144.2072   69.4520  220.4689 H   0  0  0  0  0  0  0  0  0  0  0  0
  146.1774   70.7956  219.7335 H   0  0  0  0  0  0  0  0  0  0  0  0
  145.7790   74.1580  218.3370 H   0  0  0  0  0  0  0  0  0  0  0  0
  143.5066   74.0253  218.7983 H   0  0  0  0  0  0  0  0  0  0  0  0
  1  2  2  0
  2  3  1  0
  3  4  2  0
  4  5  1  0
  5  6  1  0
  5  7  2  0
  7  8  1  0
  8  9  2  0
  9 10  1  0
 10 11  2  0
 11 12  1  0
 12 13  2  0
 13 14  1  0
 14 15  2  0
 15 16  1  0
 16 17  2  0
 17 18  1  0
 18 19  2  0
 11 20  1  0
 20 21  1  0
 21 22  1  0
 22 23  2  0
 23 24  1  0
 24 25  2  0
 25 26  1  0
 26 27  1  0
 26 28  2  0
 20  2  1  0
 28 22  1  0
  9  3  1  0
 19 14  1  0
  4 29  1  0
  7 30  1  0
  8 31  1  0
 12 32  1  0
 13 33  1  0
 15 34  1  0
 16 35  1  0
 17 36  1  0
 18 37  1  0
 19 38  1  0
 21 39  1  0
 21 40  1  0
 23 41  1  0
 24 42  1  0
 25 43  1  0
 27 44  1  0
 28 45  1  0
M  END
>  <smiles>  (37) 
O=c1c2cc(Cl)ccc2nc(/C=C/c2ccccc2)n1Cc1cccc(O)c1

>  <score_type>  (37) 
oracle

>  <origin>  (37) 
autodockgpu

>  <m_score__min__energy>  (37) 
-8.5099999999999998

>  <m_primary>  (37) 
energy

>  <rmsd>  (37) 
8.401415892554589

>  <m_score__min__rmsd>  (37) 
8.401415892554589

>  <meeko>  (37) 
{"free_energy": -7.74, "intermolecular_energy": -9.53, "internal_energy": -1.07, "cluster_size": 27, "cluster_id": 1, "rank_in_cluster": 23}

>  <energy>  (37) 
-6.67

>  <cluster_rmsd>  (37) 
1.94

>  <cluster>  (37) 
3

$$$$

     RDKit          3D

 45 48  0  0  0  0  0  0  0  0999 V2000
  134.9100   72.0630  222.7130 O   0  0  0  0  0  0  0  0  0  0  0  0
  135.3210   71.2910  223.6160 C   0  0  0  0  0  0  0  0  0  0  0  0
  134.6300   71.2880  224.7960 C   0  0  0  0  0  0  0  0  0  0  0  0
  133.5360   72.0970  224.9730 C   0  0  0  0  0  0  0  0  0  0  0  0
  132.8930   72.0290  226.2040 C   0  0  0  0  0  0  0  0  0  0  0  0
  131.4990   73.0370  226.4820 Cl  0  0  0  0  0  0  0  0  0  0  0  0
  133.3540   71.1790  227.1870 C   0  0  0  0  0  0  0  0  0  0  0  0
  134.4630   70.3590  227.0050 C   0  0  0  0  0  0  0  0  0  0  0  0
  135.0810   70.4460  225.7780 C   0  0  0  0  0  0  0  0  0  0  0  0
  136.1370   69.6970  225.5380 N   0  0  0  0  0  0  0  0  0  0  0  0
  136.8510   69.6740  224.3740 C   0  0  0  0  0  0  0  0  0  0  0  0
  137.9890   68.8030  224.3780 C   0  0  0  0  0  0  0  0  0  0  0  0
  138.9510   68.6240  225.2290 C   0  0  0  0  0  0  0  0  0  0  0  0
  139.6900   69.7180  225.8910 C   0  0  0  0  0  0  0  0  0  0  0  0
  140.3320   70.7130  225.2130 C   0  0  0  0  0  0  0  0  0  0  0  0
  141.0100   71.7140  225.9170 C   0  0  0  0  0  0  0  0  0  0  0  0
  141.0570   71.7350  227.2950 C   0  0  0  0  0  0  0  0  0  0  0  0
  140.4110   70.7330  227.9780 C   0  0  0  0  0  0  0  0  0  0  0  0
  139.7500   69.7580  227.2730 C   0  0  0  0  0  0  0  0  0  0  0  0
  136.4280   70.4840  223.4070 N   0  0  0  0  0  0  0  0  0  0  0  0
  136.9910   70.6060  222.0980 C   0  0  0  0  0  0  0  0  0  0  0  0
  138.3110   71.2300  222.0220 C   0  0  0  0  0  0  0  0  0  0  0  0
  139.5090   70.6150  221.8190 C   0  0  0  0  0  0  0  0  0  0  0  0
  140.7290   71.3080  221.7790 C   0  0  0  0  0  0  0  0  0  0  0  0
  140.7730   72.6750  221.9470 C   0  0  0  0  0  0  0  0  0  0  0  0
  139.5720   73.3140  222.1520 C   0  0  0  0  0  0  0  0  0  0  0  0
  139.5700   74.7120  222.3270 O   0  0  0  0  0  0  0  0  0  0  0  0
  138.3840   72.6230  222.1890 C   0  0  0  0  0  0  0  0  0  0  0  0
  133.1834   72.7692  224.1768 H   0  0  0  0  0  0  0  0  0  0  0  0
  132.8252   71.1481  228.1510 H   0  0  0  0  0  0  0  0  0  0  0  0
  134.8241   69.6823  227.7935 H   0  0  0  0  0  0  0  0  0  0  0  0
  138.0603   68.1623  223.4867 H   0  0  0  0  0  0  0  0  0  0  0  0
  139.2351   67.5899  225.4738 H   0  0  0  0  0  0  0  0  0  0  0  0
  140.3165   70.7281  224.1132 H   0  0  0  0  0  0  0  0  0  0  0  0
  141.5213   72.5087  225.3540 H   0  0  0  0  0  0  0  0  0  0  0  0
  141.5956   72.5301  227.8314 H   0  0  0  0  0  0  0  0  0  0  0  0
  140.4233   70.7123  229.0777 H   0  0  0  0  0  0  0  0  0  0  0  0
  139.2396   68.9642  227.8381 H   0  0  0  0  0  0  0  0  0  0  0  0
  137.0717   69.5954  221.6712 H   0  0  0  0  0  0  0  0  0  0  0  0
  136.3149   71.2759  221.5465 H   0  0  0  0  0  0  0  0  0  0  0  0
  139.5211   69.5239  221.6798 H   0  0  0  0  0  0  0  0  0  0  0  0
  141.6632   70.7520  221.6112 H   0  0  0  0  0  0  0  0  0  0  0  0
  141.7230   73.2288  221.9186 H   0  0  0  0  0  0  0  0  0  0  0  0
  138.9900   75.0780  223.0970 H   0  0  0  0  0  0  0  0  0  0  0  0
  137.4526   73.1838  222.3562 H   0  0  0  0  0  0  0  0  0  0  0  0
  1  2  2  0
  2  3  1  0
  3  4  2  0
  4  5  1  0
  5  6  1  0
  5  7  2  0
  7  8  1  0
  8  9  2  0
  9 10  1  0
 10 11  2  0
 11 12  1  0
 12 13  2  0
 13 14  1  0
 14 15  2  0
 15 16  1  0
 16 17  2  0
 17 18  1  0
 18 19  2  0
 11 20  1  0
 20 21  1  0
 21 22  1  0
 22 23  2  0
 23 24  1  0
 24 25  2  0
 25 26  1  0
 26 27  1  0
 26 28  2  0
 20  2  1  0
 28 22  1  0
  9  3  1  0
 19 14  1  0
  4 29  1  0
  7 30  1  0
  8 31  1  0
 12 32  1  0
 13 33  1  0
 15 34  1  0
 16 35  1  0
 17 36  1  0
 18 37  1  0
 19 38  1  0
 21 39  1  0
 21 40  1  0
 23 41  1  0
 24 42  1  0
 25 43  1  0
 27 44  1  0
 28 45  1  0
M  END
>  <smiles>  (38) 
O=c1c2cc(Cl)ccc2nc(/C=C/c2ccccc2)n1Cc1cccc(O)c1

>  <score_type>  (38) 
oracle

>  <origin>  (38) 
autodockgpu

>  <m_score__min__energy>  (38) 
-8.5099999999999998

>  <m_primary>  (38) 
energy

>  <rmsd>  (38) 
10.50579175615998

>  <m_score__min__rmsd>  (38) 
10.50579175615998

>  <meeko>  (38) 
{"free_energy": -7.1, "intermolecular_energy": -8.89, "internal_energy": -1.74, "cluster_size": 5, "cluster_id": 4, "rank_in_cluster": 1}

>  <energy>  (38) 
-6.67

>  <cluster_rmsd>  (38) 
1.95

>  <cluster>  (38) 
3

$$$$

     RDKit          3D

 45 48  0  0  0  0  0  0  0  0999 V2000
  143.3030   77.1390  219.5210 O   0  0  0  0  0  0  0  0  0  0  0  0
  142.4410   76.4460  220.1220 C   0  0  0  0  0  0  0  0  0  0  0  0
  142.7320   75.1250  220.3210 C   0  0  0  0  0  0  0  0  0  0  0  0
  143.9170   74.5900  219.8810 C   0  0  0  0  0  0  0  0  0  0  0  0
  144.1300   73.2390  220.1270 C   0  0  0  0  0  0  0  0  0  0  0  0
  145.6180   72.5090  219.5880 Cl  0  0  0  0  0  0  0  0  0  0  0  0
  143.1770   72.4890  220.7860 C   0  0  0  0  0  0  0  0  0  0  0  0
  141.9780   73.0340  221.2310 C   0  0  0  0  0  0  0  0  0  0  0  0
  141.7920   74.3730  220.9740 C   0  0  0  0  0  0  0  0  0  0  0  0
  140.6770   74.9530  221.3690 N   0  0  0  0  0  0  0  0  0  0  0  0
  140.3530   76.2670  221.1880 C   0  0  0  0  0  0  0  0  0  0  0  0
  139.0580   76.6450  221.6720 C   0  0  0  0  0  0  0  0  0  0  0  0
  138.6760   77.3260  222.7070 C   0  0  0  0  0  0  0  0  0  0  0  0
  138.5270   78.7950  222.7290 C   0  0  0  0  0  0  0  0  0  0  0  0
  138.0120   79.5160  221.6900 C   0  0  0  0  0  0  0  0  0  0  0  0
  137.9040   80.9070  221.7900 C   0  0  0  0  0  0  0  0  0  0  0  0
  138.3060   81.5920  222.9170 C   0  0  0  0  0  0  0  0  0  0  0  0
  138.8240   80.8670  223.9630 C   0  0  0  0  0  0  0  0  0  0  0  0
  138.9230   79.5030  223.8490 C   0  0  0  0  0  0  0  0  0  0  0  0
  141.2550   77.0140  220.5560 N   0  0  0  0  0  0  0  0  0  0  0  0
  141.1530   78.4150  220.2840 C   0  0  0  0  0  0  0  0  0  0  0  0
  141.5440   79.3100  221.3710 C   0  0  0  0  0  0  0  0  0  0  0  0
  142.0870   78.9690  222.5720 C   0  0  0  0  0  0  0  0  0  0  0  0
  142.4140   79.9100  223.5610 C   0  0  0  0  0  0  0  0  0  0  0  0
  142.1970   81.2550  223.3580 C   0  0  0  0  0  0  0  0  0  0  0  0
  141.6500   81.6200  222.1480 C   0  0  0  0  0  0  0  0  0  0  0  0
  141.4120   82.9860  221.8980 O   0  0  0  0  0  0  0  0  0  0  0  0
  141.3340   80.6880  221.1890 C   0  0  0  0  0  0  0  0  0  0  0  0
  144.6648   75.2034  219.3570 H   0  0  0  0  0  0  0  0  0  0  0  0
  143.3733   71.4216  220.9655 H   0  0  0  0  0  0  0  0  0  0  0  0
  141.2232   72.4310  221.7570 H   0  0  0  0  0  0  0  0  0  0  0  0
  138.2281   76.2885  221.0442 H   0  0  0  0  0  0  0  0  0  0  0  0
  138.4477   76.7728  223.6300 H   0  0  0  0  0  0  0  0  0  0  0  0
  137.6821   79.0030  220.7746 H   0  0  0  0  0  0  0  0  0  0  0  0
  137.4856   81.4716  220.9437 H   0  0  0  0  0  0  0  0  0  0  0  0
  138.2147   82.6866  222.9770 H   0  0  0  0  0  0  0  0  0  0  0  0
  139.1555   81.3741  224.8811 H   0  0  0  0  0  0  0  0  0  0  0  0
  139.3412   78.9407  224.6969 H   0  0  0  0  0  0  0  0  0  0  0  0
  141.7944   78.6371  219.4183 H   0  0  0  0  0  0  0  0  0  0  0  0
  140.0833   78.6063  220.1134 H   0  0  0  0  0  0  0  0  0  0  0  0
  142.2786   77.9054  222.7772 H   0  0  0  0  0  0  0  0  0  0  0  0
  142.8497   79.5685  224.5115 H   0  0  0  0  0  0  0  0  0  0  0  0
  142.4486   82.0017  224.1255 H   0  0  0  0  0  0  0  0  0  0  0  0
  140.9910   83.2200  220.9860 H   0  0  0  0  0  0  0  0  0  0  0  0
  140.8989   81.0344  220.2400 H   0  0  0  0  0  0  0  0  0  0  0  0
  1  2  2  0
  2  3  1  0
  3  4  2  0
  4  5  1  0
  5  6  1  0
  5  7  2  0
  7  8  1  0
  8  9  2  0
  9 10  1  0
 10 11  2  0
 11 12  1  0
 12 13  2  0
 13 14  1  0
 14 15  2  0
 15 16  1  0
 16 17  2  0
 17 18  1  0
 18 19  2  0
 11 20  1  0
 20 21  1  0
 21 22  1  0
 22 23  2  0
 23 24  1  0
 24 25  2  0
 25 26  1  0
 26 27  1  0
 26 28  2  0
 20  2  1  0
 28 22  1  0
  9  3  1  0
 19 14  1  0
  4 29  1  0
  7 30  1  0
  8 31  1  0
 12 32  1  0
 13 33  1  0
 15 34  1  0
 16 35  1  0
 17 36  1  0
 18 37  1  0
 19 38  1  0
 21 39  1  0
 21 40  1  0
 23 41  1  0
 24 42  1  0
 25 43  1  0
 27 44  1  0
 28 45  1  0
M  END
>  <smiles>  (39) 
O=c1c2cc(Cl)ccc2nc(/C=C/c2ccccc2)n1Cc1cccc(O)c1

>  <score_type>  (39) 
oracle

>  <origin>  (39) 
autodockgpu

>  <m_score__min__energy>  (39) 
-8.5099999999999998

>  <m_primary>  (39) 
energy

>  <rmsd>  (39) 
3.968302705092358

>  <m_score__min__rmsd>  (39) 
3.968302705092358

>  <meeko>  (39) 
{"free_energy": -6.66, "intermolecular_energy": -8.45, "internal_energy": -2.03, "cluster_size": 11, "cluster_id": 3, "rank_in_cluster": 9}

>  <energy>  (39) 
-6.66

>  <cluster_rmsd>  (39) 
1.94

>  <cluster>  (39) 
3

$$$$

     RDKit          3D

 45 48  0  0  0  0  0  0  0  0999 V2000
  134.8610   71.8890  222.6940 O   0  0  0  0  0  0  0  0  0  0  0  0
  135.2870   71.1690  223.6330 C   0  0  0  0  0  0  0  0  0  0  0  0
  134.5940   71.2060  224.8110 C   0  0  0  0  0  0  0  0  0  0  0  0
  133.4820   71.9980  224.9490 C   0  0  0  0  0  0  0  0  0  0  0  0
  132.8380   71.9740  226.1810 C   0  0  0  0  0  0  0  0  0  0  0  0
  131.4210   72.9630  226.4110 Cl  0  0  0  0  0  0  0  0  0  0  0  0
  133.3150   71.1810  227.2040 C   0  0  0  0  0  0  0  0  0  0  0  0
  134.4410   70.3780  227.0610 C   0  0  0  0  0  0  0  0  0  0  0  0
  135.0600   70.4210  225.8320 C   0  0  0  0  0  0  0  0  0  0  0  0
  136.1330   69.6850  225.6280 N   0  0  0  0  0  0  0  0  0  0  0  0
  136.8490   69.6220  224.4670 C   0  0  0  0  0  0  0  0  0  0  0  0
  138.0060   68.7770  224.5130 C   0  0  0  0  0  0  0  0  0  0  0  0
  139.2690   69.0310  224.6590 C   0  0  0  0  0  0  0  0  0  0  0  0
  139.8250   69.9120  225.7050 C   0  0  0  0  0  0  0  0  0  0  0  0
  140.5840   71.0150  225.4370 C   0  0  0  0  0  0  0  0  0  0  0  0
  141.0730   71.7990  226.4870 C   0  0  0  0  0  0  0  0  0  0  0  0
  140.8160   71.4970  227.8070 C   0  0  0  0  0  0  0  0  0  0  0  0
  140.0520   70.3870  228.0770 C   0  0  0  0  0  0  0  0  0  0  0  0
  139.5790   69.6270  227.0360 C   0  0  0  0  0  0  0  0  0  0  0  0
  136.4110   70.3780  223.4630 N   0  0  0  0  0  0  0  0  0  0  0  0
  136.9740   70.4500  222.1500 C   0  0  0  0  0  0  0  0  0  0  0  0
  138.2920   71.0750  222.0510 C   0  0  0  0  0  0  0  0  0  0  0  0
  139.4800   70.4670  221.7800 C   0  0  0  0  0  0  0  0  0  0  0  0
  140.7000   71.1600  221.7230 C   0  0  0  0  0  0  0  0  0  0  0  0
  140.7530   72.5190  221.9410 C   0  0  0  0  0  0  0  0  0  0  0  0
  139.5610   73.1520  222.2150 C   0  0  0  0  0  0  0  0  0  0  0  0
  139.5700   74.5410  222.4440 O   0  0  0  0  0  0  0  0  0  0  0  0
  138.3740   72.4610  222.2680 C   0  0  0  0  0  0  0  0  0  0  0  0
  133.1163   72.6240  224.1217 H   0  0  0  0  0  0  0  0  0  0  0  0
  132.7852   71.1841  228.1680 H   0  0  0  0  0  0  0  0  0  0  0  0
  134.8147   69.7464  227.8804 H   0  0  0  0  0  0  0  0  0  0  0  0
  137.7784   67.7064  224.4033 H   0  0  0  0  0  0  0  0  0  0  0  0
  139.9725   68.5590  223.9573 H   0  0  0  0  0  0  0  0  0  0  0  0
  140.8108   71.2869  224.3955 H   0  0  0  0  0  0  0  0  0  0  0  0
  141.6818   72.6845  226.2519 H   0  0  0  0  0  0  0  0  0  0  0  0
  141.2103   72.1251  228.6194 H   0  0  0  0  0  0  0  0  0  0  0  0
  139.8218   70.1103  229.1164 H   0  0  0  0  0  0  0  0  0  0  0  0
  138.9704   68.7420  227.2737 H   0  0  0  0  0  0  0  0  0  0  0  0
  137.0583   69.4237  221.7633 H   0  0  0  0  0  0  0  0  0  0  0  0
  136.2959   71.0948  221.5716 H   0  0  0  0  0  0  0  0  0  0  0  0
  139.4841   69.3823  221.5972 H   0  0  0  0  0  0  0  0  0  0  0  0
  141.6263   70.6098  221.5012 H   0  0  0  0  0  0  0  0  0  0  0  0
  141.7026   73.0726  221.8982 H   0  0  0  0  0  0  0  0  0  0  0  0
  138.8530   74.9060  223.0890 H   0  0  0  0  0  0  0  0  0  0  0  0
  137.4503   73.0157  222.4894 H   0  0  0  0  0  0  0  0  0  0  0  0
  1  2  2  0
  2  3  1  0
  3  4  2  0
  4  5  1  0
  5  6  1  0
  5  7  2  0
  7  8  1  0
  8  9  2  0
  9 10  1  0
 10 11  2  0
 11 12  1  0
 12 13  2  0
 13 14  1  0
 14 15  2  0
 15 16  1  0
 16 17  2  0
 17 18  1  0
 18 19  2  0
 11 20  1  0
 20 21  1  0
 21 22  1  0
 22 23  2  0
 23 24  1  0
 24 25  2  0
 25 26  1  0
 26 27  1  0
 26 28  2  0
 20  2  1  0
 28 22  1  0
  9  3  1  0
 19 14  1  0
  4 29  1  0
  7 30  1  0
  8 31  1  0
 12 32  1  0
 13 33  1  0
 15 34  1  0
 16 35  1  0
 17 36  1  0
 18 37  1  0
 19 38  1  0
 21 39  1  0
 21 40  1  0
 23 41  1  0
 24 42  1  0
 25 43  1  0
 27 44  1  0
 28 45  1  0
M  END
>  <smiles>  (40) 
O=c1c2cc(Cl)ccc2nc(/C=C/c2ccccc2)n1Cc1cccc(O)c1

>  <score_type>  (40) 
oracle

>  <origin>  (40) 
autodockgpu

>  <m_score__min__energy>  (40) 
-8.5099999999999998

>  <m_primary>  (40) 
energy

>  <rmsd>  (40) 
10.616218475874357

>  <m_score__min__rmsd>  (40) 
10.616218475874357

>  <meeko>  (40) 
{"free_energy": -7.07, "intermolecular_energy": -8.86, "internal_energy": -1.7, "cluster_size": 5, "cluster_id": 4, "rank_in_cluster": 2}

>  <energy>  (40) 
-6.64

>  <cluster_rmsd>  (40) 
1.92

>  <cluster>  (40) 
3

$$$$

     RDKit          3D

 45 48  0  0  0  0  0  0  0  0999 V2000
  139.9160   74.6650  222.0630 O   0  0  0  0  0  0  0  0  0  0  0  0
  140.4530   75.5740  221.3800 C   0  0  0  0  0  0  0  0  0  0  0  0
  141.6600   75.2890  220.8030 C   0  0  0  0  0  0  0  0  0  0  0  0
  142.2470   74.0600  220.9690 C   0  0  0  0  0  0  0  0  0  0  0  0
  143.4740   73.8570  220.3470 C   0  0  0  0  0  0  0  0  0  0  0  0
  144.2640   72.3140  220.5260 Cl  0  0  0  0  0  0  0  0  0  0  0  0
  144.0540   74.8620  219.6000 C   0  0  0  0  0  0  0  0  0  0  0  0
  143.4560   76.1060  219.4330 C   0  0  0  0  0  0  0  0  0  0  0  0
  142.2430   76.2810  220.0600 C   0  0  0  0  0  0  0  0  0  0  0  0
  141.6210   77.4360  219.9430 N   0  0  0  0  0  0  0  0  0  0  0  0
  140.4180   77.7550  220.5030 C   0  0  0  0  0  0  0  0  0  0  0  0
  139.9740   79.0970  220.2630 C   0  0  0  0  0  0  0  0  0  0  0  0
  140.3460   80.2410  220.7450 C   0  0  0  0  0  0  0  0  0  0  0  0
  141.3200   80.4040  221.8430 C   0  0  0  0  0  0  0  0  0  0  0  0
  142.3880   79.5740  222.0330 C   0  0  0  0  0  0  0  0  0  0  0  0
  143.2660   79.7980  223.0990 C   0  0  0  0  0  0  0  0  0  0  0  0
  143.0920   80.8430  223.9830 C   0  0  0  0  0  0  0  0  0  0  0  0
  142.0170   81.6780  223.7910 C   0  0  0  0  0  0  0  0  0  0  0  0
  141.1650   81.4450  222.7410 C   0  0  0  0  0  0  0  0  0  0  0  0
  139.8350   76.8040  221.2280 N   0  0  0  0  0  0  0  0  0  0  0  0
  138.5640   76.8950  221.8790 C   0  0  0  0  0  0  0  0  0  0  0  0
  138.3290   78.1070  222.6610 C   0  0  0  0  0  0  0  0  0  0  0  0
  139.2030   78.7440  223.4880 C   0  0  0  0  0  0  0  0  0  0  0  0
  138.8710   79.9010  224.2100 C   0  0  0  0  0  0  0  0  0  0  0  0
  137.6150   80.4600  224.1140 C   0  0  0  0  0  0  0  0  0  0  0  0
  136.7180   79.8310  223.2810 C   0  0  0  0  0  0  0  0  0  0  0  0
  135.4220   80.3690  223.1520 O   0  0  0  0  0  0  0  0  0  0  0  0
  137.0560   78.6980  222.5800 C   0  0  0  0  0  0  0  0  0  0  0  0
  141.7684   73.2707  221.5673 H   0  0  0  0  0  0  0  0  0  0  0  0
  145.0249   74.6719  219.1192 H   0  0  0  0  0  0  0  0  0  0  0  0
  143.9240   76.9025  218.8358 H   0  0  0  0  0  0  0  0  0  0  0  0
  139.1597   79.1696  219.5270 H   0  0  0  0  0  0  0  0  0  0  0  0
  139.9076   81.1501  220.3076 H   0  0  0  0  0  0  0  0  0  0  0  0
  142.5577   78.7300  221.3483 H   0  0  0  0  0  0  0  0  0  0  0  0
  144.1213   79.1202  223.2366 H   0  0  0  0  0  0  0  0  0  0  0  0
  143.7922   81.0031  224.8161 H   0  0  0  0  0  0  0  0  0  0  0  0
  141.8417   82.5240  224.4719 H   0  0  0  0  0  0  0  0  0  0  0  0
  140.3104   82.1243  222.6056 H   0  0  0  0  0  0  0  0  0  0  0  0
  137.7847   76.8379  221.1048 H   0  0  0  0  0  0  0  0  0  0  0  0
  138.5420   76.0668  222.6026 H   0  0  0  0  0  0  0  0  0  0  0  0
  140.2174   78.3324  223.5955 H   0  0  0  0  0  0  0  0  0  0  0  0
  139.6240   80.3682  224.8617 H   0  0  0  0  0  0  0  0  0  0  0  0
  137.3425   81.3654  224.6761 H   0  0  0  0  0  0  0  0  0  0  0  0
  134.7120   80.0240  223.8160 H   0  0  0  0  0  0  0  0  0  0  0  0
  136.2997   78.2349  221.9292 H   0  0  0  0  0  0  0  0  0  0  0  0
  1  2  2  0
  2  3  1  0
  3  4  2  0
  4  5  1  0
  5  6  1  0
  5  7  2  0
  7  8  1  0
  8  9  2  0
  9 10  1  0
 10 11  2  0
 11 12  1  0
 12 13  2  0
 13 14  1  0
 14 15  2  0
 15 16  1  0
 16 17  2  0
 17 18  1  0
 18 19  2  0
 11 20  1  0
 20 21  1  0
 21 22  1  0
 22 23  2  0
 23 24  1  0
 24 25  2  0
 25 26  1  0
 26 27  1  0
 26 28  2  0
 20  2  1  0
 28 22  1  0
  9  3  1  0
 19 14  1  0
  4 29  1  0
  7 30  1  0
  8 31  1  0
 12 32  1  0
 13 33  1  0
 15 34  1  0
 16 35  1  0
 17 36  1  0
 18 37  1  0
 19 38  1  0
 21 39  1  0
 21 40  1  0
 23 41  1  0
 24 42  1  0
 25 43  1  0
 27 44  1  0
 28 45  1  0
M  END
>  <smiles>  (41) 
O=c1c2cc(Cl)ccc2nc(/C=C/c2ccccc2)n1Cc1cccc(O)c1

>  <score_type>  (41) 
oracle

>  <origin>  (41) 
autodockgpu

>  <m_score__min__energy>  (41) 
-8.5099999999999998

>  <m_primary>  (41) 
energy

>  <rmsd>  (41) 
4.041015734661189

>  <m_score__min__rmsd>  (41) 
4.041015734661189

>  <meeko>  (41) 
{"free_energy": -6.91, "intermolecular_energy": -8.7, "internal_energy": -1.63, "cluster_size": 3, "cluster_id": 5, "rank_in_cluster": 1}

>  <energy>  (41) 
-6.63

>  <cluster_rmsd>  (41) 
1.96

>  <cluster>  (41) 
3

$$$$

     RDKit          3D

 45 48  0  0  0  0  0  0  0  0999 V2000
  142.5130   77.2920  216.9180 O   0  0  0  0  0  0  0  0  0  0  0  0
  142.1830   77.7810  218.0290 C   0  0  0  0  0  0  0  0  0  0  0  0
  142.1940   79.1450  218.1380 C   0  0  0  0  0  0  0  0  0  0  0  0
  142.5510   79.9330  217.0740 C   0  0  0  0  0  0  0  0  0  0  0  0
  142.5340   81.3090  217.2730 C   0  0  0  0  0  0  0  0  0  0  0  0
  142.9790   82.3570  215.9530 Cl  0  0  0  0  0  0  0  0  0  0  0  0
  142.1710   81.8340  218.4960 C   0  0  0  0  0  0  0  0  0  0  0  0
  141.8090   81.0320  219.5730 C   0  0  0  0  0  0  0  0  0  0  0  0
  141.8350   79.6740  219.3490 C   0  0  0  0  0  0  0  0  0  0  0  0
  141.5030   78.8570  220.3270 N   0  0  0  0  0  0  0  0  0  0  0  0
  141.4800   77.4930  220.2540 C   0  0  0  0  0  0  0  0  0  0  0  0
  141.1260   76.8270  221.4730 C   0  0  0  0  0  0  0  0  0  0  0  0
  141.0450   77.2350  222.7010 C   0  0  0  0  0  0  0  0  0  0  0  0
  141.3320   78.6140  223.1400 C   0  0  0  0  0  0  0  0  0  0  0  0
  142.5960   79.1110  223.2870 C   0  0  0  0  0  0  0  0  0  0  0  0
  142.7830   80.4320  223.7090 C   0  0  0  0  0  0  0  0  0  0  0  0
  141.7220   81.2680  223.9880 C   0  0  0  0  0  0  0  0  0  0  0  0
  140.4510   80.7680  223.8400 C   0  0  0  0  0  0  0  0  0  0  0  0
  140.2830   79.4700  223.4260 C   0  0  0  0  0  0  0  0  0  0  0  0
  141.8250   76.9600  219.0850 N   0  0  0  0  0  0  0  0  0  0  0  0
  141.8430   75.5660  218.7630 C   0  0  0  0  0  0  0  0  0  0  0  0
  142.9630   74.7960  219.3020 C   0  0  0  0  0  0  0  0  0  0  0  0
  143.1510   74.3980  220.5900 C   0  0  0  0  0  0  0  0  0  0  0  0
  144.2770   73.6710  221.0110 C   0  0  0  0  0  0  0  0  0  0  0  0
  145.2650   73.3180  220.1190 C   0  0  0  0  0  0  0  0  0  0  0  0
  145.0910   73.7110  218.8110 C   0  0  0  0  0  0  0  0  0  0  0  0
  146.0780   73.3710  217.8650 O   0  0  0  0  0  0  0  0  0  0  0  0
  143.9850   74.4230  218.4130 C   0  0  0  0  0  0  0  0  0  0  0  0
  142.8380   79.4960  216.1062 H   0  0  0  0  0  0  0  0  0  0  0  0
  142.1678   82.9265  218.6240 H   0  0  0  0  0  0  0  0  0  0  0  0
  141.5194   81.4572  220.5453 H   0  0  0  0  0  0  0  0  0  0  0  0
  140.8745   75.7643  221.3411 H   0  0  0  0  0  0  0  0  0  0  0  0
  140.7423   76.5048  223.4660 H   0  0  0  0  0  0  0  0  0  0  0  0
  143.4664   78.4730  223.0737 H   0  0  0  0  0  0  0  0  0  0  0  0
  143.8078   80.8156  223.8217 H   0  0  0  0  0  0  0  0  0  0  0  0
  141.8885   82.3037  224.3190 H   0  0  0  0  0  0  0  0  0  0  0  0
  139.5768   81.4014  224.0511 H   0  0  0  0  0  0  0  0  0  0  0  0
  139.2570   79.0890  223.3154 H   0  0  0  0  0  0  0  0  0  0  0  0
  140.9133   75.1204  219.1465 H   0  0  0  0  0  0  0  0  0  0  0  0
  141.9495   75.5166  217.6693 H   0  0  0  0  0  0  0  0  0  0  0  0
  142.3856   74.6577  221.3361 H   0  0  0  0  0  0  0  0  0  0  0  0
  144.3707   73.3797  222.0676 H   0  0  0  0  0  0  0  0  0  0  0  0
  146.1512   72.7490  220.4365 H   0  0  0  0  0  0  0  0  0  0  0  0
  146.5930   74.1540  217.4350 H   0  0  0  0  0  0  0  0  0  0  0  0
  143.8963   74.7126  217.3555 H   0  0  0  0  0  0  0  0  0  0  0  0
  1  2  2  0
  2  3  1  0
  3  4  2  0
  4  5  1  0
  5  6  1  0
  5  7  2  0
  7  8  1  0
  8  9  2  0
  9 10  1  0
 10 11  2  0
 11 12  1  0
 12 13  2  0
 13 14  1  0
 14 15  2  0
 15 16  1  0
 16 17  2  0
 17 18  1  0
 18 19  2  0
 11 20  1  0
 20 21  1  0
 21 22  1  0
 22 23  2  0
 23 24  1  0
 24 25  2  0
 25 26  1  0
 26 27  1  0
 26 28  2  0
 20  2  1  0
 28 22  1  0
  9  3  1  0
 19 14  1  0
  4 29  1  0
  7 30  1  0
  8 31  1  0
 12 32  1  0
 13 33  1  0
 15 34  1  0
 16 35  1  0
 17 36  1  0
 18 37  1  0
 19 38  1  0
 21 39  1  0
 21 40  1  0
 23 41  1  0
 24 42  1  0
 25 43  1  0
 27 44  1  0
 28 45  1  0
M  END
>  <smiles>  (42) 
O=c1c2cc(Cl)ccc2nc(/C=C/c2ccccc2)n1Cc1cccc(O)c1

>  <score_type>  (42) 
oracle

>  <origin>  (42) 
autodockgpu

>  <m_score__min__energy>  (42) 
-8.5099999999999998

>  <m_primary>  (42) 
energy

>  <rmsd>  (42) 
7.393780512017344

>  <m_score__min__rmsd>  (42) 
7.393780512017344

>  <meeko>  (42) 
{"free_energy": -7.46, "intermolecular_energy": -9.25, "internal_energy": -1.37, "cluster_size": 3, "cluster_id": 2, "rank_in_cluster": 3}

>  <energy>  (42) 
-7.1

>  <cluster_rmsd>  (42) 
0.0

>  <cluster>  (42) 
4

$$$$

     RDKit          3D

 45 48  0  0  0  0  0  0  0  0999 V2000
  143.4720   77.0210  219.4720 O   0  0  0  0  0  0  0  0  0  0  0  0
  142.5740   76.3800  220.0740 C   0  0  0  0  0  0  0  0  0  0  0  0
  142.8050   75.0520  220.3070 C   0  0  0  0  0  0  0  0  0  0  0  0
  143.9730   74.4590  219.8970 C   0  0  0  0  0  0  0  0  0  0  0  0
  144.1250   73.1050  220.1760 C   0  0  0  0  0  0  0  0  0  0  0  0
  145.5890   72.3020  219.6770 Cl  0  0  0  0  0  0  0  0  0  0  0  0
  143.1320   72.4120  220.8360 C   0  0  0  0  0  0  0  0  0  0  0  0
  141.9510   73.0160  221.2510 C   0  0  0  0  0  0  0  0  0  0  0  0
  141.8250   74.3560  220.9620 C   0  0  0  0  0  0  0  0  0  0  0  0
  140.7300   74.9900  221.3260 N   0  0  0  0  0  0  0  0  0  0  0  0
  140.4650   76.3120  221.1110 C   0  0  0  0  0  0  0  0  0  0  0  0
  139.1790   76.7550  221.5660 C   0  0  0  0  0  0  0  0  0  0  0  0
  138.7660   77.2130  222.7060 C   0  0  0  0  0  0  0  0  0  0  0  0
  138.4220   78.6260  222.9600 C   0  0  0  0  0  0  0  0  0  0  0  0
  137.3660   79.2620  222.3730 C   0  0  0  0  0  0  0  0  0  0  0  0
  137.1080   80.6050  222.6680 C   0  0  0  0  0  0  0  0  0  0  0  0
  137.8920   81.3260  223.5440 C   0  0  0  0  0  0  0  0  0  0  0  0
  138.9540   80.6850  224.1350 C   0  0  0  0  0  0  0  0  0  0  0  0
  139.1950   79.3680  223.8360 C   0  0  0  0  0  0  0  0  0  0  0  0
  141.4060   77.0060  220.4760 N   0  0  0  0  0  0  0  0  0  0  0  0
  141.3670   78.4040  220.1720 C   0  0  0  0  0  0  0  0  0  0  0  0
  141.6900   79.3100  221.2730 C   0  0  0  0  0  0  0  0  0  0  0  0
  142.2740   78.9950  222.4610 C   0  0  0  0  0  0  0  0  0  0  0  0
  142.5270   79.9440  223.4660 C   0  0  0  0  0  0  0  0  0  0  0  0
  142.1900   81.2680  223.2900 C   0  0  0  0  0  0  0  0  0  0  0  0
  141.6000   81.6050  222.0930 C   0  0  0  0  0  0  0  0  0  0  0  0
  141.2390   82.9490  221.8710 O   0  0  0  0  0  0  0  0  0  0  0  0
  141.3570   80.6660  221.1190 C   0  0  0  0  0  0  0  0  0  0  0  0
  144.7535   75.0289  219.3716 H   0  0  0  0  0  0  0  0  0  0  0  0
  143.2801   71.3416  221.0416 H   0  0  0  0  0  0  0  0  0  0  0  0
  141.1643   72.4569  221.7787 H   0  0  0  0  0  0  0  0  0  0  0  0
  138.3918   76.6944  220.8001 H   0  0  0  0  0  0  0  0  0  0  0  0
  138.6652   76.5019  223.5392 H   0  0  0  0  0  0  0  0  0  0  0  0
  136.7186   78.7189  221.6687 H   0  0  0  0  0  0  0  0  0  0  0  0
  136.2529   81.1015  222.1860 H   0  0  0  0  0  0  0  0  0  0  0  0
  137.6739   82.3817  223.7629 H   0  0  0  0  0  0  0  0  0  0  0  0
  139.6044   81.2225  224.8408 H   0  0  0  0  0  0  0  0  0  0  0  0
  140.0506   78.8740  224.3196 H   0  0  0  0  0  0  0  0  0  0  0  0
  142.0852   78.5918  219.3603 H   0  0  0  0  0  0  0  0  0  0  0  0
  140.3213   78.6203  219.9079 H   0  0  0  0  0  0  0  0  0  0  0  0
  142.5614   77.9489  222.6431 H   0  0  0  0  0  0  0  0  0  0  0  0
  143.0007   79.6252  224.4062 H   0  0  0  0  0  0  0  0  0  0  0  0
  142.3832   82.0202  224.0690 H   0  0  0  0  0  0  0  0  0  0  0  0
  141.4080   83.3200  220.9240 H   0  0  0  0  0  0  0  0  0  0  0  0
  140.8825   80.9895  220.1808 H   0  0  0  0  0  0  0  0  0  0  0  0
  1  2  2  0
  2  3  1  0
  3  4  2  0
  4  5  1  0
  5  6  1  0
  5  7  2  0
  7  8  1  0
  8  9  2  0
  9 10  1  0
 10 11  2  0
 11 12  1  0
 12 13  2  0
 13 14  1  0
 14 15  2  0
 15 16  1  0
 16 17  2  0
 17 18  1  0
 18 19  2  0
 11 20  1  0
 20 21  1  0
 21 22  1  0
 22 23  2  0
 23 24  1  0
 24 25  2  0
 25 26  1  0
 26 27  1  0
 26 28  2  0
 20  2  1  0
 28 22  1  0
  9  3  1  0
 19 14  1  0
  4 29  1  0
  7 30  1  0
  8 31  1  0
 12 32  1  0
 13 33  1  0
 15 34  1  0
 16 35  1  0
 17 36  1  0
 18 37  1  0
 19 38  1  0
 21 39  1  0
 21 40  1  0
 23 41  1  0
 24 42  1  0
 25 43  1  0
 27 44  1  0
 28 45  1  0
M  END
>  <smiles>  (43) 
O=c1c2cc(Cl)ccc2nc(/C=C/c2ccccc2)n1Cc1cccc(O)c1

>  <score_type>  (43) 
oracle

>  <origin>  (43) 
autodockgpu

>  <m_score__min__energy>  (43) 
-8.5099999999999998

>  <m_primary>  (43) 
energy

>  <rmsd>  (43) 
4.015713254639271

>  <m_score__min__rmsd>  (43) 
4.015713254639271

>  <meeko>  (43) 
{"free_energy": -6.73, "intermolecular_energy": -8.52, "internal_energy": -1.87, "cluster_size": 11, "cluster_id": 3, "rank_in_cluster": 5}

>  <energy>  (43) 
-7.07

>  <cluster_rmsd>  (43) 
0.29

>  <cluster>  (43) 
4

$$$$

     RDKit          3D

 45 48  0  0  0  0  0  0  0  0999 V2000
  143.5540   76.8720  219.3940 O   0  0  0  0  0  0  0  0  0  0  0  0
  142.6460   76.2630  220.0150 C   0  0  0  0  0  0  0  0  0  0  0  0
  142.8380   74.9300  220.2510 C   0  0  0  0  0  0  0  0  0  0  0  0
  143.9780   74.2970  219.8240 C   0  0  0  0  0  0  0  0  0  0  0  0
  144.0920   72.9400  220.1080 C   0  0  0  0  0  0  0  0  0  0  0  0
  145.5190   72.0870  219.5870 Cl  0  0  0  0  0  0  0  0  0  0  0  0
  143.0880   72.2830  220.7890 C   0  0  0  0  0  0  0  0  0  0  0  0
  141.9350   72.9270  221.2210 C   0  0  0  0  0  0  0  0  0  0  0  0
  141.8480   74.2690  220.9270 C   0  0  0  0  0  0  0  0  0  0  0  0
  140.7810   74.9410  221.3080 N   0  0  0  0  0  0  0  0  0  0  0  0
  140.5550   76.2690  221.0900 C   0  0  0  0  0  0  0  0  0  0  0  0
  139.2930   76.7560  221.5650 C   0  0  0  0  0  0  0  0  0  0  0  0
  138.9450   77.3620  222.6570 C   0  0  0  0  0  0  0  0  0  0  0  0
  138.7280   78.8180  222.7680 C   0  0  0  0  0  0  0  0  0  0  0  0
  139.0090   79.5390  223.8940 C   0  0  0  0  0  0  0  0  0  0  0  0
  138.7740   80.9180  223.9170 C   0  0  0  0  0  0  0  0  0  0  0  0
  138.2590   81.5910  222.8290 C   0  0  0  0  0  0  0  0  0  0  0  0
  137.9760   80.8650  221.6970 C   0  0  0  0  0  0  0  0  0  0  0  0
  138.2120   79.5130  221.6890 C   0  0  0  0  0  0  0  0  0  0  0  0
  141.5070   76.9300  220.4350 N   0  0  0  0  0  0  0  0  0  0  0  0
  141.5080   78.3260  220.1230 C   0  0  0  0  0  0  0  0  0  0  0  0
  141.7580   79.2330  221.2420 C   0  0  0  0  0  0  0  0  0  0  0  0
  142.1960   78.9090  222.4900 C   0  0  0  0  0  0  0  0  0  0  0  0
  142.3900   79.8610  223.5050 C   0  0  0  0  0  0  0  0  0  0  0  0
  142.1410   81.1970  223.2800 C   0  0  0  0  0  0  0  0  0  0  0  0
  141.6990   81.5430  222.0230 C   0  0  0  0  0  0  0  0  0  0  0  0
  141.4330   82.8990  221.7490 O   0  0  0  0  0  0  0  0  0  0  0  0
  141.5130   80.6020  221.0390 C   0  0  0  0  0  0  0  0  0  0  0  0
  144.7668   74.8385  219.2812 H   0  0  0  0  0  0  0  0  0  0  0  0
  143.2046   71.2093  220.9978 H   0  0  0  0  0  0  0  0  0  0  0  0
  141.1397   72.3964  221.7651 H   0  0  0  0  0  0  0  0  0  0  0  0
  138.4593   76.5819  220.8688 H   0  0  0  0  0  0  0  0  0  0  0  0
  138.8020   76.7510  223.5604 H   0  0  0  0  0  0  0  0  0  0  0  0
  139.4197   79.0357  224.7817 H   0  0  0  0  0  0  0  0  0  0  0  0
  139.0073   81.4831  224.8315 H   0  0  0  0  0  0  0  0  0  0  0  0
  138.0802   82.6757  222.8661 H   0  0  0  0  0  0  0  0  0  0  0  0
  137.5645   81.3624  220.8064 H   0  0  0  0  0  0  0  0  0  0  0  0
  137.9777   78.9505  220.7732 H   0  0  0  0  0  0  0  0  0  0  0  0
  142.2877   78.5013  219.3671 H   0  0  0  0  0  0  0  0  0  0  0  0
  140.4882   78.5536  219.7792 H   0  0  0  0  0  0  0  0  0  0  0  0
  142.4077   77.8530  222.7139 H   0  0  0  0  0  0  0  0  0  0  0  0
  142.7458   79.5348  224.4934 H   0  0  0  0  0  0  0  0  0  0  0  0
  142.2883   81.9513  224.0670 H   0  0  0  0  0  0  0  0  0  0  0  0
  140.5090   83.1140  221.3440 H   0  0  0  0  0  0  0  0  0  0  0  0
  141.1579   80.9337  220.0522 H   0  0  0  0  0  0  0  0  0  0  0  0
  1  2  2  0
  2  3  1  0
  3  4  2  0
  4  5  1  0
  5  6  1  0
  5  7  2  0
  7  8  1  0
  8  9  2  0
  9 10  1  0
 10 11  2  0
 11 12  1  0
 12 13  2  0
 13 14  1  0
 14 15  2  0
 15 16  1  0
 16 17  2  0
 17 18  1  0
 18 19  2  0
 11 20  1  0
 20 21  1  0
 21 22  1  0
 22 23  2  0
 23 24  1  0
 24 25  2  0
 25 26  1  0
 26 27  1  0
 26 28  2  0
 20  2  1  0
 28 22  1  0
  9  3  1  0
 19 14  1  0
  4 29  1  0
  7 30  1  0
  8 31  1  0
 12 32  1  0
 13 33  1  0
 15 34  1  0
 16 35  1  0
 17 36  1  0
 18 37  1  0
 19 38  1  0
 21 39  1  0
 21 40  1  0
 23 41  1  0
 24 42  1  0
 25 43  1  0
 27 44  1  0
 28 45  1  0
M  END
>  <smiles>  (44) 
O=c1c2cc(Cl)ccc2nc(/C=C/c2ccccc2)n1Cc1cccc(O)c1

>  <score_type>  (44) 
oracle

>  <origin>  (44) 
autodockgpu

>  <m_score__min__energy>  (44) 
-8.5099999999999998

>  <m_primary>  (44) 
energy

>  <rmsd>  (44) 
4.031981369222853

>  <m_score__min__rmsd>  (44) 
4.031981369222853

>  <meeko>  (44) 
{"free_energy": -6.63, "intermolecular_energy": -8.42, "internal_energy": -2.02, "cluster_size": 11, "cluster_id": 3, "rank_in_cluster": 11}

>  <energy>  (44) 
-7.05

>  <cluster_rmsd>  (44) 
0.3

>  <cluster>  (44) 
4

$$$$

     RDKit          3D

 45 48  0  0  0  0  0  0  0  0999 V2000
  142.4420   75.0710  219.4630 O   0  0  0  0  0  0  0  0  0  0  0  0
  141.6570   74.7650  220.3980 C   0  0  0  0  0  0  0  0  0  0  0  0
  140.8930   75.7700  220.9240 C   0  0  0  0  0  0  0  0  0  0  0  0
  140.9860   77.0510  220.4420 C   0  0  0  0  0  0  0  0  0  0  0  0
  140.1710   78.0100  221.0340 C   0  0  0  0  0  0  0  0  0  0  0  0
  140.2510   79.6530  220.4610 Cl  0  0  0  0  0  0  0  0  0  0  0  0
  139.3160   77.6630  222.0590 C   0  0  0  0  0  0  0  0  0  0  0  0
  139.2230   76.3630  222.5450 C   0  0  0  0  0  0  0  0  0  0  0  0
  140.0410   75.4350  221.9410 C   0  0  0  0  0  0  0  0  0  0  0  0
  140.0030   74.1840  222.3530 N   0  0  0  0  0  0  0  0  0  0  0  0
  140.7500   73.1570  221.8530 C   0  0  0  0  0  0  0  0  0  0  0  0
  140.5570   71.8940  222.5030 C   0  0  0  0  0  0  0  0  0  0  0  0
  139.7020   71.4870  223.3880 C   0  0  0  0  0  0  0  0  0  0  0  0
  140.0690   70.8800  224.6830 C   0  0  0  0  0  0  0  0  0  0  0  0
  139.8050   69.5810  225.0090 C   0  0  0  0  0  0  0  0  0  0  0  0
  140.1870   69.0820  226.2590 C   0  0  0  0  0  0  0  0  0  0  0  0
  140.8310   69.8650  227.1930 C   0  0  0  0  0  0  0  0  0  0  0  0
  141.0970   71.1730  226.8650 C   0  0  0  0  0  0  0  0  0  0  0  0
  140.7150   71.6480  225.6350 C   0  0  0  0  0  0  0  0  0  0  0  0
  141.5840   73.4620  220.8620 N   0  0  0  0  0  0  0  0  0  0  0  0
  142.4370   72.5520  220.1610 C   0  0  0  0  0  0  0  0  0  0  0  0
  143.8640   72.8670  220.1770 C   0  0  0  0  0  0  0  0  0  0  0  0
  144.6640   73.0330  221.2650 C   0  0  0  0  0  0  0  0  0  0  0  0
  146.0290   73.3520  221.1720 C   0  0  0  0  0  0  0  0  0  0  0  0
  146.6350   73.5170  219.9460 C   0  0  0  0  0  0  0  0  0  0  0  0
  145.8410   73.3520  218.8330 C   0  0  0  0  0  0  0  0  0  0  0  0
  146.4210   73.5100  217.5590 O   0  0  0  0  0  0  0  0  0  0  0  0
  144.5070   73.0400  218.9400 C   0  0  0  0  0  0  0  0  0  0  0  0
  141.6746   77.3083  219.6236 H   0  0  0  0  0  0  0  0  0  0  0  0
  138.6843   78.4431  222.5088 H   0  0  0  0  0  0  0  0  0  0  0  0
  138.5377   76.0930  223.3620 H   0  0  0  0  0  0  0  0  0  0  0  0
  141.2735   71.1202  222.1900 H   0  0  0  0  0  0  0  0  0  0  0  0
  138.6322   71.6014  223.1592 H   0  0  0  0  0  0  0  0  0  0  0  0
  139.2919   68.9266  224.2889 H   0  0  0  0  0  0  0  0  0  0  0  0
  139.9666   68.0325  226.5040 H   0  0  0  0  0  0  0  0  0  0  0  0
  141.1232   69.4554  228.1712 H   0  0  0  0  0  0  0  0  0  0  0  0
  141.6105   71.8321  227.5805 H   0  0  0  0  0  0  0  0  0  0  0  0
  140.9349   72.6982  225.3929 H   0  0  0  0  0  0  0  0  0  0  0  0
  142.3075   71.5562  220.6100 H   0  0  0  0  0  0  0  0  0  0  0  0
  142.1323   72.6143  219.1059 H   0  0  0  0  0  0  0  0  0  0  0  0
  144.2211   72.9117  222.2646 H   0  0  0  0  0  0  0  0  0  0  0  0
  146.6220   73.4716  222.0907 H   0  0  0  0  0  0  0  0  0  0  0  0
  147.7024   73.7686  219.8601 H   0  0  0  0  0  0  0  0  0  0  0  0
  146.3760   74.4540  217.1470 H   0  0  0  0  0  0  0  0  0  0  0  0
  143.9181   72.9207  218.0186 H   0  0  0  0  0  0  0  0  0  0  0  0
  1  2  2  0
  2  3  1  0
  3  4  2  0
  4  5  1  0
  5  6  1  0
  5  7  2  0
  7  8  1  0
  8  9  2  0
  9 10  1  0
 10 11  2  0
 11 12  1  0
 12 13  2  0
 13 14  1  0
 14 15  2  0
 15 16  1  0
 16 17  2  0
 17 18  1  0
 18 19  2  0
 11 20  1  0
 20 21  1  0
 21 22  1  0
 22 23  2  0
 23 24  1  0
 24 25  2  0
 25 26  1  0
 26 27  1  0
 26 28  2  0
 20  2  1  0
 28 22  1  0
  9  3  1  0
 19 14  1  0
  4 29  1  0
  7 30  1  0
  8 31  1  0
 12 32  1  0
 13 33  1  0
 15 34  1  0
 16 35  1  0
 17 36  1  0
 18 37  1  0
 19 38  1  0
 21 39  1  0
 21 40  1  0
 23 41  1  0
 24 42  1  0
 25 43  1  0
 27 44  1  0
 28 45  1  0
M  END
>  <smiles>  (45) 
O=c1c2cc(Cl)ccc2nc(/C=C/c2ccccc2)n1Cc1cccc(O)c1

>  <score_type>  (45) 
oracle

>  <origin>  (45) 
autodockgpu

>  <m_score__min__energy>  (45) 
-8.5099999999999998

>  <m_primary>  (45) 
energy

>  <rmsd>  (45) 
7.969183651883216

>  <m_score__min__rmsd>  (45) 
7.969183651883216

>  <meeko>  (45) 
{"free_energy": -8.51, "intermolecular_energy": -10.3, "internal_energy": -0.88, "cluster_size": 27, "cluster_id": 1, "rank_in_cluster": 1}

>  <energy>  (45) 
-6.94

>  <cluster_rmsd>  (45) 
0.36

>  <cluster>  (45) 
4

$$$$

     RDKit          3D

 45 48  0  0  0  0  0  0  0  0999 V2000
  143.2430   76.1320  219.6900 O   0  0  0  0  0  0  0  0  0  0  0  0
  142.2770   75.8210  220.4330 C   0  0  0  0  0  0  0  0  0  0  0  0
  142.0930   74.4900  220.6910 C   0  0  0  0  0  0  0  0  0  0  0  0
  142.9350   73.5470  220.1580 C   0  0  0  0  0  0  0  0  0  0  0  0
  142.6740   72.2180  220.4730 C   0  0  0  0  0  0  0  0  0  0  0  0
  143.7120   70.9790  219.8220 Cl  0  0  0  0  0  0  0  0  0  0  0  0
  141.6110   71.8880  221.2880 C   0  0  0  0  0  0  0  0  0  0  0  0
  140.7610   72.8470  221.8280 C   0  0  0  0  0  0  0  0  0  0  0  0
  141.0400   74.1540  221.4990 C   0  0  0  0  0  0  0  0  0  0  0  0
  140.2740   75.1130  221.9770 N   0  0  0  0  0  0  0  0  0  0  0  0
  140.4270   76.4490  221.7410 C   0  0  0  0  0  0  0  0  0  0  0  0
  139.4330   77.2890  222.3410 C   0  0  0  0  0  0  0  0  0  0  0  0
  139.3410   78.5750  222.4770 C   0  0  0  0  0  0  0  0  0  0  0  0
  140.4410   79.4430  222.9410 C   0  0  0  0  0  0  0  0  0  0  0  0
  141.4310   79.0220  223.7820 C   0  0  0  0  0  0  0  0  0  0  0  0
  142.4390   79.9080  224.1750 C   0  0  0  0  0  0  0  0  0  0  0  0
  142.4720   81.2170  223.7410 C   0  0  0  0  0  0  0  0  0  0  0  0
  141.4760   81.6410  222.8950 C   0  0  0  0  0  0  0  0  0  0  0  0
  140.4940   80.7600  222.5180 C   0  0  0  0  0  0  0  0  0  0  0  0
  141.4450   76.7960  220.9580 N   0  0  0  0  0  0  0  0  0  0  0  0
  141.8220   78.1290  220.6000 C   0  0  0  0  0  0  0  0  0  0  0  0
  141.6390   78.4930  219.1970 C   0  0  0  0  0  0  0  0  0  0  0  0
  140.9190   77.8250  218.2540 C   0  0  0  0  0  0  0  0  0  0  0  0
  140.8190   78.2530  216.9200 C   0  0  0  0  0  0  0  0  0  0  0  0
  141.4570   79.3970  216.4940 C   0  0  0  0  0  0  0  0  0  0  0  0
  142.1890   80.0870  217.4340 C   0  0  0  0  0  0  0  0  0  0  0  0
  142.8570   81.2630  217.0410 O   0  0  0  0  0  0  0  0  0  0  0  0
  142.2790   79.6560  218.7360 C   0  0  0  0  0  0  0  0  0  0  0  0
  143.7784   73.8295  219.5108 H   0  0  0  0  0  0  0  0  0  0  0  0
  141.4292   70.8280  221.5190 H   0  0  0  0  0  0  0  0  0  0  0  0
  139.9164   72.5772  222.4790 H   0  0  0  0  0  0  0  0  0  0  0  0
  138.5840   76.7357  222.7689 H   0  0  0  0  0  0  0  0  0  0  0  0
  138.3802   79.0504  222.2305 H   0  0  0  0  0  0  0  0  0  0  0  0
  141.4356   77.9856  224.1505 H   0  0  0  0  0  0  0  0  0  0  0  0
  143.2297   79.5502  224.8508 H   0  0  0  0  0  0  0  0  0  0  0  0
  143.2716   81.9006  224.0625 H   0  0  0  0  0  0  0  0  0  0  0  0
  141.4659   82.6764  222.5236 H   0  0  0  0  0  0  0  0  0  0  0  0
  139.7047   81.1204  221.8418 H   0  0  0  0  0  0  0  0  0  0  0  0
  141.2230   78.8227  221.2082 H   0  0  0  0  0  0  0  0  0  0  0  0
  142.9051   78.1892  220.7824 H   0  0  0  0  0  0  0  0  0  0  0  0
  140.3908   76.9069  218.5509 H   0  0  0  0  0  0  0  0  0  0  0  0
  140.2229   77.6664  216.2055 H   0  0  0  0  0  0  0  0  0  0  0  0
  141.3851   79.7429  215.4523 H   0  0  0  0  0  0  0  0  0  0  0  0
  143.6480   81.1470  216.3890 H   0  0  0  0  0  0  0  0  0  0  0  0
  142.8767   80.2458  219.4465 H   0  0  0  0  0  0  0  0  0  0  0  0
  1  2  2  0
  2  3  1  0
  3  4  2  0
  4  5  1  0
  5  6  1  0
  5  7  2  0
  7  8  1  0
  8  9  2  0
  9 10  1  0
 10 11  2  0
 11 12  1  0
 12 13  2  0
 13 14  1  0
 14 15  2  0
 15 16  1  0
 16 17  2  0
 17 18  1  0
 18 19  2  0
 11 20  1  0
 20 21  1  0
 21 22  1  0
 22 23  2  0
 23 24  1  0
 24 25  2  0
 25 26  1  0
 26 27  1  0
 26 28  2  0
 20  2  1  0
 28 22  1  0
  9  3  1  0
 19 14  1  0
  4 29  1  0
  7 30  1  0
  8 31  1  0
 12 32  1  0
 13 33  1  0
 15 34  1  0
 16 35  1  0
 17 36  1  0
 18 37  1  0
 19 38  1  0
 21 39  1  0
 21 40  1  0
 23 41  1  0
 24 42  1  0
 25 43  1  0
 27 44  1  0
 28 45  1  0
M  END
>  <smiles>  (46) 
O=c1c2cc(Cl)ccc2nc(/C=C/c2ccccc2)n1Cc1cccc(O)c1

>  <score_type>  (46) 
oracle

>  <origin>  (46) 
autodockgpu

>  <m_score__min__energy>  (46) 
-8.5099999999999998

>  <m_primary>  (46) 
energy

>  <rmsd>  (46) 
4.560229496925153

>  <m_score__min__rmsd>  (46) 
4.560229496925153

>  <meeko>  (46) 
{"free_energy": -7.22, "intermolecular_energy": -9.01, "internal_energy": -1.31, "cluster_size": 11, "cluster_id": 3, "rank_in_cluster": 2}

>  <energy>  (46) 
-6.94

>  <cluster_rmsd>  (46) 
0.44

>  <cluster>  (46) 
4

$$$$

     RDKit          3D

 45 48  0  0  0  0  0  0  0  0999 V2000
  140.7960   74.4450  221.9350 O   0  0  0  0  0  0  0  0  0  0  0  0
  139.7260   75.1050  221.9400 C   0  0  0  0  0  0  0  0  0  0  0  0
  138.5580   74.4000  222.0360 C   0  0  0  0  0  0  0  0  0  0  0  0
  138.5680   73.0310  222.1250 C   0  0  0  0  0  0  0  0  0  0  0  0
  137.3350   72.3950  222.2200 C   0  0  0  0  0  0  0  0  0  0  0  0
  137.2900   70.6570  222.3340 Cl  0  0  0  0  0  0  0  0  0  0  0  0
  136.1680   73.1300  222.2230 C   0  0  0  0  0  0  0  0  0  0  0  0
  136.1610   74.5180  222.1340 C   0  0  0  0  0  0  0  0  0  0  0  0
  137.3950   75.1220  222.0400 C   0  0  0  0  0  0  0  0  0  0  0  0
  137.4610   76.4340  221.9530 N   0  0  0  0  0  0  0  0  0  0  0  0
  138.6060   77.1710  221.8550 C   0  0  0  0  0  0  0  0  0  0  0  0
  138.4090   78.5850  221.7280 C   0  0  0  0  0  0  0  0  0  0  0  0
  138.8170   79.5920  222.4360 C   0  0  0  0  0  0  0  0  0  0  0  0
  140.2350   79.8890  222.7220 C   0  0  0  0  0  0  0  0  0  0  0  0
  141.0200   80.6640  221.9170 C   0  0  0  0  0  0  0  0  0  0  0  0
  142.3560   80.8970  222.2590 C   0  0  0  0  0  0  0  0  0  0  0  0
  142.9230   80.3650  223.3980 C   0  0  0  0  0  0  0  0  0  0  0  0
  142.1320   79.5850  224.2080 C   0  0  0  0  0  0  0  0  0  0  0  0
  140.8240   79.3650  223.8590 C   0  0  0  0  0  0  0  0  0  0  0  0
  139.7480   76.4870  221.8510 N   0  0  0  0  0  0  0  0  0  0  0  0
  141.0660   77.0410  221.7930 C   0  0  0  0  0  0  0  0  0  0  0  0
  141.7080   77.0330  220.4800 C   0  0  0  0  0  0  0  0  0  0  0  0
  142.2220   75.9630  219.8140 C   0  0  0  0  0  0  0  0  0  0  0  0
  142.8360   76.0660  218.5550 C   0  0  0  0  0  0  0  0  0  0  0  0
  142.9490   77.2830  217.9200 C   0  0  0  0  0  0  0  0  0  0  0  0
  142.4330   78.3770  218.5770 C   0  0  0  0  0  0  0  0  0  0  0  0
  142.5270   79.6410  217.9640 O   0  0  0  0  0  0  0  0  0  0  0  0
  141.8350   78.2620  219.8100 C   0  0  0  0  0  0  0  0  0  0  0  0
  139.5093   72.4618  222.1214 H   0  0  0  0  0  0  0  0  0  0  0  0
  135.2076   72.5990  222.2986 H   0  0  0  0  0  0  0  0  0  0  0  0
  135.2264   75.0981  222.1384 H   0  0  0  0  0  0  0  0  0  0  0  0
  137.7927   78.8713  220.8630 H   0  0  0  0  0  0  0  0  0  0  0  0
  138.0565   80.2698  222.8510 H   0  0  0  0  0  0  0  0  0  0  0  0
  140.6018   81.1048  221.0001 H   0  0  0  0  0  0  0  0  0  0  0  0
  142.9736   81.5240  221.5991 H   0  0  0  0  0  0  0  0  0  0  0  0
  143.9759   80.5588  223.6507 H   0  0  0  0  0  0  0  0  0  0  0  0
  142.5440   79.1419  225.1266 H   0  0  0  0  0  0  0  0  0  0  0  0
  140.2088   78.7368  224.5200 H   0  0  0  0  0  0  0  0  0  0  0  0
  141.0070   78.0857  222.1322 H   0  0  0  0  0  0  0  0  0  0  0  0
  141.6873   76.3947  222.4304 H   0  0  0  0  0  0  0  0  0  0  0  0
  142.1533   74.9708  220.2840 H   0  0  0  0  0  0  0  0  0  0  0  0
  143.2322   75.1621  218.0693 H   0  0  0  0  0  0  0  0  0  0  0  0
  143.4289   77.3763  216.9346 H   0  0  0  0  0  0  0  0  0  0  0  0
  143.3330   79.7910  217.3380 H   0  0  0  0  0  0  0  0  0  0  0  0
  141.4400   79.1687  220.2915 H   0  0  0  0  0  0  0  0  0  0  0  0
  1  2  2  0
  2  3  1  0
  3  4  2  0
  4  5  1  0
  5  6  1  0
  5  7  2  0
  7  8  1  0
  8  9  2  0
  9 10  1  0
 10 11  2  0
 11 12  1  0
 12 13  2  0
 13 14  1  0
 14 15  2  0
 15 16  1  0
 16 17  2  0
 17 18  1  0
 18 19  2  0
 11 20  1  0
 20 21  1  0
 21 22  1  0
 22 23  2  0
 23 24  1  0
 24 25  2  0
 25 26  1  0
 26 27  1  0
 26 28  2  0
 20  2  1  0
 28 22  1  0
  9  3  1  0
 19 14  1  0
  4 29  1  0
  7 30  1  0
  8 31  1  0
 12 32  1  0
 13 33  1  0
 15 34  1  0
 16 35  1  0
 17 36  1  0
 18 37  1  0
 19 38  1  0
 21 39  1  0
 21 40  1  0
 23 41  1  0
 24 42  1  0
 25 43  1  0
 27 44  1  0
 28 45  1  0
M  END
>  <smiles>  (47) 
O=c1c2cc(Cl)ccc2nc(/C=C/c2ccccc2)n1Cc1cccc(O)c1

>  <score_type>  (47) 
oracle

>  <origin>  (47) 
autodockgpu

>  <m_score__min__energy>  (47) 
-8.5099999999999998

>  <m_primary>  (47) 
energy

>  <rmsd>  (47) 
5.385772273110845

>  <m_score__min__rmsd>  (47) 
5.385772273110845

>  <meeko>  (47) 
{"free_energy": -6.85, "intermolecular_energy": -8.64, "internal_energy": -1.52, "cluster_size": 1, "cluster_id": 6, "rank_in_cluster": 1}

>  <energy>  (47) 
-6.91

>  <cluster_rmsd>  (47) 
0.0

>  <cluster>  (47) 
5

$$$$

     RDKit          3D

 45 48  0  0  0  0  0  0  0  0999 V2000
  134.9660   72.3170  222.7850 O   0  0  0  0  0  0  0  0  0  0  0  0
  135.3450   71.4660  223.6300 C   0  0  0  0  0  0  0  0  0  0  0  0
  134.6600   71.4140  224.8130 C   0  0  0  0  0  0  0  0  0  0  0  0
  133.6060   72.2580  225.0530 C   0  0  0  0  0  0  0  0  0  0  0  0
  132.9660   72.1360  226.2810 C   0  0  0  0  0  0  0  0  0  0  0  0
  131.6210   73.1850  226.6390 Cl  0  0  0  0  0  0  0  0  0  0  0  0
  133.3910   71.1990  227.2010 C   0  0  0  0  0  0  0  0  0  0  0  0
  134.4590   70.3440  226.9540 C   0  0  0  0  0  0  0  0  0  0  0  0
  135.0750   70.4870  225.7310 C   0  0  0  0  0  0  0  0  0  0  0  0
  136.0940   69.7080  225.4320 N   0  0  0  0  0  0  0  0  0  0  0  0
  136.8010   69.7320  224.2640 C   0  0  0  0  0  0  0  0  0  0  0  0
  137.8980   68.8110  224.1990 C   0  0  0  0  0  0  0  0  0  0  0  0
  139.1500   68.9180  224.5190 C   0  0  0  0  0  0  0  0  0  0  0  0
  139.6570   69.7500  225.6290 C   0  0  0  0  0  0  0  0  0  0  0  0
  139.4900   69.4320  226.9460 C   0  0  0  0  0  0  0  0  0  0  0  0
  140.0020   70.2750  227.9390 C   0  0  0  0  0  0  0  0  0  0  0  0
  140.6800   71.4370  227.6330 C   0  0  0  0  0  0  0  0  0  0  0  0
  140.8470   71.7560  226.3070 C   0  0  0  0  0  0  0  0  0  0  0  0
  140.3390   70.9190  225.3460 C   0  0  0  0  0  0  0  0  0  0  0  0
  136.4120   70.6260  223.3580 N   0  0  0  0  0  0  0  0  0  0  0  0
  136.9750   70.8110  222.0550 C   0  0  0  0  0  0  0  0  0  0  0  0
  138.3040   71.4180  222.0110 C   0  0  0  0  0  0  0  0  0  0  0  0
  139.4970   70.7880  221.8330 C   0  0  0  0  0  0  0  0  0  0  0  0
  140.7270   71.4650  221.8210 C   0  0  0  0  0  0  0  0  0  0  0  0
  140.7850   72.8310  221.9940 C   0  0  0  0  0  0  0  0  0  0  0  0
  139.5880   73.4850  222.1740 C   0  0  0  0  0  0  0  0  0  0  0  0
  139.6010   74.8820  222.3530 O   0  0  0  0  0  0  0  0  0  0  0  0
  138.3910   72.8090  222.1830 C   0  0  0  0  0  0  0  0  0  0  0  0
  133.2815   72.9985  224.3071 H   0  0  0  0  0  0  0  0  0  0  0  0
  132.8656   71.1261  228.1647 H   0  0  0  0  0  0  0  0  0  0  0  0
  134.7918   69.5983  227.6911 H   0  0  0  0  0  0  0  0  0  0  0  0
  137.6247   67.8227  223.8007 H   0  0  0  0  0  0  0  0  0  0  0  0
  139.8825   68.3520  223.9248 H   0  0  0  0  0  0  0  0  0  0  0  0
  138.9533   68.5137  227.2266 H   0  0  0  0  0  0  0  0  0  0  0  0
  139.8596   70.0029  228.9953 H   0  0  0  0  0  0  0  0  0  0  0  0
  141.0749   72.0884  228.4266 H   0  0  0  0  0  0  0  0  0  0  0  0
  141.3823   72.6728  226.0190 H   0  0  0  0  0  0  0  0  0  0  0  0
  140.4824   71.1935  224.2905 H   0  0  0  0  0  0  0  0  0  0  0  0
  137.0397   69.8242  221.5732 H   0  0  0  0  0  0  0  0  0  0  0  0
  136.3083   71.5198  221.5420 H   0  0  0  0  0  0  0  0  0  0  0  0
  139.4977   69.6971  221.6919 H   0  0  0  0  0  0  0  0  0  0  0  0
  141.6572   70.8972  221.6714 H   0  0  0  0  0  0  0  0  0  0  0  0
  141.7425   73.3725  221.9885 H   0  0  0  0  0  0  0  0  0  0  0  0
  139.0130   75.2540  223.1150 H   0  0  0  0  0  0  0  0  0  0  0  0
  137.4633   73.3812  222.3310 H   0  0  0  0  0  0  0  0  0  0  0  0
  1  2  2  0
  2  3  1  0
  3  4  2  0
  4  5  1  0
  5  6  1  0
  5  7  2  0
  7  8  1  0
  8  9  2  0
  9 10  1  0
 10 11  2  0
 11 12  1  0
 12 13  2  0
 13 14  1  0
 14 15  2  0
 15 16  1  0
 16 17  2  0
 17 18  1  0
 18 19  2  0
 11 20  1  0
 20 21  1  0
 21 22  1  0
 22 23  2  0
 23 24  1  0
 24 25  2  0
 25 26  1  0
 26 27  1  0
 26 28  2  0
 20  2  1  0
 28 22  1  0
  9  3  1  0
 19 14  1  0
  4 29  1  0
  7 30  1  0
  8 31  1  0
 12 32  1  0
 13 33  1  0
 15 34  1  0
 16 35  1  0
 17 36  1  0
 18 37  1  0
 19 38  1  0
 21 39  1  0
 21 40  1  0
 23 41  1  0
 24 42  1  0
 25 43  1  0
 27 44  1  0
 28 45  1  0
M  END
>  <smiles>  (48) 
O=c1c2cc(Cl)ccc2nc(/C=C/c2ccccc2)n1Cc1cccc(O)c1

>  <score_type>  (48) 
oracle

>  <origin>  (48) 
autodockgpu

>  <m_score__min__energy>  (48) 
-8.5099999999999998

>  <m_primary>  (48) 
energy

>  <rmsd>  (48) 
10.389756569300976

>  <m_score__min__rmsd>  (48) 
10.389756569300976

>  <meeko>  (48) 
{"free_energy": -7.05, "intermolecular_energy": -8.84, "internal_energy": -1.77, "cluster_size": 5, "cluster_id": 4, "rank_in_cluster": 3}

>  <energy>  (48) 
-6.84

>  <cluster_rmsd>  (48) 
0.22

>  <cluster>  (48) 
5

$$$$

     RDKit          3D

 45 48  0  0  0  0  0  0  0  0999 V2000
  142.2690   75.5820  218.5460 O   0  0  0  0  0  0  0  0  0  0  0  0
  141.8100   75.2820  219.6780 C   0  0  0  0  0  0  0  0  0  0  0  0
  141.5630   76.3120  220.5430 C   0  0  0  0  0  0  0  0  0  0  0  0
  141.8080   77.6120  220.1790 C   0  0  0  0  0  0  0  0  0  0  0  0
  141.5270   78.5960  221.1200 C   0  0  0  0  0  0  0  0  0  0  0  0
  141.8200   80.2640  220.7090 Cl  0  0  0  0  0  0  0  0  0  0  0  0
  141.0250   78.2550  222.3590 C   0  0  0  0  0  0  0  0  0  0  0  0
  140.7770   76.9370  222.7250 C   0  0  0  0  0  0  0  0  0  0  0  0
  141.0650   75.9830  221.7750 C   0  0  0  0  0  0  0  0  0  0  0  0
  140.8530   74.7140  222.0570 N   0  0  0  0  0  0  0  0  0  0  0  0
  141.0880   73.6610  221.2200 C   0  0  0  0  0  0  0  0  0  0  0  0
  140.8170   72.3690  221.7780 C   0  0  0  0  0  0  0  0  0  0  0  0
  139.8070   71.8970  222.4400 C   0  0  0  0  0  0  0  0  0  0  0  0
  139.9050   71.2720  223.7740 C   0  0  0  0  0  0  0  0  0  0  0  0
  140.8090   71.6560  224.7230 C   0  0  0  0  0  0  0  0  0  0  0  0
  140.8370   71.0110  225.9640 C   0  0  0  0  0  0  0  0  0  0  0  0
  139.9710   69.9830  226.2730 C   0  0  0  0  0  0  0  0  0  0  0  0
  139.0610   69.5970  225.3190 C   0  0  0  0  0  0  0  0  0  0  0  0
  139.0470   70.2390  224.1060 C   0  0  0  0  0  0  0  0  0  0  0  0
  141.5710   73.9610  220.0170 N   0  0  0  0  0  0  0  0  0  0  0  0
  141.8610   73.0350  218.9650 C   0  0  0  0  0  0  0  0  0  0  0  0
  143.1160   72.2960  219.0880 C   0  0  0  0  0  0  0  0  0  0  0  0
  143.2810   70.9460  219.1530 C   0  0  0  0  0  0  0  0  0  0  0  0
  144.5380   70.3330  219.2880 C   0  0  0  0  0  0  0  0  0  0  0  0
  145.6890   71.0860  219.3610 C   0  0  0  0  0  0  0  0  0  0  0  0
  145.5420   72.4540  219.2960 C   0  0  0  0  0  0  0  0  0  0  0  0
  146.6930   73.2620  219.3670 O   0  0  0  0  0  0  0  0  0  0  0  0
  144.3060   73.0400  219.1650 C   0  0  0  0  0  0  0  0  0  0  0  0
  142.2091   77.8645  219.1863 H   0  0  0  0  0  0  0  0  0  0  0  0
  140.8133   79.0551  223.0836 H   0  0  0  0  0  0  0  0  0  0  0  0
  140.3749   76.6723  223.7141 H   0  0  0  0  0  0  0  0  0  0  0  0
  141.6209   71.6366  221.6128 H   0  0  0  0  0  0  0  0  0  0  0  0
  138.8115   71.9668  221.9772 H   0  0  0  0  0  0  0  0  0  0  0  0
  141.5151   72.4725  224.5115 H   0  0  0  0  0  0  0  0  0  0  0  0
  141.5720   71.3335  226.7162 H   0  0  0  0  0  0  0  0  0  0  0  0
  140.0079   69.4870  227.2541 H   0  0  0  0  0  0  0  0  0  0  0  0
  138.3513   68.7822  225.5250 H   0  0  0  0  0  0  0  0  0  0  0  0
  138.3118   69.9136  223.3553 H   0  0  0  0  0  0  0  0  0  0  0  0
  141.0416   72.3021  218.9267 H   0  0  0  0  0  0  0  0  0  0  0  0
  141.9642   73.6440  218.0548 H   0  0  0  0  0  0  0  0  0  0  0  0
  142.3885   70.3054  219.0972 H   0  0  0  0  0  0  0  0  0  0  0  0
  144.6038   69.2360  219.3361 H   0  0  0  0  0  0  0  0  0  0  0  0
  146.6785   70.6172  219.4662 H   0  0  0  0  0  0  0  0  0  0  0  0
  146.6080   74.2180  218.9890 H   0  0  0  0  0  0  0  0  0  0  0  0
  144.2453   74.1373  219.1184 H   0  0  0  0  0  0  0  0  0  0  0  0
  1  2  2  0
  2  3  1  0
  3  4  2  0
  4  5  1  0
  5  6  1  0
  5  7  2  0
  7  8  1  0
  8  9  2  0
  9 10  1  0
 10 11  2  0
 11 12  1  0
 12 13  2  0
 13 14  1  0
 14 15  2  0
 15 16  1  0
 16 17  2  0
 17 18  1  0
 18 19  2  0
 11 20  1  0
 20 21  1  0
 21 22  1  0
 22 23  2  0
 23 24  1  0
 24 25  2  0
 25 26  1  0
 26 27  1  0
 26 28  2  0
 20  2  1  0
 28 22  1  0
  9  3  1  0
 19 14  1  0
  4 29  1  0
  7 30  1  0
  8 31  1  0
 12 32  1  0
 13 33  1  0
 15 34  1  0
 16 35  1  0
 17 36  1  0
 18 37  1  0
 19 38  1  0
 21 39  1  0
 21 40  1  0
 23 41  1  0
 24 42  1  0
 25 43  1  0
 27 44  1  0
 28 45  1  0
M  END
>  <smiles>  (49) 
O=c1c2cc(Cl)ccc2nc(/C=C/c2ccccc2)n1Cc1cccc(O)c1

>  <score_type>  (49) 
oracle

>  <origin>  (49) 
autodockgpu

>  <m_score__min__energy>  (49) 
-8.5099999999999998

>  <m_primary>  (49) 
energy

>  <rmsd>  (49) 
8.627150864574489

>  <m_score__min__rmsd>  (49) 
8.627150864574489

>  <meeko>  (49) 
{"free_energy": -7.63, "intermolecular_energy": -9.42, "internal_energy": -1.02, "cluster_size": 27, "cluster_id": 1, "rank_in_cluster": 26}

>  <energy>  (49) 
-6.77

>  <cluster_rmsd>  (49) 
0.31

>  <cluster>  (49) 
5

$$$$

     RDKit          3D

 45 48  0  0  0  0  0  0  0  0999 V2000
  140.0200   74.5940  222.0450 O   0  0  0  0  0  0  0  0  0  0  0  0
  140.5430   75.4680  221.3080 C   0  0  0  0  0  0  0  0  0  0  0  0
  141.7270   75.1470  220.7030 C   0  0  0  0  0  0  0  0  0  0  0  0
  142.3070   73.9190  220.8980 C   0  0  0  0  0  0  0  0  0  0  0  0
  143.5090   73.6770  220.2440 C   0  0  0  0  0  0  0  0  0  0  0  0
  144.2890   72.1340  220.4580 Cl  0  0  0  0  0  0  0  0  0  0  0  0
  144.0730   74.6450  219.4380 C   0  0  0  0  0  0  0  0  0  0  0  0
  143.4830   75.8880  219.2410 C   0  0  0  0  0  0  0  0  0  0  0  0
  142.2940   76.1010  219.9020 C   0  0  0  0  0  0  0  0  0  0  0  0
  141.6800   77.2580  219.7590 N   0  0  0  0  0  0  0  0  0  0  0  0
  140.5010   77.6140  220.3460 C   0  0  0  0  0  0  0  0  0  0  0  0
  140.0610   78.9490  220.0670 C   0  0  0  0  0  0  0  0  0  0  0  0
  140.5110   80.1110  220.4280 C   0  0  0  0  0  0  0  0  0  0  0  0
  141.3210   80.3500  221.6390 C   0  0  0  0  0  0  0  0  0  0  0  0
  142.2480   79.4670  222.1130 C   0  0  0  0  0  0  0  0  0  0  0  0
  142.9750   79.7700  223.2690 C   0  0  0  0  0  0  0  0  0  0  0  0
  142.7880   80.9470  223.9640 C   0  0  0  0  0  0  0  0  0  0  0  0
  141.8540   81.8350  223.4870 C   0  0  0  0  0  0  0  0  0  0  0  0
  141.1490   81.5240  222.3510 C   0  0  0  0  0  0  0  0  0  0  0  0
  139.9330   76.6990  221.1280 N   0  0  0  0  0  0  0  0  0  0  0  0
  138.6860   76.8300  221.8180 C   0  0  0  0  0  0  0  0  0  0  0  0
  138.4850   78.0790  222.5500 C   0  0  0  0  0  0  0  0  0  0  0  0
  139.3200   78.6480  223.4620 C   0  0  0  0  0  0  0  0  0  0  0  0
  139.0250   79.8510  224.1250 C   0  0  0  0  0  0  0  0  0  0  0  0
  137.8510   80.5270  223.8770 C   0  0  0  0  0  0  0  0  0  0  0  0
  136.9950   79.9670  222.9560 C   0  0  0  0  0  0  0  0  0  0  0  0
  135.7830   80.6260  222.6710 O   0  0  0  0  0  0  0  0  0  0  0  0
  137.2960   78.7890  222.3140 C   0  0  0  0  0  0  0  0  0  0  0  0
  141.8412   73.1597  221.5434 H   0  0  0  0  0  0  0  0  0  0  0  0
  145.0249   74.4246  218.9327 H   0  0  0  0  0  0  0  0  0  0  0  0
  143.9380   76.6546  218.5965 H   0  0  0  0  0  0  0  0  0  0  0  0
  139.1706   78.9979  219.4230 H   0  0  0  0  0  0  0  0  0  0  0  0
  140.2735   80.9749  219.7899 H   0  0  0  0  0  0  0  0  0  0  0  0
  142.4232   78.5175  221.5860 H   0  0  0  0  0  0  0  0  0  0  0  0
  143.7190   79.0473  223.6353 H   0  0  0  0  0  0  0  0  0  0  0  0
  143.3685   81.1678  224.8719 H   0  0  0  0  0  0  0  0  0  0  0  0
  141.6731   82.7855  224.0103 H   0  0  0  0  0  0  0  0  0  0  0  0
  140.4059   82.2484  221.9863 H   0  0  0  0  0  0  0  0  0  0  0  0
  137.8797   76.7424  221.0749 H   0  0  0  0  0  0  0  0  0  0  0  0
  138.6850   76.0370  222.5803 H   0  0  0  0  0  0  0  0  0  0  0  0
  140.2699   78.1425  223.6905 H   0  0  0  0  0  0  0  0  0  0  0  0
  139.7420   80.2589  224.8527 H   0  0  0  0  0  0  0  0  0  0  0  0
  137.6090   81.4693  224.3903 H   0  0  0  0  0  0  0  0  0  0  0  0
  134.9690   80.3630  223.2470 H   0  0  0  0  0  0  0  0  0  0  0  0
  136.5765   78.3861  221.5860 H   0  0  0  0  0  0  0  0  0  0  0  0
  1  2  2  0
  2  3  1  0
  3  4  2  0
  4  5  1  0
  5  6  1  0
  5  7  2  0
  7  8  1  0
  8  9  2  0
  9 10  1  0
 10 11  2  0
 11 12  1  0
 12 13  2  0
 13 14  1  0
 14 15  2  0
 15 16  1  0
 16 17  2  0
 17 18  1  0
 18 19  2  0
 11 20  1  0
 20 21  1  0
 21 22  1  0
 22 23  2  0
 23 24  1  0
 24 25  2  0
 25 26  1  0
 26 27  1  0
 26 28  2  0
 20  2  1  0
 28 22  1  0
  9  3  1  0
 19 14  1  0
  4 29  1  0
  7 30  1  0
  8 31  1  0
 12 32  1  0
 13 33  1  0
 15 34  1  0
 16 35  1  0
 17 36  1  0
 18 37  1  0
 19 38  1  0
 21 39  1  0
 21 40  1  0
 23 41  1  0
 24 42  1  0
 25 43  1  0
 27 44  1  0
 28 45  1  0
M  END
>  <smiles>  (50) 
O=c1c2cc(Cl)ccc2nc(/C=C/c2ccccc2)n1Cc1cccc(O)c1

>  <score_type>  (50) 
oracle

>  <origin>  (50) 
autodockgpu

>  <m_score__min__energy>  (50) 
-8.5099999999999998

>  <m_primary>  (50) 
energy

>  <rmsd>  (50) 
3.9375297703114636

>  <m_score__min__rmsd>  (50) 
3.9375297703114636

>  <meeko>  (50) 
{"free_energy": -6.77, "intermolecular_energy": -8.56, "internal_energy": -1.78, "cluster_size": 3, "cluster_id": 5, "rank_in_cluster": 3}

>  <energy>  (50) 
-6.85

>  <cluster_rmsd>  (50) 
0.0

>  <cluster>  (50) 
6

$$$$
