
     RDKit          3D

 50 52  0  0  0  0  0  0  0  0999 V2000
  142.3570   80.7670  223.8130 C   0  0  0  0  0  0  0  0  0  0  0  0
  142.5610   79.3840  223.2580 C   0  0  0  0  0  0  0  0  0  0  0  0
  141.3820   78.4890  223.3370 C   0  0  0  0  0  0  0  0  0  0  0  0
  140.7710   78.0350  222.0600 C   0  0  2  0  0  0  0  0  0  0  0  0
  141.0670   76.6890  221.7250 N   0  0  0  0  0  0  0  0  0  0  0  0
  139.9480   75.8010  221.4990 C   0  0  0  0  0  0  0  0  0  0  0  0
  138.7580   76.2080  221.5970 O   0  0  0  0  0  0  0  0  0  0  0  0
  140.1830   74.3720  221.1440 C   0  0  0  0  0  0  0  0  0  0  0  0
  139.9710   73.5840  222.3250 N   0  0  0  0  0  0  0  0  0  0  0  0
  140.4520   72.2500  222.3810 C   0  0  0  0  0  0  0  0  0  0  0  0
  141.0700   71.6840  221.4500 O   0  0  0  0  0  0  0  0  0  0  0  0
  140.2080   71.4910  223.6130 C   0  0  0  0  0  0  0  0  0  0  0  0
  139.5040   70.2960  223.5930 C   0  0  0  0  0  0  0  0  0  0  0  0
  139.2600   69.5640  224.7290 C   0  0  0  0  0  0  0  0  0  0  0  0
  139.7330   70.0410  225.9300 C   0  0  0  0  0  0  0  0  0  0  0  0
  139.5050   69.3300  227.0990 C   0  0  0  0  0  0  0  0  0  0  0  0
  140.0000   69.8430  228.2960 C   0  0  0  0  0  0  0  0  0  0  0  0
  140.6980   71.0310  228.3100 C   0  0  0  0  0  0  0  0  0  0  0  0
  140.9290   71.7440  227.1560 C   0  0  0  0  0  0  0  0  0  0  0  0
  140.4360   71.2320  225.9620 C   0  0  0  0  0  0  0  0  0  0  0  0
  140.6450   71.9040  224.8170 N   0  0  0  0  0  0  0  0  0  0  0  0
  141.0690   78.9910  220.9580 C   0  0  0  0  0  0  0  0  0  0  0  0
  141.8340   78.6660  219.8610 C   0  0  0  0  0  0  0  0  0  0  0  0
  142.0690   79.6040  218.8750 C   0  0  0  0  0  0  0  0  0  0  0  0
  141.5660   80.8900  218.9240 C   0  0  0  0  0  0  0  0  0  0  0  0
  140.8000   81.2140  220.0240 C   0  0  0  0  0  0  0  0  0  0  0  0
  140.5600   80.2710  221.0220 C   0  0  0  0  0  0  0  0  0  0  0  0
  142.3631   80.7256  224.9122 H   0  0  0  0  0  0  0  0  0  0  0  0
  143.1679   81.4245  223.4664 H   0  0  0  0  0  0  0  0  0  0  0  0
  141.3908   81.1624  223.4664 H   0  0  0  0  0  0  0  0  0  0  0  0
  142.8436   79.4810  222.1993 H   0  0  0  0  0  0  0  0  0  0  0  0
  143.3386   78.9181  223.8810 H   0  0  0  0  0  0  0  0  0  0  0  0
  141.6887   77.5902  223.8920 H   0  0  0  0  0  0  0  0  0  0  0  0
  140.6022   79.0989  223.8164 H   0  0  0  0  0  0  0  0  0  0  0  0
  139.6821   78.0372  222.2158 H   0  0  0  0  0  0  0  0  0  0  0  0
  141.9970   76.2500  221.6040 H   0  0  0  0  0  0  0  0  0  0  0  0
  139.4803   74.0620  220.3566 H   0  0  0  0  0  0  0  0  0  0  0  0
  141.2080   74.2335  220.7695 H   0  0  0  0  0  0  0  0  0  0  0  0
  139.4590   74.0060  223.1370 H   0  0  0  0  0  0  0  0  0  0  0  0
  139.1268   69.9203  222.6304 H   0  0  0  0  0  0  0  0  0  0  0  0
  138.6997   68.6187  224.6801 H   0  0  0  0  0  0  0  0  0  0  0  0
  138.9461   68.3827  227.0813 H   0  0  0  0  0  0  0  0  0  0  0  0
  139.8326   69.2963  229.2357 H   0  0  0  0  0  0  0  0  0  0  0  0
  141.0795   71.4185  229.2662 H   0  0  0  0  0  0  0  0  0  0  0  0
  141.4875   72.6914  227.1781 H   0  0  0  0  0  0  0  0  0  0  0  0
  142.2596   77.6558  219.7693 H   0  0  0  0  0  0  0  0  0  0  0  0
  142.6849   79.3140  218.0110 H   0  0  0  0  0  0  0  0  0  0  0  0
  141.7666   81.6192  218.1252 H   0  0  0  0  0  0  0  0  0  0  0  0
  140.3751   82.2246  220.1145 H   0  0  0  0  0  0  0  0  0  0  0  0
  139.9451   80.5569  221.8881 H   0  0  0  0  0  0  0  0  0  0  0  0
  1  2  1  0
  2  3  1  0
  3  4  1  0
  4  5  1  0
  5  6  1  0
  6  7  2  0
  6  8  1  0
  8  9  1  0
  9 10  1  0
 10 11  2  0
 10 12  1  0
 12 13  2  0
 13 14  1  0
 14 15  2  0
 15 16  1  0
 16 17  2  0
 17 18  1  0
 18 19  2  0
 19 20  1  0
 20 21  2  0
  4 22  1  0
 22 23  2  0
 23 24  1  0
 24 25  2  0
 25 26  1  0
 26 27  2  0
 21 12  1  0
 27 22  1  0
 20 15  1  0
  1 28  1  0
  1 29  1  0
  1 30  1  0
  2 31  1  0
  2 32  1  0
  3 33  1  0
  3 34  1  0
  4 35  1  1
  5 36  1  0
  8 37  1  0
  8 38  1  0
  9 39  1  0
 13 40  1  0
 14 41  1  0
 16 42  1  0
 17 43  1  0
 18 44  1  0
 19 45  1  0
 23 46  1  0
 24 47  1  0
 25 48  1  0
 26 49  1  0
 27 50  1  0
M  END
>  <smiles>  (1) 
CCC[C@H](NC(=O)CNC(=O)c1ccc2ccccc2n1)c1ccccc1

>  <score_type>  (1) 
oracle

>  <origin>  (1) 
autodockgpu

>  <m_score__min__energy>  (1) 
-8.8900000000000006

>  <m_primary>  (1) 
energy

>  <rmsd>  (1) 
3.698909202413237

>  <m_score__min__rmsd>  (1) 
3.698909202413237

>  <meeko>  (1) 
{"free_energy": -8.73, "intermolecular_energy": -10.82, "internal_energy": -1.3, "cluster_size": 43, "cluster_id": 1, "rank_in_cluster": 7}

>  <energy>  (1) 
-8.89

>  <cluster_rmsd>  (1) 
0.0

>  <cluster>  (1) 
1

$$$$

     RDKit          3D

 50 52  0  0  0  0  0  0  0  0999 V2000
  146.3210   73.4030  221.7280 C   0  0  0  0  0  0  0  0  0  0  0  0
  145.6720   74.1560  220.6000 C   0  0  0  0  0  0  0  0  0  0  0  0
  144.3530   73.6350  220.1670 C   0  0  0  0  0  0  0  0  0  0  0  0
  143.1820   74.5450  220.2690 C   0  0  2  0  0  0  0  0  0  0  0  0
  141.9360   73.8740  220.3660 N   0  0  0  0  0  0  0  0  0  0  0  0
  140.8190   74.6240  220.8950 C   0  0  0  0  0  0  0  0  0  0  0  0
  140.9470   75.8270  221.2550 O   0  0  0  0  0  0  0  0  0  0  0  0
  139.4790   73.9830  221.0270 C   0  0  0  0  0  0  0  0  0  0  0  0
  139.4680   73.2340  222.2510 N   0  0  0  0  0  0  0  0  0  0  0  0
  140.1550   71.9940  222.3280 C   0  0  0  0  0  0  0  0  0  0  0  0
  140.7950   71.4820  221.3810 O   0  0  0  0  0  0  0  0  0  0  0  0
  140.1110   71.2720  223.6050 C   0  0  0  0  0  0  0  0  0  0  0  0
  139.5700   69.9970  223.6910 C   0  0  0  0  0  0  0  0  0  0  0  0
  139.5150   69.2980  224.8710 C   0  0  0  0  0  0  0  0  0  0  0  0
  140.0160   69.8880  226.0080 C   0  0  0  0  0  0  0  0  0  0  0  0
  139.9770   69.2120  227.2190 C   0  0  0  0  0  0  0  0  0  0  0  0
  140.4950   69.8420  228.3480 C   0  0  0  0  0  0  0  0  0  0  0  0
  141.0310   71.1090  228.2570 C   0  0  0  0  0  0  0  0  0  0  0  0
  141.0740   71.7870  227.0610 C   0  0  0  0  0  0  0  0  0  0  0  0
  140.5580   71.1590  225.9340 C   0  0  0  0  0  0  0  0  0  0  0  0
  140.5850   71.7950  224.7510 N   0  0  0  0  0  0  0  0  0  0  0  0
  143.2100   75.5730  219.1920 C   0  0  0  0  0  0  0  0  0  0  0  0
  142.8980   76.8970  219.4010 C   0  0  0  0  0  0  0  0  0  0  0  0
  142.9460   77.7960  218.3540 C   0  0  0  0  0  0  0  0  0  0  0  0
  143.3000   77.4360  217.0680 C   0  0  0  0  0  0  0  0  0  0  0  0
  143.6120   76.1090  216.8600 C   0  0  0  0  0  0  0  0  0  0  0  0
  143.5650   75.1970  217.9130 C   0  0  0  0  0  0  0  0  0  0  0  0
  145.9713   73.8087  222.6888 H   0  0  0  0  0  0  0  0  0  0  0  0
  146.0529   72.3383  221.6602 H   0  0  0  0  0  0  0  0  0  0  0  0
  147.4136   73.5110  221.6602 H   0  0  0  0  0  0  0  0  0  0  0  0
  145.5366   75.1993  220.9213 H   0  0  0  0  0  0  0  0  0  0  0  0
  146.3420   74.0450  219.7347 H   0  0  0  0  0  0  0  0  0  0  0  0
  144.4474   73.3385  219.1119 H   0  0  0  0  0  0  0  0  0  0  0  0
  144.1324   72.8189  220.8708 H   0  0  0  0  0  0  0  0  0  0  0  0
  143.2775   75.0700  221.2309 H   0  0  0  0  0  0  0  0  0  0  0  0
  141.7110   72.9010  220.0900 H   0  0  0  0  0  0  0  0  0  0  0  0
  138.6961   74.7553  221.0541 H   0  0  0  0  0  0  0  0  0  0  0  0
  139.2845   73.3209  220.1704 H   0  0  0  0  0  0  0  0  0  0  0  0
  138.9480   73.6130  223.0790 H   0  0  0  0  0  0  0  0  0  0  0  0
  139.1703   69.5290  222.7793 H   0  0  0  0  0  0  0  0  0  0  0  0
  139.0799   68.2883  224.9066 H   0  0  0  0  0  0  0  0  0  0  0  0
  139.5469   68.2018  227.2859 H   0  0  0  0  0  0  0  0  0  0  0  0
  140.4763   69.3252  229.3189 H   0  0  0  0  0  0  0  0  0  0  0  0
  141.4334   71.5886  229.1615 H   0  0  0  0  0  0  0  0  0  0  0  0
  141.5045   72.7973  226.9985 H   0  0  0  0  0  0  0  0  0  0  0  0
  142.6094   77.2402  220.4054 H   0  0  0  0  0  0  0  0  0  0  0  0
  142.6906   78.8473  218.5530 H   0  0  0  0  0  0  0  0  0  0  0  0
  143.3314   78.1714  216.2506 H   0  0  0  0  0  0  0  0  0  0  0  0
  143.9003   75.7674  215.8549 H   0  0  0  0  0  0  0  0  0  0  0  0
  143.8189   74.1446  217.7181 H   0  0  0  0  0  0  0  0  0  0  0  0
  1  2  1  0
  2  3  1  0
  3  4  1  0
  4  5  1  0
  5  6  1  0
  6  7  2  0
  6  8  1  0
  8  9  1  0
  9 10  1  0
 10 11  2  0
 10 12  1  0
 12 13  2  0
 13 14  1  0
 14 15  2  0
 15 16  1  0
 16 17  2  0
 17 18  1  0
 18 19  2  0
 19 20  1  0
 20 21  2  0
  4 22  1  0
 22 23  2  0
 23 24  1  0
 24 25  2  0
 25 26  1  0
 26 27  2  0
 21 12  1  0
 27 22  1  0
 20 15  1  0
  1 28  1  0
  1 29  1  0
  1 30  1  0
  2 31  1  0
  2 32  1  0
  3 33  1  0
  3 34  1  0
  4 35  1  1
  5 36  1  0
  8 37  1  0
  8 38  1  0
  9 39  1  0
 13 40  1  0
 14 41  1  0
 16 42  1  0
 17 43  1  0
 18 44  1  0
 19 45  1  0
 23 46  1  0
 24 47  1  0
 25 48  1  0
 26 49  1  0
 27 50  1  0
M  END
>  <smiles>  (2) 
CCC[C@H](NC(=O)CNC(=O)c1ccc2ccccc2n1)c1ccccc1

>  <score_type>  (2) 
oracle

>  <origin>  (2) 
autodockgpu

>  <m_score__min__energy>  (2) 
-8.8900000000000006

>  <m_primary>  (2) 
energy

>  <rmsd>  (2) 
5.539806239800695

>  <m_score__min__rmsd>  (2) 
5.539806239800695

>  <meeko>  (2) 
{"free_energy": -8.13, "intermolecular_energy": -10.22, "internal_energy": -2.03, "cluster_size": 5, "cluster_id": 3, "rank_in_cluster": 5}

>  <energy>  (2) 
-8.87

>  <cluster_rmsd>  (2) 
0.22

>  <cluster>  (2) 
1

$$$$

     RDKit          3D

 50 52  0  0  0  0  0  0  0  0999 V2000
  142.3820   80.5010  223.6970 C   0  0  0  0  0  0  0  0  0  0  0  0
  142.5480   79.3550  222.7390 C   0  0  0  0  0  0  0  0  0  0  0  0
  141.3980   78.4230  222.6600 C   0  0  0  0  0  0  0  0  0  0  0  0
  140.7540   78.2280  221.3340 C   0  0  2  0  0  0  0  0  0  0  0  0
  140.8230   76.8970  220.8480 N   0  0  0  0  0  0  0  0  0  0  0  0
  140.1580   75.8740  221.6240 C   0  0  0  0  0  0  0  0  0  0  0  0
  139.5420   76.1540  222.6890 O   0  0  0  0  0  0  0  0  0  0  0  0
  140.1890   74.4520  221.1750 C   0  0  0  0  0  0  0  0  0  0  0  0
  139.9820   73.6220  222.3260 N   0  0  0  0  0  0  0  0  0  0  0  0
  140.5140   72.3050  222.3540 C   0  0  0  0  0  0  0  0  0  0  0  0
  141.1730   71.7920  221.4220 O   0  0  0  0  0  0  0  0  0  0  0  0
  140.2720   71.5010  223.5580 C   0  0  0  0  0  0  0  0  0  0  0  0
  139.5840   70.2980  223.4910 C   0  0  0  0  0  0  0  0  0  0  0  0
  139.3430   69.5250  224.6000 C   0  0  0  0  0  0  0  0  0  0  0  0
  139.8030   69.9640  225.8190 C   0  0  0  0  0  0  0  0  0  0  0  0
  139.5770   69.2100  226.9620 C   0  0  0  0  0  0  0  0  0  0  0  0
  140.0600   69.6870  228.1790 C   0  0  0  0  0  0  0  0  0  0  0  0
  140.7430   70.8830  228.2390 C   0  0  0  0  0  0  0  0  0  0  0  0
  140.9710   71.6380  227.1120 C   0  0  0  0  0  0  0  0  0  0  0  0
  140.4900   71.1620  225.8970 C   0  0  0  0  0  0  0  0  0  0  0  0
  140.6970   71.8770  224.7780 N   0  0  0  0  0  0  0  0  0  0  0  0
  141.2430   79.2350  220.3520 C   0  0  0  0  0  0  0  0  0  0  0  0
  140.9190   80.5710  220.4140 C   0  0  0  0  0  0  0  0  0  0  0  0
  141.4100   81.4500  219.4680 C   0  0  0  0  0  0  0  0  0  0  0  0
  142.2330   81.0560  218.4300 C   0  0  0  0  0  0  0  0  0  0  0  0
  142.5560   79.7170  218.3700 C   0  0  0  0  0  0  0  0  0  0  0  0
  142.0630   78.8260  219.3210 C   0  0  0  0  0  0  0  0  0  0  0  0
  142.4363   80.1263  224.7298 H   0  0  0  0  0  0  0  0  0  0  0  0
  143.1830   81.2365  223.5312 H   0  0  0  0  0  0  0  0  0  0  0  0
  141.4052   80.9790  223.5312 H   0  0  0  0  0  0  0  0  0  0  0  0
  142.7163   79.7728  221.7354 H   0  0  0  0  0  0  0  0  0  0  0  0
  143.3939   78.7625  223.1176 H   0  0  0  0  0  0  0  0  0  0  0  0
  141.7494   77.4384  223.0021 H   0  0  0  0  0  0  0  0  0  0  0  0
  140.6192   78.8905  223.2804 H   0  0  0  0  0  0  0  0  0  0  0  0
  139.6777   78.4018  221.4805 H   0  0  0  0  0  0  0  0  0  0  0  0
  141.2840   76.5540  219.9870 H   0  0  0  0  0  0  0  0  0  0  0  0
  139.3915   74.2752  220.4383 H   0  0  0  0  0  0  0  0  0  0  0  0
  141.1555   74.2198  220.7038 H   0  0  0  0  0  0  0  0  0  0  0  0
  139.4360   73.9980  223.1380 H   0  0  0  0  0  0  0  0  0  0  0  0
  139.2181   69.9507  222.5135 H   0  0  0  0  0  0  0  0  0  0  0  0
  138.7941   68.5756  224.5150 H   0  0  0  0  0  0  0  0  0  0  0  0
  139.0291   68.2576  226.9085 H   0  0  0  0  0  0  0  0  0  0  0  0
  139.8952   69.1053  229.0980 H   0  0  0  0  0  0  0  0  0  0  0  0
  141.1141   71.2418  229.2104 H   0  0  0  0  0  0  0  0  0  0  0  0
  141.5179   72.5906  227.1701 H   0  0  0  0  0  0  0  0  0  0  0  0
  140.2670   80.9402  221.2193 H   0  0  0  0  0  0  0  0  0  0  0  0
  141.1333   82.5119  219.5444 H   0  0  0  0  0  0  0  0  0  0  0  0
  142.6115   81.7750  217.6885 H   0  0  0  0  0  0  0  0  0  0  0  0
  143.2085   79.3490  217.5645 H   0  0  0  0  0  0  0  0  0  0  0  0
  142.3363   77.7630  219.2473 H   0  0  0  0  0  0  0  0  0  0  0  0
  1  2  1  0
  2  3  1  0
  3  4  1  0
  4  5  1  0
  5  6  1  0
  6  7  2  0
  6  8  1  0
  8  9  1  0
  9 10  1  0
 10 11  2  0
 10 12  1  0
 12 13  2  0
 13 14  1  0
 14 15  2  0
 15 16  1  0
 16 17  2  0
 17 18  1  0
 18 19  2  0
 19 20  1  0
 20 21  2  0
  4 22  1  0
 22 23  2  0
 23 24  1  0
 24 25  2  0
 25 26  1  0
 26 27  2  0
 21 12  1  0
 27 22  1  0
 20 15  1  0
  1 28  1  0
  1 29  1  0
  1 30  1  0
  2 31  1  0
  2 32  1  0
  3 33  1  0
  3 34  1  0
  4 35  1  1
  5 36  1  0
  8 37  1  0
  8 38  1  0
  9 39  1  0
 13 40  1  0
 14 41  1  0
 16 42  1  0
 17 43  1  0
 18 44  1  0
 19 45  1  0
 23 46  1  0
 24 47  1  0
 25 48  1  0
 26 49  1  0
 27 50  1  0
M  END
>  <smiles>  (3) 
CCC[C@H](NC(=O)CNC(=O)c1ccc2ccccc2n1)c1ccccc1

>  <score_type>  (3) 
oracle

>  <origin>  (3) 
autodockgpu

>  <m_score__min__energy>  (3) 
-8.8900000000000006

>  <m_primary>  (3) 
energy

>  <rmsd>  (3) 
3.6607685574055475

>  <m_score__min__rmsd>  (3) 
3.6607685574055475

>  <meeko>  (3) 
{"free_energy": -8.28, "intermolecular_energy": -10.37, "internal_energy": -1.72, "cluster_size": 43, "cluster_id": 1, "rank_in_cluster": 34}

>  <energy>  (3) 
-8.8

>  <cluster_rmsd>  (3) 
1.67

>  <cluster>  (3) 
1

$$$$

     RDKit          3D

 50 52  0  0  0  0  0  0  0  0999 V2000
  142.3660   80.4950  223.7400 C   0  0  0  0  0  0  0  0  0  0  0  0
  142.5600   79.3580  222.7760 C   0  0  0  0  0  0  0  0  0  0  0  0
  141.4300   78.4020  222.6890 C   0  0  0  0  0  0  0  0  0  0  0  0
  140.7820   78.2140  221.3640 C   0  0  2  0  0  0  0  0  0  0  0  0
  140.8510   76.8860  220.8700 N   0  0  0  0  0  0  0  0  0  0  0  0
  140.1980   75.8560  221.6470 C   0  0  0  0  0  0  0  0  0  0  0  0
  139.5920   76.1280  222.7200 O   0  0  0  0  0  0  0  0  0  0  0  0
  140.2290   74.4370  221.1900 C   0  0  0  0  0  0  0  0  0  0  0  0
  140.0140   73.6000  222.3360 N   0  0  0  0  0  0  0  0  0  0  0  0
  140.5330   72.2790  222.3540 C   0  0  0  0  0  0  0  0  0  0  0  0
  141.1870   71.7650  221.4180 O   0  0  0  0  0  0  0  0  0  0  0  0
  140.2840   71.4680  223.5520 C   0  0  0  0  0  0  0  0  0  0  0  0
  139.6010   70.2630  223.4740 C   0  0  0  0  0  0  0  0  0  0  0  0
  139.3530   69.4840  224.5770 C   0  0  0  0  0  0  0  0  0  0  0  0
  139.8000   69.9200  225.8030 C   0  0  0  0  0  0  0  0  0  0  0  0
  139.5670   69.1600  226.9400 C   0  0  0  0  0  0  0  0  0  0  0  0
  140.0360   69.6340  228.1630 C   0  0  0  0  0  0  0  0  0  0  0  0
  140.7140   70.8320  228.2350 C   0  0  0  0  0  0  0  0  0  0  0  0
  140.9490   71.5930  227.1130 C   0  0  0  0  0  0  0  0  0  0  0  0
  140.4820   71.1200  225.8920 C   0  0  0  0  0  0  0  0  0  0  0  0
  140.6960   71.8400  224.7780 N   0  0  0  0  0  0  0  0  0  0  0  0
  141.2670   79.2270  220.3860 C   0  0  0  0  0  0  0  0  0  0  0  0
  140.9450   80.5630  220.4580 C   0  0  0  0  0  0  0  0  0  0  0  0
  141.4320   81.4470  219.5150 C   0  0  0  0  0  0  0  0  0  0  0  0
  142.2490   81.0590  218.4710 C   0  0  0  0  0  0  0  0  0  0  0  0
  142.5700   79.7200  218.4000 C   0  0  0  0  0  0  0  0  0  0  0  0
  142.0820   78.8240  219.3480 C   0  0  0  0  0  0  0  0  0  0  0  0
  142.4305   80.1167  224.7709 H   0  0  0  0  0  0  0  0  0  0  0  0
  143.1481   81.2512  223.5773 H   0  0  0  0  0  0  0  0  0  0  0  0
  141.3774   80.9491  223.5773 H   0  0  0  0  0  0  0  0  0  0  0  0
  142.7221   79.7847  221.7752 H   0  0  0  0  0  0  0  0  0  0  0  0
  143.4178   78.7819  223.1533 H   0  0  0  0  0  0  0  0  0  0  0  0
  141.8052   77.4201  223.0131 H   0  0  0  0  0  0  0  0  0  0  0  0
  140.6451   78.8423  223.3215 H   0  0  0  0  0  0  0  0  0  0  0  0
  139.7061   78.3860  221.5152 H   0  0  0  0  0  0  0  0  0  0  0  0
  141.3040   76.5490  220.0020 H   0  0  0  0  0  0  0  0  0  0  0  0
  139.4353   74.2658  220.4479 H   0  0  0  0  0  0  0  0  0  0  0  0
  141.1977   74.2058  220.7228 H   0  0  0  0  0  0  0  0  0  0  0  0
  139.4720   73.9760  223.1510 H   0  0  0  0  0  0  0  0  0  0  0  0
  139.2449   69.9188  222.4918 H   0  0  0  0  0  0  0  0  0  0  0  0
  138.8091   68.5326  224.4826 H   0  0  0  0  0  0  0  0  0  0  0  0
  139.0244   68.2052  226.8772 H   0  0  0  0  0  0  0  0  0  0  0  0
  139.8641   69.0481  229.0779 H   0  0  0  0  0  0  0  0  0  0  0  0
  141.0753   71.1876  229.2113 H   0  0  0  0  0  0  0  0  0  0  0  0
  141.4907   72.5480  227.1802 H   0  0  0  0  0  0  0  0  0  0  0  0
  140.2978   80.9281  221.2691 H   0  0  0  0  0  0  0  0  0  0  0  0
  141.1566   82.5086  219.5993 H   0  0  0  0  0  0  0  0  0  0  0  0
  142.6249   81.7826  217.7327 H   0  0  0  0  0  0  0  0  0  0  0  0
  143.2168   79.3564  217.5879 H   0  0  0  0  0  0  0  0  0  0  0  0
  142.3549   77.7615  219.2667 H   0  0  0  0  0  0  0  0  0  0  0  0
  1  2  1  0
  2  3  1  0
  3  4  1  0
  4  5  1  0
  5  6  1  0
  6  7  2  0
  6  8  1  0
  8  9  1  0
  9 10  1  0
 10 11  2  0
 10 12  1  0
 12 13  2  0
 13 14  1  0
 14 15  2  0
 15 16  1  0
 16 17  2  0
 17 18  1  0
 18 19  2  0
 19 20  1  0
 20 21  2  0
  4 22  1  0
 22 23  2  0
 23 24  1  0
 24 25  2  0
 25 26  1  0
 26 27  2  0
 21 12  1  0
 27 22  1  0
 20 15  1  0
  1 28  1  0
  1 29  1  0
  1 30  1  0
  2 31  1  0
  2 32  1  0
  3 33  1  0
  3 34  1  0
  4 35  1  1
  5 36  1  0
  8 37  1  0
  8 38  1  0
  9 39  1  0
 13 40  1  0
 14 41  1  0
 16 42  1  0
 17 43  1  0
 18 44  1  0
 19 45  1  0
 23 46  1  0
 24 47  1  0
 25 48  1  0
 26 49  1  0
 27 50  1  0
M  END
>  <smiles>  (4) 
CCC[C@H](NC(=O)CNC(=O)c1ccc2ccccc2n1)c1ccccc1

>  <score_type>  (4) 
oracle

>  <origin>  (4) 
autodockgpu

>  <m_score__min__energy>  (4) 
-8.8900000000000006

>  <m_primary>  (4) 
energy

>  <rmsd>  (4) 
3.6579906118662593

>  <m_score__min__rmsd>  (4) 
3.6579906118662593

>  <meeko>  (4) 
{"free_energy": -8.28, "intermolecular_energy": -10.36, "internal_energy": -1.71, "cluster_size": 43, "cluster_id": 1, "rank_in_cluster": 36}

>  <energy>  (4) 
-8.78

>  <cluster_rmsd>  (4) 
1.66

>  <cluster>  (4) 
1

$$$$

     RDKit          3D

 50 52  0  0  0  0  0  0  0  0999 V2000
  142.4960   80.6590  223.8520 C   0  0  0  0  0  0  0  0  0  0  0  0
  142.6110   79.3990  223.0410 C   0  0  0  0  0  0  0  0  0  0  0  0
  141.3900   78.5590  223.0000 C   0  0  0  0  0  0  0  0  0  0  0  0
  140.7230   78.3720  221.6840 C   0  0  2  0  0  0  0  0  0  0  0  0
  140.8700   77.0700  221.1420 N   0  0  0  0  0  0  0  0  0  0  0  0
  140.0940   76.0090  221.7440 C   0  0  0  0  0  0  0  0  0  0  0  0
  139.3170   76.2340  222.7130 O   0  0  0  0  0  0  0  0  0  0  0  0
  140.1990   74.6150  221.2260 C   0  0  0  0  0  0  0  0  0  0  0  0
  139.9530   73.7190  222.3210 N   0  0  0  0  0  0  0  0  0  0  0  0
  140.6100   72.4610  222.3670 C   0  0  0  0  0  0  0  0  0  0  0  0
  141.4160   72.0550  221.4990 O   0  0  0  0  0  0  0  0  0  0  0  0
  140.3210   71.5860  223.5090 C   0  0  0  0  0  0  0  0  0  0  0  0
  139.6190   70.4010  223.3460 C   0  0  0  0  0  0  0  0  0  0  0  0
  139.3340   69.5630  224.3960 C   0  0  0  0  0  0  0  0  0  0  0  0
  139.7650   69.9170  225.6540 C   0  0  0  0  0  0  0  0  0  0  0  0
  139.4950   69.0950  226.7390 C   0  0  0  0  0  0  0  0  0  0  0  0
  139.9470   69.4870  227.9970 C   0  0  0  0  0  0  0  0  0  0  0  0
  140.6450   70.6650  228.1530 C   0  0  0  0  0  0  0  0  0  0  0  0
  140.9170   71.4870  227.0830 C   0  0  0  0  0  0  0  0  0  0  0  0
  140.4660   71.0970  225.8270 C   0  0  0  0  0  0  0  0  0  0  0  0
  140.7150   71.8770  224.7620 N   0  0  0  0  0  0  0  0  0  0  0  0
  141.1110   79.4490  220.7320 C   0  0  0  0  0  0  0  0  0  0  0  0
  141.8750   79.2270  219.6090 C   0  0  0  0  0  0  0  0  0  0  0  0
  142.1970   80.2760  218.7700 C   0  0  0  0  0  0  0  0  0  0  0  0
  141.7850   81.5740  218.9950 C   0  0  0  0  0  0  0  0  0  0  0  0
  141.0200   81.7950  220.1210 C   0  0  0  0  0  0  0  0  0  0  0  0
  140.6920   80.7420  220.9720 C   0  0  0  0  0  0  0  0  0  0  0  0
  142.5188   80.4091  224.9230 H   0  0  0  0  0  0  0  0  0  0  0  0
  143.3369   81.3267  223.6133 H   0  0  0  0  0  0  0  0  0  0  0  0
  141.5481   81.1635  223.6133 H   0  0  0  0  0  0  0  0  0  0  0  0
  142.8643   79.6813  222.0084 H   0  0  0  0  0  0  0  0  0  0  0  0
  143.3834   78.7896  223.5330 H   0  0  0  0  0  0  0  0  0  0  0  0
  141.6648   77.5616  223.3736 H   0  0  0  0  0  0  0  0  0  0  0  0
  140.6554   79.1067  223.6085 H   0  0  0  0  0  0  0  0  0  0  0  0
  139.6421   78.4639  221.8659 H   0  0  0  0  0  0  0  0  0  0  0  0
  141.4620   76.7720  220.3450 H   0  0  0  0  0  0  0  0  0  0  0  0
  139.4521   74.4527  220.4349 H   0  0  0  0  0  0  0  0  0  0  0  0
  141.1983   74.4374  220.8019 H   0  0  0  0  0  0  0  0  0  0  0  0
  139.2860   74.0050  223.0770 H   0  0  0  0  0  0  0  0  0  0  0  0
  139.2778   70.1220  222.3381 H   0  0  0  0  0  0  0  0  0  0  0  0
  138.7739   68.6300  224.2351 H   0  0  0  0  0  0  0  0  0  0  0  0
  138.9371   68.1559  226.6087 H   0  0  0  0  0  0  0  0  0  0  0  0
  139.7454   68.8517  228.8721 H   0  0  0  0  0  0  0  0  0  0  0  0
  140.9927   70.9550  229.1555 H   0  0  0  0  0  0  0  0  0  0  0  0
  141.4751   72.4253  227.2177 H   0  0  0  0  0  0  0  0  0  0  0  0
  142.2301   78.2116  219.3790 H   0  0  0  0  0  0  0  0  0  0  0  0
  142.8104   80.0672  217.8811 H   0  0  0  0  0  0  0  0  0  0  0  0
  142.0536   82.3917  218.3100 H   0  0  0  0  0  0  0  0  0  0  0  0
  140.6659   82.8112  220.3490 H   0  0  0  0  0  0  0  0  0  0  0  0
  140.0802   80.9473  221.8628 H   0  0  0  0  0  0  0  0  0  0  0  0
  1  2  1  0
  2  3  1  0
  3  4  1  0
  4  5  1  0
  5  6  1  0
  6  7  2  0
  6  8  1  0
  8  9  1  0
  9 10  1  0
 10 11  2  0
 10 12  1  0
 12 13  2  0
 13 14  1  0
 14 15  2  0
 15 16  1  0
 16 17  2  0
 17 18  1  0
 18 19  2  0
 19 20  1  0
 20 21  2  0
  4 22  1  0
 22 23  2  0
 23 24  1  0
 24 25  2  0
 25 26  1  0
 26 27  2  0
 21 12  1  0
 27 22  1  0
 20 15  1  0
  1 28  1  0
  1 29  1  0
  1 30  1  0
  2 31  1  0
  2 32  1  0
  3 33  1  0
  3 34  1  0
  4 35  1  1
  5 36  1  0
  8 37  1  0
  8 38  1  0
  9 39  1  0
 13 40  1  0
 14 41  1  0
 16 42  1  0
 17 43  1  0
 18 44  1  0
 19 45  1  0
 23 46  1  0
 24 47  1  0
 25 48  1  0
 26 49  1  0
 27 50  1  0
M  END
>  <smiles>  (5) 
CCC[C@H](NC(=O)CNC(=O)c1ccc2ccccc2n1)c1ccccc1

>  <score_type>  (5) 
oracle

>  <origin>  (5) 
autodockgpu

>  <m_score__min__energy>  (5) 
-8.8900000000000006

>  <m_primary>  (5) 
energy

>  <rmsd>  (5) 
3.6020450040424232

>  <m_score__min__rmsd>  (5) 
3.6020450040424232

>  <meeko>  (5) 
{"free_energy": -8.31, "intermolecular_energy": -10.4, "internal_energy": -1.68, "cluster_size": 43, "cluster_id": 1, "rank_in_cluster": 25}

>  <energy>  (5) 
-8.77

>  <cluster_rmsd>  (5) 
1.48

>  <cluster>  (5) 
1

$$$$

     RDKit          3D

 50 52  0  0  0  0  0  0  0  0999 V2000
  142.0940   80.3620  223.7290 C   0  0  0  0  0  0  0  0  0  0  0  0
  141.0140   79.4000  223.3200 C   0  0  0  0  0  0  0  0  0  0  0  0
  141.4660   78.2510  222.5000 C   0  0  0  0  0  0  0  0  0  0  0  0
  140.8210   78.0500  221.1750 C   0  0  2  0  0  0  0  0  0  0  0  0
  140.8190   76.7020  220.7330 N   0  0  0  0  0  0  0  0  0  0  0  0
  140.1200   75.7370  221.5520 C   0  0  0  0  0  0  0  0  0  0  0  0
  139.5360   76.0800  222.6160 O   0  0  0  0  0  0  0  0  0  0  0  0
  140.0770   74.3020  221.1490 C   0  0  0  0  0  0  0  0  0  0  0  0
  139.9420   73.5140  222.3410 N   0  0  0  0  0  0  0  0  0  0  0  0
  140.4080   72.1730  222.3580 C   0  0  0  0  0  0  0  0  0  0  0  0
  140.9470   71.6010  221.3830 O   0  0  0  0  0  0  0  0  0  0  0  0
  140.2450   71.4140  223.6040 C   0  0  0  0  0  0  0  0  0  0  0  0
  139.6140   70.1790  223.6150 C   0  0  0  0  0  0  0  0  0  0  0  0
  139.4470   69.4470  224.7650 C   0  0  0  0  0  0  0  0  0  0  0  0
  139.9270   69.9630  225.9470 C   0  0  0  0  0  0  0  0  0  0  0  0
  139.7750   69.2520  227.1290 C   0  0  0  0  0  0  0  0  0  0  0  0
  140.2740   69.8060  228.3050 C   0  0  0  0  0  0  0  0  0  0  0  0
  140.9010   71.0340  228.2880 C   0  0  0  0  0  0  0  0  0  0  0  0
  141.0540   71.7470  227.1210 C   0  0  0  0  0  0  0  0  0  0  0  0
  140.5570   71.1940  225.9470 C   0  0  0  0  0  0  0  0  0  0  0  0
  140.6920   71.8650  224.7910 N   0  0  0  0  0  0  0  0  0  0  0  0
  141.3720   78.9960  220.1660 C   0  0  0  0  0  0  0  0  0  0  0  0
  142.0920   78.5920  219.0650 C   0  0  0  0  0  0  0  0  0  0  0  0
  142.5730   79.5260  218.1680 C   0  0  0  0  0  0  0  0  0  0  0  0
  142.3660   80.8850  218.3140 C   0  0  0  0  0  0  0  0  0  0  0  0
  141.6450   81.2870  219.4170 C   0  0  0  0  0  0  0  0  0  0  0  0
  141.1580   80.3490  220.3250 C   0  0  0  0  0  0  0  0  0  0  0  0
  142.1467   80.4090  224.8267 H   0  0  0  0  0  0  0  0  0  0  0  0
  143.0602   80.0199  223.3298 H   0  0  0  0  0  0  0  0  0  0  0  0
  141.8654   81.3612  223.3298 H   0  0  0  0  0  0  0  0  0  0  0  0
  140.5487   79.0028  224.2342 H   0  0  0  0  0  0  0  0  0  0  0  0
  140.3213   79.9724  222.6856 H   0  0  0  0  0  0  0  0  0  0  0  0
  142.5446   78.3770  222.3244 H   0  0  0  0  0  0  0  0  0  0  0  0
  141.1816   77.3637  223.0847 H   0  0  0  0  0  0  0  0  0  0  0  0
  139.7552   78.2887  221.3057 H   0  0  0  0  0  0  0  0  0  0  0  0
  141.2490   76.3100  219.8760 H   0  0  0  0  0  0  0  0  0  0  0  0
  139.2180   74.1257  220.4849 H   0  0  0  0  0  0  0  0  0  0  0  0
  140.9954   74.0273  220.6095 H   0  0  0  0  0  0  0  0  0  0  0  0
  139.4970   73.9400  223.1890 H   0  0  0  0  0  0  0  0  0  0  0  0
  139.2331   69.7705  222.6673 H   0  0  0  0  0  0  0  0  0  0  0  0
  138.9411   68.4705  224.7418 H   0  0  0  0  0  0  0  0  0  0  0  0
  139.2721   68.2737  227.1367 H   0  0  0  0  0  0  0  0  0  0  0  0
  140.1673   69.2603  229.2541 H   0  0  0  0  0  0  0  0  0  0  0  0
  141.2877   71.4532  229.2286 H   0  0  0  0  0  0  0  0  0  0  0  0
  141.5551   72.7262  227.1176 H   0  0  0  0  0  0  0  0  0  0  0  0
  142.2851   77.5219  218.8987 H   0  0  0  0  0  0  0  0  0  0  0  0
  143.1465   79.1725  217.2985 H   0  0  0  0  0  0  0  0  0  0  0  0
  142.7577   81.6099  217.5852 H   0  0  0  0  0  0  0  0  0  0  0  0
  141.4522   82.3573  219.5822 H   0  0  0  0  0  0  0  0  0  0  0  0
  140.5847   80.6988  221.1962 H   0  0  0  0  0  0  0  0  0  0  0  0
  1  2  1  0
  2  3  1  0
  3  4  1  0
  4  5  1  0
  5  6  1  0
  6  7  2  0
  6  8  1  0
  8  9  1  0
  9 10  1  0
 10 11  2  0
 10 12  1  0
 12 13  2  0
 13 14  1  0
 14 15  2  0
 15 16  1  0
 16 17  2  0
 17 18  1  0
 18 19  2  0
 19 20  1  0
 20 21  2  0
  4 22  1  0
 22 23  2  0
 23 24  1  0
 24 25  2  0
 25 26  1  0
 26 27  2  0
 21 12  1  0
 27 22  1  0
 20 15  1  0
  1 28  1  0
  1 29  1  0
  1 30  1  0
  2 31  1  0
  2 32  1  0
  3 33  1  0
  3 34  1  0
  4 35  1  1
  5 36  1  0
  8 37  1  0
  8 38  1  0
  9 39  1  0
 13 40  1  0
 14 41  1  0
 16 42  1  0
 17 43  1  0
 18 44  1  0
 19 45  1  0
 23 46  1  0
 24 47  1  0
 25 48  1  0
 26 49  1  0
 27 50  1  0
M  END
>  <smiles>  (6) 
CCC[C@H](NC(=O)CNC(=O)c1ccc2ccccc2n1)c1ccccc1

>  <score_type>  (6) 
oracle

>  <origin>  (6) 
autodockgpu

>  <m_score__min__energy>  (6) 
-8.8900000000000006

>  <m_primary>  (6) 
energy

>  <rmsd>  (6) 
3.86256046284714

>  <m_score__min__rmsd>  (6) 
3.86256046284714

>  <meeko>  (6) 
{"free_energy": -8.28, "intermolecular_energy": -10.37, "internal_energy": -1.71, "cluster_size": 43, "cluster_id": 1, "rank_in_cluster": 35}

>  <energy>  (6) 
-8.77

>  <cluster_rmsd>  (6) 
1.49

>  <cluster>  (6) 
1

$$$$

     RDKit          3D

 50 52  0  0  0  0  0  0  0  0999 V2000
  138.1790   80.1070  223.6290 C   0  0  0  0  0  0  0  0  0  0  0  0
  137.8680   79.6720  222.2240 C   0  0  0  0  0  0  0  0  0  0  0  0
  138.3640   78.3250  221.8540 C   0  0  0  0  0  0  0  0  0  0  0  0
  139.6320   78.2420  221.0820 C   0  0  2  0  0  0  0  0  0  0  0  0
  139.9550   76.9330  220.6410 N   0  0  0  0  0  0  0  0  0  0  0  0
  139.8120   75.8570  221.5970 C   0  0  0  0  0  0  0  0  0  0  0  0
  139.4170   76.0740  222.7750 O   0  0  0  0  0  0  0  0  0  0  0  0
  140.1340   74.4550  221.2030 C   0  0  0  0  0  0  0  0  0  0  0  0
  139.9120   73.6150  222.3450 N   0  0  0  0  0  0  0  0  0  0  0  0
  140.5530   72.3510  222.4290 C   0  0  0  0  0  0  0  0  0  0  0  0
  141.3260   71.8940  221.5570 O   0  0  0  0  0  0  0  0  0  0  0  0
  140.2900   71.5340  223.6200 C   0  0  0  0  0  0  0  0  0  0  0  0
  139.5940   70.3380  223.5300 C   0  0  0  0  0  0  0  0  0  0  0  0
  139.3320   69.5530  224.6260 C   0  0  0  0  0  0  0  0  0  0  0  0
  139.7800   69.9740  225.8570 C   0  0  0  0  0  0  0  0  0  0  0  0
  139.5340   69.2080  226.9870 C   0  0  0  0  0  0  0  0  0  0  0  0
  140.0030   69.6670  228.2160 C   0  0  0  0  0  0  0  0  0  0  0  0
  140.6940   70.8570  228.2990 C   0  0  0  0  0  0  0  0  0  0  0  0
  140.9420   71.6240  227.1840 C   0  0  0  0  0  0  0  0  0  0  0  0
  140.4750   71.1660  225.9580 C   0  0  0  0  0  0  0  0  0  0  0  0
  140.7010   71.8930  224.8500 N   0  0  0  0  0  0  0  0  0  0  0  0
  140.7460   78.9030  221.8150 C   0  0  0  0  0  0  0  0  0  0  0  0
  141.4800   79.9450  221.2950 C   0  0  0  0  0  0  0  0  0  0  0  0
  142.5010   80.5120  222.0330 C   0  0  0  0  0  0  0  0  0  0  0  0
  142.8410   80.0830  223.3010 C   0  0  0  0  0  0  0  0  0  0  0  0
  142.1050   79.0380  223.8200 C   0  0  0  0  0  0  0  0  0  0  0  0
  141.0740   78.4630  223.0800 C   0  0  0  0  0  0  0  0  0  0  0  0
  137.6911   79.4246  224.3406 H   0  0  0  0  0  0  0  0  0  0  0  0
  139.2673   80.0850  223.7872 H   0  0  0  0  0  0  0  0  0  0  0  0
  137.8061   81.1297  223.7872 H   0  0  0  0  0  0  0  0  0  0  0  0
  136.7750   79.6775  222.1005 H   0  0  0  0  0  0  0  0  0  0  0  0
  138.3894   80.3804  221.5635 H   0  0  0  0  0  0  0  0  0  0  0  0
  138.5103   77.7613  222.7872 H   0  0  0  0  0  0  0  0  0  0  0  0
  137.5981   77.9246  221.1734 H   0  0  0  0  0  0  0  0  0  0  0  0
  139.4681   78.8039  220.1507 H   0  0  0  0  0  0  0  0  0  0  0  0
  140.2730   76.6350  219.7010 H   0  0  0  0  0  0  0  0  0  0  0  0
  139.4820   74.1402  220.3748 H   0  0  0  0  0  0  0  0  0  0  0  0
  141.1796   74.3807  220.8696 H   0  0  0  0  0  0  0  0  0  0  0  0
  139.2730   73.9460  223.1080 H   0  0  0  0  0  0  0  0  0  0  0  0
  139.2383   70.0055  222.5436 H   0  0  0  0  0  0  0  0  0  0  0  0
  138.7767   68.6092  224.5221 H   0  0  0  0  0  0  0  0  0  0  0  0
  138.9812   68.2598  226.9144 H   0  0  0  0  0  0  0  0  0  0  0  0
  139.8208   69.0762  229.1258 H   0  0  0  0  0  0  0  0  0  0  0  0
  141.0554   71.2013  229.2792 H   0  0  0  0  0  0  0  0  0  0  0  0
  141.4940   72.5724  227.2609 H   0  0  0  0  0  0  0  0  0  0  0  0
  141.2529   80.3273  220.2889 H   0  0  0  0  0  0  0  0  0  0  0  0
  143.0693   81.3433  221.5904 H   0  0  0  0  0  0  0  0  0  0  0  0
  143.6583   80.5514  223.8690 H   0  0  0  0  0  0  0  0  0  0  0  0
  142.3338   78.6558  224.8258 H   0  0  0  0  0  0  0  0  0  0  0  0
  140.5034   77.6313  223.5190 H   0  0  0  0  0  0  0  0  0  0  0  0
  1  2  1  0
  2  3  1  0
  3  4  1  0
  4  5  1  0
  5  6  1  0
  6  7  2  0
  6  8  1  0
  8  9  1  0
  9 10  1  0
 10 11  2  0
 10 12  1  0
 12 13  2  0
 13 14  1  0
 14 15  2  0
 15 16  1  0
 16 17  2  0
 17 18  1  0
 18 19  2  0
 19 20  1  0
 20 21  2  0
  4 22  1  0
 22 23  2  0
 23 24  1  0
 24 25  2  0
 25 26  1  0
 26 27  2  0
 21 12  1  0
 27 22  1  0
 20 15  1  0
  1 28  1  0
  1 29  1  0
  1 30  1  0
  2 31  1  0
  2 32  1  0
  3 33  1  0
  3 34  1  0
  4 35  1  6
  5 36  1  0
  8 37  1  0
  8 38  1  0
  9 39  1  0
 13 40  1  0
 14 41  1  0
 16 42  1  0
 17 43  1  0
 18 44  1  0
 19 45  1  0
 23 46  1  0
 24 47  1  0
 25 48  1  0
 26 49  1  0
 27 50  1  0
M  END
>  <smiles>  (7) 
CCC[C@H](NC(=O)CNC(=O)c1ccc2ccccc2n1)c1ccccc1

>  <score_type>  (7) 
oracle

>  <origin>  (7) 
autodockgpu

>  <m_score__min__energy>  (7) 
-8.8900000000000006

>  <m_primary>  (7) 
energy

>  <rmsd>  (7) 
4.239870644126222

>  <m_score__min__rmsd>  (7) 
4.239870644126222

>  <meeko>  (7) 
{"free_energy": -8.36, "intermolecular_energy": -10.45, "internal_energy": -1.73, "cluster_size": 43, "cluster_id": 1, "rank_in_cluster": 20}

>  <energy>  (7) 
-8.73

>  <cluster_rmsd>  (7) 
1.48

>  <cluster>  (7) 
1

$$$$

     RDKit          3D

 50 52  0  0  0  0  0  0  0  0999 V2000
  137.9160   80.5180  222.8810 C   0  0  0  0  0  0  0  0  0  0  0  0
  138.2340   79.0550  223.0140 C   0  0  0  0  0  0  0  0  0  0  0  0
  138.3380   78.3110  221.7360 C   0  0  0  0  0  0  0  0  0  0  0  0
  139.6760   78.2240  221.0920 C   0  0  2  0  0  0  0  0  0  0  0  0
  140.0270   76.9180  220.6650 N   0  0  0  0  0  0  0  0  0  0  0  0
  139.7840   75.8310  221.5870 C   0  0  0  0  0  0  0  0  0  0  0  0
  139.2790   76.0360  222.7250 O   0  0  0  0  0  0  0  0  0  0  0  0
  140.1290   74.4320  221.2050 C   0  0  0  0  0  0  0  0  0  0  0  0
  139.9040   73.5950  222.3490 N   0  0  0  0  0  0  0  0  0  0  0  0
  140.5700   72.3450  222.4530 C   0  0  0  0  0  0  0  0  0  0  0  0
  141.3670   71.8970  221.5970 O   0  0  0  0  0  0  0  0  0  0  0  0
  140.3030   71.5310  223.6440 C   0  0  0  0  0  0  0  0  0  0  0  0
  139.6210   70.3270  223.5540 C   0  0  0  0  0  0  0  0  0  0  0  0
  139.3560   69.5440  224.6510 C   0  0  0  0  0  0  0  0  0  0  0  0
  139.7870   69.9760  225.8840 C   0  0  0  0  0  0  0  0  0  0  0  0
  139.5370   69.2130  227.0150 C   0  0  0  0  0  0  0  0  0  0  0  0
  139.9890   69.6830  228.2460 C   0  0  0  0  0  0  0  0  0  0  0  0
  140.6670   70.8800  228.3310 C   0  0  0  0  0  0  0  0  0  0  0  0
  140.9190   71.6450  227.2150 C   0  0  0  0  0  0  0  0  0  0  0  0
  140.4680   71.1760  225.9860 C   0  0  0  0  0  0  0  0  0  0  0  0
  140.6980   71.8990  224.8770 N   0  0  0  0  0  0  0  0  0  0  0  0
  140.7180   78.8610  221.9440 C   0  0  0  0  0  0  0  0  0  0  0  0
  141.2300   78.2750  223.0790 C   0  0  0  0  0  0  0  0  0  0  0  0
  142.1970   78.9240  223.8210 C   0  0  0  0  0  0  0  0  0  0  0  0
  142.6990   80.1660  223.4810 C   0  0  0  0  0  0  0  0  0  0  0  0
  142.1850   80.7520  222.3440 C   0  0  0  0  0  0  0  0  0  0  0  0
  141.2090   80.1010  221.5920 C   0  0  0  0  0  0  0  0  0  0  0  0
  137.8189   80.9646  223.8816 H   0  0  0  0  0  0  0  0  0  0  0  0
  138.7258   81.0208  222.3320 H   0  0  0  0  0  0  0  0  0  0  0  0
  136.9705   80.6393  222.3320 H   0  0  0  0  0  0  0  0  0  0  0  0
  139.1955   78.9626  223.5403 H   0  0  0  0  0  0  0  0  0  0  0  0
  137.3891   78.6081  223.5585 H   0  0  0  0  0  0  0  0  0  0  0  0
  137.9978   77.2824  221.9264 H   0  0  0  0  0  0  0  0  0  0  0  0
  137.7264   78.8892  221.0278 H   0  0  0  0  0  0  0  0  0  0  0  0
  139.6126   78.8009  220.1576 H   0  0  0  0  0  0  0  0  0  0  0  0
  140.4310   76.6310  219.7550 H   0  0  0  0  0  0  0  0  0  0  0  0
  139.4915   74.1042  220.3707 H   0  0  0  0  0  0  0  0  0  0  0  0
  141.1796   74.3698  220.8849 H   0  0  0  0  0  0  0  0  0  0  0  0
  139.2460   73.9170  223.0980 H   0  0  0  0  0  0  0  0  0  0  0  0
  139.2790   69.9857  222.5658 H   0  0  0  0  0  0  0  0  0  0  0  0
  138.8119   68.5938  224.5461 H   0  0  0  0  0  0  0  0  0  0  0  0
  138.9944   68.2589  226.9416 H   0  0  0  0  0  0  0  0  0  0  0  0
  139.8035   69.0946  229.1567 H   0  0  0  0  0  0  0  0  0  0  0  0
  141.0147   71.2320  229.3134 H   0  0  0  0  0  0  0  0  0  0  0  0
  141.4610   72.5990  227.2929 H   0  0  0  0  0  0  0  0  0  0  0  0
  140.8676   77.2861  223.3963 H   0  0  0  0  0  0  0  0  0  0  0  0
  142.5855   78.4300  224.7238 H   0  0  0  0  0  0  0  0  0  0  0  0
  143.4706   80.6624  224.0877 H   0  0  0  0  0  0  0  0  0  0  0  0
  142.5481   81.7411  222.0279 H   0  0  0  0  0  0  0  0  0  0  0  0
  140.8176   80.5917  220.6887 H   0  0  0  0  0  0  0  0  0  0  0  0
  1  2  1  0
  2  3  1  0
  3  4  1  0
  4  5  1  0
  5  6  1  0
  6  7  2  0
  6  8  1  0
  8  9  1  0
  9 10  1  0
 10 11  2  0
 10 12  1  0
 12 13  2  0
 13 14  1  0
 14 15  2  0
 15 16  1  0
 16 17  2  0
 17 18  1  0
 18 19  2  0
 19 20  1  0
 20 21  2  0
  4 22  1  0
 22 23  2  0
 23 24  1  0
 24 25  2  0
 25 26  1  0
 26 27  2  0
 21 12  1  0
 27 22  1  0
 20 15  1  0
  1 28  1  0
  1 29  1  0
  1 30  1  0
  2 31  1  0
  2 32  1  0
  3 33  1  0
  3 34  1  0
  4 35  1  6
  5 36  1  0
  8 37  1  0
  8 38  1  0
  9 39  1  0
 13 40  1  0
 14 41  1  0
 16 42  1  0
 17 43  1  0
 18 44  1  0
 19 45  1  0
 23 46  1  0
 24 47  1  0
 25 48  1  0
 26 49  1  0
 27 50  1  0
M  END
>  <smiles>  (8) 
CCC[C@H](NC(=O)CNC(=O)c1ccc2ccccc2n1)c1ccccc1

>  <score_type>  (8) 
oracle

>  <origin>  (8) 
autodockgpu

>  <m_score__min__energy>  (8) 
-8.8900000000000006

>  <m_primary>  (8) 
energy

>  <rmsd>  (8) 
4.076115147224793

>  <m_score__min__rmsd>  (8) 
4.076115147224793

>  <meeko>  (8) 
{"free_energy": -8.37, "intermolecular_energy": -10.46, "internal_energy": -1.66, "cluster_size": 43, "cluster_id": 1, "rank_in_cluster": 16}

>  <energy>  (8) 
-8.73

>  <cluster_rmsd>  (8) 
1.66

>  <cluster>  (8) 
1

$$$$

     RDKit          3D

 50 52  0  0  0  0  0  0  0  0999 V2000
  142.0200   80.4060  223.6820 C   0  0  0  0  0  0  0  0  0  0  0  0
  140.9800   79.3790  223.3330 C   0  0  0  0  0  0  0  0  0  0  0  0
  141.4540   78.2620  222.4810 C   0  0  0  0  0  0  0  0  0  0  0  0
  140.8020   78.0750  221.1580 C   0  0  2  0  0  0  0  0  0  0  0  0
  140.7760   76.7280  220.7120 N   0  0  0  0  0  0  0  0  0  0  0  0
  140.1280   75.7590  221.5680 C   0  0  0  0  0  0  0  0  0  0  0  0
  139.6070   76.0990  222.6660 O   0  0  0  0  0  0  0  0  0  0  0  0
  140.0630   74.3260  221.1640 C   0  0  0  0  0  0  0  0  0  0  0  0
  139.9210   73.5380  222.3560 N   0  0  0  0  0  0  0  0  0  0  0  0
  140.3890   72.1980  222.3780 C   0  0  0  0  0  0  0  0  0  0  0  0
  140.9360   71.6260  221.4070 O   0  0  0  0  0  0  0  0  0  0  0  0
  140.2180   71.4400  223.6230 C   0  0  0  0  0  0  0  0  0  0  0  0
  139.5680   70.2150  223.6350 C   0  0  0  0  0  0  0  0  0  0  0  0
  139.3930   69.4840  224.7840 C   0  0  0  0  0  0  0  0  0  0  0  0
  139.8850   69.9910  225.9650 C   0  0  0  0  0  0  0  0  0  0  0  0
  139.7260   69.2810  227.1460 C   0  0  0  0  0  0  0  0  0  0  0  0
  140.2380   69.8250  228.3220 C   0  0  0  0  0  0  0  0  0  0  0  0
  140.8830   71.0430  228.3050 C   0  0  0  0  0  0  0  0  0  0  0  0
  141.0440   71.7550  227.1380 C   0  0  0  0  0  0  0  0  0  0  0  0
  140.5350   71.2120  225.9650 C   0  0  0  0  0  0  0  0  0  0  0  0
  140.6760   71.8820  224.8090 N   0  0  0  0  0  0  0  0  0  0  0  0
  141.3660   79.0140  220.1500 C   0  0  0  0  0  0  0  0  0  0  0  0
  142.0740   78.6000  219.0440 C   0  0  0  0  0  0  0  0  0  0  0  0
  142.5680   79.5280  218.1480 C   0  0  0  0  0  0  0  0  0  0  0  0
  142.3890   80.8900  218.3000 C   0  0  0  0  0  0  0  0  0  0  0  0
  141.6800   81.3020  219.4080 C   0  0  0  0  0  0  0  0  0  0  0  0
  141.1800   80.3700  220.3150 C   0  0  0  0  0  0  0  0  0  0  0  0
  142.1024   80.4873  224.7759 H   0  0  0  0  0  0  0  0  0  0  0  0
  142.9905   80.1021  223.2628 H   0  0  0  0  0  0  0  0  0  0  0  0
  141.7284   81.3803  223.2628 H   0  0  0  0  0  0  0  0  0  0  0  0
  140.5960   78.9517  224.2711 H   0  0  0  0  0  0  0  0  0  0  0  0
  140.2158   79.9076  222.7444 H   0  0  0  0  0  0  0  0  0  0  0  0
  142.5271   78.4209  222.2985 H   0  0  0  0  0  0  0  0  0  0  0  0
  141.1985   77.3540  223.0468 H   0  0  0  0  0  0  0  0  0  0  0  0
  139.7407   78.3308  221.2929 H   0  0  0  0  0  0  0  0  0  0  0  0
  141.1550   76.3400  219.8300 H   0  0  0  0  0  0  0  0  0  0  0  0
  139.1992   74.1628  220.5028 H   0  0  0  0  0  0  0  0  0  0  0  0
  140.9756   74.0389  220.6210 H   0  0  0  0  0  0  0  0  0  0  0  0
  139.4700   73.9640  223.2000 H   0  0  0  0  0  0  0  0  0  0  0  0
  139.1778   69.8138  222.6880 H   0  0  0  0  0  0  0  0  0  0  0  0
  138.8717   68.5156  224.7611 H   0  0  0  0  0  0  0  0  0  0  0  0
  139.2076   68.3108  227.1539 H   0  0  0  0  0  0  0  0  0  0  0  0
  140.1268   69.2789  229.2704 H   0  0  0  0  0  0  0  0  0  0  0  0
  141.2780   71.4554  229.2452 H   0  0  0  0  0  0  0  0  0  0  0  0
  141.5608   72.7260  227.1343 H   0  0  0  0  0  0  0  0  0  0  0  0
  142.2467   77.5271  218.8735 H   0  0  0  0  0  0  0  0  0  0  0  0
  143.1293   79.1666  217.2738 H   0  0  0  0  0  0  0  0  0  0  0  0
  142.7925   81.6098  217.5726 H   0  0  0  0  0  0  0  0  0  0  0  0
  141.5076   82.3751  219.5775 H   0  0  0  0  0  0  0  0  0  0  0  0
  140.6188   80.7276  221.1909 H   0  0  0  0  0  0  0  0  0  0  0  0
  1  2  1  0
  2  3  1  0
  3  4  1  0
  4  5  1  0
  5  6  1  0
  6  7  2  0
  6  8  1  0
  8  9  1  0
  9 10  1  0
 10 11  2  0
 10 12  1  0
 12 13  2  0
 13 14  1  0
 14 15  2  0
 15 16  1  0
 16 17  2  0
 17 18  1  0
 18 19  2  0
 19 20  1  0
 20 21  2  0
  4 22  1  0
 22 23  2  0
 23 24  1  0
 24 25  2  0
 25 26  1  0
 26 27  2  0
 21 12  1  0
 27 22  1  0
 20 15  1  0
  1 28  1  0
  1 29  1  0
  1 30  1  0
  2 31  1  0
  2 32  1  0
  3 33  1  0
  3 34  1  0
  4 35  1  1
  5 36  1  0
  8 37  1  0
  8 38  1  0
  9 39  1  0
 13 40  1  0
 14 41  1  0
 16 42  1  0
 17 43  1  0
 18 44  1  0
 19 45  1  0
 23 46  1  0
 24 47  1  0
 25 48  1  0
 26 49  1  0
 27 50  1  0
M  END
>  <smiles>  (9) 
CCC[C@H](NC(=O)CNC(=O)c1ccc2ccccc2n1)c1ccccc1

>  <score_type>  (9) 
oracle

>  <origin>  (9) 
autodockgpu

>  <m_score__min__energy>  (9) 
-8.8900000000000006

>  <m_primary>  (9) 
energy

>  <rmsd>  (9) 
3.8639603284868054

>  <m_score__min__rmsd>  (9) 
3.8639603284868054

>  <meeko>  (9) 
{"free_energy": -8.28, "intermolecular_energy": -10.37, "internal_energy": -1.72, "cluster_size": 43, "cluster_id": 1, "rank_in_cluster": 33}

>  <energy>  (9) 
-8.7

>  <cluster_rmsd>  (9) 
1.78

>  <cluster>  (9) 
1

$$$$

     RDKit          3D

 50 52  0  0  0  0  0  0  0  0999 V2000
  138.3340   80.0890  223.8110 C   0  0  0  0  0  0  0  0  0  0  0  0
  138.0170   79.0910  222.7330 C   0  0  0  0  0  0  0  0  0  0  0  0
  138.8490   77.8630  222.7410 C   0  0  0  0  0  0  0  0  0  0  0  0
  140.1160   77.8800  221.9640 C   0  0  2  0  0  0  0  0  0  0  0  0
  140.7150   76.6030  221.8090 N   0  0  0  0  0  0  0  0  0  0  0  0
  139.8870   75.5430  221.2770 C   0  0  0  0  0  0  0  0  0  0  0  0
  138.6820   75.7460  220.9640 O   0  0  0  0  0  0  0  0  0  0  0  0
  140.4490   74.1750  221.0880 C   0  0  0  0  0  0  0  0  0  0  0  0
  140.1710   73.4170  222.2740 N   0  0  0  0  0  0  0  0  0  0  0  0
  140.6510   72.0860  222.3910 C   0  0  0  0  0  0  0  0  0  0  0  0
  141.3230   71.4990  221.5130 O   0  0  0  0  0  0  0  0  0  0  0  0
  140.3370   71.3570  223.6260 C   0  0  0  0  0  0  0  0  0  0  0  0
  139.6210   70.1700  223.5970 C   0  0  0  0  0  0  0  0  0  0  0  0
  139.3130   69.4670  224.7360 C   0  0  0  0  0  0  0  0  0  0  0  0
  139.7320   69.9640  225.9480 C   0  0  0  0  0  0  0  0  0  0  0  0
  139.4380   69.2820  227.1190 C   0  0  0  0  0  0  0  0  0  0  0  0
  139.8810   69.8160  228.3280 C   0  0  0  0  0  0  0  0  0  0  0  0
  140.5920   70.9960  228.3510 C   0  0  0  0  0  0  0  0  0  0  0  0
  140.8880   71.6800  227.1940 C   0  0  0  0  0  0  0  0  0  0  0  0
  140.4470   71.1480  225.9880 C   0  0  0  0  0  0  0  0  0  0  0  0
  140.7200   71.7920  224.8410 N   0  0  0  0  0  0  0  0  0  0  0  0
  141.0540   78.9050  222.4970 C   0  0  0  0  0  0  0  0  0  0  0  0
  141.6910   78.7890  223.7120 C   0  0  0  0  0  0  0  0  0  0  0  0
  142.5500   79.7810  224.1440 C   0  0  0  0  0  0  0  0  0  0  0  0
  142.8190   80.9170  223.4060 C   0  0  0  0  0  0  0  0  0  0  0  0
  142.1810   81.0320  222.1890 C   0  0  0  0  0  0  0  0  0  0  0  0
  141.3120   80.0350  221.7490 C   0  0  0  0  0  0  0  0  0  0  0  0
  138.1861   79.6235  224.7966 H   0  0  0  0  0  0  0  0  0  0  0  0
  139.3799   80.4151  223.7127 H   0  0  0  0  0  0  0  0  0  0  0  0
  137.6679   80.9589  223.7127 H   0  0  0  0  0  0  0  0  0  0  0  0
  136.9653   78.7896  222.8476 H   0  0  0  0  0  0  0  0  0  0  0  0
  138.2295   79.5960  221.7792 H   0  0  0  0  0  0  0  0  0  0  0  0
  139.1091   77.6496  223.7883 H   0  0  0  0  0  0  0  0  0  0  0  0
  138.2281   77.1041  222.2424 H   0  0  0  0  0  0  0  0  0  0  0  0
  139.8501   78.1758  220.9384 H   0  0  0  0  0  0  0  0  0  0  0  0
  141.6900   76.3250  222.0170 H   0  0  0  0  0  0  0  0  0  0  0  0
  139.9779   73.6942  220.2180 H   0  0  0  0  0  0  0  0  0  0  0  0
  141.5335   74.2270  220.9116 H   0  0  0  0  0  0  0  0  0  0  0  0
  139.6110   73.8560  223.0440 H   0  0  0  0  0  0  0  0  0  0  0  0
  139.2872   69.7766  222.6255 H   0  0  0  0  0  0  0  0  0  0  0  0
  138.7439   68.5273  224.6801 H   0  0  0  0  0  0  0  0  0  0  0  0
  138.8684   68.3413  227.0944 H   0  0  0  0  0  0  0  0  0  0  0  0
  139.6615   69.2919  229.2699 H   0  0  0  0  0  0  0  0  0  0  0  0
  140.9308   71.4006  229.3162 H   0  0  0  0  0  0  0  0  0  0  0  0
  141.4573   72.6208  227.2229 H   0  0  0  0  0  0  0  0  0  0  0  0
  141.5154   77.9037  224.3408 H   0  0  0  0  0  0  0  0  0  0  0  0
  143.0422   79.6606  225.1203 H   0  0  0  0  0  0  0  0  0  0  0  0
  143.5086   81.6923  223.7713 H   0  0  0  0  0  0  0  0  0  0  0  0
  142.3592   81.9172  221.5607 H   0  0  0  0  0  0  0  0  0  0  0  0
  140.8161   80.1530  220.7742 H   0  0  0  0  0  0  0  0  0  0  0  0
  1  2  1  0
  2  3  1  0
  3  4  1  0
  4  5  1  0
  5  6  1  0
  6  7  2  0
  6  8  1  0
  8  9  1  0
  9 10  1  0
 10 11  2  0
 10 12  1  0
 12 13  2  0
 13 14  1  0
 14 15  2  0
 15 16  1  0
 16 17  2  0
 17 18  1  0
 18 19  2  0
 19 20  1  0
 20 21  2  0
  4 22  1  0
 22 23  2  0
 23 24  1  0
 24 25  2  0
 25 26  1  0
 26 27  2  0
 21 12  1  0
 27 22  1  0
 20 15  1  0
  1 28  1  0
  1 29  1  0
  1 30  1  0
  2 31  1  0
  2 32  1  0
  3 33  1  0
  3 34  1  0
  4 35  1  6
  5 36  1  0
  8 37  1  0
  8 38  1  0
  9 39  1  0
 13 40  1  0
 14 41  1  0
 16 42  1  0
 17 43  1  0
 18 44  1  0
 19 45  1  0
 23 46  1  0
 24 47  1  0
 25 48  1  0
 26 49  1  0
 27 50  1  0
M  END
>  <smiles>  (10) 
CCC[C@H](NC(=O)CNC(=O)c1ccc2ccccc2n1)c1ccccc1

>  <score_type>  (10) 
oracle

>  <origin>  (10) 
autodockgpu

>  <m_score__min__energy>  (10) 
-8.8900000000000006

>  <m_primary>  (10) 
energy

>  <rmsd>  (10) 
3.966510927899319

>  <m_score__min__rmsd>  (10) 
3.966510927899319

>  <meeko>  (10) 
{"free_energy": -8.89, "intermolecular_energy": -10.98, "internal_energy": -1.2, "cluster_size": 43, "cluster_id": 1, "rank_in_cluster": 1}

>  <energy>  (10) 
-8.65

>  <cluster_rmsd>  (10) 
1.7

>  <cluster>  (10) 
1

$$$$

     RDKit          3D

 50 52  0  0  0  0  0  0  0  0999 V2000
  139.5700   79.5010  223.7940 C   0  0  0  0  0  0  0  0  0  0  0  0
  141.0660   79.4750  223.9320 C   0  0  0  0  0  0  0  0  0  0  0  0
  141.7670   78.5070  223.0540 C   0  0  0  0  0  0  0  0  0  0  0  0
  141.1120   78.1350  221.7720 C   0  0  2  0  0  0  0  0  0  0  0  0
  141.3530   76.7980  221.3670 N   0  0  0  0  0  0  0  0  0  0  0  0
  140.3050   75.8320  221.6100 C   0  0  0  0  0  0  0  0  0  0  0  0
  139.2200   76.1660  222.1600 O   0  0  0  0  0  0  0  0  0  0  0  0
  140.4900   74.4070  221.2110 C   0  0  0  0  0  0  0  0  0  0  0  0
  140.1680   73.5870  222.3440 N   0  0  0  0  0  0  0  0  0  0  0  0
  140.6930   72.2710  222.4360 C   0  0  0  0  0  0  0  0  0  0  0  0
  141.4410   71.7480  221.5790 O   0  0  0  0  0  0  0  0  0  0  0  0
  140.3310   71.4780  223.6170 C   0  0  0  0  0  0  0  0  0  0  0  0
  139.5840   70.3150  223.5000 C   0  0  0  0  0  0  0  0  0  0  0  0
  139.2310   69.5530  224.5870 C   0  0  0  0  0  0  0  0  0  0  0  0
  139.6370   69.9630  225.8360 C   0  0  0  0  0  0  0  0  0  0  0  0
  139.2980   69.2200  226.9570 C   0  0  0  0  0  0  0  0  0  0  0  0
  139.7290   69.6660  228.2040 C   0  0  0  0  0  0  0  0  0  0  0  0
  140.4710   70.8220  228.3150 C   0  0  0  0  0  0  0  0  0  0  0  0
  140.8110   71.5660  227.2090 C   0  0  0  0  0  0  0  0  0  0  0  0
  140.3830   71.1210  225.9640 C   0  0  0  0  0  0  0  0  0  0  0  0
  140.6990   71.8260  224.8640 N   0  0  0  0  0  0  0  0  0  0  0  0
  141.4160   79.1330  220.7090 C   0  0  0  0  0  0  0  0  0  0  0  0
  141.9040   78.7900  219.4680 C   0  0  0  0  0  0  0  0  0  0  0  0
  142.1630   79.7700  218.5300 C   0  0  0  0  0  0  0  0  0  0  0  0
  141.9560   81.1140  218.7680 C   0  0  0  0  0  0  0  0  0  0  0  0
  141.4670   81.4550  220.0110 C   0  0  0  0  0  0  0  0  0  0  0  0
  141.2040   80.4720  220.9630 C   0  0  0  0  0  0  0  0  0  0  0  0
  139.1097   79.5090  224.7930 H   0  0  0  0  0  0  0  0  0  0  0  0
  139.2682   80.4045  223.2440 H   0  0  0  0  0  0  0  0  0  0  0  0
  139.2370   78.6085  223.2440 H   0  0  0  0  0  0  0  0  0  0  0  0
  141.4461   80.4809  223.7004 H   0  0  0  0  0  0  0  0  0  0  0  0
  141.2706   79.1531  224.9638 H   0  0  0  0  0  0  0  0  0  0  0  0
  142.7487   78.9380  222.8081 H   0  0  0  0  0  0  0  0  0  0  0  0
  141.7914   77.5730  223.6345 H   0  0  0  0  0  0  0  0  0  0  0  0
  140.0277   78.1655  221.9546 H   0  0  0  0  0  0  0  0  0  0  0  0
  142.1930   76.4140  220.8970 H   0  0  0  0  0  0  0  0  0  0  0  0
  139.8218   74.1640  220.3716 H   0  0  0  0  0  0  0  0  0  0  0  0
  141.5277   74.2298  220.8919 H   0  0  0  0  0  0  0  0  0  0  0  0
  139.5450   73.9720  223.0940 H   0  0  0  0  0  0  0  0  0  0  0  0
  139.2623   69.9909  222.4993 H   0  0  0  0  0  0  0  0  0  0  0  0
  138.6371   68.6356  224.4617 H   0  0  0  0  0  0  0  0  0  0  0  0
  138.7026   68.2998  226.8634 H   0  0  0  0  0  0  0  0  0  0  0  0
  139.4753   69.0913  229.1070 H   0  0  0  0  0  0  0  0  0  0  0  0
  140.7986   71.1572  229.3101 H   0  0  0  0  0  0  0  0  0  0  0  0
  141.4047   72.4868  227.3073 H   0  0  0  0  0  0  0  0  0  0  0  0
  142.0879   77.7335  219.2232 H   0  0  0  0  0  0  0  0  0  0  0  0
  142.5524   79.4654  217.5473 H   0  0  0  0  0  0  0  0  0  0  0  0
  142.1707   81.8753  218.0035 H   0  0  0  0  0  0  0  0  0  0  0  0
  141.2829   82.5120  220.2534 H   0  0  0  0  0  0  0  0  0  0  0  0
  140.8155   80.7731  221.9471 H   0  0  0  0  0  0  0  0  0  0  0  0
  1  2  1  0
  2  3  1  0
  3  4  1  0
  4  5  1  0
  5  6  1  0
  6  7  2  0
  6  8  1  0
  8  9  1  0
  9 10  1  0
 10 11  2  0
 10 12  1  0
 12 13  2  0
 13 14  1  0
 14 15  2  0
 15 16  1  0
 16 17  2  0
 17 18  1  0
 18 19  2  0
 19 20  1  0
 20 21  2  0
  4 22  1  0
 22 23  2  0
 23 24  1  0
 24 25  2  0
 25 26  1  0
 26 27  2  0
 21 12  1  0
 27 22  1  0
 20 15  1  0
  1 28  1  0
  1 29  1  0
  1 30  1  0
  2 31  1  0
  2 32  1  0
  3 33  1  0
  3 34  1  0
  4 35  1  1
  5 36  1  0
  8 37  1  0
  8 38  1  0
  9 39  1  0
 13 40  1  0
 14 41  1  0
 16 42  1  0
 17 43  1  0
 18 44  1  0
 19 45  1  0
 23 46  1  0
 24 47  1  0
 25 48  1  0
 26 49  1  0
 27 50  1  0
M  END
>  <smiles>  (11) 
CCC[C@H](NC(=O)CNC(=O)c1ccc2ccccc2n1)c1ccccc1

>  <score_type>  (11) 
oracle

>  <origin>  (11) 
autodockgpu

>  <m_score__min__energy>  (11) 
-8.8900000000000006

>  <m_primary>  (11) 
energy

>  <rmsd>  (11) 
3.6655279762992192

>  <m_score__min__rmsd>  (11) 
3.6655279762992192

>  <meeko>  (11) 
{"free_energy": -8.32, "intermolecular_energy": -10.41, "internal_energy": -1.54, "cluster_size": 43, "cluster_id": 1, "rank_in_cluster": 23}

>  <energy>  (11) 
-8.63

>  <cluster_rmsd>  (11) 
1.47

>  <cluster>  (11) 
1

$$$$

     RDKit          3D

 50 52  0  0  0  0  0  0  0  0999 V2000
  142.5310   80.8140  223.9120 C   0  0  0  0  0  0  0  0  0  0  0  0
  142.5670   79.3940  223.4210 C   0  0  0  0  0  0  0  0  0  0  0  0
  141.2470   78.7290  223.3090 C   0  0  0  0  0  0  0  0  0  0  0  0
  140.7680   78.3660  221.9500 C   0  0  2  0  0  0  0  0  0  0  0  0
  141.1520   77.0660  221.5300 N   0  0  0  0  0  0  0  0  0  0  0  0
  140.1790   76.0070  221.6790 C   0  0  0  0  0  0  0  0  0  0  0  0
  139.0350   76.2300  222.1640 O   0  0  0  0  0  0  0  0  0  0  0  0
  140.5130   74.6160  221.2600 C   0  0  0  0  0  0  0  0  0  0  0  0
  140.1700   73.7360  222.3400 N   0  0  0  0  0  0  0  0  0  0  0  0
  140.7250   72.4300  222.3930 C   0  0  0  0  0  0  0  0  0  0  0  0
  141.5200   71.9670  221.5430 O   0  0  0  0  0  0  0  0  0  0  0  0
  140.3400   71.5730  223.5200 C   0  0  0  0  0  0  0  0  0  0  0  0
  139.6060   70.4130  223.3230 C   0  0  0  0  0  0  0  0  0  0  0  0
  139.2310   69.5920  224.3580 C   0  0  0  0  0  0  0  0  0  0  0  0
  139.6000   69.9390  225.6370 C   0  0  0  0  0  0  0  0  0  0  0  0
  139.2380   69.1350  226.7080 C   0  0  0  0  0  0  0  0  0  0  0  0
  139.6300   69.5190  227.9890 C   0  0  0  0  0  0  0  0  0  0  0  0
  140.3590   70.6730  228.1790 C   0  0  0  0  0  0  0  0  0  0  0  0
  140.7220   71.4770  227.1230 C   0  0  0  0  0  0  0  0  0  0  0  0
  140.3310   71.0950  225.8460 C   0  0  0  0  0  0  0  0  0  0  0  0
  140.6700   71.8590  224.7930 N   0  0  0  0  0  0  0  0  0  0  0  0
  141.1140   79.4250  220.9630 C   0  0  0  0  0  0  0  0  0  0  0  0
  140.7440   80.7430  221.1070 C   0  0  0  0  0  0  0  0  0  0  0  0
  141.1010   81.6740  220.1500 C   0  0  0  0  0  0  0  0  0  0  0  0
  141.8300   81.3510  219.0220 C   0  0  0  0  0  0  0  0  0  0  0  0
  142.1990   80.0310  218.8790 C   0  0  0  0  0  0  0  0  0  0  0  0
  141.8420   79.0880  219.8410 C   0  0  0  0  0  0  0  0  0  0  0  0
  142.5308   80.8217  225.0120 H   0  0  0  0  0  0  0  0  0  0  0  0
  143.4158   81.3526  223.5417 H   0  0  0  0  0  0  0  0  0  0  0  0
  141.6201   81.3070  223.5417 H   0  0  0  0  0  0  0  0  0  0  0  0
  143.0349   79.3904  222.4255 H   0  0  0  0  0  0  0  0  0  0  0  0
  143.1311   78.8255  224.1751 H   0  0  0  0  0  0  0  0  0  0  0  0
  141.2956   77.8016  223.8985 H   0  0  0  0  0  0  0  0  0  0  0  0
  140.5268   79.4802  223.6655 H   0  0  0  0  0  0  0  0  0  0  0  0
  139.6709   78.3132  222.0092 H   0  0  0  0  0  0  0  0  0  0  0  0
  142.0500   76.7700  221.1080 H   0  0  0  0  0  0  0  0  0  0  0  0
  139.9372   74.3477  220.3620 H   0  0  0  0  0  0  0  0  0  0  0  0
  141.5842   74.5336  221.0239 H   0  0  0  0  0  0  0  0  0  0  0  0
  139.5080   74.0690  223.0820 H   0  0  0  0  0  0  0  0  0  0  0  0
  139.3130   70.1401  222.2985 H   0  0  0  0  0  0  0  0  0  0  0  0
  138.6490   68.6780  224.1687 H   0  0  0  0  0  0  0  0  0  0  0  0
  138.6551   68.2157  226.5497 H   0  0  0  0  0  0  0  0  0  0  0  0
  139.3558   68.8971  228.8539 H   0  0  0  0  0  0  0  0  0  0  0  0
  140.6576   70.9580  229.1986 H   0  0  0  0  0  0  0  0  0  0  0  0
  141.3049   72.3956  227.2853 H   0  0  0  0  0  0  0  0  0  0  0  0
  140.1624   81.0562  221.9865 H   0  0  0  0  0  0  0  0  0  0  0  0
  140.7906   82.7196  220.2930 H   0  0  0  0  0  0  0  0  0  0  0  0
  142.1027   82.1104  218.2744 H   0  0  0  0  0  0  0  0  0  0  0  0
  142.7800   79.7192  217.9985 H   0  0  0  0  0  0  0  0  0  0  0  0
  142.1506   78.0415  219.7011 H   0  0  0  0  0  0  0  0  0  0  0  0
  1  2  1  0
  2  3  1  0
  3  4  1  0
  4  5  1  0
  5  6  1  0
  6  7  2  0
  6  8  1  0
  8  9  1  0
  9 10  1  0
 10 11  2  0
 10 12  1  0
 12 13  2  0
 13 14  1  0
 14 15  2  0
 15 16  1  0
 16 17  2  0
 17 18  1  0
 18 19  2  0
 19 20  1  0
 20 21  2  0
  4 22  1  0
 22 23  2  0
 23 24  1  0
 24 25  2  0
 25 26  1  0
 26 27  2  0
 21 12  1  0
 27 22  1  0
 20 15  1  0
  1 28  1  0
  1 29  1  0
  1 30  1  0
  2 31  1  0
  2 32  1  0
  3 33  1  0
  3 34  1  0
  4 35  1  1
  5 36  1  0
  8 37  1  0
  8 38  1  0
  9 39  1  0
 13 40  1  0
 14 41  1  0
 16 42  1  0
 17 43  1  0
 18 44  1  0
 19 45  1  0
 23 46  1  0
 24 47  1  0
 25 48  1  0
 26 49  1  0
 27 50  1  0
M  END
>  <smiles>  (12) 
CCC[C@H](NC(=O)CNC(=O)c1ccc2ccccc2n1)c1ccccc1

>  <score_type>  (12) 
oracle

>  <origin>  (12) 
autodockgpu

>  <m_score__min__energy>  (12) 
-8.8900000000000006

>  <m_primary>  (12) 
energy

>  <rmsd>  (12) 
3.434630695937523

>  <m_score__min__rmsd>  (12) 
3.434630695937523

>  <meeko>  (12) 
{"free_energy": -8.52, "intermolecular_energy": -10.61, "internal_energy": -1.55, "cluster_size": 43, "cluster_id": 1, "rank_in_cluster": 14}

>  <energy>  (12) 
-8.56

>  <cluster_rmsd>  (12) 
1.56

>  <cluster>  (12) 
1

$$$$

     RDKit          3D

 50 52  0  0  0  0  0  0  0  0999 V2000
  142.2830   80.3840  223.5630 C   0  0  0  0  0  0  0  0  0  0  0  0
  141.1330   79.4580  223.2780 C   0  0  0  0  0  0  0  0  0  0  0  0
  141.4730   78.2490  222.4900 C   0  0  0  0  0  0  0  0  0  0  0  0
  140.8200   78.0790  221.1660 C   0  0  2  0  0  0  0  0  0  0  0  0
  140.7850   76.7370  220.7070 N   0  0  0  0  0  0  0  0  0  0  0  0
  140.1710   75.7560  221.5740 C   0  0  0  0  0  0  0  0  0  0  0  0
  139.6860   76.0810  222.6930 O   0  0  0  0  0  0  0  0  0  0  0  0
  140.0980   74.3270  221.1570 C   0  0  0  0  0  0  0  0  0  0  0  0
  139.9670   73.5280  222.3420 N   0  0  0  0  0  0  0  0  0  0  0  0
  140.4000   72.1760  222.3360 C   0  0  0  0  0  0  0  0  0  0  0  0
  140.9060   71.6020  221.3450 O   0  0  0  0  0  0  0  0  0  0  0  0
  140.2420   71.4070  223.5760 C   0  0  0  0  0  0  0  0  0  0  0  0
  139.6090   70.1730  223.5800 C   0  0  0  0  0  0  0  0  0  0  0  0
  139.4470   69.4310  224.7250 C   0  0  0  0  0  0  0  0  0  0  0  0
  139.9330   69.9370  225.9080 C   0  0  0  0  0  0  0  0  0  0  0  0
  139.7860   69.2170  227.0850 C   0  0  0  0  0  0  0  0  0  0  0  0
  140.2910   69.7610  228.2640 C   0  0  0  0  0  0  0  0  0  0  0  0
  140.9190   70.9880  228.2540 C   0  0  0  0  0  0  0  0  0  0  0  0
  141.0680   71.7100  227.0920 C   0  0  0  0  0  0  0  0  0  0  0  0
  140.5650   71.1670  225.9160 C   0  0  0  0  0  0  0  0  0  0  0  0
  140.6950   71.8480  224.7650 N   0  0  0  0  0  0  0  0  0  0  0  0
  141.3890   79.0240  220.1660 C   0  0  0  0  0  0  0  0  0  0  0  0
  141.2150   80.3880  220.2300 C   0  0  0  0  0  0  0  0  0  0  0  0
  141.7730   81.2060  219.2660 C   0  0  0  0  0  0  0  0  0  0  0  0
  142.5200   80.7220  218.2100 C   0  0  0  0  0  0  0  0  0  0  0  0
  142.6940   79.3560  218.1470 C   0  0  0  0  0  0  0  0  0  0  0  0
  142.1320   78.5260  219.1160 C   0  0  0  0  0  0  0  0  0  0  0  0
  142.4103   80.4865  224.6508 H   0  0  0  0  0  0  0  0  0  0  0  0
  143.2033   79.9719  223.1234 H   0  0  0  0  0  0  0  0  0  0  0  0
  142.0767   81.3710  223.1234 H   0  0  0  0  0  0  0  0  0  0  0  0
  140.7146   79.1295  224.2408 H   0  0  0  0  0  0  0  0  0  0  0  0
  140.4251   80.0328  222.6628 H   0  0  0  0  0  0  0  0  0  0  0  0
  142.5598   78.2627  222.3206 H   0  0  0  0  0  0  0  0  0  0  0  0
  141.0975   77.4098  223.0940 H   0  0  0  0  0  0  0  0  0  0  0  0
  139.7606   78.3406  221.3045 H   0  0  0  0  0  0  0  0  0  0  0  0
  141.1350   76.3600  219.8080 H   0  0  0  0  0  0  0  0  0  0  0  0
  139.2267   74.1723  220.5037 H   0  0  0  0  0  0  0  0  0  0  0  0
  141.0040   74.0431  220.6016 H   0  0  0  0  0  0  0  0  0  0  0  0
  139.5500   73.9550  223.2040 H   0  0  0  0  0  0  0  0  0  0  0  0
  139.2221   69.7733  222.6310 H   0  0  0  0  0  0  0  0  0  0  0  0
  138.9404   68.4550  224.6962 H   0  0  0  0  0  0  0  0  0  0  0  0
  139.2823   68.2391  227.0872 H   0  0  0  0  0  0  0  0  0  0  0  0
  140.1879   69.2077  229.2091 H   0  0  0  0  0  0  0  0  0  0  0  0
  141.3100   71.3994  229.1963 H   0  0  0  0  0  0  0  0  0  0  0  0
  141.5706   72.6885  227.0940 H   0  0  0  0  0  0  0  0  0  0  0  0
  140.6300   80.8282  221.0510 H   0  0  0  0  0  0  0  0  0  0  0  0
  141.6150   82.2919  219.3433 H   0  0  0  0  0  0  0  0  0  0  0  0
  142.9551   81.3941  217.4557 H   0  0  0  0  0  0  0  0  0  0  0  0
  143.2806   78.9176  217.3262 H   0  0  0  0  0  0  0  0  0  0  0  0
  142.2860   77.4394  219.0408 H   0  0  0  0  0  0  0  0  0  0  0  0
  1  2  1  0
  2  3  1  0
  3  4  1  0
  4  5  1  0
  5  6  1  0
  6  7  2  0
  6  8  1  0
  8  9  1  0
  9 10  1  0
 10 11  2  0
 10 12  1  0
 12 13  2  0
 13 14  1  0
 14 15  2  0
 15 16  1  0
 16 17  2  0
 17 18  1  0
 18 19  2  0
 19 20  1  0
 20 21  2  0
  4 22  1  0
 22 23  2  0
 23 24  1  0
 24 25  2  0
 25 26  1  0
 26 27  2  0
 21 12  1  0
 27 22  1  0
 20 15  1  0
  1 28  1  0
  1 29  1  0
  1 30  1  0
  2 31  1  0
  2 32  1  0
  3 33  1  0
  3 34  1  0
  4 35  1  1
  5 36  1  0
  8 37  1  0
  8 38  1  0
  9 39  1  0
 13 40  1  0
 14 41  1  0
 16 42  1  0
 17 43  1  0
 18 44  1  0
 19 45  1  0
 23 46  1  0
 24 47  1  0
 25 48  1  0
 26 49  1  0
 27 50  1  0
M  END
>  <smiles>  (13) 
CCC[C@H](NC(=O)CNC(=O)c1ccc2ccccc2n1)c1ccccc1

>  <score_type>  (13) 
oracle

>  <origin>  (13) 
autodockgpu

>  <m_score__min__energy>  (13) 
-8.8900000000000006

>  <m_primary>  (13) 
energy

>  <rmsd>  (13) 
3.8031615476029317

>  <m_score__min__rmsd>  (13) 
3.8031615476029317

>  <meeko>  (13) 
{"free_energy": -8.29, "intermolecular_energy": -10.38, "internal_energy": -1.74, "cluster_size": 43, "cluster_id": 1, "rank_in_cluster": 29}

>  <energy>  (13) 
-8.54

>  <cluster_rmsd>  (13) 
1.54

>  <cluster>  (13) 
1

$$$$

     RDKit          3D

 50 52  0  0  0  0  0  0  0  0999 V2000
  138.1430   79.9720  223.4830 C   0  0  0  0  0  0  0  0  0  0  0  0
  137.9890   79.6500  222.0220 C   0  0  0  0  0  0  0  0  0  0  0  0
  138.4310   78.2930  221.6220 C   0  0  0  0  0  0  0  0  0  0  0  0
  139.7710   78.1580  220.9950 C   0  0  2  0  0  0  0  0  0  0  0  0
  140.0880   76.8370  220.5870 N   0  0  0  0  0  0  0  0  0  0  0  0
  139.8100   75.7690  221.5220 C   0  0  0  0  0  0  0  0  0  0  0  0
  139.3060   76.0050  222.6550 O   0  0  0  0  0  0  0  0  0  0  0  0
  140.1170   74.3560  221.1610 C   0  0  0  0  0  0  0  0  0  0  0  0
  139.9830   73.5590  222.3470 N   0  0  0  0  0  0  0  0  0  0  0  0
  140.4260   72.2100  222.3480 C   0  0  0  0  0  0  0  0  0  0  0  0
  140.9430   71.6380  221.3620 O   0  0  0  0  0  0  0  0  0  0  0  0
  140.2640   71.4430  223.5880 C   0  0  0  0  0  0  0  0  0  0  0  0
  139.6440   70.2020  223.5900 C   0  0  0  0  0  0  0  0  0  0  0  0
  139.4790   69.4620  224.7350 C   0  0  0  0  0  0  0  0  0  0  0  0
  139.9480   69.9760  225.9220 C   0  0  0  0  0  0  0  0  0  0  0  0
  139.7970   69.2570  227.0990 C   0  0  0  0  0  0  0  0  0  0  0  0
  140.2850   69.8100  228.2810 C   0  0  0  0  0  0  0  0  0  0  0  0
  140.9010   71.0440  228.2740 C   0  0  0  0  0  0  0  0  0  0  0  0
  141.0530   71.7640  227.1120 C   0  0  0  0  0  0  0  0  0  0  0  0
  140.5670   71.2130  225.9320 C   0  0  0  0  0  0  0  0  0  0  0  0
  140.7010   71.8920  224.7800 N   0  0  0  0  0  0  0  0  0  0  0  0
  140.8240   78.7740  221.8490 C   0  0  0  0  0  0  0  0  0  0  0  0
  141.1080   78.3450  223.1260 C   0  0  0  0  0  0  0  0  0  0  0  0
  142.1000   78.9640  223.8620 C   0  0  0  0  0  0  0  0  0  0  0  0
  142.8480   80.0200  223.3780 C   0  0  0  0  0  0  0  0  0  0  0  0
  142.5610   80.4480  222.0990 C   0  0  0  0  0  0  0  0  0  0  0  0
  141.5620   79.8280  221.3520 C   0  0  0  0  0  0  0  0  0  0  0  0
  137.7459   79.1416  224.0853 H   0  0  0  0  0  0  0  0  0  0  0  0
  139.2081   80.1174  223.7161 H   0  0  0  0  0  0  0  0  0  0  0  0
  137.5877   80.8925  223.7161 H   0  0  0  0  0  0  0  0  0  0  0  0
  136.9249   79.7511  221.7622 H   0  0  0  0  0  0  0  0  0  0  0  0
  138.6428   80.3532  221.4852 H   0  0  0  0  0  0  0  0  0  0  0  0
  138.4273   77.6668  222.5264 H   0  0  0  0  0  0  0  0  0  0  0  0
  137.7248   77.9926  220.8340 H   0  0  0  0  0  0  0  0  0  0  0  0
  139.7330   78.7256  220.0535 H   0  0  0  0  0  0  0  0  0  0  0  0
  140.4880   76.5250  219.6830 H   0  0  0  0  0  0  0  0  0  0  0  0
  139.4121   74.0048  220.3930 H   0  0  0  0  0  0  0  0  0  0  0  0
  141.1377   74.2762  220.7588 H   0  0  0  0  0  0  0  0  0  0  0  0
  139.5550   73.9850  223.2050 H   0  0  0  0  0  0  0  0  0  0  0  0
  139.2705   69.7954  222.6386 H   0  0  0  0  0  0  0  0  0  0  0  0
  138.9831   68.4806  224.7039 H   0  0  0  0  0  0  0  0  0  0  0  0
  139.3037   68.2738  227.0989 H   0  0  0  0  0  0  0  0  0  0  0  0
  140.1782   69.2584  229.2267 H   0  0  0  0  0  0  0  0  0  0  0  0
  141.2791   71.4616  229.2188 H   0  0  0  0  0  0  0  0  0  0  0  0
  141.5451   72.7478  227.1163 H   0  0  0  0  0  0  0  0  0  0  0  0
  140.5436   77.5072  223.5615 H   0  0  0  0  0  0  0  0  0  0  0  0
  142.3035   78.5995  224.8797 H   0  0  0  0  0  0  0  0  0  0  0  0
  143.6337   80.4959  223.9831 H   0  0  0  0  0  0  0  0  0  0  0  0
  143.1258   81.2862  221.6649 H   0  0  0  0  0  0  0  0  0  0  0  0
  141.3552   80.1902  220.3341 H   0  0  0  0  0  0  0  0  0  0  0  0
  1  2  1  0
  2  3  1  0
  3  4  1  0
  4  5  1  0
  5  6  1  0
  6  7  2  0
  6  8  1  0
  8  9  1  0
  9 10  1  0
 10 11  2  0
 10 12  1  0
 12 13  2  0
 13 14  1  0
 14 15  2  0
 15 16  1  0
 16 17  2  0
 17 18  1  0
 18 19  2  0
 19 20  1  0
 20 21  2  0
  4 22  1  0
 22 23  2  0
 23 24  1  0
 24 25  2  0
 25 26  1  0
 26 27  2  0
 21 12  1  0
 27 22  1  0
 20 15  1  0
  1 28  1  0
  1 29  1  0
  1 30  1  0
  2 31  1  0
  2 32  1  0
  3 33  1  0
  3 34  1  0
  4 35  1  6
  5 36  1  0
  8 37  1  0
  8 38  1  0
  9 39  1  0
 13 40  1  0
 14 41  1  0
 16 42  1  0
 17 43  1  0
 18 44  1  0
 19 45  1  0
 23 46  1  0
 24 47  1  0
 25 48  1  0
 26 49  1  0
 27 50  1  0
M  END
>  <smiles>  (14) 
CCC[C@H](NC(=O)CNC(=O)c1ccc2ccccc2n1)c1ccccc1

>  <score_type>  (14) 
oracle

>  <origin>  (14) 
autodockgpu

>  <m_score__min__energy>  (14) 
-8.8900000000000006

>  <m_primary>  (14) 
energy

>  <rmsd>  (14) 
4.079156636129447

>  <m_score__min__rmsd>  (14) 
4.079156636129447

>  <meeko>  (14) 
{"free_energy": -8.31, "intermolecular_energy": -10.39, "internal_energy": -1.81, "cluster_size": 43, "cluster_id": 1, "rank_in_cluster": 26}

>  <energy>  (14) 
-8.52

>  <cluster_rmsd>  (14) 
1.55

>  <cluster>  (14) 
1

$$$$

     RDKit          3D

 50 52  0  0  0  0  0  0  0  0999 V2000
  138.2570   80.1120  223.6670 C   0  0  0  0  0  0  0  0  0  0  0  0
  137.9090   79.6540  222.2780 C   0  0  0  0  0  0  0  0  0  0  0  0
  138.4050   78.3060  221.9130 C   0  0  0  0  0  0  0  0  0  0  0  0
  139.6530   78.2210  221.1100 C   0  0  2  0  0  0  0  0  0  0  0  0
  139.9600   76.9120  220.6570 N   0  0  0  0  0  0  0  0  0  0  0  0
  139.8460   75.8350  221.6150 C   0  0  0  0  0  0  0  0  0  0  0  0
  139.4880   76.0510  222.8050 O   0  0  0  0  0  0  0  0  0  0  0  0
  140.1540   74.4340  221.2080 C   0  0  0  0  0  0  0  0  0  0  0  0
  139.9250   73.5860  222.3440 N   0  0  0  0  0  0  0  0  0  0  0  0
  140.5820   72.3310  222.4330 C   0  0  0  0  0  0  0  0  0  0  0  0
  141.3750   71.8870  221.5710 O   0  0  0  0  0  0  0  0  0  0  0  0
  140.3110   71.5050  223.6160 C   0  0  0  0  0  0  0  0  0  0  0  0
  139.6180   70.3080  223.5130 C   0  0  0  0  0  0  0  0  0  0  0  0
  139.3500   69.5150  224.6020 C   0  0  0  0  0  0  0  0  0  0  0  0
  139.7880   69.9290  225.8380 C   0  0  0  0  0  0  0  0  0  0  0  0
  139.5340   69.1550  226.9620 C   0  0  0  0  0  0  0  0  0  0  0  0
  139.9940   69.6070  228.1970 C   0  0  0  0  0  0  0  0  0  0  0  0
  140.6820   70.7970  228.2930 C   0  0  0  0  0  0  0  0  0  0  0  0
  140.9370   71.5720  227.1850 C   0  0  0  0  0  0  0  0  0  0  0  0
  140.4790   71.1220  225.9530 C   0  0  0  0  0  0  0  0  0  0  0  0
  140.7130   71.8560  224.8520 N   0  0  0  0  0  0  0  0  0  0  0  0
  140.7870   78.8750  221.8190 C   0  0  0  0  0  0  0  0  0  0  0  0
  141.5370   79.8910  221.2710 C   0  0  0  0  0  0  0  0  0  0  0  0
  142.5760   80.4530  221.9870 C   0  0  0  0  0  0  0  0  0  0  0  0
  142.9180   80.0440  223.2610 C   0  0  0  0  0  0  0  0  0  0  0  0
  142.1670   79.0260  223.8090 C   0  0  0  0  0  0  0  0  0  0  0  0
  141.1180   78.4560  223.0910 C   0  0  0  0  0  0  0  0  0  0  0  0
  137.7622   79.4608  224.4026 H   0  0  0  0  0  0  0  0  0  0  0  0
  139.3469   80.0618  223.8074 H   0  0  0  0  0  0  0  0  0  0  0  0
  137.9166   81.1485  223.8074 H   0  0  0  0  0  0  0  0  0  0  0  0
  136.8128   79.6491  222.1864 H   0  0  0  0  0  0  0  0  0  0  0  0
  138.4053   80.3568  221.5926 H   0  0  0  0  0  0  0  0  0  0  0  0
  138.5792   77.7558  222.8494 H   0  0  0  0  0  0  0  0  0  0  0  0
  137.6249   77.8918  221.2574 H   0  0  0  0  0  0  0  0  0  0  0  0
  139.4691   78.7866  220.1847 H   0  0  0  0  0  0  0  0  0  0  0  0
  140.2490   76.6160  219.7070 H   0  0  0  0  0  0  0  0  0  0  0  0
  139.4980   74.1327  220.3780 H   0  0  0  0  0  0  0  0  0  0  0  0
  141.1983   74.3524  220.8722 H   0  0  0  0  0  0  0  0  0  0  0  0
  139.2700   73.9050  223.0970 H   0  0  0  0  0  0  0  0  0  0  0  0
  139.2699   69.9815  222.5219 H   0  0  0  0  0  0  0  0  0  0  0  0
  138.7978   68.5705  224.4880 H   0  0  0  0  0  0  0  0  0  0  0  0
  138.9824   68.2069  226.8795 H   0  0  0  0  0  0  0  0  0  0  0  0
  139.8067   69.0098  229.1016 H   0  0  0  0  0  0  0  0  0  0  0  0
  141.0356   71.1352  229.2782 H   0  0  0  0  0  0  0  0  0  0  0  0
  141.4875   72.5203  227.2722 H   0  0  0  0  0  0  0  0  0  0  0  0
  141.3080   80.2567  220.2591 H   0  0  0  0  0  0  0  0  0  0  0  0
  143.1571   81.2627  221.5215 H   0  0  0  0  0  0  0  0  0  0  0  0
  143.7494   80.5080  223.8118 H   0  0  0  0  0  0  0  0  0  0  0  0
  142.3978   78.6611  224.8207 H   0  0  0  0  0  0  0  0  0  0  0  0
  140.5349   77.6458  223.5532 H   0  0  0  0  0  0  0  0  0  0  0  0
  1  2  1  0
  2  3  1  0
  3  4  1  0
  4  5  1  0
  5  6  1  0
  6  7  2  0
  6  8  1  0
  8  9  1  0
  9 10  1  0
 10 11  2  0
 10 12  1  0
 12 13  2  0
 13 14  1  0
 14 15  2  0
 15 16  1  0
 16 17  2  0
 17 18  1  0
 18 19  2  0
 19 20  1  0
 20 21  2  0
  4 22  1  0
 22 23  2  0
 23 24  1  0
 24 25  2  0
 25 26  1  0
 26 27  2  0
 21 12  1  0
 27 22  1  0
 20 15  1  0
  1 28  1  0
  1 29  1  0
  1 30  1  0
  2 31  1  0
  2 32  1  0
  3 33  1  0
  3 34  1  0
  4 35  1  6
  5 36  1  0
  8 37  1  0
  8 38  1  0
  9 39  1  0
 13 40  1  0
 14 41  1  0
 16 42  1  0
 17 43  1  0
 18 44  1  0
 19 45  1  0
 23 46  1  0
 24 47  1  0
 25 48  1  0
 26 49  1  0
 27 50  1  0
M  END
>  <smiles>  (15) 
CCC[C@H](NC(=O)CNC(=O)c1ccc2ccccc2n1)c1ccccc1

>  <score_type>  (15) 
oracle

>  <origin>  (15) 
autodockgpu

>  <m_score__min__energy>  (15) 
-8.8900000000000006

>  <m_primary>  (15) 
energy

>  <rmsd>  (15) 
4.2469717214955205

>  <m_score__min__rmsd>  (15) 
4.2469717214955205

>  <meeko>  (15) 
{"free_energy": -8.36, "intermolecular_energy": -10.45, "internal_energy": -1.73, "cluster_size": 43, "cluster_id": 1, "rank_in_cluster": 19}

>  <energy>  (15) 
-8.39

>  <cluster_rmsd>  (15) 
0.83

>  <cluster>  (15) 
1

$$$$

     RDKit          3D

 50 52  0  0  0  0  0  0  0  0999 V2000
  143.6900   75.9890  219.6970 C   0  0  0  0  0  0  0  0  0  0  0  0
  142.7390   76.8600  218.9250 C   0  0  0  0  0  0  0  0  0  0  0  0
  141.5470   77.3180  219.6770 C   0  0  0  0  0  0  0  0  0  0  0  0
  141.4540   76.9550  221.1160 C   0  0  2  0  0  0  0  0  0  0  0  0
  140.3330   76.1450  221.4360 N   0  0  0  0  0  0  0  0  0  0  0  0
  140.2650   74.8370  220.8240 C   0  0  0  0  0  0  0  0  0  0  0  0
  141.1650   74.4320  220.0380 O   0  0  0  0  0  0  0  0  0  0  0  0
  139.1150   73.9320  221.1140 C   0  0  0  0  0  0  0  0  0  0  0  0
  139.3880   73.2570  222.3510 N   0  0  0  0  0  0  0  0  0  0  0  0
  139.5060   71.8430  222.3740 C   0  0  0  0  0  0  0  0  0  0  0  0
  139.3890   71.1090  221.3660 O   0  0  0  0  0  0  0  0  0  0  0  0
  139.7860   71.2060  223.6670 C   0  0  0  0  0  0  0  0  0  0  0  0
  139.5310   69.8580  223.8730 C   0  0  0  0  0  0  0  0  0  0  0  0
  139.7820   69.2360  225.0710 C   0  0  0  0  0  0  0  0  0  0  0  0
  140.3060   69.9820  226.1010 C   0  0  0  0  0  0  0  0  0  0  0  0
  140.5710   69.3880  227.3270 C   0  0  0  0  0  0  0  0  0  0  0  0
  141.1020   70.1750  228.3460 C   0  0  0  0  0  0  0  0  0  0  0  0
  141.3530   71.5140  228.1350 C   0  0  0  0  0  0  0  0  0  0  0  0
  141.0920   72.1130  226.9240 C   0  0  0  0  0  0  0  0  0  0  0  0
  140.5630   71.3270  225.9070 C   0  0  0  0  0  0  0  0  0  0  0  0
  140.2980   71.8820  224.7120 N   0  0  0  0  0  0  0  0  0  0  0  0
  141.5680   78.1630  221.9790 C   0  0  0  0  0  0  0  0  0  0  0  0
  141.7930   79.4270  221.4840 C   0  0  0  0  0  0  0  0  0  0  0  0
  141.8870   80.5030  222.3450 C   0  0  0  0  0  0  0  0  0  0  0  0
  141.7650   80.3840  223.7150 C   0  0  0  0  0  0  0  0  0  0  0  0
  141.5400   79.1160  224.2090 C   0  0  0  0  0  0  0  0  0  0  0  0
  141.4440   78.0270  223.3460 C   0  0  0  0  0  0  0  0  0  0  0  0
  143.5292   76.1363  220.7752 H   0  0  0  0  0  0  0  0  0  0  0  0
  143.5118   74.9343  219.4404 H   0  0  0  0  0  0  0  0  0  0  0  0
  144.7250   76.2590  219.4404 H   0  0  0  0  0  0  0  0  0  0  0  0
  143.2907   77.7499  218.5878 H   0  0  0  0  0  0  0  0  0  0  0  0
  142.3585   76.2388  218.1008 H   0  0  0  0  0  0  0  0  0  0  0  0
  141.5205   78.4158  219.6131 H   0  0  0  0  0  0  0  0  0  0  0  0
  140.7029   76.7948  219.2040 H   0  0  0  0  0  0  0  0  0  0  0  0
  142.3188   76.3105  221.3323 H   0  0  0  0  0  0  0  0  0  0  0  0
  139.5470   76.3650  222.0740 H   0  0  0  0  0  0  0  0  0  0  0  0
  138.1899   74.5201  221.2050 H   0  0  0  0  0  0  0  0  0  0  0  0
  138.9847   73.2038  220.2999 H   0  0  0  0  0  0  0  0  0  0  0  0
  139.4950   73.8200  223.2290 H   0  0  0  0  0  0  0  0  0  0  0  0
  139.1123   69.2657  223.0461 H   0  0  0  0  0  0  0  0  0  0  0  0
  139.5688   68.1651  225.2041 H   0  0  0  0  0  0  0  0  0  0  0  0
  140.3662   68.3196  227.4902 H   0  0  0  0  0  0  0  0  0  0  0  0
  141.3225   69.7253  229.3254 H   0  0  0  0  0  0  0  0  0  0  0  0
  141.7717   72.1176  228.9538 H   0  0  0  0  0  0  0  0  0  0  0  0
  141.2960   73.1822  226.7655 H   0  0  0  0  0  0  0  0  0  0  0  0
  141.8983   79.5810  220.3999 H   0  0  0  0  0  0  0  0  0  0  0  0
  142.0674   81.5011  221.9193 H   0  0  0  0  0  0  0  0  0  0  0  0
  141.8433   81.2570  224.3796 H   0  0  0  0  0  0  0  0  0  0  0  0
  141.4355   78.9636  225.2934 H   0  0  0  0  0  0  0  0  0  0  0  0
  141.2637   77.0272  223.7678 H   0  0  0  0  0  0  0  0  0  0  0  0
  1  2  1  0
  2  3  1  0
  3  4  1  0
  4  5  1  0
  5  6  1  0
  6  7  2  0
  6  8  1  0
  8  9  1  0
  9 10  1  0
 10 11  2  0
 10 12  1  0
 12 13  2  0
 13 14  1  0
 14 15  2  0
 15 16  1  0
 16 17  2  0
 17 18  1  0
 18 19  2  0
 19 20  1  0
 20 21  2  0
  4 22  1  0
 22 23  2  0
 23 24  1  0
 24 25  2  0
 25 26  1  0
 26 27  2  0
 21 12  1  0
 27 22  1  0
 20 15  1  0
  1 28  1  0
  1 29  1  0
  1 30  1  0
  2 31  1  0
  2 32  1  0
  3 33  1  0
  3 34  1  0
  4 35  1  1
  5 36  1  0
  8 37  1  0
  8 38  1  0
  9 39  1  0
 13 40  1  0
 14 41  1  0
 16 42  1  0
 17 43  1  0
 18 44  1  0
 19 45  1  0
 23 46  1  0
 24 47  1  0
 25 48  1  0
 26 49  1  0
 27 50  1  0
M  END
>  <smiles>  (16) 
CCC[C@H](NC(=O)CNC(=O)c1ccc2ccccc2n1)c1ccccc1

>  <score_type>  (16) 
oracle

>  <origin>  (16) 
autodockgpu

>  <m_score__min__energy>  (16) 
-8.8900000000000006

>  <m_primary>  (16) 
energy

>  <rmsd>  (16) 
4.381764962319511

>  <m_score__min__rmsd>  (16) 
4.381764962319511

>  <meeko>  (16) 
{"free_energy": -8.24, "intermolecular_energy": -10.33, "internal_energy": -1.42, "cluster_size": 43, "cluster_id": 1, "rank_in_cluster": 39}

>  <energy>  (16) 
-8.37

>  <cluster_rmsd>  (16) 
0.82

>  <cluster>  (16) 
1

$$$$

     RDKit          3D

 50 52  0  0  0  0  0  0  0  0999 V2000
  142.3750   80.7700  223.8410 C   0  0  0  0  0  0  0  0  0  0  0  0
  142.5630   79.3510  223.3810 C   0  0  0  0  0  0  0  0  0  0  0  0
  141.3510   78.4990  223.4430 C   0  0  0  0  0  0  0  0  0  0  0  0
  140.7780   78.0150  222.1600 C   0  0  2  0  0  0  0  0  0  0  0  0
  141.1060   76.6700  221.8520 N   0  0  0  0  0  0  0  0  0  0  0  0
  140.0180   75.7900  221.4840 C   0  0  0  0  0  0  0  0  0  0  0  0
  138.8270   76.2030  221.4400 O   0  0  0  0  0  0  0  0  0  0  0  0
  140.2890   74.3630  221.1480 C   0  0  0  0  0  0  0  0  0  0  0  0
  140.0670   73.5820  222.3320 N   0  0  0  0  0  0  0  0  0  0  0  0
  140.5490   72.2490  222.4000 C   0  0  0  0  0  0  0  0  0  0  0  0
  141.1760   71.6770  221.4790 O   0  0  0  0  0  0  0  0  0  0  0  0
  140.2940   71.4970  223.6350 C   0  0  0  0  0  0  0  0  0  0  0  0
  139.5520   70.3250  223.6220 C   0  0  0  0  0  0  0  0  0  0  0  0
  139.2980   69.6010  224.7610 C   0  0  0  0  0  0  0  0  0  0  0  0
  139.8000   70.0610  225.9560 C   0  0  0  0  0  0  0  0  0  0  0  0
  139.5620   69.3570  227.1280 C   0  0  0  0  0  0  0  0  0  0  0  0
  140.0870   69.8530  228.3190 C   0  0  0  0  0  0  0  0  0  0  0  0
  140.8240   71.0180  228.3260 C   0  0  0  0  0  0  0  0  0  0  0  0
  141.0640   71.7240  227.1690 C   0  0  0  0  0  0  0  0  0  0  0  0
  140.5400   71.2290  225.9810 C   0  0  0  0  0  0  0  0  0  0  0  0
  140.7580   71.8950  224.8340 N   0  0  0  0  0  0  0  0  0  0  0  0
  141.0820   78.9600  221.0510 C   0  0  0  0  0  0  0  0  0  0  0  0
  140.6490   80.2670  221.0300 C   0  0  0  0  0  0  0  0  0  0  0  0
  140.9700   81.0880  219.9670 C   0  0  0  0  0  0  0  0  0  0  0  0
  141.7240   80.6640  218.8890 C   0  0  0  0  0  0  0  0  0  0  0  0
  142.1560   79.3550  218.9120 C   0  0  0  0  0  0  0  0  0  0  0  0
  141.8350   78.5220  219.9810 C   0  0  0  0  0  0  0  0  0  0  0  0
  142.3708   80.8015  224.9405 H   0  0  0  0  0  0  0  0  0  0  0  0
  143.1987   81.3913  223.4595 H   0  0  0  0  0  0  0  0  0  0  0  0
  141.4179   81.1554  223.4595 H   0  0  0  0  0  0  0  0  0  0  0  0
  142.9084   79.3751  222.3369 H   0  0  0  0  0  0  0  0  0  0  0  0
  143.2878   78.8998  224.0746 H   0  0  0  0  0  0  0  0  0  0  0  0
  141.6030   77.6133  224.0446 H   0  0  0  0  0  0  0  0  0  0  0  0
  140.5736   79.1534  223.8643 H   0  0  0  0  0  0  0  0  0  0  0  0
  139.6860   77.9987  222.2916 H   0  0  0  0  0  0  0  0  0  0  0  0
  142.0420   76.2270  221.8410 H   0  0  0  0  0  0  0  0  0  0  0  0
  139.6099   74.0316  220.3487 H   0  0  0  0  0  0  0  0  0  0  0  0
  141.3244   74.2415  220.7969 H   0  0  0  0  0  0  0  0  0  0  0  0
  139.5470   74.0080  223.1360 H   0  0  0  0  0  0  0  0  0  0  0  0
  139.1522   69.9620  222.6637 H   0  0  0  0  0  0  0  0  0  0  0  0
  138.7066   68.6745  224.7185 H   0  0  0  0  0  0  0  0  0  0  0  0
  138.9722   68.4285  227.1167 H   0  0  0  0  0  0  0  0  0  0  0  0
  139.9124   69.3114  229.2604 H   0  0  0  0  0  0  0  0  0  0  0  0
  141.2295   71.3919  229.2778 H   0  0  0  0  0  0  0  0  0  0  0  0
  141.6533   72.6527  227.1844 H   0  0  0  0  0  0  0  0  0  0  0  0
  140.0457   80.6582  221.8624 H   0  0  0  0  0  0  0  0  0  0  0  0
  140.6091   82.1270  219.9787 H   0  0  0  0  0  0  0  0  0  0  0  0
  141.9673   81.3376  218.0541 H   0  0  0  0  0  0  0  0  0  0  0  0
  142.7594   78.9652  218.0789 H   0  0  0  0  0  0  0  0  0  0  0  0
  142.1931   77.4820  219.9720 H   0  0  0  0  0  0  0  0  0  0  0  0
  1  2  1  0
  2  3  1  0
  3  4  1  0
  4  5  1  0
  5  6  1  0
  6  7  2  0
  6  8  1  0
  8  9  1  0
  9 10  1  0
 10 11  2  0
 10 12  1  0
 12 13  2  0
 13 14  1  0
 14 15  2  0
 15 16  1  0
 16 17  2  0
 17 18  1  0
 18 19  2  0
 19 20  1  0
 20 21  2  0
  4 22  1  0
 22 23  2  0
 23 24  1  0
 24 25  2  0
 25 26  1  0
 26 27  2  0
 21 12  1  0
 27 22  1  0
 20 15  1  0
  1 28  1  0
  1 29  1  0
  1 30  1  0
  2 31  1  0
  2 32  1  0
  3 33  1  0
  3 34  1  0
  4 35  1  1
  5 36  1  0
  8 37  1  0
  8 38  1  0
  9 39  1  0
 13 40  1  0
 14 41  1  0
 16 42  1  0
 17 43  1  0
 18 44  1  0
 19 45  1  0
 23 46  1  0
 24 47  1  0
 25 48  1  0
 26 49  1  0
 27 50  1  0
M  END
>  <smiles>  (17) 
CCC[C@H](NC(=O)CNC(=O)c1ccc2ccccc2n1)c1ccccc1

>  <score_type>  (17) 
oracle

>  <origin>  (17) 
autodockgpu

>  <m_score__min__energy>  (17) 
-8.8900000000000006

>  <m_primary>  (17) 
energy

>  <rmsd>  (17) 
3.6110440101560015

>  <m_score__min__rmsd>  (17) 
3.6110440101560015

>  <meeko>  (17) 
{"free_energy": -8.77, "intermolecular_energy": -10.86, "internal_energy": -1.29, "cluster_size": 43, "cluster_id": 1, "rank_in_cluster": 5}

>  <energy>  (17) 
-8.37

>  <cluster_rmsd>  (17) 
0.84

>  <cluster>  (17) 
1

$$$$

     RDKit          3D

 50 52  0  0  0  0  0  0  0  0999 V2000
  142.5580   80.7180  223.8290 C   0  0  0  0  0  0  0  0  0  0  0  0
  142.6170   79.4060  223.0960 C   0  0  0  0  0  0  0  0  0  0  0  0
  141.3420   78.6530  223.0410 C   0  0  0  0  0  0  0  0  0  0  0  0
  140.7330   78.4200  221.7050 C   0  0  2  0  0  0  0  0  0  0  0  0
  140.9490   77.1160  221.1910 N   0  0  0  0  0  0  0  0  0  0  0  0
  140.1300   76.0490  221.7230 C   0  0  0  0  0  0  0  0  0  0  0  0
  139.2580   76.2710  222.6080 O   0  0  0  0  0  0  0  0  0  0  0  0
  140.3030   74.6530  221.2300 C   0  0  0  0  0  0  0  0  0  0  0  0
  140.0410   73.7640  222.3260 N   0  0  0  0  0  0  0  0  0  0  0  0
  140.6450   72.4790  222.3540 C   0  0  0  0  0  0  0  0  0  0  0  0
  141.4170   72.0430  221.4700 O   0  0  0  0  0  0  0  0  0  0  0  0
  140.3420   71.6120  223.4990 C   0  0  0  0  0  0  0  0  0  0  0  0
  139.6200   70.4380  223.3390 C   0  0  0  0  0  0  0  0  0  0  0  0
  139.3220   69.6070  224.3920 C   0  0  0  0  0  0  0  0  0  0  0  0
  139.7570   69.9580  225.6480 C   0  0  0  0  0  0  0  0  0  0  0  0
  139.4740   69.1440  226.7350 C   0  0  0  0  0  0  0  0  0  0  0  0
  139.9320   69.5320  227.9930 C   0  0  0  0  0  0  0  0  0  0  0  0
  140.6490   70.6990  228.1450 C   0  0  0  0  0  0  0  0  0  0  0  0
  140.9340   71.5130  227.0730 C   0  0  0  0  0  0  0  0  0  0  0  0
  140.4770   71.1270  225.8190 C   0  0  0  0  0  0  0  0  0  0  0  0
  140.7400   71.9000  224.7520 N   0  0  0  0  0  0  0  0  0  0  0  0
  141.1160   79.4960  220.7500 C   0  0  0  0  0  0  0  0  0  0  0  0
  141.8600   79.2690  219.6140 C   0  0  0  0  0  0  0  0  0  0  0  0
  142.1780   80.3170  218.7720 C   0  0  0  0  0  0  0  0  0  0  0  0
  141.7830   81.6190  219.0080 C   0  0  0  0  0  0  0  0  0  0  0  0
  141.0380   81.8440  220.1460 C   0  0  0  0  0  0  0  0  0  0  0  0
  140.7140   80.7920  221.0000 C   0  0  0  0  0  0  0  0  0  0  0  0
  142.5663   80.5329  224.9133 H   0  0  0  0  0  0  0  0  0  0  0  0
  143.4295   81.3307  223.5549 H   0  0  0  0  0  0  0  0  0  0  0  0
  141.6350   81.2500  223.5549 H   0  0  0  0  0  0  0  0  0  0  0  0
  142.9371   79.6079  222.0632 H   0  0  0  0  0  0  0  0  0  0  0  0
  143.3191   78.7742  223.6597 H   0  0  0  0  0  0  0  0  0  0  0  0
  141.5226   77.6679  223.4958 H   0  0  0  0  0  0  0  0  0  0  0  0
  140.6188   79.2928  223.5679 H   0  0  0  0  0  0  0  0  0  0  0  0
  139.6432   78.4732  221.8450 H   0  0  0  0  0  0  0  0  0  0  0  0
  141.6210   76.8200  220.4600 H   0  0  0  0  0  0  0  0  0  0  0  0
  139.5960   74.4553  220.4108 H   0  0  0  0  0  0  0  0  0  0  0  0
  141.3246   74.5038  220.8505 H   0  0  0  0  0  0  0  0  0  0  0  0
  139.4010   74.0740  223.0960 H   0  0  0  0  0  0  0  0  0  0  0  0
  139.2734   70.1623  222.3321 H   0  0  0  0  0  0  0  0  0  0  0  0
  138.7484   68.6819  224.2336 H   0  0  0  0  0  0  0  0  0  0  0  0
  138.9013   68.2136  226.6071 H   0  0  0  0  0  0  0  0  0  0  0  0
  139.7198   68.9027  228.8699 H   0  0  0  0  0  0  0  0  0  0  0  0
  141.0016   70.9864  229.1465 H   0  0  0  0  0  0  0  0  0  0  0  0
  141.5071   72.4426  227.2049 H   0  0  0  0  0  0  0  0  0  0  0  0
  142.2020   78.2509  219.3763 H   0  0  0  0  0  0  0  0  0  0  0  0
  142.7734   80.1045  217.8718 H   0  0  0  0  0  0  0  0  0  0  0  0
  142.0497   82.4363  218.3218 H   0  0  0  0  0  0  0  0  0  0  0  0
  140.6965   82.8627  220.3817 H   0  0  0  0  0  0  0  0  0  0  0  0
  140.1193   81.0011  221.9015 H   0  0  0  0  0  0  0  0  0  0  0  0
  1  2  1  0
  2  3  1  0
  3  4  1  0
  4  5  1  0
  5  6  1  0
  6  7  2  0
  6  8  1  0
  8  9  1  0
  9 10  1  0
 10 11  2  0
 10 12  1  0
 12 13  2  0
 13 14  1  0
 14 15  2  0
 15 16  1  0
 16 17  2  0
 17 18  1  0
 18 19  2  0
 19 20  1  0
 20 21  2  0
  4 22  1  0
 22 23  2  0
 23 24  1  0
 24 25  2  0
 25 26  1  0
 26 27  2  0
 21 12  1  0
 27 22  1  0
 20 15  1  0
  1 28  1  0
  1 29  1  0
  1 30  1  0
  2 31  1  0
  2 32  1  0
  3 33  1  0
  3 34  1  0
  4 35  1  1
  5 36  1  0
  8 37  1  0
  8 38  1  0
  9 39  1  0
 13 40  1  0
 14 41  1  0
 16 42  1  0
 17 43  1  0
 18 44  1  0
 19 45  1  0
 23 46  1  0
 24 47  1  0
 25 48  1  0
 26 49  1  0
 27 50  1  0
M  END
>  <smiles>  (18) 
CCC[C@H](NC(=O)CNC(=O)c1ccc2ccccc2n1)c1ccccc1

>  <score_type>  (18) 
oracle

>  <origin>  (18) 
autodockgpu

>  <m_score__min__energy>  (18) 
-8.8900000000000006

>  <m_primary>  (18) 
energy

>  <rmsd>  (18) 
3.5854119611218422

>  <m_score__min__rmsd>  (18) 
3.5854119611218422

>  <meeko>  (18) 
{"free_energy": -8.28, "intermolecular_energy": -10.36, "internal_energy": -1.7, "cluster_size": 43, "cluster_id": 1, "rank_in_cluster": 37}

>  <energy>  (18) 
-8.36

>  <cluster_rmsd>  (18) 
0.83

>  <cluster>  (18) 
1

$$$$

     RDKit          3D

 50 52  0  0  0  0  0  0  0  0999 V2000
  143.3640   75.9320  219.1420 C   0  0  0  0  0  0  0  0  0  0  0  0
  142.8960   77.2560  218.6060 C   0  0  0  0  0  0  0  0  0  0  0  0
  141.8820   77.9520  219.4340 C   0  0  0  0  0  0  0  0  0  0  0  0
  141.4190   77.2770  220.6750 C   0  0  2  0  0  0  0  0  0  0  0  0
  140.3130   76.4100  220.4830 N   0  0  0  0  0  0  0  0  0  0  0  0
  140.2550   75.2180  221.3000 C   0  0  0  0  0  0  0  0  0  0  0  0
  141.1510   74.9610  222.1500 O   0  0  0  0  0  0  0  0  0  0  0  0
  139.1210   74.2610  221.1520 C   0  0  0  0  0  0  0  0  0  0  0  0
  139.1060   73.4140  222.3110 N   0  0  0  0  0  0  0  0  0  0  0  0
  140.0310   72.3420  222.4160 C   0  0  0  0  0  0  0  0  0  0  0  0
  140.8900   72.0650  221.5480 O   0  0  0  0  0  0  0  0  0  0  0  0
  139.9710   71.5090  223.6220 C   0  0  0  0  0  0  0  0  0  0  0  0
  139.3400   70.2740  223.6120 C   0  0  0  0  0  0  0  0  0  0  0  0
  139.2680   69.4730  224.7250 C   0  0  0  0  0  0  0  0  0  0  0  0
  139.8450   69.9180  225.8920 C   0  0  0  0  0  0  0  0  0  0  0  0
  139.7910   69.1370  227.0370 C   0  0  0  0  0  0  0  0  0  0  0  0
  140.3870   69.6210  228.1990 C   0  0  0  0  0  0  0  0  0  0  0  0
  141.0130   70.8490  228.2040 C   0  0  0  0  0  0  0  0  0  0  0  0
  141.0700   71.6310  227.0740 C   0  0  0  0  0  0  0  0  0  0  0  0
  140.4760   71.1490  225.9140 C   0  0  0  0  0  0  0  0  0  0  0  0
  140.5160   71.8890  224.7930 N   0  0  0  0  0  0  0  0  0  0  0  0
  141.2060   78.2630  221.7700 C   0  0  0  0  0  0  0  0  0  0  0  0
  140.0430   78.3410  222.5020 C   0  0  0  0  0  0  0  0  0  0  0  0
  139.9150   79.2820  223.5050 C   0  0  0  0  0  0  0  0  0  0  0  0
  140.9160   80.1770  223.8280 C   0  0  0  0  0  0  0  0  0  0  0  0
  142.0800   80.0980  223.0940 C   0  0  0  0  0  0  0  0  0  0  0  0
  142.2150   79.1510  222.0800 C   0  0  0  0  0  0  0  0  0  0  0  0
  143.3549   75.9577  220.2417 H   0  0  0  0  0  0  0  0  0  0  0  0
  142.6930   75.1354  218.7883 H   0  0  0  0  0  0  0  0  0  0  0  0
  144.3866   75.7340  218.7883 H   0  0  0  0  0  0  0  0  0  0  0  0
  143.7721   77.9151  218.5162 H   0  0  0  0  0  0  0  0  0  0  0  0
  142.4071   77.0394  217.6447 H   0  0  0  0  0  0  0  0  0  0  0  0
  142.3083   78.9225  219.7278 H   0  0  0  0  0  0  0  0  0  0  0  0
  140.9881   78.0005  218.7948 H   0  0  0  0  0  0  0  0  0  0  0  0
  142.2322   76.6052  220.9871 H   0  0  0  0  0  0  0  0  0  0  0  0
  139.5160   76.5250  219.8310 H   0  0  0  0  0  0  0  0  0  0  0  0
  138.1725   74.8134  221.0801 H   0  0  0  0  0  0  0  0  0  0  0  0
  139.2429   73.6598  220.2389 H   0  0  0  0  0  0  0  0  0  0  0  0
  138.4070   73.5980  223.0710 H   0  0  0  0  0  0  0  0  0  0  0  0
  138.8796   69.9227  222.6768 H   0  0  0  0  0  0  0  0  0  0  0  0
  138.7606   68.4979  224.6845 H   0  0  0  0  0  0  0  0  0  0  0  0
  139.2892   68.1582  227.0275 H   0  0  0  0  0  0  0  0  0  0  0  0
  140.3579   69.0191  229.1192 H   0  0  0  0  0  0  0  0  0  0  0  0
  141.4775   71.2118  229.1328 H   0  0  0  0  0  0  0  0  0  0  0  0
  141.5715   72.6099  227.0882 H   0  0  0  0  0  0  0  0  0  0  0  0
  139.2129   77.6518  222.2876 H   0  0  0  0  0  0  0  0  0  0  0  0
  138.9732   79.3203  224.0721 H   0  0  0  0  0  0  0  0  0  0  0  0
  140.7904   80.9171  224.6321 H   0  0  0  0  0  0  0  0  0  0  0  0
  142.9091   80.7878  223.3101 H   0  0  0  0  0  0  0  0  0  0  0  0
  143.1548   79.1106  221.5097 H   0  0  0  0  0  0  0  0  0  0  0  0
  1  2  1  0
  2  3  1  0
  3  4  1  0
  4  5  1  0
  5  6  1  0
  6  7  2  0
  6  8  1  0
  8  9  1  0
  9 10  1  0
 10 11  2  0
 10 12  1  0
 12 13  2  0
 13 14  1  0
 14 15  2  0
 15 16  1  0
 16 17  2  0
 17 18  1  0
 18 19  2  0
 19 20  1  0
 20 21  2  0
  4 22  1  0
 22 23  2  0
 23 24  1  0
 24 25  2  0
 25 26  1  0
 26 27  2  0
 21 12  1  0
 27 22  1  0
 20 15  1  0
  1 28  1  0
  1 29  1  0
  1 30  1  0
  2 31  1  0
  2 32  1  0
  3 33  1  0
  3 34  1  0
  4 35  1  1
  5 36  1  0
  8 37  1  0
  8 38  1  0
  9 39  1  0
 13 40  1  0
 14 41  1  0
 16 42  1  0
 17 43  1  0
 18 44  1  0
 19 45  1  0
 23 46  1  0
 24 47  1  0
 25 48  1  0
 26 49  1  0
 27 50  1  0
M  END
>  <smiles>  (19) 
CCC[C@H](NC(=O)CNC(=O)c1ccc2ccccc2n1)c1ccccc1

>  <score_type>  (19) 
oracle

>  <origin>  (19) 
autodockgpu

>  <m_score__min__energy>  (19) 
-8.8900000000000006

>  <m_primary>  (19) 
energy

>  <rmsd>  (19) 
3.9928621203448764

>  <m_score__min__rmsd>  (19) 
3.9928621203448764

>  <meeko>  (19) 
{"free_energy": -8.65, "intermolecular_energy": -10.74, "internal_energy": -1.32, "cluster_size": 43, "cluster_id": 1, "rank_in_cluster": 10}

>  <energy>  (19) 
-8.36

>  <cluster_rmsd>  (19) 
0.84

>  <cluster>  (19) 
1

$$$$

     RDKit          3D

 50 52  0  0  0  0  0  0  0  0999 V2000
  143.0060   80.4490  223.4450 C   0  0  0  0  0  0  0  0  0  0  0  0
  141.7720   79.7060  223.8740 C   0  0  0  0  0  0  0  0  0  0  0  0
  141.7600   78.2590  223.5520 C   0  0  0  0  0  0  0  0  0  0  0  0
  140.8750   77.8020  222.4480 C   0  0  2  0  0  0  0  0  0  0  0  0
  141.0280   76.4310  222.1160 N   0  0  0  0  0  0  0  0  0  0  0  0
  139.9040   75.7730  221.4880 C   0  0  0  0  0  0  0  0  0  0  0  0
  138.8310   76.3920  221.2470 O   0  0  0  0  0  0  0  0  0  0  0  0
  139.9920   74.3330  221.1110 C   0  0  0  0  0  0  0  0  0  0  0  0
  139.8210   73.5540  222.3050 N   0  0  0  0  0  0  0  0  0  0  0  0
  140.4140   72.2680  222.4010 C   0  0  0  0  0  0  0  0  0  0  0  0
  141.0990   71.7380  221.4970 O   0  0  0  0  0  0  0  0  0  0  0  0
  140.2060   71.5160  223.6450 C   0  0  0  0  0  0  0  0  0  0  0  0
  139.4810   70.3340  223.6570 C   0  0  0  0  0  0  0  0  0  0  0  0
  139.2710   69.6100  224.8050 C   0  0  0  0  0  0  0  0  0  0  0  0
  139.8020   70.0800  225.9840 C   0  0  0  0  0  0  0  0  0  0  0  0
  139.6100   69.3760  227.1640 C   0  0  0  0  0  0  0  0  0  0  0  0
  140.1630   69.8840  228.3380 C   0  0  0  0  0  0  0  0  0  0  0  0
  140.8830   71.0590  228.3200 C   0  0  0  0  0  0  0  0  0  0  0  0
  141.0780   71.7650  227.1540 C   0  0  0  0  0  0  0  0  0  0  0  0
  140.5260   71.2590  225.9830 C   0  0  0  0  0  0  0  0  0  0  0  0
  140.7000   71.9240  224.8290 N   0  0  0  0  0  0  0  0  0  0  0  0
  140.9850   78.7050  221.2700 C   0  0  0  0  0  0  0  0  0  0  0  0
  141.8300   78.4670  220.2100 C   0  0  0  0  0  0  0  0  0  0  0  0
  141.8790   79.3490  219.1480 C   0  0  0  0  0  0  0  0  0  0  0  0
  141.1060   80.4930  219.0840 C   0  0  0  0  0  0  0  0  0  0  0  0
  140.2610   80.7300  220.1470 C   0  0  0  0  0  0  0  0  0  0  0  0
  140.2080   79.8440  221.2210 C   0  0  0  0  0  0  0  0  0  0  0  0
  143.5606   80.7830  224.3343 H   0  0  0  0  0  0  0  0  0  0  0  0
  143.6435   79.7845  222.8434 H   0  0  0  0  0  0  0  0  0  0  0  0
  142.7170   81.3234  222.8434 H   0  0  0  0  0  0  0  0  0  0  0  0
  141.6730   79.8124  224.9644 H   0  0  0  0  0  0  0  0  0  0  0  0
  140.9382   80.1500  223.3105 H   0  0  0  0  0  0  0  0  0  0  0  0
  142.7888   77.9731  223.2876 H   0  0  0  0  0  0  0  0  0  0  0  0
  141.3505   77.7781  224.4526 H   0  0  0  0  0  0  0  0  0  0  0  0
  139.8435   77.8713  222.8237 H   0  0  0  0  0  0  0  0  0  0  0  0
  141.8590   75.8290  222.2520 H   0  0  0  0  0  0  0  0  0  0  0  0
  139.2009   74.0869  220.3874 H   0  0  0  0  0  0  0  0  0  0  0  0
  140.9660   74.1165  220.6479 H   0  0  0  0  0  0  0  0  0  0  0  0
  139.2560   73.9470  223.0960 H   0  0  0  0  0  0  0  0  0  0  0  0
  139.0584   69.9624  222.7119 H   0  0  0  0  0  0  0  0  0  0  0  0
  138.6913   68.6754  224.7824 H   0  0  0  0  0  0  0  0  0  0  0  0
  139.0346   68.4385  227.1727 H   0  0  0  0  0  0  0  0  0  0  0  0
  140.0238   69.3433  229.2858 H   0  0  0  0  0  0  0  0  0  0  0  0
  141.3115   71.4414  229.2582 H   0  0  0  0  0  0  0  0  0  0  0  0
  141.6539   72.7022  227.1494 H   0  0  0  0  0  0  0  0  0  0  0  0
  142.4686   77.5713  220.2085 H   0  0  0  0  0  0  0  0  0  0  0  0
  142.5642   79.1310  218.3156 H   0  0  0  0  0  0  0  0  0  0  0  0
  141.1623   81.1804  218.2271 H   0  0  0  0  0  0  0  0  0  0  0  0
  139.6232   81.6262  220.1474 H   0  0  0  0  0  0  0  0  0  0  0  0
  139.5252   80.0594  222.0561 H   0  0  0  0  0  0  0  0  0  0  0  0
  1  2  1  0
  2  3  1  0
  3  4  1  0
  4  5  1  0
  5  6  1  0
  6  7  2  0
  6  8  1  0
  8  9  1  0
  9 10  1  0
 10 11  2  0
 10 12  1  0
 12 13  2  0
 13 14  1  0
 14 15  2  0
 15 16  1  0
 16 17  2  0
 17 18  1  0
 18 19  2  0
 19 20  1  0
 20 21  2  0
  4 22  1  0
 22 23  2  0
 23 24  1  0
 24 25  2  0
 25 26  1  0
 26 27  2  0
 21 12  1  0
 27 22  1  0
 20 15  1  0
  1 28  1  0
  1 29  1  0
  1 30  1  0
  2 31  1  0
  2 32  1  0
  3 33  1  0
  3 34  1  0
  4 35  1  1
  5 36  1  0
  8 37  1  0
  8 38  1  0
  9 39  1  0
 13 40  1  0
 14 41  1  0
 16 42  1  0
 17 43  1  0
 18 44  1  0
 19 45  1  0
 23 46  1  0
 24 47  1  0
 25 48  1  0
 26 49  1  0
 27 50  1  0
M  END
>  <smiles>  (20) 
CCC[C@H](NC(=O)CNC(=O)c1ccc2ccccc2n1)c1ccccc1

>  <score_type>  (20) 
oracle

>  <origin>  (20) 
autodockgpu

>  <m_score__min__energy>  (20) 
-8.8900000000000006

>  <m_primary>  (20) 
energy

>  <rmsd>  (20) 
3.728079647562695

>  <m_score__min__rmsd>  (20) 
3.728079647562695

>  <meeko>  (20) 
{"free_energy": -8.63, "intermolecular_energy": -10.71, "internal_energy": -1.28, "cluster_size": 43, "cluster_id": 1, "rank_in_cluster": 11}

>  <energy>  (20) 
-8.36

>  <cluster_rmsd>  (20) 
0.84

>  <cluster>  (20) 
1

$$$$

     RDKit          3D

 50 52  0  0  0  0  0  0  0  0999 V2000
  138.1960   80.0440  223.5460 C   0  0  0  0  0  0  0  0  0  0  0  0
  137.9750   79.6750  222.1060 C   0  0  0  0  0  0  0  0  0  0  0  0
  138.4380   78.3200  221.7210 C   0  0  0  0  0  0  0  0  0  0  0  0
  139.7570   78.2050  221.0450 C   0  0  2  0  0  0  0  0  0  0  0  0
  140.0740   76.8910  220.6160 N   0  0  0  0  0  0  0  0  0  0  0  0
  139.9050   75.8220  221.5750 C   0  0  0  0  0  0  0  0  0  0  0  0
  139.4930   76.0490  222.7450 O   0  0  0  0  0  0  0  0  0  0  0  0
  140.2200   74.4150  221.1930 C   0  0  0  0  0  0  0  0  0  0  0  0
  140.0030   73.5870  222.3450 N   0  0  0  0  0  0  0  0  0  0  0  0
  140.5990   72.3010  222.4140 C   0  0  0  0  0  0  0  0  0  0  0  0
  141.3260   71.8110  221.5190 O   0  0  0  0  0  0  0  0  0  0  0  0
  140.3450   71.4980  223.6160 C   0  0  0  0  0  0  0  0  0  0  0  0
  139.6740   70.2860  223.5420 C   0  0  0  0  0  0  0  0  0  0  0  0
  139.4210   69.5140  224.6490 C   0  0  0  0  0  0  0  0  0  0  0  0
  139.8520   69.9650  225.8750 C   0  0  0  0  0  0  0  0  0  0  0  0
  139.6140   69.2120  227.0160 C   0  0  0  0  0  0  0  0  0  0  0  0
  140.0650   69.7010  228.2400 C   0  0  0  0  0  0  0  0  0  0  0  0
  140.7310   70.9060  228.3090 C   0  0  0  0  0  0  0  0  0  0  0  0
  140.9710   71.6600  227.1830 C   0  0  0  0  0  0  0  0  0  0  0  0
  140.5210   71.1720  225.9610 C   0  0  0  0  0  0  0  0  0  0  0  0
  140.7400   71.8850  224.8430 N   0  0  0  0  0  0  0  0  0  0  0  0
  140.8320   78.8270  221.8670 C   0  0  0  0  0  0  0  0  0  0  0  0
  141.1540   78.4050  223.1370 C   0  0  0  0  0  0  0  0  0  0  0  0
  142.1640   79.0290  223.8420 C   0  0  0  0  0  0  0  0  0  0  0  0
  142.8960   80.0840  223.3320 C   0  0  0  0  0  0  0  0  0  0  0  0
  142.5730   80.5050  222.0600 C   0  0  0  0  0  0  0  0  0  0  0  0
  141.5540   79.8800  221.3450 C   0  0  0  0  0  0  0  0  0  0  0  0
  137.7393   79.2815  224.1941 H   0  0  0  0  0  0  0  0  0  0  0  0
  139.2757   80.0988  223.7489 H   0  0  0  0  0  0  0  0  0  0  0  0
  137.7347   81.0218  223.7489 H   0  0  0  0  0  0  0  0  0  0  0  0
  136.8960   79.7364  221.9012 H   0  0  0  0  0  0  0  0  0  0  0  0
  138.5766   80.3814  221.5152 H   0  0  0  0  0  0  0  0  0  0  0  0
  138.4861   77.7163  222.6393 H   0  0  0  0  0  0  0  0  0  0  0  0
  137.7104   77.9817  220.9686 H   0  0  0  0  0  0  0  0  0  0  0  0
  139.6799   78.7784  220.1095 H   0  0  0  0  0  0  0  0  0  0  0  0
  140.4040   76.5860  219.6830 H   0  0  0  0  0  0  0  0  0  0  0  0
  139.5615   74.0940  220.3724 H   0  0  0  0  0  0  0  0  0  0  0  0
  141.2632   74.3341  220.8535 H   0  0  0  0  0  0  0  0  0  0  0  0
  139.4030   73.9440  223.1270 H   0  0  0  0  0  0  0  0  0  0  0  0
  139.3316   69.9299  222.5592 H   0  0  0  0  0  0  0  0  0  0  0  0
  138.8861   68.5572  224.5576 H   0  0  0  0  0  0  0  0  0  0  0  0
  139.0816   68.2513  226.9554 H   0  0  0  0  0  0  0  0  0  0  0  0
  139.8884   69.1214  229.1581 H   0  0  0  0  0  0  0  0  0  0  0  0
  141.0784   71.2731  229.2860 H   0  0  0  0  0  0  0  0  0  0  0  0
  141.5032   72.6205  227.2477 H   0  0  0  0  0  0  0  0  0  0  0  0
  140.6047   77.5676  223.5919 H   0  0  0  0  0  0  0  0  0  0  0  0
  142.3963   78.6700  224.8555 H   0  0  0  0  0  0  0  0  0  0  0  0
  143.6973   80.5644  223.9127 H   0  0  0  0  0  0  0  0  0  0  0  0
  143.1244   81.3414  221.6057 H   0  0  0  0  0  0  0  0  0  0  0  0
  141.3176   80.2375  220.3319 H   0  0  0  0  0  0  0  0  0  0  0  0
  1  2  1  0
  2  3  1  0
  3  4  1  0
  4  5  1  0
  5  6  1  0
  6  7  2  0
  6  8  1  0
  8  9  1  0
  9 10  1  0
 10 11  2  0
 10 12  1  0
 12 13  2  0
 13 14  1  0
 14 15  2  0
 15 16  1  0
 16 17  2  0
 17 18  1  0
 18 19  2  0
 19 20  1  0
 20 21  2  0
  4 22  1  0
 22 23  2  0
 23 24  1  0
 24 25  2  0
 25 26  1  0
 26 27  2  0
 21 12  1  0
 27 22  1  0
 20 15  1  0
  1 28  1  0
  1 29  1  0
  1 30  1  0
  2 31  1  0
  2 32  1  0
  3 33  1  0
  3 34  1  0
  4 35  1  6
  5 36  1  0
  8 37  1  0
  8 38  1  0
  9 39  1  0
 13 40  1  0
 14 41  1  0
 16 42  1  0
 17 43  1  0
 18 44  1  0
 19 45  1  0
 23 46  1  0
 24 47  1  0
 25 48  1  0
 26 49  1  0
 27 50  1  0
M  END
>  <smiles>  (21) 
CCC[C@H](NC(=O)CNC(=O)c1ccc2ccccc2n1)c1ccccc1

>  <score_type>  (21) 
oracle

>  <origin>  (21) 
autodockgpu

>  <m_score__min__energy>  (21) 
-8.8900000000000006

>  <m_primary>  (21) 
energy

>  <rmsd>  (21) 
4.049932185840548

>  <m_score__min__rmsd>  (21) 
4.049932185840548

>  <meeko>  (21) 
{"free_energy": -8.36, "intermolecular_energy": -10.45, "internal_energy": -1.8, "cluster_size": 43, "cluster_id": 1, "rank_in_cluster": 18}

>  <energy>  (21) 
-8.34

>  <cluster_rmsd>  (21) 
1.71

>  <cluster>  (21) 
1

$$$$

     RDKit          3D

 50 52  0  0  0  0  0  0  0  0999 V2000
  142.3350   80.9130  223.8600 C   0  0  0  0  0  0  0  0  0  0  0  0
  141.3630   79.7670  223.8390 C   0  0  0  0  0  0  0  0  0  0  0  0
  141.8210   78.5610  223.1080 C   0  0  0  0  0  0  0  0  0  0  0  0
  141.1100   78.2010  221.8530 C   0  0  2  0  0  0  0  0  0  0  0  0
  141.3340   76.8670  221.4250 N   0  0  0  0  0  0  0  0  0  0  0  0
  140.2680   75.9140  221.6420 C   0  0  0  0  0  0  0  0  0  0  0  0
  139.1840   76.2550  222.1900 O   0  0  0  0  0  0  0  0  0  0  0  0
  140.4330   74.4940  221.2180 C   0  0  0  0  0  0  0  0  0  0  0  0
  140.1290   73.6600  222.3460 N   0  0  0  0  0  0  0  0  0  0  0  0
  140.6930   72.3600  222.4380 C   0  0  0  0  0  0  0  0  0  0  0  0
  141.4630   71.8640  221.5840 O   0  0  0  0  0  0  0  0  0  0  0  0
  140.3480   71.5510  223.6130 C   0  0  0  0  0  0  0  0  0  0  0  0
  139.5900   70.3950  223.4920 C   0  0  0  0  0  0  0  0  0  0  0  0
  139.2520   69.6190  224.5730 C   0  0  0  0  0  0  0  0  0  0  0  0
  139.6830   70.0080  225.8200 C   0  0  0  0  0  0  0  0  0  0  0  0
  139.3590   69.2490  226.9360 C   0  0  0  0  0  0  0  0  0  0  0  0
  139.8140   69.6740  228.1820 C   0  0  0  0  0  0  0  0  0  0  0  0
  140.5660   70.8230  228.2970 C   0  0  0  0  0  0  0  0  0  0  0  0
  140.8910   71.5830  227.1960 C   0  0  0  0  0  0  0  0  0  0  0  0
  140.4380   71.1590  225.9520 C   0  0  0  0  0  0  0  0  0  0  0  0
  140.7390   71.8790  224.8580 N   0  0  0  0  0  0  0  0  0  0  0  0
  141.3670   79.2080  220.7870 C   0  0  0  0  0  0  0  0  0  0  0  0
  142.0330   78.9180  219.6180 C   0  0  0  0  0  0  0  0  0  0  0  0
  142.2360   79.9030  218.6710 C   0  0  0  0  0  0  0  0  0  0  0  0
  141.7960   81.2030  218.8320 C   0  0  0  0  0  0  0  0  0  0  0  0
  141.1290   81.4910  220.0030 C   0  0  0  0  0  0  0  0  0  0  0  0
  140.9220   80.5010  220.9620 C   0  0  0  0  0  0  0  0  0  0  0  0
  142.5628   81.1816  224.9021 H   0  0  0  0  0  0  0  0  0  0  0  0
  143.2618   80.6172  223.3466 H   0  0  0  0  0  0  0  0  0  0  0  0
  141.8919   81.7791  223.3466 H   0  0  0  0  0  0  0  0  0  0  0  0
  141.1581   79.4761  224.8799 H   0  0  0  0  0  0  0  0  0  0  0  0
  140.4756   80.1306  223.3001 H   0  0  0  0  0  0  0  0  0  0  0  0
  142.8801   78.7140  222.8531 H   0  0  0  0  0  0  0  0  0  0  0  0
  141.6145   77.7258  223.7934 H   0  0  0  0  0  0  0  0  0  0  0  0
  140.0348   78.2298  222.0837 H   0  0  0  0  0  0  0  0  0  0  0  0
  142.1710   76.4780  220.9550 H   0  0  0  0  0  0  0  0  0  0  0  0
  139.7449   74.2686  220.3900 H   0  0  0  0  0  0  0  0  0  0  0  0
  141.4619   74.3135  220.8735 H   0  0  0  0  0  0  0  0  0  0  0  0
  139.4880   74.0210  223.0930 H   0  0  0  0  0  0  0  0  0  0  0  0
  139.2471   70.0889  222.4926 H   0  0  0  0  0  0  0  0  0  0  0  0
  138.6503   68.7071  224.4448 H   0  0  0  0  0  0  0  0  0  0  0  0
  138.7571   68.3334  226.8388 H   0  0  0  0  0  0  0  0  0  0  0  0
  139.5713   69.0881  229.0808 H   0  0  0  0  0  0  0  0  0  0  0  0
  140.9145   71.1401  229.2910 H   0  0  0  0  0  0  0  0  0  0  0  0
  141.4916   72.4990  227.2977 H   0  0  0  0  0  0  0  0  0  0  0  0
  142.4048   77.8987  219.4372 H   0  0  0  0  0  0  0  0  0  0  0  0
  142.7721   79.6407  217.7470 H   0  0  0  0  0  0  0  0  0  0  0  0
  141.9697   81.9703  218.0632 H   0  0  0  0  0  0  0  0  0  0  0  0
  140.7569   82.5105  220.1823 H   0  0  0  0  0  0  0  0  0  0  0  0
  140.3867   80.7595  221.8876 H   0  0  0  0  0  0  0  0  0  0  0  0
  1  2  1  0
  2  3  1  0
  3  4  1  0
  4  5  1  0
  5  6  1  0
  6  7  2  0
  6  8  1  0
  8  9  1  0
  9 10  1  0
 10 11  2  0
 10 12  1  0
 12 13  2  0
 13 14  1  0
 14 15  2  0
 15 16  1  0
 16 17  2  0
 17 18  1  0
 18 19  2  0
 19 20  1  0
 20 21  2  0
  4 22  1  0
 22 23  2  0
 23 24  1  0
 24 25  2  0
 25 26  1  0
 26 27  2  0
 21 12  1  0
 27 22  1  0
 20 15  1  0
  1 28  1  0
  1 29  1  0
  1 30  1  0
  2 31  1  0
  2 32  1  0
  3 33  1  0
  3 34  1  0
  4 35  1  1
  5 36  1  0
  8 37  1  0
  8 38  1  0
  9 39  1  0
 13 40  1  0
 14 41  1  0
 16 42  1  0
 17 43  1  0
 18 44  1  0
 19 45  1  0
 23 46  1  0
 24 47  1  0
 25 48  1  0
 26 49  1  0
 27 50  1  0
M  END
>  <smiles>  (22) 
CCC[C@H](NC(=O)CNC(=O)c1ccc2ccccc2n1)c1ccccc1

>  <score_type>  (22) 
oracle

>  <origin>  (22) 
autodockgpu

>  <m_score__min__energy>  (22) 
-8.8900000000000006

>  <m_primary>  (22) 
energy

>  <rmsd>  (22) 
3.6351344058032584

>  <m_score__min__rmsd>  (22) 
3.6351344058032584

>  <meeko>  (22) 
{"free_energy": -8.56, "intermolecular_energy": -10.65, "internal_energy": -1.37, "cluster_size": 43, "cluster_id": 1, "rank_in_cluster": 12}

>  <energy>  (22) 
-8.33

>  <cluster_rmsd>  (22) 
0.84

>  <cluster>  (22) 
1

$$$$

     RDKit          3D

 50 52  0  0  0  0  0  0  0  0999 V2000
  137.9600   79.8250  223.4450 C   0  0  0  0  0  0  0  0  0  0  0  0
  137.9480   79.5820  221.9620 C   0  0  0  0  0  0  0  0  0  0  0  0
  138.4090   78.2390  221.5370 C   0  0  0  0  0  0  0  0  0  0  0  0
  139.7710   78.1270  220.9510 C   0  0  2  0  0  0  0  0  0  0  0  0
  140.1290   76.8100  220.5670 N   0  0  0  0  0  0  0  0  0  0  0  0
  139.8170   75.7420  221.4920 C   0  0  0  0  0  0  0  0  0  0  0  0
  139.2500   75.9740  222.5950 O   0  0  0  0  0  0  0  0  0  0  0  0
  140.1650   74.3320  221.1550 C   0  0  0  0  0  0  0  0  0  0  0  0
  139.9980   73.5420  222.3420 N   0  0  0  0  0  0  0  0  0  0  0  0
  140.4690   72.2030  222.3720 C   0  0  0  0  0  0  0  0  0  0  0  0
  141.0400   71.6340  221.4130 O   0  0  0  0  0  0  0  0  0  0  0  0
  140.2730   71.4420  223.6110 C   0  0  0  0  0  0  0  0  0  0  0  0
  139.6230   70.2160  223.6060 C   0  0  0  0  0  0  0  0  0  0  0  0
  139.4240   69.4820  224.7500 C   0  0  0  0  0  0  0  0  0  0  0  0
  139.8890   69.9870  225.9420 C   0  0  0  0  0  0  0  0  0  0  0  0
  139.7050   69.2740  227.1180 C   0  0  0  0  0  0  0  0  0  0  0  0
  140.1900   69.8170  228.3060 C   0  0  0  0  0  0  0  0  0  0  0  0
  140.8350   71.0350  228.3060 C   0  0  0  0  0  0  0  0  0  0  0  0
  141.0210   71.7490  227.1440 C   0  0  0  0  0  0  0  0  0  0  0  0
  140.5380   71.2080  225.9590 C   0  0  0  0  0  0  0  0  0  0  0  0
  140.7040   71.8820  224.8080 N   0  0  0  0  0  0  0  0  0  0  0  0
  140.7830   78.7750  221.8300 C   0  0  0  0  0  0  0  0  0  0  0  0
  141.6010   79.8020  221.4140 C   0  0  0  0  0  0  0  0  0  0  0  0
  142.5180   80.3560  222.2850 C   0  0  0  0  0  0  0  0  0  0  0  0
  142.6690   79.9310  223.5900 C   0  0  0  0  0  0  0  0  0  0  0  0
  141.8490   78.9030  224.0060 C   0  0  0  0  0  0  0  0  0  0  0  0
  140.9220   78.3390  223.1310 C   0  0  0  0  0  0  0  0  0  0  0  0
  137.9124   78.8621  223.9747 H   0  0  0  0  0  0  0  0  0  0  0  0
  138.8852   80.3510  223.7229 H   0  0  0  0  0  0  0  0  0  0  0  0
  137.0911   80.4397  223.7229 H   0  0  0  0  0  0  0  0  0  0  0  0
  136.9167   79.7165  221.6038 H   0  0  0  0  0  0  0  0  0  0  0  0
  138.6613   80.2995  221.5302 H   0  0  0  0  0  0  0  0  0  0  0  0
  138.3778   77.5862  222.4218 H   0  0  0  0  0  0  0  0  0  0  0  0
  137.7308   77.9599  220.7172 H   0  0  0  0  0  0  0  0  0  0  0  0
  139.7494   78.6832  220.0022 H   0  0  0  0  0  0  0  0  0  0  0  0
  140.5810   76.5000  219.6880 H   0  0  0  0  0  0  0  0  0  0  0  0
  139.4984   73.9615  220.3623 H   0  0  0  0  0  0  0  0  0  0  0  0
  141.2023   74.2684  220.7944 H   0  0  0  0  0  0  0  0  0  0  0  0
  139.5260   73.9650  223.1770 H   0  0  0  0  0  0  0  0  0  0  0  0
  139.2532   69.8169  222.6500 H   0  0  0  0  0  0  0  0  0  0  0  0
  138.9048   68.5129  224.7137 H   0  0  0  0  0  0  0  0  0  0  0  0
  139.1884   68.3029  227.1126 H   0  0  0  0  0  0  0  0  0  0  0  0
  140.0571   69.2696  229.2508 H   0  0  0  0  0  0  0  0  0  0  0  0
  141.2094   71.4455  229.2554 H   0  0  0  0  0  0  0  0  0  0  0  0
  141.5373   72.7202  227.1533 H   0  0  0  0  0  0  0  0  0  0  0  0
  141.5235   80.1821  220.3847 H   0  0  0  0  0  0  0  0  0  0  0  0
  143.1580   81.1739  221.9224 H   0  0  0  0  0  0  0  0  0  0  0  0
  143.4069   80.3897  224.2646 H   0  0  0  0  0  0  0  0  0  0  0  0
  141.9271   78.5253  225.0362 H   0  0  0  0  0  0  0  0  0  0  0  0
  140.2810   77.5202  223.4896 H   0  0  0  0  0  0  0  0  0  0  0  0
  1  2  1  0
  2  3  1  0
  3  4  1  0
  4  5  1  0
  5  6  1  0
  6  7  2  0
  6  8  1  0
  8  9  1  0
  9 10  1  0
 10 11  2  0
 10 12  1  0
 12 13  2  0
 13 14  1  0
 14 15  2  0
 15 16  1  0
 16 17  2  0
 17 18  1  0
 18 19  2  0
 19 20  1  0
 20 21  2  0
  4 22  1  0
 22 23  2  0
 23 24  1  0
 24 25  2  0
 25 26  1  0
 26 27  2  0
 21 12  1  0
 27 22  1  0
 20 15  1  0
  1 28  1  0
  1 29  1  0
  1 30  1  0
  2 31  1  0
  2 32  1  0
  3 33  1  0
  3 34  1  0
  4 35  1  6
  5 36  1  0
  8 37  1  0
  8 38  1  0
  9 39  1  0
 13 40  1  0
 14 41  1  0
 16 42  1  0
 17 43  1  0
 18 44  1  0
 19 45  1  0
 23 46  1  0
 24 47  1  0
 25 48  1  0
 26 49  1  0
 27 50  1  0
M  END
>  <smiles>  (23) 
CCC[C@H](NC(=O)CNC(=O)c1ccc2ccccc2n1)c1ccccc1

>  <score_type>  (23) 
oracle

>  <origin>  (23) 
autodockgpu

>  <m_score__min__energy>  (23) 
-8.8900000000000006

>  <m_primary>  (23) 
energy

>  <rmsd>  (23) 
4.311348276444331

>  <m_score__min__rmsd>  (23) 
4.311348276444331

>  <meeko>  (23) 
{"free_energy": -8.28, "intermolecular_energy": -10.37, "internal_energy": -1.76, "cluster_size": 43, "cluster_id": 1, "rank_in_cluster": 31}

>  <energy>  (23) 
-8.32

>  <cluster_rmsd>  (23) 
1.39

>  <cluster>  (23) 
1

$$$$

     RDKit          3D

 50 52  0  0  0  0  0  0  0  0999 V2000
  140.5000   71.2470  228.3380 C   0  0  0  0  0  0  0  0  0  0  0  0
  140.8320   72.2660  227.2830 C   0  0  0  0  0  0  0  0  0  0  0  0
  141.6660   71.7690  226.1630 C   0  0  0  0  0  0  0  0  0  0  0  0
  140.9880   71.0140  225.0770 C   0  0  2  0  0  0  0  0  0  0  0  0
  139.9690   71.7460  224.4140 N   0  0  0  0  0  0  0  0  0  0  0  0
  140.2660   72.2440  223.0890 C   0  0  0  0  0  0  0  0  0  0  0  0
  141.3860   72.0370  222.5460 O   0  0  0  0  0  0  0  0  0  0  0  0
  139.2430   73.0220  222.3330 C   0  0  0  0  0  0  0  0  0  0  0  0
  139.6620   74.3950  222.3110 N   0  0  0  0  0  0  0  0  0  0  0  0
  140.6950   74.8050  221.4280 C   0  0  0  0  0  0  0  0  0  0  0  0
  141.2920   74.0390  220.6370 O   0  0  0  0  0  0  0  0  0  0  0  0
  141.0820   76.2200  221.4470 C   0  0  0  0  0  0  0  0  0  0  0  0
  141.4660   76.8760  220.2860 C   0  0  0  0  0  0  0  0  0  0  0  0
  141.8340   78.1990  220.2740 C   0  0  0  0  0  0  0  0  0  0  0  0
  141.8190   78.8950  221.4600 C   0  0  0  0  0  0  0  0  0  0  0  0
  142.1860   80.2330  221.4860 C   0  0  0  0  0  0  0  0  0  0  0  0
  142.1580   80.9050  222.7060 C   0  0  0  0  0  0  0  0  0  0  0  0
  141.7750   80.2490  223.8570 C   0  0  0  0  0  0  0  0  0  0  0  0
  141.4110   78.9220  223.8400 C   0  0  0  0  0  0  0  0  0  0  0  0
  141.4390   78.2510  222.6240 C   0  0  0  0  0  0  0  0  0  0  0  0
  141.0880   76.9550  222.5750 N   0  0  0  0  0  0  0  0  0  0  0  0
  140.5310   69.6810  225.5580 C   0  0  0  0  0  0  0  0  0  0  0  0
  139.2400   69.2270  225.4150 C   0  0  0  0  0  0  0  0  0  0  0  0
  138.8870   67.9770  225.8870 C   0  0  0  0  0  0  0  0  0  0  0  0
  139.7800   67.1290  226.5120 C   0  0  0  0  0  0  0  0  0  0  0  0
  141.0730   67.5860  226.6550 C   0  0  0  0  0  0  0  0  0  0  0  0
  141.4350   68.8460  226.1820 C   0  0  0  0  0  0  0  0  0  0  0  0
  140.6444   71.6903  229.3343 H   0  0  0  0  0  0  0  0  0  0  0  0
  139.4524   70.9309  228.2257 H   0  0  0  0  0  0  0  0  0  0  0  0
  141.1603   70.3744  228.2257 H   0  0  0  0  0  0  0  0  0  0  0  0
  139.8869   72.6406  226.8629 H   0  0  0  0  0  0  0  0  0  0  0  0
  141.4285   73.0414  227.7859 H   0  0  0  0  0  0  0  0  0  0  0  0
  142.1511   72.6422  225.7023 H   0  0  0  0  0  0  0  0  0  0  0  0
  142.3456   71.0385  226.6262 H   0  0  0  0  0  0  0  0  0  0  0  0
  141.7445   70.8430  224.2970 H   0  0  0  0  0  0  0  0  0  0  0  0
  139.0150   71.9640  224.7530 H   0  0  0  0  0  0  0  0  0  0  0  0
  139.1656   72.6381  221.3051 H   0  0  0  0  0  0  0  0  0  0  0  0
  138.2579   72.9291  222.8136 H   0  0  0  0  0  0  0  0  0  0  0  0
  139.1980   75.0820  222.9520 H   0  0  0  0  0  0  0  0  0  0  0  0
  141.4760   76.3152  219.3397 H   0  0  0  0  0  0  0  0  0  0  0  0
  142.1340   78.6909  219.3370 H   0  0  0  0  0  0  0  0  0  0  0  0
  142.4918   80.7508  220.5650 H   0  0  0  0  0  0  0  0  0  0  0  0
  142.4434   81.9663  222.7515 H   0  0  0  0  0  0  0  0  0  0  0  0
  141.7601   80.7986  224.8097 H   0  0  0  0  0  0  0  0  0  0  0  0
  141.1065   78.4072  224.7632 H   0  0  0  0  0  0  0  0  0  0  0  0
  138.4869   69.8606  224.9237 H   0  0  0  0  0  0  0  0  0  0  0  0
  137.8470   67.6422  225.7590 H   0  0  0  0  0  0  0  0  0  0  0  0
  139.4747   66.1375  226.8778 H   0  0  0  0  0  0  0  0  0  0  0  0
  141.8249   66.9510  227.1464 H   0  0  0  0  0  0  0  0  0  0  0  0
  142.4735   69.1853  226.3101 H   0  0  0  0  0  0  0  0  0  0  0  0
  1  2  1  0
  2  3  1  0
  3  4  1  0
  4  5  1  0
  5  6  1  0
  6  7  2  0
  6  8  1  0
  8  9  1  0
  9 10  1  0
 10 11  2  0
 10 12  1  0
 12 13  2  0
 13 14  1  0
 14 15  2  0
 15 16  1  0
 16 17  2  0
 17 18  1  0
 18 19  2  0
 19 20  1  0
 20 21  2  0
  4 22  1  0
 22 23  2  0
 23 24  1  0
 24 25  2  0
 25 26  1  0
 26 27  2  0
 21 12  1  0
 27 22  1  0
 20 15  1  0
  1 28  1  0
  1 29  1  0
  1 30  1  0
  2 31  1  0
  2 32  1  0
  3 33  1  0
  3 34  1  0
  4 35  1  6
  5 36  1  0
  8 37  1  0
  8 38  1  0
  9 39  1  0
 13 40  1  0
 14 41  1  0
 16 42  1  0
 17 43  1  0
 18 44  1  0
 19 45  1  0
 23 46  1  0
 24 47  1  0
 25 48  1  0
 26 49  1  0
 27 50  1  0
M  END
>  <smiles>  (24) 
CCC[C@H](NC(=O)CNC(=O)c1ccc2ccccc2n1)c1ccccc1

>  <score_type>  (24) 
oracle

>  <origin>  (24) 
autodockgpu

>  <m_score__min__energy>  (24) 
-8.8900000000000006

>  <m_primary>  (24) 
energy

>  <rmsd>  (24) 
10.469401643370075

>  <m_score__min__rmsd>  (24) 
10.469401643370075

>  <meeko>  (24) 
{"free_energy": -8.77, "intermolecular_energy": -10.85, "internal_energy": -1.39, "cluster_size": 1, "cluster_id": 2, "rank_in_cluster": 1}

>  <energy>  (24) 
-8.31

>  <cluster_rmsd>  (24) 
0.79

>  <cluster>  (24) 
1

$$$$

     RDKit          3D

 50 52  0  0  0  0  0  0  0  0999 V2000
  138.2260   80.0670  223.5700 C   0  0  0  0  0  0  0  0  0  0  0  0
  137.9650   79.6710  222.1440 C   0  0  0  0  0  0  0  0  0  0  0  0
  138.4290   78.3140  221.7680 C   0  0  0  0  0  0  0  0  0  0  0  0
  139.7380   78.1980  221.0730 C   0  0  2  0  0  0  0  0  0  0  0  0
  140.0450   76.8840  220.6370 N   0  0  0  0  0  0  0  0  0  0  0  0
  139.8590   75.8090  221.5870 C   0  0  0  0  0  0  0  0  0  0  0  0
  139.4410   76.0330  222.7560 O   0  0  0  0  0  0  0  0  0  0  0  0
  140.1630   74.4030  221.1980 C   0  0  0  0  0  0  0  0  0  0  0  0
  139.9270   73.5690  222.3420 N   0  0  0  0  0  0  0  0  0  0  0  0
  140.6120   72.3320  222.4700 C   0  0  0  0  0  0  0  0  0  0  0  0
  141.4360   71.8930  221.6350 O   0  0  0  0  0  0  0  0  0  0  0  0
  140.3320   71.5200  223.6600 C   0  0  0  0  0  0  0  0  0  0  0  0
  139.6160   70.3360  223.5700 C   0  0  0  0  0  0  0  0  0  0  0  0
  139.3390   69.5560  224.6660 C   0  0  0  0  0  0  0  0  0  0  0  0
  139.7920   69.9710  225.8970 C   0  0  0  0  0  0  0  0  0  0  0  0
  139.5310   69.2100  227.0280 C   0  0  0  0  0  0  0  0  0  0  0  0
  140.0060   69.6620  228.2570 C   0  0  0  0  0  0  0  0  0  0  0  0
  140.7170   70.8400  228.3410 C   0  0  0  0  0  0  0  0  0  0  0  0
  140.9810   71.6020  227.2250 C   0  0  0  0  0  0  0  0  0  0  0  0
  140.5070   71.1510  225.9990 C   0  0  0  0  0  0  0  0  0  0  0  0
  140.7480   71.8720  224.8910 N   0  0  0  0  0  0  0  0  0  0  0  0
  140.8260   78.8160  221.8800 C   0  0  0  0  0  0  0  0  0  0  0  0
  141.1660   78.3900  223.1440 C   0  0  0  0  0  0  0  0  0  0  0  0
  142.1880   79.0100  223.8350 C   0  0  0  0  0  0  0  0  0  0  0  0
  142.9140   80.0660  223.3170 C   0  0  0  0  0  0  0  0  0  0  0  0
  142.5720   80.4910  222.0510 C   0  0  0  0  0  0  0  0  0  0  0  0
  141.5410   79.8690  221.3490 C   0  0  0  0  0  0  0  0  0  0  0  0
  137.7481   79.3419  224.2452 H   0  0  0  0  0  0  0  0  0  0  0  0
  139.3104   80.0802  223.7543 H   0  0  0  0  0  0  0  0  0  0  0  0
  137.8105   81.0687  223.7543 H   0  0  0  0  0  0  0  0  0  0  0  0
  136.8797   79.7190  221.9712 H   0  0  0  0  0  0  0  0  0  0  0  0
  138.5417   80.3724  221.5232 H   0  0  0  0  0  0  0  0  0  0  0  0
  138.4945   77.7216  222.6925 H   0  0  0  0  0  0  0  0  0  0  0  0
  137.6916   77.9628  221.0312 H   0  0  0  0  0  0  0  0  0  0  0  0
  139.6494   78.7741  220.1401 H   0  0  0  0  0  0  0  0  0  0  0  0
  140.3800   76.5810  219.7040 H   0  0  0  0  0  0  0  0  0  0  0  0
  139.5089   74.0946  220.3691 H   0  0  0  0  0  0  0  0  0  0  0  0
  141.2083   74.3139  220.8674 H   0  0  0  0  0  0  0  0  0  0  0  0
  139.2460   73.8840  223.0740 H   0  0  0  0  0  0  0  0  0  0  0  0
  139.2561   70.0090  222.5833 H   0  0  0  0  0  0  0  0  0  0  0  0
  138.7683   68.6214  224.5620 H   0  0  0  0  0  0  0  0  0  0  0  0
  138.9621   68.2714  226.9555 H   0  0  0  0  0  0  0  0  0  0  0  0
  139.8124   69.0748  229.1668 H   0  0  0  0  0  0  0  0  0  0  0  0
  141.0817   71.1789  229.3219 H   0  0  0  0  0  0  0  0  0  0  0  0
  141.5503   72.5401  227.3016 H   0  0  0  0  0  0  0  0  0  0  0  0
  140.6216   77.5528  223.6052 H   0  0  0  0  0  0  0  0  0  0  0  0
  142.4357   78.6471  224.8435 H   0  0  0  0  0  0  0  0  0  0  0  0
  143.7246   80.5437  223.8868 H   0  0  0  0  0  0  0  0  0  0  0  0
  143.1174   81.3281  221.5909 H   0  0  0  0  0  0  0  0  0  0  0  0
  141.2899   80.2291  220.3404 H   0  0  0  0  0  0  0  0  0  0  0  0
  1  2  1  0
  2  3  1  0
  3  4  1  0
  4  5  1  0
  5  6  1  0
  6  7  2  0
  6  8  1  0
  8  9  1  0
  9 10  1  0
 10 11  2  0
 10 12  1  0
 12 13  2  0
 13 14  1  0
 14 15  2  0
 15 16  1  0
 16 17  2  0
 17 18  1  0
 18 19  2  0
 19 20  1  0
 20 21  2  0
  4 22  1  0
 22 23  2  0
 23 24  1  0
 24 25  2  0
 25 26  1  0
 26 27  2  0
 21 12  1  0
 27 22  1  0
 20 15  1  0
  1 28  1  0
  1 29  1  0
  1 30  1  0
  2 31  1  0
  2 32  1  0
  3 33  1  0
  3 34  1  0
  4 35  1  6
  5 36  1  0
  8 37  1  0
  8 38  1  0
  9 39  1  0
 13 40  1  0
 14 41  1  0
 16 42  1  0
 17 43  1  0
 18 44  1  0
 19 45  1  0
 23 46  1  0
 24 47  1  0
 25 48  1  0
 26 49  1  0
 27 50  1  0
M  END
>  <smiles>  (25) 
CCC[C@H](NC(=O)CNC(=O)c1ccc2ccccc2n1)c1ccccc1

>  <score_type>  (25) 
oracle

>  <origin>  (25) 
autodockgpu

>  <m_score__min__energy>  (25) 
-8.8900000000000006

>  <m_primary>  (25) 
energy

>  <rmsd>  (25) 
4.055501428099108

>  <m_score__min__rmsd>  (25) 
4.055501428099108

>  <meeko>  (25) 
{"free_energy": -8.39, "intermolecular_energy": -10.48, "internal_energy": -1.75, "cluster_size": 43, "cluster_id": 1, "rank_in_cluster": 15}

>  <energy>  (25) 
-8.31

>  <cluster_rmsd>  (25) 
1.6

>  <cluster>  (25) 
1

$$$$

     RDKit          3D

 50 52  0  0  0  0  0  0  0  0999 V2000
  143.4050   75.9080  219.3580 C   0  0  0  0  0  0  0  0  0  0  0  0
  142.9110   77.1850  218.7380 C   0  0  0  0  0  0  0  0  0  0  0  0
  141.9700   77.9710  219.5710 C   0  0  0  0  0  0  0  0  0  0  0  0
  141.4740   77.3510  220.8280 C   0  0  2  0  0  0  0  0  0  0  0  0
  140.3620   76.4900  220.6480 N   0  0  0  0  0  0  0  0  0  0  0  0
  140.4180   75.1920  221.2850 C   0  0  0  0  0  0  0  0  0  0  0  0
  141.4150   74.8420  221.9730 O   0  0  0  0  0  0  0  0  0  0  0  0
  139.2840   74.2350  221.1380 C   0  0  0  0  0  0  0  0  0  0  0  0
  139.2470   73.4130  222.3140 N   0  0  0  0  0  0  0  0  0  0  0  0
  140.0890   72.2730  222.4080 C   0  0  0  0  0  0  0  0  0  0  0  0
  140.8910   71.9140  221.5160 O   0  0  0  0  0  0  0  0  0  0  0  0
  140.0100   71.4700  223.6330 C   0  0  0  0  0  0  0  0  0  0  0  0
  139.4010   70.2230  223.6370 C   0  0  0  0  0  0  0  0  0  0  0  0
  139.3120   69.4500  224.7680 C   0  0  0  0  0  0  0  0  0  0  0  0
  139.8480   69.9350  225.9380 C   0  0  0  0  0  0  0  0  0  0  0  0
  139.7760   69.1820  227.1020 C   0  0  0  0  0  0  0  0  0  0  0  0
  140.3300   69.7050  228.2670 C   0  0  0  0  0  0  0  0  0  0  0  0
  140.9340   70.9450  228.2580 C   0  0  0  0  0  0  0  0  0  0  0  0
  141.0090   71.6990  227.1100 C   0  0  0  0  0  0  0  0  0  0  0  0
  140.4560   71.1770  225.9460 C   0  0  0  0  0  0  0  0  0  0  0  0
  140.5150   71.8890  224.8090 N   0  0  0  0  0  0  0  0  0  0  0  0
  141.2510   78.3820  221.8780 C   0  0  0  0  0  0  0  0  0  0  0  0
  140.1400   78.4060  222.6900 C   0  0  0  0  0  0  0  0  0  0  0  0
  139.9990   79.3940  223.6460 C   0  0  0  0  0  0  0  0  0  0  0  0
  140.9350   80.3900  223.8420 C   0  0  0  0  0  0  0  0  0  0  0  0
  142.0480   80.3650  223.0270 C   0  0  0  0  0  0  0  0  0  0  0  0
  142.1950   79.3710  222.0620 C   0  0  0  0  0  0  0  0  0  0  0  0
  143.3712   75.9955  220.4540 H   0  0  0  0  0  0  0  0  0  0  0  0
  142.7650   75.0729  219.0369 H   0  0  0  0  0  0  0  0  0  0  0  0
  144.4403   75.7210  219.0369 H   0  0  0  0  0  0  0  0  0  0  0  0
  143.7843   77.8181  218.5224 H   0  0  0  0  0  0  0  0  0  0  0  0
  142.3484   76.8894  217.8401 H   0  0  0  0  0  0  0  0  0  0  0  0
  142.4778   78.9075  219.8451 H   0  0  0  0  0  0  0  0  0  0  0  0
  141.0728   78.0838  218.9446 H   0  0  0  0  0  0  0  0  0  0  0  0
  142.2725   76.6829  221.1830 H   0  0  0  0  0  0  0  0  0  0  0  0
  139.4890   76.6740  220.1200 H   0  0  0  0  0  0  0  0  0  0  0  0
  138.3384   74.7881  221.0384 H   0  0  0  0  0  0  0  0  0  0  0  0
  139.4196   73.6143  220.2400 H   0  0  0  0  0  0  0  0  0  0  0  0
  138.5940   73.6650  223.0940 H   0  0  0  0  0  0  0  0  0  0  0  0
  138.9736   69.8396  222.6987 H   0  0  0  0  0  0  0  0  0  0  0  0
  138.8231   68.4651  224.7391 H   0  0  0  0  0  0  0  0  0  0  0  0
  139.2920   68.1942  227.1037 H   0  0  0  0  0  0  0  0  0  0  0  0
  140.2858   69.1256  229.2010 H   0  0  0  0  0  0  0  0  0  0  0  0
  141.3654   71.3398  229.1897 H   0  0  0  0  0  0  0  0  0  0  0  0
  141.4928   72.6869  227.1128 H   0  0  0  0  0  0  0  0  0  0  0  0
  139.3620   77.6365  222.5777 H   0  0  0  0  0  0  0  0  0  0  0  0
  139.1000   79.3866  224.2798 H   0  0  0  0  0  0  0  0  0  0  0  0
  140.7999   81.1655  224.6103 H   0  0  0  0  0  0  0  0  0  0  0  0
  142.8249   81.1355  223.1400 H   0  0  0  0  0  0  0  0  0  0  0  0
  143.0927   79.3749  221.4263 H   0  0  0  0  0  0  0  0  0  0  0  0
  1  2  1  0
  2  3  1  0
  3  4  1  0
  4  5  1  0
  5  6  1  0
  6  7  2  0
  6  8  1  0
  8  9  1  0
  9 10  1  0
 10 11  2  0
 10 12  1  0
 12 13  2  0
 13 14  1  0
 14 15  2  0
 15 16  1  0
 16 17  2  0
 17 18  1  0
 18 19  2  0
 19 20  1  0
 20 21  2  0
  4 22  1  0
 22 23  2  0
 23 24  1  0
 24 25  2  0
 25 26  1  0
 26 27  2  0
 21 12  1  0
 27 22  1  0
 20 15  1  0
  1 28  1  0
  1 29  1  0
  1 30  1  0
  2 31  1  0
  2 32  1  0
  3 33  1  0
  3 34  1  0
  4 35  1  1
  5 36  1  0
  8 37  1  0
  8 38  1  0
  9 39  1  0
 13 40  1  0
 14 41  1  0
 16 42  1  0
 17 43  1  0
 18 44  1  0
 19 45  1  0
 23 46  1  0
 24 47  1  0
 25 48  1  0
 26 49  1  0
 27 50  1  0
M  END
>  <smiles>  (26) 
CCC[C@H](NC(=O)CNC(=O)c1ccc2ccccc2n1)c1ccccc1

>  <score_type>  (26) 
oracle

>  <origin>  (26) 
autodockgpu

>  <m_score__min__energy>  (26) 
-8.8900000000000006

>  <m_primary>  (26) 
energy

>  <rmsd>  (26) 
3.954338318305622

>  <m_score__min__rmsd>  (26) 
3.954338318305622

>  <meeko>  (26) 
{"free_energy": -8.78, "intermolecular_energy": -10.87, "internal_energy": -1.32, "cluster_size": 43, "cluster_id": 1, "rank_in_cluster": 4}

>  <energy>  (26) 
-8.31

>  <cluster_rmsd>  (26) 
0.83

>  <cluster>  (26) 
1

$$$$

     RDKit          3D

 50 52  0  0  0  0  0  0  0  0999 V2000
  138.2130   80.0960  223.5910 C   0  0  0  0  0  0  0  0  0  0  0  0
  137.9410   79.7020  222.1660 C   0  0  0  0  0  0  0  0  0  0  0  0
  138.4030   78.3450  221.7850 C   0  0  0  0  0  0  0  0  0  0  0  0
  139.7020   78.2320  221.0710 C   0  0  2  0  0  0  0  0  0  0  0  0
  140.0060   76.9180  220.6290 N   0  0  0  0  0  0  0  0  0  0  0  0
  139.8820   75.8490  221.5950 C   0  0  0  0  0  0  0  0  0  0  0  0
  139.5190   76.0760  222.7820 O   0  0  0  0  0  0  0  0  0  0  0  0
  140.1850   74.4440  221.2020 C   0  0  0  0  0  0  0  0  0  0  0  0
  139.9520   73.6060  222.3440 N   0  0  0  0  0  0  0  0  0  0  0  0
  140.5890   72.3410  222.4350 C   0  0  0  0  0  0  0  0  0  0  0  0
  141.3660   71.8780  221.5690 O   0  0  0  0  0  0  0  0  0  0  0  0
  140.3150   71.5270  223.6260 C   0  0  0  0  0  0  0  0  0  0  0  0
  139.6220   70.3290  223.5330 C   0  0  0  0  0  0  0  0  0  0  0  0
  139.3510   69.5470  224.6290 C   0  0  0  0  0  0  0  0  0  0  0  0
  139.7850   69.9740  225.8620 C   0  0  0  0  0  0  0  0  0  0  0  0
  139.5280   69.2110  226.9930 C   0  0  0  0  0  0  0  0  0  0  0  0
  139.9840   69.6750  228.2250 C   0  0  0  0  0  0  0  0  0  0  0  0
  140.6710   70.8670  228.3110 C   0  0  0  0  0  0  0  0  0  0  0  0
  140.9290   71.6310  227.1960 C   0  0  0  0  0  0  0  0  0  0  0  0
  140.4760   71.1680  225.9670 C   0  0  0  0  0  0  0  0  0  0  0  0
  140.7120   71.8910  224.8590 N   0  0  0  0  0  0  0  0  0  0  0  0
  140.8010   78.8510  221.8620 C   0  0  0  0  0  0  0  0  0  0  0  0
  141.1440   78.4400  223.1300 C   0  0  0  0  0  0  0  0  0  0  0  0
  142.1770   79.0610  223.8070 C   0  0  0  0  0  0  0  0  0  0  0  0
  142.9090   80.1020  223.2700 C   0  0  0  0  0  0  0  0  0  0  0  0
  142.5630   80.5130  222.0000 C   0  0  0  0  0  0  0  0  0  0  0  0
  141.5230   79.8900  221.3130 C   0  0  0  0  0  0  0  0  0  0  0  0
  137.7208   79.3831  224.2689 H   0  0  0  0  0  0  0  0  0  0  0  0
  139.2977   80.0863  223.7734 H   0  0  0  0  0  0  0  0  0  0  0  0
  137.8195   81.1069  223.7734 H   0  0  0  0  0  0  0  0  0  0  0  0
  136.8544   79.7498  222.0015 H   0  0  0  0  0  0  0  0  0  0  0  0
  138.5122   80.4046  221.5415 H   0  0  0  0  0  0  0  0  0  0  0  0
  138.4837   77.7540  222.7092 H   0  0  0  0  0  0  0  0  0  0  0  0
  137.6556   77.9905  221.0599 H   0  0  0  0  0  0  0  0  0  0  0  0
  139.5976   78.8090  220.1403 H   0  0  0  0  0  0  0  0  0  0  0  0
  140.2980   76.6140  219.6830 H   0  0  0  0  0  0  0  0  0  0  0  0
  139.5290   74.1379  220.3738 H   0  0  0  0  0  0  0  0  0  0  0  0
  141.2298   74.3562  220.8693 H   0  0  0  0  0  0  0  0  0  0  0  0
  139.3100   73.9410  223.1020 H   0  0  0  0  0  0  0  0  0  0  0  0
  139.2765   69.9927  222.5443 H   0  0  0  0  0  0  0  0  0  0  0  0
  138.7996   68.6011  224.5230 H   0  0  0  0  0  0  0  0  0  0  0  0
  138.9770   68.2619  226.9181 H   0  0  0  0  0  0  0  0  0  0  0  0
  139.7946   69.0865  229.1348 H   0  0  0  0  0  0  0  0  0  0  0  0
  141.0211   71.2155  229.2938 H   0  0  0  0  0  0  0  0  0  0  0  0
  141.4780   72.5809  227.2755 H   0  0  0  0  0  0  0  0  0  0  0  0
  140.5944   77.6147  223.6062 H   0  0  0  0  0  0  0  0  0  0  0  0
  142.4273   78.7103  224.8191 H   0  0  0  0  0  0  0  0  0  0  0  0
  143.7278   80.5797  223.8280 H   0  0  0  0  0  0  0  0  0  0  0  0
  143.1124   81.3394  221.5254 H   0  0  0  0  0  0  0  0  0  0  0  0
  141.2698   80.2379  220.3007 H   0  0  0  0  0  0  0  0  0  0  0  0
  1  2  1  0
  2  3  1  0
  3  4  1  0
  4  5  1  0
  5  6  1  0
  6  7  2  0
  6  8  1  0
  8  9  1  0
  9 10  1  0
 10 11  2  0
 10 12  1  0
 12 13  2  0
 13 14  1  0
 14 15  2  0
 15 16  1  0
 16 17  2  0
 17 18  1  0
 18 19  2  0
 19 20  1  0
 20 21  2  0
  4 22  1  0
 22 23  2  0
 23 24  1  0
 24 25  2  0
 25 26  1  0
 26 27  2  0
 21 12  1  0
 27 22  1  0
 20 15  1  0
  1 28  1  0
  1 29  1  0
  1 30  1  0
  2 31  1  0
  2 32  1  0
  3 33  1  0
  3 34  1  0
  4 35  1  6
  5 36  1  0
  8 37  1  0
  8 38  1  0
  9 39  1  0
 13 40  1  0
 14 41  1  0
 16 42  1  0
 17 43  1  0
 18 44  1  0
 19 45  1  0
 23 46  1  0
 24 47  1  0
 25 48  1  0
 26 49  1  0
 27 50  1  0
M  END
>  <smiles>  (27) 
CCC[C@H](NC(=O)CNC(=O)c1ccc2ccccc2n1)c1ccccc1

>  <score_type>  (27) 
oracle

>  <origin>  (27) 
autodockgpu

>  <m_score__min__energy>  (27) 
-8.8900000000000006

>  <m_primary>  (27) 
energy

>  <rmsd>  (27) 
4.037212884934804

>  <m_score__min__rmsd>  (27) 
4.037212884934804

>  <meeko>  (27) 
{"free_energy": -8.37, "intermolecular_energy": -10.45, "internal_energy": -1.79, "cluster_size": 43, "cluster_id": 1, "rank_in_cluster": 17}

>  <energy>  (27) 
-8.3

>  <cluster_rmsd>  (27) 
0.82

>  <cluster>  (27) 
1

$$$$

     RDKit          3D

 50 52  0  0  0  0  0  0  0  0999 V2000
  136.9040   79.5520  223.2510 C   0  0  0  0  0  0  0  0  0  0  0  0
  138.1190   79.5790  222.3660 C   0  0  0  0  0  0  0  0  0  0  0  0
  138.4200   78.3090  221.6640 C   0  0  0  0  0  0  0  0  0  0  0  0
  139.7400   78.1850  220.9930 C   0  0  2  0  0  0  0  0  0  0  0  0
  140.0540   76.8660  220.5750 N   0  0  0  0  0  0  0  0  0  0  0  0
  139.8970   75.8070  221.5470 C   0  0  0  0  0  0  0  0  0  0  0  0
  139.4960   76.0470  222.7190 O   0  0  0  0  0  0  0  0  0  0  0  0
  140.2090   74.3970  221.1770 C   0  0  0  0  0  0  0  0  0  0  0  0
  139.9740   73.5770  222.3320 N   0  0  0  0  0  0  0  0  0  0  0  0
  140.5830   72.2990  222.4280 C   0  0  0  0  0  0  0  0  0  0  0  0
  141.3370   71.8100  221.5550 O   0  0  0  0  0  0  0  0  0  0  0  0
  140.3080   71.5030  223.6300 C   0  0  0  0  0  0  0  0  0  0  0  0
  139.6210   70.3010  223.5550 C   0  0  0  0  0  0  0  0  0  0  0  0
  139.3500   69.5370  224.6630 C   0  0  0  0  0  0  0  0  0  0  0  0
  139.7780   69.9850  225.8910 C   0  0  0  0  0  0  0  0  0  0  0  0
  139.5210   69.2400  227.0330 C   0  0  0  0  0  0  0  0  0  0  0  0
  139.9700   69.7270  228.2580 C   0  0  0  0  0  0  0  0  0  0  0  0
  140.6530   70.9230  228.3270 C   0  0  0  0  0  0  0  0  0  0  0  0
  140.9110   71.6690  227.2010 C   0  0  0  0  0  0  0  0  0  0  0  0
  140.4630   71.1840  225.9770 C   0  0  0  0  0  0  0  0  0  0  0  0
  140.7010   71.8890  224.8590 N   0  0  0  0  0  0  0  0  0  0  0  0
  140.8150   78.8090  221.8130 C   0  0  0  0  0  0  0  0  0  0  0  0
  141.1230   78.4040  223.0920 C   0  0  0  0  0  0  0  0  0  0  0  0
  142.1340   79.0300  223.7940 C   0  0  0  0  0  0  0  0  0  0  0  0
  142.8800   80.0700  223.2740 C   0  0  0  0  0  0  0  0  0  0  0  0
  142.5690   80.4750  221.9930 C   0  0  0  0  0  0  0  0  0  0  0  0
  141.5500   79.8480  221.2800 C   0  0  0  0  0  0  0  0  0  0  0  0
  137.2180   79.5590  224.3052 H   0  0  0  0  0  0  0  0  0  0  0  0
  136.2825   80.4366  223.0477 H   0  0  0  0  0  0  0  0  0  0  0  0
  136.3225   78.6407  223.0477 H   0  0  0  0  0  0  0  0  0  0  0  0
  137.9685   80.3599  221.6060 H   0  0  0  0  0  0  0  0  0  0  0  0
  138.9748   79.7694  223.0303 H   0  0  0  0  0  0  0  0  0  0  0  0
  138.3516   77.4997  222.4059 H   0  0  0  0  0  0  0  0  0  0  0  0
  137.6872   78.2645  220.8448 H   0  0  0  0  0  0  0  0  0  0  0  0
  139.6671   78.7522  220.0533 H   0  0  0  0  0  0  0  0  0  0  0  0
  140.3750   76.5510  219.6420 H   0  0  0  0  0  0  0  0  0  0  0  0
  139.5585   74.0744  220.3507 H   0  0  0  0  0  0  0  0  0  0  0  0
  141.2555   74.3085  220.8499 H   0  0  0  0  0  0  0  0  0  0  0  0
  139.3500   73.9340  223.0950 H   0  0  0  0  0  0  0  0  0  0  0  0
  139.2804   69.9463  222.5710 H   0  0  0  0  0  0  0  0  0  0  0  0
  138.8026   68.5874  224.5707 H   0  0  0  0  0  0  0  0  0  0  0  0
  138.9753   68.2869  226.9722 H   0  0  0  0  0  0  0  0  0  0  0  0
  139.7785   69.1536  229.1770 H   0  0  0  0  0  0  0  0  0  0  0  0
  140.9993   71.2886  229.3050 H   0  0  0  0  0  0  0  0  0  0  0  0
  141.4562   72.6222  227.2665 H   0  0  0  0  0  0  0  0  0  0  0  0
  140.5622   77.5794  223.5562 H   0  0  0  0  0  0  0  0  0  0  0  0
  142.3556   78.6846  224.8146 H   0  0  0  0  0  0  0  0  0  0  0  0
  143.6821   80.5511  223.8529 H   0  0  0  0  0  0  0  0  0  0  0  0
  143.1304   81.3001  221.5304 H   0  0  0  0  0  0  0  0  0  0  0  0
  141.3241   80.1919  220.2599 H   0  0  0  0  0  0  0  0  0  0  0  0
  1  2  1  0
  2  3  1  0
  3  4  1  0
  4  5  1  0
  5  6  1  0
  6  7  2  0
  6  8  1  0
  8  9  1  0
  9 10  1  0
 10 11  2  0
 10 12  1  0
 12 13  2  0
 13 14  1  0
 14 15  2  0
 15 16  1  0
 16 17  2  0
 17 18  1  0
 18 19  2  0
 19 20  1  0
 20 21  2  0
  4 22  1  0
 22 23  2  0
 23 24  1  0
 24 25  2  0
 25 26  1  0
 26 27  2  0
 21 12  1  0
 27 22  1  0
 20 15  1  0
  1 28  1  0
  1 29  1  0
  1 30  1  0
  2 31  1  0
  2 32  1  0
  3 33  1  0
  3 34  1  0
  4 35  1  6
  5 36  1  0
  8 37  1  0
  8 38  1  0
  9 39  1  0
 13 40  1  0
 14 41  1  0
 16 42  1  0
 17 43  1  0
 18 44  1  0
 19 45  1  0
 23 46  1  0
 24 47  1  0
 25 48  1  0
 26 49  1  0
 27 50  1  0
M  END
>  <smiles>  (28) 
CCC[C@H](NC(=O)CNC(=O)c1ccc2ccccc2n1)c1ccccc1

>  <score_type>  (28) 
oracle

>  <origin>  (28) 
autodockgpu

>  <m_score__min__energy>  (28) 
-8.8900000000000006

>  <m_primary>  (28) 
energy

>  <rmsd>  (28) 
4.05878087339603

>  <m_score__min__rmsd>  (28) 
4.05878087339603

>  <meeko>  (28) 
{"free_energy": -8.28, "intermolecular_energy": -10.37, "internal_energy": -1.75, "cluster_size": 43, "cluster_id": 1, "rank_in_cluster": 32}

>  <energy>  (28) 
-8.3

>  <cluster_rmsd>  (28) 
1.61

>  <cluster>  (28) 
1

$$$$

     RDKit          3D

 50 52  0  0  0  0  0  0  0  0999 V2000
  143.3310   76.3960  218.9680 C   0  0  0  0  0  0  0  0  0  0  0  0
  142.4350   77.4740  218.4260 C   0  0  0  0  0  0  0  0  0  0  0  0
  141.2350   77.7710  219.2440 C   0  0  0  0  0  0  0  0  0  0  0  0
  141.0560   77.0150  220.5110 C   0  0  2  0  0  0  0  0  0  0  0  0
  140.1120   75.9600  220.4260 N   0  0  0  0  0  0  0  0  0  0  0  0
  140.1930   74.9160  221.4230 C   0  0  0  0  0  0  0  0  0  0  0  0
  141.0670   74.9430  222.3320 O   0  0  0  0  0  0  0  0  0  0  0  0
  139.2330   73.7750  221.3950 C   0  0  0  0  0  0  0  0  0  0  0  0
  139.4560   72.9820  222.5710 N   0  0  0  0  0  0  0  0  0  0  0  0
  139.1820   71.5900  222.5480 C   0  0  0  0  0  0  0  0  0  0  0  0
  138.7450   70.9730  221.5490 O   0  0  0  0  0  0  0  0  0  0  0  0
  139.4290   70.8290  223.7780 C   0  0  0  0  0  0  0  0  0  0  0  0
  139.0780   69.4900  223.8780 C   0  0  0  0  0  0  0  0  0  0  0  0
  139.2970   68.7540  225.0160 C   0  0  0  0  0  0  0  0  0  0  0  0
  139.8860   69.3710  226.0940 C   0  0  0  0  0  0  0  0  0  0  0  0
  140.1210   68.6590  227.2610 C   0  0  0  0  0  0  0  0  0  0  0  0
  140.7200   69.3190  228.3320 C   0  0  0  0  0  0  0  0  0  0  0  0
  141.0660   70.6490  228.2280 C   0  0  0  0  0  0  0  0  0  0  0  0
  140.8360   71.3640  227.0750 C   0  0  0  0  0  0  0  0  0  0  0  0
  140.2390   70.7060  226.0060 C   0  0  0  0  0  0  0  0  0  0  0  0
  140.0010   71.3770  224.8660 N   0  0  0  0  0  0  0  0  0  0  0  0
  140.7990   77.9380  221.6510 C   0  0  0  0  0  0  0  0  0  0  0  0
  141.7910   78.6550  222.2810 C   0  0  0  0  0  0  0  0  0  0  0  0
  141.4790   79.4950  223.3330 C   0  0  0  0  0  0  0  0  0  0  0  0
  140.1920   79.6630  223.8050 C   0  0  0  0  0  0  0  0  0  0  0  0
  139.2000   78.9440  223.1730 C   0  0  0  0  0  0  0  0  0  0  0  0
  139.5090   78.0950  222.1110 C   0  0  0  0  0  0  0  0  0  0  0  0
  143.3105   76.4206  220.0675 H   0  0  0  0  0  0  0  0  0  0  0  0
  142.9784   75.4151  218.6166 H   0  0  0  0  0  0  0  0  0  0  0  0
  144.3598   76.5633  218.6166 H   0  0  0  0  0  0  0  0  0  0  0  0
  143.0266   78.3976  218.3427 H   0  0  0  0  0  0  0  0  0  0  0  0
  142.0607   77.1018  217.4609 H   0  0  0  0  0  0  0  0  0  0  0  0
  141.2699   78.8398  219.5017 H   0  0  0  0  0  0  0  0  0  0  0  0
  140.3872   77.4621  218.6148 H   0  0  0  0  0  0  0  0  0  0  0  0
  142.0102   76.5037  220.7063 H   0  0  0  0  0  0  0  0  0  0  0  0
  139.3470   75.8400  219.7370 H   0  0  0  0  0  0  0  0  0  0  0  0
  138.2007   74.1550  221.3906 H   0  0  0  0  0  0  0  0  0  0  0  0
  139.3844   73.1689  220.4896 H   0  0  0  0  0  0  0  0  0  0  0  0
  139.8200   73.4450  223.4380 H   0  0  0  0  0  0  0  0  0  0  0  0
  138.6067   69.0002  223.0132 H   0  0  0  0  0  0  0  0  0  0  0  0
  139.0075   67.6939  225.0642 H   0  0  0  0  0  0  0  0  0  0  0  0
  139.8410   67.5981  227.3391 H   0  0  0  0  0  0  0  0  0  0  0  0
  140.9181   68.7747  229.2671 H   0  0  0  0  0  0  0  0  0  0  0  0
  141.5368   71.1505  229.0864 H   0  0  0  0  0  0  0  0  0  0  0  0
  141.1164   72.4251  227.0014 H   0  0  0  0  0  0  0  0  0  0  0  0
  142.8344   78.5591  221.9463 H   0  0  0  0  0  0  0  0  0  0  0  0
  142.2928   80.0554  223.8165 H   0  0  0  0  0  0  0  0  0  0  0  0
  139.9693   80.3379  224.6446 H   0  0  0  0  0  0  0  0  0  0  0  0
  138.1571   79.0408  223.5090 H   0  0  0  0  0  0  0  0  0  0  0  0
  138.6980   77.5329  221.6250 H   0  0  0  0  0  0  0  0  0  0  0  0
  1  2  1  0
  2  3  1  0
  3  4  1  0
  4  5  1  0
  5  6  1  0
  6  7  2  0
  6  8  1  0
  8  9  1  0
  9 10  1  0
 10 11  2  0
 10 12  1  0
 12 13  2  0
 13 14  1  0
 14 15  2  0
 15 16  1  0
 16 17  2  0
 17 18  1  0
 18 19  2  0
 19 20  1  0
 20 21  2  0
  4 22  1  0
 22 23  2  0
 23 24  1  0
 24 25  2  0
 25 26  1  0
 26 27  2  0
 21 12  1  0
 27 22  1  0
 20 15  1  0
  1 28  1  0
  1 29  1  0
  1 30  1  0
  2 31  1  0
  2 32  1  0
  3 33  1  0
  3 34  1  0
  4 35  1  1
  5 36  1  0
  8 37  1  0
  8 38  1  0
  9 39  1  0
 13 40  1  0
 14 41  1  0
 16 42  1  0
 17 43  1  0
 18 44  1  0
 19 45  1  0
 23 46  1  0
 24 47  1  0
 25 48  1  0
 26 49  1  0
 27 50  1  0
M  END
>  <smiles>  (29) 
CCC[C@H](NC(=O)CNC(=O)c1ccc2ccccc2n1)c1ccccc1

>  <score_type>  (29) 
oracle

>  <origin>  (29) 
autodockgpu

>  <m_score__min__energy>  (29) 
-8.8900000000000006

>  <m_primary>  (29) 
energy

>  <rmsd>  (29) 
4.392643839228848

>  <m_score__min__rmsd>  (29) 
4.392643839228848

>  <meeko>  (29) 
{"free_energy": -7.84, "intermolecular_energy": -9.92, "internal_energy": -2.08, "cluster_size": 43, "cluster_id": 1, "rank_in_cluster": 43}

>  <energy>  (29) 
-8.29

>  <cluster_rmsd>  (29) 
1.74

>  <cluster>  (29) 
1

$$$$

     RDKit          3D

 50 52  0  0  0  0  0  0  0  0999 V2000
  138.1620   80.0210  223.5240 C   0  0  0  0  0  0  0  0  0  0  0  0
  137.9560   79.6680  222.0770 C   0  0  0  0  0  0  0  0  0  0  0  0
  138.4160   78.3140  221.6850 C   0  0  0  0  0  0  0  0  0  0  0  0
  139.7360   78.2000  221.0110 C   0  0  2  0  0  0  0  0  0  0  0  0
  140.0570   76.8850  220.5880 N   0  0  0  0  0  0  0  0  0  0  0  0
  139.9040   75.8210  221.5550 C   0  0  0  0  0  0  0  0  0  0  0  0
  139.5020   76.0530  222.7280 O   0  0  0  0  0  0  0  0  0  0  0  0
  140.2230   74.4130  221.1800 C   0  0  0  0  0  0  0  0  0  0  0  0
  140.0330   73.5940  222.3430 N   0  0  0  0  0  0  0  0  0  0  0  0
  140.5440   72.2690  222.3660 C   0  0  0  0  0  0  0  0  0  0  0  0
  141.1710   71.7390  221.4210 O   0  0  0  0  0  0  0  0  0  0  0  0
  140.3200   71.4770  223.5810 C   0  0  0  0  0  0  0  0  0  0  0  0
  139.6780   70.2490  223.5290 C   0  0  0  0  0  0  0  0  0  0  0  0
  139.4540   69.4850  224.6490 C   0  0  0  0  0  0  0  0  0  0  0  0
  139.8870   69.9620  225.8640 C   0  0  0  0  0  0  0  0  0  0  0  0
  139.6780   69.2190  227.0180 C   0  0  0  0  0  0  0  0  0  0  0  0
  140.1300   69.7350  228.2300 C   0  0  0  0  0  0  0  0  0  0  0  0
  140.7680   70.9560  228.2760 C   0  0  0  0  0  0  0  0  0  0  0  0
  140.9790   71.7000  227.1380 C   0  0  0  0  0  0  0  0  0  0  0  0
  140.5280   71.1860  225.9280 C   0  0  0  0  0  0  0  0  0  0  0  0
  140.7190   71.8890  224.7990 N   0  0  0  0  0  0  0  0  0  0  0  0
  140.8090   78.8270  221.8320 C   0  0  0  0  0  0  0  0  0  0  0  0
  141.1270   78.4120  223.1060 C   0  0  0  0  0  0  0  0  0  0  0  0
  142.1350   79.0410  223.8100 C   0  0  0  0  0  0  0  0  0  0  0  0
  142.8670   80.0940  223.2970 C   0  0  0  0  0  0  0  0  0  0  0  0
  142.5470   80.5090  222.0210 C   0  0  0  0  0  0  0  0  0  0  0  0
  141.5300   79.8780  221.3070 C   0  0  0  0  0  0  0  0  0  0  0  0
  137.7092   79.2451  224.1588 H   0  0  0  0  0  0  0  0  0  0  0  0
  139.2395   80.0854  223.7359 H   0  0  0  0  0  0  0  0  0  0  0  0
  137.6881   80.9908  223.7359 H   0  0  0  0  0  0  0  0  0  0  0  0
  136.8799   79.7378  221.8597 H   0  0  0  0  0  0  0  0  0  0  0  0
  138.5681   80.3769  221.5001 H   0  0  0  0  0  0  0  0  0  0  0  0
  138.4607   77.7048  222.5998 H   0  0  0  0  0  0  0  0  0  0  0  0
  137.6889   77.9817  220.9294 H   0  0  0  0  0  0  0  0  0  0  0  0
  139.6580   78.7702  220.0735 H   0  0  0  0  0  0  0  0  0  0  0  0
  140.3800   76.5750  219.6530 H   0  0  0  0  0  0  0  0  0  0  0  0
  139.5525   74.0796  220.3742 H   0  0  0  0  0  0  0  0  0  0  0  0
  141.2605   74.3369  220.8225 H   0  0  0  0  0  0  0  0  0  0  0  0
  139.5140   73.9840  223.1650 H   0  0  0  0  0  0  0  0  0  0  0  0
  139.3350   69.8721  222.5542 H   0  0  0  0  0  0  0  0  0  0  0  0
  138.9406   68.5150  224.5755 H   0  0  0  0  0  0  0  0  0  0  0  0
  139.1674   68.2456  226.9760 H   0  0  0  0  0  0  0  0  0  0  0  0
  139.9767   69.1639  229.1575 H   0  0  0  0  0  0  0  0  0  0  0  0
  141.1163   71.3444  229.2444 H   0  0  0  0  0  0  0  0  0  0  0  0
  141.4897   72.6731  227.1845 H   0  0  0  0  0  0  0  0  0  0  0  0
  140.5766   77.5771  223.5642 H   0  0  0  0  0  0  0  0  0  0  0  0
  142.3654   78.6872  224.8257 H   0  0  0  0  0  0  0  0  0  0  0  0
  143.6661   80.5780  223.8776 H   0  0  0  0  0  0  0  0  0  0  0  0
  143.0984   81.3438  221.5638 H   0  0  0  0  0  0  0  0  0  0  0  0
  141.2951   80.2300  220.2917 H   0  0  0  0  0  0  0  0  0  0  0  0
  1  2  1  0
  2  3  1  0
  3  4  1  0
  4  5  1  0
  5  6  1  0
  6  7  2  0
  6  8  1  0
  8  9  1  0
  9 10  1  0
 10 11  2  0
 10 12  1  0
 12 13  2  0
 13 14  1  0
 14 15  2  0
 15 16  1  0
 16 17  2  0
 17 18  1  0
 18 19  2  0
 19 20  1  0
 20 21  2  0
  4 22  1  0
 22 23  2  0
 23 24  1  0
 24 25  2  0
 25 26  1  0
 26 27  2  0
 21 12  1  0
 27 22  1  0
 20 15  1  0
  1 28  1  0
  1 29  1  0
  1 30  1  0
  2 31  1  0
  2 32  1  0
  3 33  1  0
  3 34  1  0
  4 35  1  6
  5 36  1  0
  8 37  1  0
  8 38  1  0
  9 39  1  0
 13 40  1  0
 14 41  1  0
 16 42  1  0
 17 43  1  0
 18 44  1  0
 19 45  1  0
 23 46  1  0
 24 47  1  0
 25 48  1  0
 26 49  1  0
 27 50  1  0
M  END
>  <smiles>  (30) 
CCC[C@H](NC(=O)CNC(=O)c1ccc2ccccc2n1)c1ccccc1

>  <score_type>  (30) 
oracle

>  <origin>  (30) 
autodockgpu

>  <m_score__min__energy>  (30) 
-8.8900000000000006

>  <m_primary>  (30) 
energy

>  <rmsd>  (30) 
4.047364911652323

>  <m_score__min__rmsd>  (30) 
4.047364911652323

>  <meeko>  (30) 
{"free_energy": -8.33, "intermolecular_energy": -10.41, "internal_energy": -1.82, "cluster_size": 43, "cluster_id": 1, "rank_in_cluster": 22}

>  <energy>  (30) 
-8.29

>  <cluster_rmsd>  (30) 
0.84

>  <cluster>  (30) 
1

$$$$

     RDKit          3D

 50 52  0  0  0  0  0  0  0  0999 V2000
  142.1920   80.4370  223.6100 C   0  0  0  0  0  0  0  0  0  0  0  0
  141.0790   79.4690  223.3200 C   0  0  0  0  0  0  0  0  0  0  0  0
  141.4670   78.2740  222.5330 C   0  0  0  0  0  0  0  0  0  0  0  0
  140.8250   78.0800  221.2070 C   0  0  2  0  0  0  0  0  0  0  0  0
  140.8390   76.7370  220.7490 N   0  0  0  0  0  0  0  0  0  0  0  0
  140.2050   75.7450  221.5880 C   0  0  0  0  0  0  0  0  0  0  0  0
  139.6610   76.0600  222.6820 O   0  0  0  0  0  0  0  0  0  0  0  0
  140.1820   74.3130  221.1710 C   0  0  0  0  0  0  0  0  0  0  0  0
  139.9880   73.5150  222.3470 N   0  0  0  0  0  0  0  0  0  0  0  0
  140.4940   72.1890  222.3940 C   0  0  0  0  0  0  0  0  0  0  0  0
  141.1200   71.6400  221.4590 O   0  0  0  0  0  0  0  0  0  0  0  0
  140.2680   71.4190  223.6230 C   0  0  0  0  0  0  0  0  0  0  0  0
  139.5940   70.2060  223.5960 C   0  0  0  0  0  0  0  0  0  0  0  0
  139.3670   69.4640  224.7290 C   0  0  0  0  0  0  0  0  0  0  0  0
  139.8270   69.9460  225.9320 C   0  0  0  0  0  0  0  0  0  0  0  0
  139.6150   69.2240  227.0980 C   0  0  0  0  0  0  0  0  0  0  0  0
  140.0970   69.7440  228.2980 C   0  0  0  0  0  0  0  0  0  0  0  0
  140.7650   70.9500  228.3180 C   0  0  0  0  0  0  0  0  0  0  0  0
  140.9790   71.6730  227.1680 C   0  0  0  0  0  0  0  0  0  0  0  0
  140.5000   71.1550  225.9700 C   0  0  0  0  0  0  0  0  0  0  0  0
  140.6930   71.8370  224.8290 N   0  0  0  0  0  0  0  0  0  0  0  0
  141.3630   79.0440  220.2080 C   0  0  0  0  0  0  0  0  0  0  0  0
  141.2090   80.4080  220.3130 C   0  0  0  0  0  0  0  0  0  0  0  0
  141.7370   81.2430  219.3480 C   0  0  0  0  0  0  0  0  0  0  0  0
  142.4320   80.7780  218.2490 C   0  0  0  0  0  0  0  0  0  0  0  0
  142.5850   79.4120  218.1450 C   0  0  0  0  0  0  0  0  0  0  0  0
  142.0550   78.5640  219.1150 C   0  0  0  0  0  0  0  0  0  0  0  0
  142.3125   80.5418  224.6983 H   0  0  0  0  0  0  0  0  0  0  0  0
  143.1284   80.0610  223.1719 H   0  0  0  0  0  0  0  0  0  0  0  0
  141.9496   81.4164  223.1719 H   0  0  0  0  0  0  0  0  0  0  0  0
  140.6693   79.1246  224.2810 H   0  0  0  0  0  0  0  0  0  0  0  0
  140.3527   80.0172  222.7020 H   0  0  0  0  0  0  0  0  0  0  0  0
  142.5530   78.3288  222.3670 H   0  0  0  0  0  0  0  0  0  0  0  0
  141.1218   77.4210  223.1357 H   0  0  0  0  0  0  0  0  0  0  0  0
  139.7565   78.3040  221.3419 H   0  0  0  0  0  0  0  0  0  0  0  0
  141.2390   76.3660  219.8690 H   0  0  0  0  0  0  0  0  0  0  0  0
  139.3571   74.1429  220.4635 H   0  0  0  0  0  0  0  0  0  0  0  0
  141.1263   74.0427  220.6757 H   0  0  0  0  0  0  0  0  0  0  0  0
  139.4700   73.9220  223.1630 H   0  0  0  0  0  0  0  0  0  0  0  0
  139.2281   69.8249  222.6312 H   0  0  0  0  0  0  0  0  0  0  0  0
  138.8294   68.5058  224.6755 H   0  0  0  0  0  0  0  0  0  0  0  0
  139.0791   68.2637  227.0757 H   0  0  0  0  0  0  0  0  0  0  0  0
  139.9435   69.1887  229.2351 H   0  0  0  0  0  0  0  0  0  0  0  0
  141.1354   71.3430  229.2763 H   0  0  0  0  0  0  0  0  0  0  0  0
  141.5139   72.6338  227.1952 H   0  0  0  0  0  0  0  0  0  0  0  0
  140.6638   80.8341  221.1681 H   0  0  0  0  0  0  0  0  0  0  0  0
  141.5975   82.3284  219.4599 H   0  0  0  0  0  0  0  0  0  0  0  0
  142.8433   81.4639  217.4937 H   0  0  0  0  0  0  0  0  0  0  0  0
  143.1302   78.9879  217.2889 H   0  0  0  0  0  0  0  0  0  0  0  0
  142.1924   77.4781  219.0062 H   0  0  0  0  0  0  0  0  0  0  0  0
  1  2  1  0
  2  3  1  0
  3  4  1  0
  4  5  1  0
  5  6  1  0
  6  7  2  0
  6  8  1  0
  8  9  1  0
  9 10  1  0
 10 11  2  0
 10 12  1  0
 12 13  2  0
 13 14  1  0
 14 15  2  0
 15 16  1  0
 16 17  2  0
 17 18  1  0
 18 19  2  0
 19 20  1  0
 20 21  2  0
  4 22  1  0
 22 23  2  0
 23 24  1  0
 24 25  2  0
 25 26  1  0
 26 27  2  0
 21 12  1  0
 27 22  1  0
 20 15  1  0
  1 28  1  0
  1 29  1  0
  1 30  1  0
  2 31  1  0
  2 32  1  0
  3 33  1  0
  3 34  1  0
  4 35  1  1
  5 36  1  0
  8 37  1  0
  8 38  1  0
  9 39  1  0
 13 40  1  0
 14 41  1  0
 16 42  1  0
 17 43  1  0
 18 44  1  0
 19 45  1  0
 23 46  1  0
 24 47  1  0
 25 48  1  0
 26 49  1  0
 27 50  1  0
M  END
>  <smiles>  (31) 
CCC[C@H](NC(=O)CNC(=O)c1ccc2ccccc2n1)c1ccccc1

>  <score_type>  (31) 
oracle

>  <origin>  (31) 
autodockgpu

>  <m_score__min__energy>  (31) 
-8.8900000000000006

>  <m_primary>  (31) 
energy

>  <rmsd>  (31) 
3.7769148659993497

>  <m_score__min__rmsd>  (31) 
3.7769148659993497

>  <meeko>  (31) 
{"free_energy": -8.34, "intermolecular_energy": -10.42, "internal_energy": -1.7, "cluster_size": 43, "cluster_id": 1, "rank_in_cluster": 21}

>  <energy>  (31) 
-8.28

>  <cluster_rmsd>  (31) 
0.81

>  <cluster>  (31) 
1

$$$$

     RDKit          3D

 50 52  0  0  0  0  0  0  0  0999 V2000
  138.0030   80.0010  223.4660 C   0  0  0  0  0  0  0  0  0  0  0  0
  137.8520   79.5980  222.0260 C   0  0  0  0  0  0  0  0  0  0  0  0
  138.3450   78.2400  221.6920 C   0  0  0  0  0  0  0  0  0  0  0  0
  139.6630   78.1290  221.0140 C   0  0  2  0  0  0  0  0  0  0  0  0
  139.9870   76.8130  220.5930 N   0  0  0  0  0  0  0  0  0  0  0  0
  139.8070   75.7470  221.5540 C   0  0  0  0  0  0  0  0  0  0  0  0
  139.3800   75.9790  222.7180 O   0  0  0  0  0  0  0  0  0  0  0  0
  140.1280   74.3400  221.1820 C   0  0  0  0  0  0  0  0  0  0  0  0
  139.9610   73.5260  222.3520 N   0  0  0  0  0  0  0  0  0  0  0  0
  140.4910   72.2090  222.3800 C   0  0  0  0  0  0  0  0  0  0  0  0
  141.1160   71.6800  221.4320 O   0  0  0  0  0  0  0  0  0  0  0  0
  140.2920   71.4220  223.6020 C   0  0  0  0  0  0  0  0  0  0  0  0
  139.6610   70.1870  223.5670 C   0  0  0  0  0  0  0  0  0  0  0  0
  139.4600   69.4290  224.6940 C   0  0  0  0  0  0  0  0  0  0  0  0
  139.9030   69.9180  225.9010 C   0  0  0  0  0  0  0  0  0  0  0  0
  139.7170   69.1810  227.0620 C   0  0  0  0  0  0  0  0  0  0  0  0
  140.1800   69.7090  228.2650 C   0  0  0  0  0  0  0  0  0  0  0  0
  140.8060   70.9370  228.2950 C   0  0  0  0  0  0  0  0  0  0  0  0
  140.9940   71.6750  227.1490 C   0  0  0  0  0  0  0  0  0  0  0  0
  140.5330   71.1490  225.9480 C   0  0  0  0  0  0  0  0  0  0  0  0
  140.7020   71.8460  224.8120 N   0  0  0  0  0  0  0  0  0  0  0  0
  140.7360   78.7640  221.8280 C   0  0  0  0  0  0  0  0  0  0  0  0
  141.5930   79.7210  221.3340 C   0  0  0  0  0  0  0  0  0  0  0  0
  142.5660   80.2680  222.1480 C   0  0  0  0  0  0  0  0  0  0  0  0
  142.7360   79.9000  223.4690 C   0  0  0  0  0  0  0  0  0  0  0  0
  141.8780   78.9410  223.9610 C   0  0  0  0  0  0  0  0  0  0  0  0
  140.8940   78.3860  223.1450 C   0  0  0  0  0  0  0  0  0  0  0  0
  137.6912   79.1688  224.1143 H   0  0  0  0  0  0  0  0  0  0  0  0
  139.0552   80.2494  223.6688 H   0  0  0  0  0  0  0  0  0  0  0  0
  137.3731   80.8797  223.6688 H   0  0  0  0  0  0  0  0  0  0  0  0
  136.7830   79.6435  221.7709 H   0  0  0  0  0  0  0  0  0  0  0  0
  138.4738   80.2975  221.4480 H   0  0  0  0  0  0  0  0  0  0  0  0
  138.4114   77.6743  222.6331 H   0  0  0  0  0  0  0  0  0  0  0  0
  137.6221   77.8556  220.9574 H   0  0  0  0  0  0  0  0  0  0  0  0
  139.5803   78.6957  220.0749 H   0  0  0  0  0  0  0  0  0  0  0  0
  140.3300   76.5050  219.6660 H   0  0  0  0  0  0  0  0  0  0  0  0
  139.4470   73.9984  220.3886 H   0  0  0  0  0  0  0  0  0  0  0  0
  141.1603   74.2680  220.8090 H   0  0  0  0  0  0  0  0  0  0  0  0
  139.4460   73.9150  223.1780 H   0  0  0  0  0  0  0  0  0  0  0  0
  139.3083   69.8003  222.5995 H   0  0  0  0  0  0  0  0  0  0  0  0
  138.9563   68.4530  224.6331 H   0  0  0  0  0  0  0  0  0  0  0  0
  139.2155   68.2024  227.0330 H   0  0  0  0  0  0  0  0  0  0  0  0
  140.0452   69.1420  229.1979 H   0  0  0  0  0  0  0  0  0  0  0  0
  141.1630   71.3355  229.2561 H   0  0  0  0  0  0  0  0  0  0  0  0
  141.4950   72.6537  227.1825 H   0  0  0  0  0  0  0  0  0  0  0  0
  141.5030   80.0511  220.2886 H   0  0  0  0  0  0  0  0  0  0  0  0
  143.2359   81.0312  221.7253 H   0  0  0  0  0  0  0  0  0  0  0  0
  143.5184   80.3509  224.0972 H   0  0  0  0  0  0  0  0  0  0  0  0
  141.9704   78.6107  225.0062 H   0  0  0  0  0  0  0  0  0  0  0  0
  140.2223   77.6225  223.5644 H   0  0  0  0  0  0  0  0  0  0  0  0
  1  2  1  0
  2  3  1  0
  3  4  1  0
  4  5  1  0
  5  6  1  0
  6  7  2  0
  6  8  1  0
  8  9  1  0
  9 10  1  0
 10 11  2  0
 10 12  1  0
 12 13  2  0
 13 14  1  0
 14 15  2  0
 15 16  1  0
 16 17  2  0
 17 18  1  0
 18 19  2  0
 19 20  1  0
 20 21  2  0
  4 22  1  0
 22 23  2  0
 23 24  1  0
 24 25  2  0
 25 26  1  0
 26 27  2  0
 21 12  1  0
 27 22  1  0
 20 15  1  0
  1 28  1  0
  1 29  1  0
  1 30  1  0
  2 31  1  0
  2 32  1  0
  3 33  1  0
  3 34  1  0
  4 35  1  6
  5 36  1  0
  8 37  1  0
  8 38  1  0
  9 39  1  0
 13 40  1  0
 14 41  1  0
 16 42  1  0
 17 43  1  0
 18 44  1  0
 19 45  1  0
 23 46  1  0
 24 47  1  0
 25 48  1  0
 26 49  1  0
 27 50  1  0
M  END
>  <smiles>  (32) 
CCC[C@H](NC(=O)CNC(=O)c1ccc2ccccc2n1)c1ccccc1

>  <score_type>  (32) 
oracle

>  <origin>  (32) 
autodockgpu

>  <m_score__min__energy>  (32) 
-8.8900000000000006

>  <m_primary>  (32) 
energy

>  <rmsd>  (32) 
4.3109939197185785

>  <m_score__min__rmsd>  (32) 
4.3109939197185785

>  <meeko>  (32) 
{"free_energy": -8.29, "intermolecular_energy": -10.38, "internal_energy": -1.79, "cluster_size": 43, "cluster_id": 1, "rank_in_cluster": 30}

>  <energy>  (32) 
-8.28

>  <cluster_rmsd>  (32) 
0.87

>  <cluster>  (32) 
1

$$$$

     RDKit          3D

 50 52  0  0  0  0  0  0  0  0999 V2000
  141.3560   79.1010  223.6960 C   0  0  0  0  0  0  0  0  0  0  0  0
  141.4560   78.2500  222.4610 C   0  0  0  0  0  0  0  0  0  0  0  0
  140.3620   77.2650  222.2810 C   0  0  0  0  0  0  0  0  0  0  0  0
  140.0300   76.8460  220.8940 C   0  0  2  0  0  0  0  0  0  0  0  0
  139.1880   75.7070  220.8200 N   0  0  0  0  0  0  0  0  0  0  0  0
  139.5590   74.5570  221.6150 C   0  0  0  0  0  0  0  0  0  0  0  0
  140.5890   74.5670  222.3430 O   0  0  0  0  0  0  0  0  0  0  0  0
  138.7210   73.3240  221.5860 C   0  0  0  0  0  0  0  0  0  0  0  0
  139.0860   72.5180  222.7170 N   0  0  0  0  0  0  0  0  0  0  0  0
  138.7000   71.1520  222.7660 C   0  0  0  0  0  0  0  0  0  0  0  0
  138.0450   70.5720  221.8710 O   0  0  0  0  0  0  0  0  0  0  0  0
  139.1000   70.3760  223.9460 C   0  0  0  0  0  0  0  0  0  0  0  0
  138.8650   69.0110  224.0210 C   0  0  0  0  0  0  0  0  0  0  0  0
  139.2280   68.2590  225.1110 C   0  0  0  0  0  0  0  0  0  0  0  0
  139.8480   68.8890  226.1660 C   0  0  0  0  0  0  0  0  0  0  0  0
  140.2270   68.1620  227.2850 C   0  0  0  0  0  0  0  0  0  0  0  0
  140.8530   68.8350  228.3320 C   0  0  0  0  0  0  0  0  0  0  0  0
  141.0850   70.1910  228.2520 C   0  0  0  0  0  0  0  0  0  0  0  0
  140.7110   70.9200  227.1470 C   0  0  0  0  0  0  0  0  0  0  0  0
  140.0870   70.2500  226.1010 C   0  0  0  0  0  0  0  0  0  0  0  0
  139.7100   70.9340  225.0080 N   0  0  0  0  0  0  0  0  0  0  0  0
  141.2610   76.7180  220.0660 C   0  0  0  0  0  0  0  0  0  0  0  0
  141.5440   77.5390  218.9980 C   0  0  0  0  0  0  0  0  0  0  0  0
  142.7070   77.3620  218.2750 C   0  0  0  0  0  0  0  0  0  0  0  0
  143.6340   76.3800  218.5690 C   0  0  0  0  0  0  0  0  0  0  0  0
  143.3490   75.5590  219.6390 C   0  0  0  0  0  0  0  0  0  0  0  0
  142.1770   75.7320  220.3720 C   0  0  0  0  0  0  0  0  0  0  0  0
  141.4310   78.4623  224.5884 H   0  0  0  0  0  0  0  0  0  0  0  0
  142.1739   79.8365  223.7017 H   0  0  0  0  0  0  0  0  0  0  0  0
  140.3899   79.6269  223.7017 H   0  0  0  0  0  0  0  0  0  0  0  0
  141.4593   78.9180  221.5871 H   0  0  0  0  0  0  0  0  0  0  0  0
  142.3798   77.6628  222.5696 H   0  0  0  0  0  0  0  0  0  0  0  0
  140.6403   76.3594  222.8399 H   0  0  0  0  0  0  0  0  0  0  0  0
  139.4599   77.7835  222.6380 H   0  0  0  0  0  0  0  0  0  0  0  0
  139.4223   77.6544  220.4614 H   0  0  0  0  0  0  0  0  0  0  0  0
  138.3170   75.5900  220.2720 H   0  0  0  0  0  0  0  0  0  0  0  0
  137.6563   73.5937  221.6468 H   0  0  0  0  0  0  0  0  0  0  0  0
  138.8856   72.7697  220.6502 H   0  0  0  0  0  0  0  0  0  0  0  0
  139.6340   72.9500  223.4990 H   0  0  0  0  0  0  0  0  0  0  0  0
  138.3691   68.5121  223.1753 H   0  0  0  0  0  0  0  0  0  0  0  0
  139.0278   67.1778  225.1404 H   0  0  0  0  0  0  0  0  0  0  0  0
  140.0378   67.0800  227.3443 H   0  0  0  0  0  0  0  0  0  0  0  0
  141.1643   68.2798  229.2291 H   0  0  0  0  0  0  0  0  0  0  0  0
  141.5805   70.7020  229.0907 H   0  0  0  0  0  0  0  0  0  0  0  0
  140.9003   72.0022  227.0927 H   0  0  0  0  0  0  0  0  0  0  0  0
  140.8416   78.3385  218.7197 H   0  0  0  0  0  0  0  0  0  0  0  0
  142.9047   78.0332  217.4263 H   0  0  0  0  0  0  0  0  0  0  0  0
  144.5540   76.2595  217.9782 H   0  0  0  0  0  0  0  0  0  0  0  0
  144.0529   74.7605  219.9164 H   0  0  0  0  0  0  0  0  0  0  0  0
  141.9754   75.0621  221.2209 H   0  0  0  0  0  0  0  0  0  0  0  0
  1  2  1  0
  2  3  1  0
  3  4  1  0
  4  5  1  0
  5  6  1  0
  6  7  2  0
  6  8  1  0
  8  9  1  0
  9 10  1  0
 10 11  2  0
 10 12  1  0
 12 13  2  0
 13 14  1  0
 14 15  2  0
 15 16  1  0
 16 17  2  0
 17 18  1  0
 18 19  2  0
 19 20  1  0
 20 21  2  0
  4 22  1  0
 22 23  2  0
 23 24  1  0
 24 25  2  0
 25 26  1  0
 26 27  2  0
 21 12  1  0
 27 22  1  0
 20 15  1  0
  1 28  1  0
  1 29  1  0
  1 30  1  0
  2 31  1  0
  2 32  1  0
  3 33  1  0
  3 34  1  0
  4 35  1  6
  5 36  1  0
  8 37  1  0
  8 38  1  0
  9 39  1  0
 13 40  1  0
 14 41  1  0
 16 42  1  0
 17 43  1  0
 18 44  1  0
 19 45  1  0
 23 46  1  0
 24 47  1  0
 25 48  1  0
 26 49  1  0
 27 50  1  0
M  END
>  <smiles>  (33) 
CCC[C@H](NC(=O)CNC(=O)c1ccc2ccccc2n1)c1ccccc1

>  <score_type>  (33) 
oracle

>  <origin>  (33) 
autodockgpu

>  <m_score__min__energy>  (33) 
-8.8900000000000006

>  <m_primary>  (33) 
energy

>  <rmsd>  (33) 
5.174917853028434

>  <m_score__min__rmsd>  (33) 
5.174917853028434

>  <meeko>  (33) 
{"free_energy": -7.75, "intermolecular_energy": -9.84, "internal_energy": -1.86, "cluster_size": 1, "cluster_id": 4, "rank_in_cluster": 1}

>  <energy>  (33) 
-8.28

>  <cluster_rmsd>  (33) 
1.7

>  <cluster>  (33) 
1

$$$$

     RDKit          3D

 50 52  0  0  0  0  0  0  0  0999 V2000
  142.5960   78.5080  218.2060 C   0  0  0  0  0  0  0  0  0  0  0  0
  141.9260   77.6750  219.2620 C   0  0  0  0  0  0  0  0  0  0  0  0
  142.7690   76.6120  219.8610 C   0  0  0  0  0  0  0  0  0  0  0  0
  142.6140   75.2290  219.3390 C   0  0  2  0  0  0  0  0  0  0  0  0
  141.3020   74.7060  219.4690 N   0  0  0  0  0  0  0  0  0  0  0  0
  140.7670   74.5850  220.8080 C   0  0  0  0  0  0  0  0  0  0  0  0
  141.4400   74.9310  221.8170 O   0  0  0  0  0  0  0  0  0  0  0  0
  139.3940   74.0420  221.0210 C   0  0  0  0  0  0  0  0  0  0  0  0
  139.4030   73.2910  222.2440 N   0  0  0  0  0  0  0  0  0  0  0  0
  140.1670   72.0980  222.3360 C   0  0  0  0  0  0  0  0  0  0  0  0
  140.8590   71.6310  221.4030 O   0  0  0  0  0  0  0  0  0  0  0  0
  140.1390   71.3710  223.6110 C   0  0  0  0  0  0  0  0  0  0  0  0
  139.6230   70.0860  223.6940 C   0  0  0  0  0  0  0  0  0  0  0  0
  139.5840   69.3820  224.8720 C   0  0  0  0  0  0  0  0  0  0  0  0
  140.0770   69.9790  226.0090 C   0  0  0  0  0  0  0  0  0  0  0  0
  140.0530   69.2990  227.2180 C   0  0  0  0  0  0  0  0  0  0  0  0
  140.5620   69.9350  228.3490 C   0  0  0  0  0  0  0  0  0  0  0  0
  141.0740   71.2120  228.2600 C   0  0  0  0  0  0  0  0  0  0  0  0
  141.1010   71.8940  227.0660 C   0  0  0  0  0  0  0  0  0  0  0  0
  140.5940   71.2600  225.9380 C   0  0  0  0  0  0  0  0  0  0  0  0
  140.6060   71.9000  224.7570 N   0  0  0  0  0  0  0  0  0  0  0  0
  143.6600   74.3290  219.8970 C   0  0  0  0  0  0  0  0  0  0  0  0
  143.5600   72.9560  219.8890 C   0  0  0  0  0  0  0  0  0  0  0  0
  144.5710   72.1820  220.4250 C   0  0  0  0  0  0  0  0  0  0  0  0
  145.7130   72.7200  220.9850 C   0  0  0  0  0  0  0  0  0  0  0  0
  145.8120   74.0950  220.9920 C   0  0  0  0  0  0  0  0  0  0  0  0
  144.7950   74.8810  220.4530 C   0  0  0  0  0  0  0  0  0  0  0  0
  143.2163   79.2792  218.6861 H   0  0  0  0  0  0  0  0  0  0  0  0
  143.2309   77.8644  217.5794 H   0  0  0  0  0  0  0  0  0  0  0  0
  141.8312   78.9902  217.5794 H   0  0  0  0  0  0  0  0  0  0  0  0
  141.6019   78.3473  220.0701 H   0  0  0  0  0  0  0  0  0  0  0  0
  141.0958   77.1573  218.7593 H   0  0  0  0  0  0  0  0  0  0  0  0
  143.8193   76.9032  219.7122 H   0  0  0  0  0  0  0  0  0  0  0  0
  142.4372   76.5520  220.9081 H   0  0  0  0  0  0  0  0  0  0  0  0
  142.7709   75.2860  218.2517 H   0  0  0  0  0  0  0  0  0  0  0  0
  140.6560   74.4050  218.7180 H   0  0  0  0  0  0  0  0  0  0  0  0
  138.6722   74.8687  221.0951 H   0  0  0  0  0  0  0  0  0  0  0  0
  139.1005   73.3992  220.1780 H   0  0  0  0  0  0  0  0  0  0  0  0
  138.8410   73.6340  223.0600 H   0  0  0  0  0  0  0  0  0  0  0  0
  139.2303   69.6133  222.7816 H   0  0  0  0  0  0  0  0  0  0  0  0
  139.1682   68.3642  224.9058 H   0  0  0  0  0  0  0  0  0  0  0  0
  139.6415   68.2809  227.2826 H   0  0  0  0  0  0  0  0  0  0  0  0
  140.5552   69.4150  229.3183 H   0  0  0  0  0  0  0  0  0  0  0  0
  141.4700   71.6965  229.1647 H   0  0  0  0  0  0  0  0  0  0  0  0
  141.5122   72.9124  227.0055 H   0  0  0  0  0  0  0  0  0  0  0  0
  142.6721   72.4736  219.4544 H   0  0  0  0  0  0  0  0  0  0  0  0
  144.4614   71.0877  220.4048 H   0  0  0  0  0  0  0  0  0  0  0  0
  146.5050   72.0825  221.4050 H   0  0  0  0  0  0  0  0  0  0  0  0
  146.7009   74.5757  221.4265 H   0  0  0  0  0  0  0  0  0  0  0  0
  144.9009   75.9757  220.4717 H   0  0  0  0  0  0  0  0  0  0  0  0
  1  2  1  0
  2  3  1  0
  3  4  1  0
  4  5  1  0
  5  6  1  0
  6  7  2  0
  6  8  1  0
  8  9  1  0
  9 10  1  0
 10 11  2  0
 10 12  1  0
 12 13  2  0
 13 14  1  0
 14 15  2  0
 15 16  1  0
 16 17  2  0
 17 18  1  0
 18 19  2  0
 19 20  1  0
 20 21  2  0
  4 22  1  0
 22 23  2  0
 23 24  1  0
 24 25  2  0
 25 26  1  0
 26 27  2  0
 21 12  1  0
 27 22  1  0
 20 15  1  0
  1 28  1  0
  1 29  1  0
  1 30  1  0
  2 31  1  0
  2 32  1  0
  3 33  1  0
  3 34  1  0
  4 35  1  6
  5 36  1  0
  8 37  1  0
  8 38  1  0
  9 39  1  0
 13 40  1  0
 14 41  1  0
 16 42  1  0
 17 43  1  0
 18 44  1  0
 19 45  1  0
 23 46  1  0
 24 47  1  0
 25 48  1  0
 26 49  1  0
 27 50  1  0
M  END
>  <smiles>  (34) 
CCC[C@H](NC(=O)CNC(=O)c1ccc2ccccc2n1)c1ccccc1

>  <score_type>  (34) 
oracle

>  <origin>  (34) 
autodockgpu

>  <m_score__min__energy>  (34) 
-8.8900000000000006

>  <m_primary>  (34) 
energy

>  <rmsd>  (34) 
6.2988382942040495

>  <m_score__min__rmsd>  (34) 
6.2988382942040495

>  <meeko>  (34) 
{"free_energy": -8.3, "intermolecular_energy": -10.39, "internal_energy": -1.63, "cluster_size": 5, "cluster_id": 3, "rank_in_cluster": 1}

>  <energy>  (34) 
-8.28

>  <cluster_rmsd>  (34) 
1.69

>  <cluster>  (34) 
1

$$$$

     RDKit          3D

 50 52  0  0  0  0  0  0  0  0999 V2000
  142.8950   77.3250  217.3550 C   0  0  0  0  0  0  0  0  0  0  0  0
  142.9260   77.0880  218.8390 C   0  0  0  0  0  0  0  0  0  0  0  0
  141.9680   77.8970  219.6300 C   0  0  0  0  0  0  0  0  0  0  0  0
  141.4530   77.3160  220.8980 C   0  0  2  0  0  0  0  0  0  0  0  0
  140.3270   76.4710  220.7310 N   0  0  0  0  0  0  0  0  0  0  0  0
  140.4090   75.1390  221.2890 C   0  0  0  0  0  0  0  0  0  0  0  0
  141.4410   74.7460  221.9000 O   0  0  0  0  0  0  0  0  0  0  0  0
  139.2630   74.1950  221.1510 C   0  0  0  0  0  0  0  0  0  0  0  0
  139.2290   73.3690  222.3250 N   0  0  0  0  0  0  0  0  0  0  0  0
  140.1340   72.2830  222.4510 C   0  0  0  0  0  0  0  0  0  0  0  0
  140.9910   71.9750  221.5920 O   0  0  0  0  0  0  0  0  0  0  0  0
  140.0560   71.4720  223.6720 C   0  0  0  0  0  0  0  0  0  0  0  0
  139.4280   70.2350  223.6740 C   0  0  0  0  0  0  0  0  0  0  0  0
  139.3390   69.4550  224.8010 C   0  0  0  0  0  0  0  0  0  0  0  0
  139.8950   69.9240  225.9690 C   0  0  0  0  0  0  0  0  0  0  0  0
  139.8230   69.1650  227.1280 C   0  0  0  0  0  0  0  0  0  0  0  0
  140.3980   69.6720  228.2910 C   0  0  0  0  0  0  0  0  0  0  0  0
  141.0200   70.9020  228.2840 C   0  0  0  0  0  0  0  0  0  0  0  0
  141.0950   71.6630  227.1400 C   0  0  0  0  0  0  0  0  0  0  0  0
  140.5220   71.1570  225.9790 C   0  0  0  0  0  0  0  0  0  0  0  0
  140.5790   71.8760  224.8450 N   0  0  0  0  0  0  0  0  0  0  0  0
  141.2420   78.3770  221.9220 C   0  0  0  0  0  0  0  0  0  0  0  0
  140.1310   78.4340  222.7330 C   0  0  0  0  0  0  0  0  0  0  0  0
  140.0010   79.4470  223.6630 C   0  0  0  0  0  0  0  0  0  0  0  0
  140.9490   80.4380  223.8330 C   0  0  0  0  0  0  0  0  0  0  0  0
  142.0600   80.3790  223.0190 C   0  0  0  0  0  0  0  0  0  0  0  0
  142.1960   79.3600  222.0790 C   0  0  0  0  0  0  0  0  0  0  0  0
  142.7547   78.3981  217.1579 H   0  0  0  0  0  0  0  0  0  0  0  0
  143.8444   76.9916  216.9105 H   0  0  0  0  0  0  0  0  0  0  0  0
  142.0633   76.7587  216.9105 H   0  0  0  0  0  0  0  0  0  0  0  0
  142.7029   76.0259  219.0182 H   0  0  0  0  0  0  0  0  0  0  0  0
  143.9290   77.3904  219.1744 H   0  0  0  0  0  0  0  0  0  0  0  0
  142.4677   78.8440  219.8820 H   0  0  0  0  0  0  0  0  0  0  0  0
  141.0812   77.9859  218.9852 H   0  0  0  0  0  0  0  0  0  0  0  0
  142.2366   76.6421  221.2744 H   0  0  0  0  0  0  0  0  0  0  0  0
  139.4280   76.6880  220.2640 H   0  0  0  0  0  0  0  0  0  0  0  0
  138.3226   74.7588  221.0632 H   0  0  0  0  0  0  0  0  0  0  0  0
  139.3825   73.5758  220.2497 H   0  0  0  0  0  0  0  0  0  0  0  0
  138.5320   73.5790  223.0790 H   0  0  0  0  0  0  0  0  0  0  0  0
  138.9846   69.8649  222.7378 H   0  0  0  0  0  0  0  0  0  0  0  0
  138.8348   68.4778  224.7706 H   0  0  0  0  0  0  0  0  0  0  0  0
  139.3232   68.1851  227.1286 H   0  0  0  0  0  0  0  0  0  0  0  0
  140.3554   69.0867  229.2214 H   0  0  0  0  0  0  0  0  0  0  0  0
  141.4665   71.2839  229.2139 H   0  0  0  0  0  0  0  0  0  0  0  0
  141.5939   72.6433  227.1441 H   0  0  0  0  0  0  0  0  0  0  0  0
  139.3445   77.6706  222.6401 H   0  0  0  0  0  0  0  0  0  0  0  0
  139.1023   79.4657  224.2969 H   0  0  0  0  0  0  0  0  0  0  0  0
  140.8233   81.2347  224.5810 H   0  0  0  0  0  0  0  0  0  0  0  0
  142.8458   81.1431  223.1126 H   0  0  0  0  0  0  0  0  0  0  0  0
  143.0926   79.3389  221.4420 H   0  0  0  0  0  0  0  0  0  0  0  0
  1  2  1  0
  2  3  1  0
  3  4  1  0
  4  5  1  0
  5  6  1  0
  6  7  2  0
  6  8  1  0
  8  9  1  0
  9 10  1  0
 10 11  2  0
 10 12  1  0
 12 13  2  0
 13 14  1  0
 14 15  2  0
 15 16  1  0
 16 17  2  0
 17 18  1  0
 18 19  2  0
 19 20  1  0
 20 21  2  0
  4 22  1  0
 22 23  2  0
 23 24  1  0
 24 25  2  0
 25 26  1  0
 26 27  2  0
 21 12  1  0
 27 22  1  0
 20 15  1  0
  1 28  1  0
  1 29  1  0
  1 30  1  0
  2 31  1  0
  2 32  1  0
  3 33  1  0
  3 34  1  0
  4 35  1  1
  5 36  1  0
  8 37  1  0
  8 38  1  0
  9 39  1  0
 13 40  1  0
 14 41  1  0
 16 42  1  0
 17 43  1  0
 18 44  1  0
 19 45  1  0
 23 46  1  0
 24 47  1  0
 25 48  1  0
 26 49  1  0
 27 50  1  0
M  END
>  <smiles>  (35) 
CCC[C@H](NC(=O)CNC(=O)c1ccc2ccccc2n1)c1ccccc1

>  <score_type>  (35) 
oracle

>  <origin>  (35) 
autodockgpu

>  <m_score__min__energy>  (35) 
-8.8900000000000006

>  <m_primary>  (35) 
energy

>  <rmsd>  (35) 
3.961138580444703

>  <m_score__min__rmsd>  (35) 
3.961138580444703

>  <meeko>  (35) 
{"free_energy": -8.7, "intermolecular_energy": -10.79, "internal_energy": -1.17, "cluster_size": 43, "cluster_id": 1, "rank_in_cluster": 9}

>  <energy>  (35) 
-8.28

>  <cluster_rmsd>  (35) 
1.69

>  <cluster>  (35) 
1

$$$$

     RDKit          3D

 50 52  0  0  0  0  0  0  0  0999 V2000
  142.1400   80.4040  223.5910 C   0  0  0  0  0  0  0  0  0  0  0  0
  141.0440   79.4220  223.2860 C   0  0  0  0  0  0  0  0  0  0  0  0
  141.4500   78.2530  222.4700 C   0  0  0  0  0  0  0  0  0  0  0  0
  140.7890   78.0660  221.1520 C   0  0  2  0  0  0  0  0  0  0  0  0
  140.7570   76.7190  220.7070 N   0  0  0  0  0  0  0  0  0  0  0  0
  140.0990   75.7550  221.5610 C   0  0  0  0  0  0  0  0  0  0  0  0
  139.5740   76.0980  222.6550 O   0  0  0  0  0  0  0  0  0  0  0  0
  140.0280   74.3210  221.1580 C   0  0  0  0  0  0  0  0  0  0  0  0
  139.9310   73.5320  222.3530 N   0  0  0  0  0  0  0  0  0  0  0  0
  140.3450   72.1740  222.3400 C   0  0  0  0  0  0  0  0  0  0  0  0
  140.8050   71.5870  221.3340 O   0  0  0  0  0  0  0  0  0  0  0  0
  140.2250   71.4150  223.5900 C   0  0  0  0  0  0  0  0  0  0  0  0
  139.6270   70.1640  223.6170 C   0  0  0  0  0  0  0  0  0  0  0  0
  139.5000   69.4320  224.7710 C   0  0  0  0  0  0  0  0  0  0  0  0
  139.9860   69.9640  225.9430 C   0  0  0  0  0  0  0  0  0  0  0  0
  139.8750   69.2540  227.1290 C   0  0  0  0  0  0  0  0  0  0  0  0
  140.3800   69.8250  228.2950 C   0  0  0  0  0  0  0  0  0  0  0  0
  140.9730   71.0690  228.2640 C   0  0  0  0  0  0  0  0  0  0  0  0
  141.0870   71.7810  227.0920 C   0  0  0  0  0  0  0  0  0  0  0  0
  140.5840   71.2120  225.9280 C   0  0  0  0  0  0  0  0  0  0  0  0
  140.6810   71.8820  224.7680 N   0  0  0  0  0  0  0  0  0  0  0  0
  141.3480   79.0020  220.1380 C   0  0  0  0  0  0  0  0  0  0  0  0
  142.1050   78.5920  219.0640 C   0  0  0  0  0  0  0  0  0  0  0  0
  142.5910   79.5180  218.1620 C   0  0  0  0  0  0  0  0  0  0  0  0
  142.3550   80.8740  218.2760 C   0  0  0  0  0  0  0  0  0  0  0  0
  141.5970   81.2840  219.3520 C   0  0  0  0  0  0  0  0  0  0  0  0
  141.1050   80.3540  220.2660 C   0  0  0  0  0  0  0  0  0  0  0  0
  142.2506   80.5031  224.6809 H   0  0  0  0  0  0  0  0  0  0  0  0
  143.0851   80.0449  223.1577 H   0  0  0  0  0  0  0  0  0  0  0  0
  141.8864   81.3827  223.1577 H   0  0  0  0  0  0  0  0  0  0  0  0
  140.6471   79.0482  224.2414 H   0  0  0  0  0  0  0  0  0  0  0  0
  140.3032   79.9699  222.6851 H   0  0  0  0  0  0  0  0  0  0  0  0
  142.5309   78.3408  222.2857 H   0  0  0  0  0  0  0  0  0  0  0  0
  141.1396   77.3797  223.0625 H   0  0  0  0  0  0  0  0  0  0  0  0
  139.7295   78.3248  221.2953 H   0  0  0  0  0  0  0  0  0  0  0  0
  141.1390   76.3270  219.8280 H   0  0  0  0  0  0  0  0  0  0  0  0
  139.1430   74.1535  220.5265 H   0  0  0  0  0  0  0  0  0  0  0  0
  140.9230   74.0392  220.5840 H   0  0  0  0  0  0  0  0  0  0  0  0
  139.5530   73.9700  223.2270 H   0  0  0  0  0  0  0  0  0  0  0  0
  139.2397   69.7424  222.6777 H   0  0  0  0  0  0  0  0  0  0  0  0
  139.0204   68.4421  224.7591 H   0  0  0  0  0  0  0  0  0  0  0  0
  139.3990   68.2625  227.1486 H   0  0  0  0  0  0  0  0  0  0  0  0
  140.3050   69.2793  229.2472 H   0  0  0  0  0  0  0  0  0  0  0  0
  141.3637   71.5021  229.1967 H   0  0  0  0  0  0  0  0  0  0  0  0
  141.5629   72.7726  227.0768 H   0  0  0  0  0  0  0  0  0  0  0  0
  142.3236   77.5231  218.9237 H   0  0  0  0  0  0  0  0  0  0  0  0
  143.1934   79.1593  217.3144 H   0  0  0  0  0  0  0  0  0  0  0  0
  142.7526   81.5921  217.5437 H   0  0  0  0  0  0  0  0  0  0  0  0
  141.3788   82.3533  219.4902 H   0  0  0  0  0  0  0  0  0  0  0  0
  140.5040   80.7091  221.1162 H   0  0  0  0  0  0  0  0  0  0  0  0
  1  2  1  0
  2  3  1  0
  3  4  1  0
  4  5  1  0
  5  6  1  0
  6  7  2  0
  6  8  1  0
  8  9  1  0
  9 10  1  0
 10 11  2  0
 10 12  1  0
 12 13  2  0
 13 14  1  0
 14 15  2  0
 15 16  1  0
 16 17  2  0
 17 18  1  0
 18 19  2  0
 19 20  1  0
 20 21  2  0
  4 22  1  0
 22 23  2  0
 23 24  1  0
 24 25  2  0
 25 26  1  0
 26 27  2  0
 21 12  1  0
 27 22  1  0
 20 15  1  0
  1 28  1  0
  1 29  1  0
  1 30  1  0
  2 31  1  0
  2 32  1  0
  3 33  1  0
  3 34  1  0
  4 35  1  1
  5 36  1  0
  8 37  1  0
  8 38  1  0
  9 39  1  0
 13 40  1  0
 14 41  1  0
 16 42  1  0
 17 43  1  0
 18 44  1  0
 19 45  1  0
 23 46  1  0
 24 47  1  0
 25 48  1  0
 26 49  1  0
 27 50  1  0
M  END
>  <smiles>  (36) 
CCC[C@H](NC(=O)CNC(=O)c1ccc2ccccc2n1)c1ccccc1

>  <score_type>  (36) 
oracle

>  <origin>  (36) 
autodockgpu

>  <m_score__min__energy>  (36) 
-8.8900000000000006

>  <m_primary>  (36) 
energy

>  <rmsd>  (36) 
3.8696771955298517

>  <m_score__min__rmsd>  (36) 
3.8696771955298517

>  <meeko>  (36) 
{"free_energy": -8.26, "intermolecular_energy": -10.34, "internal_energy": -1.74, "cluster_size": 43, "cluster_id": 1, "rank_in_cluster": 38}

>  <energy>  (36) 
-8.28

>  <cluster_rmsd>  (36) 
1.69

>  <cluster>  (36) 
1

$$$$

     RDKit          3D

 50 52  0  0  0  0  0  0  0  0999 V2000
  142.4960   80.9110  223.8710 C   0  0  0  0  0  0  0  0  0  0  0  0
  142.6320   79.4990  223.3720 C   0  0  0  0  0  0  0  0  0  0  0  0
  141.3790   78.7080  223.3590 C   0  0  0  0  0  0  0  0  0  0  0  0
  140.7870   78.3680  222.0380 C   0  0  2  0  0  0  0  0  0  0  0  0
  141.1140   77.0670  221.5770 N   0  0  0  0  0  0  0  0  0  0  0  0
  140.1100   76.0380  221.7300 C   0  0  0  0  0  0  0  0  0  0  0  0
  138.9890   76.2870  222.2520 O   0  0  0  0  0  0  0  0  0  0  0  0
  140.3850   74.6470  221.2670 C   0  0  0  0  0  0  0  0  0  0  0  0
  140.0630   73.7540  222.3440 N   0  0  0  0  0  0  0  0  0  0  0  0
  140.6720   72.4730  222.4060 C   0  0  0  0  0  0  0  0  0  0  0  0
  141.4970   72.0430  221.5680 O   0  0  0  0  0  0  0  0  0  0  0  0
  140.3070   71.6010  223.5290 C   0  0  0  0  0  0  0  0  0  0  0  0
  139.5650   70.4460  223.3300 C   0  0  0  0  0  0  0  0  0  0  0  0
  139.2090   69.6120  224.3610 C   0  0  0  0  0  0  0  0  0  0  0  0
  139.6050   69.9400  225.6370 C   0  0  0  0  0  0  0  0  0  0  0  0
  139.2630   69.1220  226.7040 C   0  0  0  0  0  0  0  0  0  0  0  0
  139.6830   69.4860  227.9810 C   0  0  0  0  0  0  0  0  0  0  0  0
  140.4200   70.6350  228.1730 C   0  0  0  0  0  0  0  0  0  0  0  0
  140.7640   71.4530  227.1220 C   0  0  0  0  0  0  0  0  0  0  0  0
  140.3450   71.0900  225.8470 C   0  0  0  0  0  0  0  0  0  0  0  0
  140.6650   71.8680  224.7990 N   0  0  0  0  0  0  0  0  0  0  0  0
  141.0730   79.4330  221.0370 C   0  0  0  0  0  0  0  0  0  0  0  0
  141.8280   79.2250  219.9060 C   0  0  0  0  0  0  0  0  0  0  0  0
  142.0520   80.2600  219.0200 C   0  0  0  0  0  0  0  0  0  0  0  0
  141.5460   81.5320  219.2050 C   0  0  0  0  0  0  0  0  0  0  0  0
  140.7900   81.7390  220.3390 C   0  0  0  0  0  0  0  0  0  0  0  0
  140.5610   80.6980  221.2370 C   0  0  0  0  0  0  0  0  0  0  0  0
  142.4958   80.9127  224.9710 H   0  0  0  0  0  0  0  0  0  0  0  0
  143.3403   81.5127  223.5035 H   0  0  0  0  0  0  0  0  0  0  0  0
  141.5523   81.3405  223.5035 H   0  0  0  0  0  0  0  0  0  0  0  0
  143.0198   79.5381  222.3434 H   0  0  0  0  0  0  0  0  0  0  0  0
  143.3051   78.9906  224.0780 H   0  0  0  0  0  0  0  0  0  0  0  0
  141.5834   77.7612  223.8803 H   0  0  0  0  0  0  0  0  0  0  0  0
  140.6340   79.3616  223.8362 H   0  0  0  0  0  0  0  0  0  0  0  0
  139.6971   78.3327  222.1824 H   0  0  0  0  0  0  0  0  0  0  0  0
  141.9900   76.7520  221.1220 H   0  0  0  0  0  0  0  0  0  0  0  0
  139.7632   74.4148  220.3898 H   0  0  0  0  0  0  0  0  0  0  0  0
  141.4418   74.5391  220.9814 H   0  0  0  0  0  0  0  0  0  0  0  0
  139.3780   74.0600  223.0760 H   0  0  0  0  0  0  0  0  0  0  0  0
  139.2500   70.1886  222.3080 H   0  0  0  0  0  0  0  0  0  0  0  0
  138.6205   68.7023  224.1710 H   0  0  0  0  0  0  0  0  0  0  0  0
  138.6736   68.2069  226.5451 H   0  0  0  0  0  0  0  0  0  0  0  0
  139.4249   68.8523  228.8423 H   0  0  0  0  0  0  0  0  0  0  0  0
  140.7404   70.9040  229.1903 H   0  0  0  0  0  0  0  0  0  0  0  0
  141.3532   72.3674  227.2855 H   0  0  0  0  0  0  0  0  0  0  0  0
  142.2547   78.2309  219.7069 H   0  0  0  0  0  0  0  0  0  0  0  0
  142.6614   80.0626  218.1257 H   0  0  0  0  0  0  0  0  0  0  0  0
  141.7369   82.3398  218.4831 H   0  0  0  0  0  0  0  0  0  0  0  0
  140.3641   82.7337  220.5367 H   0  0  0  0  0  0  0  0  0  0  0  0
  139.9530   80.8913  222.1331 H   0  0  0  0  0  0  0  0  0  0  0  0
  1  2  1  0
  2  3  1  0
  3  4  1  0
  4  5  1  0
  5  6  1  0
  6  7  2  0
  6  8  1  0
  8  9  1  0
  9 10  1  0
 10 11  2  0
 10 12  1  0
 12 13  2  0
 13 14  1  0
 14 15  2  0
 15 16  1  0
 16 17  2  0
 17 18  1  0
 18 19  2  0
 19 20  1  0
 20 21  2  0
  4 22  1  0
 22 23  2  0
 23 24  1  0
 24 25  2  0
 25 26  1  0
 26 27  2  0
 21 12  1  0
 27 22  1  0
 20 15  1  0
  1 28  1  0
  1 29  1  0
  1 30  1  0
  2 31  1  0
  2 32  1  0
  3 33  1  0
  3 34  1  0
  4 35  1  1
  5 36  1  0
  8 37  1  0
  8 38  1  0
  9 39  1  0
 13 40  1  0
 14 41  1  0
 16 42  1  0
 17 43  1  0
 18 44  1  0
 19 45  1  0
 23 46  1  0
 24 47  1  0
 25 48  1  0
 26 49  1  0
 27 50  1  0
M  END
>  <smiles>  (37) 
CCC[C@H](NC(=O)CNC(=O)c1ccc2ccccc2n1)c1ccccc1

>  <score_type>  (37) 
oracle

>  <origin>  (37) 
autodockgpu

>  <m_score__min__energy>  (37) 
-8.8900000000000006

>  <m_primary>  (37) 
energy

>  <rmsd>  (37) 
3.5433712599787404

>  <m_score__min__rmsd>  (37) 
3.5433712599787404

>  <meeko>  (37) 
{"free_energy": -8.54, "intermolecular_energy": -10.63, "internal_energy": -1.52, "cluster_size": 43, "cluster_id": 1, "rank_in_cluster": 13}

>  <energy>  (37) 
-8.28

>  <cluster_rmsd>  (37) 
1.6

>  <cluster>  (37) 
1

$$$$

     RDKit          3D

 50 52  0  0  0  0  0  0  0  0999 V2000
  143.6770   75.6100  219.7080 C   0  0  0  0  0  0  0  0  0  0  0  0
  143.2380   76.7560  218.8410 C   0  0  0  0  0  0  0  0  0  0  0  0
  142.2380   77.6660  219.4510 C   0  0  0  0  0  0  0  0  0  0  0  0
  141.6410   77.2650  220.7520 C   0  0  2  0  0  0  0  0  0  0  0  0
  140.4410   76.5180  220.6300 N   0  0  0  0  0  0  0  0  0  0  0  0
  140.4140   75.2040  221.2360 C   0  0  0  0  0  0  0  0  0  0  0  0
  141.4170   74.7430  221.8470 O   0  0  0  0  0  0  0  0  0  0  0  0
  139.1870   74.3620  221.1480 C   0  0  0  0  0  0  0  0  0  0  0  0
  139.1540   73.5100  222.3020 N   0  0  0  0  0  0  0  0  0  0  0  0
  139.9950   72.3680  222.3620 C   0  0  0  0  0  0  0  0  0  0  0  0
  140.7930   72.0310  221.4580 O   0  0  0  0  0  0  0  0  0  0  0  0
  139.9200   71.5320  223.5670 C   0  0  0  0  0  0  0  0  0  0  0  0
  139.2580   70.3140  223.5560 C   0  0  0  0  0  0  0  0  0  0  0  0
  139.1710   69.5120  224.6670 C   0  0  0  0  0  0  0  0  0  0  0  0
  139.7660   69.9380  225.8320 C   0  0  0  0  0  0  0  0  0  0  0  0
  139.6980   69.1550  226.9750 C   0  0  0  0  0  0  0  0  0  0  0  0
  140.3130   69.6190  228.1360 C   0  0  0  0  0  0  0  0  0  0  0  0
  140.9710   70.8310  228.1410 C   0  0  0  0  0  0  0  0  0  0  0  0
  141.0420   71.6150  227.0130 C   0  0  0  0  0  0  0  0  0  0  0  0
  140.4290   71.1520  225.8540 C   0  0  0  0  0  0  0  0  0  0  0  0
  140.4810   71.8940  224.7360 N   0  0  0  0  0  0  0  0  0  0  0  0
  141.5100   78.4370  221.6610 C   0  0  0  0  0  0  0  0  0  0  0  0
  141.8100   79.7260  221.2820 C   0  0  0  0  0  0  0  0  0  0  0  0
  141.6640   80.7650  222.1790 C   0  0  0  0  0  0  0  0  0  0  0  0
  141.2220   80.5840  223.4750 C   0  0  0  0  0  0  0  0  0  0  0  0
  140.9230   79.2930  223.8530 C   0  0  0  0  0  0  0  0  0  0  0  0
  141.0680   78.2400  222.9520 C   0  0  0  0  0  0  0  0  0  0  0  0
  143.5701   75.8892  220.7666 H   0  0  0  0  0  0  0  0  0  0  0  0
  143.0524   74.7297  219.4960 H   0  0  0  0  0  0  0  0  0  0  0  0
  144.7299   75.3722  219.4960 H   0  0  0  0  0  0  0  0  0  0  0  0
  144.1281   77.3504  218.5872 H   0  0  0  0  0  0  0  0  0  0  0  0
  142.7453   76.3047  217.9672 H   0  0  0  0  0  0  0  0  0  0  0  0
  142.7279   78.6394  219.6006 H   0  0  0  0  0  0  0  0  0  0  0  0
  141.3939   77.6640  218.7457 H   0  0  0  0  0  0  0  0  0  0  0  0
  142.3470   76.5614  221.2172 H   0  0  0  0  0  0  0  0  0  0  0  0
  139.5580   76.7970  220.1680 H   0  0  0  0  0  0  0  0  0  0  0  0
  138.2937   75.0036  221.1313 H   0  0  0  0  0  0  0  0  0  0  0  0
  139.2000   73.7602  220.2273 H   0  0  0  0  0  0  0  0  0  0  0  0
  138.5050   73.7420  223.0920 H   0  0  0  0  0  0  0  0  0  0  0  0
  138.7845   69.9774  222.6219 H   0  0  0  0  0  0  0  0  0  0  0  0
  138.6377   68.5508  224.6266 H   0  0  0  0  0  0  0  0  0  0  0  0
  139.1706   68.1897  226.9651 H   0  0  0  0  0  0  0  0  0  0  0  0
  140.2735   69.0148  229.0544 H   0  0  0  0  0  0  0  0  0  0  0  0
  141.4500   71.1787  229.0682 H   0  0  0  0  0  0  0  0  0  0  0  0
  141.5687   72.5806  227.0274 H   0  0  0  0  0  0  0  0  0  0  0  0
  142.1671   79.9286  220.2615 H   0  0  0  0  0  0  0  0  0  0  0  0
  141.9110   81.7840  221.8464 H   0  0  0  0  0  0  0  0  0  0  0  0
  141.1140   81.4288  224.1712 H   0  0  0  0  0  0  0  0  0  0  0  0
  140.5670   79.0921  224.8742 H   0  0  0  0  0  0  0  0  0  0  0  0
  140.8221   77.2196  223.2811 H   0  0  0  0  0  0  0  0  0  0  0  0
  1  2  1  0
  2  3  1  0
  3  4  1  0
  4  5  1  0
  5  6  1  0
  6  7  2  0
  6  8  1  0
  8  9  1  0
  9 10  1  0
 10 11  2  0
 10 12  1  0
 12 13  2  0
 13 14  1  0
 14 15  2  0
 15 16  1  0
 16 17  2  0
 17 18  1  0
 18 19  2  0
 19 20  1  0
 20 21  2  0
  4 22  1  0
 22 23  2  0
 23 24  1  0
 24 25  2  0
 25 26  1  0
 26 27  2  0
 21 12  1  0
 27 22  1  0
 20 15  1  0
  1 28  1  0
  1 29  1  0
  1 30  1  0
  2 31  1  0
  2 32  1  0
  3 33  1  0
  3 34  1  0
  4 35  1  1
  5 36  1  0
  8 37  1  0
  8 38  1  0
  9 39  1  0
 13 40  1  0
 14 41  1  0
 16 42  1  0
 17 43  1  0
 18 44  1  0
 19 45  1  0
 23 46  1  0
 24 47  1  0
 25 48  1  0
 26 49  1  0
 27 50  1  0
M  END
>  <smiles>  (38) 
CCC[C@H](NC(=O)CNC(=O)c1ccc2ccccc2n1)c1ccccc1

>  <score_type>  (38) 
oracle

>  <origin>  (38) 
autodockgpu

>  <m_score__min__energy>  (38) 
-8.8900000000000006

>  <m_primary>  (38) 
energy

>  <rmsd>  (38) 
4.142618209374757

>  <m_score__min__rmsd>  (38) 
4.142618209374757

>  <meeko>  (38) 
{"free_energy": -8.73, "intermolecular_energy": -10.82, "internal_energy": -1.29, "cluster_size": 43, "cluster_id": 1, "rank_in_cluster": 8}

>  <energy>  (38) 
-8.26

>  <cluster_rmsd>  (38) 
1.71

>  <cluster>  (38) 
1

$$$$

     RDKit          3D

 50 52  0  0  0  0  0  0  0  0999 V2000
  137.9410   80.0090  223.4610 C   0  0  0  0  0  0  0  0  0  0  0  0
  137.8690   79.6420  222.0050 C   0  0  0  0  0  0  0  0  0  0  0  0
  138.4010   78.3020  221.6620 C   0  0  0  0  0  0  0  0  0  0  0  0
  139.7620   78.2280  221.0700 C   0  0  2  0  0  0  0  0  0  0  0  0
  140.1440   76.9240  220.6590 N   0  0  0  0  0  0  0  0  0  0  0  0
  139.7810   75.8240  221.5260 C   0  0  0  0  0  0  0  0  0  0  0  0
  139.1510   76.0170  222.6020 O   0  0  0  0  0  0  0  0  0  0  0  0
  140.1500   74.4270  221.1580 C   0  0  0  0  0  0  0  0  0  0  0  0
  139.9260   73.5960  222.3070 N   0  0  0  0  0  0  0  0  0  0  0  0
  140.5830   72.3420  222.4120 C   0  0  0  0  0  0  0  0  0  0  0  0
  141.3710   71.8850  221.5530 O   0  0  0  0  0  0  0  0  0  0  0  0
  140.3170   71.5350  223.6090 C   0  0  0  0  0  0  0  0  0  0  0  0
  139.5920   70.3550  223.5330 C   0  0  0  0  0  0  0  0  0  0  0  0
  139.3280   69.5790  224.6350 C   0  0  0  0  0  0  0  0  0  0  0  0
  139.8030   69.9930  225.8570 C   0  0  0  0  0  0  0  0  0  0  0  0
  139.5550   69.2360  226.9930 C   0  0  0  0  0  0  0  0  0  0  0  0
  140.0530   69.6870  228.2140 C   0  0  0  0  0  0  0  0  0  0  0  0
  140.7730   70.8600  228.2840 C   0  0  0  0  0  0  0  0  0  0  0  0
  141.0230   71.6180  227.1630 C   0  0  0  0  0  0  0  0  0  0  0  0
  140.5270   71.1690  225.9450 C   0  0  0  0  0  0  0  0  0  0  0  0
  140.7550   71.8860  224.8320 N   0  0  0  0  0  0  0  0  0  0  0  0
  140.7650   78.8780  221.9570 C   0  0  0  0  0  0  0  0  0  0  0  0
  141.5840   79.9060  221.5470 C   0  0  0  0  0  0  0  0  0  0  0  0
  142.4920   80.4640  222.4250 C   0  0  0  0  0  0  0  0  0  0  0  0
  142.6330   80.0390  223.7320 C   0  0  0  0  0  0  0  0  0  0  0  0
  141.8130   79.0080  224.1410 C   0  0  0  0  0  0  0  0  0  0  0  0
  140.8950   78.4420  223.2590 C   0  0  0  0  0  0  0  0  0  0  0  0
  137.7652   79.1128  224.0742 H   0  0  0  0  0  0  0  0  0  0  0  0
  138.9366   80.4185  223.6871 H   0  0  0  0  0  0  0  0  0  0  0  0
  137.1739   80.7643  223.6871 H   0  0  0  0  0  0  0  0  0  0  0  0
  136.8134   79.6773  221.6975 H   0  0  0  0  0  0  0  0  0  0  0  0
  138.5067   80.3664  221.4771 H   0  0  0  0  0  0  0  0  0  0  0  0
  138.4127   77.7069  222.5871 H   0  0  0  0  0  0  0  0  0  0  0  0
  137.7335   77.9334  220.8692 H   0  0  0  0  0  0  0  0  0  0  0  0
  139.7259   78.8026  220.1327 H   0  0  0  0  0  0  0  0  0  0  0  0
  140.6460   76.6470  219.7970 H   0  0  0  0  0  0  0  0  0  0  0  0
  139.5253   74.0834  220.3204 H   0  0  0  0  0  0  0  0  0  0  0  0
  141.2042   74.3774  220.8480 H   0  0  0  0  0  0  0  0  0  0  0  0
  139.2740   73.9270  223.0590 H   0  0  0  0  0  0  0  0  0  0  0  0
  139.2141   70.0283  222.5530 H   0  0  0  0  0  0  0  0  0  0  0  0
  138.7499   68.6478  224.5421 H   0  0  0  0  0  0  0  0  0  0  0  0
  138.9785   68.3012  226.9313 H   0  0  0  0  0  0  0  0  0  0  0  0
  139.8702   69.1028  229.1279 H   0  0  0  0  0  0  0  0  0  0  0  0
  141.1565   71.1980  229.2580 H   0  0  0  0  0  0  0  0  0  0  0  0
  141.5991   72.5527  227.2292 H   0  0  0  0  0  0  0  0  0  0  0  0
  141.5148   80.2841  220.5164 H   0  0  0  0  0  0  0  0  0  0  0  0
  143.1321   81.2841  222.0676 H   0  0  0  0  0  0  0  0  0  0  0  0
  143.3634   80.5002  224.4131 H   0  0  0  0  0  0  0  0  0  0  0  0
  141.8844   78.6298  225.1715 H   0  0  0  0  0  0  0  0  0  0  0  0
  140.2535   77.6213  223.6123 H   0  0  0  0  0  0  0  0  0  0  0  0
  1  2  1  0
  2  3  1  0
  3  4  1  0
  4  5  1  0
  5  6  1  0
  6  7  2  0
  6  8  1  0
  8  9  1  0
  9 10  1  0
 10 11  2  0
 10 12  1  0
 12 13  2  0
 13 14  1  0
 14 15  2  0
 15 16  1  0
 16 17  2  0
 17 18  1  0
 18 19  2  0
 19 20  1  0
 20 21  2  0
  4 22  1  0
 22 23  2  0
 23 24  1  0
 24 25  2  0
 25 26  1  0
 26 27  2  0
 21 12  1  0
 27 22  1  0
 20 15  1  0
  1 28  1  0
  1 29  1  0
  1 30  1  0
  2 31  1  0
  2 32  1  0
  3 33  1  0
  3 34  1  0
  4 35  1  6
  5 36  1  0
  8 37  1  0
  8 38  1  0
  9 39  1  0
 13 40  1  0
 14 41  1  0
 16 42  1  0
 17 43  1  0
 18 44  1  0
 19 45  1  0
 23 46  1  0
 24 47  1  0
 25 48  1  0
 26 49  1  0
 27 50  1  0
M  END
>  <smiles>  (39) 
CCC[C@H](NC(=O)CNC(=O)c1ccc2ccccc2n1)c1ccccc1

>  <score_type>  (39) 
oracle

>  <origin>  (39) 
autodockgpu

>  <m_score__min__energy>  (39) 
-8.8900000000000006

>  <m_primary>  (39) 
energy

>  <rmsd>  (39) 
4.267491525139347

>  <m_score__min__rmsd>  (39) 
4.267491525139347

>  <meeko>  (39) 
{"free_energy": -8.31, "intermolecular_energy": -10.4, "internal_energy": -1.65, "cluster_size": 43, "cluster_id": 1, "rank_in_cluster": 24}

>  <energy>  (39) 
-8.24

>  <cluster_rmsd>  (39) 
1.59

>  <cluster>  (39) 
1

$$$$

     RDKit          3D

 50 52  0  0  0  0  0  0  0  0999 V2000
  146.3740   73.3780  221.6580 C   0  0  0  0  0  0  0  0  0  0  0  0
  145.4460   73.9680  220.6330 C   0  0  0  0  0  0  0  0  0  0  0  0
  144.0920   73.3680  220.5850 C   0  0  0  0  0  0  0  0  0  0  0  0
  142.9250   74.2890  220.6020 C   0  0  2  0  0  0  0  0  0  0  0  0
  141.6690   73.6290  220.6290 N   0  0  0  0  0  0  0  0  0  0  0  0
  140.6010   74.2680  221.3670 C   0  0  0  0  0  0  0  0  0  0  0  0
  140.7800   75.3660  221.9610 O   0  0  0  0  0  0  0  0  0  0  0  0
  139.2540   73.6320  221.4390 C   0  0  0  0  0  0  0  0  0  0  0  0
  139.2410   72.7580  222.5770 N   0  0  0  0  0  0  0  0  0  0  0  0
  140.0510   71.5920  222.5840 C   0  0  0  0  0  0  0  0  0  0  0  0
  140.8050   71.2520  221.6440 O   0  0  0  0  0  0  0  0  0  0  0  0
  139.9980   70.7360  223.7750 C   0  0  0  0  0  0  0  0  0  0  0  0
  139.3840   69.4920  223.7380 C   0  0  0  0  0  0  0  0  0  0  0  0
  139.3190   68.6700  224.8360 C   0  0  0  0  0  0  0  0  0  0  0  0
  139.8860   69.1000  226.0130 C   0  0  0  0  0  0  0  0  0  0  0  0
  139.8380   68.2970  227.1430 C   0  0  0  0  0  0  0  0  0  0  0  0
  140.4230   68.7670  228.3170 C   0  0  0  0  0  0  0  0  0  0  0  0
  141.0320   70.0030  228.3480 C   0  0  0  0  0  0  0  0  0  0  0  0
  141.0830   70.8070  227.2330 C   0  0  0  0  0  0  0  0  0  0  0  0
  140.5000   70.3390  226.0610 C   0  0  0  0  0  0  0  0  0  0  0  0
  140.5330   71.1010  224.9550 N   0  0  0  0  0  0  0  0  0  0  0  0
  143.0300   75.3020  219.5160 C   0  0  0  0  0  0  0  0  0  0  0  0
  142.8270   76.6480  219.7150 C   0  0  0  0  0  0  0  0  0  0  0  0
  142.9420   77.5320  218.6600 C   0  0  0  0  0  0  0  0  0  0  0  0
  143.2590   77.1340  217.3760 C   0  0  0  0  0  0  0  0  0  0  0  0
  143.4620   75.7840  217.1780 C   0  0  0  0  0  0  0  0  0  0  0  0
  143.3470   74.8880  218.2390 C   0  0  0  0  0  0  0  0  0  0  0  0
  146.0036   73.6135  222.6666 H   0  0  0  0  0  0  0  0  0  0  0  0
  146.4168   72.2865  221.5287 H   0  0  0  0  0  0  0  0  0  0  0  0
  147.3806   73.8023  221.5287 H   0  0  0  0  0  0  0  0  0  0  0  0
  145.3350   75.0402  220.8522 H   0  0  0  0  0  0  0  0  0  0  0  0
  145.9043   73.7635  219.6541 H   0  0  0  0  0  0  0  0  0  0  0  0
  144.0285   72.7749  219.6608 H   0  0  0  0  0  0  0  0  0  0  0  0
  144.0084   72.7973  221.5217 H   0  0  0  0  0  0  0  0  0  0  0  0
  142.9643   74.8260  221.5612 H   0  0  0  0  0  0  0  0  0  0  0  0
  141.4040   72.7390  220.1700 H   0  0  0  0  0  0  0  0  0  0  0  0
  138.4806   74.4059  221.5528 H   0  0  0  0  0  0  0  0  0  0  0  0
  139.0467   73.0667  220.5184 H   0  0  0  0  0  0  0  0  0  0  0  0
  138.6280   72.9920  223.3950 H   0  0  0  0  0  0  0  0  0  0  0  0
  138.9327   69.1519  222.7942 H   0  0  0  0  0  0  0  0  0  0  0  0
  138.8244   67.6893  224.7756 H   0  0  0  0  0  0  0  0  0  0  0  0
  139.3494   67.3119  227.1130 H   0  0  0  0  0  0  0  0  0  0  0  0
  140.3986   68.1472  229.2255 H   0  0  0  0  0  0  0  0  0  0  0  0
  141.4875   70.3545  229.2855 H   0  0  0  0  0  0  0  0  0  0  0  0
  141.5712   71.7921  227.2678 H   0  0  0  0  0  0  0  0  0  0  0  0
  142.5722   77.0215  220.7178 H   0  0  0  0  0  0  0  0  0  0  0  0
  142.7734   78.6021  218.8512 H   0  0  0  0  0  0  0  0  0  0  0  0
  143.3453   77.8577  216.5521 H   0  0  0  0  0  0  0  0  0  0  0  0
  143.7167   75.4119  216.1747 H   0  0  0  0  0  0  0  0  0  0  0  0
  143.5143   73.8169  218.0523 H   0  0  0  0  0  0  0  0  0  0  0  0
  1  2  1  0
  2  3  1  0
  3  4  1  0
  4  5  1  0
  5  6  1  0
  6  7  2  0
  6  8  1  0
  8  9  1  0
  9 10  1  0
 10 11  2  0
 10 12  1  0
 12 13  2  0
 13 14  1  0
 14 15  2  0
 15 16  1  0
 16 17  2  0
 17 18  1  0
 18 19  2  0
 19 20  1  0
 20 21  2  0
  4 22  1  0
 22 23  2  0
 23 24  1  0
 24 25  2  0
 25 26  1  0
 26 27  2  0
 21 12  1  0
 27 22  1  0
 20 15  1  0
  1 28  1  0
  1 29  1  0
  1 30  1  0
  2 31  1  0
  2 32  1  0
  3 33  1  0
  3 34  1  0
  4 35  1  1
  5 36  1  0
  8 37  1  0
  8 38  1  0
  9 39  1  0
 13 40  1  0
 14 41  1  0
 16 42  1  0
 17 43  1  0
 18 44  1  0
 19 45  1  0
 23 46  1  0
 24 47  1  0
 25 48  1  0
 26 49  1  0
 27 50  1  0
M  END
>  <smiles>  (40) 
CCC[C@H](NC(=O)CNC(=O)c1ccc2ccccc2n1)c1ccccc1

>  <score_type>  (40) 
oracle

>  <origin>  (40) 
autodockgpu

>  <m_score__min__energy>  (40) 
-8.8900000000000006

>  <m_primary>  (40) 
energy

>  <rmsd>  (40) 
5.645157011733116

>  <m_score__min__rmsd>  (40) 
5.645157011733116

>  <meeko>  (40) 
{"free_energy": -8.18, "intermolecular_energy": -10.27, "internal_energy": -2.0, "cluster_size": 5, "cluster_id": 3, "rank_in_cluster": 4}

>  <energy>  (40) 
-8.24

>  <cluster_rmsd>  (40) 
0.88

>  <cluster>  (40) 
1

$$$$

     RDKit          3D

 50 52  0  0  0  0  0  0  0  0999 V2000
  137.9730   80.1170  223.4890 C   0  0  0  0  0  0  0  0  0  0  0  0
  137.7500   79.6430  222.0810 C   0  0  0  0  0  0  0  0  0  0  0  0
  138.2790   78.2920  221.7760 C   0  0  0  0  0  0  0  0  0  0  0  0
  139.5590   78.2020  221.0250 C   0  0  2  0  0  0  0  0  0  0  0  0
  139.8820   76.8920  220.5890 N   0  0  0  0  0  0  0  0  0  0  0  0
  139.8230   75.8330  221.5730 C   0  0  0  0  0  0  0  0  0  0  0  0
  139.4970   76.0660  222.7690 O   0  0  0  0  0  0  0  0  0  0  0  0
  140.1520   74.4310  221.1860 C   0  0  0  0  0  0  0  0  0  0  0  0
  139.9790   73.6030  222.3460 N   0  0  0  0  0  0  0  0  0  0  0  0
  140.4750   72.2730  222.3450 C   0  0  0  0  0  0  0  0  0  0  0  0
  141.0730   71.7430  221.3810 O   0  0  0  0  0  0  0  0  0  0  0  0
  140.2710   71.4710  223.5580 C   0  0  0  0  0  0  0  0  0  0  0  0
  139.6280   70.2430  223.5080 C   0  0  0  0  0  0  0  0  0  0  0  0
  139.4220   69.4720  224.6260 C   0  0  0  0  0  0  0  0  0  0  0  0
  139.8730   69.9410  225.8380 C   0  0  0  0  0  0  0  0  0  0  0  0
  139.6830   69.1900  226.9890 C   0  0  0  0  0  0  0  0  0  0  0  0
  140.1540   69.6980  228.1980 C   0  0  0  0  0  0  0  0  0  0  0  0
  140.7920   70.9180  228.2420 C   0  0  0  0  0  0  0  0  0  0  0  0
  140.9850   71.6710  227.1060 C   0  0  0  0  0  0  0  0  0  0  0  0
  140.5150   71.1650  225.8990 C   0  0  0  0  0  0  0  0  0  0  0  0
  140.6880   71.8750  224.7720 N   0  0  0  0  0  0  0  0  0  0  0  0
  140.6640   78.8590  221.7760 C   0  0  0  0  0  0  0  0  0  0  0  0
  141.5020   79.7990  221.2200 C   0  0  0  0  0  0  0  0  0  0  0  0
  142.5070   80.3670  221.9780 C   0  0  0  0  0  0  0  0  0  0  0  0
  142.7300   80.0390  223.3010 C   0  0  0  0  0  0  0  0  0  0  0  0
  141.8900   79.0970  223.8560 C   0  0  0  0  0  0  0  0  0  0  0  0
  140.8740   78.5200  223.0960 C   0  0  0  0  0  0  0  0  0  0  0  0
  137.6136   79.3532  224.1943 H   0  0  0  0  0  0  0  0  0  0  0  0
  139.0470   80.2901  223.6518 H   0  0  0  0  0  0  0  0  0  0  0  0
  137.4216   81.0548  223.6518 H   0  0  0  0  0  0  0  0  0  0  0  0
  136.6662   79.6340  221.8931 H   0  0  0  0  0  0  0  0  0  0  0  0
  138.3036   80.3396  221.4343 H   0  0  0  0  0  0  0  0  0  0  0  0
  138.4238   77.7723  222.7346 H   0  0  0  0  0  0  0  0  0  0  0  0
  137.5312   77.8471  221.1031 H   0  0  0  0  0  0  0  0  0  0  0  0
  139.4138   78.7638  220.0905 H   0  0  0  0  0  0  0  0  0  0  0  0
  140.1480   76.5820  219.6370 H   0  0  0  0  0  0  0  0  0  0  0  0
  139.4780   74.0964  220.3836 H   0  0  0  0  0  0  0  0  0  0  0  0
  141.1870   74.3667  220.8191 H   0  0  0  0  0  0  0  0  0  0  0  0
  139.4840   73.9920  223.1840 H   0  0  0  0  0  0  0  0  0  0  0  0
  139.2695   69.8725  222.5363 H   0  0  0  0  0  0  0  0  0  0  0  0
  138.9083   68.5020  224.5538 H   0  0  0  0  0  0  0  0  0  0  0  0
  139.1725   68.2165  226.9481 H   0  0  0  0  0  0  0  0  0  0  0  0
  140.0153   69.1206  229.1240 H   0  0  0  0  0  0  0  0  0  0  0  0
  141.1558   71.2994  229.2075 H   0  0  0  0  0  0  0  0  0  0  0  0
  141.4958   72.6441  227.1516 H   0  0  0  0  0  0  0  0  0  0  0  0
  141.3708   80.0984  220.1697 H   0  0  0  0  0  0  0  0  0  0  0  0
  143.1604   81.1156  221.5061 H   0  0  0  0  0  0  0  0  0  0  0  0
  143.5379   80.5063  223.8832 H   0  0  0  0  0  0  0  0  0  0  0  0
  142.0226   78.7986  224.9064 H   0  0  0  0  0  0  0  0  0  0  0  0
  140.2189   77.7704  223.5640 H   0  0  0  0  0  0  0  0  0  0  0  0
  1  2  1  0
  2  3  1  0
  3  4  1  0
  4  5  1  0
  5  6  1  0
  6  7  2  0
  6  8  1  0
  8  9  1  0
  9 10  1  0
 10 11  2  0
 10 12  1  0
 12 13  2  0
 13 14  1  0
 14 15  2  0
 15 16  1  0
 16 17  2  0
 17 18  1  0
 18 19  2  0
 19 20  1  0
 20 21  2  0
  4 22  1  0
 22 23  2  0
 23 24  1  0
 24 25  2  0
 25 26  1  0
 26 27  2  0
 21 12  1  0
 27 22  1  0
 20 15  1  0
  1 28  1  0
  1 29  1  0
  1 30  1  0
  2 31  1  0
  2 32  1  0
  3 33  1  0
  3 34  1  0
  4 35  1  6
  5 36  1  0
  8 37  1  0
  8 38  1  0
  9 39  1  0
 13 40  1  0
 14 41  1  0
 16 42  1  0
 17 43  1  0
 18 44  1  0
 19 45  1  0
 23 46  1  0
 24 47  1  0
 25 48  1  0
 26 49  1  0
 27 50  1  0
M  END
>  <smiles>  (41) 
CCC[C@H](NC(=O)CNC(=O)c1ccc2ccccc2n1)c1ccccc1

>  <score_type>  (41) 
oracle

>  <origin>  (41) 
autodockgpu

>  <m_score__min__energy>  (41) 
-8.8900000000000006

>  <m_primary>  (41) 
energy

>  <rmsd>  (41) 
4.260691783804947

>  <m_score__min__rmsd>  (41) 
4.260691783804947

>  <meeko>  (41) 
{"free_energy": -8.24, "intermolecular_energy": -10.33, "internal_energy": -1.79, "cluster_size": 43, "cluster_id": 1, "rank_in_cluster": 40}

>  <energy>  (41) 
-8.04

>  <cluster_rmsd>  (41) 
1.87

>  <cluster>  (41) 
1

$$$$

     RDKit          3D

 50 52  0  0  0  0  0  0  0  0999 V2000
  146.2900   73.3780  221.5770 C   0  0  0  0  0  0  0  0  0  0  0  0
  145.3340   74.1300  220.6940 C   0  0  0  0  0  0  0  0  0  0  0  0
  144.0030   73.5010  220.5210 C   0  0  0  0  0  0  0  0  0  0  0  0
  142.8040   74.3700  220.6560 C   0  0  2  0  0  0  0  0  0  0  0  0
  141.5740   73.6630  220.6370 N   0  0  0  0  0  0  0  0  0  0  0  0
  140.4640   74.2450  221.3590 C   0  0  0  0  0  0  0  0  0  0  0  0
  140.5860   75.3360  221.9800 O   0  0  0  0  0  0  0  0  0  0  0  0
  139.1420   73.5570  221.3830 C   0  0  0  0  0  0  0  0  0  0  0  0
  139.1200   72.6840  222.5230 N   0  0  0  0  0  0  0  0  0  0  0  0
  140.0280   71.5960  222.5970 C   0  0  0  0  0  0  0  0  0  0  0  0
  140.8780   71.3250  221.7180 O   0  0  0  0  0  0  0  0  0  0  0  0
  139.9620   70.7360  223.7850 C   0  0  0  0  0  0  0  0  0  0  0  0
  139.3140   69.5100  223.7500 C   0  0  0  0  0  0  0  0  0  0  0  0
  139.2360   68.6860  224.8450 C   0  0  0  0  0  0  0  0  0  0  0  0
  139.8240   69.0970  226.0190 C   0  0  0  0  0  0  0  0  0  0  0  0
  139.7640   68.2910  227.1470 C   0  0  0  0  0  0  0  0  0  0  0  0
  140.3720   68.7400  228.3170 C   0  0  0  0  0  0  0  0  0  0  0  0
  141.0140   69.9600  228.3470 C   0  0  0  0  0  0  0  0  0  0  0  0
  141.0780   70.7660  227.2340 C   0  0  0  0  0  0  0  0  0  0  0  0
  140.4720   70.3180  226.0660 C   0  0  0  0  0  0  0  0  0  0  0  0
  140.5170   71.0820  224.9620 N   0  0  0  0  0  0  0  0  0  0  0  0
  142.8480   75.4940  219.6800 C   0  0  0  0  0  0  0  0  0  0  0  0
  142.4770   76.7820  219.9930 C   0  0  0  0  0  0  0  0  0  0  0  0
  142.5440   77.7760  219.0370 C   0  0  0  0  0  0  0  0  0  0  0  0
  142.9750   77.5480  217.7440 C   0  0  0  0  0  0  0  0  0  0  0  0
  143.3450   76.2580  217.4320 C   0  0  0  0  0  0  0  0  0  0  0  0
  143.2790   75.2510  218.3930 C   0  0  0  0  0  0  0  0  0  0  0  0
  146.0443   73.5712  222.6317 H   0  0  0  0  0  0  0  0  0  0  0  0
  146.2074   72.3003  221.3728 H   0  0  0  0  0  0  0  0  0  0  0  0
  147.3179   73.7121  221.3728 H   0  0  0  0  0  0  0  0  0  0  0  0
  145.1838   75.1291  221.1291 H   0  0  0  0  0  0  0  0  0  0  0  0
  145.7936   74.1489  219.6948 H   0  0  0  0  0  0  0  0  0  0  0  0
  143.9769   73.0596  219.5138 H   0  0  0  0  0  0  0  0  0  0  0  0
  143.9232   72.7866  221.3537 H   0  0  0  0  0  0  0  0  0  0  0  0
  142.8452   74.8058  221.6652 H   0  0  0  0  0  0  0  0  0  0  0  0
  141.3550   72.7740  220.1530 H   0  0  0  0  0  0  0  0  0  0  0  0
  138.3352   74.3002  221.4656 H   0  0  0  0  0  0  0  0  0  0  0  0
  138.9920   72.9824  220.4571 H   0  0  0  0  0  0  0  0  0  0  0  0
  138.4290   72.8620  223.2900 H   0  0  0  0  0  0  0  0  0  0  0  0
  138.8450   69.1859  222.8093 H   0  0  0  0  0  0  0  0  0  0  0  0
  138.7152   67.7190  224.7853 H   0  0  0  0  0  0  0  0  0  0  0  0
  139.2482   67.3199  227.1179 H   0  0  0  0  0  0  0  0  0  0  0  0
  140.3398   68.1172  229.2231 H   0  0  0  0  0  0  0  0  0  0  0  0
  141.4857   70.2964  229.2821 H   0  0  0  0  0  0  0  0  0  0  0  0
  141.5938   71.7370  227.2674 H   0  0  0  0  0  0  0  0  0  0  0  0
  142.1260   77.0202  221.0079 H   0  0  0  0  0  0  0  0  0  0  0  0
  142.2406   78.7955  219.3173 H   0  0  0  0  0  0  0  0  0  0  0  0
  143.0205   78.3570  217.0001 H   0  0  0  0  0  0  0  0  0  0  0  0
  143.6952   76.0212  216.4165 H   0  0  0  0  0  0  0  0  0  0  0  0
  143.5803   74.2299  218.1161 H   0  0  0  0  0  0  0  0  0  0  0  0
  1  2  1  0
  2  3  1  0
  3  4  1  0
  4  5  1  0
  5  6  1  0
  6  7  2  0
  6  8  1  0
  8  9  1  0
  9 10  1  0
 10 11  2  0
 10 12  1  0
 12 13  2  0
 13 14  1  0
 14 15  2  0
 15 16  1  0
 16 17  2  0
 17 18  1  0
 18 19  2  0
 19 20  1  0
 20 21  2  0
  4 22  1  0
 22 23  2  0
 23 24  1  0
 24 25  2  0
 25 26  1  0
 26 27  2  0
 21 12  1  0
 27 22  1  0
 20 15  1  0
  1 28  1  0
  1 29  1  0
  1 30  1  0
  2 31  1  0
  2 32  1  0
  3 33  1  0
  3 34  1  0
  4 35  1  1
  5 36  1  0
  8 37  1  0
  8 38  1  0
  9 39  1  0
 13 40  1  0
 14 41  1  0
 16 42  1  0
 17 43  1  0
 18 44  1  0
 19 45  1  0
 23 46  1  0
 24 47  1  0
 25 48  1  0
 26 49  1  0
 27 50  1  0
M  END
>  <smiles>  (42) 
CCC[C@H](NC(=O)CNC(=O)c1ccc2ccccc2n1)c1ccccc1

>  <score_type>  (42) 
oracle

>  <origin>  (42) 
autodockgpu

>  <m_score__min__energy>  (42) 
-8.8900000000000006

>  <m_primary>  (42) 
energy

>  <rmsd>  (42) 
5.473376565356295

>  <m_score__min__rmsd>  (42) 
5.473376565356295

>  <meeko>  (42) 
{"free_energy": -8.24, "intermolecular_energy": -10.33, "internal_energy": -1.94, "cluster_size": 5, "cluster_id": 3, "rank_in_cluster": 3}

>  <energy>  (42) 
-7.88

>  <cluster_rmsd>  (42) 
1.94

>  <cluster>  (42) 
1

$$$$

     RDKit          3D

 50 52  0  0  0  0  0  0  0  0999 V2000
  138.3490   80.0360  223.8460 C   0  0  0  0  0  0  0  0  0  0  0  0
  138.0160   79.0240  222.7850 C   0  0  0  0  0  0  0  0  0  0  0  0
  138.8970   77.8320  222.7480 C   0  0  0  0  0  0  0  0  0  0  0  0
  140.1170   77.8990  221.9000 C   0  0  2  0  0  0  0  0  0  0  0  0
  140.7460   76.6440  221.6950 N   0  0  0  0  0  0  0  0  0  0  0  0
  139.8900   75.5080  221.4350 C   0  0  0  0  0  0  0  0  0  0  0  0
  138.6350   75.6280  221.3930 O   0  0  0  0  0  0  0  0  0  0  0  0
  140.4820   74.1580  221.2100 C   0  0  0  0  0  0  0  0  0  0  0  0
  140.1640   73.3430  222.3470 N   0  0  0  0  0  0  0  0  0  0  0  0
  140.6880   72.0270  222.4430 C   0  0  0  0  0  0  0  0  0  0  0  0
  141.4330   71.5000  221.5850 O   0  0  0  0  0  0  0  0  0  0  0  0
  140.3300   71.2380  223.6280 C   0  0  0  0  0  0  0  0  0  0  0  0
  139.5980   70.0650  223.5160 C   0  0  0  0  0  0  0  0  0  0  0  0
  139.2490   69.3070  224.6060 C   0  0  0  0  0  0  0  0  0  0  0  0
  139.6420   69.7320  225.8540 C   0  0  0  0  0  0  0  0  0  0  0  0
  139.3070   68.9920  226.9790 C   0  0  0  0  0  0  0  0  0  0  0  0
  139.7230   69.4540  228.2250 C   0  0  0  0  0  0  0  0  0  0  0  0
  140.4500   70.6210  228.3310 C   0  0  0  0  0  0  0  0  0  0  0  0
  140.7870   71.3610  227.2210 C   0  0  0  0  0  0  0  0  0  0  0  0
  140.3720   70.9010  225.9770 C   0  0  0  0  0  0  0  0  0  0  0  0
  140.6850   71.6010  224.8740 N   0  0  0  0  0  0  0  0  0  0  0  0
  141.0510   78.9480  222.3930 C   0  0  0  0  0  0  0  0  0  0  0  0
  141.4100   80.0500  221.6510 C   0  0  0  0  0  0  0  0  0  0  0  0
  142.2830   80.9850  222.1720 C   0  0  0  0  0  0  0  0  0  0  0  0
  142.8350   80.8770  223.4340 C   0  0  0  0  0  0  0  0  0  0  0  0
  142.4750   79.7720  224.1760 C   0  0  0  0  0  0  0  0  0  0  0  0
  141.5950   78.8260  223.6550 C   0  0  0  0  0  0  0  0  0  0  0  0
  138.2015   79.5876  224.8396 H   0  0  0  0  0  0  0  0  0  0  0  0
  139.3977   80.3496  223.7373 H   0  0  0  0  0  0  0  0  0  0  0  0
  137.6914   80.9111  223.7373 H   0  0  0  0  0  0  0  0  0  0  0  0
  136.9852   78.6797  222.9552 H   0  0  0  0  0  0  0  0  0  0  0  0
  138.1560   79.5359  221.8215 H   0  0  0  0  0  0  0  0  0  0  0  0
  139.2244   77.6336  223.7792 H   0  0  0  0  0  0  0  0  0  0  0  0
  138.2812   77.0459  222.2868 H   0  0  0  0  0  0  0  0  0  0  0  0
  139.7843   78.1977  220.8950 H   0  0  0  0  0  0  0  0  0  0  0  0
  141.7590   76.4300  221.6920 H   0  0  0  0  0  0  0  0  0  0  0  0
  140.0577   73.7108  220.2990 H   0  0  0  0  0  0  0  0  0  0  0  0
  141.5723   74.2333  221.0849 H   0  0  0  0  0  0  0  0  0  0  0  0
  139.5430   73.7300  223.0980 H   0  0  0  0  0  0  0  0  0  0  0  0
  139.2854   69.7296  222.5161 H   0  0  0  0  0  0  0  0  0  0  0  0
  138.6682   68.3808  224.4843 H   0  0  0  0  0  0  0  0  0  0  0  0
  138.7264   68.0621  226.8887 H   0  0  0  0  0  0  0  0  0  0  0  0
  139.4699   68.8840  229.1312 H   0  0  0  0  0  0  0  0  0  0  0  0
  140.7676   70.9681  229.3253 H   0  0  0  0  0  0  0  0  0  0  0  0
  141.3683   72.2901  227.3156 H   0  0  0  0  0  0  0  0  0  0  0  0
  141.0002   80.1867  220.6394 H   0  0  0  0  0  0  0  0  0  0  0  0
  142.5509   81.8549  221.5543 H   0  0  0  0  0  0  0  0  0  0  0  0
  143.5278   81.6354  223.8275 H   0  0  0  0  0  0  0  0  0  0  0  0
  142.8859   79.6364  225.1873 H   0  0  0  0  0  0  0  0  0  0  0  0
  141.3254   77.9542  224.2692 H   0  0  0  0  0  0  0  0  0  0  0  0
  1  2  1  0
  2  3  1  0
  3  4  1  0
  4  5  1  0
  5  6  1  0
  6  7  2  0
  6  8  1  0
  8  9  1  0
  9 10  1  0
 10 11  2  0
 10 12  1  0
 12 13  2  0
 13 14  1  0
 14 15  2  0
 15 16  1  0
 16 17  2  0
 17 18  1  0
 18 19  2  0
 19 20  1  0
 20 21  2  0
  4 22  1  0
 22 23  2  0
 23 24  1  0
 24 25  2  0
 25 26  1  0
 26 27  2  0
 21 12  1  0
 27 22  1  0
 20 15  1  0
  1 28  1  0
  1 29  1  0
  1 30  1  0
  2 31  1  0
  2 32  1  0
  3 33  1  0
  3 34  1  0
  4 35  1  6
  5 36  1  0
  8 37  1  0
  8 38  1  0
  9 39  1  0
 13 40  1  0
 14 41  1  0
 16 42  1  0
 17 43  1  0
 18 44  1  0
 19 45  1  0
 23 46  1  0
 24 47  1  0
 25 48  1  0
 26 49  1  0
 27 50  1  0
M  END
>  <smiles>  (43) 
CCC[C@H](NC(=O)CNC(=O)c1ccc2ccccc2n1)c1ccccc1

>  <score_type>  (43) 
oracle

>  <origin>  (43) 
autodockgpu

>  <m_score__min__energy>  (43) 
-8.8900000000000006

>  <m_primary>  (43) 
energy

>  <rmsd>  (43) 
4.1465441380309445

>  <m_score__min__rmsd>  (43) 
4.1465441380309445

>  <meeko>  (43) 
{"free_energy": -8.87, "intermolecular_energy": -10.96, "internal_energy": -1.1, "cluster_size": 43, "cluster_id": 1, "rank_in_cluster": 2}

>  <energy>  (43) 
-7.84

>  <cluster_rmsd>  (43) 
1.87

>  <cluster>  (43) 
1

$$$$

     RDKit          3D

 50 52  0  0  0  0  0  0  0  0999 V2000
  142.8840   80.5090  223.5920 C   0  0  0  0  0  0  0  0  0  0  0  0
  141.6180   79.7370  223.8380 C   0  0  0  0  0  0  0  0  0  0  0  0
  141.6730   78.2990  223.4810 C   0  0  0  0  0  0  0  0  0  0  0  0
  140.8820   77.8470  222.3070 C   0  0  2  0  0  0  0  0  0  0  0  0
  141.0690   76.4800  221.9750 N   0  0  0  0  0  0  0  0  0  0  0  0
  139.9150   75.7480  221.5040 C   0  0  0  0  0  0  0  0  0  0  0  0
  138.7870   76.3030  221.3910 O   0  0  0  0  0  0  0  0  0  0  0  0
  140.0370   74.3080  221.1380 C   0  0  0  0  0  0  0  0  0  0  0  0
  139.9250   73.5370  222.3430 N   0  0  0  0  0  0  0  0  0  0  0  0
  140.3470   72.1810  222.3570 C   0  0  0  0  0  0  0  0  0  0  0  0
  140.8270   71.5820  221.3680 O   0  0  0  0  0  0  0  0  0  0  0  0
  140.2090   71.4400  223.6170 C   0  0  0  0  0  0  0  0  0  0  0  0
  139.5800   70.2050  223.6590 C   0  0  0  0  0  0  0  0  0  0  0  0
  139.4370   69.4900  224.8220 C   0  0  0  0  0  0  0  0  0  0  0  0
  139.9380   70.0240  225.9860 C   0  0  0  0  0  0  0  0  0  0  0  0
  139.8110   69.3300  227.1810 C   0  0  0  0  0  0  0  0  0  0  0  0
  140.3310   69.9020  228.3400 C   0  0  0  0  0  0  0  0  0  0  0  0
  140.9560   71.1300  228.2930 C   0  0  0  0  0  0  0  0  0  0  0  0
  141.0860   71.8260  227.1130 C   0  0  0  0  0  0  0  0  0  0  0  0
  140.5670   71.2550  225.9560 C   0  0  0  0  0  0  0  0  0  0  0  0
  140.6780   71.9100  224.7880 N   0  0  0  0  0  0  0  0  0  0  0  0
  141.0770   78.7620  221.1480 C   0  0  0  0  0  0  0  0  0  0  0  0
  140.4900   80.0030  221.0570 C   0  0  0  0  0  0  0  0  0  0  0  0
  140.7170   80.7990  219.9510 C   0  0  0  0  0  0  0  0  0  0  0  0
  141.5240   80.4130  218.8990 C   0  0  0  0  0  0  0  0  0  0  0  0
  142.1110   79.1700  218.9920 C   0  0  0  0  0  0  0  0  0  0  0  0
  141.8860   78.3620  220.1050 C   0  0  0  0  0  0  0  0  0  0  0  0
  143.3377   80.7857  224.5551 H   0  0  0  0  0  0  0  0  0  0  0  0
  143.5880   79.8863  223.0204 H   0  0  0  0  0  0  0  0  0  0  0  0
  142.6528   81.4200  223.0204 H   0  0  0  0  0  0  0  0  0  0  0  0
  141.3767   79.8123  224.9085 H   0  0  0  0  0  0  0  0  0  0  0  0
  140.8567   80.1843  223.1819 H   0  0  0  0  0  0  0  0  0  0  0  0
  142.7260   78.0499  223.2830 H   0  0  0  0  0  0  0  0  0  0  0  0
  141.2169   77.7825  224.3385 H   0  0  0  0  0  0  0  0  0  0  0  0
  139.8241   77.9066  222.6025 H   0  0  0  0  0  0  0  0  0  0  0  0
  141.9440   75.9280  222.0140 H   0  0  0  0  0  0  0  0  0  0  0  0
  139.2334   74.0301  220.4402 H   0  0  0  0  0  0  0  0  0  0  0  0
  141.0035   74.1170  220.6486 H   0  0  0  0  0  0  0  0  0  0  0  0
  139.5290   73.9860  223.2030 H   0  0  0  0  0  0  0  0  0  0  0  0
  139.1806   69.7824  222.7253 H   0  0  0  0  0  0  0  0  0  0  0  0
  138.9331   68.5122  224.8229 H   0  0  0  0  0  0  0  0  0  0  0  0
  139.3112   68.3506  227.2124 H   0  0  0  0  0  0  0  0  0  0  0  0
  140.2423   69.3704  229.2989 H   0  0  0  0  0  0  0  0  0  0  0  0
  141.3599   71.5633  229.2199 H   0  0  0  0  0  0  0  0  0  0  0  0
  141.5859   72.8055  227.0857 H   0  0  0  0  0  0  0  0  0  0  0  0
  139.8383   80.3623  221.8670 H   0  0  0  0  0  0  0  0  0  0  0  0
  140.2327   81.7856  219.9063 H   0  0  0  0  0  0  0  0  0  0  0  0
  141.6900   81.0659  218.0294 H   0  0  0  0  0  0  0  0  0  0  0  0
  142.7626   78.8124  218.1811 H   0  0  0  0  0  0  0  0  0  0  0  0
  142.3686   77.3747  220.1531 H   0  0  0  0  0  0  0  0  0  0  0  0
  1  2  1  0
  2  3  1  0
  3  4  1  0
  4  5  1  0
  5  6  1  0
  6  7  2  0
  6  8  1  0
  8  9  1  0
  9 10  1  0
 10 11  2  0
 10 12  1  0
 12 13  2  0
 13 14  1  0
 14 15  2  0
 15 16  1  0
 16 17  2  0
 17 18  1  0
 18 19  2  0
 19 20  1  0
 20 21  2  0
  4 22  1  0
 22 23  2  0
 23 24  1  0
 24 25  2  0
 25 26  1  0
 26 27  2  0
 21 12  1  0
 27 22  1  0
 20 15  1  0
  1 28  1  0
  1 29  1  0
  1 30  1  0
  2 31  1  0
  2 32  1  0
  3 33  1  0
  3 34  1  0
  4 35  1  1
  5 36  1  0
  8 37  1  0
  8 38  1  0
  9 39  1  0
 13 40  1  0
 14 41  1  0
 16 42  1  0
 17 43  1  0
 18 44  1  0
 19 45  1  0
 23 46  1  0
 24 47  1  0
 25 48  1  0
 26 49  1  0
 27 50  1  0
M  END
>  <smiles>  (44) 
CCC[C@H](NC(=O)CNC(=O)c1ccc2ccccc2n1)c1ccccc1

>  <score_type>  (44) 
oracle

>  <origin>  (44) 
autodockgpu

>  <m_score__min__energy>  (44) 
-8.8900000000000006

>  <m_primary>  (44) 
energy

>  <rmsd>  (44) 
3.634320604423622

>  <m_score__min__rmsd>  (44) 
3.634320604423622

>  <meeko>  (44) 
{"free_energy": -8.77, "intermolecular_energy": -10.86, "internal_energy": -1.26, "cluster_size": 43, "cluster_id": 1, "rank_in_cluster": 6}

>  <energy>  (44) 
-8.77

>  <cluster_rmsd>  (44) 
0.0

>  <cluster>  (44) 
2

$$$$

     RDKit          3D

 50 52  0  0  0  0  0  0  0  0999 V2000
  141.8220   78.9820  219.3530 C   0  0  0  0  0  0  0  0  0  0  0  0
  142.5600   77.7240  218.9920 C   0  0  0  0  0  0  0  0  0  0  0  0
  142.4090   76.6030  219.9510 C   0  0  0  0  0  0  0  0  0  0  0  0
  142.3370   75.2250  219.3980 C   0  0  2  0  0  0  0  0  0  0  0  0
  141.0590   74.6210  219.5170 N   0  0  0  0  0  0  0  0  0  0  0  0
  140.4990   74.5090  220.8460 C   0  0  0  0  0  0  0  0  0  0  0  0
  141.1220   74.9330  221.8580 O   0  0  0  0  0  0  0  0  0  0  0  0
  139.1600   73.8850  221.0460 C   0  0  0  0  0  0  0  0  0  0  0  0
  139.2060   73.1260  222.2640 N   0  0  0  0  0  0  0  0  0  0  0  0
  140.0710   72.0060  222.3670 C   0  0  0  0  0  0  0  0  0  0  0  0
  140.8250   71.6110  221.4490 O   0  0  0  0  0  0  0  0  0  0  0  0
  140.0770   71.2670  223.6350 C   0  0  0  0  0  0  0  0  0  0  0  0
  139.5890   69.9710  223.7140 C   0  0  0  0  0  0  0  0  0  0  0  0
  139.5820   69.2560  224.8870 C   0  0  0  0  0  0  0  0  0  0  0  0
  140.0790   69.8540  226.0220 C   0  0  0  0  0  0  0  0  0  0  0  0
  140.0870   69.1630  227.2260 C   0  0  0  0  0  0  0  0  0  0  0  0
  140.5980   69.8000  228.3540 C   0  0  0  0  0  0  0  0  0  0  0  0
  141.0820   71.0880  228.2700 C   0  0  0  0  0  0  0  0  0  0  0  0
  141.0770   71.7820  227.0810 C   0  0  0  0  0  0  0  0  0  0  0  0
  140.5670   71.1460  225.9550 C   0  0  0  0  0  0  0  0  0  0  0  0
  140.5490   71.7970  224.7790 N   0  0  0  0  0  0  0  0  0  0  0  0
  143.4360   74.3770  219.9370 C   0  0  0  0  0  0  0  0  0  0  0  0
  144.6340   74.8870  220.3840 C   0  0  0  0  0  0  0  0  0  0  0  0
  145.6100   74.0400  220.8720 C   0  0  0  0  0  0  0  0  0  0  0  0
  145.4510   72.6700  220.9420 C   0  0  0  0  0  0  0  0  0  0  0  0
  144.2510   72.1610  220.4940 C   0  0  0  0  0  0  0  0  0  0  0  0
  143.2630   73.0100  220.0000 C   0  0  0  0  0  0  0  0  0  0  0  0
  141.7680   79.0741  220.4478 H   0  0  0  0  0  0  0  0  0  0  0  0
  142.3536   79.8509  218.9377 H   0  0  0  0  0  0  0  0  0  0  0  0
  140.8042   78.9420  218.9377 H   0  0  0  0  0  0  0  0  0  0  0  0
  142.1936   77.3844  218.0120 H   0  0  0  0  0  0  0  0  0  0  0  0
  143.6283   77.9862  218.9966 H   0  0  0  0  0  0  0  0  0  0  0  0
  143.2697   76.6378  220.6351 H   0  0  0  0  0  0  0  0  0  0  0  0
  141.4264   76.7669  220.4175 H   0  0  0  0  0  0  0  0  0  0  0  0
  142.4890   75.3157  218.3123 H   0  0  0  0  0  0  0  0  0  0  0  0
  140.4530   74.2530  218.7610 H   0  0  0  0  0  0  0  0  0  0  0  0
  138.3903   74.6672  221.1216 H   0  0  0  0  0  0  0  0  0  0  0  0
  138.9098   73.2326  220.1964 H   0  0  0  0  0  0  0  0  0  0  0  0
  138.5950   73.4100  223.0670 H   0  0  0  0  0  0  0  0  0  0  0  0
  139.1928   69.4981  222.8033 H   0  0  0  0  0  0  0  0  0  0  0  0
  139.1882   68.2294  224.9180 H   0  0  0  0  0  0  0  0  0  0  0  0
  139.6986   68.1357  227.2876 H   0  0  0  0  0  0  0  0  0  0  0  0
  140.6156   69.2717  229.3187 H   0  0  0  0  0  0  0  0  0  0  0  0
  141.4812   71.5722  229.1734 H   0  0  0  0  0  0  0  0  0  0  0  0
  141.4652   72.8096  227.0237 H   0  0  0  0  0  0  0  0  0  0  0  0
  144.8145   75.9716  220.3525 H   0  0  0  0  0  0  0  0  0  0  0  0
  146.5574   74.4768  221.2208 H   0  0  0  0  0  0  0  0  0  0  0  0
  146.2434   72.0168  221.3361 H   0  0  0  0  0  0  0  0  0  0  0  0
  144.0720   71.0762  220.5268 H   0  0  0  0  0  0  0  0  0  0  0  0
  142.3149   72.5764  219.6491 H   0  0  0  0  0  0  0  0  0  0  0  0
  1  2  1  0
  2  3  1  0
  3  4  1  0
  4  5  1  0
  5  6  1  0
  6  7  2  0
  6  8  1  0
  8  9  1  0
  9 10  1  0
 10 11  2  0
 10 12  1  0
 12 13  2  0
 13 14  1  0
 14 15  2  0
 15 16  1  0
 16 17  2  0
 17 18  1  0
 18 19  2  0
 19 20  1  0
 20 21  2  0
  4 22  1  0
 22 23  2  0
 23 24  1  0
 24 25  2  0
 25 26  1  0
 26 27  2  0
 21 12  1  0
 27 22  1  0
 20 15  1  0
  1 28  1  0
  1 29  1  0
  1 30  1  0
  2 31  1  0
  2 32  1  0
  3 33  1  0
  3 34  1  0
  4 35  1  6
  5 36  1  0
  8 37  1  0
  8 38  1  0
  9 39  1  0
 13 40  1  0
 14 41  1  0
 16 42  1  0
 17 43  1  0
 18 44  1  0
 19 45  1  0
 23 46  1  0
 24 47  1  0
 25 48  1  0
 26 49  1  0
 27 50  1  0
M  END
>  <smiles>  (45) 
CCC[C@H](NC(=O)CNC(=O)c1ccc2ccccc2n1)c1ccccc1

>  <score_type>  (45) 
oracle

>  <origin>  (45) 
autodockgpu

>  <m_score__min__energy>  (45) 
-8.8900000000000006

>  <m_primary>  (45) 
energy

>  <rmsd>  (45) 
6.373580405479088

>  <m_score__min__rmsd>  (45) 
6.373580405479088

>  <meeko>  (45) 
{"free_energy": -8.28, "intermolecular_energy": -10.37, "internal_energy": -1.59, "cluster_size": 5, "cluster_id": 3, "rank_in_cluster": 2}

>  <energy>  (45) 
-8.3

>  <cluster_rmsd>  (45) 
0.0

>  <cluster>  (45) 
3

$$$$

     RDKit          3D

 50 52  0  0  0  0  0  0  0  0999 V2000
  142.5070   80.6990  223.8410 C   0  0  0  0  0  0  0  0  0  0  0  0
  142.6040   79.4250  223.0500 C   0  0  0  0  0  0  0  0  0  0  0  0
  141.3700   78.6040  223.0160 C   0  0  0  0  0  0  0  0  0  0  0  0
  140.7300   78.3710  221.6950 C   0  0  2  0  0  0  0  0  0  0  0  0
  140.9250   77.0630  221.1810 N   0  0  0  0  0  0  0  0  0  0  0  0
  140.0960   76.0080  221.7220 C   0  0  0  0  0  0  0  0  0  0  0  0
  139.2350   76.2430  222.6140 O   0  0  0  0  0  0  0  0  0  0  0  0
  140.2460   74.6090  221.2300 C   0  0  0  0  0  0  0  0  0  0  0  0
  140.0080   73.7250  222.3360 N   0  0  0  0  0  0  0  0  0  0  0  0
  140.5650   72.4190  222.3310 C   0  0  0  0  0  0  0  0  0  0  0  0
  141.2730   71.9590  221.4070 O   0  0  0  0  0  0  0  0  0  0  0  0
  140.2890   71.5590  223.4880 C   0  0  0  0  0  0  0  0  0  0  0  0
  139.6020   70.3630  223.3460 C   0  0  0  0  0  0  0  0  0  0  0  0
  139.3300   69.5390  224.4100 C   0  0  0  0  0  0  0  0  0  0  0  0
  139.7580   69.9190  225.6610 C   0  0  0  0  0  0  0  0  0  0  0  0
  139.5000   69.1120  226.7600 C   0  0  0  0  0  0  0  0  0  0  0  0
  139.9490   69.5300  228.0110 C   0  0  0  0  0  0  0  0  0  0  0  0
  140.6320   70.7200  228.1460 C   0  0  0  0  0  0  0  0  0  0  0  0
  140.8910   71.5270  227.0620 C   0  0  0  0  0  0  0  0  0  0  0  0
  140.4430   71.1110  225.8140 C   0  0  0  0  0  0  0  0  0  0  0  0
  140.6810   71.8770  224.7360 N   0  0  0  0  0  0  0  0  0  0  0  0
  141.1010   79.4400  220.7270 C   0  0  0  0  0  0  0  0  0  0  0  0
  140.7470   80.7600  220.8870 C   0  0  0  0  0  0  0  0  0  0  0  0
  141.1270   81.7000  219.9480 C   0  0  0  0  0  0  0  0  0  0  0  0
  141.8630   81.3840  218.8230 C   0  0  0  0  0  0  0  0  0  0  0  0
  142.2160   80.0610  218.6640 C   0  0  0  0  0  0  0  0  0  0  0  0
  141.8360   79.1090  219.6080 C   0  0  0  0  0  0  0  0  0  0  0  0
  142.5248   80.4655  224.9158 H   0  0  0  0  0  0  0  0  0  0  0  0
  143.3582   81.3502  223.5931 H   0  0  0  0  0  0  0  0  0  0  0  0
  141.5671   81.2138  223.5931 H   0  0  0  0  0  0  0  0  0  0  0  0
  142.8661   79.6873  222.0144 H   0  0  0  0  0  0  0  0  0  0  0  0
  143.3638   78.8107  223.5553 H   0  0  0  0  0  0  0  0  0  0  0  0
  141.6191   77.6193  223.4383 H   0  0  0  0  0  0  0  0  0  0  0  0
  140.6313   79.1898  223.5827 H   0  0  0  0  0  0  0  0  0  0  0  0
  139.6441   78.4338  221.8591 H   0  0  0  0  0  0  0  0  0  0  0  0
  141.5860   76.7570  220.4450 H   0  0  0  0  0  0  0  0  0  0  0  0
  139.5156   74.4133  220.4311 H   0  0  0  0  0  0  0  0  0  0  0  0
  141.2561   74.4516  220.8238 H   0  0  0  0  0  0  0  0  0  0  0  0
  139.4210   74.0570  223.1390 H   0  0  0  0  0  0  0  0  0  0  0  0
  139.2623   70.0632  222.3436 H   0  0  0  0  0  0  0  0  0  0  0  0
  138.7822   68.5962  224.2654 H   0  0  0  0  0  0  0  0  0  0  0  0
  138.9536   68.1641  226.6461 H   0  0  0  0  0  0  0  0  0  0  0  0
  139.7573   68.9065  228.8967 H   0  0  0  0  0  0  0  0  0  0  0  0
  140.9777   71.0313  229.1428 H   0  0  0  0  0  0  0  0  0  0  0  0
  141.4372   72.4745  227.1799 H   0  0  0  0  0  0  0  0  0  0  0  0
  140.1599   81.0679  221.7648 H   0  0  0  0  0  0  0  0  0  0  0  0
  140.8297   82.7476  220.1037 H   0  0  0  0  0  0  0  0  0  0  0  0
  142.1534   82.1506  218.0896 H   0  0  0  0  0  0  0  0  0  0  0  0
  142.8022   79.7544  217.7852 H   0  0  0  0  0  0  0  0  0  0  0  0
  142.1316   78.0604  219.4558 H   0  0  0  0  0  0  0  0  0  0  0  0
  1  2  1  0
  2  3  1  0
  3  4  1  0
  4  5  1  0
  5  6  1  0
  6  7  2  0
  6  8  1  0
  8  9  1  0
  9 10  1  0
 10 11  2  0
 10 12  1  0
 12 13  2  0
 13 14  1  0
 14 15  2  0
 15 16  1  0
 16 17  2  0
 17 18  1  0
 18 19  2  0
 19 20  1  0
 20 21  2  0
  4 22  1  0
 22 23  2  0
 23 24  1  0
 24 25  2  0
 25 26  1  0
 26 27  2  0
 21 12  1  0
 27 22  1  0
 20 15  1  0
  1 28  1  0
  1 29  1  0
  1 30  1  0
  2 31  1  0
  2 32  1  0
  3 33  1  0
  3 34  1  0
  4 35  1  1
  5 36  1  0
  8 37  1  0
  8 38  1  0
  9 39  1  0
 13 40  1  0
 14 41  1  0
 16 42  1  0
 17 43  1  0
 18 44  1  0
 19 45  1  0
 23 46  1  0
 24 47  1  0
 25 48  1  0
 26 49  1  0
 27 50  1  0
M  END
>  <smiles>  (46) 
CCC[C@H](NC(=O)CNC(=O)c1ccc2ccccc2n1)c1ccccc1

>  <score_type>  (46) 
oracle

>  <origin>  (46) 
autodockgpu

>  <m_score__min__energy>  (46) 
-8.8900000000000006

>  <m_primary>  (46) 
energy

>  <rmsd>  (46) 
3.4739094185494492

>  <m_score__min__rmsd>  (46) 
3.4739094185494492

>  <meeko>  (46) 
{"free_energy": -8.3, "intermolecular_energy": -10.39, "internal_energy": -1.7, "cluster_size": 43, "cluster_id": 1, "rank_in_cluster": 28}

>  <energy>  (46) 
-8.28

>  <cluster_rmsd>  (46) 
0.35

>  <cluster>  (46) 
3

$$$$

     RDKit          3D

 50 52  0  0  0  0  0  0  0  0999 V2000
  143.3200   76.3690  219.4260 C   0  0  0  0  0  0  0  0  0  0  0  0
  142.3740   77.3140  218.7390 C   0  0  0  0  0  0  0  0  0  0  0  0
  141.0440   77.4560  219.3790 C   0  0  0  0  0  0  0  0  0  0  0  0
  140.8440   76.8190  220.7080 C   0  0  2  0  0  0  0  0  0  0  0  0
  139.7970   75.8630  220.7390 N   0  0  0  0  0  0  0  0  0  0  0  0
  140.0080   74.6740  221.5350 C   0  0  0  0  0  0  0  0  0  0  0  0
  141.0800   74.4960  222.1760 O   0  0  0  0  0  0  0  0  0  0  0  0
  138.9510   73.6250  221.6130 C   0  0  0  0  0  0  0  0  0  0  0  0
  139.2750   72.7550  222.7070 N   0  0  0  0  0  0  0  0  0  0  0  0
  138.7050   71.4560  222.7690 C   0  0  0  0  0  0  0  0  0  0  0  0
  137.9150   70.9900  221.9160 O   0  0  0  0  0  0  0  0  0  0  0  0
  139.0720   70.6080  223.9100 C   0  0  0  0  0  0  0  0  0  0  0  0
  138.7770   69.2520  223.9220 C   0  0  0  0  0  0  0  0  0  0  0  0
  139.1070   68.4350  224.9750 C   0  0  0  0  0  0  0  0  0  0  0  0
  139.7540   68.9870  226.0560 C   0  0  0  0  0  0  0  0  0  0  0  0
  140.1020   68.1930  227.1390 C   0  0  0  0  0  0  0  0  0  0  0  0
  140.7570   68.7870  228.2150 C   0  0  0  0  0  0  0  0  0  0  0  0
  141.0470   70.1350  228.1990 C   0  0  0  0  0  0  0  0  0  0  0  0
  140.7050   70.9310  227.1300 C   0  0  0  0  0  0  0  0  0  0  0  0
  140.0520   70.3380  226.0550 C   0  0  0  0  0  0  0  0  0  0  0  0
  139.7050   71.0890  224.9960 N   0  0  0  0  0  0  0  0  0  0  0  0
  140.7280   77.8470  221.7790 C   0  0  0  0  0  0  0  0  0  0  0  0
  139.5730   78.0670  222.4950 C   0  0  0  0  0  0  0  0  0  0  0  0
  139.5380   79.0380  223.4760 C   0  0  0  0  0  0  0  0  0  0  0  0
  140.6270   79.8280  223.7920 C   0  0  0  0  0  0  0  0  0  0  0  0
  141.7820   79.6070  223.0740 C   0  0  0  0  0  0  0  0  0  0  0  0
  141.8240   78.6280  222.0830 C   0  0  0  0  0  0  0  0  0  0  0  0
  143.2154   76.4735  220.5160 H   0  0  0  0  0  0  0  0  0  0  0  0
  143.0837   75.3356  219.1323 H   0  0  0  0  0  0  0  0  0  0  0  0
  144.3531   76.6065  219.1323 H   0  0  0  0  0  0  0  0  0  0  0  0
  142.8459   78.3073  218.7119 H   0  0  0  0  0  0  0  0  0  0  0  0
  142.1879   76.8871  217.7424 H   0  0  0  0  0  0  0  0  0  0  0  0
  140.8502   78.5322  219.4982 H   0  0  0  0  0  0  0  0  0  0  0  0
  140.3547   76.9219  218.7085 H   0  0  0  0  0  0  0  0  0  0  0  0
  141.7496   76.2284  220.9105 H   0  0  0  0  0  0  0  0  0  0  0  0
  138.8750   75.9080  220.2680 H   0  0  0  0  0  0  0  0  0  0  0  0
  137.9709   74.0937  221.7855 H   0  0  0  0  0  0  0  0  0  0  0  0
  138.9037   73.0572  220.6721 H   0  0  0  0  0  0  0  0  0  0  0  0
  139.9310   73.0900  223.4520 H   0  0  0  0  0  0  0  0  0  0  0  0
  138.2593   68.8153  223.0553 H   0  0  0  0  0  0  0  0  0  0  0  0
  138.8596   67.3634  224.9546 H   0  0  0  0  0  0  0  0  0  0  0  0
  139.8660   67.1187  227.1477 H   0  0  0  0  0  0  0  0  0  0  0  0
  141.0450   68.1766  229.0836 H   0  0  0  0  0  0  0  0  0  0  0  0
  141.5634   70.5841  229.0602 H   0  0  0  0  0  0  0  0  0  0  0  0
  140.9413   72.0053  227.1259 H   0  0  0  0  0  0  0  0  0  0  0  0
  138.6751   77.4673  222.2849 H   0  0  0  0  0  0  0  0  0  0  0  0
  138.6006   79.1897  224.0313 H   0  0  0  0  0  0  0  0  0  0  0  0
  140.5743   80.5956  224.5782 H   0  0  0  0  0  0  0  0  0  0  0  0
  142.6786   80.2084  223.2848 H   0  0  0  0  0  0  0  0  0  0  0  0
  142.7598   78.4732  221.5260 H   0  0  0  0  0  0  0  0  0  0  0  0
  1  2  1  0
  2  3  1  0
  3  4  1  0
  4  5  1  0
  5  6  1  0
  6  7  2  0
  6  8  1  0
  8  9  1  0
  9 10  1  0
 10 11  2  0
 10 12  1  0
 12 13  2  0
 13 14  1  0
 14 15  2  0
 15 16  1  0
 16 17  2  0
 17 18  1  0
 18 19  2  0
 19 20  1  0
 20 21  2  0
  4 22  1  0
 22 23  2  0
 23 24  1  0
 24 25  2  0
 25 26  1  0
 26 27  2  0
 21 12  1  0
 27 22  1  0
 20 15  1  0
  1 28  1  0
  1 29  1  0
  1 30  1  0
  2 31  1  0
  2 32  1  0
  3 33  1  0
  3 34  1  0
  4 35  1  1
  5 36  1  0
  8 37  1  0
  8 38  1  0
  9 39  1  0
 13 40  1  0
 14 41  1  0
 16 42  1  0
 17 43  1  0
 18 44  1  0
 19 45  1  0
 23 46  1  0
 24 47  1  0
 25 48  1  0
 26 49  1  0
 27 50  1  0
M  END
>  <smiles>  (47) 
CCC[C@H](NC(=O)CNC(=O)c1ccc2ccccc2n1)c1ccccc1

>  <score_type>  (47) 
oracle

>  <origin>  (47) 
autodockgpu

>  <m_score__min__energy>  (47) 
-8.8900000000000006

>  <m_primary>  (47) 
energy

>  <rmsd>  (47) 
4.316083134583469

>  <m_score__min__rmsd>  (47) 
4.316083134583469

>  <meeko>  (47) 
{"free_energy": -7.88, "intermolecular_energy": -9.97, "internal_energy": -2.08, "cluster_size": 43, "cluster_id": 1, "rank_in_cluster": 42}

>  <energy>  (47) 
-8.24

>  <cluster_rmsd>  (47) 
1.97

>  <cluster>  (47) 
3

$$$$

     RDKit          3D

 50 52  0  0  0  0  0  0  0  0999 V2000
  138.1330   79.8580  223.4490 C   0  0  0  0  0  0  0  0  0  0  0  0
  138.0240   79.5820  221.9760 C   0  0  0  0  0  0  0  0  0  0  0  0
  138.4710   78.2350  221.5480 C   0  0  0  0  0  0  0  0  0  0  0  0
  139.8260   78.1130  220.9490 C   0  0  2  0  0  0  0  0  0  0  0  0
  140.1700   76.7920  220.5620 N   0  0  0  0  0  0  0  0  0  0  0  0
  139.8570   75.7270  221.4900 C   0  0  0  0  0  0  0  0  0  0  0  0
  139.3010   75.9640  222.5970 O   0  0  0  0  0  0  0  0  0  0  0  0
  140.1900   74.3140  221.1500 C   0  0  0  0  0  0  0  0  0  0  0  0
  140.0370   73.5270  222.3400 N   0  0  0  0  0  0  0  0  0  0  0  0
  140.5020   72.1860  222.3660 C   0  0  0  0  0  0  0  0  0  0  0  0
  141.0570   71.6130  221.4010 O   0  0  0  0  0  0  0  0  0  0  0  0
  140.3210   71.4280  223.6100 C   0  0  0  0  0  0  0  0  0  0  0  0
  139.6910   70.1920  223.6130 C   0  0  0  0  0  0  0  0  0  0  0  0
  139.5060   69.4610  224.7600 C   0  0  0  0  0  0  0  0  0  0  0  0
  139.9650   69.9790  225.9490 C   0  0  0  0  0  0  0  0  0  0  0  0
  139.7960   69.2700  227.1290 C   0  0  0  0  0  0  0  0  0  0  0  0
  140.2740   69.8270  228.3130 C   0  0  0  0  0  0  0  0  0  0  0  0
  140.8990   71.0550  228.3050 C   0  0  0  0  0  0  0  0  0  0  0  0
  141.0710   71.7670  227.1400 C   0  0  0  0  0  0  0  0  0  0  0  0
  140.5940   71.2120  225.9580 C   0  0  0  0  0  0  0  0  0  0  0  0
  140.7470   71.8820  224.8040 N   0  0  0  0  0  0  0  0  0  0  0  0
  140.8520   78.7530  221.8180 C   0  0  0  0  0  0  0  0  0  0  0  0
  141.1420   78.3190  223.0920 C   0  0  0  0  0  0  0  0  0  0  0  0
  142.1080   78.9620  223.8410 C   0  0  0  0  0  0  0  0  0  0  0  0
  142.8240   80.0470  223.3750 C   0  0  0  0  0  0  0  0  0  0  0  0
  142.5320   80.4800  222.0990 C   0  0  0  0  0  0  0  0  0  0  0  0
  141.5580   79.8360  221.3380 C   0  0  0  0  0  0  0  0  0  0  0  0
  137.7862   78.9797  224.0133 H   0  0  0  0  0  0  0  0  0  0  0  0
  139.1817   80.0683  223.7060 H   0  0  0  0  0  0  0  0  0  0  0  0
  137.5109   80.7280  223.7060 H   0  0  0  0  0  0  0  0  0  0  0  0
  136.9693   79.6979  221.6859 H   0  0  0  0  0  0  0  0  0  0  0  0
  138.6987   80.2969  221.4824 H   0  0  0  0  0  0  0  0  0  0  0  0
  138.4438   77.5833  222.4338 H   0  0  0  0  0  0  0  0  0  0  0  0
  137.7827   77.9596  220.7354 H   0  0  0  0  0  0  0  0  0  0  0  0
  139.7995   78.6699  220.0008 H   0  0  0  0  0  0  0  0  0  0  0  0
  140.6120   76.4790  219.6790 H   0  0  0  0  0  0  0  0  0  0  0  0
  139.5083   73.9468  220.3687 H   0  0  0  0  0  0  0  0  0  0  0  0
  141.2210   74.2430  220.7732 H   0  0  0  0  0  0  0  0  0  0  0  0
  139.5790   73.9540  223.1810 H   0  0  0  0  0  0  0  0  0  0  0  0
  139.3258   69.7821  222.6598 H   0  0  0  0  0  0  0  0  0  0  0  0
  139.0024   68.4836  224.7292 H   0  0  0  0  0  0  0  0  0  0  0  0
  139.2960   68.2902  227.1299 H   0  0  0  0  0  0  0  0  0  0  0  0
  140.1516   69.2827  229.2610 H   0  0  0  0  0  0  0  0  0  0  0  0
  141.2690   71.4759  229.2516 H   0  0  0  0  0  0  0  0  0  0  0  0
  141.5713   72.7466  227.1439 H   0  0  0  0  0  0  0  0  0  0  0  0
  140.6031   77.4581  223.5144 H   0  0  0  0  0  0  0  0  0  0  0  0
  142.3167   78.5927  224.8559 H   0  0  0  0  0  0  0  0  0  0  0  0
  143.5894   80.5413  223.9913 H   0  0  0  0  0  0  0  0  0  0  0  0
  143.0722   81.3408  221.6781 H   0  0  0  0  0  0  0  0  0  0  0  0
  141.3458   80.2030  220.3230 H   0  0  0  0  0  0  0  0  0  0  0  0
  1  2  1  0
  2  3  1  0
  3  4  1  0
  4  5  1  0
  5  6  1  0
  6  7  2  0
  6  8  1  0
  8  9  1  0
  9 10  1  0
 10 11  2  0
 10 12  1  0
 12 13  2  0
 13 14  1  0
 14 15  2  0
 15 16  1  0
 16 17  2  0
 17 18  1  0
 18 19  2  0
 19 20  1  0
 20 21  2  0
  4 22  1  0
 22 23  2  0
 23 24  1  0
 24 25  2  0
 25 26  1  0
 26 27  2  0
 21 12  1  0
 27 22  1  0
 20 15  1  0
  1 28  1  0
  1 29  1  0
  1 30  1  0
  2 31  1  0
  2 32  1  0
  3 33  1  0
  3 34  1  0
  4 35  1  6
  5 36  1  0
  8 37  1  0
  8 38  1  0
  9 39  1  0
 13 40  1  0
 14 41  1  0
 16 42  1  0
 17 43  1  0
 18 44  1  0
 19 45  1  0
 23 46  1  0
 24 47  1  0
 25 48  1  0
 26 49  1  0
 27 50  1  0
M  END
>  <smiles>  (48) 
CCC[C@H](NC(=O)CNC(=O)c1ccc2ccccc2n1)c1ccccc1

>  <score_type>  (48) 
oracle

>  <origin>  (48) 
autodockgpu

>  <m_score__min__energy>  (48) 
-8.8900000000000006

>  <m_primary>  (48) 
energy

>  <rmsd>  (48) 
4.086912193096863

>  <m_score__min__rmsd>  (48) 
4.086912193096863

>  <meeko>  (48) 
{"free_energy": -8.3, "intermolecular_energy": -10.39, "internal_energy": -1.79, "cluster_size": 43, "cluster_id": 1, "rank_in_cluster": 27}

>  <energy>  (48) 
-8.18

>  <cluster_rmsd>  (48) 
1.94

>  <cluster>  (48) 
3

$$$$

     RDKit          3D

 50 52  0  0  0  0  0  0  0  0999 V2000
  143.3840   75.8880  219.3650 C   0  0  0  0  0  0  0  0  0  0  0  0
  142.9020   77.1610  218.7280 C   0  0  0  0  0  0  0  0  0  0  0  0
  141.9450   77.9520  219.5380 C   0  0  0  0  0  0  0  0  0  0  0  0
  141.4470   77.3530  220.8040 C   0  0  2  0  0  0  0  0  0  0  0  0
  140.2920   76.5450  220.6450 N   0  0  0  0  0  0  0  0  0  0  0  0
  140.2900   75.2560  221.2990 C   0  0  0  0  0  0  0  0  0  0  0  0
  141.2760   74.8650  221.9830 O   0  0  0  0  0  0  0  0  0  0  0  0
  139.1090   74.3540  221.1760 C   0  0  0  0  0  0  0  0  0  0  0  0
  139.1030   73.4780  222.3140 N   0  0  0  0  0  0  0  0  0  0  0  0
  140.0110   72.3890  222.3720 C   0  0  0  0  0  0  0  0  0  0  0  0
  140.8480   72.1200  221.4810 O   0  0  0  0  0  0  0  0  0  0  0  0
  139.9610   71.5270  223.5590 C   0  0  0  0  0  0  0  0  0  0  0  0
  139.3450   70.2850  223.5200 C   0  0  0  0  0  0  0  0  0  0  0  0
  139.2830   69.4570  224.6140 C   0  0  0  0  0  0  0  0  0  0  0  0
  139.8550   69.8810  225.7900 C   0  0  0  0  0  0  0  0  0  0  0  0
  139.8110   69.0730  226.9170 C   0  0  0  0  0  0  0  0  0  0  0  0
  140.4030   69.5360  228.0900 C   0  0  0  0  0  0  0  0  0  0  0  0
  141.0140   70.7710  228.1240 C   0  0  0  0  0  0  0  0  0  0  0  0
  141.0620   71.5800  227.0120 C   0  0  0  0  0  0  0  0  0  0  0  0
  140.4720   71.1180  225.8410 C   0  0  0  0  0  0  0  0  0  0  0  0
  140.5030   71.8850  224.7380 N   0  0  0  0  0  0  0  0  0  0  0  0
  141.2960   78.3900  221.8610 C   0  0  0  0  0  0  0  0  0  0  0  0
  140.2480   78.4130  222.7530 C   0  0  0  0  0  0  0  0  0  0  0  0
  140.1720   79.4070  223.7090 C   0  0  0  0  0  0  0  0  0  0  0  0
  141.1140   80.4100  223.8290 C   0  0  0  0  0  0  0  0  0  0  0  0
  142.1620   80.3860  222.9340 C   0  0  0  0  0  0  0  0  0  0  0  0
  142.2440   79.3860  221.9670 C   0  0  0  0  0  0  0  0  0  0  0  0
  143.3459   75.9885  220.4597 H   0  0  0  0  0  0  0  0  0  0  0  0
  142.7395   75.0538  219.0508 H   0  0  0  0  0  0  0  0  0  0  0  0
  144.4194   75.6899  219.0508 H   0  0  0  0  0  0  0  0  0  0  0  0
  143.7793   77.7930  218.5254 H   0  0  0  0  0  0  0  0  0  0  0  0
  142.3568   76.8599  217.8213 H   0  0  0  0  0  0  0  0  0  0  0  0
  142.4391   78.9003  219.7960 H   0  0  0  0  0  0  0  0  0  0  0  0
  141.0512   78.0396  218.9029 H   0  0  0  0  0  0  0  0  0  0  0  0
  142.2202   76.6472  221.1417 H   0  0  0  0  0  0  0  0  0  0  0  0
  139.4240   76.7660  220.1240 H   0  0  0  0  0  0  0  0  0  0  0  0
  138.1842   74.9493  221.1576 H   0  0  0  0  0  0  0  0  0  0  0  0
  139.1664   73.7720  220.2444 H   0  0  0  0  0  0  0  0  0  0  0  0
  138.4230   73.6540  223.0920 H   0  0  0  0  0  0  0  0  0  0  0  0
  138.8886   69.9503  222.5768 H   0  0  0  0  0  0  0  0  0  0  0  0
  138.7871   68.4772  224.5507 H   0  0  0  0  0  0  0  0  0  0  0  0
  139.3199   68.0892  226.8851 H   0  0  0  0  0  0  0  0  0  0  0  0
  140.3827   68.9116  228.9954 H   0  0  0  0  0  0  0  0  0  0  0  0
  141.4737   71.1177  229.0613 H   0  0  0  0  0  0  0  0  0  0  0  0
  141.5529   72.5637  227.0485 H   0  0  0  0  0  0  0  0  0  0  0  0
  139.4691   77.6378  222.7044 H   0  0  0  0  0  0  0  0  0  0  0  0
  139.3219   79.3995  224.4071 H   0  0  0  0  0  0  0  0  0  0  0  0
  141.0319   81.1895  224.6008 H   0  0  0  0  0  0  0  0  0  0  0  0
  142.9397   81.1623  222.9835 H   0  0  0  0  0  0  0  0  0  0  0  0
  143.0917   79.3912  221.2660 H   0  0  0  0  0  0  0  0  0  0  0  0
  1  2  1  0
  2  3  1  0
  3  4  1  0
  4  5  1  0
  5  6  1  0
  6  7  2  0
  6  8  1  0
  8  9  1  0
  9 10  1  0
 10 11  2  0
 10 12  1  0
 12 13  2  0
 13 14  1  0
 14 15  2  0
 15 16  1  0
 16 17  2  0
 17 18  1  0
 18 19  2  0
 19 20  1  0
 20 21  2  0
  4 22  1  0
 22 23  2  0
 23 24  1  0
 24 25  2  0
 25 26  1  0
 26 27  2  0
 21 12  1  0
 27 22  1  0
 20 15  1  0
  1 28  1  0
  1 29  1  0
  1 30  1  0
  2 31  1  0
  2 32  1  0
  3 33  1  0
  3 34  1  0
  4 35  1  1
  5 36  1  0
  8 37  1  0
  8 38  1  0
  9 39  1  0
 13 40  1  0
 14 41  1  0
 16 42  1  0
 17 43  1  0
 18 44  1  0
 19 45  1  0
 23 46  1  0
 24 47  1  0
 25 48  1  0
 26 49  1  0
 27 50  1  0
M  END
>  <smiles>  (49) 
CCC[C@H](NC(=O)CNC(=O)c1ccc2ccccc2n1)c1ccccc1

>  <score_type>  (49) 
oracle

>  <origin>  (49) 
autodockgpu

>  <m_score__min__energy>  (49) 
-8.8900000000000006

>  <m_primary>  (49) 
energy

>  <rmsd>  (49) 
3.9333182445394823

>  <m_score__min__rmsd>  (49) 
3.9333182445394823

>  <meeko>  (49) 
{"free_energy": -8.8, "intermolecular_energy": -10.89, "internal_energy": -1.28, "cluster_size": 43, "cluster_id": 1, "rank_in_cluster": 3}

>  <energy>  (49) 
-8.13

>  <cluster_rmsd>  (49) 
1.96

>  <cluster>  (49) 
3

$$$$

     RDKit          3D

 50 52  0  0  0  0  0  0  0  0999 V2000
  143.6980   75.6140  219.7020 C   0  0  0  0  0  0  0  0  0  0  0  0
  143.0430   76.6610  218.8450 C   0  0  0  0  0  0  0  0  0  0  0  0
  141.8040   77.2530  219.4040 C   0  0  0  0  0  0  0  0  0  0  0  0
  141.4330   76.8930  220.7980 C   0  0  2  0  0  0  0  0  0  0  0  0
  140.2330   76.1440  220.9010 N   0  0  0  0  0  0  0  0  0  0  0  0
  140.3150   74.8430  221.5270 C   0  0  0  0  0  0  0  0  0  0  0  0
  141.4110   74.3930  221.9620 O   0  0  0  0  0  0  0  0  0  0  0  0
  139.0940   73.9990  221.6690 C   0  0  0  0  0  0  0  0  0  0  0  0
  139.3430   73.0350  222.7030 N   0  0  0  0  0  0  0  0  0  0  0  0
  138.7140   71.7630  222.6500 C   0  0  0  0  0  0  0  0  0  0  0  0
  137.9320   71.4010  221.7420 O   0  0  0  0  0  0  0  0  0  0  0  0
  139.0050   70.8170  223.7330 C   0  0  0  0  0  0  0  0  0  0  0  0
  138.5740   69.5000  223.6710 C   0  0  0  0  0  0  0  0  0  0  0  0
  138.8310   68.5920  224.6690 C   0  0  0  0  0  0  0  0  0  0  0  0
  139.5420   69.0110  225.7700 C   0  0  0  0  0  0  0  0  0  0  0  0
  139.8200   68.1230  226.7990 C   0  0  0  0  0  0  0  0  0  0  0  0
  140.5430   68.5830  227.8960 C   0  0  0  0  0  0  0  0  0  0  0  0
  140.9690   69.8930  227.9530 C   0  0  0  0  0  0  0  0  0  0  0  0
  140.6970   70.7820  226.9380 C   0  0  0  0  0  0  0  0  0  0  0  0
  139.9760   70.3230  225.8420 C   0  0  0  0  0  0  0  0  0  0  0  0
  139.6950   71.1660  224.8350 N   0  0  0  0  0  0  0  0  0  0  0  0
  141.4510   78.0920  221.6800 C   0  0  0  0  0  0  0  0  0  0  0  0
  141.8080   79.3480  221.2430 C   0  0  0  0  0  0  0  0  0  0  0  0
  141.8020   80.4160  222.1180 C   0  0  0  0  0  0  0  0  0  0  0  0
  141.4470   80.2980  223.4480 C   0  0  0  0  0  0  0  0  0  0  0  0
  141.0900   79.0390  223.8840 C   0  0  0  0  0  0  0  0  0  0  0  0
  141.0950   77.9580  223.0060 C   0  0  0  0  0  0  0  0  0  0  0  0
  143.5442   75.8599  220.7631 H   0  0  0  0  0  0  0  0  0  0  0  0
  143.2531   74.6316  219.4850 H   0  0  0  0  0  0  0  0  0  0  0  0
  144.7760   75.5843  219.4850 H   0  0  0  0  0  0  0  0  0  0  0  0
  143.7674   77.4739  218.6883 H   0  0  0  0  0  0  0  0  0  0  0  0
  142.7448   76.1515  217.9168 H   0  0  0  0  0  0  0  0  0  0  0  0
  141.9165   78.3466  219.3662 H   0  0  0  0  0  0  0  0  0  0  0  0
  140.9945   76.8383  218.7854 H   0  0  0  0  0  0  0  0  0  0  0  0
  142.2094   76.2029  221.1600 H   0  0  0  0  0  0  0  0  0  0  0  0
  139.2810   76.4160  220.5950 H   0  0  0  0  0  0  0  0  0  0  0  0
  138.2344   74.6281  221.9435 H   0  0  0  0  0  0  0  0  0  0  0  0
  138.8651   73.4927  220.7196 H   0  0  0  0  0  0  0  0  0  0  0  0
  139.9890   73.2830  223.4900 H   0  0  0  0  0  0  0  0  0  0  0  0
  138.0049   69.1703  222.7893 H   0  0  0  0  0  0  0  0  0  0  0  0
  138.4765   67.5537  224.5899 H   0  0  0  0  0  0  0  0  0  0  0  0
  139.4769   67.0791  226.7491 H   0  0  0  0  0  0  0  0  0  0  0  0
  140.7761   67.8965  228.7232 H   0  0  0  0  0  0  0  0  0  0  0  0
  141.5390   70.2354  228.8293 H   0  0  0  0  0  0  0  0  0  0  0  0
  141.0404   71.8256  226.9927 H   0  0  0  0  0  0  0  0  0  0  0  0
  142.0989   79.5010  220.1933 H   0  0  0  0  0  0  0  0  0  0  0  0
  142.0933   81.4066  221.7387 H   0  0  0  0  0  0  0  0  0  0  0  0
  141.4490   81.1647  224.1253 H   0  0  0  0  0  0  0  0  0  0  0  0
  140.7989   78.8876  224.9339 H   0  0  0  0  0  0  0  0  0  0  0  0
  140.8058   76.9655  223.3819 H   0  0  0  0  0  0  0  0  0  0  0  0
  1  2  1  0
  2  3  1  0
  3  4  1  0
  4  5  1  0
  5  6  1  0
  6  7  2  0
  6  8  1  0
  8  9  1  0
  9 10  1  0
 10 11  2  0
 10 12  1  0
 12 13  2  0
 13 14  1  0
 14 15  2  0
 15 16  1  0
 16 17  2  0
 17 18  1  0
 18 19  2  0
 19 20  1  0
 20 21  2  0
  4 22  1  0
 22 23  2  0
 23 24  1  0
 24 25  2  0
 25 26  1  0
 26 27  2  0
 21 12  1  0
 27 22  1  0
 20 15  1  0
  1 28  1  0
  1 29  1  0
  1 30  1  0
  2 31  1  0
  2 32  1  0
  3 33  1  0
  3 34  1  0
  4 35  1  1
  5 36  1  0
  8 37  1  0
  8 38  1  0
  9 39  1  0
 13 40  1  0
 14 41  1  0
 16 42  1  0
 17 43  1  0
 18 44  1  0
 19 45  1  0
 23 46  1  0
 24 47  1  0
 25 48  1  0
 26 49  1  0
 27 50  1  0
M  END
>  <smiles>  (50) 
CCC[C@H](NC(=O)CNC(=O)c1ccc2ccccc2n1)c1ccccc1

>  <score_type>  (50) 
oracle

>  <origin>  (50) 
autodockgpu

>  <m_score__min__energy>  (50) 
-8.8900000000000006

>  <m_primary>  (50) 
energy

>  <rmsd>  (50) 
4.374435841094854

>  <m_score__min__rmsd>  (50) 
4.374435841094854

>  <meeko>  (50) 
{"free_energy": -8.04, "intermolecular_energy": -10.13, "internal_energy": -1.91, "cluster_size": 43, "cluster_id": 1, "rank_in_cluster": 41}

>  <energy>  (50) 
-7.75

>  <cluster_rmsd>  (50) 
0.0

>  <cluster>  (50) 
4

$$$$
