
     RDKit          3D

 56 59  0  0  0  0  0  0  0  0999 V2000
  142.3320   76.1770  219.7210 C   0  0  0  0  0  0  0  0  0  0  0  0
  140.9820   76.3860  220.2640 N   0  0  0  0  0  0  0  0  0  0  0  0
  140.1310   77.4190  219.7920 C   0  0  0  0  0  0  0  0  0  0  0  0
  140.2360   78.6960  220.4840 C   0  0  0  0  0  0  0  0  0  0  0  0
  139.4830   79.6220  219.9740 O   0  0  0  0  0  0  0  0  0  0  0  0
  141.0010   79.0960  221.5940 N   0  0  0  0  0  0  0  0  0  0  0  0
  142.2090   79.9020  221.6730 C   0  0  0  0  0  0  0  0  0  0  0  0
  142.5340   79.9790  223.1650 C   0  0  0  0  0  0  0  0  0  0  0  0
  141.2020   79.7500  223.8190 C   0  0  0  0  0  0  0  0  0  0  0  0
  140.6150   78.6860  222.9610 C   0  0  1  0  0  0  0  0  0  0  0  0
  139.1250   78.7100  223.0090 C   0  0  0  0  0  0  0  0  0  0  0  0
  138.4580   79.8420  223.3690 N   0  0  0  0  0  0  0  0  0  0  0  0
  137.1140   79.8810  223.4180 C   0  0  0  0  0  0  0  0  0  0  0  0
  136.3790   78.7780  223.1050 C   0  0  0  0  0  0  0  0  0  0  0  0
  137.0780   77.6330  222.7400 C   0  0  0  0  0  0  0  0  0  0  0  0
  138.4210   77.5960  222.6920 N   0  0  0  0  0  0  0  0  0  0  0  0
  140.5680   75.4610  221.2690 C   0  0  0  0  0  0  0  0  0  0  0  0
  140.5540   75.8590  222.4740 O   0  0  0  0  0  0  0  0  0  0  0  0
  140.1580   74.0730  220.9810 C   0  0  0  0  0  0  0  0  0  0  0  0
  140.0330   73.3590  222.2310 N   0  0  0  0  0  0  0  0  0  0  0  0
  140.2590   71.9620  222.3090 C   0  0  0  0  0  0  0  0  0  0  0  0
  140.5800   71.2820  221.2750 O   0  0  0  0  0  0  0  0  0  0  0  0
  140.1160   71.2890  223.6170 C   0  0  0  0  0  0  0  0  0  0  0  0
  139.5570   70.0170  223.6490 C   0  0  0  0  0  0  0  0  0  0  0  0
  139.3950   69.3360  224.8200 C   0  0  0  0  0  0  0  0  0  0  0  0
  139.8100   69.9590  225.9830 C   0  0  0  0  0  0  0  0  0  0  0  0
  139.6500   69.2750  227.1740 C   0  0  0  0  0  0  0  0  0  0  0  0
  140.0530   69.8690  228.3490 C   0  0  0  0  0  0  0  0  0  0  0  0
  140.6070   71.1380  228.2890 C   0  0  0  0  0  0  0  0  0  0  0  0
  140.7600   71.8070  227.0850 C   0  0  0  0  0  0  0  0  0  0  0  0
  140.3590   71.2200  225.9030 C   0  0  0  0  0  0  0  0  0  0  0  0
  140.5170   71.8890  224.7480 N   0  0  0  0  0  0  0  0  0  0  0  0
  143.0473   76.0663  220.5493 H   0  0  0  0  0  0  0  0  0  0  0  0
  142.3420   75.2666  219.1037 H   0  0  0  0  0  0  0  0  0  0  0  0
  142.6168   77.0417  219.1037 H   0  0  0  0  0  0  0  0  0  0  0  0
  140.3656   77.5904  218.7311 H   0  0  0  0  0  0  0  0  0  0  0  0
  139.1052   77.0657  219.9737 H   0  0  0  0  0  0  0  0  0  0  0  0
  143.0312   79.4219  221.1221 H   0  0  0  0  0  0  0  0  0  0  0  0
  142.0719   80.8982  221.2272 H   0  0  0  0  0  0  0  0  0  0  0  0
  143.2539   79.1986  223.4526 H   0  0  0  0  0  0  0  0  0  0  0  0
  142.9992   80.9323  223.4563 H   0  0  0  0  0  0  0  0  0  0  0  0
  141.3203   79.4063  224.8572 H   0  0  0  0  0  0  0  0  0  0  0  0
  140.5812   80.6553  223.8899 H   0  0  0  0  0  0  0  0  0  0  0  0
  140.9551   77.6876  223.2734 H   0  0  0  0  0  0  0  0  0  0  0  0
  136.6051   80.8105  223.7130 H   0  0  0  0  0  0  0  0  0  0  0  0
  135.2796   78.7924  223.1395 H   0  0  0  0  0  0  0  0  0  0  0  0
  136.5124   76.7257  222.4815 H   0  0  0  0  0  0  0  0  0  0  0  0
  139.1910   74.0737  220.4566 H   0  0  0  0  0  0  0  0  0  0  0  0
  140.9095   73.5844  220.3434 H   0  0  0  0  0  0  0  0  0  0  0  0
  139.7720   73.8700  223.1110 H   0  0  0  0  0  0  0  0  0  0  0  0
  139.2373   69.5477  222.7069 H   0  0  0  0  0  0  0  0  0  0  0  0
  138.9512   68.3297  224.8385 H   0  0  0  0  0  0  0  0  0  0  0  0
  139.2062   68.2686  227.1827 H   0  0  0  0  0  0  0  0  0  0  0  0
  139.9381   69.3492  229.3116 H   0  0  0  0  0  0  0  0  0  0  0  0
  140.9331   71.6259  229.2194 H   0  0  0  0  0  0  0  0  0  0  0  0
  141.2043   72.8132  227.0719 H   0  0  0  0  0  0  0  0  0  0  0  0
  1  2  1  0
  2  3  1  0
  3  4  1  0
  4  5  2  0
  4  6  1  0
  6  7  1  0
  7  8  1  0
  8  9  1  0
  9 10  1  0
 10 11  1  0
 11 12  2  0
 12 13  1  0
 13 14  2  0
 14 15  1  0
 15 16  2  0
  2 17  1  0
 17 18  2  0
 17 19  1  0
 19 20  1  0
 20 21  1  0
 21 22  2  0
 21 23  1  0
 23 24  2  0
 24 25  1  0
 25 26  2  0
 26 27  1  0
 27 28  2  0
 28 29  1  0
 29 30  2  0
 30 31  1  0
 31 32  2  0
 10  6  1  0
 16 11  1  0
 32 23  1  0
 31 26  1  0
  1 33  1  0
  1 34  1  0
  1 35  1  0
  3 36  1  0
  3 37  1  0
  7 38  1  0
  7 39  1  0
  8 40  1  0
  8 41  1  0
  9 42  1  0
  9 43  1  0
 10 44  1  1
 13 45  1  0
 14 46  1  0
 15 47  1  0
 19 48  1  0
 19 49  1  0
 20 50  1  0
 24 51  1  0
 25 52  1  0
 27 53  1  0
 28 54  1  0
 29 55  1  0
 30 56  1  0
M  END
>  <smiles>  (1) 
CN(CC(=O)N1CCC[C@H]1c1ncccn1)C(=O)CNC(=O)c1ccc2ccccc2n1

>  <score_type>  (1) 
oracle

>  <origin>  (1) 
autodockgpu

>  <m_score__min__energy>  (1) 
-8.3200000000000003

>  <m_primary>  (1) 
energy

>  <rmsd>  (1) 
2.165343224562318

>  <m_score__min__rmsd>  (1) 
2.165343224562318

>  <meeko>  (1) 
{"free_energy": -7.85, "intermolecular_energy": -10.24, "internal_energy": -2.87, "cluster_size": 19, "cluster_id": 2, "rank_in_cluster": 12}

>  <energy>  (1) 
-8.32

>  <cluster_rmsd>  (1) 
0.0

>  <cluster>  (1) 
1

$$$$

     RDKit          3D

 56 59  0  0  0  0  0  0  0  0999 V2000
  142.0510   76.4400  220.1100 C   0  0  0  0  0  0  0  0  0  0  0  0
  140.6640   76.6030  220.5720 N   0  0  0  0  0  0  0  0  0  0  0  0
  139.8320   77.6520  220.1020 C   0  0  0  0  0  0  0  0  0  0  0  0
  140.0440   78.9550  220.7160 C   0  0  0  0  0  0  0  0  0  0  0  0
  139.2700   79.8820  220.2390 O   0  0  0  0  0  0  0  0  0  0  0  0
  140.9290   79.3810  221.7220 N   0  0  0  0  0  0  0  0  0  0  0  0
  142.2090   80.0650  221.6330 C   0  0  0  0  0  0  0  0  0  0  0  0
  142.6590   80.2510  223.0830 C   0  0  0  0  0  0  0  0  0  0  0  0
  141.3670   80.2200  223.8490 C   0  0  0  0  0  0  0  0  0  0  0  0
  140.6180   79.1440  223.1480 C   0  0  1  0  0  0  0  0  0  0  0  0
  139.1450   79.3220  223.2980 C   0  0  0  0  0  0  0  0  0  0  0  0
  138.6300   80.4790  223.7990 N   0  0  0  0  0  0  0  0  0  0  0  0
  137.3040   80.6560  223.9420 C   0  0  0  0  0  0  0  0  0  0  0  0
  136.4340   79.6720  223.5850 C   0  0  0  0  0  0  0  0  0  0  0  0
  136.9770   78.4980  223.0750 C   0  0  0  0  0  0  0  0  0  0  0  0
  138.3030   78.3230  222.9340 N   0  0  0  0  0  0  0  0  0  0  0  0
  140.1980   75.6170  221.4930 C   0  0  0  0  0  0  0  0  0  0  0  0
  139.9350   75.9890  222.6770 O   0  0  0  0  0  0  0  0  0  0  0  0
  140.0060   74.1980  221.1410 C   0  0  0  0  0  0  0  0  0  0  0  0
  139.9290   73.4260  222.3600 N   0  0  0  0  0  0  0  0  0  0  0  0
  140.3300   72.0670  222.4010 C   0  0  0  0  0  0  0  0  0  0  0  0
  140.7770   71.4750  221.3600 O   0  0  0  0  0  0  0  0  0  0  0  0
  140.2270   71.3310  223.6780 C   0  0  0  0  0  0  0  0  0  0  0  0
  139.6470   70.0690  223.6690 C   0  0  0  0  0  0  0  0  0  0  0  0
  139.5190   69.3320  224.8100 C   0  0  0  0  0  0  0  0  0  0  0  0
  139.9900   69.8880  225.9850 C   0  0  0  0  0  0  0  0  0  0  0  0
  139.8640   69.1480  227.1460 C   0  0  0  0  0  0  0  0  0  0  0  0
  140.3230   69.6760  228.3320 C   0  0  0  0  0  0  0  0  0  0  0  0
  140.8970   70.9370  228.3140 C   0  0  0  0  0  0  0  0  0  0  0  0
  141.0150   71.6640  227.1400 C   0  0  0  0  0  0  0  0  0  0  0  0
  140.5580   71.1440  225.9470 C   0  0  0  0  0  0  0  0  0  0  0  0
  140.6820   71.8670  224.8200 N   0  0  0  0  0  0  0  0  0  0  0  0
  142.7202   76.3614  220.9794 H   0  0  0  0  0  0  0  0  0  0  0  0
  142.1302   75.5264  219.5025 H   0  0  0  0  0  0  0  0  0  0  0  0
  142.3398   77.3104  219.5025 H   0  0  0  0  0  0  0  0  0  0  0  0
  140.0013   77.7576  219.0202 H   0  0  0  0  0  0  0  0  0  0  0  0
  138.8055   77.3604  220.3691 H   0  0  0  0  0  0  0  0  0  0  0  0
  142.9361   79.4543  221.0777 H   0  0  0  0  0  0  0  0  0  0  0  0
  142.1296   81.0231  221.0985 H   0  0  0  0  0  0  0  0  0  0  0  0
  143.3241   79.4333  223.3977 H   0  0  0  0  0  0  0  0  0  0  0  0
  143.2330   81.1759  223.2417 H   0  0  0  0  0  0  0  0  0  0  0  0
  141.5351   79.9666  224.9061 H   0  0  0  0  0  0  0  0  0  0  0  0
  140.8405   81.1856  223.8701 H   0  0  0  0  0  0  0  0  0  0  0  0
  140.8887   78.1510  223.5362 H   0  0  0  0  0  0  0  0  0  0  0  0
  136.9203   81.6026  224.3503 H   0  0  0  0  0  0  0  0  0  0  0  0
  135.3471   79.8002  223.6953 H   0  0  0  0  0  0  0  0  0  0  0  0
  136.2990   77.6847  222.7767 H   0  0  0  0  0  0  0  0  0  0  0  0
  139.0737   74.0811  220.5690 H   0  0  0  0  0  0  0  0  0  0  0  0
  140.8479   73.8464  220.5266 H   0  0  0  0  0  0  0  0  0  0  0  0
  139.5700   73.8640  223.2450 H   0  0  0  0  0  0  0  0  0  0  0  0
  139.2818   69.6534  222.7183 H   0  0  0  0  0  0  0  0  0  0  0  0
  139.0584   68.3332  224.7956 H   0  0  0  0  0  0  0  0  0  0  0  0
  139.4027   68.1497  227.1226 H   0  0  0  0  0  0  0  0  0  0  0  0
  140.2361   69.1102  229.2713 H   0  0  0  0  0  0  0  0  0  0  0  0
  141.2679   71.3714  229.2540 H   0  0  0  0  0  0  0  0  0  0  0  0
  141.4762   72.6624  227.1597 H   0  0  0  0  0  0  0  0  0  0  0  0
  1  2  1  0
  2  3  1  0
  3  4  1  0
  4  5  2  0
  4  6  1  0
  6  7  1  0
  7  8  1  0
  8  9  1  0
  9 10  1  0
 10 11  1  0
 11 12  2  0
 12 13  1  0
 13 14  2  0
 14 15  1  0
 15 16  2  0
  2 17  1  0
 17 18  2  0
 17 19  1  0
 19 20  1  0
 20 21  1  0
 21 22  2  0
 21 23  1  0
 23 24  2  0
 24 25  1  0
 25 26  2  0
 26 27  1  0
 27 28  2  0
 28 29  1  0
 29 30  2  0
 30 31  1  0
 31 32  2  0
 10  6  1  0
 16 11  1  0
 32 23  1  0
 31 26  1  0
  1 33  1  0
  1 34  1  0
  1 35  1  0
  3 36  1  0
  3 37  1  0
  7 38  1  0
  7 39  1  0
  8 40  1  0
  8 41  1  0
  9 42  1  0
  9 43  1  0
 10 44  1  1
 13 45  1  0
 14 46  1  0
 15 47  1  0
 19 48  1  0
 19 49  1  0
 20 50  1  0
 24 51  1  0
 25 52  1  0
 27 53  1  0
 28 54  1  0
 29 55  1  0
 30 56  1  0
M  END
>  <smiles>  (2) 
CN(CC(=O)N1CCC[C@H]1c1ncccn1)C(=O)CNC(=O)c1ccc2ccccc2n1

>  <score_type>  (2) 
oracle

>  <origin>  (2) 
autodockgpu

>  <m_score__min__energy>  (2) 
-8.3200000000000003

>  <m_primary>  (2) 
energy

>  <rmsd>  (2) 
2.155116258487376

>  <m_score__min__rmsd>  (2) 
2.155116258487376

>  <meeko>  (2) 
{"free_energy": -8.11, "intermolecular_energy": -10.5, "internal_energy": -2.72, "cluster_size": 19, "cluster_id": 2, "rank_in_cluster": 3}

>  <energy>  (2) 
-8.3

>  <cluster_rmsd>  (2) 
0.3

>  <cluster>  (2) 
1

$$$$

     RDKit          3D

 56 59  0  0  0  0  0  0  0  0999 V2000
  140.2220   75.7470  218.8260 C   0  0  0  0  0  0  0  0  0  0  0  0
  141.3940   75.8160  219.7100 N   0  0  0  0  0  0  0  0  0  0  0  0
  142.1930   76.9850  219.8140 C   0  0  0  0  0  0  0  0  0  0  0  0
  141.5660   78.1280  220.4600 C   0  0  0  0  0  0  0  0  0  0  0  0
  140.6020   78.6490  219.7630 O   0  0  0  0  0  0  0  0  0  0  0  0
  141.8180   78.7610  221.6900 N   0  0  0  0  0  0  0  0  0  0  0  0
  142.4440   80.0390  221.9900 C   0  0  0  0  0  0  0  0  0  0  0  0
  142.4060   80.1470  223.5150 C   0  0  0  0  0  0  0  0  0  0  0  0
  141.2570   79.2580  223.8950 C   0  0  0  0  0  0  0  0  0  0  0  0
  141.4330   78.1120  222.9620 C   0  0  1  0  0  0  0  0  0  0  0  0
  140.1390   77.4140  222.7110 C   0  0  0  0  0  0  0  0  0  0  0  0
  138.9760   78.1170  222.6110 N   0  0  0  0  0  0  0  0  0  0  0  0
  137.8010   77.5030  222.3840 C   0  0  0  0  0  0  0  0  0  0  0  0
  137.7430   76.1490  222.2480 C   0  0  0  0  0  0  0  0  0  0  0  0
  138.9400   75.4500  222.3520 C   0  0  0  0  0  0  0  0  0  0  0  0
  140.1140   76.0660  222.5790 N   0  0  0  0  0  0  0  0  0  0  0  0
  141.6550   74.6460  220.4850 C   0  0  0  0  0  0  0  0  0  0  0  0
  142.6920   74.6360  221.2170 O   0  0  0  0  0  0  0  0  0  0  0  0
  140.7860   73.4540  220.4800 C   0  0  0  0  0  0  0  0  0  0  0  0
  140.7500   72.9030  221.8150 N   0  0  0  0  0  0  0  0  0  0  0  0
  140.0220   71.7220  222.1070 C   0  0  0  0  0  0  0  0  0  0  0  0
  139.3710   71.1010  221.2000 O   0  0  0  0  0  0  0  0  0  0  0  0
  140.0240   71.2080  223.4940 C   0  0  0  0  0  0  0  0  0  0  0  0
  139.3990   69.9940  223.7500 C   0  0  0  0  0  0  0  0  0  0  0  0
  139.3620   69.4590  225.0040 C   0  0  0  0  0  0  0  0  0  0  0  0
  139.9730   70.1710  226.0190 C   0  0  0  0  0  0  0  0  0  0  0  0
  139.9400   69.6360  227.2940 C   0  0  0  0  0  0  0  0  0  0  0  0
  140.5390   70.3220  228.3260 C   0  0  0  0  0  0  0  0  0  0  0  0
  141.1560   71.5300  228.0440 C   0  0  0  0  0  0  0  0  0  0  0  0
  141.1790   72.0510  226.7600 C   0  0  0  0  0  0  0  0  0  0  0  0
  140.5810   71.3710  225.7190 C   0  0  0  0  0  0  0  0  0  0  0  0
  140.6150   71.8960  224.4820 N   0  0  0  0  0  0  0  0  0  0  0  0
  139.3068   75.6931  219.4339 H   0  0  0  0  0  0  0  0  0  0  0  0
  140.1882   76.6447  218.1912 H   0  0  0  0  0  0  0  0  0  0  0  0
  140.2937   74.8515  218.1912 H   0  0  0  0  0  0  0  0  0  0  0  0
  143.0952   76.7266  220.3878 H   0  0  0  0  0  0  0  0  0  0  0  0
  142.3941   77.3010  218.7797 H   0  0  0  0  0  0  0  0  0  0  0  0
  143.4820   80.0564  221.6265 H   0  0  0  0  0  0  0  0  0  0  0  0
  141.9266   80.8783  221.5023 H   0  0  0  0  0  0  0  0  0  0  0  0
  143.3460   79.7877  223.9591 H   0  0  0  0  0  0  0  0  0  0  0  0
  142.2866   81.1810  223.8708 H   0  0  0  0  0  0  0  0  0  0  0  0
  141.3312   78.9349  224.9439 H   0  0  0  0  0  0  0  0  0  0  0  0
  140.2740   79.7457  223.8190 H   0  0  0  0  0  0  0  0  0  0  0  0
  142.1507   77.3791  223.3591 H   0  0  0  0  0  0  0  0  0  0  0  0
  136.8796   78.0991  222.3076 H   0  0  0  0  0  0  0  0  0  0  0  0
  136.7902   75.6311  222.0638 H   0  0  0  0  0  0  0  0  0  0  0  0
  138.9267   74.3553  222.2450 H   0  0  0  0  0  0  0  0  0  0  0  0
  139.7698   73.7378  220.1689 H   0  0  0  0  0  0  0  0  0  0  0  0
  141.1789   72.7060  219.7757 H   0  0  0  0  0  0  0  0  0  0  0  0
  141.2680   73.3730  222.5990 H   0  0  0  0  0  0  0  0  0  0  0  0
  138.9222   69.4508  222.9208 H   0  0  0  0  0  0  0  0  0  0  0  0
  138.8649   68.4976  225.2001 H   0  0  0  0  0  0  0  0  0  0  0  0
  139.4410   68.6737  227.4810 H   0  0  0  0  0  0  0  0  0  0  0  0
  140.5281   69.9207  229.3502 H   0  0  0  0  0  0  0  0  0  0  0  0
  141.6393   72.0890  228.8588 H   0  0  0  0  0  0  0  0  0  0  0  0
  141.6773   73.0130  226.5695 H   0  0  0  0  0  0  0  0  0  0  0  0
  1  2  1  0
  2  3  1  0
  3  4  1  0
  4  5  2  0
  4  6  1  0
  6  7  1  0
  7  8  1  0
  8  9  1  0
  9 10  1  0
 10 11  1  0
 11 12  2  0
 12 13  1  0
 13 14  2  0
 14 15  1  0
 15 16  2  0
  2 17  1  0
 17 18  2  0
 17 19  1  0
 19 20  1  0
 20 21  1  0
 21 22  2  0
 21 23  1  0
 23 24  2  0
 24 25  1  0
 25 26  2  0
 26 27  1  0
 27 28  2  0
 28 29  1  0
 29 30  2  0
 30 31  1  0
 31 32  2  0
 10  6  1  0
 16 11  1  0
 32 23  1  0
 31 26  1  0
  1 33  1  0
  1 34  1  0
  1 35  1  0
  3 36  1  0
  3 37  1  0
  7 38  1  0
  7 39  1  0
  8 40  1  0
  8 41  1  0
  9 42  1  0
  9 43  1  0
 10 44  1  1
 13 45  1  0
 14 46  1  0
 15 47  1  0
 19 48  1  0
 19 49  1  0
 20 50  1  0
 24 51  1  0
 25 52  1  0
 27 53  1  0
 28 54  1  0
 29 55  1  0
 30 56  1  0
M  END
>  <smiles>  (3) 
CN(CC(=O)N1CCC[C@H]1c1ncccn1)C(=O)CNC(=O)c1ccc2ccccc2n1

>  <score_type>  (3) 
oracle

>  <origin>  (3) 
autodockgpu

>  <m_score__min__energy>  (3) 
-8.3200000000000003

>  <m_primary>  (3) 
energy

>  <rmsd>  (3) 
2.1491837942758583

>  <m_score__min__rmsd>  (3) 
2.1491837942758583

>  <meeko>  (3) 
{"free_energy": -7.43, "intermolecular_energy": -9.82, "internal_energy": -3.24, "cluster_size": 5, "cluster_id": 3, "rank_in_cluster": 1}

>  <energy>  (3) 
-8.29

>  <cluster_rmsd>  (3) 
0.11

>  <cluster>  (3) 
1

$$$$

     RDKit          3D

 56 59  0  0  0  0  0  0  0  0999 V2000
  141.7180   76.6050  219.8540 C   0  0  0  0  0  0  0  0  0  0  0  0
  140.4410   76.7330  220.5720 N   0  0  0  0  0  0  0  0  0  0  0  0
  139.5450   77.8070  220.3300 C   0  0  0  0  0  0  0  0  0  0  0  0
  139.9770   79.1140  220.8050 C   0  0  0  0  0  0  0  0  0  0  0  0
  139.3490   80.1000  220.2420 O   0  0  0  0  0  0  0  0  0  0  0  0
  140.9430   79.4900  221.7550 N   0  0  0  0  0  0  0  0  0  0  0  0
  142.2740   80.0520  221.5840 C   0  0  0  0  0  0  0  0  0  0  0  0
  142.8060   80.2430  223.0050 C   0  0  0  0  0  0  0  0  0  0  0  0
  141.5550   80.3560  223.8280 C   0  0  0  0  0  0  0  0  0  0  0  0
  140.6800   79.3290  223.2010 C   0  0  1  0  0  0  0  0  0  0  0  0
  139.2370   79.6450  223.4100 C   0  0  0  0  0  0  0  0  0  0  0  0
  138.2720   78.7420  223.0800 N   0  0  0  0  0  0  0  0  0  0  0  0
  136.9660   79.0110  223.2620 C   0  0  0  0  0  0  0  0  0  0  0  0
  136.5730   80.2050  223.7860 C   0  0  0  0  0  0  0  0  0  0  0  0
  137.5720   81.1120  224.1170 C   0  0  0  0  0  0  0  0  0  0  0  0
  138.8770   80.8420  223.9340 N   0  0  0  0  0  0  0  0  0  0  0  0
  140.1440   75.6890  221.4980 C   0  0  0  0  0  0  0  0  0  0  0  0
  139.9000   76.0130  222.7010 O   0  0  0  0  0  0  0  0  0  0  0  0
  140.1040   74.2600  221.1320 C   0  0  0  0  0  0  0  0  0  0  0  0
  139.9590   73.4780  222.3390 N   0  0  0  0  0  0  0  0  0  0  0  0
  140.4320   72.1440  222.4150 C   0  0  0  0  0  0  0  0  0  0  0  0
  141.0050   71.5840  221.4190 O   0  0  0  0  0  0  0  0  0  0  0  0
  140.2540   71.3960  223.6780 C   0  0  0  0  0  0  0  0  0  0  0  0
  139.5940   70.1740  223.6350 C   0  0  0  0  0  0  0  0  0  0  0  0
  139.3940   69.4290  224.7600 C   0  0  0  0  0  0  0  0  0  0  0  0
  139.8750   69.9350  225.9540 C   0  0  0  0  0  0  0  0  0  0  0  0
  139.6760   69.1860  227.0990 C   0  0  0  0  0  0  0  0  0  0  0  0
  140.1430   69.6630  228.3030 C   0  0  0  0  0  0  0  0  0  0  0  0
  140.7980   70.8850  228.3180 C   0  0  0  0  0  0  0  0  0  0  0  0
  140.9880   71.6210  227.1590 C   0  0  0  0  0  0  0  0  0  0  0  0
  140.5230   71.1510  225.9490 C   0  0  0  0  0  0  0  0  0  0  0  0
  140.7190   71.8830  224.8380 N   0  0  0  0  0  0  0  0  0  0  0  0
  142.5402   76.5226  220.5801 H   0  0  0  0  0  0  0  0  0  0  0  0
  141.6949   75.7047  219.2224 H   0  0  0  0  0  0  0  0  0  0  0  0
  141.8741   77.4920  219.2224 H   0  0  0  0  0  0  0  0  0  0  0  0
  139.3891   77.8777  219.2434 H   0  0  0  0  0  0  0  0  0  0  0  0
  138.6341   77.5692  220.8990 H   0  0  0  0  0  0  0  0  0  0  0  0
  142.9167   79.3601  221.0199 H   0  0  0  0  0  0  0  0  0  0  0  0
  142.2557   80.9953  221.0184 H   0  0  0  0  0  0  0  0  0  0  0  0
  143.4085   79.3783  223.3201 H   0  0  0  0  0  0  0  0  0  0  0  0
  143.4676   81.1162  223.1040 H   0  0  0  0  0  0  0  0  0  0  0  0
  141.7497   80.1239  224.8855 H   0  0  0  0  0  0  0  0  0  0  0  0
  141.1188   81.3658  223.8364 H   0  0  0  0  0  0  0  0  0  0  0  0
  140.8791   78.3287  223.6131 H   0  0  0  0  0  0  0  0  0  0  0  0
  136.2104   78.2609  222.9855 H   0  0  0  0  0  0  0  0  0  0  0  0
  135.5098   80.4412  223.9406 H   0  0  0  0  0  0  0  0  0  0  0  0
  137.2859   82.0847  224.5436 H   0  0  0  0  0  0  0  0  0  0  0  0
  139.2503   74.0724  220.4642 H   0  0  0  0  0  0  0  0  0  0  0  0
  141.0319   73.9795  220.6120 H   0  0  0  0  0  0  0  0  0  0  0  0
  139.4960   73.8900  223.1870 H   0  0  0  0  0  0  0  0  0  0  0  0
  139.2236   69.7981  222.6698 H   0  0  0  0  0  0  0  0  0  0  0  0
  138.8701   68.4626  224.7192 H   0  0  0  0  0  0  0  0  0  0  0  0
  139.1509   68.2207  227.0485 H   0  0  0  0  0  0  0  0  0  0  0  0
  140.0000   69.0888  229.2303 H   0  0  0  0  0  0  0  0  0  0  0  0
  141.1759   71.2798  229.2726 H   0  0  0  0  0  0  0  0  0  0  0  0
  141.5132   72.5864  227.2048 H   0  0  0  0  0  0  0  0  0  0  0  0
  1  2  1  0
  2  3  1  0
  3  4  1  0
  4  5  2  0
  4  6  1  0
  6  7  1  0
  7  8  1  0
  8  9  1  0
  9 10  1  0
 10 11  1  0
 11 12  2  0
 12 13  1  0
 13 14  2  0
 14 15  1  0
 15 16  2  0
  2 17  1  0
 17 18  2  0
 17 19  1  0
 19 20  1  0
 20 21  1  0
 21 22  2  0
 21 23  1  0
 23 24  2  0
 24 25  1  0
 25 26  2  0
 26 27  1  0
 27 28  2  0
 28 29  1  0
 29 30  2  0
 30 31  1  0
 31 32  2  0
 10  6  1  0
 16 11  1  0
 32 23  1  0
 31 26  1  0
  1 33  1  0
  1 34  1  0
  1 35  1  0
  3 36  1  0
  3 37  1  0
  7 38  1  0
  7 39  1  0
  8 40  1  0
  8 41  1  0
  9 42  1  0
  9 43  1  0
 10 44  1  1
 13 45  1  0
 14 46  1  0
 15 47  1  0
 19 48  1  0
 19 49  1  0
 20 50  1  0
 24 51  1  0
 25 52  1  0
 27 53  1  0
 28 54  1  0
 29 55  1  0
 30 56  1  0
M  END
>  <smiles>  (4) 
CN(CC(=O)N1CCC[C@H]1c1ncccn1)C(=O)CNC(=O)c1ccc2ccccc2n1

>  <score_type>  (4) 
oracle

>  <origin>  (4) 
autodockgpu

>  <m_score__min__energy>  (4) 
-8.3200000000000003

>  <m_primary>  (4) 
energy

>  <rmsd>  (4) 
2.1679465720980655

>  <m_score__min__rmsd>  (4) 
2.1679465720980655

>  <meeko>  (4) 
{"free_energy": -8.12, "intermolecular_energy": -10.51, "internal_energy": -2.65, "cluster_size": 19, "cluster_id": 2, "rank_in_cluster": 2}

>  <energy>  (4) 
-8.22

>  <cluster_rmsd>  (4) 
0.16

>  <cluster>  (4) 
1

$$$$

     RDKit          3D

 56 59  0  0  0  0  0  0  0  0999 V2000
  138.8650   75.9570  219.3330 C   0  0  0  0  0  0  0  0  0  0  0  0
  140.0850   75.9600  220.1550 N   0  0  0  0  0  0  0  0  0  0  0  0
  141.0820   76.9610  220.0190 C   0  0  0  0  0  0  0  0  0  0  0  0
  140.7590   78.2620  220.5850 C   0  0  0  0  0  0  0  0  0  0  0  0
  139.8450   78.9010  219.9210 O   0  0  0  0  0  0  0  0  0  0  0  0
  141.2580   78.9400  221.7110 N   0  0  0  0  0  0  0  0  0  0  0  0
  142.2440   80.0050  221.8180 C   0  0  0  0  0  0  0  0  0  0  0  0
  142.3330   80.3090  223.3150 C   0  0  0  0  0  0  0  0  0  0  0  0
  141.0010   79.8530  223.8380 C   0  0  0  0  0  0  0  0  0  0  0  0
  140.7800   78.5990  223.0680 C   0  0  1  0  0  0  0  0  0  0  0  0
  139.3280   78.2880  222.9430 C   0  0  0  0  0  0  0  0  0  0  0  0
  138.9000   77.0020  222.8050 N   0  0  0  0  0  0  0  0  0  0  0  0
  137.5930   76.7040  222.6910 C   0  0  0  0  0  0  0  0  0  0  0  0
  136.6550   77.6900  222.7120 C   0  0  0  0  0  0  0  0  0  0  0  0
  137.1100   78.9960  222.8540 C   0  0  0  0  0  0  0  0  0  0  0  0
  138.4170   79.2920  222.9680 N   0  0  0  0  0  0  0  0  0  0  0  0
  140.1830   74.9150  221.1210 C   0  0  0  0  0  0  0  0  0  0  0  0
  141.0490   75.0360  222.0410 O   0  0  0  0  0  0  0  0  0  0  0  0
  139.3340   73.7090  221.1070 C   0  0  0  0  0  0  0  0  0  0  0  0
  139.5300   72.9910  222.3470 N   0  0  0  0  0  0  0  0  0  0  0  0
  139.3560   71.5870  222.4230 C   0  0  0  0  0  0  0  0  0  0  0  0
  139.0190   70.9030  221.3970 O   0  0  0  0  0  0  0  0  0  0  0  0
  139.5710   70.9110  223.7200 C   0  0  0  0  0  0  0  0  0  0  0  0
  139.1780   69.5850  223.8480 C   0  0  0  0  0  0  0  0  0  0  0  0
  139.3460   68.8980  225.0140 C   0  0  0  0  0  0  0  0  0  0  0  0
  139.9270   69.5720  226.0730 C   0  0  0  0  0  0  0  0  0  0  0  0
  140.1010   68.8830  227.2590 C   0  0  0  0  0  0  0  0  0  0  0  0
  140.6760   69.5260  228.3310 C   0  0  0  0  0  0  0  0  0  0  0  0
  141.0600   70.8490  228.1770 C   0  0  0  0  0  0  0  0  0  0  0  0
  140.8780   71.5230  226.9800 C   0  0  0  0  0  0  0  0  0  0  0  0
  140.3020   70.8860  225.9000 C   0  0  0  0  0  0  0  0  0  0  0  0
  140.1340   71.5610  224.7490 N   0  0  0  0  0  0  0  0  0  0  0  0
  137.9814   75.9548  219.9882 H   0  0  0  0  0  0  0  0  0  0  0  0
  138.8485   76.8551  218.6981 H   0  0  0  0  0  0  0  0  0  0  0  0
  138.8529   75.0588  218.6981 H   0  0  0  0  0  0  0  0  0  0  0  0
  141.9950   76.5963  220.5124 H   0  0  0  0  0  0  0  0  0  0  0  0
  141.1915   77.1264  218.9370 H   0  0  0  0  0  0  0  0  0  0  0  0
  143.2184   79.6707  221.4322 H   0  0  0  0  0  0  0  0  0  0  0  0
  141.9618   80.8915  221.2311 H   0  0  0  0  0  0  0  0  0  0  0  0
  143.1541   79.7466  223.7835 H   0  0  0  0  0  0  0  0  0  0  0  0
  142.5404   81.3680  223.5284 H   0  0  0  0  0  0  0  0  0  0  0  0
  141.0422   79.6561  224.9194 H   0  0  0  0  0  0  0  0  0  0  0  0
  140.1987   80.5956  223.7165 H   0  0  0  0  0  0  0  0  0  0  0  0
  141.2775   77.7430  223.5473 H   0  0  0  0  0  0  0  0  0  0  0  0
  137.2800   75.6553  222.5799 H   0  0  0  0  0  0  0  0  0  0  0  0
  135.5825   77.4632  222.6205 H   0  0  0  0  0  0  0  0  0  0  0  0
  136.3761   79.8151  222.8738 H   0  0  0  0  0  0  0  0  0  0  0  0
  138.2778   74.0007  221.0109 H   0  0  0  0  0  0  0  0  0  0  0  0
  139.6061   73.0683  220.2553 H   0  0  0  0  0  0  0  0  0  0  0  0
  139.8070   73.5050  223.2200 H   0  0  0  0  0  0  0  0  0  0  0  0
  138.7197   69.0762  222.9872 H   0  0  0  0  0  0  0  0  0  0  0  0
  139.0315   67.8482  225.1087 H   0  0  0  0  0  0  0  0  0  0  0  0
  139.7835   67.8333  227.3446 H   0  0  0  0  0  0  0  0  0  0  0  0
  140.8272   69.0030  229.2868 H   0  0  0  0  0  0  0  0  0  0  0  0
  141.5203   71.3765  229.0254 H   0  0  0  0  0  0  0  0  0  0  0  0
  141.1948   72.5726  226.8902 H   0  0  0  0  0  0  0  0  0  0  0  0
  1  2  1  0
  2  3  1  0
  3  4  1  0
  4  5  2  0
  4  6  1  0
  6  7  1  0
  7  8  1  0
  8  9  1  0
  9 10  1  0
 10 11  1  0
 11 12  2  0
 12 13  1  0
 13 14  2  0
 14 15  1  0
 15 16  2  0
  2 17  1  0
 17 18  2  0
 17 19  1  0
 19 20  1  0
 20 21  1  0
 21 22  2  0
 21 23  1  0
 23 24  2  0
 24 25  1  0
 25 26  2  0
 26 27  1  0
 27 28  2  0
 28 29  1  0
 29 30  2  0
 30 31  1  0
 31 32  2  0
 10  6  1  0
 16 11  1  0
 32 23  1  0
 31 26  1  0
  1 33  1  0
  1 34  1  0
  1 35  1  0
  3 36  1  0
  3 37  1  0
  7 38  1  0
  7 39  1  0
  8 40  1  0
  8 41  1  0
  9 42  1  0
  9 43  1  0
 10 44  1  1
 13 45  1  0
 14 46  1  0
 15 47  1  0
 19 48  1  0
 19 49  1  0
 20 50  1  0
 24 51  1  0
 25 52  1  0
 27 53  1  0
 28 54  1  0
 29 55  1  0
 30 56  1  0
M  END
>  <smiles>  (5) 
CN(CC(=O)N1CCC[C@H]1c1ncccn1)C(=O)CNC(=O)c1ccc2ccccc2n1

>  <score_type>  (5) 
oracle

>  <origin>  (5) 
autodockgpu

>  <m_score__min__energy>  (5) 
-8.3200000000000003

>  <m_primary>  (5) 
energy

>  <rmsd>  (5) 
1.7399623586952524

>  <m_score__min__rmsd>  (5) 
1.7399623586952524

>  <meeko>  (5) 
{"free_energy": -7.73, "intermolecular_energy": -10.12, "internal_energy": -3.01, "cluster_size": 19, "cluster_id": 2, "rank_in_cluster": 15}

>  <energy>  (5) 
-8.2

>  <cluster_rmsd>  (5) 
0.17

>  <cluster>  (5) 
1

$$$$

     RDKit          3D

 56 59  0  0  0  0  0  0  0  0999 V2000
  138.8930   77.1510  219.5290 C   0  0  0  0  0  0  0  0  0  0  0  0
  139.8120   76.7170  220.5910 N   0  0  0  0  0  0  0  0  0  0  0  0
  141.0280   77.3980  220.8610 C   0  0  0  0  0  0  0  0  0  0  0  0
  141.2470   77.7820  222.2480 C   0  0  0  0  0  0  0  0  0  0  0  0
  141.0920   76.8030  223.0860 O   0  0  0  0  0  0  0  0  0  0  0  0
  141.5930   79.0140  222.8330 N   0  0  0  0  0  0  0  0  0  0  0  0
  142.8560   79.7350  222.8490 C   0  0  0  0  0  0  0  0  0  0  0  0
  142.5690   81.0120  223.6410 C   0  0  0  0  0  0  0  0  0  0  0  0
  141.0880   81.1940  223.4760 C   0  0  0  0  0  0  0  0  0  0  0  0
  140.5910   79.7960  223.5880 C   0  0  1  0  0  0  0  0  0  0  0  0
  139.2910   79.6240  222.8780 C   0  0  0  0  0  0  0  0  0  0  0  0
  138.3690   78.7240  223.3200 N   0  0  0  0  0  0  0  0  0  0  0  0
  137.1920   78.5560  222.6910 C   0  0  0  0  0  0  0  0  0  0  0  0
  136.8890   79.2890  221.5850 C   0  0  0  0  0  0  0  0  0  0  0  0
  137.8420   80.2030  221.1490 C   0  0  0  0  0  0  0  0  0  0  0  0
  139.0180   80.3690  221.7790 N   0  0  0  0  0  0  0  0  0  0  0  0
  139.3850   75.5910  221.3570 C   0  0  0  0  0  0  0  0  0  0  0  0
  138.6050   75.7980  222.3350 O   0  0  0  0  0  0  0  0  0  0  0  0
  139.8030   74.2050  221.0710 C   0  0  0  0  0  0  0  0  0  0  0  0
  139.6970   73.4300  222.2860 N   0  0  0  0  0  0  0  0  0  0  0  0
  140.3250   72.1660  222.4130 C   0  0  0  0  0  0  0  0  0  0  0  0
  141.0090   71.6650  221.4570 O   0  0  0  0  0  0  0  0  0  0  0  0
  140.1800   71.4220  223.6820 C   0  0  0  0  0  0  0  0  0  0  0  0
  139.5210   70.1990  223.6600 C   0  0  0  0  0  0  0  0  0  0  0  0
  139.3500   69.4580  224.7920 C   0  0  0  0  0  0  0  0  0  0  0  0
  139.8590   69.9680  225.9720 C   0  0  0  0  0  0  0  0  0  0  0  0
  139.6910   69.2230  227.1240 C   0  0  0  0  0  0  0  0  0  0  0  0
  140.1870   69.7050  228.3150 C   0  0  0  0  0  0  0  0  0  0  0  0
  140.8400   70.9270  228.3090 C   0  0  0  0  0  0  0  0  0  0  0  0
  141.0000   71.6600  227.1440 C   0  0  0  0  0  0  0  0  0  0  0  0
  140.5060   71.1850  225.9470 C   0  0  0  0  0  0  0  0  0  0  0  0
  140.6730   71.9140  224.8290 N   0  0  0  0  0  0  0  0  0  0  0  0
  137.9863   77.5792  219.9811 H   0  0  0  0  0  0  0  0  0  0  0  0
  139.3861   77.9114  218.9056 H   0  0  0  0  0  0  0  0  0  0  0  0
  138.6190   76.2871  218.9056 H   0  0  0  0  0  0  0  0  0  0  0  0
  141.8567   76.7410  220.5583 H   0  0  0  0  0  0  0  0  0  0  0  0
  140.9733   78.3404  220.2962 H   0  0  0  0  0  0  0  0  0  0  0  0
  143.6360   79.1387  223.3451 H   0  0  0  0  0  0  0  0  0  0  0  0
  143.2234   79.9500  221.8347 H   0  0  0  0  0  0  0  0  0  0  0  0
  142.8351   80.8867  224.7010 H   0  0  0  0  0  0  0  0  0  0  0  0
  143.1511   81.8768  223.2899 H   0  0  0  0  0  0  0  0  0  0  0  0
  140.6724   81.8309  224.2707 H   0  0  0  0  0  0  0  0  0  0  0  0
  140.8039   81.6922  222.5373 H   0  0  0  0  0  0  0  0  0  0  0  0
  140.4524   79.5037  224.6394 H   0  0  0  0  0  0  0  0  0  0  0  0
  136.4688   77.8206  223.0734 H   0  0  0  0  0  0  0  0  0  0  0  0
  135.9313   79.1638  221.0586 H   0  0  0  0  0  0  0  0  0  0  0  0
  137.6262   80.8110  220.2581 H   0  0  0  0  0  0  0  0  0  0  0  0
  139.1500   73.7733  220.2982 H   0  0  0  0  0  0  0  0  0  0  0  0
  140.8413   74.1936  220.7081 H   0  0  0  0  0  0  0  0  0  0  0  0
  139.1470   73.7960  223.1030 H   0  0  0  0  0  0  0  0  0  0  0  0
  139.1274   69.8190  222.7057 H   0  0  0  0  0  0  0  0  0  0  0  0
  138.8267   68.4908  224.7672 H   0  0  0  0  0  0  0  0  0  0  0  0
  139.1672   68.2563  227.0900 H   0  0  0  0  0  0  0  0  0  0  0  0
  140.0677   69.1341  229.2477 H   0  0  0  0  0  0  0  0  0  0  0  0
  141.2414   71.3252  229.2526 H   0  0  0  0  0  0  0  0  0  0  0  0
  141.5242   72.6266  227.1740 H   0  0  0  0  0  0  0  0  0  0  0  0
  1  2  1  0
  2  3  1  0
  3  4  1  0
  4  5  2  0
  4  6  1  0
  6  7  1  0
  7  8  1  0
  8  9  1  0
  9 10  1  0
 10 11  1  0
 11 12  2  0
 12 13  1  0
 13 14  2  0
 14 15  1  0
 15 16  2  0
  2 17  1  0
 17 18  2  0
 17 19  1  0
 19 20  1  0
 20 21  1  0
 21 22  2  0
 21 23  1  0
 23 24  2  0
 24 25  1  0
 25 26  2  0
 26 27  1  0
 27 28  2  0
 28 29  1  0
 29 30  2  0
 30 31  1  0
 31 32  2  0
 10  6  1  0
 16 11  1  0
 32 23  1  0
 31 26  1  0
  1 33  1  0
  1 34  1  0
  1 35  1  0
  3 36  1  0
  3 37  1  0
  7 38  1  0
  7 39  1  0
  8 40  1  0
  8 41  1  0
  9 42  1  0
  9 43  1  0
 10 44  1  1
 13 45  1  0
 14 46  1  0
 15 47  1  0
 19 48  1  0
 19 49  1  0
 20 50  1  0
 24 51  1  0
 25 52  1  0
 27 53  1  0
 28 54  1  0
 29 55  1  0
 30 56  1  0
M  END
>  <smiles>  (6) 
CN(CC(=O)N1CCC[C@H]1c1ncccn1)C(=O)CNC(=O)c1ccc2ccccc2n1

>  <score_type>  (6) 
oracle

>  <origin>  (6) 
autodockgpu

>  <m_score__min__energy>  (6) 
-8.3200000000000003

>  <m_primary>  (6) 
energy

>  <rmsd>  (6) 
2.2780571840965673

>  <m_score__min__rmsd>  (6) 
2.2780571840965673

>  <meeko>  (6) 
{"free_energy": -7.91, "intermolecular_energy": -10.3, "internal_energy": -2.79, "cluster_size": 19, "cluster_id": 2, "rank_in_cluster": 7}

>  <energy>  (6) 
-8.16

>  <cluster_rmsd>  (6) 
0.3

>  <cluster>  (6) 
1

$$$$

     RDKit          3D

 56 59  0  0  0  0  0  0  0  0999 V2000
  140.5900   67.9980  219.9190 C   0  0  0  0  0  0  0  0  0  0  0  0
  139.9210   69.3050  220.0010 N   0  0  0  0  0  0  0  0  0  0  0  0
  140.6340   70.5250  219.8690 C   0  0  0  0  0  0  0  0  0  0  0  0
  140.6240   71.3970  221.0340 C   0  0  0  0  0  0  0  0  0  0  0  0
  140.4460   70.7620  222.1520 O   0  0  0  0  0  0  0  0  0  0  0  0
  140.7710   72.7900  221.1600 N   0  0  0  0  0  0  0  0  0  0  0  0
  141.7620   73.6950  220.5960 C   0  0  0  0  0  0  0  0  0  0  0  0
  141.3620   75.0810  221.1030 C   0  0  0  0  0  0  0  0  0  0  0  0
  139.8930   74.9350  221.3790 C   0  0  0  0  0  0  0  0  0  0  0  0
  139.8250   73.5760  221.9800 C   0  0  1  0  0  0  0  0  0  0  0  0
  138.4800   72.9630  221.7850 C   0  0  0  0  0  0  0  0  0  0  0  0
  137.8980   72.2310  222.7760 N   0  0  0  0  0  0  0  0  0  0  0  0
  136.6850   71.6710  222.6170 C   0  0  0  0  0  0  0  0  0  0  0  0
  136.0010   71.8230  221.4490 C   0  0  0  0  0  0  0  0  0  0  0  0
  136.6110   72.5740  220.4500 C   0  0  0  0  0  0  0  0  0  0  0  0
  137.8240   73.1330  220.6120 N   0  0  0  0  0  0  0  0  0  0  0  0
  138.5070   69.2670  220.1860 C   0  0  0  0  0  0  0  0  0  0  0  0
  137.7790   69.8480  219.3230 O   0  0  0  0  0  0  0  0  0  0  0  0
  137.8500   68.5900  221.3200 C   0  0  0  0  0  0  0  0  0  0  0  0
  138.4040   69.1090  222.5510 N   0  0  0  0  0  0  0  0  0  0  0  0
  138.8700   68.2450  223.5720 C   0  0  0  0  0  0  0  0  0  0  0  0
  138.8180   66.9740  223.4430 O   0  0  0  0  0  0  0  0  0  0  0  0
  139.4270   68.8360  224.8080 C   0  0  0  0  0  0  0  0  0  0  0  0
  139.4900   68.0470  225.9490 C   0  0  0  0  0  0  0  0  0  0  0  0
  139.9910   68.5260  227.1240 C   0  0  0  0  0  0  0  0  0  0  0  0
  140.4380   69.8340  227.1400 C   0  0  0  0  0  0  0  0  0  0  0  0
  140.9480   70.3280  228.3270 C   0  0  0  0  0  0  0  0  0  0  0  0
  141.4010   71.6270  228.3750 C   0  0  0  0  0  0  0  0  0  0  0  0
  141.3260   72.3930  227.2220 C   0  0  0  0  0  0  0  0  0  0  0  0
  140.8130   71.8810  226.0410 C   0  0  0  0  0  0  0  0  0  0  0  0
  140.3560   70.5800  225.9840 C   0  0  0  0  0  0  0  0  0  0  0  0
  139.8610   70.1050  224.8280 N   0  0  0  0  0  0  0  0  0  0  0  0
  140.7831   67.6206  220.9340 H   0  0  0  0  0  0  0  0  0  0  0  0
  139.9441   67.2886  219.3808 H   0  0  0  0  0  0  0  0  0  0  0  0
  141.5431   68.1071  219.3808 H   0  0  0  0  0  0  0  0  0  0  0  0
  141.6817   70.2799  219.6406 H   0  0  0  0  0  0  0  0  0  0  0  0
  140.1202   71.0852  219.0739 H   0  0  0  0  0  0  0  0  0  0  0  0
  142.7709   73.4311  220.9460 H   0  0  0  0  0  0  0  0  0  0  0  0
  141.7887   73.6475  219.4973 H   0  0  0  0  0  0  0  0  0  0  0  0
  141.9118   75.3393  222.0200 H   0  0  0  0  0  0  0  0  0  0  0  0
  141.5884   75.8843  220.3864 H   0  0  0  0  0  0  0  0  0  0  0  0
  139.5407   75.7021  222.0843 H   0  0  0  0  0  0  0  0  0  0  0  0
  139.2599   75.0582  220.4879 H   0  0  0  0  0  0  0  0  0  0  0  0
  140.0393   73.6050  223.0585 H   0  0  0  0  0  0  0  0  0  0  0  0
  136.2423   71.0859  223.4366 H   0  0  0  0  0  0  0  0  0  0  0  0
  135.0089   71.3712  221.3022 H   0  0  0  0  0  0  0  0  0  0  0  0
  136.0838   72.7158  219.4950 H   0  0  0  0  0  0  0  0  0  0  0  0
  136.7675   68.7833  221.2903 H   0  0  0  0  0  0  0  0  0  0  0  0
  138.0200   67.5049  221.2595 H   0  0  0  0  0  0  0  0  0  0  0  0
  138.4710   70.1460  222.7080 H   0  0  0  0  0  0  0  0  0  0  0  0
  139.1268   67.0097  225.9043 H   0  0  0  0  0  0  0  0  0  0  0  0
  140.0375   67.8956  228.0242 H   0  0  0  0  0  0  0  0  0  0  0  0
  140.9911   69.6903  229.2222 H   0  0  0  0  0  0  0  0  0  0  0  0
  141.8122   72.0467  229.3049 H   0  0  0  0  0  0  0  0  0  0  0  0
  141.6827   73.4333  227.2452 H   0  0  0  0  0  0  0  0  0  0  0  0
  140.7697   72.5154  225.1434 H   0  0  0  0  0  0  0  0  0  0  0  0
  1  2  1  0
  2  3  1  0
  3  4  1  0
  4  5  2  0
  4  6  1  0
  6  7  1  0
  7  8  1  0
  8  9  1  0
  9 10  1  0
 10 11  1  0
 11 12  2  0
 12 13  1  0
 13 14  2  0
 14 15  1  0
 15 16  2  0
  2 17  1  0
 17 18  2  0
 17 19  1  0
 19 20  1  0
 20 21  1  0
 21 22  2  0
 21 23  1  0
 23 24  2  0
 24 25  1  0
 25 26  2  0
 26 27  1  0
 27 28  2  0
 28 29  1  0
 29 30  2  0
 30 31  1  0
 31 32  2  0
 10  6  1  0
 16 11  1  0
 32 23  1  0
 31 26  1  0
  1 33  1  0
  1 34  1  0
  1 35  1  0
  3 36  1  0
  3 37  1  0
  7 38  1  0
  7 39  1  0
  8 40  1  0
  8 41  1  0
  9 42  1  0
  9 43  1  0
 10 44  1  1
 13 45  1  0
 14 46  1  0
 15 47  1  0
 19 48  1  0
 19 49  1  0
 20 50  1  0
 24 51  1  0
 25 52  1  0
 27 53  1  0
 28 54  1  0
 29 55  1  0
 30 56  1  0
M  END
>  <smiles>  (7) 
CN(CC(=O)N1CCC[C@H]1c1ncccn1)C(=O)CNC(=O)c1ccc2ccccc2n1

>  <score_type>  (7) 
oracle

>  <origin>  (7) 
autodockgpu

>  <m_score__min__energy>  (7) 
-8.3200000000000003

>  <m_primary>  (7) 
energy

>  <rmsd>  (7) 
5.2418585747641036

>  <m_score__min__rmsd>  (7) 
5.2418585747641036

>  <meeko>  (7) 
{"free_energy": -5.59, "intermolecular_energy": -7.97, "internal_energy": -4.71, "cluster_size": 1, "cluster_id": 7, "rank_in_cluster": 1}

>  <energy>  (7) 
-8.13

>  <cluster_rmsd>  (7) 
0.2

>  <cluster>  (7) 
1

$$$$

     RDKit          3D

 56 59  0  0  0  0  0  0  0  0999 V2000
  141.9860   76.3100  220.1410 C   0  0  0  0  0  0  0  0  0  0  0  0
  140.6200   76.5790  220.6140 N   0  0  0  0  0  0  0  0  0  0  0  0
  139.9110   77.7510  220.2410 C   0  0  0  0  0  0  0  0  0  0  0  0
  139.8240   78.7920  221.2540 C   0  0  0  0  0  0  0  0  0  0  0  0
  138.6570   79.3570  221.3160 O   0  0  0  0  0  0  0  0  0  0  0  0
  140.7720   79.2870  222.1680 N   0  0  0  0  0  0  0  0  0  0  0  0
  141.3030   78.7080  223.3920 C   0  0  0  0  0  0  0  0  0  0  0  0
  142.3040   79.7410  223.9140 C   0  0  0  0  0  0  0  0  0  0  0  0
  142.6980   80.4940  222.6760 C   0  0  0  0  0  0  0  0  0  0  0  0
  141.3990   80.6100  221.9590 C   0  0  1  0  0  0  0  0  0  0  0  0
  141.6020   80.7580  220.4890 C   0  0  0  0  0  0  0  0  0  0  0  0
  141.2130   81.8930  219.8430 N   0  0  0  0  0  0  0  0  0  0  0  0
  141.3890   82.0430  218.5180 C   0  0  0  0  0  0  0  0  0  0  0  0
  141.9660   81.0550  217.7810 C   0  0  0  0  0  0  0  0  0  0  0  0
  142.3570   79.9040  218.4570 C   0  0  0  0  0  0  0  0  0  0  0  0
  142.1800   79.7560  219.7830 N   0  0  0  0  0  0  0  0  0  0  0  0
  140.0400   75.5710  221.4400 C   0  0  0  0  0  0  0  0  0  0  0  0
  139.4720   75.9370  222.5150 O   0  0  0  0  0  0  0  0  0  0  0  0
  140.0640   74.1330  221.1110 C   0  0  0  0  0  0  0  0  0  0  0  0
  139.9450   73.3770  222.3370 N   0  0  0  0  0  0  0  0  0  0  0  0
  140.3180   72.0110  222.4010 C   0  0  0  0  0  0  0  0  0  0  0  0
  140.7740   71.3980  221.3760 O   0  0  0  0  0  0  0  0  0  0  0  0
  140.1730   71.2920  223.6840 C   0  0  0  0  0  0  0  0  0  0  0  0
  139.5660   70.0420  223.6770 C   0  0  0  0  0  0  0  0  0  0  0  0
  139.3980   69.3210  224.8230 C   0  0  0  0  0  0  0  0  0  0  0  0
  139.8570   69.8800  226.0010 C   0  0  0  0  0  0  0  0  0  0  0  0
  139.6920   69.1560  227.1670 C   0  0  0  0  0  0  0  0  0  0  0  0
  140.1390   69.6860  228.3560 C   0  0  0  0  0  0  0  0  0  0  0  0
  140.7410   70.9340  228.3360 C   0  0  0  0  0  0  0  0  0  0  0  0
  140.8990   71.6450  227.1570 C   0  0  0  0  0  0  0  0  0  0  0  0
  140.4540   71.1220  225.9600 C   0  0  0  0  0  0  0  0  0  0  0  0
  140.6170   71.8300  224.8290 N   0  0  0  0  0  0  0  0  0  0  0  0
  142.6539   76.1785  221.0050 H   0  0  0  0  0  0  0  0  0  0  0  0
  141.9894   75.3939  219.5321 H   0  0  0  0  0  0  0  0  0  0  0  0
  142.3365   77.1564  219.5321 H   0  0  0  0  0  0  0  0  0  0  0  0
  140.4095   78.1799  219.3592 H   0  0  0  0  0  0  0  0  0  0  0  0
  138.8758   77.4266  220.0586 H   0  0  0  0  0  0  0  0  0  0  0  0
  140.4982   78.5447  224.1238 H   0  0  0  0  0  0  0  0  0  0  0  0
  141.7719   77.7284  223.2173 H   0  0  0  0  0  0  0  0  0  0  0  0
  141.8330   80.4100  224.6493 H   0  0  0  0  0  0  0  0  0  0  0  0
  143.1608   79.2869  224.4334 H   0  0  0  0  0  0  0  0  0  0  0  0
  143.1078   81.4843  222.9238 H   0  0  0  0  0  0  0  0  0  0  0  0
  143.4867   80.0010  222.0887 H   0  0  0  0  0  0  0  0  0  0  0  0
  140.8203   81.4739  222.3177 H   0  0  0  0  0  0  0  0  0  0  0  0
  141.0640   82.9717  218.0261 H   0  0  0  0  0  0  0  0  0  0  0  0
  142.1168   81.1622  216.6967 H   0  0  0  0  0  0  0  0  0  0  0  0
  142.8266   79.0874  217.8889 H   0  0  0  0  0  0  0  0  0  0  0  0
  139.2235   73.8915  220.4438 H   0  0  0  0  0  0  0  0  0  0  0  0
  141.0064   73.8795  220.6034 H   0  0  0  0  0  0  0  0  0  0  0  0
  139.5770   73.8320  223.2090 H   0  0  0  0  0  0  0  0  0  0  0  0
  139.2120   69.6233  222.7234 H   0  0  0  0  0  0  0  0  0  0  0  0
  138.9156   68.3325  224.8101 H   0  0  0  0  0  0  0  0  0  0  0  0
  139.2091   68.1679  227.1449 H   0  0  0  0  0  0  0  0  0  0  0  0
  140.0213   69.1324  229.2992 H   0  0  0  0  0  0  0  0  0  0  0  0
  141.1022   71.3709  229.2787 H   0  0  0  0  0  0  0  0  0  0  0  0
  141.3824   72.6329  227.1754 H   0  0  0  0  0  0  0  0  0  0  0  0
  1  2  1  0
  2  3  1  0
  3  4  1  0
  4  5  2  0
  4  6  1  0
  6  7  1  0
  7  8  1  0
  8  9  1  0
  9 10  1  0
 10 11  1  0
 11 12  2  0
 12 13  1  0
 13 14  2  0
 14 15  1  0
 15 16  2  0
  2 17  1  0
 17 18  2  0
 17 19  1  0
 19 20  1  0
 20 21  1  0
 21 22  2  0
 21 23  1  0
 23 24  2  0
 24 25  1  0
 25 26  2  0
 26 27  1  0
 27 28  2  0
 28 29  1  0
 29 30  2  0
 30 31  1  0
 31 32  2  0
 10  6  1  0
 16 11  1  0
 32 23  1  0
 31 26  1  0
  1 33  1  0
  1 34  1  0
  1 35  1  0
  3 36  1  0
  3 37  1  0
  7 38  1  0
  7 39  1  0
  8 40  1  0
  8 41  1  0
  9 42  1  0
  9 43  1  0
 10 44  1  1
 13 45  1  0
 14 46  1  0
 15 47  1  0
 19 48  1  0
 19 49  1  0
 20 50  1  0
 24 51  1  0
 25 52  1  0
 27 53  1  0
 28 54  1  0
 29 55  1  0
 30 56  1  0
M  END
>  <smiles>  (8) 
CN(CC(=O)N1CCC[C@H]1c1ncccn1)C(=O)CNC(=O)c1ccc2ccccc2n1

>  <score_type>  (8) 
oracle

>  <origin>  (8) 
autodockgpu

>  <m_score__min__energy>  (8) 
-8.3200000000000003

>  <m_primary>  (8) 
energy

>  <rmsd>  (8) 
2.3988083537796667

>  <m_score__min__rmsd>  (8) 
2.3988083537796667

>  <meeko>  (8) 
{"free_energy": -8.2, "intermolecular_energy": -10.59, "internal_energy": -2.66, "cluster_size": 22, "cluster_id": 1, "rank_in_cluster": 5}

>  <energy>  (8) 
-8.13

>  <cluster_rmsd>  (8) 
0.22

>  <cluster>  (8) 
1

$$$$

     RDKit          3D

 56 59  0  0  0  0  0  0  0  0999 V2000
  137.1640   75.0160  222.3410 C   0  0  0  0  0  0  0  0  0  0  0  0
  138.2330   75.8230  221.7340 N   0  0  0  0  0  0  0  0  0  0  0  0
  138.6140   77.0860  222.2590 C   0  0  0  0  0  0  0  0  0  0  0  0
  140.0250   77.2420  222.5820 C   0  0  0  0  0  0  0  0  0  0  0  0
  140.6500   76.1130  222.7190 O   0  0  0  0  0  0  0  0  0  0  0  0
  140.8190   78.3870  222.7700 N   0  0  0  0  0  0  0  0  0  0  0  0
  141.4370   78.9270  223.9710 C   0  0  0  0  0  0  0  0  0  0  0  0
  142.1730   80.1840  223.5040 C   0  0  0  0  0  0  0  0  0  0  0  0
  142.4190   79.9160  222.0470 C   0  0  0  0  0  0  0  0  0  0  0  0
  141.1430   79.2730  221.6320 C   0  0  1  0  0  0  0  0  0  0  0  0
  141.3420   78.3900  220.4470 C   0  0  0  0  0  0  0  0  0  0  0  0
  140.5650   78.5280  219.3370 N   0  0  0  0  0  0  0  0  0  0  0  0
  140.7300   77.7400  218.2590 C   0  0  0  0  0  0  0  0  0  0  0  0
  141.6890   76.7730  218.2510 C   0  0  0  0  0  0  0  0  0  0  0  0
  142.4730   76.6470  219.3920 C   0  0  0  0  0  0  0  0  0  0  0  0
  142.3060   77.4370  220.4690 N   0  0  0  0  0  0  0  0  0  0  0  0
  138.8880   75.2390  220.6090 C   0  0  0  0  0  0  0  0  0  0  0  0
  138.4740   75.5530  219.4520 O   0  0  0  0  0  0  0  0  0  0  0  0
  140.0170   74.2960  220.7210 C   0  0  0  0  0  0  0  0  0  0  0  0
  139.9210   73.6100  221.9900 N   0  0  0  0  0  0  0  0  0  0  0  0
  140.1470   72.2150  222.0950 C   0  0  0  0  0  0  0  0  0  0  0  0
  140.4440   71.5120  221.0700 O   0  0  0  0  0  0  0  0  0  0  0  0
  140.0340   71.5720  223.4210 C   0  0  0  0  0  0  0  0  0  0  0  0
  139.2430   70.4370  223.5410 C   0  0  0  0  0  0  0  0  0  0  0  0
  139.0930   69.7910  224.7330 C   0  0  0  0  0  0  0  0  0  0  0  0
  139.7610   70.3090  225.8270 C   0  0  0  0  0  0  0  0  0  0  0  0
  139.6140   69.6600  227.0390 C   0  0  0  0  0  0  0  0  0  0  0  0
  140.2670   70.1520  228.1480 C   0  0  0  0  0  0  0  0  0  0  0  0
  141.0500   71.2860  228.0010 C   0  0  0  0  0  0  0  0  0  0  0  0
  141.1860   71.9220  226.7770 C   0  0  0  0  0  0  0  0  0  0  0  0
  140.5350   71.4370  225.6620 C   0  0  0  0  0  0  0  0  0  0  0  0
  140.6810   72.0710  224.4850 N   0  0  0  0  0  0  0  0  0  0  0  0
  137.2391   75.0727  223.4370 H   0  0  0  0  0  0  0  0  0  0  0  0
  136.1855   75.4026  222.0201 H   0  0  0  0  0  0  0  0  0  0  0  0
  137.2678   73.9690  222.0201 H   0  0  0  0  0  0  0  0  0  0  0  0
  138.3519   77.8529  221.5152 H   0  0  0  0  0  0  0  0  0  0  0  0
  138.0777   77.1848  223.2143 H   0  0  0  0  0  0  0  0  0  0  0  0
  140.6717   79.1820  224.7188 H   0  0  0  0  0  0  0  0  0  0  0  0
  142.1145   78.2041  224.4489 H   0  0  0  0  0  0  0  0  0  0  0  0
  141.5495   81.0799  223.6405 H   0  0  0  0  0  0  0  0  0  0  0  0
  143.0967   80.3781  224.0689 H   0  0  0  0  0  0  0  0  0  0  0  0
  142.5949   80.8498  221.4928 H   0  0  0  0  0  0  0  0  0  0  0  0
  143.3098   79.3005  221.8531 H   0  0  0  0  0  0  0  0  0  0  0  0
  140.3796   80.0241  221.3807 H   0  0  0  0  0  0  0  0  0  0  0  0
  140.0859   77.8777  217.3780 H   0  0  0  0  0  0  0  0  0  0  0  0
  141.8369   76.1194  217.3787 H   0  0  0  0  0  0  0  0  0  0  0  0
  143.2566   75.8754  219.4156 H   0  0  0  0  0  0  0  0  0  0  0  0
  139.9720   73.5650  219.9003 H   0  0  0  0  0  0  0  0  0  0  0  0
  140.9700   74.8419  220.6601 H   0  0  0  0  0  0  0  0  0  0  0  0
  139.6800   74.1410  222.8640 H   0  0  0  0  0  0  0  0  0  0  0  0
  138.7241   70.0489  222.6521 H   0  0  0  0  0  0  0  0  0  0  0  0
  138.4646   68.8924  224.8205 H   0  0  0  0  0  0  0  0  0  0  0  0
  138.9835   68.7620  227.1169 H   0  0  0  0  0  0  0  0  0  0  0  0
  140.1693   69.6571  229.1255 H   0  0  0  0  0  0  0  0  0  0  0  0
  141.5766   71.6914  228.8775 H   0  0  0  0  0  0  0  0  0  0  0  0
  141.8171   72.8192  226.6944 H   0  0  0  0  0  0  0  0  0  0  0  0
  1  2  1  0
  2  3  1  0
  3  4  1  0
  4  5  2  0
  4  6  1  0
  6  7  1  0
  7  8  1  0
  8  9  1  0
  9 10  1  0
 10 11  1  0
 11 12  2  0
 12 13  1  0
 13 14  2  0
 14 15  1  0
 15 16  2  0
  2 17  1  0
 17 18  2  0
 17 19  1  0
 19 20  1  0
 20 21  1  0
 21 22  2  0
 21 23  1  0
 23 24  2  0
 24 25  1  0
 25 26  2  0
 26 27  1  0
 27 28  2  0
 28 29  1  0
 29 30  2  0
 30 31  1  0
 31 32  2  0
 10  6  1  0
 16 11  1  0
 32 23  1  0
 31 26  1  0
  1 33  1  0
  1 34  1  0
  1 35  1  0
  3 36  1  0
  3 37  1  0
  7 38  1  0
  7 39  1  0
  8 40  1  0
  8 41  1  0
  9 42  1  0
  9 43  1  0
 10 44  1  6
 13 45  1  0
 14 46  1  0
 15 47  1  0
 19 48  1  0
 19 49  1  0
 20 50  1  0
 24 51  1  0
 25 52  1  0
 27 53  1  0
 28 54  1  0
 29 55  1  0
 30 56  1  0
M  END
>  <smiles>  (9) 
CN(CC(=O)N1CCC[C@H]1c1ncccn1)C(=O)CNC(=O)c1ccc2ccccc2n1

>  <score_type>  (9) 
oracle

>  <origin>  (9) 
autodockgpu

>  <m_score__min__energy>  (9) 
-8.3200000000000003

>  <m_primary>  (9) 
energy

>  <rmsd>  (9) 
2.685614532253357

>  <m_score__min__rmsd>  (9) 
2.685614532253357

>  <meeko>  (9) 
{"free_energy": -7.27, "intermolecular_energy": -9.66, "internal_energy": -3.04, "cluster_size": 22, "cluster_id": 1, "rank_in_cluster": 22}

>  <energy>  (9) 
-8.1

>  <cluster_rmsd>  (9) 
1.13

>  <cluster>  (9) 
1

$$$$

     RDKit          3D

 56 59  0  0  0  0  0  0  0  0999 V2000
  137.4040   76.2960  222.3690 C   0  0  0  0  0  0  0  0  0  0  0  0
  138.7890   76.3590  221.8810 N   0  0  0  0  0  0  0  0  0  0  0  0
  139.3620   77.5630  221.3940 C   0  0  0  0  0  0  0  0  0  0  0  0
  138.4940   78.7320  221.4060 C   0  0  0  0  0  0  0  0  0  0  0  0
  138.1850   79.1580  220.2190 O   0  0  0  0  0  0  0  0  0  0  0  0
  137.9380   79.4710  222.4650 N   0  0  0  0  0  0  0  0  0  0  0  0
  136.6590   79.3380  223.1470 C   0  0  0  0  0  0  0  0  0  0  0  0
  136.6640   80.4370  224.2110 C   0  0  0  0  0  0  0  0  0  0  0  0
  138.1270   80.6800  224.4460 C   0  0  0  0  0  0  0  0  0  0  0  0
  138.6790   80.5990  223.0670 C   0  0  1  0  0  0  0  0  0  0  0  0
  140.1180   80.2060  223.0800 C   0  0  0  0  0  0  0  0  0  0  0  0
  140.5430   79.1460  223.8220 N   0  0  0  0  0  0  0  0  0  0  0  0
  141.8370   78.7770  223.8450 C   0  0  0  0  0  0  0  0  0  0  0  0
  142.7640   79.4620  223.1200 C   0  0  0  0  0  0  0  0  0  0  0  0
  142.3110   80.5410  222.3690 C   0  0  0  0  0  0  0  0  0  0  0  0
  141.0160   80.9070  222.3470 N   0  0  0  0  0  0  0  0  0  0  0  0
  139.5320   75.1430  221.9630 C   0  0  0  0  0  0  0  0  0  0  0  0
  140.7420   75.2100  222.3350 O   0  0  0  0  0  0  0  0  0  0  0  0
  138.9660   73.8200  221.6390 C   0  0  0  0  0  0  0  0  0  0  0  0
  139.2950   72.9030  222.7070 N   0  0  0  0  0  0  0  0  0  0  0  0
  138.7940   71.5770  222.7220 C   0  0  0  0  0  0  0  0  0  0  0  0
  138.0330   71.1440  221.7920 O   0  0  0  0  0  0  0  0  0  0  0  0
  139.1680   70.6880  223.8420 C   0  0  0  0  0  0  0  0  0  0  0  0
  138.8610   69.3360  223.7440 C   0  0  0  0  0  0  0  0  0  0  0  0
  139.1760   68.4570  224.7380 C   0  0  0  0  0  0  0  0  0  0  0  0
  139.8160   68.9600  225.8560 C   0  0  0  0  0  0  0  0  0  0  0  0
  140.1390   68.0750  226.8680 C   0  0  0  0  0  0  0  0  0  0  0  0
  140.7760   68.5460  227.9940 C   0  0  0  0  0  0  0  0  0  0  0  0
  141.0710   69.8990  228.0670 C   0  0  0  0  0  0  0  0  0  0  0  0
  140.7400   70.7700  227.0410 C   0  0  0  0  0  0  0  0  0  0  0  0
  140.1010   70.3070  225.9100 C   0  0  0  0  0  0  0  0  0  0  0  0
  139.7890   71.1720  224.9280 N   0  0  0  0  0  0  0  0  0  0  0  0
  137.4025   76.2959  223.4690 H   0  0  0  0  0  0  0  0  0  0  0  0
  136.8457   77.1697  222.0016 H   0  0  0  0  0  0  0  0  0  0  0  0
  136.9273   75.3752  222.0016 H   0  0  0  0  0  0  0  0  0  0  0  0
  140.2427   77.7911  222.0123 H   0  0  0  0  0  0  0  0  0  0  0  0
  139.5929   77.3752  220.3350 H   0  0  0  0  0  0  0  0  0  0  0  0
  135.8274   79.4855  222.4422 H   0  0  0  0  0  0  0  0  0  0  0  0
  136.5255   78.3380  223.5853 H   0  0  0  0  0  0  0  0  0  0  0  0
  136.1675   81.3463  223.8413 H   0  0  0  0  0  0  0  0  0  0  0  0
  136.1212   80.1550  225.1252 H   0  0  0  0  0  0  0  0  0  0  0  0
  138.3014   81.6717  224.8888 H   0  0  0  0  0  0  0  0  0  0  0  0
  138.5869   79.9712  225.1503 H   0  0  0  0  0  0  0  0  0  0  0  0
  138.5877   81.5622  222.5436 H   0  0  0  0  0  0  0  0  0  0  0  0
  142.1482   77.9155  224.4541 H   0  0  0  0  0  0  0  0  0  0  0  0
  143.8256   79.1741  223.1281 H   0  0  0  0  0  0  0  0  0  0  0  0
  143.0356   81.1149  221.7727 H   0  0  0  0  0  0  0  0  0  0  0  0
  137.8731   73.8984  221.5415 H   0  0  0  0  0  0  0  0  0  0  0  0
  139.3835   73.4553  220.6889 H   0  0  0  0  0  0  0  0  0  0  0  0
  139.9180   73.2080  223.4960 H   0  0  0  0  0  0  0  0  0  0  0  0
  138.3513   68.9658  222.8423 H   0  0  0  0  0  0  0  0  0  0  0  0
  138.9303   67.3881  224.6537 H   0  0  0  0  0  0  0  0  0  0  0  0
  139.8901   67.0076  226.7746 H   0  0  0  0  0  0  0  0  0  0  0  0
  141.0444   67.8657  228.8157 H   0  0  0  0  0  0  0  0  0  0  0  0
  141.5798   70.2902  228.9604 H   0  0  0  0  0  0  0  0  0  0  0  0
  140.9887   71.8379  227.1294 H   0  0  0  0  0  0  0  0  0  0  0  0
  1  2  1  0
  2  3  1  0
  3  4  1  0
  4  5  2  0
  4  6  1  0
  6  7  1  0
  7  8  1  0
  8  9  1  0
  9 10  1  0
 10 11  1  0
 11 12  2  0
 12 13  1  0
 13 14  2  0
 14 15  1  0
 15 16  2  0
  2 17  1  0
 17 18  2  0
 17 19  1  0
 19 20  1  0
 20 21  1  0
 21 22  2  0
 21 23  1  0
 23 24  2  0
 24 25  1  0
 25 26  2  0
 26 27  1  0
 27 28  2  0
 28 29  1  0
 29 30  2  0
 30 31  1  0
 31 32  2  0
 10  6  1  0
 16 11  1  0
 32 23  1  0
 31 26  1  0
  1 33  1  0
  1 34  1  0
  1 35  1  0
  3 36  1  0
  3 37  1  0
  7 38  1  0
  7 39  1  0
  8 40  1  0
  8 41  1  0
  9 42  1  0
  9 43  1  0
 10 44  1  6
 13 45  1  0
 14 46  1  0
 15 47  1  0
 19 48  1  0
 19 49  1  0
 20 50  1  0
 24 51  1  0
 25 52  1  0
 27 53  1  0
 28 54  1  0
 29 55  1  0
 30 56  1  0
M  END
>  <smiles>  (10) 
CN(CC(=O)N1CCC[C@H]1c1ncccn1)C(=O)CNC(=O)c1ccc2ccccc2n1

>  <score_type>  (10) 
oracle

>  <origin>  (10) 
autodockgpu

>  <m_score__min__energy>  (10) 
-8.3200000000000003

>  <m_primary>  (10) 
energy

>  <rmsd>  (10) 
2.83555752834387

>  <m_score__min__rmsd>  (10) 
2.83555752834387

>  <meeko>  (10) 
{"free_energy": -7.9, "intermolecular_energy": -10.29, "internal_energy": -2.46, "cluster_size": 19, "cluster_id": 2, "rank_in_cluster": 9}

>  <energy>  (10) 
-8.06

>  <cluster_rmsd>  (10) 
0.24

>  <cluster>  (10) 
1

$$$$

     RDKit          3D

 56 59  0  0  0  0  0  0  0  0999 V2000
  138.6940   75.9660  219.4770 C   0  0  0  0  0  0  0  0  0  0  0  0
  139.9880   75.8970  220.1710 N   0  0  0  0  0  0  0  0  0  0  0  0
  141.0280   76.8310  219.9220 C   0  0  0  0  0  0  0  0  0  0  0  0
  140.8250   78.1680  220.4600 C   0  0  0  0  0  0  0  0  0  0  0  0
  140.1230   78.9350  219.6830 O   0  0  0  0  0  0  0  0  0  0  0  0
  141.2500   78.7660  221.6590 N   0  0  0  0  0  0  0  0  0  0  0  0
  142.2170   79.8260  221.9000 C   0  0  0  0  0  0  0  0  0  0  0  0
  142.2160   80.0220  223.4170 C   0  0  0  0  0  0  0  0  0  0  0  0
  140.8600   79.5220  223.8270 C   0  0  0  0  0  0  0  0  0  0  0  0
  140.6980   78.3250  222.9580 C   0  0  1  0  0  0  0  0  0  0  0  0
  139.2580   78.0150  222.7260 C   0  0  0  0  0  0  0  0  0  0  0  0
  138.3940   78.9830  222.3110 N   0  0  0  0  0  0  0  0  0  0  0  0
  137.0930   78.7200  222.0960 C   0  0  0  0  0  0  0  0  0  0  0  0
  136.6000   77.4660  222.2920 C   0  0  0  0  0  0  0  0  0  0  0  0
  137.4960   76.4910  222.7150 C   0  0  0  0  0  0  0  0  0  0  0  0
  138.7970   76.7560  222.9290 N   0  0  0  0  0  0  0  0  0  0  0  0
  140.1190   74.8550  221.1380 C   0  0  0  0  0  0  0  0  0  0  0  0
  141.0140   74.9780  222.0280 O   0  0  0  0  0  0  0  0  0  0  0  0
  139.2700   73.6480  221.1550 C   0  0  0  0  0  0  0  0  0  0  0  0
  139.5070   72.9340  222.3890 N   0  0  0  0  0  0  0  0  0  0  0  0
  139.2500   71.5450  222.5000 C   0  0  0  0  0  0  0  0  0  0  0  0
  138.7990   70.8720  221.5110 O   0  0  0  0  0  0  0  0  0  0  0  0
  139.5130   70.8720  223.7890 C   0  0  0  0  0  0  0  0  0  0  0  0
  139.1790   69.5290  223.9150 C   0  0  0  0  0  0  0  0  0  0  0  0
  139.3930   68.8440  225.0750 C   0  0  0  0  0  0  0  0  0  0  0  0
  139.9600   69.5360  226.1290 C   0  0  0  0  0  0  0  0  0  0  0  0
  140.1820   68.8480  227.3080 C   0  0  0  0  0  0  0  0  0  0  0  0
  140.7450   69.5100  228.3760 C   0  0  0  0  0  0  0  0  0  0  0  0
  141.0690   70.8490  228.2240 C   0  0  0  0  0  0  0  0  0  0  0  0
  140.8410   71.5210  227.0340 C   0  0  0  0  0  0  0  0  0  0  0  0
  140.2770   70.8660  225.9590 C   0  0  0  0  0  0  0  0  0  0  0  0
  140.0630   71.5390  224.8140 N   0  0  0  0  0  0  0  0  0  0  0  0
  137.8823   76.0093  220.2181 H   0  0  0  0  0  0  0  0  0  0  0  0
  138.6635   76.8670  218.8468 H   0  0  0  0  0  0  0  0  0  0  0  0
  138.5679   75.0733  218.8468 H   0  0  0  0  0  0  0  0  0  0  0  0
  141.9538   76.4289  220.3593 H   0  0  0  0  0  0  0  0  0  0  0  0
  141.0632   76.9524  218.8293 H   0  0  0  0  0  0  0  0  0  0  0  0
  143.2155   79.5261  221.5491 H   0  0  0  0  0  0  0  0  0  0  0  0
  141.9602   80.7509  221.3627 H   0  0  0  0  0  0  0  0  0  0  0  0
  143.0140   79.4320  223.8915 H   0  0  0  0  0  0  0  0  0  0  0  0
  142.4005   81.0640  223.7174 H   0  0  0  0  0  0  0  0  0  0  0  0
  140.8398   79.2486  224.8923 H   0  0  0  0  0  0  0  0  0  0  0  0
  140.0585   80.2665  223.7117 H   0  0  0  0  0  0  0  0  0  0  0  0
  141.1762   77.4400  223.4031 H   0  0  0  0  0  0  0  0  0  0  0  0
  136.4220   79.5239  221.7592 H   0  0  0  0  0  0  0  0  0  0  0  0
  135.5381   77.2344  222.1229 H   0  0  0  0  0  0  0  0  0  0  0  0
  137.1283   75.4676  222.8803 H   0  0  0  0  0  0  0  0  0  0  0  0
  138.2110   73.9391  221.0929 H   0  0  0  0  0  0  0  0  0  0  0  0
  139.5141   73.0051  220.2964 H   0  0  0  0  0  0  0  0  0  0  0  0
  139.8780   73.4390  223.2320 H   0  0  0  0  0  0  0  0  0  0  0  0
  138.7308   69.0052  223.0578 H   0  0  0  0  0  0  0  0  0  0  0  0
  139.1246   67.7813  225.1683 H   0  0  0  0  0  0  0  0  0  0  0  0
  139.9121   67.7849  227.3915 H   0  0  0  0  0  0  0  0  0  0  0  0
  140.9330   68.9890  229.3264 H   0  0  0  0  0  0  0  0  0  0  0  0
  141.5182   71.3915  229.0689 H   0  0  0  0  0  0  0  0  0  0  0  0
  141.1115   72.5836  226.9459 H   0  0  0  0  0  0  0  0  0  0  0  0
  1  2  1  0
  2  3  1  0
  3  4  1  0
  4  5  2  0
  4  6  1  0
  6  7  1  0
  7  8  1  0
  8  9  1  0
  9 10  1  0
 10 11  1  0
 11 12  2  0
 12 13  1  0
 13 14  2  0
 14 15  1  0
 15 16  2  0
  2 17  1  0
 17 18  2  0
 17 19  1  0
 19 20  1  0
 20 21  1  0
 21 22  2  0
 21 23  1  0
 23 24  2  0
 24 25  1  0
 25 26  2  0
 26 27  1  0
 27 28  2  0
 28 29  1  0
 29 30  2  0
 30 31  1  0
 31 32  2  0
 10  6  1  0
 16 11  1  0
 32 23  1  0
 31 26  1  0
  1 33  1  0
  1 34  1  0
  1 35  1  0
  3 36  1  0
  3 37  1  0
  7 38  1  0
  7 39  1  0
  8 40  1  0
  8 41  1  0
  9 42  1  0
  9 43  1  0
 10 44  1  1
 13 45  1  0
 14 46  1  0
 15 47  1  0
 19 48  1  0
 19 49  1  0
 20 50  1  0
 24 51  1  0
 25 52  1  0
 27 53  1  0
 28 54  1  0
 29 55  1  0
 30 56  1  0
M  END
>  <smiles>  (11) 
CN(CC(=O)N1CCC[C@H]1c1ncccn1)C(=O)CNC(=O)c1ccc2ccccc2n1

>  <score_type>  (11) 
oracle

>  <origin>  (11) 
autodockgpu

>  <m_score__min__energy>  (11) 
-8.3200000000000003

>  <m_primary>  (11) 
energy

>  <rmsd>  (11) 
1.8110773641463618

>  <m_score__min__rmsd>  (11) 
1.8110773641463618

>  <meeko>  (11) 
{"free_energy": -7.52, "intermolecular_energy": -9.9, "internal_energy": -3.16, "cluster_size": 19, "cluster_id": 2, "rank_in_cluster": 19}

>  <energy>  (11) 
-7.94

>  <cluster_rmsd>  (11) 
0.67

>  <cluster>  (11) 
1

$$$$

     RDKit          3D

 56 59  0  0  0  0  0  0  0  0999 V2000
  139.9190   75.8310  218.8280 C   0  0  0  0  0  0  0  0  0  0  0  0
  140.7200   76.0550  220.0410 N   0  0  0  0  0  0  0  0  0  0  0  0
  141.7180   77.0620  220.1090 C   0  0  0  0  0  0  0  0  0  0  0  0
  141.2790   78.3610  220.6000 C   0  0  0  0  0  0  0  0  0  0  0  0
  140.4750   78.9750  219.7870 O   0  0  0  0  0  0  0  0  0  0  0  0
  141.5700   79.0580  221.7860 N   0  0  0  0  0  0  0  0  0  0  0  0
  142.5630   80.0830  222.0650 C   0  0  0  0  0  0  0  0  0  0  0  0
  142.3590   80.4370  223.5390 C   0  0  0  0  0  0  0  0  0  0  0  0
  140.9290   80.0550  223.7900 C   0  0  0  0  0  0  0  0  0  0  0  0
  140.8100   78.7850  223.0250 C   0  0  1  0  0  0  0  0  0  0  0  0
  139.4000   78.5290  222.6130 C   0  0  0  0  0  0  0  0  0  0  0  0
  138.6570   79.5090  222.0270 N   0  0  0  0  0  0  0  0  0  0  0  0
  137.3830   79.2950  221.6490 C   0  0  0  0  0  0  0  0  0  0  0  0
  136.7990   78.0810  221.8460 C   0  0  0  0  0  0  0  0  0  0  0  0
  137.5730   77.0940  222.4450 C   0  0  0  0  0  0  0  0  0  0  0  0
  138.8460   77.3100  222.8220 N   0  0  0  0  0  0  0  0  0  0  0  0
  140.4050   75.2210  221.1550 C   0  0  0  0  0  0  0  0  0  0  0  0
  140.7930   75.5930  222.3040 O   0  0  0  0  0  0  0  0  0  0  0  0
  139.6530   73.9570  221.0400 C   0  0  0  0  0  0  0  0  0  0  0  0
  139.7560   73.2430  222.2930 N   0  0  0  0  0  0  0  0  0  0  0  0
  139.7920   71.8270  222.3350 C   0  0  0  0  0  0  0  0  0  0  0  0
  139.7360   71.1290  221.2660 O   0  0  0  0  0  0  0  0  0  0  0  0
  139.8980   71.1560  223.6480 C   0  0  0  0  0  0  0  0  0  0  0  0
  139.4750   69.8370  223.7520 C   0  0  0  0  0  0  0  0  0  0  0  0
  139.5430   69.1540  224.9310 C   0  0  0  0  0  0  0  0  0  0  0  0
  140.0530   69.8250  226.0280 C   0  0  0  0  0  0  0  0  0  0  0  0
  140.1260   69.1400  227.2270 C   0  0  0  0  0  0  0  0  0  0  0  0
  140.6290   69.7810  228.3370 C   0  0  0  0  0  0  0  0  0  0  0  0
  141.0440   71.0970  228.2060 C   0  0  0  0  0  0  0  0  0  0  0  0
  140.9640   71.7670  226.9950 C   0  0  0  0  0  0  0  0  0  0  0  0
  140.4610   71.1330  225.8780 C   0  0  0  0  0  0  0  0  0  0  0  0
  140.3920   71.8030  224.7140 N   0  0  0  0  0  0  0  0  0  0  0  0
  138.8956   75.5448  219.1121 H   0  0  0  0  0  0  0  0  0  0  0  0
  139.8893   76.7553  218.2324 H   0  0  0  0  0  0  0  0  0  0  0  0
  140.3731   75.0254  218.2324 H   0  0  0  0  0  0  0  0  0  0  0  0
  142.5154   76.7017  220.7756 H   0  0  0  0  0  0  0  0  0  0  0  0
  142.0421   77.2302  219.0714 H   0  0  0  0  0  0  0  0  0  0  0  0
  143.5783   79.6943  221.8972 H   0  0  0  0  0  0  0  0  0  0  0  0
  142.4500   80.9588  221.4091 H   0  0  0  0  0  0  0  0  0  0  0  0
  143.0400   79.8591  224.1811 H   0  0  0  0  0  0  0  0  0  0  0  0
  142.5681   81.4938  223.7613 H   0  0  0  0  0  0  0  0  0  0  0  0
  140.7401   79.8953  224.8618 H   0  0  0  0  0  0  0  0  0  0  0  0
  140.2043   80.8251  223.4871 H   0  0  0  0  0  0  0  0  0  0  0  0
  141.1582   77.9269  223.6187 H   0  0  0  0  0  0  0  0  0  0  0  0
  136.8096   80.1068  221.1776 H   0  0  0  0  0  0  0  0  0  0  0  0
  135.7588   77.8894  221.5439 H   0  0  0  0  0  0  0  0  0  0  0  0
  137.1293   76.1022  222.6166 H   0  0  0  0  0  0  0  0  0  0  0  0
  138.5966   74.1729  220.8223 H   0  0  0  0  0  0  0  0  0  0  0  0
  140.0674   73.3462  220.2244 H   0  0  0  0  0  0  0  0  0  0  0  0
  139.8060   73.7690  223.2010 H   0  0  0  0  0  0  0  0  0  0  0  0
  139.0751   69.3304  222.8612 H   0  0  0  0  0  0  0  0  0  0  0  0
  139.2053   68.1099  225.0065 H   0  0  0  0  0  0  0  0  0  0  0  0
  139.7864   68.0958  227.2932 H   0  0  0  0  0  0  0  0  0  0  0  0
  140.6997   69.2614  229.3040 H   0  0  0  0  0  0  0  0  0  0  0  0
  141.4467   71.6226  229.0844 H   0  0  0  0  0  0  0  0  0  0  0  0
  141.3038   72.8108  226.9244 H   0  0  0  0  0  0  0  0  0  0  0  0
  1  2  1  0
  2  3  1  0
  3  4  1  0
  4  5  2  0
  4  6  1  0
  6  7  1  0
  7  8  1  0
  8  9  1  0
  9 10  1  0
 10 11  1  0
 11 12  2  0
 12 13  1  0
 13 14  2  0
 14 15  1  0
 15 16  2  0
  2 17  1  0
 17 18  2  0
 17 19  1  0
 19 20  1  0
 20 21  1  0
 21 22  2  0
 21 23  1  0
 23 24  2  0
 24 25  1  0
 25 26  2  0
 26 27  1  0
 27 28  2  0
 28 29  1  0
 29 30  2  0
 30 31  1  0
 31 32  2  0
 10  6  1  0
 16 11  1  0
 32 23  1  0
 31 26  1  0
  1 33  1  0
  1 34  1  0
  1 35  1  0
  3 36  1  0
  3 37  1  0
  7 38  1  0
  7 39  1  0
  8 40  1  0
  8 41  1  0
  9 42  1  0
  9 43  1  0
 10 44  1  1
 13 45  1  0
 14 46  1  0
 15 47  1  0
 19 48  1  0
 19 49  1  0
 20 50  1  0
 24 51  1  0
 25 52  1  0
 27 53  1  0
 28 54  1  0
 29 55  1  0
 30 56  1  0
M  END
>  <smiles>  (12) 
CN(CC(=O)N1CCC[C@H]1c1ncccn1)C(=O)CNC(=O)c1ccc2ccccc2n1

>  <score_type>  (12) 
oracle

>  <origin>  (12) 
autodockgpu

>  <m_score__min__energy>  (12) 
-8.3200000000000003

>  <m_primary>  (12) 
energy

>  <rmsd>  (12) 
1.8572054526707877

>  <m_score__min__rmsd>  (12) 
1.8572054526707877

>  <meeko>  (12) 
{"free_energy": -7.72, "intermolecular_energy": -10.11, "internal_energy": -3.0, "cluster_size": 19, "cluster_id": 2, "rank_in_cluster": 16}

>  <energy>  (12) 
-7.93

>  <cluster_rmsd>  (12) 
1.6

>  <cluster>  (12) 
1

$$$$

     RDKit          3D

 56 59  0  0  0  0  0  0  0  0999 V2000
  139.8990   75.9250  219.2570 C   0  0  0  0  0  0  0  0  0  0  0  0
  140.3460   76.0560  220.6510 N   0  0  0  0  0  0  0  0  0  0  0  0
  141.2090   77.1030  221.0700 C   0  0  0  0  0  0  0  0  0  0  0  0
  140.5890   78.1650  221.8490 C   0  0  0  0  0  0  0  0  0  0  0  0
  139.3030   78.0340  221.9680 O   0  0  0  0  0  0  0  0  0  0  0  0
  141.1320   79.2940  222.4880 N   0  0  0  0  0  0  0  0  0  0  0  0
  141.9100   79.4100  223.7120 C   0  0  0  0  0  0  0  0  0  0  0  0
  142.2010   80.9050  223.8520 C   0  0  0  0  0  0  0  0  0  0  0  0
  142.1080   81.4070  222.4400 C   0  0  0  0  0  0  0  0  0  0  0  0
  140.9420   80.6450  221.9180 C   0  0  1  0  0  0  0  0  0  0  0  0
  141.0110   80.4960  220.4360 C   0  0  0  0  0  0  0  0  0  0  0  0
  142.1980   80.2530  219.8140 N   0  0  0  0  0  0  0  0  0  0  0  0
  142.2780   80.1160  218.4780 C   0  0  0  0  0  0  0  0  0  0  0  0
  141.1620   80.2190  217.7050 C   0  0  0  0  0  0  0  0  0  0  0  0
  139.9590   80.4670  218.3570 C   0  0  0  0  0  0  0  0  0  0  0  0
  139.8820   80.6030  219.6930 N   0  0  0  0  0  0  0  0  0  0  0  0
  139.8290   75.0870  221.5620 C   0  0  0  0  0  0  0  0  0  0  0  0
  139.4630   75.4860  222.7100 O   0  0  0  0  0  0  0  0  0  0  0  0
  139.6970   73.6540  221.2400 C   0  0  0  0  0  0  0  0  0  0  0  0
  139.7220   72.8990  222.4720 N   0  0  0  0  0  0  0  0  0  0  0  0
  139.9360   71.4980  222.4760 C   0  0  0  0  0  0  0  0  0  0  0  0
  140.1150   70.8510  221.3890 O   0  0  0  0  0  0  0  0  0  0  0  0
  139.9500   70.7830  223.7690 C   0  0  0  0  0  0  0  0  0  0  0  0
  139.3960   69.5100  223.8280 C   0  0  0  0  0  0  0  0  0  0  0  0
  139.3740   68.7910  224.9870 C   0  0  0  0  0  0  0  0  0  0  0  0
  139.9290   69.3760  226.1100 C   0  0  0  0  0  0  0  0  0  0  0  0
  139.9110   68.6540  227.2890 C   0  0  0  0  0  0  0  0  0  0  0  0
  140.4550   69.2100  228.4250 C   0  0  0  0  0  0  0  0  0  0  0  0
  141.0020   70.4810  228.3400 C   0  0  0  0  0  0  0  0  0  0  0  0
  141.0110   71.1890  227.1490 C   0  0  0  0  0  0  0  0  0  0  0  0
  140.4680   70.6400  226.0060 C   0  0  0  0  0  0  0  0  0  0  0  0
  140.4870   71.3470  224.8620 N   0  0  0  0  0  0  0  0  0  0  0  0
  138.8436   75.6157  219.2379 H   0  0  0  0  0  0  0  0  0  0  0  0
  140.0069   76.8925  218.7449 H   0  0  0  0  0  0  0  0  0  0  0  0
  140.5120   75.1687  218.7449 H   0  0  0  0  0  0  0  0  0  0  0  0
  142.0066   76.6574  221.6826 H   0  0  0  0  0  0  0  0  0  0  0  0
  141.5666   77.5815  220.1463 H   0  0  0  0  0  0  0  0  0  0  0  0
  141.3321   79.0457  224.5741 H   0  0  0  0  0  0  0  0  0  0  0  0
  142.8313   78.8100  223.6760 H   0  0  0  0  0  0  0  0  0  0  0  0
  141.4536   81.3938  224.4943 H   0  0  0  0  0  0  0  0  0  0  0  0
  143.1745   81.1127  224.3202 H   0  0  0  0  0  0  0  0  0  0  0  0
  141.9221   82.4908  222.4124 H   0  0  0  0  0  0  0  0  0  0  0  0
  143.0293   81.2636  221.8563 H   0  0  0  0  0  0  0  0  0  0  0  0
  139.9938   81.1409  222.1727 H   0  0  0  0  0  0  0  0  0  0  0  0
  143.2523   79.9193  218.0067 H   0  0  0  0  0  0  0  0  0  0  0  0
  141.2099   80.1107  216.6114 H   0  0  0  0  0  0  0  0  0  0  0  0
  139.0393   80.5549  217.7600 H   0  0  0  0  0  0  0  0  0  0  0  0
  138.7454   73.4781  220.7171 H   0  0  0  0  0  0  0  0  0  0  0  0
  140.5256   73.3378  220.5893 H   0  0  0  0  0  0  0  0  0  0  0  0
  139.5810   73.3820  223.3940 H   0  0  0  0  0  0  0  0  0  0  0  0
  138.9641   69.0708  222.9167 H   0  0  0  0  0  0  0  0  0  0  0  0
  138.9317   67.7846  225.0266 H   0  0  0  0  0  0  0  0  0  0  0  0
  139.4675   67.6478  227.3190 H   0  0  0  0  0  0  0  0  0  0  0  0
  140.4556   68.6590  229.3771 H   0  0  0  0  0  0  0  0  0  0  0  0
  141.4394   70.9384  229.2397 H   0  0  0  0  0  0  0  0  0  0  0  0
  141.4540   72.1953  227.1148 H   0  0  0  0  0  0  0  0  0  0  0  0
  1  2  1  0
  2  3  1  0
  3  4  1  0
  4  5  2  0
  4  6  1  0
  6  7  1  0
  7  8  1  0
  8  9  1  0
  9 10  1  0
 10 11  1  0
 11 12  2  0
 12 13  1  0
 13 14  2  0
 14 15  1  0
 15 16  2  0
  2 17  1  0
 17 18  2  0
 17 19  1  0
 19 20  1  0
 20 21  1  0
 21 22  2  0
 21 23  1  0
 23 24  2  0
 24 25  1  0
 25 26  2  0
 26 27  1  0
 27 28  2  0
 28 29  1  0
 29 30  2  0
 30 31  1  0
 31 32  2  0
 10  6  1  0
 16 11  1  0
 32 23  1  0
 31 26  1  0
  1 33  1  0
  1 34  1  0
  1 35  1  0
  3 36  1  0
  3 37  1  0
  7 38  1  0
  7 39  1  0
  8 40  1  0
  8 41  1  0
  9 42  1  0
  9 43  1  0
 10 44  1  6
 13 45  1  0
 14 46  1  0
 15 47  1  0
 19 48  1  0
 19 49  1  0
 20 50  1  0
 24 51  1  0
 25 52  1  0
 27 53  1  0
 28 54  1  0
 29 55  1  0
 30 56  1  0
M  END
>  <smiles>  (13) 
CN(CC(=O)N1CCC[C@H]1c1ncccn1)C(=O)CNC(=O)c1ccc2ccccc2n1

>  <score_type>  (13) 
oracle

>  <origin>  (13) 
autodockgpu

>  <m_score__min__energy>  (13) 
-8.3200000000000003

>  <m_primary>  (13) 
energy

>  <rmsd>  (13) 
2.048873201595292

>  <m_score__min__rmsd>  (13) 
2.048873201595292

>  <meeko>  (13) 
{"free_energy": -7.87, "intermolecular_energy": -10.26, "internal_energy": -2.54, "cluster_size": 22, "cluster_id": 1, "rank_in_cluster": 14}

>  <energy>  (13) 
-7.92

>  <cluster_rmsd>  (13) 
2.0

>  <cluster>  (13) 
1

$$$$

     RDKit          3D

 56 59  0  0  0  0  0  0  0  0999 V2000
  139.0390   77.0670  219.5570 C   0  0  0  0  0  0  0  0  0  0  0  0
  139.9790   76.7420  220.6400 N   0  0  0  0  0  0  0  0  0  0  0  0
  141.1540   77.5040  220.8720 C   0  0  0  0  0  0  0  0  0  0  0  0
  141.4040   77.8820  222.2550 C   0  0  0  0  0  0  0  0  0  0  0  0
  141.3550   76.8810  223.0800 O   0  0  0  0  0  0  0  0  0  0  0  0
  141.6860   79.1260  222.8470 N   0  0  0  0  0  0  0  0  0  0  0  0
  142.9140   79.9070  222.8760 C   0  0  0  0  0  0  0  0  0  0  0  0
  142.5600   81.1650  223.6720 C   0  0  0  0  0  0  0  0  0  0  0  0
  141.0730   81.2770  223.4950 C   0  0  0  0  0  0  0  0  0  0  0  0
  140.6420   79.8560  223.5970 C   0  0  1  0  0  0  0  0  0  0  0  0
  139.3580   79.6250  222.8760 C   0  0  0  0  0  0  0  0  0  0  0  0
  138.4470   78.7270  223.3440 N   0  0  0  0  0  0  0  0  0  0  0  0
  137.2840   78.5070  222.7050 C   0  0  0  0  0  0  0  0  0  0  0  0
  136.9840   79.1830  221.5620 C   0  0  0  0  0  0  0  0  0  0  0  0
  137.9260   80.0960  221.1000 C   0  0  0  0  0  0  0  0  0  0  0  0
  139.0880   80.3150  221.7400 N   0  0  0  0  0  0  0  0  0  0  0  0
  139.6150   75.6360  221.4650 C   0  0  0  0  0  0  0  0  0  0  0  0
  138.9630   75.8750  222.5270 O   0  0  0  0  0  0  0  0  0  0  0  0
  139.9550   74.2360  221.1480 C   0  0  0  0  0  0  0  0  0  0  0  0
  139.8910   73.4580  222.3640 N   0  0  0  0  0  0  0  0  0  0  0  0
  140.2980   72.1010  222.3950 C   0  0  0  0  0  0  0  0  0  0  0  0
  140.7370   71.5150  221.3480 O   0  0  0  0  0  0  0  0  0  0  0  0
  140.2080   71.3580  223.6700 C   0  0  0  0  0  0  0  0  0  0  0  0
  139.6230   70.0980  223.6620 C   0  0  0  0  0  0  0  0  0  0  0  0
  139.5070   69.3560  224.8010 C   0  0  0  0  0  0  0  0  0  0  0  0
  139.9950   69.9050  225.9720 C   0  0  0  0  0  0  0  0  0  0  0  0
  139.8810   69.1590  227.1310 C   0  0  0  0  0  0  0  0  0  0  0  0
  140.3580   69.6780  228.3140 C   0  0  0  0  0  0  0  0  0  0  0  0
  140.9360   70.9380  228.2940 C   0  0  0  0  0  0  0  0  0  0  0  0
  141.0420   71.6700  227.1230 C   0  0  0  0  0  0  0  0  0  0  0  0
  140.5670   71.1580  225.9330 C   0  0  0  0  0  0  0  0  0  0  0  0
  140.6800   71.8870  224.8090 N   0  0  0  0  0  0  0  0  0  0  0  0
  138.0827   77.3976  219.9885 H   0  0  0  0  0  0  0  0  0  0  0  0
  139.4590   77.8721  218.9362 H   0  0  0  0  0  0  0  0  0  0  0  0
  138.8721   76.1744  218.9362 H   0  0  0  0  0  0  0  0  0  0  0  0
  142.0135   76.9124  220.5237 H   0  0  0  0  0  0  0  0  0  0  0  0
  141.0087   78.4484  220.3270 H   0  0  0  0  0  0  0  0  0  0  0  0
  143.7179   79.3462  223.3753 H   0  0  0  0  0  0  0  0  0  0  0  0
  143.2784   80.1444  221.8657 H   0  0  0  0  0  0  0  0  0  0  0  0
  142.8229   81.0469  224.7336 H   0  0  0  0  0  0  0  0  0  0  0  0
  143.1032   82.0584  223.3303 H   0  0  0  0  0  0  0  0  0  0  0  0
  140.6209   81.8899  224.2888 H   0  0  0  0  0  0  0  0  0  0  0  0
  140.7734   81.7653  222.5559 H   0  0  0  0  0  0  0  0  0  0  0  0
  140.5089   79.5531  224.6461 H   0  0  0  0  0  0  0  0  0  0  0  0
  136.5695   77.7749  223.1093 H   0  0  0  0  0  0  0  0  0  0  0  0
  136.0377   79.0144  221.0271 H   0  0  0  0  0  0  0  0  0  0  0  0
  137.7130   80.6585  220.1790 H   0  0  0  0  0  0  0  0  0  0  0  0
  139.2379   73.8375  220.4152 H   0  0  0  0  0  0  0  0  0  0  0  0
  140.9676   74.1831  220.7216 H   0  0  0  0  0  0  0  0  0  0  0  0
  139.5380   73.8910  223.2540 H   0  0  0  0  0  0  0  0  0  0  0  0
  139.2440   69.6885  222.7140 H   0  0  0  0  0  0  0  0  0  0  0  0
  139.0428   68.3588  224.7880 H   0  0  0  0  0  0  0  0  0  0  0  0
  139.4148   68.1629  227.1081 H   0  0  0  0  0  0  0  0  0  0  0  0
  140.2823   69.1072  229.2513 H   0  0  0  0  0  0  0  0  0  0  0  0
  141.3199   71.3670  229.2313 H   0  0  0  0  0  0  0  0  0  0  0  0
  141.5080   72.6662  227.1418 H   0  0  0  0  0  0  0  0  0  0  0  0
  1  2  1  0
  2  3  1  0
  3  4  1  0
  4  5  2  0
  4  6  1  0
  6  7  1  0
  7  8  1  0
  8  9  1  0
  9 10  1  0
 10 11  1  0
 11 12  2  0
 12 13  1  0
 13 14  2  0
 14 15  1  0
 15 16  2  0
  2 17  1  0
 17 18  2  0
 17 19  1  0
 19 20  1  0
 20 21  1  0
 21 22  2  0
 21 23  1  0
 23 24  2  0
 24 25  1  0
 25 26  2  0
 26 27  1  0
 27 28  2  0
 28 29  1  0
 29 30  2  0
 30 31  1  0
 31 32  2  0
 10  6  1  0
 16 11  1  0
 32 23  1  0
 31 26  1  0
  1 33  1  0
  1 34  1  0
  1 35  1  0
  3 36  1  0
  3 37  1  0
  7 38  1  0
  7 39  1  0
  8 40  1  0
  8 41  1  0
  9 42  1  0
  9 43  1  0
 10 44  1  1
 13 45  1  0
 14 46  1  0
 15 47  1  0
 19 48  1  0
 19 49  1  0
 20 50  1  0
 24 51  1  0
 25 52  1  0
 27 53  1  0
 28 54  1  0
 29 55  1  0
 30 56  1  0
M  END
>  <smiles>  (14) 
CN(CC(=O)N1CCC[C@H]1c1ncccn1)C(=O)CNC(=O)c1ccc2ccccc2n1

>  <score_type>  (14) 
oracle

>  <origin>  (14) 
autodockgpu

>  <m_score__min__energy>  (14) 
-8.3200000000000003

>  <m_primary>  (14) 
energy

>  <rmsd>  (14) 
2.2715704850439526

>  <m_score__min__rmsd>  (14) 
2.2715704850439526

>  <meeko>  (14) 
{"free_energy": -7.88, "intermolecular_energy": -10.27, "internal_energy": -2.82, "cluster_size": 19, "cluster_id": 2, "rank_in_cluster": 11}

>  <energy>  (14) 
-7.87

>  <cluster_rmsd>  (14) 
1.02

>  <cluster>  (14) 
1

$$$$

     RDKit          3D

 56 59  0  0  0  0  0  0  0  0999 V2000
  138.9300   74.7600  218.3600 C   0  0  0  0  0  0  0  0  0  0  0  0
  139.6290   74.1840  219.5180 N   0  0  0  0  0  0  0  0  0  0  0  0
  140.8010   74.7740  220.0610 C   0  0  0  0  0  0  0  0  0  0  0  0
  140.6280   75.4960  221.3130 C   0  0  0  0  0  0  0  0  0  0  0  0
  140.3020   74.7290  222.3090 O   0  0  0  0  0  0  0  0  0  0  0  0
  140.7500   76.8600  221.6300 N   0  0  0  0  0  0  0  0  0  0  0  0
  141.7430   77.8430  221.2250 C   0  0  0  0  0  0  0  0  0  0  0  0
  141.3060   79.1440  221.9000 C   0  0  0  0  0  0  0  0  0  0  0  0
  139.8320   78.9470  222.1060 C   0  0  0  0  0  0  0  0  0  0  0  0
  139.7670   77.5180  222.5170 C   0  0  1  0  0  0  0  0  0  0  0  0
  138.4380   76.9220  222.1980 C   0  0  0  0  0  0  0  0  0  0  0  0
  137.8380   77.1580  220.9980 N   0  0  0  0  0  0  0  0  0  0  0  0
  136.6390   76.6280  220.6940 C   0  0  0  0  0  0  0  0  0  0  0  0
  135.9880   75.8340  221.5890 C   0  0  0  0  0  0  0  0  0  0  0  0
  136.6160   75.6040  222.8080 C   0  0  0  0  0  0  0  0  0  0  0  0
  137.8150   76.1350  223.1090 N   0  0  0  0  0  0  0  0  0  0  0  0
  139.0340   73.0170  220.0830 C   0  0  0  0  0  0  0  0  0  0  0  0
  139.4500   71.8860  219.6850 O   0  0  0  0  0  0  0  0  0  0  0  0
  137.9670   73.0570  221.1010 C   0  0  0  0  0  0  0  0  0  0  0  0
  138.4960   72.5430  222.3440 N   0  0  0  0  0  0  0  0  0  0  0  0
  138.4700   71.1570  222.6410 C   0  0  0  0  0  0  0  0  0  0  0  0
  137.9790   70.3110  221.8190 O   0  0  0  0  0  0  0  0  0  0  0  0
  139.0260   70.6940  223.9300 C   0  0  0  0  0  0  0  0  0  0  0  0
  138.8920   69.3520  224.2650 C   0  0  0  0  0  0  0  0  0  0  0  0
  139.3800   68.8550  225.4370 C   0  0  0  0  0  0  0  0  0  0  0  0
  140.0200   69.7370  226.2870 C   0  0  0  0  0  0  0  0  0  0  0  0
  140.5190   69.2410  227.4770 C   0  0  0  0  0  0  0  0  0  0  0  0
  141.1610   70.0950  228.3450 C   0  0  0  0  0  0  0  0  0  0  0  0
  141.2820   71.4290  227.9870 C   0  0  0  0  0  0  0  0  0  0  0  0
  140.7770   71.9080  226.7890 C   0  0  0  0  0  0  0  0  0  0  0  0
  140.1310   71.0590  225.9140 C   0  0  0  0  0  0  0  0  0  0  0  0
  139.6480   71.5470  224.7580 N   0  0  0  0  0  0  0  0  0  0  0  0
  138.1252   75.4232  218.7101 H   0  0  0  0  0  0  0  0  0  0  0  0
  139.6420   75.3370  217.7517 H   0  0  0  0  0  0  0  0  0  0  0  0
  138.4997   73.9508  217.7517 H   0  0  0  0  0  0  0  0  0  0  0  0
  141.5335   73.9716  220.2332 H   0  0  0  0  0  0  0  0  0  0  0  0
  141.1235   75.5261  219.3259 H   0  0  0  0  0  0  0  0  0  0  0  0
  142.7446   77.5458  221.5691 H   0  0  0  0  0  0  0  0  0  0  0  0
  141.8041   77.9439  220.1313 H   0  0  0  0  0  0  0  0  0  0  0  0
  141.8233   79.2826  222.8608 H   0  0  0  0  0  0  0  0  0  0  0  0
  141.5421   80.0385  221.3049 H   0  0  0  0  0  0  0  0  0  0  0  0
  139.4467   79.6083  222.8960 H   0  0  0  0  0  0  0  0  0  0  0  0
  139.2243   79.1824  221.2199 H   0  0  0  0  0  0  0  0  0  0  0  0
  139.9479   77.4038  223.5960 H   0  0  0  0  0  0  0  0  0  0  0  0
  136.1815   76.8375  219.7159 H   0  0  0  0  0  0  0  0  0  0  0  0
  135.0071   75.3934  221.3572 H   0  0  0  0  0  0  0  0  0  0  0  0
  136.1156   74.9663  223.5515 H   0  0  0  0  0  0  0  0  0  0  0  0
  137.6289   74.0941  221.2429 H   0  0  0  0  0  0  0  0  0  0  0  0
  137.1130   72.4453  220.7745 H   0  0  0  0  0  0  0  0  0  0  0  0
  138.9120   73.1960  223.0550 H   0  0  0  0  0  0  0  0  0  0  0  0
  138.3793   68.6737  223.5671 H   0  0  0  0  0  0  0  0  0  0  0  0
  139.2685   67.7918  225.6963 H   0  0  0  0  0  0  0  0  0  0  0  0
  140.4043   68.1760  227.7274 H   0  0  0  0  0  0  0  0  0  0  0  0
  141.5679   69.7282  229.2989 H   0  0  0  0  0  0  0  0  0  0  0  0
  141.7913   72.1240  228.6708 H   0  0  0  0  0  0  0  0  0  0  0  0
  140.8918   72.9718  226.5339 H   0  0  0  0  0  0  0  0  0  0  0  0
  1  2  1  0
  2  3  1  0
  3  4  1  0
  4  5  2  0
  4  6  1  0
  6  7  1  0
  7  8  1  0
  8  9  1  0
  9 10  1  0
 10 11  1  0
 11 12  2  0
 12 13  1  0
 13 14  2  0
 14 15  1  0
 15 16  2  0
  2 17  1  0
 17 18  2  0
 17 19  1  0
 19 20  1  0
 20 21  1  0
 21 22  2  0
 21 23  1  0
 23 24  2  0
 24 25  1  0
 25 26  2  0
 26 27  1  0
 27 28  2  0
 28 29  1  0
 29 30  2  0
 30 31  1  0
 31 32  2  0
 10  6  1  0
 16 11  1  0
 32 23  1  0
 31 26  1  0
  1 33  1  0
  1 34  1  0
  1 35  1  0
  3 36  1  0
  3 37  1  0
  7 38  1  0
  7 39  1  0
  8 40  1  0
  8 41  1  0
  9 42  1  0
  9 43  1  0
 10 44  1  1
 13 45  1  0
 14 46  1  0
 15 47  1  0
 19 48  1  0
 19 49  1  0
 20 50  1  0
 24 51  1  0
 25 52  1  0
 27 53  1  0
 28 54  1  0
 29 55  1  0
 30 56  1  0
M  END
>  <smiles>  (15) 
CN(CC(=O)N1CCC[C@H]1c1ncccn1)C(=O)CNC(=O)c1ccc2ccccc2n1

>  <score_type>  (15) 
oracle

>  <origin>  (15) 
autodockgpu

>  <m_score__min__energy>  (15) 
-8.3200000000000003

>  <m_primary>  (15) 
energy

>  <rmsd>  (15) 
2.2079196610742677

>  <m_score__min__rmsd>  (15) 
2.2079196610742677

>  <meeko>  (15) 
{"free_energy": -6.5, "intermolecular_energy": -8.89, "internal_energy": -3.48, "cluster_size": 5, "cluster_id": 3, "rank_in_cluster": 5}

>  <energy>  (15) 
-7.82

>  <cluster_rmsd>  (15) 
1.84

>  <cluster>  (15) 
1

$$$$

     RDKit          3D

 56 59  0  0  0  0  0  0  0  0999 V2000
  142.3340   76.0660  220.0630 C   0  0  0  0  0  0  0  0  0  0  0  0
  140.9770   76.4430  220.4880 N   0  0  0  0  0  0  0  0  0  0  0  0
  140.3190   77.5920  219.9750 C   0  0  0  0  0  0  0  0  0  0  0  0
  140.0510   78.6530  220.9350 C   0  0  0  0  0  0  0  0  0  0  0  0
  138.8620   79.1620  220.8220 O   0  0  0  0  0  0  0  0  0  0  0  0
  140.8440   79.2160  221.9500 N   0  0  0  0  0  0  0  0  0  0  0  0
  141.4160   78.6210  223.1480 C   0  0  0  0  0  0  0  0  0  0  0  0
  142.1780   79.7600  223.8280 C   0  0  0  0  0  0  0  0  0  0  0  0
  142.4820   80.6950  222.6930 C   0  0  0  0  0  0  0  0  0  0  0  0
  141.2200   80.6450  221.9060 C   0  0  1  0  0  0  0  0  0  0  0  0
  141.4620   80.9780  220.4720 C   0  0  0  0  0  0  0  0  0  0  0  0
  140.9500   82.1170  219.9260 N   0  0  0  0  0  0  0  0  0  0  0  0
  141.1580   82.4320  218.6350 C   0  0  0  0  0  0  0  0  0  0  0  0
  141.8930   81.6130  217.8330 C   0  0  0  0  0  0  0  0  0  0  0  0
  142.4070   80.4570  218.4080 C   0  0  0  0  0  0  0  0  0  0  0  0
  142.1980   80.1430  219.7000 N   0  0  0  0  0  0  0  0  0  0  0  0
  140.3520   75.5620  221.4190 C   0  0  0  0  0  0  0  0  0  0  0  0
  140.1030   76.0040  222.5820 O   0  0  0  0  0  0  0  0  0  0  0  0
  139.9810   74.1690  221.1010 C   0  0  0  0  0  0  0  0  0  0  0  0
  139.9000   73.4200  222.3350 N   0  0  0  0  0  0  0  0  0  0  0  0
  140.2730   72.0540  222.3950 C   0  0  0  0  0  0  0  0  0  0  0  0
  140.6960   71.4350  221.3600 O   0  0  0  0  0  0  0  0  0  0  0  0
  140.1670   71.3430  223.6860 C   0  0  0  0  0  0  0  0  0  0  0  0
  139.5710   70.0880  223.7030 C   0  0  0  0  0  0  0  0  0  0  0  0
  139.4390   69.3730  224.8570 C   0  0  0  0  0  0  0  0  0  0  0  0
  139.9230   69.9450  226.0200 C   0  0  0  0  0  0  0  0  0  0  0  0
  139.7940   69.2270  227.1940 C   0  0  0  0  0  0  0  0  0  0  0  0
  140.2660   69.7700  228.3680 C   0  0  0  0  0  0  0  0  0  0  0  0
  140.8560   71.0230  228.3240 C   0  0  0  0  0  0  0  0  0  0  0  0
  140.9780   71.7270  227.1370 C   0  0  0  0  0  0  0  0  0  0  0  0
  140.5070   71.1910  225.9560 C   0  0  0  0  0  0  0  0  0  0  0  0
  140.6350   71.8930  224.8160 N   0  0  0  0  0  0  0  0  0  0  0  0
  142.9609   75.8918  220.9499 H   0  0  0  0  0  0  0  0  0  0  0  0
  142.2875   75.1468  219.4606 H   0  0  0  0  0  0  0  0  0  0  0  0
  142.7683   76.8775  219.4606 H   0  0  0  0  0  0  0  0  0  0  0  0
  140.9476   78.0116  219.1757 H   0  0  0  0  0  0  0  0  0  0  0  0
  139.3331   77.2430  219.6342 H   0  0  0  0  0  0  0  0  0  0  0  0
  140.6225   78.2387  223.8069 H   0  0  0  0  0  0  0  0  0  0  0  0
  142.0691   77.7671  222.9149 H   0  0  0  0  0  0  0  0  0  0  0  0
  141.5546   80.2526  224.5888 H   0  0  0  0  0  0  0  0  0  0  0  0
  143.0788   79.4194  224.3595 H   0  0  0  0  0  0  0  0  0  0  0  0
  142.6862   81.7127  223.0570 H   0  0  0  0  0  0  0  0  0  0  0  0
  143.3763   80.4169  222.1161 H   0  0  0  0  0  0  0  0  0  0  0  0
  140.4725   81.3470  222.3041 H   0  0  0  0  0  0  0  0  0  0  0  0
  140.7310   83.3586  218.2238 H   0  0  0  0  0  0  0  0  0  0  0  0
  142.0722   81.8560  216.7753 H   0  0  0  0  0  0  0  0  0  0  0  0
  143.0053   79.7751  217.7858 H   0  0  0  0  0  0  0  0  0  0  0  0
  139.0057   74.1521  220.5926 H   0  0  0  0  0  0  0  0  0  0  0  0
  140.7361   73.7209  220.4383 H   0  0  0  0  0  0  0  0  0  0  0  0
  139.5590   73.8810  223.2150 H   0  0  0  0  0  0  0  0  0  0  0  0
  139.1960   69.6601  222.7616 H   0  0  0  0  0  0  0  0  0  0  0  0
  138.9660   68.3799  224.8627 H   0  0  0  0  0  0  0  0  0  0  0  0
  139.3202   68.2343  227.1905 H   0  0  0  0  0  0  0  0  0  0  0  0
  140.1769   69.2224  229.3178 H   0  0  0  0  0  0  0  0  0  0  0  0
  141.2368   71.4697  229.2543 H   0  0  0  0  0  0  0  0  0  0  0  0
  141.4531   72.7191  227.1360 H   0  0  0  0  0  0  0  0  0  0  0  0
  1  2  1  0
  2  3  1  0
  3  4  1  0
  4  5  2  0
  4  6  1  0
  6  7  1  0
  7  8  1  0
  8  9  1  0
  9 10  1  0
 10 11  1  0
 11 12  2  0
 12 13  1  0
 13 14  2  0
 14 15  1  0
 15 16  2  0
  2 17  1  0
 17 18  2  0
 17 19  1  0
 19 20  1  0
 20 21  1  0
 21 22  2  0
 21 23  1  0
 23 24  2  0
 24 25  1  0
 25 26  2  0
 26 27  1  0
 27 28  2  0
 28 29  1  0
 29 30  2  0
 30 31  1  0
 31 32  2  0
 10  6  1  0
 16 11  1  0
 32 23  1  0
 31 26  1  0
  1 33  1  0
  1 34  1  0
  1 35  1  0
  3 36  1  0
  3 37  1  0
  7 38  1  0
  7 39  1  0
  8 40  1  0
  8 41  1  0
  9 42  1  0
  9 43  1  0
 10 44  1  1
 13 45  1  0
 14 46  1  0
 15 47  1  0
 19 48  1  0
 19 49  1  0
 20 50  1  0
 24 51  1  0
 25 52  1  0
 27 53  1  0
 28 54  1  0
 29 55  1  0
 30 56  1  0
M  END
>  <smiles>  (16) 
CN(CC(=O)N1CCC[C@H]1c1ncccn1)C(=O)CNC(=O)c1ccc2ccccc2n1

>  <score_type>  (16) 
oracle

>  <origin>  (16) 
autodockgpu

>  <m_score__min__energy>  (16) 
-8.3200000000000003

>  <m_primary>  (16) 
energy

>  <rmsd>  (16) 
2.3752840707718312

>  <m_score__min__rmsd>  (16) 
2.3752840707718312

>  <meeko>  (16) 
{"free_energy": -8.3, "intermolecular_energy": -10.69, "internal_energy": -2.55, "cluster_size": 22, "cluster_id": 1, "rank_in_cluster": 2}

>  <energy>  (16) 
-7.75

>  <cluster_rmsd>  (16) 
2.0

>  <cluster>  (16) 
1

$$$$

     RDKit          3D

 56 59  0  0  0  0  0  0  0  0999 V2000
  137.0320   76.0950  221.0330 C   0  0  0  0  0  0  0  0  0  0  0  0
  138.4550   76.3860  220.8050 N   0  0  0  0  0  0  0  0  0  0  0  0
  138.8830   77.4740  220.0000 C   0  0  0  0  0  0  0  0  0  0  0  0
  139.1000   78.7330  220.6960 C   0  0  0  0  0  0  0  0  0  0  0  0
  138.3810   79.7100  220.2330 O   0  0  0  0  0  0  0  0  0  0  0  0
  139.9420   79.0740  221.7700 N   0  0  0  0  0  0  0  0  0  0  0  0
  139.7150   79.0270  223.2060 C   0  0  0  0  0  0  0  0  0  0  0  0
  141.0230   79.5190  223.8280 C   0  0  0  0  0  0  0  0  0  0  0  0
  142.0420   79.2190  222.7660 C   0  0  0  0  0  0  0  0  0  0  0  0
  141.3080   79.5820  221.5230 C   0  0  1  0  0  0  0  0  0  0  0  0
  141.8350   78.8360  220.3450 C   0  0  0  0  0  0  0  0  0  0  0  0
  142.1250   77.5080  220.4330 N   0  0  0  0  0  0  0  0  0  0  0  0
  142.6000   76.8200  219.3800 C   0  0  0  0  0  0  0  0  0  0  0  0
  142.8060   77.4400  218.1850 C   0  0  0  0  0  0  0  0  0  0  0  0
  142.5040   78.7950  218.1140 C   0  0  0  0  0  0  0  0  0  0  0  0
  142.0280   79.4810  219.1680 N   0  0  0  0  0  0  0  0  0  0  0  0
  139.3780   75.5270  221.4750 C   0  0  0  0  0  0  0  0  0  0  0  0
  140.0900   76.0260  222.3990 O   0  0  0  0  0  0  0  0  0  0  0  0
  139.5440   74.0980  221.1520 C   0  0  0  0  0  0  0  0  0  0  0  0
  139.6510   73.3540  222.3870 N   0  0  0  0  0  0  0  0  0  0  0  0
  139.8790   71.9550  222.3890 C   0  0  0  0  0  0  0  0  0  0  0  0
  139.9970   71.3000  221.2980 O   0  0  0  0  0  0  0  0  0  0  0  0
  139.9790   71.2520  223.6850 C   0  0  0  0  0  0  0  0  0  0  0  0
  139.5530   69.9310  223.7550 C   0  0  0  0  0  0  0  0  0  0  0  0
  139.6160   69.2200  224.9180 C   0  0  0  0  0  0  0  0  0  0  0  0
  140.1250   69.8620  226.0320 C   0  0  0  0  0  0  0  0  0  0  0  0
  140.1930   69.1480  227.2140 C   0  0  0  0  0  0  0  0  0  0  0  0
  140.6940   69.7610  228.3400 C   0  0  0  0  0  0  0  0  0  0  0  0
  141.1130   71.0780  228.2430 C   0  0  0  0  0  0  0  0  0  0  0  0
  141.0370   71.7780  227.0490 C   0  0  0  0  0  0  0  0  0  0  0  0
  140.5360   71.1720  225.9150 C   0  0  0  0  0  0  0  0  0  0  0  0
  140.4720   71.8710  224.7680 N   0  0  0  0  0  0  0  0  0  0  0  0
  136.8347   76.0547  222.1144 H   0  0  0  0  0  0  0  0  0  0  0  0
  136.4184   76.8863  220.5776 H   0  0  0  0  0  0  0  0  0  0  0  0
  136.7783   75.1264  220.5776 H   0  0  0  0  0  0  0  0  0  0  0  0
  139.8303   77.1863  219.5207 H   0  0  0  0  0  0  0  0  0  0  0  0
  138.0614   77.6625  219.2933 H   0  0  0  0  0  0  0  0  0  0  0  0
  138.8806   79.6862  223.4876 H   0  0  0  0  0  0  0  0  0  0  0  0
  139.4473   78.0170  223.5499 H   0  0  0  0  0  0  0  0  0  0  0  0
  140.9785   80.5978  224.0385 H   0  0  0  0  0  0  0  0  0  0  0  0
  141.2499   79.0392  224.7915 H   0  0  0  0  0  0  0  0  0  0  0  0
  142.9443   79.8355  222.8921 H   0  0  0  0  0  0  0  0  0  0  0  0
  142.4053   78.1808  222.7799 H   0  0  0  0  0  0  0  0  0  0  0  0
  141.3847   80.6591  221.3132 H   0  0  0  0  0  0  0  0  0  0  0  0
  142.8240   75.7481  219.4845 H   0  0  0  0  0  0  0  0  0  0  0  0
  143.1945   76.8923  217.3138 H   0  0  0  0  0  0  0  0  0  0  0  0
  142.6598   79.3245  217.1625 H   0  0  0  0  0  0  0  0  0  0  0  0
  138.6733   73.7439  220.5806 H   0  0  0  0  0  0  0  0  0  0  0  0
  140.4511   73.9530  220.5468 H   0  0  0  0  0  0  0  0  0  0  0  0
  139.5620   73.8440  223.3120 H   0  0  0  0  0  0  0  0  0  0  0  0
  139.1553   69.4468  222.8509 H   0  0  0  0  0  0  0  0  0  0  0  0
  139.2747   68.1755  224.9675 H   0  0  0  0  0  0  0  0  0  0  0  0
  139.8510   68.1033  227.2541 H   0  0  0  0  0  0  0  0  0  0  0  0
  140.7601   69.2180  229.2944 H   0  0  0  0  0  0  0  0  0  0  0  0
  141.5157   71.5802  229.1350 H   0  0  0  0  0  0  0  0  0  0  0  0
  141.3781   72.8229  227.0052 H   0  0  0  0  0  0  0  0  0  0  0  0
  1  2  1  0
  2  3  1  0
  3  4  1  0
  4  5  2  0
  4  6  1  0
  6  7  1  0
  7  8  1  0
  8  9  1  0
  9 10  1  0
 10 11  1  0
 11 12  2  0
 12 13  1  0
 13 14  2  0
 14 15  1  0
 15 16  2  0
  2 17  1  0
 17 18  2  0
 17 19  1  0
 19 20  1  0
 20 21  1  0
 21 22  2  0
 21 23  1  0
 23 24  2  0
 24 25  1  0
 25 26  2  0
 26 27  1  0
 27 28  2  0
 28 29  1  0
 29 30  2  0
 30 31  1  0
 31 32  2  0
 10  6  1  0
 16 11  1  0
 32 23  1  0
 31 26  1  0
  1 33  1  0
  1 34  1  0
  1 35  1  0
  3 36  1  0
  3 37  1  0
  7 38  1  0
  7 39  1  0
  8 40  1  0
  8 41  1  0
  9 42  1  0
  9 43  1  0
 10 44  1  6
 13 45  1  0
 14 46  1  0
 15 47  1  0
 19 48  1  0
 19 49  1  0
 20 50  1  0
 24 51  1  0
 25 52  1  0
 27 53  1  0
 28 54  1  0
 29 55  1  0
 30 56  1  0
M  END
>  <smiles>  (17) 
CN(CC(=O)N1CCC[C@H]1c1ncccn1)C(=O)CNC(=O)c1ccc2ccccc2n1

>  <score_type>  (17) 
oracle

>  <origin>  (17) 
autodockgpu

>  <m_score__min__energy>  (17) 
-8.3200000000000003

>  <m_primary>  (17) 
energy

>  <rmsd>  (17) 
2.280064584163104

>  <m_score__min__rmsd>  (17) 
2.280064584163104

>  <meeko>  (17) 
{"free_energy": -7.68, "intermolecular_energy": -10.07, "internal_energy": -2.74, "cluster_size": 22, "cluster_id": 1, "rank_in_cluster": 18}

>  <energy>  (17) 
-7.74

>  <cluster_rmsd>  (17) 
1.24

>  <cluster>  (17) 
1

$$$$

     RDKit          3D

 56 59  0  0  0  0  0  0  0  0999 V2000
  140.0400   77.1300  219.5210 C   0  0  0  0  0  0  0  0  0  0  0  0
  139.2290   76.8750  220.7210 N   0  0  0  0  0  0  0  0  0  0  0  0
  138.0540   77.6180  221.0090 C   0  0  0  0  0  0  0  0  0  0  0  0
  138.2610   78.9940  221.4370 C   0  0  0  0  0  0  0  0  0  0  0  0
  139.0220   79.6750  220.6350 O   0  0  0  0  0  0  0  0  0  0  0  0
  137.7880   79.7060  222.5530 N   0  0  0  0  0  0  0  0  0  0  0  0
  136.5230   79.6210  223.2670 C   0  0  0  0  0  0  0  0  0  0  0  0
  136.6350   80.6540  224.3900 C   0  0  0  0  0  0  0  0  0  0  0  0
  138.1180   80.7840  224.5900 C   0  0  0  0  0  0  0  0  0  0  0  0
  138.6230   80.7460  223.1910 C   0  0  1  0  0  0  0  0  0  0  0  0
  140.0300   80.2570  223.1360 C   0  0  0  0  0  0  0  0  0  0  0  0
  140.9880   80.9630  222.4710 N   0  0  0  0  0  0  0  0  0  0  0  0
  142.2620   80.5360  222.4120 C   0  0  0  0  0  0  0  0  0  0  0  0
  142.6310   79.3750  223.0210 C   0  0  0  0  0  0  0  0  0  0  0  0
  141.6410   78.6690  223.6940 C   0  0  0  0  0  0  0  0  0  0  0  0
  140.3670   79.0980  223.7530 N   0  0  0  0  0  0  0  0  0  0  0  0
  139.6770   75.8080  221.5560 C   0  0  0  0  0  0  0  0  0  0  0  0
  140.0990   76.0990  222.7170 O   0  0  0  0  0  0  0  0  0  0  0  0
  139.6750   74.3920  221.1430 C   0  0  0  0  0  0  0  0  0  0  0  0
  139.7120   73.5650  222.3270 N   0  0  0  0  0  0  0  0  0  0  0  0
  139.9680   72.1730  222.2480 C   0  0  0  0  0  0  0  0  0  0  0  0
  140.1760   71.5990  221.1260 O   0  0  0  0  0  0  0  0  0  0  0  0
  139.9930   71.3810  223.4960 C   0  0  0  0  0  0  0  0  0  0  0  0
  139.4760   70.0920  223.4720 C   0  0  0  0  0  0  0  0  0  0  0  0
  139.4660   69.3030  224.5850 C   0  0  0  0  0  0  0  0  0  0  0  0
  139.9940   69.8350  225.7470 C   0  0  0  0  0  0  0  0  0  0  0  0
  139.9880   69.0420  226.8800 C   0  0  0  0  0  0  0  0  0  0  0  0
  140.5060   69.5430  228.0530 C   0  0  0  0  0  0  0  0  0  0  0  0
  141.0160   70.8320  228.0510 C   0  0  0  0  0  0  0  0  0  0  0  0
  141.0130   71.6110  226.9040 C   0  0  0  0  0  0  0  0  0  0  0  0
  140.4960   71.1180  225.7250 C   0  0  0  0  0  0  0  0  0  0  0  0
  140.5040   71.8930  224.6260 N   0  0  0  0  0  0  0  0  0  0  0  0
  141.0495   77.4474  219.8213 H   0  0  0  0  0  0  0  0  0  0  0  0
  140.1080   76.2099  218.9220 H   0  0  0  0  0  0  0  0  0  0  0  0
  139.5692   77.9234  218.9220 H   0  0  0  0  0  0  0  0  0  0  0  0
  137.4359   77.6373  220.0993 H   0  0  0  0  0  0  0  0  0  0  0  0
  137.5813   77.1088  221.8618 H   0  0  0  0  0  0  0  0  0  0  0  0
  135.6841   79.8652  222.5987 H   0  0  0  0  0  0  0  0  0  0  0  0
  136.3323   78.6087  223.6529 H   0  0  0  0  0  0  0  0  0  0  0  0
  136.1920   81.6145  224.0881 H   0  0  0  0  0  0  0  0  0  0  0  0
  136.1008   80.3567  225.3045 H   0  0  0  0  0  0  0  0  0  0  0  0
  138.3733   81.7344  225.0814 H   0  0  0  0  0  0  0  0  0  0  0  0
  138.5481   80.0062  225.2382 H   0  0  0  0  0  0  0  0  0  0  0  0
  138.5837   81.7412  222.7242 H   0  0  0  0  0  0  0  0  0  0  0  0
  143.0117   81.1290  221.8677 H   0  0  0  0  0  0  0  0  0  0  0  0
  143.6685   79.0116  222.9818 H   0  0  0  0  0  0  0  0  0  0  0  0
  141.9081   77.7272  224.1957 H   0  0  0  0  0  0  0  0  0  0  0  0
  138.7625   74.1752  220.5682 H   0  0  0  0  0  0  0  0  0  0  0  0
  140.5520   74.1839  220.5125 H   0  0  0  0  0  0  0  0  0  0  0  0
  139.5480   73.9870  223.2750 H   0  0  0  0  0  0  0  0  0  0  0  0
  139.0641   69.6972  222.5315 H   0  0  0  0  0  0  0  0  0  0  0  0
  139.0540   68.2834  224.5590 H   0  0  0  0  0  0  0  0  0  0  0  0
  139.5744   68.0233  226.8444 H   0  0  0  0  0  0  0  0  0  0  0  0
  140.5150   68.9351  228.9697 H   0  0  0  0  0  0  0  0  0  0  0  0
  141.4327   71.2464  228.9809 H   0  0  0  0  0  0  0  0  0  0  0  0
  141.4262   72.6300  226.9350 H   0  0  0  0  0  0  0  0  0  0  0  0
  1  2  1  0
  2  3  1  0
  3  4  1  0
  4  5  2  0
  4  6  1  0
  6  7  1  0
  7  8  1  0
  8  9  1  0
  9 10  1  0
 10 11  1  0
 11 12  2  0
 12 13  1  0
 13 14  2  0
 14 15  1  0
 15 16  2  0
  2 17  1  0
 17 18  2  0
 17 19  1  0
 19 20  1  0
 20 21  1  0
 21 22  2  0
 21 23  1  0
 23 24  2  0
 24 25  1  0
 25 26  2  0
 26 27  1  0
 27 28  2  0
 28 29  1  0
 29 30  2  0
 30 31  1  0
 31 32  2  0
 10  6  1  0
 16 11  1  0
 32 23  1  0
 31 26  1  0
  1 33  1  0
  1 34  1  0
  1 35  1  0
  3 36  1  0
  3 37  1  0
  7 38  1  0
  7 39  1  0
  8 40  1  0
  8 41  1  0
  9 42  1  0
  9 43  1  0
 10 44  1  6
 13 45  1  0
 14 46  1  0
 15 47  1  0
 19 48  1  0
 19 49  1  0
 20 50  1  0
 24 51  1  0
 25 52  1  0
 27 53  1  0
 28 54  1  0
 29 55  1  0
 30 56  1  0
M  END
>  <smiles>  (18) 
CN(CC(=O)N1CCC[C@H]1c1ncccn1)C(=O)CNC(=O)c1ccc2ccccc2n1

>  <score_type>  (18) 
oracle

>  <origin>  (18) 
autodockgpu

>  <m_score__min__energy>  (18) 
-8.3200000000000003

>  <m_primary>  (18) 
energy

>  <rmsd>  (18) 
2.7908695835807364

>  <m_score__min__rmsd>  (18) 
2.7908695835807364

>  <meeko>  (18) 
{"free_energy": -7.9, "intermolecular_energy": -10.29, "internal_energy": -2.64, "cluster_size": 19, "cluster_id": 2, "rank_in_cluster": 8}

>  <energy>  (18) 
-7.68

>  <cluster_rmsd>  (18) 
1.29

>  <cluster>  (18) 
1

$$$$

     RDKit          3D

 56 59  0  0  0  0  0  0  0  0999 V2000
  137.3840   76.0020  220.7570 C   0  0  0  0  0  0  0  0  0  0  0  0
  138.7900   76.2350  221.1200 N   0  0  0  0  0  0  0  0  0  0  0  0
  139.3950   77.5140  221.0090 C   0  0  0  0  0  0  0  0  0  0  0  0
  139.7540   78.1590  222.2630 C   0  0  0  0  0  0  0  0  0  0  0  0
  138.8960   77.9520  223.2150 O   0  0  0  0  0  0  0  0  0  0  0  0
  140.8550   78.9590  222.6200 N   0  0  0  0  0  0  0  0  0  0  0  0
  142.2180   78.9800  222.1100 C   0  0  0  0  0  0  0  0  0  0  0  0
  142.9180   80.0820  222.9070 C   0  0  0  0  0  0  0  0  0  0  0  0
  141.7850   80.9700  223.3350 C   0  0  0  0  0  0  0  0  0  0  0  0
  140.7310   79.9790  223.6830 C   0  0  1  0  0  0  0  0  0  0  0  0
  139.3680   80.5680  223.5510 C   0  0  0  0  0  0  0  0  0  0  0  0
  139.0140   81.2640  222.4350 N   0  0  0  0  0  0  0  0  0  0  0  0
  137.7890   81.8020  222.3000 C   0  0  0  0  0  0  0  0  0  0  0  0
  136.8610   81.6640  223.2870 C   0  0  0  0  0  0  0  0  0  0  0  0
  137.2400   80.9500  224.4190 C   0  0  0  0  0  0  0  0  0  0  0  0
  138.4660   80.4130  224.5510 N   0  0  0  0  0  0  0  0  0  0  0  0
  139.4950   75.1030  221.6260 C   0  0  0  0  0  0  0  0  0  0  0  0
  140.5400   75.3120  222.3160 O   0  0  0  0  0  0  0  0  0  0  0  0
  139.0750   73.7080  221.3910 C   0  0  0  0  0  0  0  0  0  0  0  0
  139.3830   72.9280  222.5680 N   0  0  0  0  0  0  0  0  0  0  0  0
  139.0690   71.5480  222.6420 C   0  0  0  0  0  0  0  0  0  0  0  0
  138.5020   70.9420  221.6700 O   0  0  0  0  0  0  0  0  0  0  0  0
  139.4090   70.8050  223.8740 C   0  0  0  0  0  0  0  0  0  0  0  0
  139.1770   69.4350  223.9060 C   0  0  0  0  0  0  0  0  0  0  0  0
  139.4660   68.6860  225.0080 C   0  0  0  0  0  0  0  0  0  0  0  0
  140.0040   69.3400  226.1010 C   0  0  0  0  0  0  0  0  0  0  0  0
  140.3010   68.5880  227.2220 C   0  0  0  0  0  0  0  0  0  0  0  0
  140.8370   69.2110  228.3270 C   0  0  0  0  0  0  0  0  0  0  0  0
  141.0590   70.5780  228.2690 C   0  0  0  0  0  0  0  0  0  0  0  0
  140.7560   71.3150  227.1350 C   0  0  0  0  0  0  0  0  0  0  0  0
  140.2180   70.6990  226.0240 C   0  0  0  0  0  0  0  0  0  0  0  0
  139.9310   71.4360  224.9370 N   0  0  0  0  0  0  0  0  0  0  0  0
  136.7809   75.9021  221.6715 H   0  0  0  0  0  0  0  0  0  0  0  0
  137.0129   76.8509  220.1640 H   0  0  0  0  0  0  0  0  0  0  0  0
  137.3066   75.0788  220.1640 H   0  0  0  0  0  0  0  0  0  0  0  0
  140.3127   77.4020  220.4130 H   0  0  0  0  0  0  0  0  0  0  0  0
  138.6361   78.1629  220.5475 H   0  0  0  0  0  0  0  0  0  0  0  0
  142.7089   78.0099  222.2770 H   0  0  0  0  0  0  0  0  0  0  0  0
  142.2525   79.1663  221.0264 H   0  0  0  0  0  0  0  0  0  0  0  0
  143.4432   79.6650  223.7790 H   0  0  0  0  0  0  0  0  0  0  0  0
  143.6858   80.6132  222.3253 H   0  0  0  0  0  0  0  0  0  0  0  0
  142.0630   81.5808  224.2066 H   0  0  0  0  0  0  0  0  0  0  0  0
  141.4760   81.6960  222.5685 H   0  0  0  0  0  0  0  0  0  0  0  0
  140.8518   79.6119  224.7129 H   0  0  0  0  0  0  0  0  0  0  0  0
  137.5346   82.3577  221.3854 H   0  0  0  0  0  0  0  0  0  0  0  0
  135.8548   82.0985  223.1931 H   0  0  0  0  0  0  0  0  0  0  0  0
  136.5124   80.8202  225.2337 H   0  0  0  0  0  0  0  0  0  0  0  0
  137.9927   73.6747  221.1974 H   0  0  0  0  0  0  0  0  0  0  0  0
  139.6062   73.2979  220.5194 H   0  0  0  0  0  0  0  0  0  0  0  0
  139.8490   73.3770  223.3960 H   0  0  0  0  0  0  0  0  0  0  0  0
  138.7495   68.9427  223.0201 H   0  0  0  0  0  0  0  0  0  0  0  0
  139.2782   67.6023  225.0268 H   0  0  0  0  0  0  0  0  0  0  0  0
  140.1114   67.5045  227.2314 H   0  0  0  0  0  0  0  0  0  0  0  0
  141.0829   68.6380  229.2332 H   0  0  0  0  0  0  0  0  0  0  0  0
  141.4859   71.0902  229.1439 H   0  0  0  0  0  0  0  0  0  0  0  0
  140.9458   72.3984  227.1207 H   0  0  0  0  0  0  0  0  0  0  0  0
  1  2  1  0
  2  3  1  0
  3  4  1  0
  4  5  2  0
  4  6  1  0
  6  7  1  0
  7  8  1  0
  8  9  1  0
  9 10  1  0
 10 11  1  0
 11 12  2  0
 12 13  1  0
 13 14  2  0
 14 15  1  0
 15 16  2  0
  2 17  1  0
 17 18  2  0
 17 19  1  0
 19 20  1  0
 20 21  1  0
 21 22  2  0
 21 23  1  0
 23 24  2  0
 24 25  1  0
 25 26  2  0
 26 27  1  0
 27 28  2  0
 28 29  1  0
 29 30  2  0
 30 31  1  0
 31 32  2  0
 10  6  1  0
 16 11  1  0
 32 23  1  0
 31 26  1  0
  1 33  1  0
  1 34  1  0
  1 35  1  0
  3 36  1  0
  3 37  1  0
  7 38  1  0
  7 39  1  0
  8 40  1  0
  8 41  1  0
  9 42  1  0
  9 43  1  0
 10 44  1  1
 13 45  1  0
 14 46  1  0
 15 47  1  0
 19 48  1  0
 19 49  1  0
 20 50  1  0
 24 51  1  0
 25 52  1  0
 27 53  1  0
 28 54  1  0
 29 55  1  0
 30 56  1  0
M  END
>  <smiles>  (19) 
CN(CC(=O)N1CCC[C@H]1c1ncccn1)C(=O)CNC(=O)c1ccc2ccccc2n1

>  <score_type>  (19) 
oracle

>  <origin>  (19) 
autodockgpu

>  <m_score__min__energy>  (19) 
-8.3200000000000003

>  <m_primary>  (19) 
energy

>  <rmsd>  (19) 
2.1413767176406506

>  <m_score__min__rmsd>  (19) 
2.1413767176406506

>  <meeko>  (19) 
{"free_energy": -8.1, "intermolecular_energy": -10.49, "internal_energy": -2.39, "cluster_size": 19, "cluster_id": 2, "rank_in_cluster": 5}

>  <energy>  (19) 
-7.65

>  <cluster_rmsd>  (19) 
1.77

>  <cluster>  (19) 
1

$$$$

     RDKit          3D

 56 59  0  0  0  0  0  0  0  0999 V2000
  141.7890   76.5880  220.1830 C   0  0  0  0  0  0  0  0  0  0  0  0
  140.4160   76.7170  220.6930 N   0  0  0  0  0  0  0  0  0  0  0  0
  139.5900   77.8230  220.3620 C   0  0  0  0  0  0  0  0  0  0  0  0
  139.7110   78.9880  221.2270 C   0  0  0  0  0  0  0  0  0  0  0  0
  138.7180   79.8160  221.1190 O   0  0  0  0  0  0  0  0  0  0  0  0
  140.7040   79.3680  222.1480 N   0  0  0  0  0  0  0  0  0  0  0  0
  141.2130   78.6880  223.3290 C   0  0  0  0  0  0  0  0  0  0  0  0
  142.2880   79.6220  223.8870 C   0  0  0  0  0  0  0  0  0  0  0  0
  142.7130   80.4150  222.6850 C   0  0  0  0  0  0  0  0  0  0  0  0
  141.4150   80.6560  221.9990 C   0  0  1  0  0  0  0  0  0  0  0  0
  141.6050   80.8720  220.5360 C   0  0  0  0  0  0  0  0  0  0  0  0
  141.1820   82.0210  219.9410 N   0  0  0  0  0  0  0  0  0  0  0  0
  141.3460   82.2320  218.6220 C   0  0  0  0  0  0  0  0  0  0  0  0
  141.9460   81.2910  217.8410 C   0  0  0  0  0  0  0  0  0  0  0  0
  142.3710   80.1250  218.4670 C   0  0  0  0  0  0  0  0  0  0  0  0
  142.2070   79.9160  219.7860 N   0  0  0  0  0  0  0  0  0  0  0  0
  139.9540   75.6420  221.5090 C   0  0  0  0  0  0  0  0  0  0  0  0
  139.3700   75.9300  222.5980 O   0  0  0  0  0  0  0  0  0  0  0  0
  140.1190   74.2190  221.1540 C   0  0  0  0  0  0  0  0  0  0  0  0
  139.9710   73.4240  222.3520 N   0  0  0  0  0  0  0  0  0  0  0  0
  140.4890   72.1080  222.4340 C   0  0  0  0  0  0  0  0  0  0  0  0
  141.1080   71.5750  221.4500 O   0  0  0  0  0  0  0  0  0  0  0  0
  140.3040   71.3450  223.6870 C   0  0  0  0  0  0  0  0  0  0  0  0
  139.6590   70.1170  223.6240 C   0  0  0  0  0  0  0  0  0  0  0  0
  139.4540   69.3590  224.7400 C   0  0  0  0  0  0  0  0  0  0  0  0
  139.9150   69.8580  225.9440 C   0  0  0  0  0  0  0  0  0  0  0  0
  139.7120   69.0950  227.0790 C   0  0  0  0  0  0  0  0  0  0  0  0
  140.1590   69.5650  228.2930 C   0  0  0  0  0  0  0  0  0  0  0  0
  140.8010   70.7940  228.3280 C   0  0  0  0  0  0  0  0  0  0  0  0
  140.9960   71.5430  227.1790 C   0  0  0  0  0  0  0  0  0  0  0  0
  140.5500   71.0800  225.9580 C   0  0  0  0  0  0  0  0  0  0  0  0
  140.7510   71.8260  224.8570 N   0  0  0  0  0  0  0  0  0  0  0  0
  142.4895   76.5222  221.0285 H   0  0  0  0  0  0  0  0  0  0  0  0
  141.8683   75.6784  219.5695 H   0  0  0  0  0  0  0  0  0  0  0  0
  142.0363   77.4669  219.5695 H   0  0  0  0  0  0  0  0  0  0  0  0
  139.8405   78.1362  219.3377 H   0  0  0  0  0  0  0  0  0  0  0  0
  138.5556   77.4688  220.4824 H   0  0  0  0  0  0  0  0  0  0  0  0
  140.4100   78.5381  224.0657 H   0  0  0  0  0  0  0  0  0  0  0  0
  141.6123   77.6906  223.0931 H   0  0  0  0  0  0  0  0  0  0  0  0
  141.8738   80.2787  224.6662 H   0  0  0  0  0  0  0  0  0  0  0  0
  143.1203   79.0842  224.3646 H   0  0  0  0  0  0  0  0  0  0  0  0
  143.1914   81.3609  222.9789 H   0  0  0  0  0  0  0  0  0  0  0  0
  143.4583   79.9043  222.0575 H   0  0  0  0  0  0  0  0  0  0  0  0
  140.9010   81.5354  222.4142 H   0  0  0  0  0  0  0  0  0  0  0  0
  140.9929   83.1713  218.1713 H   0  0  0  0  0  0  0  0  0  0  0  0
  142.0881   81.4471  216.7614 H   0  0  0  0  0  0  0  0  0  0  0  0
  142.8586   79.3457  217.8628 H   0  0  0  0  0  0  0  0  0  0  0  0
  139.3528   73.9291  220.4200 H   0  0  0  0  0  0  0  0  0  0  0  0
  141.1140   74.0545  220.7148 H   0  0  0  0  0  0  0  0  0  0  0  0
  139.4710   73.8140  223.1900 H   0  0  0  0  0  0  0  0  0  0  0  0
  139.3047   69.7462  222.6509 H   0  0  0  0  0  0  0  0  0  0  0  0
  138.9412   68.3875  224.6837 H   0  0  0  0  0  0  0  0  0  0  0  0
  139.1994   68.1240  227.0126 H   0  0  0  0  0  0  0  0  0  0  0  0
  140.0107   68.9803  229.2129 H   0  0  0  0  0  0  0  0  0  0  0  0
  141.1639   71.1831  229.2908 H   0  0  0  0  0  0  0  0  0  0  0  0
  141.5100   72.5136  227.2404 H   0  0  0  0  0  0  0  0  0  0  0  0
  1  2  1  0
  2  3  1  0
  3  4  1  0
  4  5  2  0
  4  6  1  0
  6  7  1  0
  7  8  1  0
  8  9  1  0
  9 10  1  0
 10 11  1  0
 11 12  2  0
 12 13  1  0
 13 14  2  0
 14 15  1  0
 15 16  2  0
  2 17  1  0
 17 18  2  0
 17 19  1  0
 19 20  1  0
 20 21  1  0
 21 22  2  0
 21 23  1  0
 23 24  2  0
 24 25  1  0
 25 26  2  0
 26 27  1  0
 27 28  2  0
 28 29  1  0
 29 30  2  0
 30 31  1  0
 31 32  2  0
 10  6  1  0
 16 11  1  0
 32 23  1  0
 31 26  1  0
  1 33  1  0
  1 34  1  0
  1 35  1  0
  3 36  1  0
  3 37  1  0
  7 38  1  0
  7 39  1  0
  8 40  1  0
  8 41  1  0
  9 42  1  0
  9 43  1  0
 10 44  1  1
 13 45  1  0
 14 46  1  0
 15 47  1  0
 19 48  1  0
 19 49  1  0
 20 50  1  0
 24 51  1  0
 25 52  1  0
 27 53  1  0
 28 54  1  0
 29 55  1  0
 30 56  1  0
M  END
>  <smiles>  (20) 
CN(CC(=O)N1CCC[C@H]1c1ncccn1)C(=O)CNC(=O)c1ccc2ccccc2n1

>  <score_type>  (20) 
oracle

>  <origin>  (20) 
autodockgpu

>  <m_score__min__energy>  (20) 
-8.3200000000000003

>  <m_primary>  (20) 
energy

>  <rmsd>  (20) 
2.447017960102923

>  <m_score__min__rmsd>  (20) 
2.447017960102923

>  <meeko>  (20) 
{"free_energy": -8.13, "intermolecular_energy": -10.52, "internal_energy": -2.7, "cluster_size": 22, "cluster_id": 1, "rank_in_cluster": 7}

>  <energy>  (20) 
-7.63

>  <cluster_rmsd>  (20) 
1.25

>  <cluster>  (20) 
1

$$$$

     RDKit          3D

 56 59  0  0  0  0  0  0  0  0999 V2000
  139.3360   76.2050  219.1100 C   0  0  0  0  0  0  0  0  0  0  0  0
  139.0520   76.5420  220.5130 N   0  0  0  0  0  0  0  0  0  0  0  0
  138.4040   77.7510  220.8810 C   0  0  0  0  0  0  0  0  0  0  0  0
  139.1220   78.9780  220.5680 C   0  0  0  0  0  0  0  0  0  0  0  0
  138.7960   79.9750  221.3330 O   0  0  0  0  0  0  0  0  0  0  0  0
  140.0940   79.2690  219.5950 N   0  0  0  0  0  0  0  0  0  0  0  0
  139.9610   79.8180  218.2540 C   0  0  0  0  0  0  0  0  0  0  0  0
  141.3910   79.8990  217.7180 C   0  0  0  0  0  0  0  0  0  0  0  0
  142.2220   79.9760  218.9670 C   0  0  0  0  0  0  0  0  0  0  0  0
  141.5260   79.0120  219.8610 C   0  0  1  0  0  0  0  0  0  0  0  0
  141.7580   79.3380  221.2970 C   0  0  0  0  0  0  0  0  0  0  0  0
  142.1500   80.5870  221.6730 N   0  0  0  0  0  0  0  0  0  0  0  0
  142.3640   80.8990  222.9640 C   0  0  0  0  0  0  0  0  0  0  0  0
  142.1930   79.9620  223.9380 C   0  0  0  0  0  0  0  0  0  0  0  0
  141.7930   78.6930  223.5350 C   0  0  0  0  0  0  0  0  0  0  0  0
  141.5790   78.3850  222.2440 N   0  0  0  0  0  0  0  0  0  0  0  0
  139.4350   75.5620  221.4760 C   0  0  0  0  0  0  0  0  0  0  0  0
  139.5820   75.9360  222.6790 O   0  0  0  0  0  0  0  0  0  0  0  0
  139.6670   74.1420  221.1460 C   0  0  0  0  0  0  0  0  0  0  0  0
  139.7310   73.3870  222.3770 N   0  0  0  0  0  0  0  0  0  0  0  0
  140.0070   71.9970  222.3760 C   0  0  0  0  0  0  0  0  0  0  0  0
  140.2090   71.3600  221.2870 O   0  0  0  0  0  0  0  0  0  0  0  0
  140.0590   71.2800  223.6680 C   0  0  0  0  0  0  0  0  0  0  0  0
  139.6140   69.9650  223.7130 C   0  0  0  0  0  0  0  0  0  0  0  0
  139.6330   69.2420  224.8700 C   0  0  0  0  0  0  0  0  0  0  0  0
  140.1150   69.8670  226.0050 C   0  0  0  0  0  0  0  0  0  0  0  0
  140.1380   69.1420  227.1810 C   0  0  0  0  0  0  0  0  0  0  0  0
  140.6130   69.7370  228.3290 C   0  0  0  0  0  0  0  0  0  0  0  0
  141.0510   71.0500  228.2560 C   0  0  0  0  0  0  0  0  0  0  0  0
  141.0210   71.7610  227.0670 C   0  0  0  0  0  0  0  0  0  0  0  0
  140.5470   71.1730  225.9130 C   0  0  0  0  0  0  0  0  0  0  0  0
  140.5260   71.8830  224.7710 N   0  0  0  0  0  0  0  0  0  0  0  0
  140.0444   75.3644  219.0710 H   0  0  0  0  0  0  0  0  0  0  0  0
  138.4012   75.9205  218.6048 H   0  0  0  0  0  0  0  0  0  0  0  0
  139.7748   77.0780  218.6048 H   0  0  0  0  0  0  0  0  0  0  0  0
  137.4350   77.7857  220.3615 H   0  0  0  0  0  0  0  0  0  0  0  0
  138.3245   77.7242  221.9778 H   0  0  0  0  0  0  0  0  0  0  0  0
  139.3485   79.1563  217.6239 H   0  0  0  0  0  0  0  0  0  0  0  0
  139.4634   80.7990  218.2558 H   0  0  0  0  0  0  0  0  0  0  0  0
  141.6435   79.0037  217.1309 H   0  0  0  0  0  0  0  0  0  0  0  0
  141.5502   80.7511  217.0408 H   0  0  0  0  0  0  0  0  0  0  0  0
  143.2601   79.6664  218.7762 H   0  0  0  0  0  0  0  0  0  0  0  0
  142.3020   80.9904  219.3848 H   0  0  0  0  0  0  0  0  0  0  0  0
  141.8673   77.9820  219.6803 H   0  0  0  0  0  0  0  0  0  0  0  0
  142.6792   81.9175  223.2350 H   0  0  0  0  0  0  0  0  0  0  0  0
  142.3641   80.1994  224.9984 H   0  0  0  0  0  0  0  0  0  0  0  0
  141.6467   77.9146  224.2983 H   0  0  0  0  0  0  0  0  0  0  0  0
  138.8415   73.7665  220.5235 H   0  0  0  0  0  0  0  0  0  0  0  0
  140.6100   74.0346  220.5898 H   0  0  0  0  0  0  0  0  0  0  0  0
  139.5730   73.8620  223.3010 H   0  0  0  0  0  0  0  0  0  0  0  0
  139.2368   69.4947  222.7929 H   0  0  0  0  0  0  0  0  0  0  0  0
  139.2782   68.2012  224.8986 H   0  0  0  0  0  0  0  0  0  0  0  0
  139.7811   68.1017  227.2003 H   0  0  0  0  0  0  0  0  0  0  0  0
  140.6439   69.1842  229.2795 H   0  0  0  0  0  0  0  0  0  0  0  0
  141.4318   71.5397  229.1644 H   0  0  0  0  0  0  0  0  0  0  0  0
  141.3776   72.8013  227.0434 H   0  0  0  0  0  0  0  0  0  0  0  0
  1  2  1  0
  2  3  1  0
  3  4  1  0
  4  5  2  0
  4  6  1  0
  6  7  1  0
  7  8  1  0
  8  9  1  0
  9 10  1  0
 10 11  1  0
 11 12  2  0
 12 13  1  0
 13 14  2  0
 14 15  1  0
 15 16  2  0
  2 17  1  0
 17 18  2  0
 17 19  1  0
 19 20  1  0
 20 21  1  0
 21 22  2  0
 21 23  1  0
 23 24  2  0
 24 25  1  0
 25 26  2  0
 26 27  1  0
 27 28  2  0
 28 29  1  0
 29 30  2  0
 30 31  1  0
 31 32  2  0
 10  6  1  0
 16 11  1  0
 32 23  1  0
 31 26  1  0
  1 33  1  0
  1 34  1  0
  1 35  1  0
  3 36  1  0
  3 37  1  0
  7 38  1  0
  7 39  1  0
  8 40  1  0
  8 41  1  0
  9 42  1  0
  9 43  1  0
 10 44  1  1
 13 45  1  0
 14 46  1  0
 15 47  1  0
 19 48  1  0
 19 49  1  0
 20 50  1  0
 24 51  1  0
 25 52  1  0
 27 53  1  0
 28 54  1  0
 29 55  1  0
 30 56  1  0
M  END
>  <smiles>  (21) 
CN(CC(=O)N1CCC[C@H]1c1ncccn1)C(=O)CNC(=O)c1ccc2ccccc2n1

>  <score_type>  (21) 
oracle

>  <origin>  (21) 
autodockgpu

>  <m_score__min__energy>  (21) 
-8.3200000000000003

>  <m_primary>  (21) 
energy

>  <rmsd>  (21) 
2.053265492174573

>  <m_score__min__rmsd>  (21) 
2.053265492174573

>  <meeko>  (21) 
{"free_energy": -7.65, "intermolecular_energy": -10.03, "internal_energy": -2.85, "cluster_size": 22, "cluster_id": 1, "rank_in_cluster": 19}

>  <energy>  (21) 
-7.39

>  <cluster_rmsd>  (21) 
1.99

>  <cluster>  (21) 
1

$$$$

     RDKit          3D

 56 59  0  0  0  0  0  0  0  0999 V2000
  139.2470   74.7830  218.9550 C   0  0  0  0  0  0  0  0  0  0  0  0
  139.8020   75.2230  220.2440 N   0  0  0  0  0  0  0  0  0  0  0  0
  140.2040   76.5650  220.4730 C   0  0  0  0  0  0  0  0  0  0  0  0
  139.8770   77.1120  221.7820 C   0  0  0  0  0  0  0  0  0  0  0  0
  140.6960   76.7380  222.7170 O   0  0  0  0  0  0  0  0  0  0  0  0
  138.8420   77.9640  222.2060 N   0  0  0  0  0  0  0  0  0  0  0  0
  137.5110   77.6630  222.7130 C   0  0  0  0  0  0  0  0  0  0  0  0
  136.8830   79.0270  223.0040 C   0  0  0  0  0  0  0  0  0  0  0  0
  138.0750   79.9150  223.2200 C   0  0  0  0  0  0  0  0  0  0  0  0
  139.0140   79.4320  222.1720 C   0  0  1  0  0  0  0  0  0  0  0  0
  140.4310   79.7040  222.5470 C   0  0  0  0  0  0  0  0  0  0  0  0
  141.2970   80.2500  221.6470 N   0  0  0  0  0  0  0  0  0  0  0  0
  142.5790   80.5020  221.9690 C   0  0  0  0  0  0  0  0  0  0  0  0
  143.0480   80.2150  223.2150 C   0  0  0  0  0  0  0  0  0  0  0  0
  142.1500   79.6590  224.1190 C   0  0  0  0  0  0  0  0  0  0  0  0
  140.8690   79.4080  223.7950 N   0  0  0  0  0  0  0  0  0  0  0  0
  139.8750   74.2230  221.2600 C   0  0  0  0  0  0  0  0  0  0  0  0
  140.9070   74.1990  221.9970 O   0  0  0  0  0  0  0  0  0  0  0  0
  138.8170   73.2230  221.4970 C   0  0  0  0  0  0  0  0  0  0  0  0
  139.1600   72.4590  222.6750 N   0  0  0  0  0  0  0  0  0  0  0  0
  138.7670   71.1040  222.8170 C   0  0  0  0  0  0  0  0  0  0  0  0
  138.0960   70.5080  221.9070 O   0  0  0  0  0  0  0  0  0  0  0  0
  139.1490   70.3760  224.0450 C   0  0  0  0  0  0  0  0  0  0  0  0
  138.8630   69.0190  224.1260 C   0  0  0  0  0  0  0  0  0  0  0  0
  139.1860   68.2840  225.2280 C   0  0  0  0  0  0  0  0  0  0  0  0
  139.8130   68.9400  226.2710 C   0  0  0  0  0  0  0  0  0  0  0  0
  140.1450   68.2020  227.3920 C   0  0  0  0  0  0  0  0  0  0  0  0
  140.7700   68.8270  228.4470 C   0  0  0  0  0  0  0  0  0  0  0  0
  141.0440   70.1810  228.3420 C   0  0  0  0  0  0  0  0  0  0  0  0
  140.7050   70.9050  227.2090 C   0  0  0  0  0  0  0  0  0  0  0  0
  140.0780   70.2870  226.1470 C   0  0  0  0  0  0  0  0  0  0  0  0
  139.7580   71.0090  225.0590 N   0  0  0  0  0  0  0  0  0  0  0  0
  138.3964   74.1086  219.1331 H   0  0  0  0  0  0  0  0  0  0  0  0
  138.9068   75.6594  218.3839 H   0  0  0  0  0  0  0  0  0  0  0  0
  140.0227   74.2518  218.3839 H   0  0  0  0  0  0  0  0  0  0  0  0
  141.2959   76.6155  220.3498 H   0  0  0  0  0  0  0  0  0  0  0  0
  139.6421   77.1720  219.7478 H   0  0  0  0  0  0  0  0  0  0  0  0
  136.9233   77.1194  221.9586 H   0  0  0  0  0  0  0  0  0  0  0  0
  137.5434   77.0228  223.6069 H   0  0  0  0  0  0  0  0  0  0  0  0
  136.2818   79.3745  222.1509 H   0  0  0  0  0  0  0  0  0  0  0  0
  136.1959   79.0110  223.8629 H   0  0  0  0  0  0  0  0  0  0  0  0
  137.8174   80.9737  223.0688 H   0  0  0  0  0  0  0  0  0  0  0  0
  138.4852   79.8668  224.2395 H   0  0  0  0  0  0  0  0  0  0  0  0
  138.8131   79.9128  221.2032 H   0  0  0  0  0  0  0  0  0  0  0  0
  143.2533   80.9431  221.2202 H   0  0  0  0  0  0  0  0  0  0  0  0
  144.0931   80.4147  223.4943 H   0  0  0  0  0  0  0  0  0  0  0  0
  142.4989   79.4162  225.1335 H   0  0  0  0  0  0  0  0  0  0  0  0
  137.8543   73.7319  221.6527 H   0  0  0  0  0  0  0  0  0  0  0  0
  138.7302   72.5546  220.6277 H   0  0  0  0  0  0  0  0  0  0  0  0
  139.7110   72.9000  223.4530 H   0  0  0  0  0  0  0  0  0  0  0  0
  138.3633   68.5250  223.2797 H   0  0  0  0  0  0  0  0  0  0  0  0
  138.9564   67.2097  225.2850 H   0  0  0  0  0  0  0  0  0  0  0  0
  139.9124   67.1280  227.4401 H   0  0  0  0  0  0  0  0  0  0  0  0
  141.0453   68.2651  229.3517 H   0  0  0  0  0  0  0  0  0  0  0  0
  141.5425   70.6941  229.1776 H   0  0  0  0  0  0  0  0  0  0  0  0
  140.9375   71.9789  227.1567 H   0  0  0  0  0  0  0  0  0  0  0  0
  1  2  1  0
  2  3  1  0
  3  4  1  0
  4  5  2  0
  4  6  1  0
  6  7  1  0
  7  8  1  0
  8  9  1  0
  9 10  1  0
 10 11  1  0
 11 12  2  0
 12 13  1  0
 13 14  2  0
 14 15  1  0
 15 16  2  0
  2 17  1  0
 17 18  2  0
 17 19  1  0
 19 20  1  0
 20 21  1  0
 21 22  2  0
 21 23  1  0
 23 24  2  0
 24 25  1  0
 25 26  2  0
 26 27  1  0
 27 28  2  0
 28 29  1  0
 29 30  2  0
 30 31  1  0
 31 32  2  0
 10  6  1  0
 16 11  1  0
 32 23  1  0
 31 26  1  0
  1 33  1  0
  1 34  1  0
  1 35  1  0
  3 36  1  0
  3 37  1  0
  7 38  1  0
  7 39  1  0
  8 40  1  0
  8 41  1  0
  9 42  1  0
  9 43  1  0
 10 44  1  6
 13 45  1  0
 14 46  1  0
 15 47  1  0
 19 48  1  0
 19 49  1  0
 20 50  1  0
 24 51  1  0
 25 52  1  0
 27 53  1  0
 28 54  1  0
 29 55  1  0
 30 56  1  0
M  END
>  <smiles>  (22) 
CN(CC(=O)N1CCC[C@H]1c1ncccn1)C(=O)CNC(=O)c1ccc2ccccc2n1

>  <score_type>  (22) 
oracle

>  <origin>  (22) 
autodockgpu

>  <m_score__min__energy>  (22) 
-8.3200000000000003

>  <m_primary>  (22) 
energy

>  <rmsd>  (22) 
2.325643650072306

>  <m_score__min__rmsd>  (22) 
2.325643650072306

>  <meeko>  (22) 
{"free_energy": -8.05, "intermolecular_energy": -10.44, "internal_energy": -2.58, "cluster_size": 19, "cluster_id": 2, "rank_in_cluster": 6}

>  <energy>  (22) 
-7.27

>  <cluster_rmsd>  (22) 
1.72

>  <cluster>  (22) 
1

$$$$

     RDKit          3D

 56 59  0  0  0  0  0  0  0  0999 V2000
  141.7360   76.6330  220.3130 C   0  0  0  0  0  0  0  0  0  0  0  0
  140.3350   76.7610  220.7400 N   0  0  0  0  0  0  0  0  0  0  0  0
  139.5410   77.8850  220.3920 C   0  0  0  0  0  0  0  0  0  0  0  0
  139.6480   79.0370  221.2760 C   0  0  0  0  0  0  0  0  0  0  0  0
  138.6140   79.8210  221.2290 O   0  0  0  0  0  0  0  0  0  0  0  0
  140.6620   79.4440  222.1610 N   0  0  0  0  0  0  0  0  0  0  0  0
  141.1860   78.8090  223.3610 C   0  0  0  0  0  0  0  0  0  0  0  0
  142.2830   79.7530  223.8580 C   0  0  0  0  0  0  0  0  0  0  0  0
  142.6940   80.4860  222.6140 C   0  0  0  0  0  0  0  0  0  0  0  0
  141.3860   80.7140  221.9430 C   0  0  1  0  0  0  0  0  0  0  0  0
  141.5510   80.8640  220.4690 C   0  0  0  0  0  0  0  0  0  0  0  0
  142.1830   79.9030  219.7370 N   0  0  0  0  0  0  0  0  0  0  0  0
  142.3400   80.0220  218.4070 C   0  0  0  0  0  0  0  0  0  0  0  0
  141.8670   81.1180  217.7500 C   0  0  0  0  0  0  0  0  0  0  0  0
  141.2250   82.0870  218.5130 C   0  0  0  0  0  0  0  0  0  0  0  0
  141.0690   81.9660  219.8430 N   0  0  0  0  0  0  0  0  0  0  0  0
  139.8140   75.6660  221.4930 C   0  0  0  0  0  0  0  0  0  0  0  0
  139.0980   75.9300  222.5070 O   0  0  0  0  0  0  0  0  0  0  0  0
  140.0630   74.2520  221.1540 C   0  0  0  0  0  0  0  0  0  0  0  0
  139.9580   73.4630  222.3610 N   0  0  0  0  0  0  0  0  0  0  0  0
  140.3880   72.1130  222.4000 C   0  0  0  0  0  0  0  0  0  0  0  0
  140.8850   71.5440  221.3690 O   0  0  0  0  0  0  0  0  0  0  0  0
  140.2540   71.3590  223.6640 C   0  0  0  0  0  0  0  0  0  0  0  0
  139.6750   70.0970  223.6230 C   0  0  0  0  0  0  0  0  0  0  0  0
  139.5190   69.3440  224.7500 C   0  0  0  0  0  0  0  0  0  0  0  0
  139.9630   69.8830  225.9430 C   0  0  0  0  0  0  0  0  0  0  0  0
  139.8100   69.1260  227.0900 C   0  0  0  0  0  0  0  0  0  0  0  0
  140.2420   69.6360  228.2940 C   0  0  0  0  0  0  0  0  0  0  0  0
  140.8170   70.8970  228.3070 C   0  0  0  0  0  0  0  0  0  0  0  0
  140.9630   71.6400  227.1470 C   0  0  0  0  0  0  0  0  0  0  0  0
  140.5320   71.1380  225.9360 C   0  0  0  0  0  0  0  0  0  0  0  0
  140.6830   71.8780  224.8240 N   0  0  0  0  0  0  0  0  0  0  0  0
  142.3854   76.5737  221.1989 H   0  0  0  0  0  0  0  0  0  0  0  0
  141.8537   75.7204  219.7103 H   0  0  0  0  0  0  0  0  0  0  0  0
  142.0171   77.5092  219.7103 H   0  0  0  0  0  0  0  0  0  0  0  0
  139.8360   78.2064  219.3822 H   0  0  0  0  0  0  0  0  0  0  0  0
  138.4969   77.5471  220.4681 H   0  0  0  0  0  0  0  0  0  0  0  0
  140.3957   78.7010  224.1185 H   0  0  0  0  0  0  0  0  0  0  0  0
  141.5690   77.7974  223.1610 H   0  0  0  0  0  0  0  0  0  0  0  0
  141.8917   80.4488  224.6148 H   0  0  0  0  0  0  0  0  0  0  0  0
  143.1176   79.2266  224.3442 H   0  0  0  0  0  0  0  0  0  0  0  0
  143.1902   81.4374  222.8562 H   0  0  0  0  0  0  0  0  0  0  0  0
  143.4201   79.9379  221.9957 H   0  0  0  0  0  0  0  0  0  0  0  0
  140.8908   81.6170  222.3294 H   0  0  0  0  0  0  0  0  0  0  0  0
  142.8542   79.2285  217.8450 H   0  0  0  0  0  0  0  0  0  0  0  0
  141.9879   81.2313  216.6626 H   0  0  0  0  0  0  0  0  0  0  0  0
  140.8312   82.9833  218.0114 H   0  0  0  0  0  0  0  0  0  0  0  0
  139.3173   73.9097  220.4214 H   0  0  0  0  0  0  0  0  0  0  0  0
  141.0671   74.1411  220.7187 H   0  0  0  0  0  0  0  0  0  0  0  0
  139.5570   73.8820  223.2370 H   0  0  0  0  0  0  0  0  0  0  0  0
  139.3337   69.6947  222.6578 H   0  0  0  0  0  0  0  0  0  0  0  0
  139.0576   68.3462  224.7108 H   0  0  0  0  0  0  0  0  0  0  0  0
  139.3488   68.1285  227.0413 H   0  0  0  0  0  0  0  0  0  0  0  0
  140.1334   69.0567  229.2228 H   0  0  0  0  0  0  0  0  0  0  0  0
  141.1659   71.3180  229.2615 H   0  0  0  0  0  0  0  0  0  0  0  0
  141.4257   72.6370  227.1915 H   0  0  0  0  0  0  0  0  0  0  0  0
  1  2  1  0
  2  3  1  0
  3  4  1  0
  4  5  2  0
  4  6  1  0
  6  7  1  0
  7  8  1  0
  8  9  1  0
  9 10  1  0
 10 11  1  0
 11 12  2  0
 12 13  1  0
 13 14  2  0
 14 15  1  0
 15 16  2  0
  2 17  1  0
 17 18  2  0
 17 19  1  0
 19 20  1  0
 20 21  1  0
 21 22  2  0
 21 23  1  0
 23 24  2  0
 24 25  1  0
 25 26  2  0
 26 27  1  0
 27 28  2  0
 28 29  1  0
 29 30  2  0
 30 31  1  0
 31 32  2  0
 10  6  1  0
 16 11  1  0
 32 23  1  0
 31 26  1  0
  1 33  1  0
  1 34  1  0
  1 35  1  0
  3 36  1  0
  3 37  1  0
  7 38  1  0
  7 39  1  0
  8 40  1  0
  8 41  1  0
  9 42  1  0
  9 43  1  0
 10 44  1  1
 13 45  1  0
 14 46  1  0
 15 47  1  0
 19 48  1  0
 19 49  1  0
 20 50  1  0
 24 51  1  0
 25 52  1  0
 27 53  1  0
 28 54  1  0
 29 55  1  0
 30 56  1  0
M  END
>  <smiles>  (23) 
CN(CC(=O)N1CCC[C@H]1c1ncccn1)C(=O)CNC(=O)c1ccc2ccccc2n1

>  <score_type>  (23) 
oracle

>  <origin>  (23) 
autodockgpu

>  <m_score__min__energy>  (23) 
-8.3200000000000003

>  <m_primary>  (23) 
energy

>  <rmsd>  (23) 
2.442891050875763

>  <m_score__min__rmsd>  (23) 
2.442891050875763

>  <meeko>  (23) 
{"free_energy": -8.06, "intermolecular_energy": -10.44, "internal_energy": -2.73, "cluster_size": 22, "cluster_id": 1, "rank_in_cluster": 10}

>  <energy>  (23) 
-8.15

>  <cluster_rmsd>  (23) 
0.0

>  <cluster>  (23) 
2

$$$$

     RDKit          3D

 56 59  0  0  0  0  0  0  0  0999 V2000
  139.9810   75.9850  219.0480 C   0  0  0  0  0  0  0  0  0  0  0  0
  141.2610   75.9550  219.7710 N   0  0  0  0  0  0  0  0  0  0  0  0
  142.1560   77.0570  219.7640 C   0  0  0  0  0  0  0  0  0  0  0  0
  141.6620   78.2800  220.3800 C   0  0  0  0  0  0  0  0  0  0  0  0
  140.8950   78.9780  219.5990 O   0  0  0  0  0  0  0  0  0  0  0  0
  141.8690   78.8320  221.6570 N   0  0  0  0  0  0  0  0  0  0  0  0
  142.5050   80.0770  222.0620 C   0  0  0  0  0  0  0  0  0  0  0  0
  142.3990   80.0950  223.5870 C   0  0  0  0  0  0  0  0  0  0  0  0
  141.2160   79.2110  223.8600 C   0  0  0  0  0  0  0  0  0  0  0  0
  141.4120   78.1190  222.8680 C   0  0  1  0  0  0  0  0  0  0  0  0
  140.1190   77.4660  222.5170 C   0  0  0  0  0  0  0  0  0  0  0  0
  139.0760   78.1990  222.0370 N   0  0  0  0  0  0  0  0  0  0  0  0
  137.9020   77.6270  221.7140 C   0  0  0  0  0  0  0  0  0  0  0  0
  137.7240   76.2850  221.8620 C   0  0  0  0  0  0  0  0  0  0  0  0
  138.8000   75.5530  222.3530 C   0  0  0  0  0  0  0  0  0  0  0  0
  139.9730   76.1280  222.6750 N   0  0  0  0  0  0  0  0  0  0  0  0
  141.5280   74.7630  220.5080 C   0  0  0  0  0  0  0  0  0  0  0  0
  142.5740   74.7300  221.2250 O   0  0  0  0  0  0  0  0  0  0  0  0
  140.6550   73.5740  220.4810 C   0  0  0  0  0  0  0  0  0  0  0  0
  140.6530   72.9730  221.7950 N   0  0  0  0  0  0  0  0  0  0  0  0
  139.8890   71.8120  222.0740 C   0  0  0  0  0  0  0  0  0  0  0  0
  139.1740   71.2540  221.1730 O   0  0  0  0  0  0  0  0  0  0  0  0
  139.9280   71.2440  223.4380 C   0  0  0  0  0  0  0  0  0  0  0  0
  139.3430   70.0030  223.6550 C   0  0  0  0  0  0  0  0  0  0  0  0
  139.3420   69.4180  224.8880 C   0  0  0  0  0  0  0  0  0  0  0  0
  139.9480   70.1070  225.9210 C   0  0  0  0  0  0  0  0  0  0  0  0
  139.9520   69.5210  227.1740 C   0  0  0  0  0  0  0  0  0  0  0  0
  140.5480   70.1830  228.2240 C   0  0  0  0  0  0  0  0  0  0  0  0
  141.1240   71.4200  227.9800 C   0  0  0  0  0  0  0  0  0  0  0  0
  141.1120   71.9910  226.7180 C   0  0  0  0  0  0  0  0  0  0  0  0
  140.5160   71.3350  225.6600 C   0  0  0  0  0  0  0  0  0  0  0  0
  140.5160   71.9100  224.4440 N   0  0  0  0  0  0  0  0  0  0  0  0
  139.1520   76.0044  219.7708 H   0  0  0  0  0  0  0  0  0  0  0  0
  139.9378   76.8844  218.4162 H   0  0  0  0  0  0  0  0  0  0  0  0
  139.8957   75.0886  218.4162 H   0  0  0  0  0  0  0  0  0  0  0  0
  143.0679   76.7542  220.2995 H   0  0  0  0  0  0  0  0  0  0  0  0
  142.3191   77.3019  218.7041 H   0  0  0  0  0  0  0  0  0  0  0  0
  143.5588   80.0935  221.7471 H   0  0  0  0  0  0  0  0  0  0  0  0
  142.0264   80.9548  221.6033 H   0  0  0  0  0  0  0  0  0  0  0  0
  143.3101   79.6887  224.0504 H   0  0  0  0  0  0  0  0  0  0  0  0
  142.2841   81.1084  223.9992 H   0  0  0  0  0  0  0  0  0  0  0  0
  141.2350   78.8241  224.8896 H   0  0  0  0  0  0  0  0  0  0  0  0
  140.2475   79.7247  223.7694 H   0  0  0  0  0  0  0  0  0  0  0  0
  142.0957   77.3480  223.2529 H   0  0  0  0  0  0  0  0  0  0  0  0
  137.0801   78.2476  221.3277 H   0  0  0  0  0  0  0  0  0  0  0  0
  136.7705   75.8008  221.6044 H   0  0  0  0  0  0  0  0  0  0  0  0
  138.6881   74.4664  222.4825 H   0  0  0  0  0  0  0  0  0  0  0  0
  139.6318   73.8718  220.2082 H   0  0  0  0  0  0  0  0  0  0  0  0
  141.0262   72.8523  219.7385 H   0  0  0  0  0  0  0  0  0  0  0  0
  141.2230   73.3910  222.5720 H   0  0  0  0  0  0  0  0  0  0  0  0
  138.8688   69.4788  222.8122 H   0  0  0  0  0  0  0  0  0  0  0  0
  138.8764   68.4352  225.0532 H   0  0  0  0  0  0  0  0  0  0  0  0
  139.4845   68.5376  227.3298 H   0  0  0  0  0  0  0  0  0  0  0  0
  140.5666   69.7413  229.2312 H   0  0  0  0  0  0  0  0  0  0  0  0
  141.6025   71.9617  228.8092 H   0  0  0  0  0  0  0  0  0  0  0  0
  141.5804   72.9734  226.5581 H   0  0  0  0  0  0  0  0  0  0  0  0
  1  2  1  0
  2  3  1  0
  3  4  1  0
  4  5  2  0
  4  6  1  0
  6  7  1  0
  7  8  1  0
  8  9  1  0
  9 10  1  0
 10 11  1  0
 11 12  2  0
 12 13  1  0
 13 14  2  0
 14 15  1  0
 15 16  2  0
  2 17  1  0
 17 18  2  0
 17 19  1  0
 19 20  1  0
 20 21  1  0
 21 22  2  0
 21 23  1  0
 23 24  2  0
 24 25  1  0
 25 26  2  0
 26 27  1  0
 27 28  2  0
 28 29  1  0
 29 30  2  0
 30 31  1  0
 31 32  2  0
 10  6  1  0
 16 11  1  0
 32 23  1  0
 31 26  1  0
  1 33  1  0
  1 34  1  0
  1 35  1  0
  3 36  1  0
  3 37  1  0
  7 38  1  0
  7 39  1  0
  8 40  1  0
  8 41  1  0
  9 42  1  0
  9 43  1  0
 10 44  1  1
 13 45  1  0
 14 46  1  0
 15 47  1  0
 19 48  1  0
 19 49  1  0
 20 50  1  0
 24 51  1  0
 25 52  1  0
 27 53  1  0
 28 54  1  0
 29 55  1  0
 30 56  1  0
M  END
>  <smiles>  (24) 
CN(CC(=O)N1CCC[C@H]1c1ncccn1)C(=O)CNC(=O)c1ccc2ccccc2n1

>  <score_type>  (24) 
oracle

>  <origin>  (24) 
autodockgpu

>  <m_score__min__energy>  (24) 
-8.3200000000000003

>  <m_primary>  (24) 
energy

>  <rmsd>  (24) 
2.142469362322858

>  <m_score__min__rmsd>  (24) 
2.142469362322858

>  <meeko>  (24) 
{"free_energy": -7.28, "intermolecular_energy": -9.67, "internal_energy": -3.29, "cluster_size": 5, "cluster_id": 3, "rank_in_cluster": 2}

>  <energy>  (24) 
-8.12

>  <cluster_rmsd>  (24) 
1.25

>  <cluster>  (24) 
2

$$$$

     RDKit          3D

 56 59  0  0  0  0  0  0  0  0999 V2000
  140.6810   75.7540  219.1670 C   0  0  0  0  0  0  0  0  0  0  0  0
  139.8690   76.1220  220.3360 N   0  0  0  0  0  0  0  0  0  0  0  0
  139.1300   77.3330  220.3890 C   0  0  0  0  0  0  0  0  0  0  0  0
  139.9000   78.5360  220.6710 C   0  0  0  0  0  0  0  0  0  0  0  0
  139.7070   79.4860  219.8070 O   0  0  0  0  0  0  0  0  0  0  0  0
  140.8050   78.8460  221.7010 N   0  0  0  0  0  0  0  0  0  0  0  0
  142.1720   79.3430  221.6470 C   0  0  0  0  0  0  0  0  0  0  0  0
  142.5980   79.4820  223.1090 C   0  0  0  0  0  0  0  0  0  0  0  0
  141.2920   79.6430  223.8340 C   0  0  0  0  0  0  0  0  0  0  0  0
  140.4200   78.6740  223.1180 C   0  0  1  0  0  0  0  0  0  0  0  0
  138.9830   79.0590  223.2200 C   0  0  0  0  0  0  0  0  0  0  0  0
  138.6240   80.3350  223.5320 N   0  0  0  0  0  0  0  0  0  0  0  0
  137.3330   80.7000  223.6270 C   0  0  0  0  0  0  0  0  0  0  0  0
  136.3410   79.7920  223.4130 C   0  0  0  0  0  0  0  0  0  0  0  0
  136.7270   78.4940  223.0950 C   0  0  0  0  0  0  0  0  0  0  0  0
  138.0190   78.1320  223.0000 N   0  0  0  0  0  0  0  0  0  0  0  0
  139.8420   75.1680  221.3970 C   0  0  0  0  0  0  0  0  0  0  0  0
  139.9400   75.5980  222.5860 O   0  0  0  0  0  0  0  0  0  0  0  0
  139.7050   73.7150  221.1830 C   0  0  0  0  0  0  0  0  0  0  0  0
  139.7560   73.0520  222.4660 N   0  0  0  0  0  0  0  0  0  0  0  0
  140.2470   71.7290  222.5950 C   0  0  0  0  0  0  0  0  0  0  0  0
  140.6630   71.0730  221.5800 O   0  0  0  0  0  0  0  0  0  0  0  0
  140.2740   71.1050  223.9350 C   0  0  0  0  0  0  0  0  0  0  0  0
  140.7080   71.8700  225.0110 C   0  0  0  0  0  0  0  0  0  0  0  0
  140.7590   71.3610  226.2760 C   0  0  0  0  0  0  0  0  0  0  0  0
  140.3610   70.0490  226.4520 C   0  0  0  0  0  0  0  0  0  0  0  0
  140.4090   69.5250  227.7300 C   0  0  0  0  0  0  0  0  0  0  0  0
  140.0190   68.2210  227.9380 C   0  0  0  0  0  0  0  0  0  0  0  0
  139.5900   67.4810  226.8480 C   0  0  0  0  0  0  0  0  0  0  0  0
  139.5480   68.0230  225.5730 C   0  0  0  0  0  0  0  0  0  0  0  0
  139.9370   69.3280  225.3560 C   0  0  0  0  0  0  0  0  0  0  0  0
  139.8890   69.8330  224.1100 N   0  0  0  0  0  0  0  0  0  0  0  0
  141.6346   75.3218  219.5043 H   0  0  0  0  0  0  0  0  0  0  0  0
  140.1372   75.0144  218.5610 H   0  0  0  0  0  0  0  0  0  0  0  0
  140.8787   76.6505  218.5610 H   0  0  0  0  0  0  0  0  0  0  0  0
  138.6362   77.4694  219.4156 H   0  0  0  0  0  0  0  0  0  0  0  0
  138.4341   77.2203  221.2334 H   0  0  0  0  0  0  0  0  0  0  0  0
  142.8227   78.6294  221.1204 H   0  0  0  0  0  0  0  0  0  0  0  0
  142.2451   80.2957  221.1020 H   0  0  0  0  0  0  0  0  0  0  0  0
  143.1310   78.5828  223.4516 H   0  0  0  0  0  0  0  0  0  0  0  0
  143.2912   80.3192  223.2783 H   0  0  0  0  0  0  0  0  0  0  0  0
  141.3906   79.3817  224.8980 H   0  0  0  0  0  0  0  0  0  0  0  0
  140.9067   80.6733  223.8306 H   0  0  0  0  0  0  0  0  0  0  0  0
  140.5358   77.6578  223.5227 H   0  0  0  0  0  0  0  0  0  0  0  0
  137.0766   81.7395  223.8794 H   0  0  0  0  0  0  0  0  0  0  0  0
  135.2801   80.0729  223.4883 H   0  0  0  0  0  0  0  0  0  0  0  0
  135.9489   77.7376  222.9150 H   0  0  0  0  0  0  0  0  0  0  0  0
  138.7431   73.5017  220.6939 H   0  0  0  0  0  0  0  0  0  0  0  0
  140.5204   73.3518  220.5402 H   0  0  0  0  0  0  0  0  0  0  0  0
  139.4270   73.5460  223.3330 H   0  0  0  0  0  0  0  0  0  0  0  0
  141.0180   72.9113  224.8387 H   0  0  0  0  0  0  0  0  0  0  0  0
  141.1038   71.9716  227.1236 H   0  0  0  0  0  0  0  0  0  0  0  0
  140.7550   70.1429  228.5717 H   0  0  0  0  0  0  0  0  0  0  0  0
  140.0473   67.7778  228.9444 H   0  0  0  0  0  0  0  0  0  0  0  0
  139.2750   66.4378  226.9982 H   0  0  0  0  0  0  0  0  0  0  0  0
  139.2022   67.4082  224.7289 H   0  0  0  0  0  0  0  0  0  0  0  0
  1  2  1  0
  2  3  1  0
  3  4  1  0
  4  5  2  0
  4  6  1  0
  6  7  1  0
  7  8  1  0
  8  9  1  0
  9 10  1  0
 10 11  1  0
 11 12  2  0
 12 13  1  0
 13 14  2  0
 14 15  1  0
 15 16  2  0
  2 17  1  0
 17 18  2  0
 17 19  1  0
 19 20  1  0
 20 21  1  0
 21 22  2  0
 21 23  1  0
 23 24  2  0
 24 25  1  0
 25 26  2  0
 26 27  1  0
 27 28  2  0
 28 29  1  0
 29 30  2  0
 30 31  1  0
 31 32  2  0
 10  6  1  0
 16 11  1  0
 32 23  1  0
 31 26  1  0
  1 33  1  0
  1 34  1  0
  1 35  1  0
  3 36  1  0
  3 37  1  0
  7 38  1  0
  7 39  1  0
  8 40  1  0
  8 41  1  0
  9 42  1  0
  9 43  1  0
 10 44  1  1
 13 45  1  0
 14 46  1  0
 15 47  1  0
 19 48  1  0
 19 49  1  0
 20 50  1  0
 24 51  1  0
 25 52  1  0
 27 53  1  0
 28 54  1  0
 29 55  1  0
 30 56  1  0
M  END
>  <smiles>  (25) 
CN(CC(=O)N1CCC[C@H]1c1ncccn1)C(=O)CNC(=O)c1ccc2ccccc2n1

>  <score_type>  (25) 
oracle

>  <origin>  (25) 
autodockgpu

>  <m_score__min__energy>  (25) 
-8.3200000000000003

>  <m_primary>  (25) 
energy

>  <rmsd>  (25) 
2.904138378397337

>  <m_score__min__rmsd>  (25) 
2.904138378397337

>  <meeko>  (25) 
{"free_energy": -7.57, "intermolecular_energy": -9.95, "internal_energy": -2.53, "cluster_size": 19, "cluster_id": 2, "rank_in_cluster": 18}

>  <energy>  (25) 
-8.11

>  <cluster_rmsd>  (25) 
1.28

>  <cluster>  (25) 
2

$$$$

     RDKit          3D

 56 59  0  0  0  0  0  0  0  0999 V2000
  141.8580   76.4070  219.9730 C   0  0  0  0  0  0  0  0  0  0  0  0
  140.5700   76.6700  220.6310 N   0  0  0  0  0  0  0  0  0  0  0  0
  139.8330   77.8600  220.3960 C   0  0  0  0  0  0  0  0  0  0  0  0
  139.8080   78.8190  221.4910 C   0  0  0  0  0  0  0  0  0  0  0  0
  138.6210   79.2750  221.7510 O   0  0  0  0  0  0  0  0  0  0  0  0
  140.8330   79.3330  222.3060 N   0  0  0  0  0  0  0  0  0  0  0  0
  141.4600   78.7860  223.4990 C   0  0  0  0  0  0  0  0  0  0  0  0
  142.5090   79.8250  223.9030 C   0  0  0  0  0  0  0  0  0  0  0  0
  142.8040   80.5340  222.6130 C   0  0  0  0  0  0  0  0  0  0  0  0
  141.4510   80.6420  222.0030 C   0  0  1  0  0  0  0  0  0  0  0  0
  141.5310   80.7420  220.5180 C   0  0  0  0  0  0  0  0  0  0  0  0
  140.9630   81.7900  219.8580 N   0  0  0  0  0  0  0  0  0  0  0  0
  141.0260   81.8960  218.5190 C   0  0  0  0  0  0  0  0  0  0  0  0
  141.6670   80.9490  217.7800 C   0  0  0  0  0  0  0  0  0  0  0  0
  142.2410   79.8870  218.4700 C   0  0  0  0  0  0  0  0  0  0  0  0
  142.1770   79.7830  219.8100 N   0  0  0  0  0  0  0  0  0  0  0  0
  140.0910   75.6370  221.4910 C   0  0  0  0  0  0  0  0  0  0  0  0
  139.6230   75.9730  222.6210 O   0  0  0  0  0  0  0  0  0  0  0  0
  140.1100   74.2050  221.1350 C   0  0  0  0  0  0  0  0  0  0  0  0
  139.9830   73.4260  222.3460 N   0  0  0  0  0  0  0  0  0  0  0  0
  140.4120   72.0770  222.4040 C   0  0  0  0  0  0  0  0  0  0  0  0
  140.9280   71.4990  221.3880 O   0  0  0  0  0  0  0  0  0  0  0  0
  140.2540   71.3330  223.6720 C   0  0  0  0  0  0  0  0  0  0  0  0
  139.6320   70.0910  223.6380 C   0  0  0  0  0  0  0  0  0  0  0  0
  139.4520   69.3490  224.7680 C   0  0  0  0  0  0  0  0  0  0  0  0
  139.9160   69.8780  225.9590 C   0  0  0  0  0  0  0  0  0  0  0  0
  139.7390   69.1320  227.1090 C   0  0  0  0  0  0  0  0  0  0  0  0
  140.1890   69.6320  228.3100 C   0  0  0  0  0  0  0  0  0  0  0  0
  140.8070   70.8730  228.3170 C   0  0  0  0  0  0  0  0  0  0  0  0
  140.9770   71.6060  227.1530 C   0  0  0  0  0  0  0  0  0  0  0  0
  140.5280   71.1130  225.9450 C   0  0  0  0  0  0  0  0  0  0  0  0
  140.7030   71.8430  224.8290 N   0  0  0  0  0  0  0  0  0  0  0  0
  142.6341   76.2485  220.7363 H   0  0  0  0  0  0  0  0  0  0  0  0
  141.7722   75.5078  219.3452 H   0  0  0  0  0  0  0  0  0  0  0  0
  142.1315   77.2678  219.3452 H   0  0  0  0  0  0  0  0  0  0  0  0
  140.2711   78.3603  219.5197 H   0  0  0  0  0  0  0  0  0  0  0  0
  138.7896   77.5412  220.2556 H   0  0  0  0  0  0  0  0  0  0  0  0
  140.7180   78.6532  224.3001 H   0  0  0  0  0  0  0  0  0  0  0  0
  141.9052   77.7967  223.3168 H   0  0  0  0  0  0  0  0  0  0  0  0
  142.1058   80.5216  224.6528 H   0  0  0  0  0  0  0  0  0  0  0  0
  143.4025   79.3791  224.3643 H   0  0  0  0  0  0  0  0  0  0  0  0
  143.2414   81.5270  222.7937 H   0  0  0  0  0  0  0  0  0  0  0  0
  143.5364   80.0137  221.9783 H   0  0  0  0  0  0  0  0  0  0  0  0
  140.9117   81.5233  222.3805 H   0  0  0  0  0  0  0  0  0  0  0  0
  140.5560   82.7544  218.0168 H   0  0  0  0  0  0  0  0  0  0  0  0
  141.7282   81.0210  216.6841 H   0  0  0  0  0  0  0  0  0  0  0  0
  142.7653   79.1052  217.9010 H   0  0  0  0  0  0  0  0  0  0  0  0
  139.2710   73.9799  220.4601 H   0  0  0  0  0  0  0  0  0  0  0  0
  141.0534   73.9571  220.6264 H   0  0  0  0  0  0  0  0  0  0  0  0
  139.5660   73.8530  223.2110 H   0  0  0  0  0  0  0  0  0  0  0  0
  139.2757   69.6962  222.6751 H   0  0  0  0  0  0  0  0  0  0  0  0
  138.9568   68.3674  224.7337 H   0  0  0  0  0  0  0  0  0  0  0  0
  139.2444   68.1504  227.0650 H   0  0  0  0  0  0  0  0  0  0  0  0
  140.0614   69.0609  229.2414 H   0  0  0  0  0  0  0  0  0  0  0  0
  141.1712   71.2859  229.2693 H   0  0  0  0  0  0  0  0  0  0  0  0
  141.4730   72.5870  227.1925 H   0  0  0  0  0  0  0  0  0  0  0  0
  1  2  1  0
  2  3  1  0
  3  4  1  0
  4  5  2  0
  4  6  1  0
  6  7  1  0
  7  8  1  0
  8  9  1  0
  9 10  1  0
 10 11  1  0
 11 12  2  0
 12 13  1  0
 13 14  2  0
 14 15  1  0
 15 16  2  0
  2 17  1  0
 17 18  2  0
 17 19  1  0
 19 20  1  0
 20 21  1  0
 21 22  2  0
 21 23  1  0
 23 24  2  0
 24 25  1  0
 25 26  2  0
 26 27  1  0
 27 28  2  0
 28 29  1  0
 29 30  2  0
 30 31  1  0
 31 32  2  0
 10  6  1  0
 16 11  1  0
 32 23  1  0
 31 26  1  0
  1 33  1  0
  1 34  1  0
  1 35  1  0
  3 36  1  0
  3 37  1  0
  7 38  1  0
  7 39  1  0
  8 40  1  0
  8 41  1  0
  9 42  1  0
  9 43  1  0
 10 44  1  1
 13 45  1  0
 14 46  1  0
 15 47  1  0
 19 48  1  0
 19 49  1  0
 20 50  1  0
 24 51  1  0
 25 52  1  0
 27 53  1  0
 28 54  1  0
 29 55  1  0
 30 56  1  0
M  END
>  <smiles>  (26) 
CN(CC(=O)N1CCC[C@H]1c1ncccn1)C(=O)CNC(=O)c1ccc2ccccc2n1

>  <score_type>  (26) 
oracle

>  <origin>  (26) 
autodockgpu

>  <m_score__min__energy>  (26) 
-8.3200000000000003

>  <m_primary>  (26) 
energy

>  <rmsd>  (26) 
2.4170890133089316

>  <m_score__min__rmsd>  (26) 
2.4170890133089316

>  <meeko>  (26) 
{"free_energy": -8.16, "intermolecular_energy": -10.54, "internal_energy": -2.7, "cluster_size": 22, "cluster_id": 1, "rank_in_cluster": 6}

>  <energy>  (26) 
-8.11

>  <cluster_rmsd>  (26) 
1.33

>  <cluster>  (26) 
2

$$$$

     RDKit          3D

 56 59  0  0  0  0  0  0  0  0999 V2000
  139.9850   75.8200  218.8450 C   0  0  0  0  0  0  0  0  0  0  0  0
  140.8280   76.0100  220.0340 N   0  0  0  0  0  0  0  0  0  0  0  0
  141.8540   76.9900  220.0810 C   0  0  0  0  0  0  0  0  0  0  0  0
  141.4550   78.3070  220.5540 C   0  0  0  0  0  0  0  0  0  0  0  0
  140.8170   79.0030  219.6640 O   0  0  0  0  0  0  0  0  0  0  0  0
  141.6370   78.9500  221.7920 N   0  0  0  0  0  0  0  0  0  0  0  0
  142.5670   79.9950  222.1910 C   0  0  0  0  0  0  0  0  0  0  0  0
  142.2500   80.2620  223.6630 C   0  0  0  0  0  0  0  0  0  0  0  0
  140.8230   79.8150  223.7940 C   0  0  0  0  0  0  0  0  0  0  0  0
  140.8070   78.5840  222.9590 C   0  0  1  0  0  0  0  0  0  0  0  0
  139.4390   78.2990  222.4390 C   0  0  0  0  0  0  0  0  0  0  0  0
  138.7800   79.2140  221.6740 N   0  0  0  0  0  0  0  0  0  0  0  0
  137.5460   78.9730  221.1960 C   0  0  0  0  0  0  0  0  0  0  0  0
  136.9170   77.7960  221.4670 C   0  0  0  0  0  0  0  0  0  0  0  0
  137.6050   76.8750  222.2490 C   0  0  0  0  0  0  0  0  0  0  0  0
  138.8400   77.1180  222.7260 N   0  0  0  0  0  0  0  0  0  0  0  0
  140.5250   75.1730  221.1500 C   0  0  0  0  0  0  0  0  0  0  0  0
  140.9820   75.5070  222.2850 O   0  0  0  0  0  0  0  0  0  0  0  0
  139.7110   73.9470  221.0510 C   0  0  0  0  0  0  0  0  0  0  0  0
  139.8040   73.2290  222.3020 N   0  0  0  0  0  0  0  0  0  0  0  0
  139.7530   71.8130  222.3470 C   0  0  0  0  0  0  0  0  0  0  0  0
  139.6230   71.1190  221.2820 O   0  0  0  0  0  0  0  0  0  0  0  0
  139.8530   71.1380  223.6580 C   0  0  0  0  0  0  0  0  0  0  0  0
  139.3980   69.8290  223.7650 C   0  0  0  0  0  0  0  0  0  0  0  0
  139.4590   69.1440  224.9420 C   0  0  0  0  0  0  0  0  0  0  0  0
  139.9940   69.8000  226.0350 C   0  0  0  0  0  0  0  0  0  0  0  0
  140.0610   69.1120  227.2330 C   0  0  0  0  0  0  0  0  0  0  0  0
  140.5890   69.7390  228.3390 C   0  0  0  0  0  0  0  0  0  0  0  0
  141.0360   71.0440  228.2060 C   0  0  0  0  0  0  0  0  0  0  0  0
  140.9620   71.7170  226.9970 C   0  0  0  0  0  0  0  0  0  0  0  0
  140.4340   71.0980  225.8830 C   0  0  0  0  0  0  0  0  0  0  0  0
  140.3720   71.7710  224.7210 N   0  0  0  0  0  0  0  0  0  0  0  0
  138.9563   75.5881  219.1581 H   0  0  0  0  0  0  0  0  0  0  0  0
  139.9864   76.7410  218.2435 H   0  0  0  0  0  0  0  0  0  0  0  0
  140.3814   74.9887  218.2435 H   0  0  0  0  0  0  0  0  0  0  0  0
  142.6451   76.6177  220.7486 H   0  0  0  0  0  0  0  0  0  0  0  0
  142.1760   77.1334  219.0390 H   0  0  0  0  0  0  0  0  0  0  0  0
  143.6062   79.6535  222.0745 H   0  0  0  0  0  0  0  0  0  0  0  0
  142.4631   80.8998  221.5741 H   0  0  0  0  0  0  0  0  0  0  0  0
  142.9087   79.6760  224.3208 H   0  0  0  0  0  0  0  0  0  0  0  0
  142.4010   81.3123  223.9528 H   0  0  0  0  0  0  0  0  0  0  0  0
  140.5686   79.5915  224.8406 H   0  0  0  0  0  0  0  0  0  0  0  0
  140.0901   80.5731  223.4808 H   0  0  0  0  0  0  0  0  0  0  0  0
  141.1489   77.7085  223.5304 H   0  0  0  0  0  0  0  0  0  0  0  0
  137.0410   79.7327  220.5813 H   0  0  0  0  0  0  0  0  0  0  0  0
  135.9081   77.5831  221.0837 H   0  0  0  0  0  0  0  0  0  0  0  0
  137.1235   75.9148  222.4860 H   0  0  0  0  0  0  0  0  0  0  0  0
  138.6621   74.2136  220.8539 H   0  0  0  0  0  0  0  0  0  0  0  0
  140.0794   73.3170  220.2280 H   0  0  0  0  0  0  0  0  0  0  0  0
  139.9120   73.7510  223.2080 H   0  0  0  0  0  0  0  0  0  0  0  0
  138.9780   69.3332  222.8774 H   0  0  0  0  0  0  0  0  0  0  0  0
  139.0962   68.1084  225.0192 H   0  0  0  0  0  0  0  0  0  0  0  0
  139.6968   68.0763  227.3012 H   0  0  0  0  0  0  0  0  0  0  0  0
  140.6545   69.2168  229.3049 H   0  0  0  0  0  0  0  0  0  0  0  0
  141.4598   71.5580  229.0813 H   0  0  0  0  0  0  0  0  0  0  0  0
  141.3269   72.7522  226.9250 H   0  0  0  0  0  0  0  0  0  0  0  0
  1  2  1  0
  2  3  1  0
  3  4  1  0
  4  5  2  0
  4  6  1  0
  6  7  1  0
  7  8  1  0
  8  9  1  0
  9 10  1  0
 10 11  1  0
 11 12  2  0
 12 13  1  0
 13 14  2  0
 14 15  1  0
 15 16  2  0
  2 17  1  0
 17 18  2  0
 17 19  1  0
 19 20  1  0
 20 21  1  0
 21 22  2  0
 21 23  1  0
 23 24  2  0
 24 25  1  0
 25 26  2  0
 26 27  1  0
 27 28  2  0
 28 29  1  0
 29 30  2  0
 30 31  1  0
 31 32  2  0
 10  6  1  0
 16 11  1  0
 32 23  1  0
 31 26  1  0
  1 33  1  0
  1 34  1  0
  1 35  1  0
  3 36  1  0
  3 37  1  0
  7 38  1  0
  7 39  1  0
  8 40  1  0
  8 41  1  0
  9 42  1  0
  9 43  1  0
 10 44  1  1
 13 45  1  0
 14 46  1  0
 15 47  1  0
 19 48  1  0
 19 49  1  0
 20 50  1  0
 24 51  1  0
 25 52  1  0
 27 53  1  0
 28 54  1  0
 29 55  1  0
 30 56  1  0
M  END
>  <smiles>  (27) 
CN(CC(=O)N1CCC[C@H]1c1ncccn1)C(=O)CNC(=O)c1ccc2ccccc2n1

>  <score_type>  (27) 
oracle

>  <origin>  (27) 
autodockgpu

>  <m_score__min__energy>  (27) 
-8.3200000000000003

>  <m_primary>  (27) 
energy

>  <rmsd>  (27) 
1.9106824086267225

>  <m_score__min__rmsd>  (27) 
1.9106824086267225

>  <meeko>  (27) 
{"free_energy": -7.65, "intermolecular_energy": -10.04, "internal_energy": -3.1, "cluster_size": 19, "cluster_id": 2, "rank_in_cluster": 17}

>  <energy>  (27) 
-8.1

>  <cluster_rmsd>  (27) 
0.34

>  <cluster>  (27) 
2

$$$$

     RDKit          3D

 56 59  0  0  0  0  0  0  0  0999 V2000
  137.7260   76.4660  222.7710 C   0  0  0  0  0  0  0  0  0  0  0  0
  138.6960   76.6190  221.6770 N   0  0  0  0  0  0  0  0  0  0  0  0
  138.5750   77.6410  220.6990 C   0  0  0  0  0  0  0  0  0  0  0  0
  139.2330   78.9010  221.0110 C   0  0  0  0  0  0  0  0  0  0  0  0
  138.8350   79.8890  220.2690 O   0  0  0  0  0  0  0  0  0  0  0  0
  140.2120   79.2320  221.9650 N   0  0  0  0  0  0  0  0  0  0  0  0
  140.2220   79.0710  223.4110 C   0  0  0  0  0  0  0  0  0  0  0  0
  141.5780   79.6190  223.8580 C   0  0  0  0  0  0  0  0  0  0  0  0
  142.4300   79.4710  222.6300 C   0  0  0  0  0  0  0  0  0  0  0  0
  141.4850   79.8600  221.5500 C   0  0  1  0  0  0  0  0  0  0  0  0
  141.8630   79.2380  220.2480 C   0  0  0  0  0  0  0  0  0  0  0  0
  142.0550   77.8930  220.1490 N   0  0  0  0  0  0  0  0  0  0  0  0
  142.3960   77.3160  218.9830 C   0  0  0  0  0  0  0  0  0  0  0  0
  142.5600   78.0690  217.8600 C   0  0  0  0  0  0  0  0  0  0  0  0
  142.3590   79.4400  217.9810 C   0  0  0  0  0  0  0  0  0  0  0  0
  142.0180   80.0150  219.1480 N   0  0  0  0  0  0  0  0  0  0  0  0
  139.7870   75.6980  221.6830 C   0  0  0  0  0  0  0  0  0  0  0  0
  140.9040   76.1040  222.1260 O   0  0  0  0  0  0  0  0  0  0  0  0
  139.6820   74.3070  221.2040 C   0  0  0  0  0  0  0  0  0  0  0  0
  139.5570   73.4330  222.3490 N   0  0  0  0  0  0  0  0  0  0  0  0
  140.4670   72.3680  222.5670 C   0  0  0  0  0  0  0  0  0  0  0  0
  141.4320   72.1420  221.7600 O   0  0  0  0  0  0  0  0  0  0  0  0
  140.2870   71.5090  223.7570 C   0  0  0  0  0  0  0  0  0  0  0  0
  139.6230   70.2980  223.6030 C   0  0  0  0  0  0  0  0  0  0  0  0
  139.4210   69.4550  224.6560 C   0  0  0  0  0  0  0  0  0  0  0  0
  139.9030   69.8490  225.8910 C   0  0  0  0  0  0  0  0  0  0  0  0
  139.7030   69.0000  226.9630 C   0  0  0  0  0  0  0  0  0  0  0  0
  140.1710   69.3640  228.2060 C   0  0  0  0  0  0  0  0  0  0  0  0
  140.8290   70.5770  228.3310 C   0  0  0  0  0  0  0  0  0  0  0  0
  141.0220   71.4150  227.2440 C   0  0  0  0  0  0  0  0  0  0  0  0
  140.5550   71.0580  225.9960 C   0  0  0  0  0  0  0  0  0  0  0  0
  140.7530   71.8880  224.9560 N   0  0  0  0  0  0  0  0  0  0  0  0
  138.2464   76.5481  223.7366 H   0  0  0  0  0  0  0  0  0  0  0  0
  136.9629   77.2549  222.6975 H   0  0  0  0  0  0  0  0  0  0  0  0
  137.2428   75.4805  222.6975 H   0  0  0  0  0  0  0  0  0  0  0  0
  139.0030   77.2609  219.7597 H   0  0  0  0  0  0  0  0  0  0  0  0
  137.5011   77.8724  220.6418 H   0  0  0  0  0  0  0  0  0  0  0  0
  139.4027   79.6437  223.8699 H   0  0  0  0  0  0  0  0  0  0  0  0
  140.0791   78.0227  223.7122 H   0  0  0  0  0  0  0  0  0  0  0  0
  141.4976   80.6744  224.1574 H   0  0  0  0  0  0  0  0  0  0  0  0
  141.9881   79.0939  224.7333 H   0  0  0  0  0  0  0  0  0  0  0  0
  143.2989   80.1447  222.6627 H   0  0  0  0  0  0  0  0  0  0  0  0
  142.8570   78.4650  222.5049 H   0  0  0  0  0  0  0  0  0  0  0  0
  141.4571   80.9516  221.4173 H   0  0  0  0  0  0  0  0  0  0  0  0
  142.5437   76.2270  218.9359 H   0  0  0  0  0  0  0  0  0  0  0  0
  142.8393   77.6126  216.8989 H   0  0  0  0  0  0  0  0  0  0  0  0
  142.4832   80.0756  217.0919 H   0  0  0  0  0  0  0  0  0  0  0  0
  138.7965   74.2027  220.5598 H   0  0  0  0  0  0  0  0  0  0  0  0
  140.5779   74.0407  220.6240 H   0  0  0  0  0  0  0  0  0  0  0  0
  138.7830   73.5750  223.0440 H   0  0  0  0  0  0  0  0  0  0  0  0
  139.2514   70.0124  222.6079 H   0  0  0  0  0  0  0  0  0  0  0  0
  138.8945   68.4977  224.5278 H   0  0  0  0  0  0  0  0  0  0  0  0
  139.1760   68.0444  226.8250 H   0  0  0  0  0  0  0  0  0  0  0  0
  140.0262   68.7085  229.0774 H   0  0  0  0  0  0  0  0  0  0  0  0
  141.2076   70.8825  229.3175 H   0  0  0  0  0  0  0  0  0  0  0  0
  141.5507   72.3704  227.3772 H   0  0  0  0  0  0  0  0  0  0  0  0
  1  2  1  0
  2  3  1  0
  3  4  1  0
  4  5  2  0
  4  6  1  0
  6  7  1  0
  7  8  1  0
  8  9  1  0
  9 10  1  0
 10 11  1  0
 11 12  2  0
 12 13  1  0
 13 14  2  0
 14 15  1  0
 15 16  2  0
  2 17  1  0
 17 18  2  0
 17 19  1  0
 19 20  1  0
 20 21  1  0
 21 22  2  0
 21 23  1  0
 23 24  2  0
 24 25  1  0
 25 26  2  0
 26 27  1  0
 27 28  2  0
 28 29  1  0
 29 30  2  0
 30 31  1  0
 31 32  2  0
 10  6  1  0
 16 11  1  0
 32 23  1  0
 31 26  1  0
  1 33  1  0
  1 34  1  0
  1 35  1  0
  3 36  1  0
  3 37  1  0
  7 38  1  0
  7 39  1  0
  8 40  1  0
  8 41  1  0
  9 42  1  0
  9 43  1  0
 10 44  1  6
 13 45  1  0
 14 46  1  0
 15 47  1  0
 19 48  1  0
 19 49  1  0
 20 50  1  0
 24 51  1  0
 25 52  1  0
 27 53  1  0
 28 54  1  0
 29 55  1  0
 30 56  1  0
M  END
>  <smiles>  (28) 
CN(CC(=O)N1CCC[C@H]1c1ncccn1)C(=O)CNC(=O)c1ccc2ccccc2n1

>  <score_type>  (28) 
oracle

>  <origin>  (28) 
autodockgpu

>  <m_score__min__energy>  (28) 
-8.3200000000000003

>  <m_primary>  (28) 
energy

>  <rmsd>  (28) 
2.582329340910741

>  <m_score__min__rmsd>  (28) 
2.582329340910741

>  <meeko>  (28) 
{"free_energy": -8.1, "intermolecular_energy": -10.49, "internal_energy": -2.26, "cluster_size": 22, "cluster_id": 1, "rank_in_cluster": 9}

>  <energy>  (28) 
-8.05

>  <cluster_rmsd>  (28) 
1.78

>  <cluster>  (28) 
2

$$$$

     RDKit          3D

 56 59  0  0  0  0  0  0  0  0999 V2000
  143.2800   76.3890  219.6990 C   0  0  0  0  0  0  0  0  0  0  0  0
  142.0960   75.6350  220.1370 N   0  0  0  0  0  0  0  0  0  0  0  0
  140.8030   76.2200  220.1770 C   0  0  0  0  0  0  0  0  0  0  0  0
  140.1230   76.1710  221.4640 C   0  0  0  0  0  0  0  0  0  0  0  0
  140.7020   75.3890  222.3240 O   0  0  0  0  0  0  0  0  0  0  0  0
  138.9640   76.8140  221.9320 N   0  0  0  0  0  0  0  0  0  0  0  0
  137.7270   76.2680  222.4710 C   0  0  0  0  0  0  0  0  0  0  0  0
  136.8700   77.4900  222.8040 C   0  0  0  0  0  0  0  0  0  0  0  0
  137.8860   78.5790  223.0030 C   0  0  0  0  0  0  0  0  0  0  0  0
  138.8640   78.2890  221.9200 C   0  0  1  0  0  0  0  0  0  0  0  0
  140.2190   78.8110  222.2590 C   0  0  0  0  0  0  0  0  0  0  0  0
  140.9560   79.4880  221.3350 N   0  0  0  0  0  0  0  0  0  0  0  0
  142.1800   79.9660  221.6240 C   0  0  0  0  0  0  0  0  0  0  0  0
  142.7190   79.7830  222.8610 C   0  0  0  0  0  0  0  0  0  0  0  0
  141.9520   79.0900  223.7910 C   0  0  0  0  0  0  0  0  0  0  0  0
  140.7280   78.6130  223.4990 N   0  0  0  0  0  0  0  0  0  0  0  0
  142.3240   74.2690  220.4820 C   0  0  0  0  0  0  0  0  0  0  0  0
  143.4940   73.9330  220.8380 O   0  0  0  0  0  0  0  0  0  0  0  0
  141.2740   73.2340  220.4470 C   0  0  0  0  0  0  0  0  0  0  0  0
  141.0530   72.7540  221.7930 N   0  0  0  0  0  0  0  0  0  0  0  0
  140.4070   71.5170  222.0390 C   0  0  0  0  0  0  0  0  0  0  0  0
  139.9960   70.7790  221.0800 O   0  0  0  0  0  0  0  0  0  0  0  0
  140.2120   71.0810  223.4380 C   0  0  0  0  0  0  0  0  0  0  0  0
  139.4630   69.9350  223.6760 C   0  0  0  0  0  0  0  0  0  0  0  0
  139.2410   69.4750  224.9400 C   0  0  0  0  0  0  0  0  0  0  0  0
  139.7920   70.1920  225.9860 C   0  0  0  0  0  0  0  0  0  0  0  0
  139.5730   69.7310  227.2710 C   0  0  0  0  0  0  0  0  0  0  0  0
  140.1080   70.4240  228.3340 C   0  0  0  0  0  0  0  0  0  0  0  0
  140.8510   71.5640  228.0690 C   0  0  0  0  0  0  0  0  0  0  0  0
  141.0610   72.0100  226.7740 C   0  0  0  0  0  0  0  0  0  0  0  0
  140.5280   71.3220  225.7030 C   0  0  0  0  0  0  0  0  0  0  0  0
  140.7440   71.7740  224.4560 N   0  0  0  0  0  0  0  0  0  0  0  0
  143.8358   76.7429  220.5798 H   0  0  0  0  0  0  0  0  0  0  0  0
  143.9274   75.7365  219.0948 H   0  0  0  0  0  0  0  0  0  0  0  0
  142.9625   77.2516  219.0948 H   0  0  0  0  0  0  0  0  0  0  0  0
  140.9019   77.2767  219.8879 H   0  0  0  0  0  0  0  0  0  0  0  0
  140.1846   75.6234  219.4903 H   0  0  0  0  0  0  0  0  0  0  0  0
  137.2253   75.6353  221.7240 H   0  0  0  0  0  0  0  0  0  0  0  0
  137.9036   75.6334  223.3520 H   0  0  0  0  0  0  0  0  0  0  0  0
  136.1896   77.7323  221.9744 H   0  0  0  0  0  0  0  0  0  0  0  0
  136.2242   77.3374  223.6813 H   0  0  0  0  0  0  0  0  0  0  0  0
  137.4349   79.5745  222.8785 H   0  0  0  0  0  0  0  0  0  0  0  0
  138.3294   78.5942  224.0095 H   0  0  0  0  0  0  0  0  0  0  0  0
  138.5482   78.7371  220.9663 H   0  0  0  0  0  0  0  0  0  0  0  0
  142.7496   80.5087  220.8552 H   0  0  0  0  0  0  0  0  0  0  0  0
  143.7184   80.1669  223.1137 H   0  0  0  0  0  0  0  0  0  0  0  0
  142.3595   78.9261  224.7995 H   0  0  0  0  0  0  0  0  0  0  0  0
  140.3429   73.6643  220.0496 H   0  0  0  0  0  0  0  0  0  0  0  0
  141.5879   72.4026  219.7988 H   0  0  0  0  0  0  0  0  0  0  0  0
  141.3720   73.3210  222.6180 H   0  0  0  0  0  0  0  0  0  0  0  0
  139.0385   69.3852  222.8231 H   0  0  0  0  0  0  0  0  0  0  0  0
  138.6460   68.5677  225.1209 H   0  0  0  0  0  0  0  0  0  0  0  0
  138.9785   68.8215  227.4422 H   0  0  0  0  0  0  0  0  0  0  0  0
  139.9498   70.0816  229.3673 H   0  0  0  0  0  0  0  0  0  0  0  0
  141.2846   72.1285  228.9076 H   0  0  0  0  0  0  0  0  0  0  0  0
  141.6563   72.9182  226.5985 H   0  0  0  0  0  0  0  0  0  0  0  0
  1  2  1  0
  2  3  1  0
  3  4  1  0
  4  5  2  0
  4  6  1  0
  6  7  1  0
  7  8  1  0
  8  9  1  0
  9 10  1  0
 10 11  1  0
 11 12  2  0
 12 13  1  0
 13 14  2  0
 14 15  1  0
 15 16  2  0
  2 17  1  0
 17 18  2  0
 17 19  1  0
 19 20  1  0
 20 21  1  0
 21 22  2  0
 21 23  1  0
 23 24  2  0
 24 25  1  0
 25 26  2  0
 26 27  1  0
 27 28  2  0
 28 29  1  0
 29 30  2  0
 30 31  1  0
 31 32  2  0
 10  6  1  0
 16 11  1  0
 32 23  1  0
 31 26  1  0
  1 33  1  0
  1 34  1  0
  1 35  1  0
  3 36  1  0
  3 37  1  0
  7 38  1  0
  7 39  1  0
  8 40  1  0
  8 41  1  0
  9 42  1  0
  9 43  1  0
 10 44  1  6
 13 45  1  0
 14 46  1  0
 15 47  1  0
 19 48  1  0
 19 49  1  0
 20 50  1  0
 24 51  1  0
 25 52  1  0
 27 53  1  0
 28 54  1  0
 29 55  1  0
 30 56  1  0
M  END
>  <smiles>  (29) 
CN(CC(=O)N1CCC[C@H]1c1ncccn1)C(=O)CNC(=O)c1ccc2ccccc2n1

>  <score_type>  (29) 
oracle

>  <origin>  (29) 
autodockgpu

>  <m_score__min__energy>  (29) 
-8.3200000000000003

>  <m_primary>  (29) 
energy

>  <rmsd>  (29) 
3.254567018401538

>  <m_score__min__rmsd>  (29) 
3.254567018401538

>  <meeko>  (29) 
{"free_energy": -7.75, "intermolecular_energy": -10.14, "internal_energy": -2.93, "cluster_size": 22, "cluster_id": 1, "rank_in_cluster": 16}

>  <energy>  (29) 
-7.91

>  <cluster_rmsd>  (29) 
1.21

>  <cluster>  (29) 
2

$$$$

     RDKit          3D

 56 59  0  0  0  0  0  0  0  0999 V2000
  141.7880   76.9470  220.2770 C   0  0  0  0  0  0  0  0  0  0  0  0
  140.3560   76.7880  220.5710 N   0  0  0  0  0  0  0  0  0  0  0  0
  139.3650   77.5910  219.9470 C   0  0  0  0  0  0  0  0  0  0  0  0
  139.1380   78.8990  220.5440 C   0  0  0  0  0  0  0  0  0  0  0  0
  139.8050   79.8520  219.9680 O   0  0  0  0  0  0  0  0  0  0  0  0
  138.3330   79.3070  221.6230 N   0  0  0  0  0  0  0  0  0  0  0  0
  137.0040   78.8780  222.0300 C   0  0  0  0  0  0  0  0  0  0  0  0
  136.6950   79.6950  223.2860 C   0  0  0  0  0  0  0  0  0  0  0  0
  138.0580   80.0390  223.8160 C   0  0  0  0  0  0  0  0  0  0  0  0
  138.8080   80.3410  222.5670 C   0  0  1  0  0  0  0  0  0  0  0  0
  140.2710   80.1170  222.7460 C   0  0  0  0  0  0  0  0  0  0  0  0
  141.1760   81.0170  222.2690 N   0  0  0  0  0  0  0  0  0  0  0  0
  142.5000   80.8310  222.4220 C   0  0  0  0  0  0  0  0  0  0  0  0
  142.9730   79.7260  223.0630 C   0  0  0  0  0  0  0  0  0  0  0  0
  142.0340   78.8200  223.5420 C   0  0  0  0  0  0  0  0  0  0  0  0
  140.7110   79.0080  223.3880 N   0  0  0  0  0  0  0  0  0  0  0  0
  140.0240   75.7510  221.4930 C   0  0  0  0  0  0  0  0  0  0  0  0
  139.8900   76.0630  222.7150 O   0  0  0  0  0  0  0  0  0  0  0  0
  139.8290   74.3420  221.1000 C   0  0  0  0  0  0  0  0  0  0  0  0
  139.8150   73.5280  222.2940 N   0  0  0  0  0  0  0  0  0  0  0  0
  140.1270   72.1460  222.2490 C   0  0  0  0  0  0  0  0  0  0  0  0
  140.4330   71.5690  221.1500 O   0  0  0  0  0  0  0  0  0  0  0  0
  140.0960   71.3660  223.5040 C   0  0  0  0  0  0  0  0  0  0  0  0
  139.5710   70.0800  223.4720 C   0  0  0  0  0  0  0  0  0  0  0  0
  139.5100   69.3040  224.5910 C   0  0  0  0  0  0  0  0  0  0  0  0
  139.9940   69.8430  225.7690 C   0  0  0  0  0  0  0  0  0  0  0  0
  139.9370   69.0620  226.9080 C   0  0  0  0  0  0  0  0  0  0  0  0
  140.4100   69.5720  228.0970 C   0  0  0  0  0  0  0  0  0  0  0  0
  140.9290   70.8570  228.1020 C   0  0  0  0  0  0  0  0  0  0  0  0
  140.9790   71.6250  226.9490 C   0  0  0  0  0  0  0  0  0  0  0  0
  140.5060   71.1230  225.7540 C   0  0  0  0  0  0  0  0  0  0  0  0
  140.5640   71.8860  224.6490 N   0  0  0  0  0  0  0  0  0  0  0  0
  142.3511   77.0095  221.2198 H   0  0  0  0  0  0  0  0  0  0  0  0
  142.1411   76.0825  219.6956 H   0  0  0  0  0  0  0  0  0  0  0  0
  141.9429   77.8679  219.6956 H   0  0  0  0  0  0  0  0  0  0  0  0
  139.6665   77.7459  218.9005 H   0  0  0  0  0  0  0  0  0  0  0  0
  138.4192   77.0418  220.0649 H   0  0  0  0  0  0  0  0  0  0  0  0
  136.2694   79.0907  221.2393 H   0  0  0  0  0  0  0  0  0  0  0  0
  136.9575   77.7952  222.2181 H   0  0  0  0  0  0  0  0  0  0  0  0
  136.1282   80.6039  223.0357 H   0  0  0  0  0  0  0  0  0  0  0  0
  136.0744   79.1504  224.0129 H   0  0  0  0  0  0  0  0  0  0  0  0
  138.0192   80.9147  224.4806 H   0  0  0  0  0  0  0  0  0  0  0  0
  138.5115   79.2425  224.4242 H   0  0  0  0  0  0  0  0  0  0  0  0
  138.6536   81.3827  222.2493 H   0  0  0  0  0  0  0  0  0  0  0  0
  143.2054   81.5767  222.0266 H   0  0  0  0  0  0  0  0  0  0  0  0
  144.0519   79.5579  223.1959 H   0  0  0  0  0  0  0  0  0  0  0  0
  142.3849   77.9182  224.0651 H   0  0  0  0  0  0  0  0  0  0  0  0
  138.8726   74.2348  220.5672 H   0  0  0  0  0  0  0  0  0  0  0  0
  140.6448   74.0208  220.4358 H   0  0  0  0  0  0  0  0  0  0  0  0
  139.5710   73.9510  223.2240 H   0  0  0  0  0  0  0  0  0  0  0  0
  139.1951   69.6779  222.5196 H   0  0  0  0  0  0  0  0  0  0  0  0
  139.0915   68.2872  224.5582 H   0  0  0  0  0  0  0  0  0  0  0  0
  139.5189   68.0454  226.8655 H   0  0  0  0  0  0  0  0  0  0  0  0
  140.3766   68.9741  229.0197 H   0  0  0  0  0  0  0  0  0  0  0  0
  141.3106   71.2778  229.0440 H   0  0  0  0  0  0  0  0  0  0  0  0
  141.3985   72.6412  226.9870 H   0  0  0  0  0  0  0  0  0  0  0  0
  1  2  1  0
  2  3  1  0
  3  4  1  0
  4  5  2  0
  4  6  1  0
  6  7  1  0
  7  8  1  0
  8  9  1  0
  9 10  1  0
 10 11  1  0
 11 12  2  0
 12 13  1  0
 13 14  2  0
 14 15  1  0
 15 16  2  0
  2 17  1  0
 17 18  2  0
 17 19  1  0
 19 20  1  0
 20 21  1  0
 21 22  2  0
 21 23  1  0
 23 24  2  0
 24 25  1  0
 25 26  2  0
 26 27  1  0
 27 28  2  0
 28 29  1  0
 29 30  2  0
 30 31  1  0
 31 32  2  0
 10  6  1  0
 16 11  1  0
 32 23  1  0
 31 26  1  0
  1 33  1  0
  1 34  1  0
  1 35  1  0
  3 36  1  0
  3 37  1  0
  7 38  1  0
  7 39  1  0
  8 40  1  0
  8 41  1  0
  9 42  1  0
  9 43  1  0
 10 44  1  6
 13 45  1  0
 14 46  1  0
 15 47  1  0
 19 48  1  0
 19 49  1  0
 20 50  1  0
 24 51  1  0
 25 52  1  0
 27 53  1  0
 28 54  1  0
 29 55  1  0
 30 56  1  0
M  END
>  <smiles>  (30) 
CN(CC(=O)N1CCC[C@H]1c1ncccn1)C(=O)CNC(=O)c1ccc2ccccc2n1

>  <score_type>  (30) 
oracle

>  <origin>  (30) 
autodockgpu

>  <m_score__min__energy>  (30) 
-8.3200000000000003

>  <m_primary>  (30) 
energy

>  <rmsd>  (30) 
2.644928458421279

>  <m_score__min__rmsd>  (30) 
2.644928458421279

>  <meeko>  (30) 
{"free_energy": -7.82, "intermolecular_energy": -10.21, "internal_energy": -2.89, "cluster_size": 22, "cluster_id": 1, "rank_in_cluster": 15}

>  <energy>  (30) 
-7.9

>  <cluster_rmsd>  (30) 
1.97

>  <cluster>  (30) 
2

$$$$

     RDKit          3D

 56 59  0  0  0  0  0  0  0  0999 V2000
  138.8680   76.0640  219.5430 C   0  0  0  0  0  0  0  0  0  0  0  0
  138.7290   75.9520  221.0020 N   0  0  0  0  0  0  0  0  0  0  0  0
  138.9430   77.0580  221.8660 C   0  0  0  0  0  0  0  0  0  0  0  0
  140.3110   77.2550  222.3210 C   0  0  0  0  0  0  0  0  0  0  0  0
  140.9950   76.1540  222.3920 O   0  0  0  0  0  0  0  0  0  0  0  0
  141.0140   78.4150  222.6930 N   0  0  0  0  0  0  0  0  0  0  0  0
  141.5130   78.8480  223.9890 C   0  0  0  0  0  0  0  0  0  0  0  0
  142.1950   80.1900  223.7200 C   0  0  0  0  0  0  0  0  0  0  0  0
  142.5560   80.1060  222.2640 C   0  0  0  0  0  0  0  0  0  0  0  0
  141.3560   79.4430  221.6870 C   0  0  1  0  0  0  0  0  0  0  0  0
  141.6910   78.7150  220.4300 C   0  0  0  0  0  0  0  0  0  0  0  0
  142.4350   77.5740  220.4620 N   0  0  0  0  0  0  0  0  0  0  0  0
  142.7460   76.9040  219.3370 C   0  0  0  0  0  0  0  0  0  0  0  0
  142.3210   77.3560  218.1250 C   0  0  0  0  0  0  0  0  0  0  0  0
  141.5640   78.5210  218.1120 C   0  0  0  0  0  0  0  0  0  0  0  0
  141.2530   79.1890  219.2370 N   0  0  0  0  0  0  0  0  0  0  0  0
  138.3310   74.6720  221.4910 C   0  0  0  0  0  0  0  0  0  0  0  0
  137.2440   74.5950  222.1390 O   0  0  0  0  0  0  0  0  0  0  0  0
  139.1150   73.4390  221.2810 C   0  0  0  0  0  0  0  0  0  0  0  0
  139.2120   72.7340  222.5390 N   0  0  0  0  0  0  0  0  0  0  0  0
  140.3230   71.9060  222.8370 C   0  0  0  0  0  0  0  0  0  0  0  0
  141.2800   71.7540  222.0050 O   0  0  0  0  0  0  0  0  0  0  0  0
  140.3640   71.2110  224.1410 C   0  0  0  0  0  0  0  0  0  0  0  0
  140.8930   71.8860  225.2340 C   0  0  0  0  0  0  0  0  0  0  0  0
  140.9620   71.3070  226.4680 C   0  0  0  0  0  0  0  0  0  0  0  0
  140.4830   70.0170  226.5940 C   0  0  0  0  0  0  0  0  0  0  0  0
  140.5490   69.4230  227.8410 C   0  0  0  0  0  0  0  0  0  0  0  0
  140.0800   68.1380  227.9990 C   0  0  0  0  0  0  0  0  0  0  0  0
  139.5570   67.4870  226.8930 C   0  0  0  0  0  0  0  0  0  0  0  0
  139.4980   68.0990  225.6510 C   0  0  0  0  0  0  0  0  0  0  0  0
  139.9660   69.3860  225.4830 C   0  0  0  0  0  0  0  0  0  0  0  0
  139.9000   69.9590  224.2680 N   0  0  0  0  0  0  0  0  0  0  0  0
  139.7042   76.7378  219.3050 H   0  0  0  0  0  0  0  0  0  0  0  0
  139.0654   75.0696  219.1161 H   0  0  0  0  0  0  0  0  0  0  0  0
  137.9383   76.4683  219.1161 H   0  0  0  0  0  0  0  0  0  0  0  0
  138.6313   77.9678  221.3320 H   0  0  0  0  0  0  0  0  0  0  0  0
  138.3563   76.8453  222.7718 H   0  0  0  0  0  0  0  0  0  0  0  0
  140.6840   78.9712  224.7014 H   0  0  0  0  0  0  0  0  0  0  0  0
  142.2024   78.1149  224.4331 H   0  0  0  0  0  0  0  0  0  0  0  0
  141.5065   81.0270  223.9080 H   0  0  0  0  0  0  0  0  0  0  0  0
  143.0638   80.3703  224.3701 H   0  0  0  0  0  0  0  0  0  0  0  0
  142.7074   81.1059  221.8312 H   0  0  0  0  0  0  0  0  0  0  0  0
  143.4963   79.5692  222.0699 H   0  0  0  0  0  0  0  0  0  0  0  0
  140.5642   80.1733  221.4642 H   0  0  0  0  0  0  0  0  0  0  0  0
  143.3476   75.9850  219.3971 H   0  0  0  0  0  0  0  0  0  0  0  0
  142.5666   76.8215  217.1955 H   0  0  0  0  0  0  0  0  0  0  0  0
  141.2064   78.9107  217.1475 H   0  0  0  0  0  0  0  0  0  0  0  0
  138.6128   72.8027  220.5374 H   0  0  0  0  0  0  0  0  0  0  0  0
  140.1205   73.6913  220.9133 H   0  0  0  0  0  0  0  0  0  0  0  0
  138.4520   72.8250  223.2590 H   0  0  0  0  0  0  0  0  0  0  0  0
  141.2655   72.9125  225.1016 H   0  0  0  0  0  0  0  0  0  0  0  0
  141.3828   71.8466  227.3293 H   0  0  0  0  0  0  0  0  0  0  0  0
  140.9711   69.9705  228.6966 H   0  0  0  0  0  0  0  0  0  0  0  0
  140.1195   67.6404  228.9792 H   0  0  0  0  0  0  0  0  0  0  0  0
  139.1796   66.4597  227.0036 H   0  0  0  0  0  0  0  0  0  0  0  0
  139.0752   67.5551  224.7934 H   0  0  0  0  0  0  0  0  0  0  0  0
  1  2  1  0
  2  3  1  0
  3  4  1  0
  4  5  2  0
  4  6  1  0
  6  7  1  0
  7  8  1  0
  8  9  1  0
  9 10  1  0
 10 11  1  0
 11 12  2  0
 12 13  1  0
 13 14  2  0
 14 15  1  0
 15 16  2  0
  2 17  1  0
 17 18  2  0
 17 19  1  0
 19 20  1  0
 20 21  1  0
 21 22  2  0
 21 23  1  0
 23 24  2  0
 24 25  1  0
 25 26  2  0
 26 27  1  0
 27 28  2  0
 28 29  1  0
 29 30  2  0
 30 31  1  0
 31 32  2  0
 10  6  1  0
 16 11  1  0
 32 23  1  0
 31 26  1  0
  1 33  1  0
  1 34  1  0
  1 35  1  0
  3 36  1  0
  3 37  1  0
  7 38  1  0
  7 39  1  0
  8 40  1  0
  8 41  1  0
  9 42  1  0
  9 43  1  0
 10 44  1  6
 13 45  1  0
 14 46  1  0
 15 47  1  0
 19 48  1  0
 19 49  1  0
 20 50  1  0
 24 51  1  0
 25 52  1  0
 27 53  1  0
 28 54  1  0
 29 55  1  0
 30 56  1  0
M  END
>  <smiles>  (31) 
CN(CC(=O)N1CCC[C@H]1c1ncccn1)C(=O)CNC(=O)c1ccc2ccccc2n1

>  <score_type>  (31) 
oracle

>  <origin>  (31) 
autodockgpu

>  <m_score__min__energy>  (31) 
-8.3200000000000003

>  <m_primary>  (31) 
energy

>  <rmsd>  (31) 
3.1207973868357084

>  <m_score__min__rmsd>  (31) 
3.1207973868357084

>  <meeko>  (31) 
{"free_energy": -7.93, "intermolecular_energy": -10.32, "internal_energy": -2.3, "cluster_size": 22, "cluster_id": 1, "rank_in_cluster": 12}

>  <energy>  (31) 
-7.9

>  <cluster_rmsd>  (31) 
1.95

>  <cluster>  (31) 
2

$$$$

     RDKit          3D

 56 59  0  0  0  0  0  0  0  0999 V2000
  139.0000   76.6500  221.0070 C   0  0  0  0  0  0  0  0  0  0  0  0
  139.3200   75.3260  220.4540 N   0  0  0  0  0  0  0  0  0  0  0  0
  139.4600   75.1070  219.0590 C   0  0  0  0  0  0  0  0  0  0  0  0
  140.7970   74.7580  218.6010 C   0  0  0  0  0  0  0  0  0  0  0  0
  140.9240   74.7860  217.3090 O   0  0  0  0  0  0  0  0  0  0  0  0
  141.9610   74.3990  219.3030 N   0  0  0  0  0  0  0  0  0  0  0  0
  142.6870   73.1400  219.3570 C   0  0  0  0  0  0  0  0  0  0  0  0
  143.8680   73.4060  220.2920 C   0  0  0  0  0  0  0  0  0  0  0  0
  144.0540   74.8930  220.1950 C   0  0  0  0  0  0  0  0  0  0  0  0
  142.6480   75.3790  220.1710 C   0  0  1  0  0  0  0  0  0  0  0  0
  142.5430   76.7010  219.4880 C   0  0  0  0  0  0  0  0  0  0  0  0
  141.9490   77.7590  220.1070 N   0  0  0  0  0  0  0  0  0  0  0  0
  141.8460   78.9580  219.5060 C   0  0  0  0  0  0  0  0  0  0  0  0
  142.3370   79.1460  218.2500 C   0  0  0  0  0  0  0  0  0  0  0  0
  142.9390   78.0550  217.6350 C   0  0  0  0  0  0  0  0  0  0  0  0
  143.0420   76.8570  218.2380 N   0  0  0  0  0  0  0  0  0  0  0  0
  139.5170   74.2860  221.4110 C   0  0  0  0  0  0  0  0  0  0  0  0
  140.5050   74.3830  222.2000 O   0  0  0  0  0  0  0  0  0  0  0  0
  138.6340   73.1090  221.5290 C   0  0  0  0  0  0  0  0  0  0  0  0
  139.0120   72.3650  222.7090 N   0  0  0  0  0  0  0  0  0  0  0  0
  138.6970   70.9900  222.8470 C   0  0  0  0  0  0  0  0  0  0  0  0
  138.0670   70.3580  221.9320 O   0  0  0  0  0  0  0  0  0  0  0  0
  139.1110   70.2840  224.0780 C   0  0  0  0  0  0  0  0  0  0  0  0
  138.8530   68.9230  224.1780 C   0  0  0  0  0  0  0  0  0  0  0  0
  139.2070   68.2070  225.2840 C   0  0  0  0  0  0  0  0  0  0  0  0
  139.8360   68.8880  226.3100 C   0  0  0  0  0  0  0  0  0  0  0  0
  140.1990   68.1700  227.4350 C   0  0  0  0  0  0  0  0  0  0  0  0
  140.8270   68.8200  228.4730 C   0  0  0  0  0  0  0  0  0  0  0  0
  141.0720   70.1780  228.3480 C   0  0  0  0  0  0  0  0  0  0  0  0
  140.7030   70.8810  227.2120 C   0  0  0  0  0  0  0  0  0  0  0  0
  140.0720   70.2380  226.1670 C   0  0  0  0  0  0  0  0  0  0  0  0
  139.7220   70.9410  225.0760 N   0  0  0  0  0  0  0  0  0  0  0  0
  139.0118   76.6010  222.1058 H   0  0  0  0  0  0  0  0  0  0  0  0
  139.7474   77.3808  220.6645 H   0  0  0  0  0  0  0  0  0  0  0  0
  138.0014   76.9588  220.6645 H   0  0  0  0  0  0  0  0  0  0  0  0
  138.7826   74.2876  218.7769 H   0  0  0  0  0  0  0  0  0  0  0  0
  139.2237   76.0694  218.5815 H   0  0  0  0  0  0  0  0  0  0  0  0
  142.0469   72.3412  219.7597 H   0  0  0  0  0  0  0  0  0  0  0  0
  143.0144   72.8079  218.3607 H   0  0  0  0  0  0  0  0  0  0  0  0
  143.6306   73.1045  221.3229 H   0  0  0  0  0  0  0  0  0  0  0  0
  144.7706   72.8396  220.0190 H   0  0  0  0  0  0  0  0  0  0  0  0
  144.5979   75.2856  221.0668 H   0  0  0  0  0  0  0  0  0  0  0  0
  144.6481   75.2101  219.3252 H   0  0  0  0  0  0  0  0  0  0  0  0
  142.2426   75.4811  221.1885 H   0  0  0  0  0  0  0  0  0  0  0  0
  141.3614   79.7930  220.0332 H   0  0  0  0  0  0  0  0  0  0  0  0
  142.2604   80.1197  217.7439 H   0  0  0  0  0  0  0  0  0  0  0  0
  143.3454   78.1752  216.6199 H   0  0  0  0  0  0  0  0  0  0  0  0
  137.5881   73.4379  221.6176 H   0  0  0  0  0  0  0  0  0  0  0  0
  138.7335   72.4737  220.6365 H   0  0  0  0  0  0  0  0  0  0  0  0
  139.5310   72.8370  223.4910 H   0  0  0  0  0  0  0  0  0  0  0  0
  138.3508   68.4096  223.3448 H   0  0  0  0  0  0  0  0  0  0  0  0
  139.0000   67.1291  225.3568 H   0  0  0  0  0  0  0  0  0  0  0  0
  139.9883   67.0923  227.4994 H   0  0  0  0  0  0  0  0  0  0  0  0
  141.1271   68.2746  229.3799 H   0  0  0  0  0  0  0  0  0  0  0  0
  141.5715   70.7111  229.1704 H   0  0  0  0  0  0  0  0  0  0  0  0
  140.9145   71.9583  227.1431 H   0  0  0  0  0  0  0  0  0  0  0  0
  1  2  1  0
  2  3  1  0
  3  4  1  0
  4  5  2  0
  4  6  1  0
  6  7  1  0
  7  8  1  0
  8  9  1  0
  9 10  1  0
 10 11  1  0
 11 12  2  0
 12 13  1  0
 13 14  2  0
 14 15  1  0
 15 16  2  0
  2 17  1  0
 17 18  2  0
 17 19  1  0
 19 20  1  0
 20 21  1  0
 21 22  2  0
 21 23  1  0
 23 24  2  0
 24 25  1  0
 25 26  2  0
 26 27  1  0
 27 28  2  0
 28 29  1  0
 29 30  2  0
 30 31  1  0
 31 32  2  0
 10  6  1  0
 16 11  1  0
 32 23  1  0
 31 26  1  0
  1 33  1  0
  1 34  1  0
  1 35  1  0
  3 36  1  0
  3 37  1  0
  7 38  1  0
  7 39  1  0
  8 40  1  0
  8 41  1  0
  9 42  1  0
  9 43  1  0
 10 44  1  1
 13 45  1  0
 14 46  1  0
 15 47  1  0
 19 48  1  0
 19 49  1  0
 20 50  1  0
 24 51  1  0
 25 52  1  0
 27 53  1  0
 28 54  1  0
 29 55  1  0
 30 56  1  0
M  END
>  <smiles>  (32) 
CN(CC(=O)N1CCC[C@H]1c1ncccn1)C(=O)CNC(=O)c1ccc2ccccc2n1

>  <score_type>  (32) 
oracle

>  <origin>  (32) 
autodockgpu

>  <m_score__min__energy>  (32) 
-8.3200000000000003

>  <m_primary>  (32) 
energy

>  <rmsd>  (32) 
3.8213410759897526

>  <m_score__min__rmsd>  (32) 
3.8213410759897526

>  <meeko>  (32) 
{"free_energy": -7.01, "intermolecular_energy": -9.4, "internal_energy": -3.15, "cluster_size": 1, "cluster_id": 4, "rank_in_cluster": 1}

>  <energy>  (32) 
-7.89

>  <cluster_rmsd>  (32) 
1.46

>  <cluster>  (32) 
2

$$$$

     RDKit          3D

 56 59  0  0  0  0  0  0  0  0999 V2000
  132.1380   70.4640  222.7330 C   0  0  0  0  0  0  0  0  0  0  0  0
  133.5930   70.6560  222.6460 N   0  0  0  0  0  0  0  0  0  0  0  0
  134.2330   71.8100  223.1680 C   0  0  0  0  0  0  0  0  0  0  0  0
  134.4590   71.8180  224.6060 C   0  0  0  0  0  0  0  0  0  0  0  0
  135.5390   71.1920  224.9610 O   0  0  0  0  0  0  0  0  0  0  0  0
  133.7210   72.3760  225.6640 N   0  0  0  0  0  0  0  0  0  0  0  0
  133.1400   73.7010  225.8210 C   0  0  0  0  0  0  0  0  0  0  0  0
  132.4590   73.6720  227.1900 C   0  0  0  0  0  0  0  0  0  0  0  0
  132.1860   72.2110  227.4080 C   0  0  0  0  0  0  0  0  0  0  0  0
  133.4270   71.5840  226.8770 C   0  0  1  0  0  0  0  0  0  0  0  0
  133.1760   70.1860  226.4230 C   0  0  0  0  0  0  0  0  0  0  0  0
  134.1650   69.2510  226.4670 N   0  0  0  0  0  0  0  0  0  0  0  0
  133.9560   67.9850  226.0610 C   0  0  0  0  0  0  0  0  0  0  0  0
  132.7360   67.6030  225.5910 C   0  0  0  0  0  0  0  0  0  0  0  0
  131.7390   68.5710  225.5540 C   0  0  0  0  0  0  0  0  0  0  0  0
  131.9500   69.8360  225.9610 N   0  0  0  0  0  0  0  0  0  0  0  0
  134.3230   69.5910  222.0380 C   0  0  0  0  0  0  0  0  0  0  0  0
  134.5710   69.6740  220.7960 O   0  0  0  0  0  0  0  0  0  0  0  0
  134.8030   68.4070  222.7740 C   0  0  0  0  0  0  0  0  0  0  0  0
  135.7930   68.8320  223.7370 N   0  0  0  0  0  0  0  0  0  0  0  0
  137.1700   68.8870  223.4050 C   0  0  0  0  0  0  0  0  0  0  0  0
  137.5860   68.5640  222.2410 O   0  0  0  0  0  0  0  0  0  0  0  0
  138.1340   69.3310  224.4340 C   0  0  0  0  0  0  0  0  0  0  0  0
  138.6880   70.6000  224.3190 C   0  0  0  0  0  0  0  0  0  0  0  0
  139.5840   71.0750  225.2310 C   0  0  0  0  0  0  0  0  0  0  0  0
  139.9240   70.2450  226.2840 C   0  0  0  0  0  0  0  0  0  0  0  0
  140.8310   70.7190  227.2130 C   0  0  0  0  0  0  0  0  0  0  0  0
  141.1900   69.9160  228.2720 C   0  0  0  0  0  0  0  0  0  0  0  0
  140.6230   68.6540  228.3640 C   0  0  0  0  0  0  0  0  0  0  0  0
  139.7140   68.1970  227.4230 C   0  0  0  0  0  0  0  0  0  0  0  0
  139.3490   68.9940  226.3580 C   0  0  0  0  0  0  0  0  0  0  0  0
  138.4670   68.5280  225.4570 N   0  0  0  0  0  0  0  0  0  0  0  0
  131.8360   70.4241  223.7900 H   0  0  0  0  0  0  0  0  0  0  0  0
  131.6272   71.3025  222.2371 H   0  0  0  0  0  0  0  0  0  0  0  0
  131.8622   69.5217  222.2371 H   0  0  0  0  0  0  0  0  0  0  0  0
  135.2106   71.9058  222.6730 H   0  0  0  0  0  0  0  0  0  0  0  0
  133.5454   72.6456  222.9709 H   0  0  0  0  0  0  0  0  0  0  0  0
  133.9234   74.4728  225.7946 H   0  0  0  0  0  0  0  0  0  0  0  0
  132.4344   73.9424  225.0124 H   0  0  0  0  0  0  0  0  0  0  0  0
  133.1250   74.0693  227.9701 H   0  0  0  0  0  0  0  0  0  0  0  0
  131.5508   74.2911  227.2327 H   0  0  0  0  0  0  0  0  0  0  0  0
  132.0487   71.9846  228.4757 H   0  0  0  0  0  0  0  0  0  0  0  0
  131.2653   71.8538  226.9235 H   0  0  0  0  0  0  0  0  0  0  0  0
  134.2218   71.5647  227.6372 H   0  0  0  0  0  0  0  0  0  0  0  0
  134.7762   67.2536  226.1091 H   0  0  0  0  0  0  0  0  0  0  0  0
  132.5477   66.5726  225.2551 H   0  0  0  0  0  0  0  0  0  0  0  0
  130.7429   68.2931  225.1789 H   0  0  0  0  0  0  0  0  0  0  0  0
  133.9609   67.9282  223.2952 H   0  0  0  0  0  0  0  0  0  0  0  0
  135.2465   67.6839  222.0737 H   0  0  0  0  0  0  0  0  0  0  0  0
  135.5050   69.1090  224.7090 H   0  0  0  0  0  0  0  0  0  0  0  0
  138.3967   71.2375  223.4712 H   0  0  0  0  0  0  0  0  0  0  0  0
  140.0198   72.0802  225.1329 H   0  0  0  0  0  0  0  0  0  0  0  0
  141.2609   71.7260  227.1074 H   0  0  0  0  0  0  0  0  0  0  0  0
  141.9091   70.2670  229.0268 H   0  0  0  0  0  0  0  0  0  0  0  0
  140.9012   68.0002  229.2037 H   0  0  0  0  0  0  0  0  0  0  0  0
  139.2804   67.1913  227.5262 H   0  0  0  0  0  0  0  0  0  0  0  0
  1  2  1  0
  2  3  1  0
  3  4  1  0
  4  5  2  0
  4  6  1  0
  6  7  1  0
  7  8  1  0
  8  9  1  0
  9 10  1  0
 10 11  1  0
 11 12  2  0
 12 13  1  0
 13 14  2  0
 14 15  1  0
 15 16  2  0
  2 17  1  0
 17 18  2  0
 17 19  1  0
 19 20  1  0
 20 21  1  0
 21 22  2  0
 21 23  1  0
 23 24  2  0
 24 25  1  0
 25 26  2  0
 26 27  1  0
 27 28  2  0
 28 29  1  0
 29 30  2  0
 30 31  1  0
 31 32  2  0
 10  6  1  0
 16 11  1  0
 32 23  1  0
 31 26  1  0
  1 33  1  0
  1 34  1  0
  1 35  1  0
  3 36  1  0
  3 37  1  0
  7 38  1  0
  7 39  1  0
  8 40  1  0
  8 41  1  0
  9 42  1  0
  9 43  1  0
 10 44  1  1
 13 45  1  0
 14 46  1  0
 15 47  1  0
 19 48  1  0
 19 49  1  0
 20 50  1  0
 24 51  1  0
 25 52  1  0
 27 53  1  0
 28 54  1  0
 29 55  1  0
 30 56  1  0
M  END
>  <smiles>  (33) 
CN(CC(=O)N1CCC[C@H]1c1ncccn1)C(=O)CNC(=O)c1ccc2ccccc2n1

>  <score_type>  (33) 
oracle

>  <origin>  (33) 
autodockgpu

>  <m_score__min__energy>  (33) 
-8.3200000000000003

>  <m_primary>  (33) 
energy

>  <rmsd>  (33) 
7.8508821246165255

>  <m_score__min__rmsd>  (33) 
7.8508821246165255

>  <meeko>  (33) 
{"free_energy": -6.17, "intermolecular_energy": -8.56, "internal_energy": -4.23, "cluster_size": 1, "cluster_id": 5, "rank_in_cluster": 1}

>  <energy>  (33) 
-7.88

>  <cluster_rmsd>  (33) 
1.2

>  <cluster>  (33) 
2

$$$$

     RDKit          3D

 56 59  0  0  0  0  0  0  0  0999 V2000
  142.1230   76.3570  220.1120 C   0  0  0  0  0  0  0  0  0  0  0  0
  140.7260   76.5590  220.5250 N   0  0  0  0  0  0  0  0  0  0  0  0
  139.9320   77.6160  220.0060 C   0  0  0  0  0  0  0  0  0  0  0  0
  140.0860   78.9070  220.6610 C   0  0  0  0  0  0  0  0  0  0  0  0
  139.2810   79.8170  220.2040 O   0  0  0  0  0  0  0  0  0  0  0  0
  140.9440   79.3360  221.6890 N   0  0  0  0  0  0  0  0  0  0  0  0
  142.2090   80.0530  221.6320 C   0  0  0  0  0  0  0  0  0  0  0  0
  142.6300   80.2240  223.0930 C   0  0  0  0  0  0  0  0  0  0  0  0
  141.3270   80.1500  223.8370 C   0  0  0  0  0  0  0  0  0  0  0  0
  140.6160   79.0670  223.1050 C   0  0  1  0  0  0  0  0  0  0  0  0
  139.1370   79.2070  223.2340 C   0  0  0  0  0  0  0  0  0  0  0  0
  138.3050   78.1990  222.8490 N   0  0  0  0  0  0  0  0  0  0  0  0
  136.9690   78.3090  222.9590 C   0  0  0  0  0  0  0  0  0  0  0  0
  136.4080   79.4430  223.4620 C   0  0  0  0  0  0  0  0  0  0  0  0
  137.2720   80.4600  223.8500 C   0  0  0  0  0  0  0  0  0  0  0  0
  138.6080   80.3480  223.7400 N   0  0  0  0  0  0  0  0  0  0  0  0
  140.2090   75.6040  221.4500 C   0  0  0  0  0  0  0  0  0  0  0  0
  139.9420   75.9990  222.6260 O   0  0  0  0  0  0  0  0  0  0  0  0
  139.9690   74.1880  221.1120 C   0  0  0  0  0  0  0  0  0  0  0  0
  139.9120   73.4240  222.3370 N   0  0  0  0  0  0  0  0  0  0  0  0
  140.2990   72.0610  222.3750 C   0  0  0  0  0  0  0  0  0  0  0  0
  140.7130   71.4580  221.3270 O   0  0  0  0  0  0  0  0  0  0  0  0
  140.2180   71.3330  223.6590 C   0  0  0  0  0  0  0  0  0  0  0  0
  139.6370   70.0710  223.6690 C   0  0  0  0  0  0  0  0  0  0  0  0
  139.5290   69.3420  224.8170 C   0  0  0  0  0  0  0  0  0  0  0  0
  140.0220   69.9050  225.9790 C   0  0  0  0  0  0  0  0  0  0  0  0
  139.9170   69.1720  227.1470 C   0  0  0  0  0  0  0  0  0  0  0  0
  140.3990   69.7060  228.3210 C   0  0  0  0  0  0  0  0  0  0  0  0
  140.9740   70.9670  228.2840 C   0  0  0  0  0  0  0  0  0  0  0  0
  141.0720   71.6860  227.1030 C   0  0  0  0  0  0  0  0  0  0  0  0
  140.5910   71.1590  225.9220 C   0  0  0  0  0  0  0  0  0  0  0  0
  140.6960   71.8760  224.7890 N   0  0  0  0  0  0  0  0  0  0  0  0
  142.7595   76.2650  221.0044 H   0  0  0  0  0  0  0  0  0  0  0  0
  142.1986   75.4386  219.5114 H   0  0  0  0  0  0  0  0  0  0  0  0
  142.4557   77.2164  219.5114 H   0  0  0  0  0  0  0  0  0  0  0  0
  140.1920   77.7432  218.9448 H   0  0  0  0  0  0  0  0  0  0  0  0
  138.8877   77.3168  220.1791 H   0  0  0  0  0  0  0  0  0  0  0  0
  142.9598   79.4700  221.0785 H   0  0  0  0  0  0  0  0  0  0  0  0
  142.1153   81.0179  221.1121 H   0  0  0  0  0  0  0  0  0  0  0  0
  143.3087   79.4165  223.4050 H   0  0  0  0  0  0  0  0  0  0  0  0
  143.1791   81.1592  223.2769 H   0  0  0  0  0  0  0  0  0  0  0  0
  141.4837   79.8832  224.8926 H   0  0  0  0  0  0  0  0  0  0  0  0
  140.7770   81.1022  223.8655 H   0  0  0  0  0  0  0  0  0  0  0  0
  140.9049   78.0742  223.4804 H   0  0  0  0  0  0  0  0  0  0  0  0
  136.3247   77.4764  222.6401 H   0  0  0  0  0  0  0  0  0  0  0  0
  135.3173   79.5497  223.5572 H   0  0  0  0  0  0  0  0  0  0  0  0
  136.8489   81.3884  224.2612 H   0  0  0  0  0  0  0  0  0  0  0  0
  139.0158   74.0927  220.5713 H   0  0  0  0  0  0  0  0  0  0  0  0
  140.7811   73.8119  220.4724 H   0  0  0  0  0  0  0  0  0  0  0  0
  139.5800   73.8710  223.2280 H   0  0  0  0  0  0  0  0  0  0  0  0
  139.2546   69.6492  222.7278 H   0  0  0  0  0  0  0  0  0  0  0  0
  139.0670   68.3437  224.8178 H   0  0  0  0  0  0  0  0  0  0  0  0
  139.4539   68.1743  227.1382 H   0  0  0  0  0  0  0  0  0  0  0  0
  140.3296   69.1459  229.2651 H   0  0  0  0  0  0  0  0  0  0  0  0
  141.3618   71.4076  229.2143 H   0  0  0  0  0  0  0  0  0  0  0  0
  141.5363   72.6832  227.1073 H   0  0  0  0  0  0  0  0  0  0  0  0
  1  2  1  0
  2  3  1  0
  3  4  1  0
  4  5  2  0
  4  6  1  0
  6  7  1  0
  7  8  1  0
  8  9  1  0
  9 10  1  0
 10 11  1  0
 11 12  2  0
 12 13  1  0
 13 14  2  0
 14 15  1  0
 15 16  2  0
  2 17  1  0
 17 18  2  0
 17 19  1  0
 19 20  1  0
 20 21  1  0
 21 22  2  0
 21 23  1  0
 23 24  2  0
 24 25  1  0
 25 26  2  0
 26 27  1  0
 27 28  2  0
 28 29  1  0
 29 30  2  0
 30 31  1  0
 31 32  2  0
 10  6  1  0
 16 11  1  0
 32 23  1  0
 31 26  1  0
  1 33  1  0
  1 34  1  0
  1 35  1  0
  3 36  1  0
  3 37  1  0
  7 38  1  0
  7 39  1  0
  8 40  1  0
  8 41  1  0
  9 42  1  0
  9 43  1  0
 10 44  1  1
 13 45  1  0
 14 46  1  0
 15 47  1  0
 19 48  1  0
 19 49  1  0
 20 50  1  0
 24 51  1  0
 25 52  1  0
 27 53  1  0
 28 54  1  0
 29 55  1  0
 30 56  1  0
M  END
>  <smiles>  (34) 
CN(CC(=O)N1CCC[C@H]1c1ncccn1)C(=O)CNC(=O)c1ccc2ccccc2n1

>  <score_type>  (34) 
oracle

>  <origin>  (34) 
autodockgpu

>  <m_score__min__energy>  (34) 
-8.3200000000000003

>  <m_primary>  (34) 
energy

>  <rmsd>  (34) 
2.146867223070562

>  <m_score__min__rmsd>  (34) 
2.146867223070562

>  <meeko>  (34) 
{"free_energy": -8.11, "intermolecular_energy": -10.5, "internal_energy": -2.73, "cluster_size": 19, "cluster_id": 2, "rank_in_cluster": 4}

>  <energy>  (34) 
-7.85

>  <cluster_rmsd>  (34) 
1.51

>  <cluster>  (34) 
2

$$$$

     RDKit          3D

 56 59  0  0  0  0  0  0  0  0999 V2000
  135.4670   70.8710  220.3370 C   0  0  0  0  0  0  0  0  0  0  0  0
  135.6270   71.9580  221.3140 N   0  0  0  0  0  0  0  0  0  0  0  0
  134.7850   72.0790  222.4500 C   0  0  0  0  0  0  0  0  0  0  0  0
  135.4020   71.7810  223.7340 C   0  0  0  0  0  0  0  0  0  0  0  0
  136.6400   72.1610  223.8120 O   0  0  0  0  0  0  0  0  0  0  0  0
  134.8980   71.1600  224.8910 N   0  0  0  0  0  0  0  0  0  0  0  0
  133.8690   71.5890  225.8270 C   0  0  0  0  0  0  0  0  0  0  0  0
  133.7850   70.4650  226.8600 C   0  0  0  0  0  0  0  0  0  0  0  0
  134.2990   69.2690  226.1100 C   0  0  0  0  0  0  0  0  0  0  0  0
  135.4260   69.8530  225.3350 C   0  0  1  0  0  0  0  0  0  0  0  0
  135.7030   69.0630  224.1010 C   0  0  0  0  0  0  0  0  0  0  0  0
  134.7930   68.1650  223.6300 N   0  0  0  0  0  0  0  0  0  0  0  0
  135.0260   67.4450  222.5180 C   0  0  0  0  0  0  0  0  0  0  0  0
  136.1910   67.5960  221.8290 C   0  0  0  0  0  0  0  0  0  0  0  0
  137.1070   68.5160  222.3240 C   0  0  0  0  0  0  0  0  0  0  0  0
  136.8710   69.2360  223.4360 N   0  0  0  0  0  0  0  0  0  0  0  0
  136.7050   72.8590  221.0670 C   0  0  0  0  0  0  0  0  0  0  0  0
  136.4300   74.0900  220.9260 O   0  0  0  0  0  0  0  0  0  0  0  0
  138.1150   72.4360  220.9690 C   0  0  0  0  0  0  0  0  0  0  0  0
  138.4680   71.7230  222.1760 N   0  0  0  0  0  0  0  0  0  0  0  0
  139.5950   72.0950  222.9500 C   0  0  0  0  0  0  0  0  0  0  0  0
  140.3410   73.0760  222.6110 O   0  0  0  0  0  0  0  0  0  0  0  0
  139.9040   71.3250  224.1740 C   0  0  0  0  0  0  0  0  0  0  0  0
  140.7470   71.8960  225.1190 C   0  0  0  0  0  0  0  0  0  0  0  0
  141.0760   71.2440  226.2720 C   0  0  0  0  0  0  0  0  0  0  0  0
  140.5360   69.9870  226.4700 C   0  0  0  0  0  0  0  0  0  0  0  0
  140.8630   69.3200  227.6360 C   0  0  0  0  0  0  0  0  0  0  0  0
  140.3410   68.0660  227.8620 C   0  0  0  0  0  0  0  0  0  0  0  0
  139.5020   67.5200  226.9030 C   0  0  0  0  0  0  0  0  0  0  0  0
  139.1840   68.2040  225.7410 C   0  0  0  0  0  0  0  0  0  0  0  0
  139.7030   69.4610  225.5060 C   0  0  0  0  0  0  0  0  0  0  0  0
  139.3820   70.1050  224.3700 N   0  0  0  0  0  0  0  0  0  0  0  0
  135.3267   69.9181  220.8684 H   0  0  0  0  0  0  0  0  0  0  0  0
  134.5887   71.0716  219.7059 H   0  0  0  0  0  0  0  0  0  0  0  0
  136.3658   70.8100  219.7059 H   0  0  0  0  0  0  0  0  0  0  0  0
  134.4149   73.1142  222.4863 H   0  0  0  0  0  0  0  0  0  0  0  0
  133.9959   71.3243  222.3170 H   0  0  0  0  0  0  0  0  0  0  0  0
  134.1537   72.5364  226.3080 H   0  0  0  0  0  0  0  0  0  0  0  0
  132.9044   71.7675  225.3293 H   0  0  0  0  0  0  0  0  0  0  0  0
  134.4168   70.6841  227.7334 H   0  0  0  0  0  0  0  0  0  0  0  0
  132.7698   70.3205  227.2581 H   0  0  0  0  0  0  0  0  0  0  0  0
  134.6502   68.4860  226.7982 H   0  0  0  0  0  0  0  0  0  0  0  0
  133.5392   68.7759  225.4859 H   0  0  0  0  0  0  0  0  0  0  0  0
  136.3465   69.8907  225.9361 H   0  0  0  0  0  0  0  0  0  0  0  0
  134.2702   66.7291  222.1626 H   0  0  0  0  0  0  0  0  0  0  0  0
  136.3981   67.0140  220.9188 H   0  0  0  0  0  0  0  0  0  0  0  0
  138.0571   68.6606  221.7889 H   0  0  0  0  0  0  0  0  0  0  0  0
  138.2444   71.7767  220.0980 H   0  0  0  0  0  0  0  0  0  0  0  0
  138.7638   73.3162  220.8493 H   0  0  0  0  0  0  0  0  0  0  0  0
  137.8890   70.9090  222.5010 H   0  0  0  0  0  0  0  0  0  0  0  0
  141.1596   72.8986  224.9334 H   0  0  0  0  0  0  0  0  0  0  0  0
  141.7454   71.7014  227.0154 H   0  0  0  0  0  0  0  0  0  0  0  0
  141.5323   69.7856  228.3745 H   0  0  0  0  0  0  0  0  0  0  0  0
  140.5837   67.5114  228.7805 H   0  0  0  0  0  0  0  0  0  0  0  0
  139.0781   66.5186  227.0688 H   0  0  0  0  0  0  0  0  0  0  0  0
  138.5137   67.7423  225.0011 H   0  0  0  0  0  0  0  0  0  0  0  0
  1  2  1  0
  2  3  1  0
  3  4  1  0
  4  5  2  0
  4  6  1  0
  6  7  1  0
  7  8  1  0
  8  9  1  0
  9 10  1  0
 10 11  1  0
 11 12  2  0
 12 13  1  0
 13 14  2  0
 14 15  1  0
 15 16  2  0
  2 17  1  0
 17 18  2  0
 17 19  1  0
 19 20  1  0
 20 21  1  0
 21 22  2  0
 21 23  1  0
 23 24  2  0
 24 25  1  0
 25 26  2  0
 26 27  1  0
 27 28  2  0
 28 29  1  0
 29 30  2  0
 30 31  1  0
 31 32  2  0
 10  6  1  0
 16 11  1  0
 32 23  1  0
 31 26  1  0
  1 33  1  0
  1 34  1  0
  1 35  1  0
  3 36  1  0
  3 37  1  0
  7 38  1  0
  7 39  1  0
  8 40  1  0
  8 41  1  0
  9 42  1  0
  9 43  1  0
 10 44  1  1
 13 45  1  0
 14 46  1  0
 15 47  1  0
 19 48  1  0
 19 49  1  0
 20 50  1  0
 24 51  1  0
 25 52  1  0
 27 53  1  0
 28 54  1  0
 29 55  1  0
 30 56  1  0
M  END
>  <smiles>  (35) 
CN(CC(=O)N1CCC[C@H]1c1ncccn1)C(=O)CNC(=O)c1ccc2ccccc2n1

>  <score_type>  (35) 
oracle

>  <origin>  (35) 
autodockgpu

>  <m_score__min__energy>  (35) 
-8.3200000000000003

>  <m_primary>  (35) 
energy

>  <rmsd>  (35) 
7.226173794911861

>  <m_score__min__rmsd>  (35) 
7.226173794911861

>  <meeko>  (35) 
{"free_energy": -5.91, "intermolecular_energy": -8.3, "internal_energy": -4.58, "cluster_size": 1, "cluster_id": 6, "rank_in_cluster": 1}

>  <energy>  (35) 
-7.84

>  <cluster_rmsd>  (35) 
1.65

>  <cluster>  (35) 
2

$$$$

     RDKit          3D

 56 59  0  0  0  0  0  0  0  0999 V2000
  141.9840   76.4130  220.1060 C   0  0  0  0  0  0  0  0  0  0  0  0
  140.6100   76.6140  220.5910 N   0  0  0  0  0  0  0  0  0  0  0  0
  139.8150   77.7110  220.1670 C   0  0  0  0  0  0  0  0  0  0  0  0
  139.8110   78.8710  221.0460 C   0  0  0  0  0  0  0  0  0  0  0  0
  138.7690   79.6300  220.8950 O   0  0  0  0  0  0  0  0  0  0  0  0
  140.7280   79.3090  222.0190 N   0  0  0  0  0  0  0  0  0  0  0  0
  141.1860   78.6730  223.2450 C   0  0  0  0  0  0  0  0  0  0  0  0
  142.1880   79.6590  223.8480 C   0  0  0  0  0  0  0  0  0  0  0  0
  142.6580   80.4430  222.6570 C   0  0  0  0  0  0  0  0  0  0  0  0
  141.3980   80.6200  221.8860 C   0  0  1  0  0  0  0  0  0  0  0  0
  141.6730   80.8130  220.4340 C   0  0  0  0  0  0  0  0  0  0  0  0
  142.1830   79.7990  219.6800 N   0  0  0  0  0  0  0  0  0  0  0  0
  142.4370   79.9570  218.3680 C   0  0  0  0  0  0  0  0  0  0  0  0
  142.1880   81.1460  217.7540 C   0  0  0  0  0  0  0  0  0  0  0  0
  141.6670   82.1680  218.5390 C   0  0  0  0  0  0  0  0  0  0  0  0
  141.4140   82.0090  219.8510 N   0  0  0  0  0  0  0  0  0  0  0  0
  140.1160   75.6170  221.4840 C   0  0  0  0  0  0  0  0  0  0  0  0
  139.7450   75.9850  222.6400 O   0  0  0  0  0  0  0  0  0  0  0  0
  140.0130   74.1870  221.1330 C   0  0  0  0  0  0  0  0  0  0  0  0
  139.9340   73.4170  222.3540 N   0  0  0  0  0  0  0  0  0  0  0  0
  140.3330   72.0580  222.3970 C   0  0  0  0  0  0  0  0  0  0  0  0
  140.7770   71.4630  221.3570 O   0  0  0  0  0  0  0  0  0  0  0  0
  140.2270   71.3240  223.6760 C   0  0  0  0  0  0  0  0  0  0  0  0
  139.6470   70.0620  223.6680 C   0  0  0  0  0  0  0  0  0  0  0  0
  139.5170   69.3270  224.8100 C   0  0  0  0  0  0  0  0  0  0  0  0
  139.9870   69.8850  225.9840 C   0  0  0  0  0  0  0  0  0  0  0  0
  139.8600   69.1470  227.1460 C   0  0  0  0  0  0  0  0  0  0  0  0
  140.3180   69.6760  228.3320 C   0  0  0  0  0  0  0  0  0  0  0  0
  140.8920   70.9370  228.3120 C   0  0  0  0  0  0  0  0  0  0  0  0
  141.0120   71.6620  227.1370 C   0  0  0  0  0  0  0  0  0  0  0  0
  140.5560   71.1400  225.9450 C   0  0  0  0  0  0  0  0  0  0  0  0
  140.6820   71.8620  224.8170 N   0  0  0  0  0  0  0  0  0  0  0  0
  142.6649   76.3134  220.9642 H   0  0  0  0  0  0  0  0  0  0  0  0
  142.0273   75.4990  219.4956 H   0  0  0  0  0  0  0  0  0  0  0  0
  142.2873   77.2763  219.4956 H   0  0  0  0  0  0  0  0  0  0  0  0
  140.1852   78.0350  219.1832 H   0  0  0  0  0  0  0  0  0  0  0  0
  138.7790   77.3414  220.1575 H   0  0  0  0  0  0  0  0  0  0  0  0
  140.3440   78.5072  223.9331 H   0  0  0  0  0  0  0  0  0  0  0  0
  141.6363   77.6871  223.0573 H   0  0  0  0  0  0  0  0  0  0  0  0
  141.7012   80.3149  224.5847 H   0  0  0  0  0  0  0  0  0  0  0  0
  143.0078   79.1638  224.3890 H   0  0  0  0  0  0  0  0  0  0  0  0
  143.0815   81.4124  222.9585 H   0  0  0  0  0  0  0  0  0  0  0  0
  143.4597   79.9485  222.0889 H   0  0  0  0  0  0  0  0  0  0  0  0
  140.8259   81.4870  222.2482 H   0  0  0  0  0  0  0  0  0  0  0  0
  142.8491   79.1187  217.7871 H   0  0  0  0  0  0  0  0  0  0  0  0
  142.3904   81.2919  216.6827 H   0  0  0  0  0  0  0  0  0  0  0  0
  141.4541   83.1406  218.0714 H   0  0  0  0  0  0  0  0  0  0  0  0
  139.1093   74.0178  220.5290 H   0  0  0  0  0  0  0  0  0  0  0  0
  140.8937   73.8786  220.5505 H   0  0  0  0  0  0  0  0  0  0  0  0
  139.5760   73.8580  223.2380 H   0  0  0  0  0  0  0  0  0  0  0  0
  139.2835   69.6448  222.7173 H   0  0  0  0  0  0  0  0  0  0  0  0
  139.0558   68.3285  224.7970 H   0  0  0  0  0  0  0  0  0  0  0  0
  139.3984   68.1488  227.1235 H   0  0  0  0  0  0  0  0  0  0  0  0
  140.2303   69.1115  229.2720 H   0  0  0  0  0  0  0  0  0  0  0  0
  141.2615   71.3733  229.2518 H   0  0  0  0  0  0  0  0  0  0  0  0
  141.4739   72.6601  227.1554 H   0  0  0  0  0  0  0  0  0  0  0  0
  1  2  1  0
  2  3  1  0
  3  4  1  0
  4  5  2  0
  4  6  1  0
  6  7  1  0
  7  8  1  0
  8  9  1  0
  9 10  1  0
 10 11  1  0
 11 12  2  0
 12 13  1  0
 13 14  2  0
 14 15  1  0
 15 16  2  0
  2 17  1  0
 17 18  2  0
 17 19  1  0
 19 20  1  0
 20 21  1  0
 21 22  2  0
 21 23  1  0
 23 24  2  0
 24 25  1  0
 25 26  2  0
 26 27  1  0
 27 28  2  0
 28 29  1  0
 29 30  2  0
 30 31  1  0
 31 32  2  0
 10  6  1  0
 16 11  1  0
 32 23  1  0
 31 26  1  0
  1 33  1  0
  1 34  1  0
  1 35  1  0
  3 36  1  0
  3 37  1  0
  7 38  1  0
  7 39  1  0
  8 40  1  0
  8 41  1  0
  9 42  1  0
  9 43  1  0
 10 44  1  1
 13 45  1  0
 14 46  1  0
 15 47  1  0
 19 48  1  0
 19 49  1  0
 20 50  1  0
 24 51  1  0
 25 52  1  0
 27 53  1  0
 28 54  1  0
 29 55  1  0
 30 56  1  0
M  END
>  <smiles>  (36) 
CN(CC(=O)N1CCC[C@H]1c1ncccn1)C(=O)CNC(=O)c1ccc2ccccc2n1

>  <score_type>  (36) 
oracle

>  <origin>  (36) 
autodockgpu

>  <m_score__min__energy>  (36) 
-8.3200000000000003

>  <m_primary>  (36) 
energy

>  <rmsd>  (36) 
2.393291640164821

>  <m_score__min__rmsd>  (36) 
2.393291640164821

>  <meeko>  (36) 
{"free_energy": -8.32, "intermolecular_energy": -10.7, "internal_energy": -2.68, "cluster_size": 22, "cluster_id": 1, "rank_in_cluster": 1}

>  <energy>  (36) 
-7.83

>  <cluster_rmsd>  (36) 
1.64

>  <cluster>  (36) 
2

$$$$

     RDKit          3D

 56 59  0  0  0  0  0  0  0  0999 V2000
  138.9380   76.0170  219.0130 C   0  0  0  0  0  0  0  0  0  0  0  0
  139.8460   76.2190  220.1520 N   0  0  0  0  0  0  0  0  0  0  0  0
  140.7700   77.2950  220.1960 C   0  0  0  0  0  0  0  0  0  0  0  0
  140.3900   78.4260  221.0300 C   0  0  0  0  0  0  0  0  0  0  0  0
  139.1790   78.8410  220.8140 O   0  0  0  0  0  0  0  0  0  0  0  0
  141.0950   79.1400  222.0150 N   0  0  0  0  0  0  0  0  0  0  0  0
  141.7550   78.6830  223.2280 C   0  0  0  0  0  0  0  0  0  0  0  0
  142.3430   79.9480  223.8560 C   0  0  0  0  0  0  0  0  0  0  0  0
  142.4990   80.8730  222.6840 C   0  0  0  0  0  0  0  0  0  0  0  0
  141.2550   80.6060  221.9130 C   0  0  1  0  0  0  0  0  0  0  0  0
  141.4370   80.9160  220.4660 C   0  0  0  0  0  0  0  0  0  0  0  0
  142.2320   80.1360  219.6800 N   0  0  0  0  0  0  0  0  0  0  0  0
  142.4060   80.4010  218.3730 C   0  0  0  0  0  0  0  0  0  0  0  0
  141.7860   81.4670  217.7950 C   0  0  0  0  0  0  0  0  0  0  0  0
  140.9790   82.2510  218.6120 C   0  0  0  0  0  0  0  0  0  0  0  0
  140.8060   81.9840  219.9190 N   0  0  0  0  0  0  0  0  0  0  0  0
  139.7120   75.2870  221.2240 C   0  0  0  0  0  0  0  0  0  0  0  0
  139.8600   75.7180  222.4080 O   0  0  0  0  0  0  0  0  0  0  0  0
  139.4100   73.8560  221.0280 C   0  0  0  0  0  0  0  0  0  0  0  0
  139.5890   73.1690  222.2870 N   0  0  0  0  0  0  0  0  0  0  0  0
  139.7070   71.7590  222.3480 C   0  0  0  0  0  0  0  0  0  0  0  0
  139.6610   71.0410  221.2910 O   0  0  0  0  0  0  0  0  0  0  0  0
  139.8890   71.1150  223.6670 C   0  0  0  0  0  0  0  0  0  0  0  0
  139.5470   69.7750  223.8020 C   0  0  0  0  0  0  0  0  0  0  0  0
  139.6870   69.1170  224.9880 C   0  0  0  0  0  0  0  0  0  0  0  0
  140.1870   69.8330  226.0590 C   0  0  0  0  0  0  0  0  0  0  0  0
  140.3340   69.1730  227.2650 C   0  0  0  0  0  0  0  0  0  0  0  0
  140.8290   69.8590  228.3510 C   0  0  0  0  0  0  0  0  0  0  0  0
  141.1630   71.1950  228.1900 C   0  0  0  0  0  0  0  0  0  0  0  0
  141.0100   71.8390  226.9730 C   0  0  0  0  0  0  0  0  0  0  0  0
  140.5140   71.1600  225.8790 C   0  0  0  0  0  0  0  0  0  0  0  0
  140.3730   71.8060  224.7090 N   0  0  0  0  0  0  0  0  0  0  0  0
  137.9275   75.7922  219.3850 H   0  0  0  0  0  0  0  0  0  0  0  0
  138.9086   76.9306  218.4010 H   0  0  0  0  0  0  0  0  0  0  0  0
  139.2987   75.1771  218.4010 H   0  0  0  0  0  0  0  0  0  0  0  0
  141.7257   76.9032  220.5745 H   0  0  0  0  0  0  0  0  0  0  0  0
  140.8204   77.6861  219.1691 H   0  0  0  0  0  0  0  0  0  0  0  0
  141.0305   78.2133  223.9095 H   0  0  0  0  0  0  0  0  0  0  0  0
  142.5262   77.9266  223.0203 H   0  0  0  0  0  0  0  0  0  0  0  0
  141.6574   80.3720  224.6045 H   0  0  0  0  0  0  0  0  0  0  0  0
  143.2873   79.7654  224.3898 H   0  0  0  0  0  0  0  0  0  0  0  0
  142.5513   81.9230  223.0075 H   0  0  0  0  0  0  0  0  0  0  0  0
  143.4219   80.7087  222.1085 H   0  0  0  0  0  0  0  0  0  0  0  0
  140.4135   81.2043  222.2924 H   0  0  0  0  0  0  0  0  0  0  0  0
  143.0542   79.7517  217.7661 H   0  0  0  0  0  0  0  0  0  0  0  0
  141.9180   81.6979  216.7276 H   0  0  0  0  0  0  0  0  0  0  0  0
  140.4645   83.1193  218.1746 H   0  0  0  0  0  0  0  0  0  0  0  0
  138.3705   73.7401  220.6874 H   0  0  0  0  0  0  0  0  0  0  0  0
  140.0836   73.4308  220.2694 H   0  0  0  0  0  0  0  0  0  0  0  0
  139.6340   73.7110  223.1860 H   0  0  0  0  0  0  0  0  0  0  0  0
  139.1535   69.2315  222.9304 H   0  0  0  0  0  0  0  0  0  0  0  0
  139.4124   68.0566  225.0885 H   0  0  0  0  0  0  0  0  0  0  0  0
  140.0586   68.1119  227.3556 H   0  0  0  0  0  0  0  0  0  0  0  0
  140.9564   69.3595  229.3227 H   0  0  0  0  0  0  0  0  0  0  0  0
  141.5588   71.7569  229.0489 H   0  0  0  0  0  0  0  0  0  0  0  0
  141.2860   72.8996  226.8781 H   0  0  0  0  0  0  0  0  0  0  0  0
  1  2  1  0
  2  3  1  0
  3  4  1  0
  4  5  2  0
  4  6  1  0
  6  7  1  0
  7  8  1  0
  8  9  1  0
  9 10  1  0
 10 11  1  0
 11 12  2  0
 12 13  1  0
 13 14  2  0
 14 15  1  0
 15 16  2  0
  2 17  1  0
 17 18  2  0
 17 19  1  0
 19 20  1  0
 20 21  1  0
 21 22  2  0
 21 23  1  0
 23 24  2  0
 24 25  1  0
 25 26  2  0
 26 27  1  0
 27 28  2  0
 28 29  1  0
 29 30  2  0
 30 31  1  0
 31 32  2  0
 10  6  1  0
 16 11  1  0
 32 23  1  0
 31 26  1  0
  1 33  1  0
  1 34  1  0
  1 35  1  0
  3 36  1  0
  3 37  1  0
  7 38  1  0
  7 39  1  0
  8 40  1  0
  8 41  1  0
  9 42  1  0
  9 43  1  0
 10 44  1  1
 13 45  1  0
 14 46  1  0
 15 47  1  0
 19 48  1  0
 19 49  1  0
 20 50  1  0
 24 51  1  0
 25 52  1  0
 27 53  1  0
 28 54  1  0
 29 55  1  0
 30 56  1  0
M  END
>  <smiles>  (37) 
CN(CC(=O)N1CCC[C@H]1c1ncccn1)C(=O)CNC(=O)c1ccc2ccccc2n1

>  <score_type>  (37) 
oracle

>  <origin>  (37) 
autodockgpu

>  <m_score__min__energy>  (37) 
-8.3200000000000003

>  <m_primary>  (37) 
energy

>  <rmsd>  (37) 
2.0524101350156023

>  <m_score__min__rmsd>  (37) 
2.0524101350156023

>  <meeko>  (37) 
{"free_energy": -7.94, "intermolecular_energy": -10.33, "internal_energy": -2.59, "cluster_size": 22, "cluster_id": 1, "rank_in_cluster": 11}

>  <energy>  (37) 
-7.73

>  <cluster_rmsd>  (37) 
1.54

>  <cluster>  (37) 
2

$$$$

     RDKit          3D

 56 59  0  0  0  0  0  0  0  0999 V2000
  142.0330   76.3570  220.0490 C   0  0  0  0  0  0  0  0  0  0  0  0
  140.6850   76.5990  220.5840 N   0  0  0  0  0  0  0  0  0  0  0  0
  139.9090   77.7200  220.1910 C   0  0  0  0  0  0  0  0  0  0  0  0
  139.8310   78.8090  221.1550 C   0  0  0  0  0  0  0  0  0  0  0  0
  138.6890   79.4260  221.1450 O   0  0  0  0  0  0  0  0  0  0  0  0
  140.7640   79.3020  222.0840 N   0  0  0  0  0  0  0  0  0  0  0  0
  141.2700   78.7250  223.3200 C   0  0  0  0  0  0  0  0  0  0  0  0
  142.2660   79.7550  223.8560 C   0  0  0  0  0  0  0  0  0  0  0  0
  142.6870   80.5000  222.6220 C   0  0  0  0  0  0  0  0  0  0  0  0
  141.4020   80.6210  221.8810 C   0  0  1  0  0  0  0  0  0  0  0  0
  141.6330   80.7620  220.4150 C   0  0  0  0  0  0  0  0  0  0  0  0
  142.1860   79.7460  219.6950 N   0  0  0  0  0  0  0  0  0  0  0  0
  142.4010   79.8570  218.3720 C   0  0  0  0  0  0  0  0  0  0  0  0
  142.0680   81.0000  217.7110 C   0  0  0  0  0  0  0  0  0  0  0  0
  141.5040   82.0260  218.4620 C   0  0  0  0  0  0  0  0  0  0  0  0
  141.2900   81.9130  219.7850 N   0  0  0  0  0  0  0  0  0  0  0  0
  140.1940   75.6150  221.4940 C   0  0  0  0  0  0  0  0  0  0  0  0
  139.8810   75.9920  222.6640 O   0  0  0  0  0  0  0  0  0  0  0  0
  140.0300   74.1910  221.1450 C   0  0  0  0  0  0  0  0  0  0  0  0
  139.9300   73.4250  222.3670 N   0  0  0  0  0  0  0  0  0  0  0  0
  140.3110   72.0610  222.4160 C   0  0  0  0  0  0  0  0  0  0  0  0
  140.7570   71.4580  221.3810 O   0  0  0  0  0  0  0  0  0  0  0  0
  140.1840   71.3310  223.6950 C   0  0  0  0  0  0  0  0  0  0  0  0
  139.5800   70.0810  223.6870 C   0  0  0  0  0  0  0  0  0  0  0  0
  139.4290   69.3510  224.8290 C   0  0  0  0  0  0  0  0  0  0  0  0
  139.9040   69.9010  226.0050 C   0  0  0  0  0  0  0  0  0  0  0  0
  139.7560   69.1680  227.1680 C   0  0  0  0  0  0  0  0  0  0  0  0
  140.2190   69.6900  228.3550 C   0  0  0  0  0  0  0  0  0  0  0  0
  140.8180   70.9390  228.3360 C   0  0  0  0  0  0  0  0  0  0  0  0
  140.9580   71.6600  227.1600 C   0  0  0  0  0  0  0  0  0  0  0  0
  140.4980   71.1450  225.9660 C   0  0  0  0  0  0  0  0  0  0  0  0
  140.6440   71.8620  224.8380 N   0  0  0  0  0  0  0  0  0  0  0  0
  142.7406   76.2300  220.8816 H   0  0  0  0  0  0  0  0  0  0  0  0
  142.0248   75.4460  219.4326 H   0  0  0  0  0  0  0  0  0  0  0  0
  142.3422   77.2140  219.4326 H   0  0  0  0  0  0  0  0  0  0  0  0
  140.3426   78.1215  219.2632 H   0  0  0  0  0  0  0  0  0  0  0  0
  138.8804   77.3461  220.0804 H   0  0  0  0  0  0  0  0  0  0  0  0
  140.4512   78.5684  224.0377 H   0  0  0  0  0  0  0  0  0  0  0  0
  141.7372   77.7425  223.1577 H   0  0  0  0  0  0  0  0  0  0  0  0
  141.7847   80.4298  224.5792 H   0  0  0  0  0  0  0  0  0  0  0  0
  143.1104   79.2992  224.3937 H   0  0  0  0  0  0  0  0  0  0  0  0
  143.0985   81.4888  222.8728 H   0  0  0  0  0  0  0  0  0  0  0  0
  143.4830   79.9993  222.0512 H   0  0  0  0  0  0  0  0  0  0  0  0
  140.8215   81.4896  222.2253 H   0  0  0  0  0  0  0  0  0  0  0  0
  142.8493   79.0180  217.8196 H   0  0  0  0  0  0  0  0  0  0  0  0
  142.2377   81.1073  216.6295 H   0  0  0  0  0  0  0  0  0  0  0  0
  141.2234   82.9618  217.9566 H   0  0  0  0  0  0  0  0  0  0  0  0
  139.1151   74.0586  220.5488 H   0  0  0  0  0  0  0  0  0  0  0  0
  140.8925   73.8469  220.5554 H   0  0  0  0  0  0  0  0  0  0  0  0
  139.5690   73.8720  223.2460 H   0  0  0  0  0  0  0  0  0  0  0  0
  139.2138   69.6688  222.7351 H   0  0  0  0  0  0  0  0  0  0  0  0
  138.9475   68.3621  224.8149 H   0  0  0  0  0  0  0  0  0  0  0  0
  139.2740   68.1795  227.1452 H   0  0  0  0  0  0  0  0  0  0  0  0
  140.1158   69.1289  229.2955 H   0  0  0  0  0  0  0  0  0  0  0  0
  141.1917   71.3692  229.2769 H   0  0  0  0  0  0  0  0  0  0  0  0
  141.4390   72.6491  227.1794 H   0  0  0  0  0  0  0  0  0  0  0  0
  1  2  1  0
  2  3  1  0
  3  4  1  0
  4  5  2  0
  4  6  1  0
  6  7  1  0
  7  8  1  0
  8  9  1  0
  9 10  1  0
 10 11  1  0
 11 12  2  0
 12 13  1  0
 13 14  2  0
 14 15  1  0
 15 16  2  0
  2 17  1  0
 17 18  2  0
 17 19  1  0
 19 20  1  0
 20 21  1  0
 21 22  2  0
 21 23  1  0
 23 24  2  0
 24 25  1  0
 25 26  2  0
 26 27  1  0
 27 28  2  0
 28 29  1  0
 29 30  2  0
 30 31  1  0
 31 32  2  0
 10  6  1  0
 16 11  1  0
 32 23  1  0
 31 26  1  0
  1 33  1  0
  1 34  1  0
  1 35  1  0
  3 36  1  0
  3 37  1  0
  7 38  1  0
  7 39  1  0
  8 40  1  0
  8 41  1  0
  9 42  1  0
  9 43  1  0
 10 44  1  1
 13 45  1  0
 14 46  1  0
 15 47  1  0
 19 48  1  0
 19 49  1  0
 20 50  1  0
 24 51  1  0
 25 52  1  0
 27 53  1  0
 28 54  1  0
 29 55  1  0
 30 56  1  0
M  END
>  <smiles>  (38) 
CN(CC(=O)N1CCC[C@H]1c1ncccn1)C(=O)CNC(=O)c1ccc2ccccc2n1

>  <score_type>  (38) 
oracle

>  <origin>  (38) 
autodockgpu

>  <m_score__min__energy>  (38) 
-8.3200000000000003

>  <m_primary>  (38) 
energy

>  <rmsd>  (38) 
2.3901626192941836

>  <m_score__min__rmsd>  (38) 
2.3901626192941836

>  <meeko>  (38) 
{"free_energy": -8.29, "intermolecular_energy": -10.68, "internal_energy": -2.68, "cluster_size": 22, "cluster_id": 1, "rank_in_cluster": 3}

>  <energy>  (38) 
-7.72

>  <cluster_rmsd>  (38) 
1.64

>  <cluster>  (38) 
2

$$$$

     RDKit          3D

 56 59  0  0  0  0  0  0  0  0999 V2000
  138.0090   76.1720  220.2280 C   0  0  0  0  0  0  0  0  0  0  0  0
  139.3100   76.3330  220.8950 N   0  0  0  0  0  0  0  0  0  0  0  0
  139.9920   77.5770  220.9240 C   0  0  0  0  0  0  0  0  0  0  0  0
  140.1810   78.1680  222.2410 C   0  0  0  0  0  0  0  0  0  0  0  0
  139.2860   77.7990  223.1050 O   0  0  0  0  0  0  0  0  0  0  0  0
  141.1520   79.0570  222.7360 N   0  0  0  0  0  0  0  0  0  0  0  0
  142.5510   79.2330  222.3730 C   0  0  0  0  0  0  0  0  0  0  0  0
  143.0490   80.3660  223.2710 C   0  0  0  0  0  0  0  0  0  0  0  0
  141.7940   81.1200  223.6020 C   0  0  0  0  0  0  0  0  0  0  0  0
  140.8170   80.0180  223.8080 C   0  0  1  0  0  0  0  0  0  0  0  0
  139.4210   80.4740  223.5500 C   0  0  0  0  0  0  0  0  0  0  0  0
  138.4250   80.2100  224.4410 N   0  0  0  0  0  0  0  0  0  0  0  0
  137.1610   80.6150  224.2240 C   0  0  0  0  0  0  0  0  0  0  0  0
  136.8410   81.3060  223.0960 C   0  0  0  0  0  0  0  0  0  0  0  0
  137.8700   81.5670  222.1980 C   0  0  0  0  0  0  0  0  0  0  0  0
  139.1340   81.1620  222.4170 N   0  0  0  0  0  0  0  0  0  0  0  0
  139.8230   75.1690  221.5400 C   0  0  0  0  0  0  0  0  0  0  0  0
  140.8030   75.3120  222.3330 O   0  0  0  0  0  0  0  0  0  0  0  0
  139.2760   73.8140  221.3340 C   0  0  0  0  0  0  0  0  0  0  0  0
  139.4980   73.0390  222.5340 N   0  0  0  0  0  0  0  0  0  0  0  0
  139.3010   71.6360  222.5540 C   0  0  0  0  0  0  0  0  0  0  0  0
  138.9200   71.0040  221.5100 O   0  0  0  0  0  0  0  0  0  0  0  0
  139.5450   70.8990  223.8120 C   0  0  0  0  0  0  0  0  0  0  0  0
  139.1860   69.5580  223.8740 C   0  0  0  0  0  0  0  0  0  0  0  0
  139.3820   68.8170  225.0020 C   0  0  0  0  0  0  0  0  0  0  0  0
  139.9550   69.4490  226.0900 C   0  0  0  0  0  0  0  0  0  0  0  0
  140.1570   68.7040  227.2370 C   0  0  0  0  0  0  0  0  0  0  0  0
  140.7250   69.3060  228.3370 C   0  0  0  0  0  0  0  0  0  0  0  0
  141.0740   70.6440  228.2490 C   0  0  0  0  0  0  0  0  0  0  0  0
  140.8640   71.3750  227.0900 C   0  0  0  0  0  0  0  0  0  0  0  0
  140.2950   70.7800  225.9830 C   0  0  0  0  0  0  0  0  0  0  0  0
  140.1000   71.5090  224.8700 N   0  0  0  0  0  0  0  0  0  0  0  0
  137.2179   76.0741  220.9860 H   0  0  0  0  0  0  0  0  0  0  0  0
  137.8077   77.0521  219.5996 H   0  0  0  0  0  0  0  0  0  0  0  0
  138.0284   75.2694  219.5996 H   0  0  0  0  0  0  0  0  0  0  0  0
  140.9855   77.4272  220.4761 H   0  0  0  0  0  0  0  0  0  0  0  0
  139.3519   78.2803  220.3712 H   0  0  0  0  0  0  0  0  0  0  0  0
  143.1193   78.3104  222.5623 H   0  0  0  0  0  0  0  0  0  0  0  0
  142.6765   79.4645  221.3050 H   0  0  0  0  0  0  0  0  0  0  0  0
  143.5219   79.9687  224.1812 H   0  0  0  0  0  0  0  0  0  0  0  0
  143.8139   80.9929  222.7894 H   0  0  0  0  0  0  0  0  0  0  0  0
  141.9176   81.7206  224.5153 H   0  0  0  0  0  0  0  0  0  0  0  0
  141.4926   81.8413  222.8281 H   0  0  0  0  0  0  0  0  0  0  0  0
  140.8691   79.6253  224.8342 H   0  0  0  0  0  0  0  0  0  0  0  0
  136.3799   80.3860  224.9639 H   0  0  0  0  0  0  0  0  0  0  0  0
  135.8121   81.6437  222.9029 H   0  0  0  0  0  0  0  0  0  0  0  0
  137.6427   82.1237  221.2769 H   0  0  0  0  0  0  0  0  0  0  0  0
  138.1973   73.8773  221.1281 H   0  0  0  0  0  0  0  0  0  0  0  0
  139.7746   73.3337  220.4792 H   0  0  0  0  0  0  0  0  0  0  0  0
  139.8130   73.5090  223.4200 H   0  0  0  0  0  0  0  0  0  0  0  0
  138.7327   69.0825  222.9917 H   0  0  0  0  0  0  0  0  0  0  0  0
  139.0949   67.7560  225.0446 H   0  0  0  0  0  0  0  0  0  0  0  0
  139.8674   67.6433  227.2702 H   0  0  0  0  0  0  0  0  0  0  0  0
  140.8976   68.7386  229.2634 H   0  0  0  0  0  0  0  0  0  0  0  0
  141.5288   71.1383  229.1201 H   0  0  0  0  0  0  0  0  0  0  0  0
  141.1528   72.4358  227.0528 H   0  0  0  0  0  0  0  0  0  0  0  0
  1  2  1  0
  2  3  1  0
  3  4  1  0
  4  5  2  0
  4  6  1  0
  6  7  1  0
  7  8  1  0
  8  9  1  0
  9 10  1  0
 10 11  1  0
 11 12  2  0
 12 13  1  0
 13 14  2  0
 14 15  1  0
 15 16  2  0
  2 17  1  0
 17 18  2  0
 17 19  1  0
 19 20  1  0
 20 21  1  0
 21 22  2  0
 21 23  1  0
 23 24  2  0
 24 25  1  0
 25 26  2  0
 26 27  1  0
 27 28  2  0
 28 29  1  0
 29 30  2  0
 30 31  1  0
 31 32  2  0
 10  6  1  0
 16 11  1  0
 32 23  1  0
 31 26  1  0
  1 33  1  0
  1 34  1  0
  1 35  1  0
  3 36  1  0
  3 37  1  0
  7 38  1  0
  7 39  1  0
  8 40  1  0
  8 41  1  0
  9 42  1  0
  9 43  1  0
 10 44  1  1
 13 45  1  0
 14 46  1  0
 15 47  1  0
 19 48  1  0
 19 49  1  0
 20 50  1  0
 24 51  1  0
 25 52  1  0
 27 53  1  0
 28 54  1  0
 29 55  1  0
 30 56  1  0
M  END
>  <smiles>  (39) 
CN(CC(=O)N1CCC[C@H]1c1ncccn1)C(=O)CNC(=O)c1ccc2ccccc2n1

>  <score_type>  (39) 
oracle

>  <origin>  (39) 
autodockgpu

>  <m_score__min__energy>  (39) 
-8.3200000000000003

>  <m_primary>  (39) 
energy

>  <rmsd>  (39) 
2.096624190726739

>  <m_score__min__rmsd>  (39) 
2.096624190726739

>  <meeko>  (39) 
{"free_energy": -8.15, "intermolecular_energy": -10.53, "internal_energy": -2.39, "cluster_size": 19, "cluster_id": 2, "rank_in_cluster": 1}

>  <energy>  (39) 
-7.65

>  <cluster_rmsd>  (39) 
1.77

>  <cluster>  (39) 
2

$$$$

     RDKit          3D

 56 59  0  0  0  0  0  0  0  0999 V2000
  139.5100   75.9810  219.0490 C   0  0  0  0  0  0  0  0  0  0  0  0
  140.4840   76.1110  220.1420 N   0  0  0  0  0  0  0  0  0  0  0  0
  141.4690   77.1340  220.1560 C   0  0  0  0  0  0  0  0  0  0  0  0
  141.0570   78.4070  220.7290 C   0  0  0  0  0  0  0  0  0  0  0  0
  140.0650   78.9580  220.0990 O   0  0  0  0  0  0  0  0  0  0  0  0
  141.5390   79.1350  221.8320 N   0  0  0  0  0  0  0  0  0  0  0  0
  142.5720   80.1550  221.9170 C   0  0  0  0  0  0  0  0  0  0  0  0
  142.6090   80.5550  223.3930 C   0  0  0  0  0  0  0  0  0  0  0  0
  141.2340   80.1990  223.8800 C   0  0  0  0  0  0  0  0  0  0  0  0
  140.9840   78.9080  223.1830 C   0  0  1  0  0  0  0  0  0  0  0  0
  139.5250   78.6580  223.0100 C   0  0  0  0  0  0  0  0  0  0  0  0
  138.6300   79.6840  223.0690 N   0  0  0  0  0  0  0  0  0  0  0  0
  137.3100   79.4770  222.9150 C   0  0  0  0  0  0  0  0  0  0  0  0
  136.8290   78.2220  222.6930 C   0  0  0  0  0  0  0  0  0  0  0  0
  137.7570   77.1880  222.6350 C   0  0  0  0  0  0  0  0  0  0  0  0
  139.0760   77.3980  222.7900 N   0  0  0  0  0  0  0  0  0  0  0  0
  140.3530   75.1680  221.2050 C   0  0  0  0  0  0  0  0  0  0  0  0
  140.9240   75.4310  222.3070 O   0  0  0  0  0  0  0  0  0  0  0  0
  139.5900   73.9110  221.0900 C   0  0  0  0  0  0  0  0  0  0  0  0
  139.6990   73.1880  222.3370 N   0  0  0  0  0  0  0  0  0  0  0  0
  139.6820   71.7720  222.3730 C   0  0  0  0  0  0  0  0  0  0  0  0
  139.5700   71.0810  221.3040 O   0  0  0  0  0  0  0  0  0  0  0  0
  139.7970   71.0910  223.6800 C   0  0  0  0  0  0  0  0  0  0  0  0
  139.3330   69.7860  223.7900 C   0  0  0  0  0  0  0  0  0  0  0  0
  139.4070   69.0960  224.9640 C   0  0  0  0  0  0  0  0  0  0  0  0
  139.9640   69.7450  226.0510 C   0  0  0  0  0  0  0  0  0  0  0  0
  140.0440   69.0520  227.2450 C   0  0  0  0  0  0  0  0  0  0  0  0
  140.5940   69.6710  228.3450 C   0  0  0  0  0  0  0  0  0  0  0  0
  141.0490   70.9730  228.2090 C   0  0  0  0  0  0  0  0  0  0  0  0
  140.9620   71.6510  227.0030 C   0  0  0  0  0  0  0  0  0  0  0  0
  140.4120   71.0390  225.8960 C   0  0  0  0  0  0  0  0  0  0  0  0
  140.3370   71.7170  224.7370 N   0  0  0  0  0  0  0  0  0  0  0  0
  138.5026   75.8465  219.4697 H   0  0  0  0  0  0  0  0  0  0  0  0
  139.5304   76.8898  218.4296 H   0  0  0  0  0  0  0  0  0  0  0  0
  139.7681   75.1093  218.4296 H   0  0  0  0  0  0  0  0  0  0  0  0
  142.3284   76.7661  220.7357 H   0  0  0  0  0  0  0  0  0  0  0  0
  141.6955   77.3429  219.1000 H   0  0  0  0  0  0  0  0  0  0  0  0
  143.5443   79.7485  221.6016 H   0  0  0  0  0  0  0  0  0  0  0  0
  142.3626   81.0124  221.2605 H   0  0  0  0  0  0  0  0  0  0  0  0
  143.3790   79.9875  223.9362 H   0  0  0  0  0  0  0  0  0  0  0  0
  142.8597   81.6150  223.5463 H   0  0  0  0  0  0  0  0  0  0  0  0
  141.2170   80.0732  224.9727 H   0  0  0  0  0  0  0  0  0  0  0  0
  140.4766   80.9692  223.6725 H   0  0  0  0  0  0  0  0  0  0  0  0
  141.4154   78.0628  223.7394 H   0  0  0  0  0  0  0  0  0  0  0  0
  136.6140   80.3271  222.9687 H   0  0  0  0  0  0  0  0  0  0  0  0
  135.7527   78.0346  222.5651 H   0  0  0  0  0  0  0  0  0  0  0  0
  137.3998   76.1631  222.4562 H   0  0  0  0  0  0  0  0  0  0  0  0
  138.5333   74.1367  220.8840 H   0  0  0  0  0  0  0  0  0  0  0  0
  139.9920   73.3020  220.2669 H   0  0  0  0  0  0  0  0  0  0  0  0
  139.7930   73.7080  223.2450 H   0  0  0  0  0  0  0  0  0  0  0  0
  138.8947   69.2969  222.9076 H   0  0  0  0  0  0  0  0  0  0  0  0
  139.0378   68.0628  225.0434 H   0  0  0  0  0  0  0  0  0  0  0  0
  139.6728   68.0189  227.3151 H   0  0  0  0  0  0  0  0  0  0  0  0
  140.6704   69.1451  229.3081 H   0  0  0  0  0  0  0  0  0  0  0  0
  141.4900   71.4809  229.0794 H   0  0  0  0  0  0  0  0  0  0  0  0
  141.3339   72.6835  226.9284 H   0  0  0  0  0  0  0  0  0  0  0  0
  1  2  1  0
  2  3  1  0
  3  4  1  0
  4  5  2  0
  4  6  1  0
  6  7  1  0
  7  8  1  0
  8  9  1  0
  9 10  1  0
 10 11  1  0
 11 12  2  0
 12 13  1  0
 13 14  2  0
 14 15  1  0
 15 16  2  0
  2 17  1  0
 17 18  2  0
 17 19  1  0
 19 20  1  0
 20 21  1  0
 21 22  2  0
 21 23  1  0
 23 24  2  0
 24 25  1  0
 25 26  2  0
 26 27  1  0
 27 28  2  0
 28 29  1  0
 29 30  2  0
 30 31  1  0
 31 32  2  0
 10  6  1  0
 16 11  1  0
 32 23  1  0
 31 26  1  0
  1 33  1  0
  1 34  1  0
  1 35  1  0
  3 36  1  0
  3 37  1  0
  7 38  1  0
  7 39  1  0
  8 40  1  0
  8 41  1  0
  9 42  1  0
  9 43  1  0
 10 44  1  1
 13 45  1  0
 14 46  1  0
 15 47  1  0
 19 48  1  0
 19 49  1  0
 20 50  1  0
 24 51  1  0
 25 52  1  0
 27 53  1  0
 28 54  1  0
 29 55  1  0
 30 56  1  0
M  END
>  <smiles>  (40) 
CN(CC(=O)N1CCC[C@H]1c1ncccn1)C(=O)CNC(=O)c1ccc2ccccc2n1

>  <score_type>  (40) 
oracle

>  <origin>  (40) 
autodockgpu

>  <m_score__min__energy>  (40) 
-8.3200000000000003

>  <m_primary>  (40) 
energy

>  <rmsd>  (40) 
1.8024187883865634

>  <m_score__min__rmsd>  (40) 
1.8024187883865634

>  <meeko>  (40) 
{"free_energy": -7.89, "intermolecular_energy": -10.27, "internal_energy": -2.9, "cluster_size": 19, "cluster_id": 2, "rank_in_cluster": 10}

>  <energy>  (40) 
-7.57

>  <cluster_rmsd>  (40) 
1.38

>  <cluster>  (40) 
2

$$$$

     RDKit          3D

 56 59  0  0  0  0  0  0  0  0999 V2000
  141.4260   77.3840  220.9840 C   0  0  0  0  0  0  0  0  0  0  0  0
  139.9760   77.1350  220.9720 N   0  0  0  0  0  0  0  0  0  0  0  0
  139.0720   77.9860  220.2840 C   0  0  0  0  0  0  0  0  0  0  0  0
  138.8710   79.3050  220.8660 C   0  0  0  0  0  0  0  0  0  0  0  0
  139.4380   80.2580  220.1920 O   0  0  0  0  0  0  0  0  0  0  0  0
  138.1780   79.7220  222.0170 N   0  0  0  0  0  0  0  0  0  0  0  0
  136.8560   79.3670  222.5090 C   0  0  0  0  0  0  0  0  0  0  0  0
  136.6980   80.1520  223.8130 C   0  0  0  0  0  0  0  0  0  0  0  0
  138.1170   80.3820  224.2490 C   0  0  0  0  0  0  0  0  0  0  0  0
  138.7920   80.6830  222.9570 C   0  0  1  0  0  0  0  0  0  0  0  0
  140.2450   80.3560  223.0150 C   0  0  0  0  0  0  0  0  0  0  0  0
  141.1570   81.1110  222.3420 N   0  0  0  0  0  0  0  0  0  0  0  0
  142.4720   80.8290  222.3840 C   0  0  0  0  0  0  0  0  0  0  0  0
  142.9290   79.7700  223.1080 C   0  0  0  0  0  0  0  0  0  0  0  0
  141.9840   79.0120  223.7880 C   0  0  0  0  0  0  0  0  0  0  0  0
  140.6690   79.2950  223.7450 N   0  0  0  0  0  0  0  0  0  0  0  0
  139.5420   75.9650  221.6640 C   0  0  0  0  0  0  0  0  0  0  0  0
  138.8720   76.1200  222.7300 O   0  0  0  0  0  0  0  0  0  0  0  0
  139.8310   74.5930  221.2060 C   0  0  0  0  0  0  0  0  0  0  0  0
  139.7460   73.7000  222.3400 N   0  0  0  0  0  0  0  0  0  0  0  0
  140.3180   72.4040  222.3040 C   0  0  0  0  0  0  0  0  0  0  0  0
  140.9300   71.9770  221.2670 O   0  0  0  0  0  0  0  0  0  0  0  0
  140.1970   71.5380  223.4960 C   0  0  0  0  0  0  0  0  0  0  0  0
  139.5720   70.3050  223.3570 C   0  0  0  0  0  0  0  0  0  0  0  0
  139.4250   69.4550  224.4130 C   0  0  0  0  0  0  0  0  0  0  0  0
  139.9240   69.8640  225.6360 C   0  0  0  0  0  0  0  0  0  0  0  0
  139.7800   69.0070  226.7110 C   0  0  0  0  0  0  0  0  0  0  0  0
  140.2670   69.3860  227.9420 C   0  0  0  0  0  0  0  0  0  0  0  0
  140.8870   70.6210  228.0530 C   0  0  0  0  0  0  0  0  0  0  0  0
  141.0230   71.4660  226.9630 C   0  0  0  0  0  0  0  0  0  0  0  0
  140.5370   71.0950  225.7270 C   0  0  0  0  0  0  0  0  0  0  0  0
  140.6800   71.9310  224.6840 N   0  0  0  0  0  0  0  0  0  0  0  0
  141.7790   77.4446  222.0240 H   0  0  0  0  0  0  0  0  0  0  0  0
  141.9435   76.5616  220.4685 H   0  0  0  0  0  0  0  0  0  0  0  0
  141.6395   78.3320  220.4685 H   0  0  0  0  0  0  0  0  0  0  0  0
  139.4514   78.1236  219.2607 H   0  0  0  0  0  0  0  0  0  0  0  0
  138.0939   77.4855  220.3370 H   0  0  0  0  0  0  0  0  0  0  0  0
  136.0818   79.6599  221.7846 H   0  0  0  0  0  0  0  0  0  0  0  0
  136.7482   78.2831  222.6622 H   0  0  0  0  0  0  0  0  0  0  0  0
  136.1793   81.1062  223.6386 H   0  0  0  0  0  0  0  0  0  0  0  0
  136.0959   79.6218  224.5656 H   0  0  0  0  0  0  0  0  0  0  0  0
  138.1888   81.2309  224.9449 H   0  0  0  0  0  0  0  0  0  0  0  0
  138.5574   79.5331  224.7926 H   0  0  0  0  0  0  0  0  0  0  0  0
  138.6871   81.7446  222.6887 H   0  0  0  0  0  0  0  0  0  0  0  0
  143.1833   81.4586  221.8293 H   0  0  0  0  0  0  0  0  0  0  0  0
  144.0005   79.5252  223.1525 H   0  0  0  0  0  0  0  0  0  0  0  0
  142.3224   78.1504  224.3823 H   0  0  0  0  0  0  0  0  0  0  0  0
  139.0964   74.2945  220.4435 H   0  0  0  0  0  0  0  0  0  0  0  0
  140.8387   74.5480  220.7672 H   0  0  0  0  0  0  0  0  0  0  0  0
  139.2530   74.0020  223.2180 H   0  0  0  0  0  0  0  0  0  0  0  0
  139.1863   70.0072  222.3708 H   0  0  0  0  0  0  0  0  0  0  0  0
  138.9281   68.4806  224.2964 H   0  0  0  0  0  0  0  0  0  0  0  0
  139.2824   68.0341  226.5846 H   0  0  0  0  0  0  0  0  0  0  0  0
  140.1666   68.7252  228.8157 H   0  0  0  0  0  0  0  0  0  0  0  0
  141.2806   70.9379  229.0300 H   0  0  0  0  0  0  0  0  0  0  0  0
  141.5218   72.4388  227.0846 H   0  0  0  0  0  0  0  0  0  0  0  0
  1  2  1  0
  2  3  1  0
  3  4  1  0
  4  5  2  0
  4  6  1  0
  6  7  1  0
  7  8  1  0
  8  9  1  0
  9 10  1  0
 10 11  1  0
 11 12  2  0
 12 13  1  0
 13 14  2  0
 14 15  1  0
 15 16  2  0
  2 17  1  0
 17 18  2  0
 17 19  1  0
 19 20  1  0
 20 21  1  0
 21 22  2  0
 21 23  1  0
 23 24  2  0
 24 25  1  0
 25 26  2  0
 26 27  1  0
 27 28  2  0
 28 29  1  0
 29 30  2  0
 30 31  1  0
 31 32  2  0
 10  6  1  0
 16 11  1  0
 32 23  1  0
 31 26  1  0
  1 33  1  0
  1 34  1  0
  1 35  1  0
  3 36  1  0
  3 37  1  0
  7 38  1  0
  7 39  1  0
  8 40  1  0
  8 41  1  0
  9 42  1  0
  9 43  1  0
 10 44  1  6
 13 45  1  0
 14 46  1  0
 15 47  1  0
 19 48  1  0
 19 49  1  0
 20 50  1  0
 24 51  1  0
 25 52  1  0
 27 53  1  0
 28 54  1  0
 29 55  1  0
 30 56  1  0
M  END
>  <smiles>  (41) 
CN(CC(=O)N1CCC[C@H]1c1ncccn1)C(=O)CNC(=O)c1ccc2ccccc2n1

>  <score_type>  (41) 
oracle

>  <origin>  (41) 
autodockgpu

>  <m_score__min__energy>  (41) 
-8.3200000000000003

>  <m_primary>  (41) 
energy

>  <rmsd>  (41) 
2.823018729683263

>  <m_score__min__rmsd>  (41) 
2.823018729683263

>  <meeko>  (41) 
{"free_energy": -7.92, "intermolecular_energy": -10.3, "internal_energy": -2.8, "cluster_size": 22, "cluster_id": 1, "rank_in_cluster": 13}

>  <energy>  (41) 
-7.52

>  <cluster_rmsd>  (41) 
1.67

>  <cluster>  (41) 
2

$$$$

     RDKit          3D

 56 59  0  0  0  0  0  0  0  0999 V2000
  141.9240   76.4530  220.0790 C   0  0  0  0  0  0  0  0  0  0  0  0
  140.5790   76.6620  220.6330 N   0  0  0  0  0  0  0  0  0  0  0  0
  139.7940   77.7970  220.2980 C   0  0  0  0  0  0  0  0  0  0  0  0
  139.7560   78.8600  221.2920 C   0  0  0  0  0  0  0  0  0  0  0  0
  138.6160   79.4780  221.3430 O   0  0  0  0  0  0  0  0  0  0  0  0
  140.7270   79.3290  222.1960 N   0  0  0  0  0  0  0  0  0  0  0  0
  141.2430   78.7420  223.4230 C   0  0  0  0  0  0  0  0  0  0  0  0
  142.2840   79.7420  223.9290 C   0  0  0  0  0  0  0  0  0  0  0  0
  142.6990   80.4670  222.6810 C   0  0  0  0  0  0  0  0  0  0  0  0
  141.4010   80.6250  221.9700 C   0  0  1  0  0  0  0  0  0  0  0  0
  141.6020   80.7510  220.4980 C   0  0  0  0  0  0  0  0  0  0  0  0
  142.1980   79.7530  219.7880 N   0  0  0  0  0  0  0  0  0  0  0  0
  142.3860   79.8510  218.4590 C   0  0  0  0  0  0  0  0  0  0  0  0
  141.9820   80.9620  217.7840 C   0  0  0  0  0  0  0  0  0  0  0  0
  141.3750   81.9690  218.5260 C   0  0  0  0  0  0  0  0  0  0  0  0
  141.1870   81.8690  219.8540 N   0  0  0  0  0  0  0  0  0  0  0  0
  140.0990   75.6350  221.5000 C   0  0  0  0  0  0  0  0  0  0  0  0
  139.6510   75.9770  222.6360 O   0  0  0  0  0  0  0  0  0  0  0  0
  140.0950   74.2030  221.1430 C   0  0  0  0  0  0  0  0  0  0  0  0
  139.9720   73.4260  222.3550 N   0  0  0  0  0  0  0  0  0  0  0  0
  140.4010   72.0760  222.4130 C   0  0  0  0  0  0  0  0  0  0  0  0
  140.9120   71.4970  221.3950 O   0  0  0  0  0  0  0  0  0  0  0  0
  140.2480   71.3340  223.6820 C   0  0  0  0  0  0  0  0  0  0  0  0
  139.6440   70.0830  223.6490 C   0  0  0  0  0  0  0  0  0  0  0  0
  139.4700   69.3420  224.7800 C   0  0  0  0  0  0  0  0  0  0  0  0
  139.9200   69.8810  225.9710 C   0  0  0  0  0  0  0  0  0  0  0  0
  139.7480   69.1350  227.1230 C   0  0  0  0  0  0  0  0  0  0  0  0
  140.1860   69.6450  228.3250 C   0  0  0  0  0  0  0  0  0  0  0  0
  140.7850   70.8950  228.3310 C   0  0  0  0  0  0  0  0  0  0  0  0
  140.9500   71.6270  227.1660 C   0  0  0  0  0  0  0  0  0  0  0  0
  140.5140   71.1240  225.9570 C   0  0  0  0  0  0  0  0  0  0  0  0
  140.6830   71.8530  224.8400 N   0  0  0  0  0  0  0  0  0  0  0  0
  142.6459   76.3408  220.9013 H   0  0  0  0  0  0  0  0  0  0  0  0
  141.9285   75.5434  219.4605 H   0  0  0  0  0  0  0  0  0  0  0  0
  142.2043   77.3184  219.4605 H   0  0  0  0  0  0  0  0  0  0  0  0
  140.1957   78.2213  219.3660 H   0  0  0  0  0  0  0  0  0  0  0  0
  138.7604   77.4299  220.2152 H   0  0  0  0  0  0  0  0  0  0  0  0
  140.4368   78.6157  224.1607 H   0  0  0  0  0  0  0  0  0  0  0  0
  141.6740   77.7439  223.2557 H   0  0  0  0  0  0  0  0  0  0  0  0
  141.8421   80.4356  224.6596 H   0  0  0  0  0  0  0  0  0  0  0  0
  143.1261   79.2619  224.4490 H   0  0  0  0  0  0  0  0  0  0  0  0
  143.1475   81.4435  222.9163 H   0  0  0  0  0  0  0  0  0  0  0  0
  143.4650   79.9385  222.0945 H   0  0  0  0  0  0  0  0  0  0  0  0
  140.8563   81.5132  222.3226 H   0  0  0  0  0  0  0  0  0  0  0  0
  142.8698   79.0271  217.9140 H   0  0  0  0  0  0  0  0  0  0  0  0
  142.1294   81.0589  216.6982 H   0  0  0  0  0  0  0  0  0  0  0  0
  141.0368   82.8791  218.0090 H   0  0  0  0  0  0  0  0  0  0  0  0
  139.2453   73.9893  220.4780 H   0  0  0  0  0  0  0  0  0  0  0  0
  141.0287   73.9428  220.6230 H   0  0  0  0  0  0  0  0  0  0  0  0
  139.5590   73.8530  223.2210 H   0  0  0  0  0  0  0  0  0  0  0  0
  139.2974   69.6804  222.6858 H   0  0  0  0  0  0  0  0  0  0  0  0
  138.9898   68.3529  224.7463 H   0  0  0  0  0  0  0  0  0  0  0  0
  139.2673   68.1466  227.0796 H   0  0  0  0  0  0  0  0  0  0  0  0
  140.0635   69.0744  229.2574 H   0  0  0  0  0  0  0  0  0  0  0  0
  141.1380   71.3162  229.2839 H   0  0  0  0  0  0  0  0  0  0  0  0
  141.4315   72.6152  227.2051 H   0  0  0  0  0  0  0  0  0  0  0  0
  1  2  1  0
  2  3  1  0
  3  4  1  0
  4  5  2  0
  4  6  1  0
  6  7  1  0
  7  8  1  0
  8  9  1  0
  9 10  1  0
 10 11  1  0
 11 12  2  0
 12 13  1  0
 13 14  2  0
 14 15  1  0
 15 16  2  0
  2 17  1  0
 17 18  2  0
 17 19  1  0
 19 20  1  0
 20 21  1  0
 21 22  2  0
 21 23  1  0
 23 24  2  0
 24 25  1  0
 25 26  2  0
 26 27  1  0
 27 28  2  0
 28 29  1  0
 29 30  2  0
 30 31  1  0
 31 32  2  0
 10  6  1  0
 16 11  1  0
 32 23  1  0
 31 26  1  0
  1 33  1  0
  1 34  1  0
  1 35  1  0
  3 36  1  0
  3 37  1  0
  7 38  1  0
  7 39  1  0
  8 40  1  0
  8 41  1  0
  9 42  1  0
  9 43  1  0
 10 44  1  1
 13 45  1  0
 14 46  1  0
 15 47  1  0
 19 48  1  0
 19 49  1  0
 20 50  1  0
 24 51  1  0
 25 52  1  0
 27 53  1  0
 28 54  1  0
 29 55  1  0
 30 56  1  0
M  END
>  <smiles>  (42) 
CN(CC(=O)N1CCC[C@H]1c1ncccn1)C(=O)CNC(=O)c1ccc2ccccc2n1

>  <score_type>  (42) 
oracle

>  <origin>  (42) 
autodockgpu

>  <m_score__min__energy>  (42) 
-8.3200000000000003

>  <m_primary>  (42) 
energy

>  <rmsd>  (42) 
2.4194705461256913

>  <m_score__min__rmsd>  (42) 
2.4194705461256913

>  <meeko>  (42) 
{"free_energy": -8.22, "intermolecular_energy": -10.61, "internal_energy": -2.72, "cluster_size": 22, "cluster_id": 1, "rank_in_cluster": 4}

>  <energy>  (42) 
-7.43

>  <cluster_rmsd>  (42) 
0.0

>  <cluster>  (42) 
3

$$$$

     RDKit          3D

 56 59  0  0  0  0  0  0  0  0999 V2000
  141.7760   76.5870  219.8700 C   0  0  0  0  0  0  0  0  0  0  0  0
  140.4890   76.7220  220.5670 N   0  0  0  0  0  0  0  0  0  0  0  0
  139.6020   77.8000  220.3090 C   0  0  0  0  0  0  0  0  0  0  0  0
  139.6410   78.8980  221.2640 C   0  0  0  0  0  0  0  0  0  0  0  0
  138.5480   79.5990  221.2890 O   0  0  0  0  0  0  0  0  0  0  0  0
  140.6420   79.3280  222.1540 N   0  0  0  0  0  0  0  0  0  0  0  0
  141.1770   78.7020  223.3530 C   0  0  0  0  0  0  0  0  0  0  0  0
  142.2490   79.6710  223.8570 C   0  0  0  0  0  0  0  0  0  0  0  0
  142.6450   80.4190  222.6160 C   0  0  0  0  0  0  0  0  0  0  0  0
  141.3340   80.6170  221.9420 C   0  0  1  0  0  0  0  0  0  0  0  0
  141.5000   80.7750  220.4690 C   0  0  0  0  0  0  0  0  0  0  0  0
  140.9930   81.8630  219.8230 N   0  0  0  0  0  0  0  0  0  0  0  0
  141.1340   82.0210  218.4950 C   0  0  0  0  0  0  0  0  0  0  0  0
  141.7930   81.0880  217.7540 C   0  0  0  0  0  0  0  0  0  0  0  0
  142.3030   79.9860  218.4300 C   0  0  0  0  0  0  0  0  0  0  0  0
  142.1620   79.8290  219.7580 N   0  0  0  0  0  0  0  0  0  0  0  0
  140.1730   75.6820  221.4920 C   0  0  0  0  0  0  0  0  0  0  0  0
  139.9200   76.0100  222.6910 O   0  0  0  0  0  0  0  0  0  0  0  0
  140.1240   74.2540  221.1270 C   0  0  0  0  0  0  0  0  0  0  0  0
  139.9800   73.4730  222.3350 N   0  0  0  0  0  0  0  0  0  0  0  0
  140.4110   72.1240  222.3980 C   0  0  0  0  0  0  0  0  0  0  0  0
  140.9420   71.5480  221.3880 O   0  0  0  0  0  0  0  0  0  0  0  0
  140.2360   71.3790  223.6620 C   0  0  0  0  0  0  0  0  0  0  0  0
  139.5930   70.1480  223.6210 C   0  0  0  0  0  0  0  0  0  0  0  0
  139.3970   69.4050  224.7480 C   0  0  0  0  0  0  0  0  0  0  0  0
  139.8650   69.9220  225.9420 C   0  0  0  0  0  0  0  0  0  0  0  0
  139.6710   69.1740  227.0890 C   0  0  0  0  0  0  0  0  0  0  0  0
  140.1250   69.6620  228.2940 C   0  0  0  0  0  0  0  0  0  0  0  0
  140.7640   70.8920  228.3070 C   0  0  0  0  0  0  0  0  0  0  0  0
  140.9500   71.6260  227.1470 C   0  0  0  0  0  0  0  0  0  0  0  0
  140.4980   71.1460  225.9350 C   0  0  0  0  0  0  0  0  0  0  0  0
  140.6890   71.8760  224.8230 N   0  0  0  0  0  0  0  0  0  0  0  0
  142.5862   76.5020  220.6092 H   0  0  0  0  0  0  0  0  0  0  0  0
  141.7588   75.6857  219.2396 H   0  0  0  0  0  0  0  0  0  0  0  0
  141.9462   77.4722  219.2396 H   0  0  0  0  0  0  0  0  0  0  0  0
  139.8463   78.2074  219.3169 H   0  0  0  0  0  0  0  0  0  0  0  0
  138.5895   77.3767  220.3834 H   0  0  0  0  0  0  0  0  0  0  0  0
  140.3870   78.5721  224.1074 H   0  0  0  0  0  0  0  0  0  0  0  0
  141.5853   77.7008  223.1509 H   0  0  0  0  0  0  0  0  0  0  0  0
  141.8385   80.3540  224.6153 H   0  0  0  0  0  0  0  0  0  0  0  0
  143.0950   79.1638  224.3438 H   0  0  0  0  0  0  0  0  0  0  0  0
  143.1167   81.3815  222.8630 H   0  0  0  0  0  0  0  0  0  0  0  0
  143.3860   79.8911  221.9977 H   0  0  0  0  0  0  0  0  0  0  0  0
  140.8151   81.5062  222.3293 H   0  0  0  0  0  0  0  0  0  0  0  0
  140.7137   82.9109  218.0036 H   0  0  0  0  0  0  0  0  0  0  0  0
  141.9165   81.2016  216.6669 H   0  0  0  0  0  0  0  0  0  0  0  0
  142.8409   79.2151  217.8586 H   0  0  0  0  0  0  0  0  0  0  0  0
  139.2664   74.0706  220.4629 H   0  0  0  0  0  0  0  0  0  0  0  0
  141.0482   73.9684  220.6033 H   0  0  0  0  0  0  0  0  0  0  0  0
  139.5500   73.8980  223.1940 H   0  0  0  0  0  0  0  0  0  0  0  0
  139.2330   69.7630  222.6555 H   0  0  0  0  0  0  0  0  0  0  0  0
  138.8861   68.4316  224.7085 H   0  0  0  0  0  0  0  0  0  0  0  0
  139.1602   68.2010  227.0393 H   0  0  0  0  0  0  0  0  0  0  0  0
  139.9841   69.0901  229.2230 H   0  0  0  0  0  0  0  0  0  0  0  0
  141.1324   71.2951  229.2619 H   0  0  0  0  0  0  0  0  0  0  0  0
  141.4618   72.5986  227.1925 H   0  0  0  0  0  0  0  0  0  0  0  0
  1  2  1  0
  2  3  1  0
  3  4  1  0
  4  5  2  0
  4  6  1  0
  6  7  1  0
  7  8  1  0
  8  9  1  0
  9 10  1  0
 10 11  1  0
 11 12  2  0
 12 13  1  0
 13 14  2  0
 14 15  1  0
 15 16  2  0
  2 17  1  0
 17 18  2  0
 17 19  1  0
 19 20  1  0
 20 21  1  0
 21 22  2  0
 21 23  1  0
 23 24  2  0
 24 25  1  0
 25 26  2  0
 26 27  1  0
 27 28  2  0
 28 29  1  0
 29 30  2  0
 30 31  1  0
 31 32  2  0
 10  6  1  0
 16 11  1  0
 32 23  1  0
 31 26  1  0
  1 33  1  0
  1 34  1  0
  1 35  1  0
  3 36  1  0
  3 37  1  0
  7 38  1  0
  7 39  1  0
  8 40  1  0
  8 41  1  0
  9 42  1  0
  9 43  1  0
 10 44  1  1
 13 45  1  0
 14 46  1  0
 15 47  1  0
 19 48  1  0
 19 49  1  0
 20 50  1  0
 24 51  1  0
 25 52  1  0
 27 53  1  0
 28 54  1  0
 29 55  1  0
 30 56  1  0
M  END
>  <smiles>  (43) 
CN(CC(=O)N1CCC[C@H]1c1ncccn1)C(=O)CNC(=O)c1ccc2ccccc2n1

>  <score_type>  (43) 
oracle

>  <origin>  (43) 
autodockgpu

>  <m_score__min__energy>  (43) 
-8.3200000000000003

>  <m_primary>  (43) 
energy

>  <rmsd>  (43) 
2.4161084180911265

>  <m_score__min__rmsd>  (43) 
2.4161084180911265

>  <meeko>  (43) 
{"free_energy": -8.13, "intermolecular_energy": -10.52, "internal_energy": -2.76, "cluster_size": 22, "cluster_id": 1, "rank_in_cluster": 8}

>  <energy>  (43) 
-7.28

>  <cluster_rmsd>  (43) 
0.24

>  <cluster>  (43) 
3

$$$$

     RDKit          3D

 56 59  0  0  0  0  0  0  0  0999 V2000
  137.7270   77.0360  220.7130 C   0  0  0  0  0  0  0  0  0  0  0  0
  139.0550   76.4620  220.4520 N   0  0  0  0  0  0  0  0  0  0  0  0
  139.8620   76.8920  219.3660 C   0  0  0  0  0  0  0  0  0  0  0  0
  141.0210   77.7010  219.7160 C   0  0  0  0  0  0  0  0  0  0  0  0
  141.8120   77.1260  220.5690 O   0  0  0  0  0  0  0  0  0  0  0  0
  141.4280   78.9800  219.2970 N   0  0  0  0  0  0  0  0  0  0  0  0
  141.4570   79.5800  217.9720 C   0  0  0  0  0  0  0  0  0  0  0  0
  141.9950   80.9950  218.1930 C   0  0  0  0  0  0  0  0  0  0  0  0
  141.6470   81.2740  219.6270 C   0  0  0  0  0  0  0  0  0  0  0  0
  141.9350   79.9660  220.2750 C   0  0  1  0  0  0  0  0  0  0  0  0
  141.1300   79.7880  221.5170 C   0  0  0  0  0  0  0  0  0  0  0  0
  141.7100   79.3350  222.6640 N   0  0  0  0  0  0  0  0  0  0  0  0
  140.9990   79.1680  223.7930 C   0  0  0  0  0  0  0  0  0  0  0  0
  139.6670   79.4510  223.8200 C   0  0  0  0  0  0  0  0  0  0  0  0
  139.0930   79.9130  222.6400 C   0  0  0  0  0  0  0  0  0  0  0  0
  139.8060   80.0790  221.5120 N   0  0  0  0  0  0  0  0  0  0  0  0
  139.4960   75.4720  221.3810 C   0  0  0  0  0  0  0  0  0  0  0  0
  139.8950   75.8620  222.5200 O   0  0  0  0  0  0  0  0  0  0  0  0
  139.5120   74.0260  221.0860 C   0  0  0  0  0  0  0  0  0  0  0  0
  139.6240   73.3020  222.3310 N   0  0  0  0  0  0  0  0  0  0  0  0
  139.7990   71.8960  222.3540 C   0  0  0  0  0  0  0  0  0  0  0  0
  139.8640   71.2160  221.2740 O   0  0  0  0  0  0  0  0  0  0  0  0
  139.9080   71.2120  223.6610 C   0  0  0  0  0  0  0  0  0  0  0  0
  139.5030   69.8860  223.7490 C   0  0  0  0  0  0  0  0  0  0  0  0
  139.5750   69.1930  224.9220 C   0  0  0  0  0  0  0  0  0  0  0  0
  140.0690   69.8590  226.0280 C   0  0  0  0  0  0  0  0  0  0  0  0
  140.1460   69.1640  227.2200 C   0  0  0  0  0  0  0  0  0  0  0  0
  140.6340   69.8000  228.3390 C   0  0  0  0  0  0  0  0  0  0  0  0
  141.0310   71.1230  228.2240 C   0  0  0  0  0  0  0  0  0  0  0  0
  140.9470   71.8040  227.0200 C   0  0  0  0  0  0  0  0  0  0  0  0
  140.4600   71.1740  225.8930 C   0  0  0  0  0  0  0  0  0  0  0  0
  140.3870   71.8560  224.7360 N   0  0  0  0  0  0  0  0  0  0  0  0
  137.5648   77.1061  221.7987 H   0  0  0  0  0  0  0  0  0  0  0  0
  137.6676   78.0401  220.2678 H   0  0  0  0  0  0  0  0  0  0  0  0
  136.9549   76.3913  220.2678 H   0  0  0  0  0  0  0  0  0  0  0  0
  140.2229   75.9964  218.8390 H   0  0  0  0  0  0  0  0  0  0  0  0
  139.2181   77.5427  218.7561 H   0  0  0  0  0  0  0  0  0  0  0  0
  142.1224   79.0127  217.3046 H   0  0  0  0  0  0  0  0  0  0  0  0
  140.4649   79.5834  217.4969 H   0  0  0  0  0  0  0  0  0  0  0  0
  143.0832   81.0322  218.0367 H   0  0  0  0  0  0  0  0  0  0  0  0
  141.5710   81.7318  217.4949 H   0  0  0  0  0  0  0  0  0  0  0  0
  142.2775   82.0736  220.0430 H   0  0  0  0  0  0  0  0  0  0  0  0
  140.6143   81.6236  219.7730 H   0  0  0  0  0  0  0  0  0  0  0  0
  142.9996   79.8742  220.5360 H   0  0  0  0  0  0  0  0  0  0  0  0
  141.4971   78.7999  224.7021 H   0  0  0  0  0  0  0  0  0  0  0  0
  139.0709   79.3199  224.7352 H   0  0  0  0  0  0  0  0  0  0  0  0
  138.0190   80.1507  222.6293 H   0  0  0  0  0  0  0  0  0  0  0  0
  138.5803   73.7419  220.5748 H   0  0  0  0  0  0  0  0  0  0  0  0
  140.3644   73.7853  220.4338 H   0  0  0  0  0  0  0  0  0  0  0  0
  139.5780   73.8120  223.2490 H   0  0  0  0  0  0  0  0  0  0  0  0
  139.1149   69.3827  222.8512 H   0  0  0  0  0  0  0  0  0  0  0  0
  139.2520   68.1434  224.9853 H   0  0  0  0  0  0  0  0  0  0  0  0
  139.8210   68.1145  227.2740 H   0  0  0  0  0  0  0  0  0  0  0  0
  140.7071   69.2713  229.3008 H   0  0  0  0  0  0  0  0  0  0  0  0
  141.4222   71.6450  229.1097 H   0  0  0  0  0  0  0  0  0  0  0  0
  141.2707   72.8537  226.9623 H   0  0  0  0  0  0  0  0  0  0  0  0
  1  2  1  0
  2  3  1  0
  3  4  1  0
  4  5  2  0
  4  6  1  0
  6  7  1  0
  7  8  1  0
  8  9  1  0
  9 10  1  0
 10 11  1  0
 11 12  2  0
 12 13  1  0
 13 14  2  0
 14 15  1  0
 15 16  2  0
  2 17  1  0
 17 18  2  0
 17 19  1  0
 19 20  1  0
 20 21  1  0
 21 22  2  0
 21 23  1  0
 23 24  2  0
 24 25  1  0
 25 26  2  0
 26 27  1  0
 27 28  2  0
 28 29  1  0
 29 30  2  0
 30 31  1  0
 31 32  2  0
 10  6  1  0
 16 11  1  0
 32 23  1  0
 31 26  1  0
  1 33  1  0
  1 34  1  0
  1 35  1  0
  3 36  1  0
  3 37  1  0
  7 38  1  0
  7 39  1  0
  8 40  1  0
  8 41  1  0
  9 42  1  0
  9 43  1  0
 10 44  1  1
 13 45  1  0
 14 46  1  0
 15 47  1  0
 19 48  1  0
 19 49  1  0
 20 50  1  0
 24 51  1  0
 25 52  1  0
 27 53  1  0
 28 54  1  0
 29 55  1  0
 30 56  1  0
M  END
>  <smiles>  (44) 
CN(CC(=O)N1CCC[C@H]1c1ncccn1)C(=O)CNC(=O)c1ccc2ccccc2n1

>  <score_type>  (44) 
oracle

>  <origin>  (44) 
autodockgpu

>  <m_score__min__energy>  (44) 
-8.3200000000000003

>  <m_primary>  (44) 
energy

>  <rmsd>  (44) 
2.0737454720002226

>  <m_score__min__rmsd>  (44) 
2.0737454720002226

>  <meeko>  (44) 
{"free_energy": -7.39, "intermolecular_energy": -9.77, "internal_energy": -2.93, "cluster_size": 22, "cluster_id": 1, "rank_in_cluster": 21}

>  <energy>  (44) 
-7.05

>  <cluster_rmsd>  (44) 
1.99

>  <cluster>  (44) 
3

$$$$

     RDKit          3D

 56 59  0  0  0  0  0  0  0  0999 V2000
  140.0060   75.9660  218.8710 C   0  0  0  0  0  0  0  0  0  0  0  0
  140.7500   76.1350  220.1280 N   0  0  0  0  0  0  0  0  0  0  0  0
  141.7930   77.0880  220.2640 C   0  0  0  0  0  0  0  0  0  0  0  0
  141.3860   78.4200  220.6860 C   0  0  0  0  0  0  0  0  0  0  0  0
  140.7100   79.0630  219.7840 O   0  0  0  0  0  0  0  0  0  0  0  0
  141.5950   79.1250  221.8860 N   0  0  0  0  0  0  0  0  0  0  0  0
  142.5820   80.1350  222.2330 C   0  0  0  0  0  0  0  0  0  0  0  0
  142.2690   80.5080  223.6830 C   0  0  0  0  0  0  0  0  0  0  0  0
  140.8160   80.1550  223.8230 C   0  0  0  0  0  0  0  0  0  0  0  0
  140.7340   78.8790  223.0620 C   0  0  1  0  0  0  0  0  0  0  0  0
  139.3560   78.6450  222.5420 C   0  0  0  0  0  0  0  0  0  0  0  0
  138.6790   77.5040  222.8520 N   0  0  0  0  0  0  0  0  0  0  0  0
  137.4360   77.2770  222.3910 C   0  0  0  0  0  0  0  0  0  0  0  0
  136.8160   78.1920  221.5940 C   0  0  0  0  0  0  0  0  0  0  0  0
  137.5230   79.3490  221.2890 C   0  0  0  0  0  0  0  0  0  0  0  0
  138.7660   79.5740  221.7510 N   0  0  0  0  0  0  0  0  0  0  0  0
  140.3310   75.3070  221.2120 C   0  0  0  0  0  0  0  0  0  0  0  0
  140.5390   75.7230  222.3930 O   0  0  0  0  0  0  0  0  0  0  0  0
  139.6720   73.9990  221.0320 C   0  0  0  0  0  0  0  0  0  0  0  0
  139.7200   73.2810  222.2860 N   0  0  0  0  0  0  0  0  0  0  0  0
  139.9450   71.8820  222.3280 C   0  0  0  0  0  0  0  0  0  0  0  0
  140.1130   71.2040  221.2570 O   0  0  0  0  0  0  0  0  0  0  0  0
  139.9820   71.2050  223.6410 C   0  0  0  0  0  0  0  0  0  0  0  0
  139.5020   69.9050  223.7290 C   0  0  0  0  0  0  0  0  0  0  0  0
  139.5060   69.2190  224.9080 C   0  0  0  0  0  0  0  0  0  0  0  0
  140.0090   69.8660  226.0210 C   0  0  0  0  0  0  0  0  0  0  0  0
  140.0180   69.1780  227.2200 C   0  0  0  0  0  0  0  0  0  0  0  0
  140.5130   69.7960  228.3470 C   0  0  0  0  0  0  0  0  0  0  0  0
  140.9860   71.0930  228.2320 C   0  0  0  0  0  0  0  0  0  0  0  0
  140.9700   71.7670  227.0210 C   0  0  0  0  0  0  0  0  0  0  0  0
  140.4760   71.1560  225.8870 C   0  0  0  0  0  0  0  0  0  0  0  0
  140.4700   71.8300  224.7240 N   0  0  0  0  0  0  0  0  0  0  0  0
  138.9559   75.7275  219.0957 H   0  0  0  0  0  0  0  0  0  0  0  0
  140.0538   76.8979  218.2885 H   0  0  0  0  0  0  0  0  0  0  0  0
  140.4517   75.1462  218.2885 H   0  0  0  0  0  0  0  0  0  0  0  0
  142.5069   76.7026  221.0068 H   0  0  0  0  0  0  0  0  0  0  0  0
  142.2166   77.2115  219.2564 H   0  0  0  0  0  0  0  0  0  0  0  0
  143.5999   79.7265  222.1494 H   0  0  0  0  0  0  0  0  0  0  0  0
  142.5375   81.0057  221.5622 H   0  0  0  0  0  0  0  0  0  0  0  0
  142.8857   79.9243  224.3822 H   0  0  0  0  0  0  0  0  0  0  0  0
  142.4803   81.5630  223.9119 H   0  0  0  0  0  0  0  0  0  0  0  0
  140.5396   80.0100  224.8778 H   0  0  0  0  0  0  0  0  0  0  0  0
  140.1324   80.9350  223.4567 H   0  0  0  0  0  0  0  0  0  0  0  0
  141.0176   78.0205  223.6886 H   0  0  0  0  0  0  0  0  0  0  0  0
  136.9160   76.3456  222.6594 H   0  0  0  0  0  0  0  0  0  0  0  0
  135.7998   78.0222  221.2086 H   0  0  0  0  0  0  0  0  0  0  0  0
  137.0496   80.1070  220.6476 H   0  0  0  0  0  0  0  0  0  0  0  0
  138.6247   74.1501  220.7315 H   0  0  0  0  0  0  0  0  0  0  0  0
  140.1880   73.4231  220.2496 H   0  0  0  0  0  0  0  0  0  0  0  0
  139.5880   73.7900  223.1950 H   0  0  0  0  0  0  0  0  0  0  0  0
  139.1087   69.4162  222.8254 H   0  0  0  0  0  0  0  0  0  0  0  0
  139.1233   68.1896  224.9706 H   0  0  0  0  0  0  0  0  0  0  0  0
  139.6341   68.1485  227.2734 H   0  0  0  0  0  0  0  0  0  0  0  0
  140.5323   69.2727  229.3144 H   0  0  0  0  0  0  0  0  0  0  0  0
  141.3839   71.6002  229.1233 H   0  0  0  0  0  0  0  0  0  0  0  0
  141.3539   72.7963  226.9637 H   0  0  0  0  0  0  0  0  0  0  0  0
  1  2  1  0
  2  3  1  0
  3  4  1  0
  4  5  2  0
  4  6  1  0
  6  7  1  0
  7  8  1  0
  8  9  1  0
  9 10  1  0
 10 11  1  0
 11 12  2  0
 12 13  1  0
 13 14  2  0
 14 15  1  0
 15 16  2  0
  2 17  1  0
 17 18  2  0
 17 19  1  0
 19 20  1  0
 20 21  1  0
 21 22  2  0
 21 23  1  0
 23 24  2  0
 24 25  1  0
 25 26  2  0
 26 27  1  0
 27 28  2  0
 28 29  1  0
 29 30  2  0
 30 31  1  0
 31 32  2  0
 10  6  1  0
 16 11  1  0
 32 23  1  0
 31 26  1  0
  1 33  1  0
  1 34  1  0
  1 35  1  0
  3 36  1  0
  3 37  1  0
  7 38  1  0
  7 39  1  0
  8 40  1  0
  8 41  1  0
  9 42  1  0
  9 43  1  0
 10 44  1  1
 13 45  1  0
 14 46  1  0
 15 47  1  0
 19 48  1  0
 19 49  1  0
 20 50  1  0
 24 51  1  0
 25 52  1  0
 27 53  1  0
 28 54  1  0
 29 55  1  0
 30 56  1  0
M  END
>  <smiles>  (45) 
CN(CC(=O)N1CCC[C@H]1c1ncccn1)C(=O)CNC(=O)c1ccc2ccccc2n1

>  <score_type>  (45) 
oracle

>  <origin>  (45) 
autodockgpu

>  <m_score__min__energy>  (45) 
-8.3200000000000003

>  <m_primary>  (45) 
energy

>  <rmsd>  (45) 
1.9155630446506682

>  <m_score__min__rmsd>  (45) 
1.9155630446506682

>  <meeko>  (45) 
{"free_energy": -7.83, "intermolecular_energy": -10.22, "internal_energy": -2.86, "cluster_size": 19, "cluster_id": 2, "rank_in_cluster": 14}

>  <energy>  (45) 
-6.51

>  <cluster_rmsd>  (45) 
1.87

>  <cluster>  (45) 
3

$$$$

     RDKit          3D

 56 59  0  0  0  0  0  0  0  0999 V2000
  139.8900   72.0630  218.5270 C   0  0  0  0  0  0  0  0  0  0  0  0
  139.4640   71.7410  219.8970 N   0  0  0  0  0  0  0  0  0  0  0  0
  140.3980   71.4660  220.9310 C   0  0  0  0  0  0  0  0  0  0  0  0
  141.0610   72.6230  221.5140 C   0  0  0  0  0  0  0  0  0  0  0  0
  140.7480   72.8250  222.7570 O   0  0  0  0  0  0  0  0  0  0  0  0
  141.9700   73.5500  220.9720 N   0  0  0  0  0  0  0  0  0  0  0  0
  143.1560   73.3480  220.1550 C   0  0  0  0  0  0  0  0  0  0  0  0
  143.6940   74.7560  219.8900 C   0  0  0  0  0  0  0  0  0  0  0  0
  142.4780   75.6230  220.0430 C   0  0  0  0  0  0  0  0  0  0  0  0
  141.7980   74.9990  221.2100 C   0  0  1  0  0  0  0  0  0  0  0  0
  140.3310   75.2640  221.1890 C   0  0  0  0  0  0  0  0  0  0  0  0
  139.6060   75.2590  222.3420 N   0  0  0  0  0  0  0  0  0  0  0  0
  138.2820   75.4960  222.3410 C   0  0  0  0  0  0  0  0  0  0  0  0
  137.6260   75.7500  221.1750 C   0  0  0  0  0  0  0  0  0  0  0  0
  138.3830   75.7510  220.0090 C   0  0  0  0  0  0  0  0  0  0  0  0
  139.7070   75.5140  220.0120 N   0  0  0  0  0  0  0  0  0  0  0  0
  138.0570   71.7590  220.1290 C   0  0  0  0  0  0  0  0  0  0  0  0
  137.3100   71.1500  219.3040 O   0  0  0  0  0  0  0  0  0  0  0  0
  137.4280   72.4440  221.2740 C   0  0  0  0  0  0  0  0  0  0  0  0
  138.0970   72.0280  222.4860 N   0  0  0  0  0  0  0  0  0  0  0  0
  138.0610   70.6800  222.9230 C   0  0  0  0  0  0  0  0  0  0  0  0
  137.4360   69.7830  222.2610 O   0  0  0  0  0  0  0  0  0  0  0  0
  138.7650   70.3170  224.1710 C   0  0  0  0  0  0  0  0  0  0  0  0
  138.7220   68.9940  224.5940 C   0  0  0  0  0  0  0  0  0  0  0  0
  139.3480   68.5870  225.7350 C   0  0  0  0  0  0  0  0  0  0  0  0
  140.0340   69.5420  226.4620 C   0  0  0  0  0  0  0  0  0  0  0  0
  140.6720   69.1370  227.6200 C   0  0  0  0  0  0  0  0  0  0  0  0
  141.3630   70.0660  228.3660 C   0  0  0  0  0  0  0  0  0  0  0  0
  141.3910   71.3780  227.9220 C   0  0  0  0  0  0  0  0  0  0  0  0
  140.7460   71.7650  226.7580 C   0  0  0  0  0  0  0  0  0  0  0  0
  140.0500   70.8420  226.0050 C   0  0  0  0  0  0  0  0  0  0  0  0
  139.4310   71.2400  224.8790 N   0  0  0  0  0  0  0  0  0  0  0  0
  140.7671   72.7260  218.5620 H   0  0  0  0  0  0  0  0  0  0  0  0
  140.1524   71.1355  217.9970 H   0  0  0  0  0  0  0  0  0  0  0  0
  139.0692   72.5684  217.9970 H   0  0  0  0  0  0  0  0  0  0  0  0
  139.8635   70.9423  221.7372 H   0  0  0  0  0  0  0  0  0  0  0  0
  141.1955   70.8719  220.4609 H   0  0  0  0  0  0  0  0  0  0  0  0
  143.9002   72.7443  220.6952 H   0  0  0  0  0  0  0  0  0  0  0  0
  142.9310   72.8078  219.2236 H   0  0  0  0  0  0  0  0  0  0  0  0
  144.4668   75.0275  220.6242 H   0  0  0  0  0  0  0  0  0  0  0  0
  144.1736   74.8560  218.9051 H   0  0  0  0  0  0  0  0  0  0  0  0
  142.7551   76.6666  220.2529 H   0  0  0  0  0  0  0  0  0  0  0  0
  141.8523   75.6728  219.1396 H   0  0  0  0  0  0  0  0  0  0  0  0
  142.2043   75.3779  222.1594 H   0  0  0  0  0  0  0  0  0  0  0  0
  137.7248   75.4846  223.2894 H   0  0  0  0  0  0  0  0  0  0  0  0
  136.5438   75.9459  221.1565 H   0  0  0  0  0  0  0  0  0  0  0  0
  137.8818   75.9526  219.0508 H   0  0  0  0  0  0  0  0  0  0  0  0
  137.5246   73.5330  221.1527 H   0  0  0  0  0  0  0  0  0  0  0  0
  136.3604   72.1841  221.3265 H   0  0  0  0  0  0  0  0  0  0  0  0
  138.6250   72.7250  223.0680 H   0  0  0  0  0  0  0  0  0  0  0  0
  138.1692   68.2567  223.9934 H   0  0  0  0  0  0  0  0  0  0  0  0
  139.3086   67.5383  226.0646 H   0  0  0  0  0  0  0  0  0  0  0  0
  140.6282   68.0859  227.9414 H   0  0  0  0  0  0  0  0  0  0  0  0
  141.8800   69.7733  229.2918 H   0  0  0  0  0  0  0  0  0  0  0  0
  141.9386   72.1310  228.5077 H   0  0  0  0  0  0  0  0  0  0  0  0
  140.7893   72.8148  226.4324 H   0  0  0  0  0  0  0  0  0  0  0  0
  1  2  1  0
  2  3  1  0
  3  4  1  0
  4  5  2  0
  4  6  1  0
  6  7  1  0
  7  8  1  0
  8  9  1  0
  9 10  1  0
 10 11  1  0
 11 12  2  0
 12 13  1  0
 13 14  2  0
 14 15  1  0
 15 16  2  0
  2 17  1  0
 17 18  2  0
 17 19  1  0
 19 20  1  0
 20 21  1  0
 21 22  2  0
 21 23  1  0
 23 24  2  0
 24 25  1  0
 25 26  2  0
 26 27  1  0
 27 28  2  0
 28 29  1  0
 29 30  2  0
 30 31  1  0
 31 32  2  0
 10  6  1  0
 16 11  1  0
 32 23  1  0
 31 26  1  0
  1 33  1  0
  1 34  1  0
  1 35  1  0
  3 36  1  0
  3 37  1  0
  7 38  1  0
  7 39  1  0
  8 40  1  0
  8 41  1  0
  9 42  1  0
  9 43  1  0
 10 44  1  1
 13 45  1  0
 14 46  1  0
 15 47  1  0
 19 48  1  0
 19 49  1  0
 20 50  1  0
 24 51  1  0
 25 52  1  0
 27 53  1  0
 28 54  1  0
 29 55  1  0
 30 56  1  0
M  END
>  <smiles>  (46) 
CN(CC(=O)N1CCC[C@H]1c1ncccn1)C(=O)CNC(=O)c1ccc2ccccc2n1

>  <score_type>  (46) 
oracle

>  <origin>  (46) 
autodockgpu

>  <m_score__min__energy>  (46) 
-8.3200000000000003

>  <m_primary>  (46) 
energy

>  <rmsd>  (46) 
4.026367927492709

>  <m_score__min__rmsd>  (46) 
4.026367927492709

>  <meeko>  (46) 
{"free_energy": -6.51, "intermolecular_energy": -8.89, "internal_energy": -3.81, "cluster_size": 5, "cluster_id": 3, "rank_in_cluster": 4}

>  <energy>  (46) 
-6.5

>  <cluster_rmsd>  (46) 
1.65

>  <cluster>  (46) 
3

$$$$

     RDKit          3D

 56 59  0  0  0  0  0  0  0  0999 V2000
  138.8210   76.0570  219.1180 C   0  0  0  0  0  0  0  0  0  0  0  0
  138.9240   76.3630  220.5520 N   0  0  0  0  0  0  0  0  0  0  0  0
  138.3440   77.5280  221.1190 C   0  0  0  0  0  0  0  0  0  0  0  0
  139.1850   78.7160  221.1310 C   0  0  0  0  0  0  0  0  0  0  0  0
  138.9720   79.5090  220.1260 O   0  0  0  0  0  0  0  0  0  0  0  0
  140.1760   79.1490  222.0290 N   0  0  0  0  0  0  0  0  0  0  0  0
  140.1780   79.2090  223.4830 C   0  0  0  0  0  0  0  0  0  0  0  0
  141.5550   79.7650  223.8510 C   0  0  0  0  0  0  0  0  0  0  0  0
  142.4010   79.4000  222.6660 C   0  0  0  0  0  0  0  0  0  0  0  0
  141.4730   79.6560  221.5320 C   0  0  1  0  0  0  0  0  0  0  0  0
  141.8260   78.8300  220.3430 C   0  0  0  0  0  0  0  0  0  0  0  0
  142.1340   77.5100  220.4790 N   0  0  0  0  0  0  0  0  0  0  0  0
  142.4560   76.7500  219.4160 C   0  0  0  0  0  0  0  0  0  0  0  0
  142.4820   77.2860  218.1650 C   0  0  0  0  0  0  0  0  0  0  0  0
  142.1650   78.6350  218.0470 C   0  0  0  0  0  0  0  0  0  0  0  0
  141.8430   79.3930  219.1100 N   0  0  0  0  0  0  0  0  0  0  0  0
  139.6130   75.3950  221.3440 C   0  0  0  0  0  0  0  0  0  0  0  0
  140.2770   75.8080  222.3430 O   0  0  0  0  0  0  0  0  0  0  0  0
  139.5920   73.9470  221.0620 C   0  0  0  0  0  0  0  0  0  0  0  0
  139.7290   73.2320  222.3110 N   0  0  0  0  0  0  0  0  0  0  0  0
  139.6930   71.8160  222.3580 C   0  0  0  0  0  0  0  0  0  0  0  0
  139.5370   71.1190  221.2980 O   0  0  0  0  0  0  0  0  0  0  0  0
  139.8390   71.1430  223.6660 C   0  0  0  0  0  0  0  0  0  0  0  0
  139.4560   69.8110  223.7720 C   0  0  0  0  0  0  0  0  0  0  0  0
  139.5630   69.1270  224.9460 C   0  0  0  0  0  0  0  0  0  0  0  0
  140.0720   69.8070  226.0370 C   0  0  0  0  0  0  0  0  0  0  0  0
  140.1840   69.1210  227.2320 C   0  0  0  0  0  0  0  0  0  0  0  0
  140.6870   69.7710  228.3360 C   0  0  0  0  0  0  0  0  0  0  0  0
  141.0620   71.0990  228.2040 C   0  0  0  0  0  0  0  0  0  0  0  0
  140.9430   71.7710  226.9980 C   0  0  0  0  0  0  0  0  0  0  0  0
  140.4400   71.1270  225.8860 C   0  0  0  0  0  0  0  0  0  0  0  0
  140.3320   71.7990  224.7270 N   0  0  0  0  0  0  0  0  0  0  0  0
  138.4725   75.0218  218.9881 H   0  0  0  0  0  0  0  0  0  0  0  0
  138.1055   76.7466  218.6464 H   0  0  0  0  0  0  0  0  0  0  0  0
  139.8079   76.1736  218.6464 H   0  0  0  0  0  0  0  0  0  0  0  0
  137.4349   77.7645  220.5467 H   0  0  0  0  0  0  0  0  0  0  0  0
  138.1587   77.2840  222.1755 H   0  0  0  0  0  0  0  0  0  0  0  0
  139.3817   79.8765  223.8441 H   0  0  0  0  0  0  0  0  0  0  0  0
  139.9929   78.2251  223.9388 H   0  0  0  0  0  0  0  0  0  0  0  0
  141.5163   80.8559  223.9869 H   0  0  0  0  0  0  0  0  0  0  0  0
  141.9433   79.3625  224.7982 H   0  0  0  0  0  0  0  0  0  0  0  0
  143.2953   80.0372  222.6021 H   0  0  0  0  0  0  0  0  0  0  0  0
  142.7884   78.3710  222.6981 H   0  0  0  0  0  0  0  0  0  0  0  0
  141.4893   80.7148  221.2343 H   0  0  0  0  0  0  0  0  0  0  0  0
  142.7001   75.6870  219.5592 H   0  0  0  0  0  0  0  0  0  0  0  0
  142.7424   76.6786  217.2857 H   0  0  0  0  0  0  0  0  0  0  0  0
  142.1781   79.0981  217.0493 H   0  0  0  0  0  0  0  0  0  0  0  0
  138.6396   73.6766  220.5827 H   0  0  0  0  0  0  0  0  0  0  0  0
  140.4185   73.6838  220.3856 H   0  0  0  0  0  0  0  0  0  0  0  0
  139.8610   73.7560  223.2120 H   0  0  0  0  0  0  0  0  0  0  0  0
  139.0564   69.2959  222.8860 H   0  0  0  0  0  0  0  0  0  0  0  0
  139.2560   68.0735  225.0227 H   0  0  0  0  0  0  0  0  0  0  0  0
  139.8746   68.0676  227.2997 H   0  0  0  0  0  0  0  0  0  0  0  0
  140.7889   69.2496  229.2992 H   0  0  0  0  0  0  0  0  0  0  0  0
  141.4639   71.6324  229.0780 H   0  0  0  0  0  0  0  0  0  0  0  0
  141.2514   72.8245  226.9266 H   0  0  0  0  0  0  0  0  0  0  0  0
  1  2  1  0
  2  3  1  0
  3  4  1  0
  4  5  2  0
  4  6  1  0
  6  7  1  0
  7  8  1  0
  8  9  1  0
  9 10  1  0
 10 11  1  0
 11 12  2  0
 12 13  1  0
 13 14  2  0
 14 15  1  0
 15 16  2  0
  2 17  1  0
 17 18  2  0
 17 19  1  0
 19 20  1  0
 20 21  1  0
 21 22  2  0
 21 23  1  0
 23 24  2  0
 24 25  1  0
 25 26  2  0
 26 27  1  0
 27 28  2  0
 28 29  1  0
 29 30  2  0
 30 31  1  0
 31 32  2  0
 10  6  1  0
 16 11  1  0
 32 23  1  0
 31 26  1  0
  1 33  1  0
  1 34  1  0
  1 35  1  0
  3 36  1  0
  3 37  1  0
  7 38  1  0
  7 39  1  0
  8 40  1  0
  8 41  1  0
  9 42  1  0
  9 43  1  0
 10 44  1  6
 13 45  1  0
 14 46  1  0
 15 47  1  0
 19 48  1  0
 19 49  1  0
 20 50  1  0
 24 51  1  0
 25 52  1  0
 27 53  1  0
 28 54  1  0
 29 55  1  0
 30 56  1  0
M  END
>  <smiles>  (47) 
CN(CC(=O)N1CCC[C@H]1c1ncccn1)C(=O)CNC(=O)c1ccc2ccccc2n1

>  <score_type>  (47) 
oracle

>  <origin>  (47) 
autodockgpu

>  <m_score__min__energy>  (47) 
-8.3200000000000003

>  <m_primary>  (47) 
energy

>  <rmsd>  (47) 
2.127769521053649

>  <m_score__min__rmsd>  (47) 
2.127769521053649

>  <meeko>  (47) 
{"free_energy": -7.63, "intermolecular_energy": -10.02, "internal_energy": -3.09, "cluster_size": 22, "cluster_id": 1, "rank_in_cluster": 20}

>  <energy>  (47) 
-7.01

>  <cluster_rmsd>  (47) 
0.0

>  <cluster>  (47) 
4

$$$$

     RDKit          3D

 56 59  0  0  0  0  0  0  0  0999 V2000
  139.6150   75.8570  218.8020 C   0  0  0  0  0  0  0  0  0  0  0  0
  140.5780   76.0420  219.8970 N   0  0  0  0  0  0  0  0  0  0  0  0
  141.5310   77.0950  219.8920 C   0  0  0  0  0  0  0  0  0  0  0  0
  141.1180   78.3290  220.5440 C   0  0  0  0  0  0  0  0  0  0  0  0
  140.1660   78.9500  219.9170 O   0  0  0  0  0  0  0  0  0  0  0  0
  141.5650   78.9600  221.7190 N   0  0  0  0  0  0  0  0  0  0  0  0
  142.5700   79.9930  221.9180 C   0  0  0  0  0  0  0  0  0  0  0  0
  142.5750   80.2500  223.4260 C   0  0  0  0  0  0  0  0  0  0  0  0
  141.2020   79.8160  223.8530 C   0  0  0  0  0  0  0  0  0  0  0  0
  140.9960   78.5920  223.0330 C   0  0  1  0  0  0  0  0  0  0  0  0
  139.5460   78.3250  222.8110 C   0  0  0  0  0  0  0  0  0  0  0  0
  139.0790   77.0490  222.7120 N   0  0  0  0  0  0  0  0  0  0  0  0
  137.7740   76.7910  222.5120 C   0  0  0  0  0  0  0  0  0  0  0  0
  136.8770   77.8100  222.4020 C   0  0  0  0  0  0  0  0  0  0  0  0
  137.3720   79.1050  222.5060 C   0  0  0  0  0  0  0  0  0  0  0  0
  138.6770   79.3610  222.7060 N   0  0  0  0  0  0  0  0  0  0  0  0
  140.4700   75.1200  220.9800 C   0  0  0  0  0  0  0  0  0  0  0  0
  141.1480   75.3510  222.0270 O   0  0  0  0  0  0  0  0  0  0  0  0
  139.6140   73.9190  220.9460 C   0  0  0  0  0  0  0  0  0  0  0  0
  139.7320   73.2320  222.2120 N   0  0  0  0  0  0  0  0  0  0  0  0
  139.7190   71.8170  222.2880 C   0  0  0  0  0  0  0  0  0  0  0  0
  139.6030   71.0960  221.2390 O   0  0  0  0  0  0  0  0  0  0  0  0
  139.8430   71.1730  223.6130 C   0  0  0  0  0  0  0  0  0  0  0  0
  139.4170   69.8580  223.7520 C   0  0  0  0  0  0  0  0  0  0  0  0
  139.5020   69.2010  224.9440 C   0  0  0  0  0  0  0  0  0  0  0  0
  140.0310   69.8920  226.0180 C   0  0  0  0  0  0  0  0  0  0  0  0
  140.1210   69.2330  227.2300 C   0  0  0  0  0  0  0  0  0  0  0  0
  140.6440   69.8960  228.3180 C   0  0  0  0  0  0  0  0  0  0  0  0
  141.0620   71.2070  228.1520 C   0  0  0  0  0  0  0  0  0  0  0  0
  140.9650   71.8510  226.9290 C   0  0  0  0  0  0  0  0  0  0  0  0
  140.4420   71.1950  225.8340 C   0  0  0  0  0  0  0  0  0  0  0  0
  140.3570   71.8410  224.6570 N   0  0  0  0  0  0  0  0  0  0  0  0
  138.6161   75.6651  219.2207 H   0  0  0  0  0  0  0  0  0  0  0  0
  139.5847   76.7657  218.1829 H   0  0  0  0  0  0  0  0  0  0  0  0
  139.9236   75.0017  218.1829 H   0  0  0  0  0  0  0  0  0  0  0  0
  142.4368   76.7323  220.3999 H   0  0  0  0  0  0  0  0  0  0  0  0
  141.6832   77.3539  218.8338 H   0  0  0  0  0  0  0  0  0  0  0  0
  143.5571   79.6429  221.5816 H   0  0  0  0  0  0  0  0  0  0  0  0
  142.3478   80.9040  221.3428 H   0  0  0  0  0  0  0  0  0  0  0  0
  143.3510   79.6514  223.9255 H   0  0  0  0  0  0  0  0  0  0  0  0
  142.7965   81.2960  223.6844 H   0  0  0  0  0  0  0  0  0  0  0  0
  141.1717   79.5865  224.9284 H   0  0  0  0  0  0  0  0  0  0  0  0
  140.4282   80.5839  223.7060 H   0  0  0  0  0  0  0  0  0  0  0  0
  141.4406   77.7085  223.5145 H   0  0  0  0  0  0  0  0  0  0  0  0
  137.4288   75.7493  222.4367 H   0  0  0  0  0  0  0  0  0  0  0  0
  135.8066   77.6166  222.2379 H   0  0  0  0  0  0  0  0  0  0  0  0
  136.6720   79.9494  222.4218 H   0  0  0  0  0  0  0  0  0  0  0  0
  138.5674   74.2146  220.7810 H   0  0  0  0  0  0  0  0  0  0  0  0
  139.9303   73.2554  220.1277 H   0  0  0  0  0  0  0  0  0  0  0  0
  139.8300   73.7760  223.1050 H   0  0  0  0  0  0  0  0  0  0  0  0
  139.0009   69.3338  222.8790 H   0  0  0  0  0  0  0  0  0  0  0  0
  139.1622   68.1599  225.0470 H   0  0  0  0  0  0  0  0  0  0  0  0
  139.7790   68.1918  227.3242 H   0  0  0  0  0  0  0  0  0  0  0  0
  140.7279   69.3973  229.2948 H   0  0  0  0  0  0  0  0  0  0  0  0
  141.4810   71.7495  229.0123 H   0  0  0  0  0  0  0  0  0  0  0  0
  141.3071   72.8918  226.8306 H   0  0  0  0  0  0  0  0  0  0  0  0
  1  2  1  0
  2  3  1  0
  3  4  1  0
  4  5  2  0
  4  6  1  0
  6  7  1  0
  7  8  1  0
  8  9  1  0
  9 10  1  0
 10 11  1  0
 11 12  2  0
 12 13  1  0
 13 14  2  0
 14 15  1  0
 15 16  2  0
  2 17  1  0
 17 18  2  0
 17 19  1  0
 19 20  1  0
 20 21  1  0
 21 22  2  0
 21 23  1  0
 23 24  2  0
 24 25  1  0
 25 26  2  0
 26 27  1  0
 27 28  2  0
 28 29  1  0
 29 30  2  0
 30 31  1  0
 31 32  2  0
 10  6  1  0
 16 11  1  0
 32 23  1  0
 31 26  1  0
  1 33  1  0
  1 34  1  0
  1 35  1  0
  3 36  1  0
  3 37  1  0
  7 38  1  0
  7 39  1  0
  8 40  1  0
  8 41  1  0
  9 42  1  0
  9 43  1  0
 10 44  1  1
 13 45  1  0
 14 46  1  0
 15 47  1  0
 19 48  1  0
 19 49  1  0
 20 50  1  0
 24 51  1  0
 25 52  1  0
 27 53  1  0
 28 54  1  0
 29 55  1  0
 30 56  1  0
M  END
>  <smiles>  (48) 
CN(CC(=O)N1CCC[C@H]1c1ncccn1)C(=O)CNC(=O)c1ccc2ccccc2n1

>  <score_type>  (48) 
oracle

>  <origin>  (48) 
autodockgpu

>  <m_score__min__energy>  (48) 
-8.3200000000000003

>  <m_primary>  (48) 
energy

>  <rmsd>  (48) 
1.8412012805000009

>  <m_score__min__rmsd>  (48) 
1.8412012805000009

>  <meeko>  (48) 
{"free_energy": -7.84, "intermolecular_energy": -10.23, "internal_energy": -2.97, "cluster_size": 19, "cluster_id": 2, "rank_in_cluster": 13}

>  <energy>  (48) 
-6.17

>  <cluster_rmsd>  (48) 
0.0

>  <cluster>  (48) 
5

$$$$

     RDKit          3D

 56 59  0  0  0  0  0  0  0  0999 V2000
  138.9460   76.1230  219.1130 C   0  0  0  0  0  0  0  0  0  0  0  0
  138.9270   76.4050  220.5560 N   0  0  0  0  0  0  0  0  0  0  0  0
  138.3260   77.5770  221.0860 C   0  0  0  0  0  0  0  0  0  0  0  0
  139.1630   78.7680  221.1060 C   0  0  0  0  0  0  0  0  0  0  0  0
  138.9720   79.5490  220.0870 O   0  0  0  0  0  0  0  0  0  0  0  0
  140.1310   79.2150  222.0230 N   0  0  0  0  0  0  0  0  0  0  0  0
  140.0930   79.3050  223.4750 C   0  0  0  0  0  0  0  0  0  0  0  0
  141.4620   79.8610  223.8700 C   0  0  0  0  0  0  0  0  0  0  0  0
  142.3390   79.4660  222.7170 C   0  0  0  0  0  0  0  0  0  0  0  0
  141.4450   79.7040  221.5530 C   0  0  1  0  0  0  0  0  0  0  0  0
  141.8270   78.8510  220.3910 C   0  0  0  0  0  0  0  0  0  0  0  0
  141.9500   79.3860  219.1440 N   0  0  0  0  0  0  0  0  0  0  0  0
  142.2940   78.6310  218.0860 C   0  0  0  0  0  0  0  0  0  0  0  0
  142.5310   77.2980  218.2350 C   0  0  0  0  0  0  0  0  0  0  0  0
  142.4010   76.7700  219.5150 C   0  0  0  0  0  0  0  0  0  0  0  0
  142.0570   77.5280  220.5720 N   0  0  0  0  0  0  0  0  0  0  0  0
  139.5170   75.4090  221.3900 C   0  0  0  0  0  0  0  0  0  0  0  0
  140.1310   75.7930  222.4310 O   0  0  0  0  0  0  0  0  0  0  0  0
  139.4480   73.9630  221.1060 C   0  0  0  0  0  0  0  0  0  0  0  0
  139.5940   73.2410  222.3490 N   0  0  0  0  0  0  0  0  0  0  0  0
  139.7220   71.8290  222.3720 C   0  0  0  0  0  0  0  0  0  0  0  0
  139.7120   71.1430  221.2940 O   0  0  0  0  0  0  0  0  0  0  0  0
  139.8680   71.1480  223.6760 C   0  0  0  0  0  0  0  0  0  0  0  0
  139.4940   69.8140  223.7710 C   0  0  0  0  0  0  0  0  0  0  0  0
  139.6020   69.1220  224.9420 C   0  0  0  0  0  0  0  0  0  0  0  0
  140.1000   69.7990  226.0390 C   0  0  0  0  0  0  0  0  0  0  0  0
  140.2130   69.1050  227.2300 C   0  0  0  0  0  0  0  0  0  0  0  0
  140.7060   69.7520  228.3410 C   0  0  0  0  0  0  0  0  0  0  0  0
  141.0720   71.0840  228.2190 C   0  0  0  0  0  0  0  0  0  0  0  0
  140.9520   71.7620  227.0170 C   0  0  0  0  0  0  0  0  0  0  0  0
  140.4590   71.1220  225.8990 C   0  0  0  0  0  0  0  0  0  0  0  0
  140.3510   71.8020  224.7430 N   0  0  0  0  0  0  0  0  0  0  0  0
  139.0191   75.0372  218.9525 H   0  0  0  0  0  0  0  0  0  0  0  0
  138.0204   76.5000  218.6535 H   0  0  0  0  0  0  0  0  0  0  0  0
  139.8126   76.6208  218.6535 H   0  0  0  0  0  0  0  0  0  0  0  0
  137.4349   77.8016  220.4815 H   0  0  0  0  0  0  0  0  0  0  0  0
  138.1080   77.3490  222.1398 H   0  0  0  0  0  0  0  0  0  0  0  0
  139.2909   79.9840  223.8000 H   0  0  0  0  0  0  0  0  0  0  0  0
  139.8896   78.3317  223.9454 H   0  0  0  0  0  0  0  0  0  0  0  0
  141.4262   80.9547  223.9816 H   0  0  0  0  0  0  0  0  0  0  0  0
  141.8210   79.4768  224.8362 H   0  0  0  0  0  0  0  0  0  0  0  0
  143.2390   80.0963  222.6652 H   0  0  0  0  0  0  0  0  0  0  0  0
  142.7188   78.4356  222.7812 H   0  0  0  0  0  0  0  0  0  0  0  0
  141.4759   80.7565  221.2346 H   0  0  0  0  0  0  0  0  0  0  0  0
  142.3848   79.0935  217.0921 H   0  0  0  0  0  0  0  0  0  0  0  0
  142.8131   76.6663  217.3798 H   0  0  0  0  0  0  0  0  0  0  0  0
  142.5856   75.6965  219.6684 H   0  0  0  0  0  0  0  0  0  0  0  0
  138.4771   73.7211  220.6489 H   0  0  0  0  0  0  0  0  0  0  0  0
  140.2507   73.6783  220.4098 H   0  0  0  0  0  0  0  0  0  0  0  0
  139.6090   73.7560  223.2640 H   0  0  0  0  0  0  0  0  0  0  0  0
  139.1009   69.3025  222.8800 H   0  0  0  0  0  0  0  0  0  0  0  0
  139.3040   68.0653  225.0102 H   0  0  0  0  0  0  0  0  0  0  0  0
  139.9125   68.0485  227.2890 H   0  0  0  0  0  0  0  0  0  0  0  0
  140.8070   69.2254  229.3015 H   0  0  0  0  0  0  0  0  0  0  0  0
  141.4671   71.6149  229.0977 H   0  0  0  0  0  0  0  0  0  0  0  0
  141.2520   72.8184  226.9536 H   0  0  0  0  0  0  0  0  0  0  0  0
  1  2  1  0
  2  3  1  0
  3  4  1  0
  4  5  2  0
  4  6  1  0
  6  7  1  0
  7  8  1  0
  8  9  1  0
  9 10  1  0
 10 11  1  0
 11 12  2  0
 12 13  1  0
 13 14  2  0
 14 15  1  0
 15 16  2  0
  2 17  1  0
 17 18  2  0
 17 19  1  0
 19 20  1  0
 20 21  1  0
 21 22  2  0
 21 23  1  0
 23 24  2  0
 24 25  1  0
 25 26  2  0
 26 27  1  0
 27 28  2  0
 28 29  1  0
 29 30  2  0
 30 31  1  0
 31 32  2  0
 10  6  1  0
 16 11  1  0
 32 23  1  0
 31 26  1  0
  1 33  1  0
  1 34  1  0
  1 35  1  0
  3 36  1  0
  3 37  1  0
  7 38  1  0
  7 39  1  0
  8 40  1  0
  8 41  1  0
  9 42  1  0
  9 43  1  0
 10 44  1  6
 13 45  1  0
 14 46  1  0
 15 47  1  0
 19 48  1  0
 19 49  1  0
 20 50  1  0
 24 51  1  0
 25 52  1  0
 27 53  1  0
 28 54  1  0
 29 55  1  0
 30 56  1  0
M  END
>  <smiles>  (49) 
CN(CC(=O)N1CCC[C@H]1c1ncccn1)C(=O)CNC(=O)c1ccc2ccccc2n1

>  <score_type>  (49) 
oracle

>  <origin>  (49) 
autodockgpu

>  <m_score__min__energy>  (49) 
-8.3200000000000003

>  <m_primary>  (49) 
energy

>  <rmsd>  (49) 
2.102429146878014

>  <m_score__min__rmsd>  (49) 
2.102429146878014

>  <meeko>  (49) 
{"free_energy": -7.74, "intermolecular_energy": -10.13, "internal_energy": -3.04, "cluster_size": 22, "cluster_id": 1, "rank_in_cluster": 17}

>  <energy>  (49) 
-5.91

>  <cluster_rmsd>  (49) 
0.0

>  <cluster>  (49) 
6

$$$$

     RDKit          3D

 56 59  0  0  0  0  0  0  0  0999 V2000
  137.3850   76.3230  221.7760 C   0  0  0  0  0  0  0  0  0  0  0  0
  138.2590   75.4630  220.9640 N   0  0  0  0  0  0  0  0  0  0  0  0
  138.5230   75.7350  219.5960 C   0  0  0  0  0  0  0  0  0  0  0  0
  139.6940   76.5570  219.3260 C   0  0  0  0  0  0  0  0  0  0  0  0
  139.4210   77.8200  219.2050 O   0  0  0  0  0  0  0  0  0  0  0  0
  141.0530   76.2270  219.1750 N   0  0  0  0  0  0  0  0  0  0  0  0
  141.8020   75.8060  218.0010 C   0  0  0  0  0  0  0  0  0  0  0  0
  143.2350   75.6120  218.4990 C   0  0  0  0  0  0  0  0  0  0  0  0
  143.3020   76.4990  219.7090 C   0  0  0  0  0  0  0  0  0  0  0  0
  141.9710   76.2710  220.3330 C   0  0  1  0  0  0  0  0  0  0  0  0
  141.5540   77.4370  221.1640 C   0  0  0  0  0  0  0  0  0  0  0  0
  140.8810   77.2540  222.3340 N   0  0  0  0  0  0  0  0  0  0  0  0
  140.4980   78.2940  223.0950 C   0  0  0  0  0  0  0  0  0  0  0  0
  140.7770   79.5710  222.7120 C   0  0  0  0  0  0  0  0  0  0  0  0
  141.4650   79.7380  221.5150 C   0  0  0  0  0  0  0  0  0  0  0  0
  141.8470   78.6960  220.7550 N   0  0  0  0  0  0  0  0  0  0  0  0
  138.8520   74.3600  221.6480 C   0  0  0  0  0  0  0  0  0  0  0  0
  139.8920   74.5800  222.3410 O   0  0  0  0  0  0  0  0  0  0  0  0
  138.3210   72.9840  221.5920 C   0  0  0  0  0  0  0  0  0  0  0  0
  138.7850   72.2620  222.7550 N   0  0  0  0  0  0  0  0  0  0  0  0
  138.4930   70.8870  222.9350 C   0  0  0  0  0  0  0  0  0  0  0  0
  137.8090   70.2350  222.0750 O   0  0  0  0  0  0  0  0  0  0  0  0
  138.9960   70.2050  224.1460 C   0  0  0  0  0  0  0  0  0  0  0  0
  138.8360   68.8280  224.2440 C   0  0  0  0  0  0  0  0  0  0  0  0
  139.2750   68.1320  225.3320 C   0  0  0  0  0  0  0  0  0  0  0  0
  139.8920   68.8490  226.3410 C   0  0  0  0  0  0  0  0  0  0  0  0
  140.3410   68.1510  227.4460 C   0  0  0  0  0  0  0  0  0  0  0  0
  140.9600   68.8370  228.4680 C   0  0  0  0  0  0  0  0  0  0  0  0
  141.1080   70.2090  228.3450 C   0  0  0  0  0  0  0  0  0  0  0  0
  140.6520   70.8910  227.2280 C   0  0  0  0  0  0  0  0  0  0  0  0
  140.0310   70.2130  226.2000 C   0  0  0  0  0  0  0  0  0  0  0  0
  139.5960   70.8960  225.1270 N   0  0  0  0  0  0  0  0  0  0  0  0
  137.5752   76.1358  222.8431 H   0  0  0  0  0  0  0  0  0  0  0  0
  137.5929   77.3784  221.5461 H   0  0  0  0  0  0  0  0  0  0  0  0
  136.3331   76.0980  221.5461 H   0  0  0  0  0  0  0  0  0  0  0  0
  138.6608   74.7726  219.0814 H   0  0  0  0  0  0  0  0  0  0  0  0
  137.6614   76.3166  219.2363 H   0  0  0  0  0  0  0  0  0  0  0  0
  141.3995   74.8630  217.6025 H   0  0  0  0  0  0  0  0  0  0  0  0
  141.7425   76.5416  217.1854 H   0  0  0  0  0  0  0  0  0  0  0  0
  143.4197   74.5618  218.7693 H   0  0  0  0  0  0  0  0  0  0  0  0
  143.9921   75.8599  217.7405 H   0  0  0  0  0  0  0  0  0  0  0  0
  144.1167   76.1952  220.3828 H   0  0  0  0  0  0  0  0  0  0  0  0
  143.5075   77.5540  219.4750 H   0  0  0  0  0  0  0  0  0  0  0  0
  141.9768   75.3754  220.9716 H   0  0  0  0  0  0  0  0  0  0  0  0
  139.9551   78.1122  224.0343 H   0  0  0  0  0  0  0  0  0  0  0  0
  140.4713   80.4330  223.3231 H   0  0  0  0  0  0  0  0  0  0  0  0
  141.7050   80.7573  221.1781 H   0  0  0  0  0  0  0  0  0  0  0  0
  137.2213   73.0112  221.5873 H   0  0  0  0  0  0  0  0  0  0  0  0
  138.6694   72.4842  220.6761 H   0  0  0  0  0  0  0  0  0  0  0  0
  139.3520   72.7510  223.4920 H   0  0  0  0  0  0  0  0  0  0  0  0
  138.3430   68.2857  223.4237 H   0  0  0  0  0  0  0  0  0  0  0  0
  139.1433   67.0423  225.4041 H   0  0  0  0  0  0  0  0  0  0  0  0
  140.2059   67.0611  227.5088 H   0  0  0  0  0  0  0  0  0  0  0  0
  141.3277   68.3083  229.3598 H   0  0  0  0  0  0  0  0  0  0  0  0
  141.5992   70.7705  229.1533 H   0  0  0  0  0  0  0  0  0  0  0  0
  140.7863   71.9807  227.1609 H   0  0  0  0  0  0  0  0  0  0  0  0
  1  2  1  0
  2  3  1  0
  3  4  1  0
  4  5  2  0
  4  6  1  0
  6  7  1  0
  7  8  1  0
  8  9  1  0
  9 10  1  0
 10 11  1  0
 11 12  2  0
 12 13  1  0
 13 14  2  0
 14 15  1  0
 15 16  2  0
  2 17  1  0
 17 18  2  0
 17 19  1  0
 19 20  1  0
 20 21  1  0
 21 22  2  0
 21 23  1  0
 23 24  2  0
 24 25  1  0
 25 26  2  0
 26 27  1  0
 27 28  2  0
 28 29  1  0
 29 30  2  0
 30 31  1  0
 31 32  2  0
 10  6  1  0
 16 11  1  0
 32 23  1  0
 31 26  1  0
  1 33  1  0
  1 34  1  0
  1 35  1  0
  3 36  1  0
  3 37  1  0
  7 38  1  0
  7 39  1  0
  8 40  1  0
  8 41  1  0
  9 42  1  0
  9 43  1  0
 10 44  1  1
 13 45  1  0
 14 46  1  0
 15 47  1  0
 19 48  1  0
 19 49  1  0
 20 50  1  0
 24 51  1  0
 25 52  1  0
 27 53  1  0
 28 54  1  0
 29 55  1  0
 30 56  1  0
M  END
>  <smiles>  (50) 
CN(CC(=O)N1CCC[C@H]1c1ncccn1)C(=O)CNC(=O)c1ccc2ccccc2n1

>  <score_type>  (50) 
oracle

>  <origin>  (50) 
autodockgpu

>  <m_score__min__energy>  (50) 
-8.3200000000000003

>  <m_primary>  (50) 
energy

>  <rmsd>  (50) 
3.140441525956206

>  <m_score__min__rmsd>  (50) 
3.140441525956206

>  <meeko>  (50) 
{"free_energy": -7.05, "intermolecular_energy": -9.44, "internal_energy": -3.01, "cluster_size": 5, "cluster_id": 3, "rank_in_cluster": 3}

>  <energy>  (50) 
-5.59

>  <cluster_rmsd>  (50) 
0.0

>  <cluster>  (50) 
7

$$$$
