
     RDKit          3D

 68 73  0  0  0  0  0  0  0  0999 V2000
  140.3280   67.3940  226.6590 C   0  0  0  0  0  0  0  0  0  0  0  0
  141.4220   68.2260  226.7410 C   0  0  0  0  0  0  0  0  0  0  0  0
  141.3980   69.4600  226.1270 C   0  0  0  0  0  0  0  0  0  0  0  0
  140.2930   69.9020  225.4180 C   0  0  0  0  0  0  0  0  0  0  0  0
  139.2200   69.0650  225.3490 C   0  0  0  0  0  0  0  0  0  0  0  0
  139.2100   67.8090  225.9580 C   0  0  0  0  0  0  0  0  0  0  0  0
  138.0230   69.5510  224.5770 C   0  0  0  0  0  0  0  0  0  0  0  0
  138.5510   70.2750  223.3730 C   0  0  0  0  0  0  0  0  0  0  0  0
  139.3020   71.5190  223.7870 C   0  0  2  0  0  0  0  0  0  0  0  0
  139.9800   72.0570  222.5730 C   0  0  0  0  0  0  0  0  0  0  0  0
  140.4870   71.2840  221.6020 N   0  0  0  0  0  0  0  0  0  0  0  0
  141.0830   71.8090  220.5340 C   0  0  0  0  0  0  0  0  0  0  0  0
  141.6150   70.9620  219.5250 N   0  0  0  0  0  0  0  0  0  0  0  0
  142.9620   71.1360  219.0070 C   0  0  0  0  0  0  0  0  0  0  0  0
  143.9900   71.1220  220.1070 C   0  0  0  0  0  0  0  0  0  0  0  0
  144.3520   72.4460  220.5460 N   0  0  0  0  0  0  0  0  0  0  0  0
  143.9650   73.4970  219.6320 C   0  0  0  0  0  0  0  0  0  0  0  0
  144.5220   74.7140  220.3830 C   0  0  0  0  0  0  0  0  0  0  0  0
  145.8650   74.1670  220.8220 C   0  0  0  0  0  0  0  0  0  0  0  0
  145.7640   72.6460  220.6470 C   0  0  0  0  0  0  0  0  0  0  0  0
  141.1610   73.1630  220.4590 N   0  0  0  0  0  0  0  0  0  0  0  0
  140.6700   73.9840  221.4030 C   0  0  0  0  0  0  0  0  0  0  0  0
  140.7740   75.3970  221.2860 N   0  0  0  0  0  0  0  0  0  0  0  0
  141.3230   75.9750  220.0760 C   0  0  0  0  0  0  0  0  0  0  0  0
  140.7600   77.3750  219.9100 C   0  0  0  0  0  0  0  0  0  0  0  0
  141.2600   78.1460  221.0830 C   0  0  0  0  0  0  0  0  0  0  0  0
  141.9010   79.3590  220.9660 C   0  0  0  0  0  0  0  0  0  0  0  0
  142.3340   80.0100  222.1230 C   0  0  0  0  0  0  0  0  0  0  0  0
  142.1230   79.4410  223.3820 C   0  0  0  0  0  0  0  0  0  0  0  0
  141.4720   78.2110  223.4810 C   0  0  0  0  0  0  0  0  0  0  0  0
  141.0490   77.5800  222.3260 C   0  0  0  0  0  0  0  0  0  0  0  0
  140.3490   76.2700  222.3520 C   0  0  0  0  0  0  0  0  0  0  0  0
  140.0780   73.3990  222.4620 N   0  0  0  0  0  0  0  0  0  0  0  0
  140.3770   71.2370  224.8000 C   0  0  0  0  0  0  0  0  0  0  0  0
  140.3429   66.4081  227.1466 H   0  0  0  0  0  0  0  0  0  0  0  0
  142.3157   67.9058  227.2968 H   0  0  0  0  0  0  0  0  0  0  0  0
  142.2809   70.1119  226.2021 H   0  0  0  0  0  0  0  0  0  0  0  0
  138.3261   67.1588  225.8816 H   0  0  0  0  0  0  0  0  0  0  0  0
  137.4018   68.6986  224.2646 H   0  0  0  0  0  0  0  0  0  0  0  0
  137.3967   70.2127  225.1934 H   0  0  0  0  0  0  0  0  0  0  0  0
  139.2306   69.6096  222.8204 H   0  0  0  0  0  0  0  0  0  0  0  0
  137.7036   70.5681  222.7358 H   0  0  0  0  0  0  0  0  0  0  0  0
  138.5789   72.2179  224.2328 H   0  0  0  0  0  0  0  0  0  0  0  0
  141.0450   70.1810  219.1240 H   0  0  0  0  0  0  0  0  0  0  0  0
  143.1815   70.3189  218.3041 H   0  0  0  0  0  0  0  0  0  0  0  0
  143.0117   72.1134  218.5049 H   0  0  0  0  0  0  0  0  0  0  0  0
  143.5811   70.5665  220.9639 H   0  0  0  0  0  0  0  0  0  0  0  0
  144.8971   70.6443  219.7083 H   0  0  0  0  0  0  0  0  0  0  0  0
  144.4353   73.3747  218.6452 H   0  0  0  0  0  0  0  0  0  0  0  0
  142.8899   73.5429  219.4039 H   0  0  0  0  0  0  0  0  0  0  0  0
  144.6338   75.5852  219.7208 H   0  0  0  0  0  0  0  0  0  0  0  0
  143.8848   75.0830  221.2002 H   0  0  0  0  0  0  0  0  0  0  0  0
  146.6703   74.5739  220.1928 H   0  0  0  0  0  0  0  0  0  0  0  0
  146.0993   74.4441  221.8605 H   0  0  0  0  0  0  0  0  0  0  0  0
  146.2800   72.3146  219.7338 H   0  0  0  0  0  0  0  0  0  0  0  0
  146.2332   72.0759  221.4624 H   0  0  0  0  0  0  0  0  0  0  0  0
  142.4193   76.0230  220.1524 H   0  0  0  0  0  0  0  0  0  0  0  0
  141.0534   75.3559  219.2077 H   0  0  0  0  0  0  0  0  0  0  0  0
  141.1188   77.8251  218.9727 H   0  0  0  0  0  0  0  0  0  0  0  0
  139.6610   77.3703  219.8627 H   0  0  0  0  0  0  0  0  0  0  0  0
  142.0694   79.8084  219.9762 H   0  0  0  0  0  0  0  0  0  0  0  0
  142.8462   80.9802  222.0427 H   0  0  0  0  0  0  0  0  0  0  0  0
  142.4679   79.9595  224.2888 H   0  0  0  0  0  0  0  0  0  0  0  0
  141.2978   77.7498  224.4643 H   0  0  0  0  0  0  0  0  0  0  0  0
  140.5553   75.7785  223.3142 H   0  0  0  0  0  0  0  0  0  0  0  0
  139.2741   76.4621  222.2190 H   0  0  0  0  0  0  0  0  0  0  0  0
  141.3529   71.3243  224.3000 H   0  0  0  0  0  0  0  0  0  0  0  0
  140.2451   71.9683  225.6110 H   0  0  0  0  0  0  0  0  0  0  0  0
  1  2  2  0
  2  3  1  0
  3  4  2  0
  4  5  1  0
  5  6  2  0
  5  7  1  0
  7  8  1  0
  8  9  1  0
  9 10  1  0
 10 11  2  0
 11 12  1  0
 12 13  1  0
 13 14  1  0
 14 15  1  0
 15 16  1  0
 16 17  1  0
 17 18  1  0
 18 19  1  0
 19 20  1  0
 12 21  2  0
 21 22  1  0
 22 23  1  0
 23 24  1  0
 24 25  1  0
 25 26  1  0
 26 27  2  0
 27 28  1  0
 28 29  2  0
 29 30  1  0
 30 31  2  0
 31 32  1  0
 22 33  2  0
  9 34  1  0
  6  1  1  0
 33 10  1  0
 34  4  1  0
 20 16  1  0
 32 23  1  0
 31 26  1  0
  1 35  1  0
  2 36  1  0
  3 37  1  0
  6 38  1  0
  7 39  1  0
  7 40  1  0
  8 41  1  0
  8 42  1  0
  9 43  1  1
 13 44  1  0
 14 45  1  0
 14 46  1  0
 15 47  1  0
 15 48  1  0
 17 49  1  0
 17 50  1  0
 18 51  1  0
 18 52  1  0
 19 53  1  0
 19 54  1  0
 20 55  1  0
 20 56  1  0
 24 57  1  0
 24 58  1  0
 25 59  1  0
 25 60  1  0
 27 61  1  0
 28 62  1  0
 29 63  1  0
 30 64  1  0
 32 65  1  0
 32 66  1  0
 34 67  1  0
 34 68  1  0
M  END
>  <smiles>  (1) 
c1ccc2c(c1)CCC(c1nc(NCCN3CCCC3)nc(N3CCc4ccccc4C3)n1)C2

>  <score_type>  (1) 
oracle

>  <origin>  (1) 
autodockgpu

>  <m_score__min__energy>  (1) 
-10.43

>  <m_primary>  (1) 
energy

>  <rmsd>  (1) 
5.851241546916959

>  <m_score__min__rmsd>  (1) 
5.851241546916959

>  <meeko>  (1) 
{"free_energy": -9.81, "intermolecular_energy": -11.6, "internal_energy": -1.73, "cluster_size": 33, "cluster_id": 2, "rank_in_cluster": 23}

>  <energy>  (1) 
-10.43

>  <cluster_rmsd>  (1) 
0.0

>  <cluster>  (1) 
1

$$$$

     RDKit          3D

 68 73  0  0  0  0  0  0  0  0999 V2000
  144.8180   67.4200  219.2850 C   0  0  0  0  0  0  0  0  0  0  0  0
  143.4480   67.3150  219.1900 C   0  0  0  0  0  0  0  0  0  0  0  0
  142.6720   68.4530  219.1370 C   0  0  0  0  0  0  0  0  0  0  0  0
  143.2290   69.7200  219.1770 C   0  0  0  0  0  0  0  0  0  0  0  0
  144.5860   69.8030  219.2700 C   0  0  0  0  0  0  0  0  0  0  0  0
  145.4020   68.6730  219.3250 C   0  0  0  0  0  0  0  0  0  0  0  0
  145.1850   71.1840  219.3130 C   0  0  0  0  0  0  0  0  0  0  0  0
  144.2730   72.0240  220.1590 C   0  0  0  0  0  0  0  0  0  0  0  0
  142.9260   72.1830  219.4920 C   0  0  2  0  0  0  0  0  0  0  0  0
  142.0120   72.8290  220.4760 C   0  0  0  0  0  0  0  0  0  0  0  0
  141.2090   72.1450  221.3040 N   0  0  0  0  0  0  0  0  0  0  0  0
  140.4100   72.7650  222.1690 C   0  0  0  0  0  0  0  0  0  0  0  0
  139.5660   72.0100  223.0280 N   0  0  0  0  0  0  0  0  0  0  0  0
  139.3660   70.5810  222.8470 C   0  0  0  0  0  0  0  0  0  0  0  0
  139.8850   69.7910  224.0190 C   0  0  0  0  0  0  0  0  0  0  0  0
  140.0360   70.5930  225.2070 N   0  0  0  0  0  0  0  0  0  0  0  0
  141.3790   71.0820  225.4220 C   0  0  0  0  0  0  0  0  0  0  0  0
  141.1740   71.8350  226.7440 C   0  0  0  0  0  0  0  0  0  0  0  0
  140.3030   70.8420  227.4860 C   0  0  0  0  0  0  0  0  0  0  0  0
  139.7860   69.8710  226.4150 C   0  0  0  0  0  0  0  0  0  0  0  0
  140.4350   74.1220  222.1880 N   0  0  0  0  0  0  0  0  0  0  0  0
  141.2210   74.8570  221.3820 C   0  0  0  0  0  0  0  0  0  0  0  0
  141.2160   76.2780  221.4330 N   0  0  0  0  0  0  0  0  0  0  0  0
  141.6580   77.0350  220.2800 C   0  0  0  0  0  0  0  0  0  0  0  0
  140.9870   78.3960  220.3080 C   0  0  0  0  0  0  0  0  0  0  0  0
  141.4900   79.0610  221.5420 C   0  0  0  0  0  0  0  0  0  0  0  0
  142.0340   80.3260  221.5460 C   0  0  0  0  0  0  0  0  0  0  0  0
  142.4780   80.8680  222.7530 C   0  0  0  0  0  0  0  0  0  0  0  0
  142.3740   80.1410  223.9430 C   0  0  0  0  0  0  0  0  0  0  0  0
  141.8200   78.8620  223.9200 C   0  0  0  0  0  0  0  0  0  0  0  0
  141.3850   78.3390  222.7160 C   0  0  0  0  0  0  0  0  0  0  0  0
  140.7840   76.9840  222.6130 C   0  0  0  0  0  0  0  0  0  0  0  0
  142.0080   74.1790  220.5260 N   0  0  0  0  0  0  0  0  0  0  0  0
  142.3040   70.8660  219.1160 C   0  0  0  0  0  0  0  0  0  0  0  0
  145.4421   66.5153  219.3287 H   0  0  0  0  0  0  0  0  0  0  0  0
  142.9732   66.3233  219.1564 H   0  0  0  0  0  0  0  0  0  0  0  0
  141.5793   68.3517  219.0608 H   0  0  0  0  0  0  0  0  0  0  0  0
  146.4945   68.7770  219.3991 H   0  0  0  0  0  0  0  0  0  0  0  0
  146.1896   71.1477  219.7596 H   0  0  0  0  0  0  0  0  0  0  0  0
  145.2840   71.6038  218.3011 H   0  0  0  0  0  0  0  0  0  0  0  0
  144.1373   71.5383  221.1366 H   0  0  0  0  0  0  0  0  0  0  0  0
  144.7247   73.0186  220.2880 H   0  0  0  0  0  0  0  0  0  0  0  0
  143.0721   72.7724  218.5748 H   0  0  0  0  0  0  0  0  0  0  0  0
  139.0610   72.4670  223.8220 H   0  0  0  0  0  0  0  0  0  0  0  0
  138.2899   70.3837  222.7331 H   0  0  0  0  0  0  0  0  0  0  0  0
  139.9222   70.2687  221.9508 H   0  0  0  0  0  0  0  0  0  0  0  0
  139.1798   68.9743  224.2329 H   0  0  0  0  0  0  0  0  0  0  0  0
  140.8800   69.4085  223.7475 H   0  0  0  0  0  0  0  0  0  0  0  0
  142.1019   70.2596  225.5274 H   0  0  0  0  0  0  0  0  0  0  0  0
  141.7910   71.6870  224.6009 H   0  0  0  0  0  0  0  0  0  0  0  0
  142.1268   72.0102  227.2651 H   0  0  0  0  0  0  0  0  0  0  0  0
  140.7410   72.8408  226.6397 H   0  0  0  0  0  0  0  0  0  0  0  0
  140.8928   70.3025  228.2417 H   0  0  0  0  0  0  0  0  0  0  0  0
  139.4789   71.3394  228.0184 H   0  0  0  0  0  0  0  0  0  0  0  0
  140.3422   68.9222  226.4350 H   0  0  0  0  0  0  0  0  0  0  0  0
  138.7320   69.5861  226.5491 H   0  0  0  0  0  0  0  0  0  0  0  0
  142.7504   77.1596  220.3151 H   0  0  0  0  0  0  0  0  0  0  0  0
  141.3896   76.5027  219.3556 H   0  0  0  0  0  0  0  0  0  0  0  0
  141.2628   78.9792  219.4171 H   0  0  0  0  0  0  0  0  0  0  0  0
  139.8903   78.3109  220.3078 H   0  0  0  0  0  0  0  0  0  0  0  0
  142.1174   80.9007  220.6118 H   0  0  0  0  0  0  0  0  0  0  0  0
  142.9143   81.8776  222.7684 H   0  0  0  0  0  0  0  0  0  0  0  0
  142.7267   80.5751  224.8902 H   0  0  0  0  0  0  0  0  0  0  0  0
  141.7301   78.2767  224.8470 H   0  0  0  0  0  0  0  0  0  0  0  0
  141.0743   76.4008  223.4994 H   0  0  0  0  0  0  0  0  0  0  0  0
  139.6926   77.1058  222.5494 H   0  0  0  0  0  0  0  0  0  0  0  0
  141.4678   70.6710  219.8035 H   0  0  0  0  0  0  0  0  0  0  0  0
  141.9828   70.9567  218.0679 H   0  0  0  0  0  0  0  0  0  0  0  0
  1  2  2  0
  2  3  1  0
  3  4  2  0
  4  5  1  0
  5  6  2  0
  5  7  1  0
  7  8  1  0
  8  9  1  0
  9 10  1  0
 10 11  2  0
 11 12  1  0
 12 13  1  0
 13 14  1  0
 14 15  1  0
 15 16  1  0
 16 17  1  0
 17 18  1  0
 18 19  1  0
 19 20  1  0
 12 21  2  0
 21 22  1  0
 22 23  1  0
 23 24  1  0
 24 25  1  0
 25 26  1  0
 26 27  2  0
 27 28  1  0
 28 29  2  0
 29 30  1  0
 30 31  2  0
 31 32  1  0
 22 33  2  0
  9 34  1  0
  6  1  1  0
 33 10  1  0
 34  4  1  0
 20 16  1  0
 32 23  1  0
 31 26  1  0
  1 35  1  0
  2 36  1  0
  3 37  1  0
  6 38  1  0
  7 39  1  0
  7 40  1  0
  8 41  1  0
  8 42  1  0
  9 43  1  6
 13 44  1  0
 14 45  1  0
 14 46  1  0
 15 47  1  0
 15 48  1  0
 17 49  1  0
 17 50  1  0
 18 51  1  0
 18 52  1  0
 19 53  1  0
 19 54  1  0
 20 55  1  0
 20 56  1  0
 24 57  1  0
 24 58  1  0
 25 59  1  0
 25 60  1  0
 27 61  1  0
 28 62  1  0
 29 63  1  0
 30 64  1  0
 32 65  1  0
 32 66  1  0
 34 67  1  0
 34 68  1  0
M  END
>  <smiles>  (2) 
c1ccc2c(c1)CCC(c1nc(NCCN3CCCC3)nc(N3CCc4ccccc4C3)n1)C2

>  <score_type>  (2) 
oracle

>  <origin>  (2) 
autodockgpu

>  <m_score__min__energy>  (2) 
-10.43

>  <m_primary>  (2) 
energy

>  <rmsd>  (2) 
7.958879531275518

>  <m_score__min__rmsd>  (2) 
7.958879531275518

>  <meeko>  (2) 
{"free_energy": -9.73, "intermolecular_energy": -11.52, "internal_energy": -1.58, "cluster_size": 13, "cluster_id": 1, "rank_in_cluster": 11}

>  <energy>  (2) 
-10.41

>  <cluster_rmsd>  (2) 
0.42

>  <cluster>  (2) 
1

$$$$

     RDKit          3D

 68 73  0  0  0  0  0  0  0  0999 V2000
  140.2430   67.7980  226.8270 C   0  0  0  0  0  0  0  0  0  0  0  0
  141.0590   68.8370  227.2170 C   0  0  0  0  0  0  0  0  0  0  0  0
  141.0390   70.0270  226.5210 C   0  0  0  0  0  0  0  0  0  0  0  0
  140.2140   70.2200  225.4260 C   0  0  0  0  0  0  0  0  0  0  0  0
  139.4140   69.1800  225.0560 C   0  0  0  0  0  0  0  0  0  0  0  0
  139.4080   67.9620  225.7370 C   0  0  0  0  0  0  0  0  0  0  0  0
  138.5210   69.3960  223.8640 C   0  0  0  0  0  0  0  0  0  0  0  0
  139.3150   70.1870  222.8660 C   0  0  0  0  0  0  0  0  0  0  0  0
  139.6210   71.5660  223.4030 C   0  0  2  0  0  0  0  0  0  0  0  0
  140.5890   72.2060  222.4680 C   0  0  0  0  0  0  0  0  0  0  0  0
  141.5140   71.5240  221.7760 N   0  0  0  0  0  0  0  0  0  0  0  0
  142.3580   72.1380  220.9500 C   0  0  0  0  0  0  0  0  0  0  0  0
  143.3310   71.3870  220.2360 N   0  0  0  0  0  0  0  0  0  0  0  0
  144.5290   72.0030  219.6900 C   0  0  0  0  0  0  0  0  0  0  0  0
  145.3710   71.0130  218.9310 C   0  0  0  0  0  0  0  0  0  0  0  0
  145.1220   69.6510  219.3300 N   0  0  0  0  0  0  0  0  0  0  0  0
  146.2890   68.7990  219.2810 C   0  0  0  0  0  0  0  0  0  0  0  0
  145.6610   67.4700  219.7210 C   0  0  0  0  0  0  0  0  0  0  0  0
  144.3730   67.5060  218.9250 C   0  0  0  0  0  0  0  0  0  0  0  0
  144.2170   68.9620  218.4650 C   0  0  0  0  0  0  0  0  0  0  0  0
  142.2510   73.4860  220.8280 N   0  0  0  0  0  0  0  0  0  0  0  0
  141.3430   74.2180  221.4960 C   0  0  0  0  0  0  0  0  0  0  0  0
  141.2650   75.6290  221.3410 N   0  0  0  0  0  0  0  0  0  0  0  0
  141.8240   76.2490  220.1570 C   0  0  0  0  0  0  0  0  0  0  0  0
  141.0930   77.5540  219.9030 C   0  0  0  0  0  0  0  0  0  0  0  0
  141.3920   78.4130  221.0830 C   0  0  0  0  0  0  0  0  0  0  0  0
  141.8720   79.6990  220.9740 C   0  0  0  0  0  0  0  0  0  0  0  0
  142.1230   80.4290  222.1370 C   0  0  0  0  0  0  0  0  0  0  0  0
  141.8930   79.8660  223.3960 C   0  0  0  0  0  0  0  0  0  0  0  0
  141.4070   78.5620  223.4870 C   0  0  0  0  0  0  0  0  0  0  0  0
  141.1640   77.8530  222.3260 C   0  0  0  0  0  0  0  0  0  0  0  0
  140.6450   76.4600  222.3430 C   0  0  0  0  0  0  0  0  0  0  0  0
  140.5150   73.5460  222.3190 N   0  0  0  0  0  0  0  0  0  0  0  0
  140.2770   71.5310  224.7560 C   0  0  0  0  0  0  0  0  0  0  0  0
  140.2555   66.8460  227.3779 H   0  0  0  0  0  0  0  0  0  0  0  0
  141.7263   68.7173  228.0833 H   0  0  0  0  0  0  0  0  0  0  0  0
  141.6973   70.8465  226.8450 H   0  0  0  0  0  0  0  0  0  0  0  0
  138.7485   67.1440  225.4114 H   0  0  0  0  0  0  0  0  0  0  0  0
  138.2255   68.4286  223.4318 H   0  0  0  0  0  0  0  0  0  0  0  0
  137.6025   69.9295  224.1500 H   0  0  0  0  0  0  0  0  0  0  0  0
  140.2591   69.6624  222.6577 H   0  0  0  0  0  0  0  0  0  0  0  0
  138.7247   70.2885  221.9434 H   0  0  0  0  0  0  0  0  0  0  0  0
  138.6699   72.1113  223.4926 H   0  0  0  0  0  0  0  0  0  0  0  0
  143.2100   70.3590  220.0850 H   0  0  0  0  0  0  0  0  0  0  0  0
  144.2332   72.8146  219.0090 H   0  0  0  0  0  0  0  0  0  0  0  0
  145.1275   72.3885  220.5286 H   0  0  0  0  0  0  0  0  0  0  0  0
  145.1492   71.1117  217.8581 H   0  0  0  0  0  0  0  0  0  0  0  0
  146.4256   71.2363  219.1502 H   0  0  0  0  0  0  0  0  0  0  0  0
  146.7080   68.7372  218.2658 H   0  0  0  0  0  0  0  0  0  0  0  0
  147.1381   69.1374  219.8930 H   0  0  0  0  0  0  0  0  0  0  0  0
  146.2885   66.6107  219.4420 H   0  0  0  0  0  0  0  0  0  0  0  0
  145.5292   67.3592  220.8074 H   0  0  0  0  0  0  0  0  0  0  0  0
  144.4383   66.8333  218.0571 H   0  0  0  0  0  0  0  0  0  0  0  0
  143.5130   67.1726  219.5243 H   0  0  0  0  0  0  0  0  0  0  0  0
  144.5058   69.0800  217.4102 H   0  0  0  0  0  0  0  0  0  0  0  0
  143.1834   69.3342  218.5209 H   0  0  0  0  0  0  0  0  0  0  0  0
  142.8945   76.4482  220.3133 H   0  0  0  0  0  0  0  0  0  0  0  0
  141.7088   75.5792  219.2921 H   0  0  0  0  0  0  0  0  0  0  0  0
  141.4599   78.0270  218.9801 H   0  0  0  0  0  0  0  0  0  0  0  0
  140.0117   77.3982  219.7748 H   0  0  0  0  0  0  0  0  0  0  0  0
  142.0549   80.1445  219.9850 H   0  0  0  0  0  0  0  0  0  0  0  0
  142.5056   81.4576  222.0622 H   0  0  0  0  0  0  0  0  0  0  0  0
  142.0939   80.4473  224.3080 H   0  0  0  0  0  0  0  0  0  0  0  0
  141.2197   78.1041  224.4695 H   0  0  0  0  0  0  0  0  0  0  0  0
  140.8392   76.0230  223.3336 H   0  0  0  0  0  0  0  0  0  0  0  0
  139.5678   76.5013  222.1241 H   0  0  0  0  0  0  0  0  0  0  0  0
  141.3353   71.8047  224.6331 H   0  0  0  0  0  0  0  0  0  0  0  0
  139.7243   72.2374  225.3928 H   0  0  0  0  0  0  0  0  0  0  0  0
  1  2  2  0
  2  3  1  0
  3  4  2  0
  4  5  1  0
  5  6  2  0
  5  7  1  0
  7  8  1  0
  8  9  1  0
  9 10  1  0
 10 11  2  0
 11 12  1  0
 12 13  1  0
 13 14  1  0
 14 15  1  0
 15 16  1  0
 16 17  1  0
 17 18  1  0
 18 19  1  0
 19 20  1  0
 12 21  2  0
 21 22  1  0
 22 23  1  0
 23 24  1  0
 24 25  1  0
 25 26  1  0
 26 27  2  0
 27 28  1  0
 28 29  2  0
 29 30  1  0
 30 31  2  0
 31 32  1  0
 22 33  2  0
  9 34  1  0
  6  1  1  0
 33 10  1  0
 34  4  1  0
 20 16  1  0
 32 23  1  0
 31 26  1  0
  1 35  1  0
  2 36  1  0
  3 37  1  0
  6 38  1  0
  7 39  1  0
  7 40  1  0
  8 41  1  0
  8 42  1  0
  9 43  1  1
 13 44  1  0
 14 45  1  0
 14 46  1  0
 15 47  1  0
 15 48  1  0
 17 49  1  0
 17 50  1  0
 18 51  1  0
 18 52  1  0
 19 53  1  0
 19 54  1  0
 20 55  1  0
 20 56  1  0
 24 57  1  0
 24 58  1  0
 25 59  1  0
 25 60  1  0
 27 61  1  0
 28 62  1  0
 29 63  1  0
 30 64  1  0
 32 65  1  0
 32 66  1  0
 34 67  1  0
 34 68  1  0
M  END
>  <smiles>  (3) 
c1ccc2c(c1)CCC(c1nc(NCCN3CCCC3)nc(N3CCc4ccccc4C3)n1)C2

>  <score_type>  (3) 
oracle

>  <origin>  (3) 
autodockgpu

>  <m_score__min__energy>  (3) 
-10.43

>  <m_primary>  (3) 
energy

>  <rmsd>  (3) 
8.396047671272813

>  <m_score__min__rmsd>  (3) 
8.396047671272813

>  <meeko>  (3) 
{"free_energy": -10.11, "intermolecular_energy": -11.9, "internal_energy": -1.71, "cluster_size": 33, "cluster_id": 2, "rank_in_cluster": 6}

>  <energy>  (3) 
-10.4

>  <cluster_rmsd>  (3) 
0.16

>  <cluster>  (3) 
1

$$$$

     RDKit          3D

 68 73  0  0  0  0  0  0  0  0999 V2000
  140.4400   67.6440  226.4030 C   0  0  0  0  0  0  0  0  0  0  0  0
  141.4580   68.5510  226.5970 C   0  0  0  0  0  0  0  0  0  0  0  0
  141.4030   69.7890  225.9940 C   0  0  0  0  0  0  0  0  0  0  0  0
  140.3430   70.1620  225.1860 C   0  0  0  0  0  0  0  0  0  0  0  0
  139.3450   69.2510  225.0050 C   0  0  0  0  0  0  0  0  0  0  0  0
  139.3680   67.9890  225.6000 C   0  0  0  0  0  0  0  0  0  0  0  0
  138.1950   69.6630  224.1250 C   0  0  0  0  0  0  0  0  0  0  0  0
  138.7830   70.4410  222.9840 C   0  0  0  0  0  0  0  0  0  0  0  0
  139.3990   71.7290  223.4790 C   0  0  2  0  0  0  0  0  0  0  0  0
  140.1500   72.3330  222.3420 C   0  0  0  0  0  0  0  0  0  0  0  0
  140.7220   71.6140  221.3650 N   0  0  0  0  0  0  0  0  0  0  0  0
  141.3810   72.1970  220.3670 C   0  0  0  0  0  0  0  0  0  0  0  0
  141.9820   71.4060  219.3500 N   0  0  0  0  0  0  0  0  0  0  0  0
  142.9540   70.3690  219.6570 C   0  0  0  0  0  0  0  0  0  0  0  0
  144.3580   70.9130  219.6960 C   0  0  0  0  0  0  0  0  0  0  0  0
  144.4130   72.2760  220.1600 N   0  0  0  0  0  0  0  0  0  0  0  0
  144.2800   73.2620  219.1120 C   0  0  0  0  0  0  0  0  0  0  0  0
  144.4150   74.5460  219.9430 C   0  0  0  0  0  0  0  0  0  0  0  0
  145.5590   74.1540  220.8560 C   0  0  0  0  0  0  0  0  0  0  0  0
  145.6710   72.6280  220.7400 C   0  0  0  0  0  0  0  0  0  0  0  0
  141.4570   73.5520  220.3690 N   0  0  0  0  0  0  0  0  0  0  0  0
  140.9020   74.3210  221.3220 C   0  0  0  0  0  0  0  0  0  0  0  0
  141.0050   75.7390  221.2880 N   0  0  0  0  0  0  0  0  0  0  0  0
  141.6600   76.3800  220.1660 C   0  0  0  0  0  0  0  0  0  0  0  0
  141.1040   77.7840  220.0190 C   0  0  0  0  0  0  0  0  0  0  0  0
  141.4850   78.4960  221.2700 C   0  0  0  0  0  0  0  0  0  0  0  0
  142.1240   79.7150  221.2770 C   0  0  0  0  0  0  0  0  0  0  0  0
  142.4420   80.3070  222.5000 C   0  0  0  0  0  0  0  0  0  0  0  0
  142.1180   79.6740  223.7040 C   0  0  0  0  0  0  0  0  0  0  0  0
  141.4710   78.4390  223.6790 C   0  0  0  0  0  0  0  0  0  0  0  0
  141.1640   77.8670  222.4580 C   0  0  0  0  0  0  0  0  0  0  0  0
  140.4740   76.5540  222.3510 C   0  0  0  0  0  0  0  0  0  0  0  0
  140.2470   73.6790  222.3080 N   0  0  0  0  0  0  0  0  0  0  0  0
  140.3890   71.5090  224.5900 C   0  0  0  0  0  0  0  0  0  0  0  0
  140.4791   66.6546  226.8821 H   0  0  0  0  0  0  0  0  0  0  0  0
  142.3154   68.2872  227.2336 H   0  0  0  0  0  0  0  0  0  0  0  0
  142.2250   70.5010  226.1596 H   0  0  0  0  0  0  0  0  0  0  0  0
  138.5451   67.2785  225.4328 H   0  0  0  0  0  0  0  0  0  0  0  0
  137.6695   68.7738  223.7467 H   0  0  0  0  0  0  0  0  0  0  0  0
  137.4664   70.2690  224.6835 H   0  0  0  0  0  0  0  0  0  0  0  0
  139.5589   69.8340  222.4946 H   0  0  0  0  0  0  0  0  0  0  0  0
  137.9819   70.6829  222.2700 H   0  0  0  0  0  0  0  0  0  0  0  0
  138.5873   72.3675  223.8576 H   0  0  0  0  0  0  0  0  0  0  0  0
  141.7360   71.5490  218.3430 H   0  0  0  0  0  0  0  0  0  0  0  0
  142.7131   69.9343  220.6383 H   0  0  0  0  0  0  0  0  0  0  0  0
  142.9039   69.6077  218.8646 H   0  0  0  0  0  0  0  0  0  0  0  0
  144.9595   70.2867  220.3712 H   0  0  0  0  0  0  0  0  0  0  0  0
  144.7500   70.8955  218.6684 H   0  0  0  0  0  0  0  0  0  0  0  0
  145.0806   73.1734  218.3629 H   0  0  0  0  0  0  0  0  0  0  0  0
  143.3577   73.1874  218.5172 H   0  0  0  0  0  0  0  0  0  0  0  0
  144.6725   75.4122  219.3158 H   0  0  0  0  0  0  0  0  0  0  0  0
  143.4968   74.8593  220.4615 H   0  0  0  0  0  0  0  0  0  0  0  0
  146.4933   74.6341  220.5295 H   0  0  0  0  0  0  0  0  0  0  0  0
  145.3808   74.4726  221.8937 H   0  0  0  0  0  0  0  0  0  0  0  0
  146.5067   72.3380  220.0862 H   0  0  0  0  0  0  0  0  0  0  0  0
  145.8714   72.1259  221.6980 H   0  0  0  0  0  0  0  0  0  0  0  0
  142.7439   76.4277  220.3474 H   0  0  0  0  0  0  0  0  0  0  0  0
  141.4779   75.8053  219.2459 H   0  0  0  0  0  0  0  0  0  0  0  0
  141.5453   78.2825  219.1434 H   0  0  0  0  0  0  0  0  0  0  0  0
  140.0143   77.7776  219.8689 H   0  0  0  0  0  0  0  0  0  0  0  0
  142.3804   80.2156  220.3317 H   0  0  0  0  0  0  0  0  0  0  0  0
  142.9526   81.2812  222.5171 H   0  0  0  0  0  0  0  0  0  0  0  0
  142.3717   80.1470  224.6642 H   0  0  0  0  0  0  0  0  0  0  0  0
  141.2087   77.9273  224.6167 H   0  0  0  0  0  0  0  0  0  0  0  0
  140.5920   76.0145  223.3023 H   0  0  0  0  0  0  0  0  0  0  0  0
  139.4149   76.7492  222.1267 H   0  0  0  0  0  0  0  0  0  0  0  0
  141.3997   71.6735  224.1882 H   0  0  0  0  0  0  0  0  0  0  0  0
  140.1264   72.2165  225.3903 H   0  0  0  0  0  0  0  0  0  0  0  0
  1  2  2  0
  2  3  1  0
  3  4  2  0
  4  5  1  0
  5  6  2  0
  5  7  1  0
  7  8  1  0
  8  9  1  0
  9 10  1  0
 10 11  2  0
 11 12  1  0
 12 13  1  0
 13 14  1  0
 14 15  1  0
 15 16  1  0
 16 17  1  0
 17 18  1  0
 18 19  1  0
 19 20  1  0
 12 21  2  0
 21 22  1  0
 22 23  1  0
 23 24  1  0
 24 25  1  0
 25 26  1  0
 26 27  2  0
 27 28  1  0
 28 29  2  0
 29 30  1  0
 30 31  2  0
 31 32  1  0
 22 33  2  0
  9 34  1  0
  6  1  1  0
 33 10  1  0
 34  4  1  0
 20 16  1  0
 32 23  1  0
 31 26  1  0
  1 35  1  0
  2 36  1  0
  3 37  1  0
  6 38  1  0
  7 39  1  0
  7 40  1  0
  8 41  1  0
  8 42  1  0
  9 43  1  1
 13 44  1  0
 14 45  1  0
 14 46  1  0
 15 47  1  0
 15 48  1  0
 17 49  1  0
 17 50  1  0
 18 51  1  0
 18 52  1  0
 19 53  1  0
 19 54  1  0
 20 55  1  0
 20 56  1  0
 24 57  1  0
 24 58  1  0
 25 59  1  0
 25 60  1  0
 27 61  1  0
 28 62  1  0
 29 63  1  0
 30 64  1  0
 32 65  1  0
 32 66  1  0
 34 67  1  0
 34 68  1  0
M  END
>  <smiles>  (4) 
c1ccc2c(c1)CCC(c1nc(NCCN3CCCC3)nc(N3CCc4ccccc4C3)n1)C2

>  <score_type>  (4) 
oracle

>  <origin>  (4) 
autodockgpu

>  <m_score__min__energy>  (4) 
-10.43

>  <m_primary>  (4) 
energy

>  <rmsd>  (4) 
5.978176933331545

>  <m_score__min__rmsd>  (4) 
5.978176933331545

>  <meeko>  (4) 
{"free_energy": -9.9, "intermolecular_energy": -11.69, "internal_energy": -1.71, "cluster_size": 33, "cluster_id": 2, "rank_in_cluster": 18}

>  <energy>  (4) 
-10.25

>  <cluster_rmsd>  (4) 
0.31

>  <cluster>  (4) 
1

$$$$

     RDKit          3D

 68 73  0  0  0  0  0  0  0  0999 V2000
  140.3560   67.4580  226.7610 C   0  0  0  0  0  0  0  0  0  0  0  0
  141.4330   68.3100  226.8620 C   0  0  0  0  0  0  0  0  0  0  0  0
  141.4060   69.5330  226.2270 C   0  0  0  0  0  0  0  0  0  0  0  0
  140.3170   69.9430  225.4770 C   0  0  0  0  0  0  0  0  0  0  0  0
  139.2610   69.0860  225.3890 C   0  0  0  0  0  0  0  0  0  0  0  0
  139.2540   67.8410  226.0190 C   0  0  0  0  0  0  0  0  0  0  0  0
  138.0800   69.5390  224.5730 C   0  0  0  0  0  0  0  0  0  0  0  0
  138.6320   70.2520  223.3730 C   0  0  0  0  0  0  0  0  0  0  0  0
  139.3490   71.5160  223.7890 C   0  0  2  0  0  0  0  0  0  0  0  0
  140.0550   72.0460  222.5880 C   0  0  0  0  0  0  0  0  0  0  0  0
  140.6120   71.2660  221.6500 N   0  0  0  0  0  0  0  0  0  0  0  0
  141.2310   71.7850  220.5920 C   0  0  0  0  0  0  0  0  0  0  0  0
  141.8160   70.9300  219.6180 N   0  0  0  0  0  0  0  0  0  0  0  0
  143.1770   70.4350  219.7490 C   0  0  0  0  0  0  0  0  0  0  0  0
  144.1770   71.3820  219.1390 C   0  0  0  0  0  0  0  0  0  0  0  0
  144.4120   72.5450  219.9560 N   0  0  0  0  0  0  0  0  0  0  0  0
  144.1410   73.7980  219.2900 C   0  0  0  0  0  0  0  0  0  0  0  0
  144.5210   74.7770  220.4100 C   0  0  0  0  0  0  0  0  0  0  0  0
  145.7930   74.1260  220.9140 C   0  0  0  0  0  0  0  0  0  0  0  0
  145.7800   72.7020  220.3400 C   0  0  0  0  0  0  0  0  0  0  0  0
  141.2810   73.1380  220.4910 N   0  0  0  0  0  0  0  0  0  0  0  0
  140.7400   73.9650  221.4020 C   0  0  0  0  0  0  0  0  0  0  0  0
  140.8150   75.3780  221.2600 N   0  0  0  0  0  0  0  0  0  0  0  0
  141.3540   75.9460  220.0410 C   0  0  0  0  0  0  0  0  0  0  0  0
  140.7630   77.3300  219.8490 C   0  0  0  0  0  0  0  0  0  0  0  0
  141.2450   78.1320  221.0080 C   0  0  0  0  0  0  0  0  0  0  0  0
  141.8610   79.3550  220.8710 C   0  0  0  0  0  0  0  0  0  0  0  0
  142.2790   80.0360  222.0160 C   0  0  0  0  0  0  0  0  0  0  0  0
  142.0770   79.4860  223.2850 C   0  0  0  0  0  0  0  0  0  0  0  0
  141.4510   78.2450  223.4050 C   0  0  0  0  0  0  0  0  0  0  0  0
  141.0440   77.5850  222.2610 C   0  0  0  0  0  0  0  0  0  0  0  0
  140.3700   76.2610  222.3090 C   0  0  0  0  0  0  0  0  0  0  0  0
  140.1260   73.3880  222.4520 N   0  0  0  0  0  0  0  0  0  0  0  0
  140.3970   71.2700  224.8400 C   0  0  0  0  0  0  0  0  0  0  0  0
  140.3722   66.4811  227.2663 H   0  0  0  0  0  0  0  0  0  0  0  0
  142.3148   68.0146  227.4494 H   0  0  0  0  0  0  0  0  0  0  0  0
  142.2742   70.2021  226.3187 H   0  0  0  0  0  0  0  0  0  0  0  0
  138.3843   67.1739  225.9267 H   0  0  0  0  0  0  0  0  0  0  0  0
  137.4827   68.6712  224.2566 H   0  0  0  0  0  0  0  0  0  0  0  0
  137.4248   70.2002  225.1590 H   0  0  0  0  0  0  0  0  0  0  0  0
  139.3394   69.5896  222.8525 H   0  0  0  0  0  0  0  0  0  0  0  0
  137.7998   70.5195  222.7053 H   0  0  0  0  0  0  0  0  0  0  0  0
  138.6003   72.2090  224.2004 H   0  0  0  0  0  0  0  0  0  0  0  0
  141.2770   70.6310  218.7730 H   0  0  0  0  0  0  0  0  0  0  0  0
  143.4096   70.3107  220.8169 H   0  0  0  0  0  0  0  0  0  0  0  0
  143.2450   69.4753  219.2157 H   0  0  0  0  0  0  0  0  0  0  0  0
  145.1295   70.8487  219.0038 H   0  0  0  0  0  0  0  0  0  0  0  0
  143.7645   71.7279  218.1797 H   0  0  0  0  0  0  0  0  0  0  0  0
  144.7711   73.9320  218.3984 H   0  0  0  0  0  0  0  0  0  0  0  0
  143.1168   73.9076  218.9039 H   0  0  0  0  0  0  0  0  0  0  0  0
  144.7076   75.7888  220.0209 H   0  0  0  0  0  0  0  0  0  0  0  0
  143.7449   74.9273  221.1749 H   0  0  0  0  0  0  0  0  0  0  0  0
  146.6750   74.6770  220.5555 H   0  0  0  0  0  0  0  0  0  0  0  0
  145.8421   74.1227  222.0129 H   0  0  0  0  0  0  0  0  0  0  0  0
  146.4505   72.6154  219.4723 H   0  0  0  0  0  0  0  0  0  0  0  0
  146.1310   71.9368  221.0480 H   0  0  0  0  0  0  0  0  0  0  0  0
  142.4489   76.0181  220.1183 H   0  0  0  0  0  0  0  0  0  0  0  0
  141.0986   75.3062  219.1834 H   0  0  0  0  0  0  0  0  0  0  0  0
  141.1140   77.7703  218.9041 H   0  0  0  0  0  0  0  0  0  0  0  0
  139.6644   77.3018  219.8005 H   0  0  0  0  0  0  0  0  0  0  0  0
  142.0218   79.7899  219.8735 H   0  0  0  0  0  0  0  0  0  0  0  0
  142.7719   81.0145  221.9185 H   0  0  0  0  0  0  0  0  0  0  0  0
  142.4093   80.0278  224.1828 H   0  0  0  0  0  0  0  0  0  0  0  0
  141.2837   77.7982  224.3961 H   0  0  0  0  0  0  0  0  0  0  0  0
  140.5838   75.7911  223.2803 H   0  0  0  0  0  0  0  0  0  0  0  0
  139.2918   76.4290  222.1703 H   0  0  0  0  0  0  0  0  0  0  0  0
  141.3865   71.3672  224.3693 H   0  0  0  0  0  0  0  0  0  0  0  0
  140.2269   72.0117  225.6343 H   0  0  0  0  0  0  0  0  0  0  0  0
  1  2  2  0
  2  3  1  0
  3  4  2  0
  4  5  1  0
  5  6  2  0
  5  7  1  0
  7  8  1  0
  8  9  1  0
  9 10  1  0
 10 11  2  0
 11 12  1  0
 12 13  1  0
 13 14  1  0
 14 15  1  0
 15 16  1  0
 16 17  1  0
 17 18  1  0
 18 19  1  0
 19 20  1  0
 12 21  2  0
 21 22  1  0
 22 23  1  0
 23 24  1  0
 24 25  1  0
 25 26  1  0
 26 27  2  0
 27 28  1  0
 28 29  2  0
 29 30  1  0
 30 31  2  0
 31 32  1  0
 22 33  2  0
  9 34  1  0
  6  1  1  0
 33 10  1  0
 34  4  1  0
 20 16  1  0
 32 23  1  0
 31 26  1  0
  1 35  1  0
  2 36  1  0
  3 37  1  0
  6 38  1  0
  7 39  1  0
  7 40  1  0
  8 41  1  0
  8 42  1  0
  9 43  1  1
 13 44  1  0
 14 45  1  0
 14 46  1  0
 15 47  1  0
 15 48  1  0
 17 49  1  0
 17 50  1  0
 18 51  1  0
 18 52  1  0
 19 53  1  0
 19 54  1  0
 20 55  1  0
 20 56  1  0
 24 57  1  0
 24 58  1  0
 25 59  1  0
 25 60  1  0
 27 61  1  0
 28 62  1  0
 29 63  1  0
 30 64  1  0
 32 65  1  0
 32 66  1  0
 34 67  1  0
 34 68  1  0
M  END
>  <smiles>  (5) 
c1ccc2c(c1)CCC(c1nc(NCCN3CCCC3)nc(N3CCc4ccccc4C3)n1)C2

>  <score_type>  (5) 
oracle

>  <origin>  (5) 
autodockgpu

>  <m_score__min__energy>  (5) 
-10.43

>  <m_primary>  (5) 
energy

>  <rmsd>  (5) 
5.968206203792683

>  <m_score__min__rmsd>  (5) 
5.968206203792683

>  <meeko>  (5) 
{"free_energy": -9.84, "intermolecular_energy": -11.63, "internal_energy": -1.75, "cluster_size": 33, "cluster_id": 2, "rank_in_cluster": 21}

>  <energy>  (5) 
-10.13

>  <cluster_rmsd>  (5) 
0.48

>  <cluster>  (5) 
1

$$$$

     RDKit          3D

 68 73  0  0  0  0  0  0  0  0999 V2000
  140.3020   67.8570  226.8270 C   0  0  0  0  0  0  0  0  0  0  0  0
  141.0780   68.9200  227.2350 C   0  0  0  0  0  0  0  0  0  0  0  0
  141.0480   70.1060  226.5330 C   0  0  0  0  0  0  0  0  0  0  0  0
  140.2520   70.2700  225.4120 C   0  0  0  0  0  0  0  0  0  0  0  0
  139.4920   69.2080  225.0230 C   0  0  0  0  0  0  0  0  0  0  0  0
  139.4980   67.9940  225.7100 C   0  0  0  0  0  0  0  0  0  0  0  0
  138.6300   69.3950  223.8030 C   0  0  0  0  0  0  0  0  0  0  0  0
  139.4340   70.2020  222.8260 C   0  0  0  0  0  0  0  0  0  0  0  0
  139.6860   71.5920  223.3640 C   0  0  2  0  0  0  0  0  0  0  0  0
  140.6650   72.2530  222.4560 C   0  0  0  0  0  0  0  0  0  0  0  0
  141.6200   71.5910  221.7860 N   0  0  0  0  0  0  0  0  0  0  0  0
  142.4730   72.2240  220.9830 C   0  0  0  0  0  0  0  0  0  0  0  0
  143.4780   71.4940  220.2930 N   0  0  0  0  0  0  0  0  0  0  0  0
  143.7280   71.6840  218.8730 C   0  0  0  0  0  0  0  0  0  0  0  0
  144.8700   70.8320  218.3870 C   0  0  0  0  0  0  0  0  0  0  0  0
  145.0250   69.6210  219.1520 N   0  0  0  0  0  0  0  0  0  0  0  0
  146.3050   68.9730  218.9780 C   0  0  0  0  0  0  0  0  0  0  0  0
  146.1030   67.7480  219.8810 C   0  0  0  0  0  0  0  0  0  0  0  0
  144.6890   67.3640  219.4970 C   0  0  0  0  0  0  0  0  0  0  0  0
  144.1150   68.5860  218.7680 C   0  0  0  0  0  0  0  0  0  0  0  0
  142.3430   73.5700  220.8620 N   0  0  0  0  0  0  0  0  0  0  0  0
  141.4050   74.2820  221.5100 C   0  0  0  0  0  0  0  0  0  0  0  0
  141.3040   75.6920  221.3570 N   0  0  0  0  0  0  0  0  0  0  0  0
  141.8500   76.3220  220.1720 C   0  0  0  0  0  0  0  0  0  0  0  0
  141.0980   77.6160  219.9210 C   0  0  0  0  0  0  0  0  0  0  0  0
  141.3850   78.4780  221.1020 C   0  0  0  0  0  0  0  0  0  0  0  0
  141.8430   79.7710  220.9940 C   0  0  0  0  0  0  0  0  0  0  0  0
  142.0840   80.5040  222.1580 C   0  0  0  0  0  0  0  0  0  0  0  0
  141.8640   79.9350  223.4160 C   0  0  0  0  0  0  0  0  0  0  0  0
  141.4000   78.6230  223.5060 C   0  0  0  0  0  0  0  0  0  0  0  0
  141.1670   77.9120  222.3440 C   0  0  0  0  0  0  0  0  0  0  0  0
  140.6710   76.5110  222.3600 C   0  0  0  0  0  0  0  0  0  0  0  0
  140.5690   73.5920  222.3090 N   0  0  0  0  0  0  0  0  0  0  0  0
  140.3000   71.5800  224.7370 C   0  0  0  0  0  0  0  0  0  0  0  0
  140.3218   66.9088  227.3842 H   0  0  0  0  0  0  0  0  0  0  0  0
  141.7219   68.8222  228.1215 H   0  0  0  0  0  0  0  0  0  0  0  0
  141.6734   70.9448  226.8726 H   0  0  0  0  0  0  0  0  0  0  0  0
  138.8717   67.1569  225.3680 H   0  0  0  0  0  0  0  0  0  0  0  0
  138.3731   68.4183  223.3671 H   0  0  0  0  0  0  0  0  0  0  0  0
  137.6893   69.9051  224.0578 H   0  0  0  0  0  0  0  0  0  0  0  0
  140.3980   69.7019  222.6509 H   0  0  0  0  0  0  0  0  0  0  0  0
  138.8707   70.2829  221.8847 H   0  0  0  0  0  0  0  0  0  0  0  0
  138.7188   72.1128  223.4205 H   0  0  0  0  0  0  0  0  0  0  0  0
  144.0720   70.7930  220.7930 H   0  0  0  0  0  0  0  0  0  0  0  0
  142.8202   71.4157  218.3127 H   0  0  0  0  0  0  0  0  0  0  0  0
  143.9956   72.7386  218.7113 H   0  0  0  0  0  0  0  0  0  0  0  0
  144.6863   70.5634  217.3362 H   0  0  0  0  0  0  0  0  0  0  0  0
  145.7939   71.4179  218.5016 H   0  0  0  0  0  0  0  0  0  0  0  0
  146.4786   68.6849  217.9307 H   0  0  0  0  0  0  0  0  0  0  0  0
  147.1783   69.5943  219.2255 H   0  0  0  0  0  0  0  0  0  0  0  0
  146.8204   66.9472  219.6482 H   0  0  0  0  0  0  0  0  0  0  0  0
  146.2556   67.9350  220.9542 H   0  0  0  0  0  0  0  0  0  0  0  0
  144.6959   66.4879  218.8318 H   0  0  0  0  0  0  0  0  0  0  0  0
  144.0866   67.0940  220.3769 H   0  0  0  0  0  0  0  0  0  0  0  0
  144.1166   68.4375  217.6781 H   0  0  0  0  0  0  0  0  0  0  0  0
  143.0672   68.8014  219.0242 H   0  0  0  0  0  0  0  0  0  0  0  0
  142.9176   76.5377  220.3256 H   0  0  0  0  0  0  0  0  0  0  0  0
  141.7427   75.6513  219.3067 H   0  0  0  0  0  0  0  0  0  0  0  0
  141.4561   78.0961  218.9984 H   0  0  0  0  0  0  0  0  0  0  0  0
  140.0191   77.4433  219.7941 H   0  0  0  0  0  0  0  0  0  0  0  0
  142.0168   80.2207  220.0053 H   0  0  0  0  0  0  0  0  0  0  0  0
  142.4503   81.5386  222.0844 H   0  0  0  0  0  0  0  0  0  0  0  0
  142.0556   80.5183  224.3287 H   0  0  0  0  0  0  0  0  0  0  0  0
  141.2219   78.1605  224.4880 H   0  0  0  0  0  0  0  0  0  0  0  0
  140.8730   76.0762  223.3500 H   0  0  0  0  0  0  0  0  0  0  0  0
  139.5931   76.5346  222.1421 H   0  0  0  0  0  0  0  0  0  0  0  0
  141.3538   71.8820  224.6457 H   0  0  0  0  0  0  0  0  0  0  0  0
  139.7082   72.2733  225.3527 H   0  0  0  0  0  0  0  0  0  0  0  0
  1  2  2  0
  2  3  1  0
  3  4  2  0
  4  5  1  0
  5  6  2  0
  5  7  1  0
  7  8  1  0
  8  9  1  0
  9 10  1  0
 10 11  2  0
 11 12  1  0
 12 13  1  0
 13 14  1  0
 14 15  1  0
 15 16  1  0
 16 17  1  0
 17 18  1  0
 18 19  1  0
 19 20  1  0
 12 21  2  0
 21 22  1  0
 22 23  1  0
 23 24  1  0
 24 25  1  0
 25 26  1  0
 26 27  2  0
 27 28  1  0
 28 29  2  0
 29 30  1  0
 30 31  2  0
 31 32  1  0
 22 33  2  0
  9 34  1  0
  6  1  1  0
 33 10  1  0
 34  4  1  0
 20 16  1  0
 32 23  1  0
 31 26  1  0
  1 35  1  0
  2 36  1  0
  3 37  1  0
  6 38  1  0
  7 39  1  0
  7 40  1  0
  8 41  1  0
  8 42  1  0
  9 43  1  1
 13 44  1  0
 14 45  1  0
 14 46  1  0
 15 47  1  0
 15 48  1  0
 17 49  1  0
 17 50  1  0
 18 51  1  0
 18 52  1  0
 19 53  1  0
 19 54  1  0
 20 55  1  0
 20 56  1  0
 24 57  1  0
 24 58  1  0
 25 59  1  0
 25 60  1  0
 27 61  1  0
 28 62  1  0
 29 63  1  0
 30 64  1  0
 32 65  1  0
 32 66  1  0
 34 67  1  0
 34 68  1  0
M  END
>  <smiles>  (6) 
c1ccc2c(c1)CCC(c1nc(NCCN3CCCC3)nc(N3CCc4ccccc4C3)n1)C2

>  <score_type>  (6) 
oracle

>  <origin>  (6) 
autodockgpu

>  <m_score__min__energy>  (6) 
-10.43

>  <m_primary>  (6) 
energy

>  <rmsd>  (6) 
8.398078575948452

>  <m_score__min__rmsd>  (6) 
8.398078575948452

>  <meeko>  (6) 
{"free_energy": -10.02, "intermolecular_energy": -11.81, "internal_energy": -1.7, "cluster_size": 33, "cluster_id": 2, "rank_in_cluster": 10}

>  <energy>  (6) 
-10.04

>  <cluster_rmsd>  (6) 
0.34

>  <cluster>  (6) 
1

$$$$

     RDKit          3D

 68 73  0  0  0  0  0  0  0  0999 V2000
  140.2240   67.8210  226.8480 C   0  0  0  0  0  0  0  0  0  0  0  0
  141.0410   68.8550  227.2480 C   0  0  0  0  0  0  0  0  0  0  0  0
  141.0310   70.0490  226.5570 C   0  0  0  0  0  0  0  0  0  0  0  0
  140.2150   70.2480  225.4570 C   0  0  0  0  0  0  0  0  0  0  0  0
  139.4130   69.2130  225.0770 C   0  0  0  0  0  0  0  0  0  0  0  0
  139.3980   67.9920  225.7530 C   0  0  0  0  0  0  0  0  0  0  0  0
  138.5290   69.4380  223.8790 C   0  0  0  0  0  0  0  0  0  0  0  0
  139.3340   70.2300  222.8910 C   0  0  0  0  0  0  0  0  0  0  0  0
  139.6410   71.6060  223.4350 C   0  0  2  0  0  0  0  0  0  0  0  0
  140.6180   72.2460  222.5100 C   0  0  0  0  0  0  0  0  0  0  0  0
  141.5670   71.5680  221.8470 N   0  0  0  0  0  0  0  0  0  0  0  0
  142.4180   72.1820  221.0290 C   0  0  0  0  0  0  0  0  0  0  0  0
  143.4160   71.4350  220.3460 N   0  0  0  0  0  0  0  0  0  0  0  0
  144.3420   72.0600  219.4160 C   0  0  0  0  0  0  0  0  0  0  0  0
  145.0980   71.0390  218.6080 C   0  0  0  0  0  0  0  0  0  0  0  0
  145.1080   69.7370  219.2260 N   0  0  0  0  0  0  0  0  0  0  0  0
  146.3080   68.9730  218.9730 C   0  0  0  0  0  0  0  0  0  0  0  0
  145.9600   67.6830  219.7280 C   0  0  0  0  0  0  0  0  0  0  0  0
  144.5150   67.5090  219.3100 C   0  0  0  0  0  0  0  0  0  0  0  0
  144.0900   68.8650  218.7290 C   0  0  0  0  0  0  0  0  0  0  0  0
  142.2940   73.5260  220.8840 N   0  0  0  0  0  0  0  0  0  0  0  0
  141.3620   74.2540  221.5230 C   0  0  0  0  0  0  0  0  0  0  0  0
  141.2670   75.6620  221.3460 N   0  0  0  0  0  0  0  0  0  0  0  0
  141.8630   76.2750  220.1760 C   0  0  0  0  0  0  0  0  0  0  0  0
  141.1210   77.5640  219.8750 C   0  0  0  0  0  0  0  0  0  0  0  0
  141.3570   78.4440  221.0540 C   0  0  0  0  0  0  0  0  0  0  0  0
  141.8180   79.7360  220.9470 C   0  0  0  0  0  0  0  0  0  0  0  0
  142.0090   80.4860  222.1090 C   0  0  0  0  0  0  0  0  0  0  0  0
  141.7370   79.9360  223.3650 C   0  0  0  0  0  0  0  0  0  0  0  0
  141.2700   78.6240  223.4540 C   0  0  0  0  0  0  0  0  0  0  0  0
  141.0870   77.8960  222.2940 C   0  0  0  0  0  0  0  0  0  0  0  0
  140.5920   76.4950  222.3090 C   0  0  0  0  0  0  0  0  0  0  0  0
  140.5270   73.5830  222.3390 N   0  0  0  0  0  0  0  0  0  0  0  0
  140.2860   71.5620  224.7930 C   0  0  0  0  0  0  0  0  0  0  0  0
  140.2287   66.8669  227.3954 H   0  0  0  0  0  0  0  0  0  0  0  0
  141.7016   68.7288  228.1185 H   0  0  0  0  0  0  0  0  0  0  0  0
  141.6895   70.8651  226.8894 H   0  0  0  0  0  0  0  0  0  0  0  0
  138.7383   67.1775  225.4192 H   0  0  0  0  0  0  0  0  0  0  0  0
  138.2327   68.4738  223.4402 H   0  0  0  0  0  0  0  0  0  0  0  0
  137.6104   69.9737  224.1605 H   0  0  0  0  0  0  0  0  0  0  0  0
  140.2779   69.7026  222.6885 H   0  0  0  0  0  0  0  0  0  0  0  0
  138.7512   70.3374  221.9643 H   0  0  0  0  0  0  0  0  0  0  0  0
  138.6918   72.1555  223.5189 H   0  0  0  0  0  0  0  0  0  0  0  0
  143.5120   70.4040  220.4970 H   0  0  0  0  0  0  0  0  0  0  0  0
  143.7755   72.7077  218.7308 H   0  0  0  0  0  0  0  0  0  0  0  0
  145.0708   72.6423  219.9989 H   0  0  0  0  0  0  0  0  0  0  0  0
  144.6267   70.9548  217.6177 H   0  0  0  0  0  0  0  0  0  0  0  0
  146.1413   71.3798  218.5344 H   0  0  0  0  0  0  0  0  0  0  0  0
  146.4579   68.7905  217.8987 H   0  0  0  0  0  0  0  0  0  0  0  0
  147.2437   69.4583  219.2876 H   0  0  0  0  0  0  0  0  0  0  0  0
  146.5835   66.8382  219.4000 H   0  0  0  0  0  0  0  0  0  0  0  0
  146.1238   67.7261  220.8149 H   0  0  0  0  0  0  0  0  0  0  0  0
  144.4274   66.7200  218.5485 H   0  0  0  0  0  0  0  0  0  0  0  0
  143.8786   67.2100  220.1559 H   0  0  0  0  0  0  0  0  0  0  0  0
  144.0845   68.8439  217.6292 H   0  0  0  0  0  0  0  0  0  0  0  0
  143.0712   69.1678  219.0124 H   0  0  0  0  0  0  0  0  0  0  0  0
  142.9230   76.4944  220.3717 H   0  0  0  0  0  0  0  0  0  0  0  0
  141.7938   75.5917  219.3168 H   0  0  0  0  0  0  0  0  0  0  0  0
  141.5170   78.0311  218.9613 H   0  0  0  0  0  0  0  0  0  0  0  0
  140.0485   77.3875  219.7058 H   0  0  0  0  0  0  0  0  0  0  0  0
  142.0330   80.1717  219.9601 H   0  0  0  0  0  0  0  0  0  0  0  0
  142.3772   81.5199  222.0354 H   0  0  0  0  0  0  0  0  0  0  0  0
  141.8899   80.5328  224.2763 H   0  0  0  0  0  0  0  0  0  0  0  0
  141.0506   78.1755  224.4342 H   0  0  0  0  0  0  0  0  0  0  0  0
  140.7521   76.0748  223.3129 H   0  0  0  0  0  0  0  0  0  0  0  0
  139.5244   76.5144  222.0449 H   0  0  0  0  0  0  0  0  0  0  0  0
  141.3459   71.8337  224.6797 H   0  0  0  0  0  0  0  0  0  0  0  0
  139.7291   72.2661  225.4287 H   0  0  0  0  0  0  0  0  0  0  0  0
  1  2  2  0
  2  3  1  0
  3  4  2  0
  4  5  1  0
  5  6  2  0
  5  7  1  0
  7  8  1  0
  8  9  1  0
  9 10  1  0
 10 11  2  0
 11 12  1  0
 12 13  1  0
 13 14  1  0
 14 15  1  0
 15 16  1  0
 16 17  1  0
 17 18  1  0
 18 19  1  0
 19 20  1  0
 12 21  2  0
 21 22  1  0
 22 23  1  0
 23 24  1  0
 24 25  1  0
 25 26  1  0
 26 27  2  0
 27 28  1  0
 28 29  2  0
 29 30  1  0
 30 31  2  0
 31 32  1  0
 22 33  2  0
  9 34  1  0
  6  1  1  0
 33 10  1  0
 34  4  1  0
 20 16  1  0
 32 23  1  0
 31 26  1  0
  1 35  1  0
  2 36  1  0
  3 37  1  0
  6 38  1  0
  7 39  1  0
  7 40  1  0
  8 41  1  0
  8 42  1  0
  9 43  1  1
 13 44  1  0
 14 45  1  0
 14 46  1  0
 15 47  1  0
 15 48  1  0
 17 49  1  0
 17 50  1  0
 18 51  1  0
 18 52  1  0
 19 53  1  0
 19 54  1  0
 20 55  1  0
 20 56  1  0
 24 57  1  0
 24 58  1  0
 25 59  1  0
 25 60  1  0
 27 61  1  0
 28 62  1  0
 29 63  1  0
 30 64  1  0
 32 65  1  0
 32 66  1  0
 34 67  1  0
 34 68  1  0
M  END
>  <smiles>  (7) 
c1ccc2c(c1)CCC(c1nc(NCCN3CCCC3)nc(N3CCc4ccccc4C3)n1)C2

>  <score_type>  (7) 
oracle

>  <origin>  (7) 
autodockgpu

>  <m_score__min__energy>  (7) 
-10.43

>  <m_primary>  (7) 
energy

>  <rmsd>  (7) 
8.356917505320654

>  <m_score__min__rmsd>  (7) 
8.356917505320654

>  <meeko>  (7) 
{"free_energy": -10.02, "intermolecular_energy": -11.81, "internal_energy": -1.73, "cluster_size": 33, "cluster_id": 2, "rank_in_cluster": 11}

>  <energy>  (7) 
-10.02

>  <cluster_rmsd>  (7) 
0.36

>  <cluster>  (7) 
1

$$$$

     RDKit          3D

 68 73  0  0  0  0  0  0  0  0999 V2000
  140.2890   67.4110  226.7000 C   0  0  0  0  0  0  0  0  0  0  0  0
  141.3550   68.2700  226.8520 C   0  0  0  0  0  0  0  0  0  0  0  0
  141.3420   69.5020  226.2320 C   0  0  0  0  0  0  0  0  0  0  0  0
  140.2780   69.9130  225.4480 C   0  0  0  0  0  0  0  0  0  0  0  0
  139.2330   69.0500  225.3100 C   0  0  0  0  0  0  0  0  0  0  0  0
  139.2130   67.7960  225.9230 C   0  0  0  0  0  0  0  0  0  0  0  0
  138.0800   69.5040  224.4550 C   0  0  0  0  0  0  0  0  0  0  0  0
  138.6710   70.2360  223.2870 C   0  0  0  0  0  0  0  0  0  0  0  0
  139.3620   71.5000  223.7450 C   0  0  2  0  0  0  0  0  0  0  0  0
  140.1070   72.0520  222.5780 C   0  0  0  0  0  0  0  0  0  0  0  0
  140.7280   71.2890  221.6660 N   0  0  0  0  0  0  0  0  0  0  0  0
  141.3810   71.8260  220.6380 C   0  0  0  0  0  0  0  0  0  0  0  0
  142.0330   70.9890  219.6920 N   0  0  0  0  0  0  0  0  0  0  0  0
  143.3180   70.3690  219.9730 C   0  0  0  0  0  0  0  0  0  0  0  0
  144.4650   71.2910  219.6570 C   0  0  0  0  0  0  0  0  0  0  0  0
  144.0730   72.6770  219.6280 N   0  0  0  0  0  0  0  0  0  0  0  0
  144.3400   73.3400  218.3710 C   0  0  0  0  0  0  0  0  0  0  0  0
  143.8430   74.7520  218.7100 C   0  0  0  0  0  0  0  0  0  0  0  0
  144.4130   74.9090  220.1050 C   0  0  0  0  0  0  0  0  0  0  0  0
  144.7970   73.4920  220.5530 C   0  0  0  0  0  0  0  0  0  0  0  0
  141.3980   73.1800  220.5410 N   0  0  0  0  0  0  0  0  0  0  0  0
  140.7930   73.9910  221.4260 C   0  0  0  0  0  0  0  0  0  0  0  0
  140.8370   75.4050  221.2890 N   0  0  0  0  0  0  0  0  0  0  0  0
  141.3190   75.9880  220.0530 C   0  0  0  0  0  0  0  0  0  0  0  0
  140.6950   77.3620  219.8900 C   0  0  0  0  0  0  0  0  0  0  0  0
  141.2050   78.1680  221.0340 C   0  0  0  0  0  0  0  0  0  0  0  0
  141.7920   79.4030  220.8800 C   0  0  0  0  0  0  0  0  0  0  0  0
  142.2400   80.0870  222.0130 C   0  0  0  0  0  0  0  0  0  0  0  0
  142.0960   79.5270  223.2860 C   0  0  0  0  0  0  0  0  0  0  0  0
  141.4990   78.2740  223.4230 C   0  0  0  0  0  0  0  0  0  0  0  0
  141.0610   77.6120  222.2910 C   0  0  0  0  0  0  0  0  0  0  0  0
  140.4150   76.2750  222.3580 C   0  0  0  0  0  0  0  0  0  0  0  0
  140.1480   73.3950  222.4470 N   0  0  0  0  0  0  0  0  0  0  0  0
  140.3710   71.2490  224.8310 C   0  0  0  0  0  0  0  0  0  0  0  0
  140.2942   66.4275  227.1926 H   0  0  0  0  0  0  0  0  0  0  0  0
  142.2168   67.9734  227.4679 H   0  0  0  0  0  0  0  0  0  0  0  0
  142.2009   70.1764  226.3642 H   0  0  0  0  0  0  0  0  0  0  0  0
  138.3527   67.1237  225.7894 H   0  0  0  0  0  0  0  0  0  0  0  0
  137.5025   68.6356  224.1052 H   0  0  0  0  0  0  0  0  0  0  0  0
  137.3972   70.1524  225.0237 H   0  0  0  0  0  0  0  0  0  0  0  0
  139.4027   69.5855  222.7855 H   0  0  0  0  0  0  0  0  0  0  0  0
  137.8623   70.5061  222.5920 H   0  0  0  0  0  0  0  0  0  0  0  0
  138.5929   72.1818  224.1368 H   0  0  0  0  0  0  0  0  0  0  0  0
  141.6010   70.7950  218.7600 H   0  0  0  0  0  0  0  0  0  0  0  0
  143.3590   70.1024  221.0394 H   0  0  0  0  0  0  0  0  0  0  0  0
  143.4126   69.4758  219.3380 H   0  0  0  0  0  0  0  0  0  0  0  0
  145.2424   71.1612  220.4243 H   0  0  0  0  0  0  0  0  0  0  0  0
  144.8348   71.0295  218.6546 H   0  0  0  0  0  0  0  0  0  0  0  0
  145.4118   73.3319  218.1238 H   0  0  0  0  0  0  0  0  0  0  0  0
  143.8666   72.8786  217.4918 H   0  0  0  0  0  0  0  0  0  0  0  0
  144.2486   75.5040  218.0171 H   0  0  0  0  0  0  0  0  0  0  0  0
  142.7537   74.8873  218.6387 H   0  0  0  0  0  0  0  0  0  0  0  0
  145.2995   75.5600  220.0870 H   0  0  0  0  0  0  0  0  0  0  0  0
  143.6892   75.3721  220.7918 H   0  0  0  0  0  0  0  0  0  0  0  0
  145.8811   73.3264  220.4670 H   0  0  0  0  0  0  0  0  0  0  0  0
  144.5599   73.2822  221.6064 H   0  0  0  0  0  0  0  0  0  0  0  0
  142.4145   76.0805  220.0893 H   0  0  0  0  0  0  0  0  0  0  0  0
  141.0436   75.3469  219.2026 H   0  0  0  0  0  0  0  0  0  0  0  0
  141.0019   77.8129  218.9348 H   0  0  0  0  0  0  0  0  0  0  0  0
  139.5961   77.3132  219.8825 H   0  0  0  0  0  0  0  0  0  0  0  0
  141.9069   79.8453  219.8794 H   0  0  0  0  0  0  0  0  0  0  0  0
  142.7104   81.0752  221.9024 H   0  0  0  0  0  0  0  0  0  0  0  0
  142.4512   80.0711  224.1736 H   0  0  0  0  0  0  0  0  0  0  0  0
  141.3784   77.8191  224.4172 H   0  0  0  0  0  0  0  0  0  0  0  0
  140.6742   75.8055  223.3184 H   0  0  0  0  0  0  0  0  0  0  0  0
  139.3293   76.4226  222.2606 H   0  0  0  0  0  0  0  0  0  0  0  0
  141.3767   71.3600  224.3993 H   0  0  0  0  0  0  0  0  0  0  0  0
  140.1650   71.9791  225.6275 H   0  0  0  0  0  0  0  0  0  0  0  0
  1  2  2  0
  2  3  1  0
  3  4  2  0
  4  5  1  0
  5  6  2  0
  5  7  1  0
  7  8  1  0
  8  9  1  0
  9 10  1  0
 10 11  2  0
 11 12  1  0
 12 13  1  0
 13 14  1  0
 14 15  1  0
 15 16  1  0
 16 17  1  0
 17 18  1  0
 18 19  1  0
 19 20  1  0
 12 21  2  0
 21 22  1  0
 22 23  1  0
 23 24  1  0
 24 25  1  0
 25 26  1  0
 26 27  2  0
 27 28  1  0
 28 29  2  0
 29 30  1  0
 30 31  2  0
 31 32  1  0
 22 33  2  0
  9 34  1  0
  6  1  1  0
 33 10  1  0
 34  4  1  0
 20 16  1  0
 32 23  1  0
 31 26  1  0
  1 35  1  0
  2 36  1  0
  3 37  1  0
  6 38  1  0
  7 39  1  0
  7 40  1  0
  8 41  1  0
  8 42  1  0
  9 43  1  1
 13 44  1  0
 14 45  1  0
 14 46  1  0
 15 47  1  0
 15 48  1  0
 17 49  1  0
 17 50  1  0
 18 51  1  0
 18 52  1  0
 19 53  1  0
 19 54  1  0
 20 55  1  0
 20 56  1  0
 24 57  1  0
 24 58  1  0
 25 59  1  0
 25 60  1  0
 27 61  1  0
 28 62  1  0
 29 63  1  0
 30 64  1  0
 32 65  1  0
 32 66  1  0
 34 67  1  0
 34 68  1  0
M  END
>  <smiles>  (8) 
c1ccc2c(c1)CCC(c1nc(NCCN3CCCC3)nc(N3CCc4ccccc4C3)n1)C2

>  <score_type>  (8) 
oracle

>  <origin>  (8) 
autodockgpu

>  <m_score__min__energy>  (8) 
-10.43

>  <m_primary>  (8) 
energy

>  <rmsd>  (8) 
5.50773437444703

>  <m_score__min__rmsd>  (8) 
5.50773437444703

>  <meeko>  (8) 
{"free_energy": -9.41, "intermolecular_energy": -11.2, "internal_energy": -1.84, "cluster_size": 33, "cluster_id": 2, "rank_in_cluster": 30}

>  <energy>  (8) 
-9.99

>  <cluster_rmsd>  (8) 
0.42

>  <cluster>  (8) 
1

$$$$

     RDKit          3D

 68 73  0  0  0  0  0  0  0  0999 V2000
  145.9440   68.0510  219.5500 C   0  0  0  0  0  0  0  0  0  0  0  0
  144.6440   67.6440  219.7570 C   0  0  0  0  0  0  0  0  0  0  0  0
  143.6170   68.5610  219.6980 C   0  0  0  0  0  0  0  0  0  0  0  0
  143.8480   69.9010  219.4340 C   0  0  0  0  0  0  0  0  0  0  0  0
  145.1400   70.2840  219.2320 C   0  0  0  0  0  0  0  0  0  0  0  0
  146.2040   69.3820  219.2840 C   0  0  0  0  0  0  0  0  0  0  0  0
  145.3840   71.7420  218.9460 C   0  0  0  0  0  0  0  0  0  0  0  0
  144.4500   72.5170  219.8280 C   0  0  0  0  0  0  0  0  0  0  0  0
  143.0120   72.2590  219.4380 C   0  0  2  0  0  0  0  0  0  0  0  0
  142.1470   72.8740  220.4840 C   0  0  0  0  0  0  0  0  0  0  0  0
  141.4580   72.1650  221.3900 N   0  0  0  0  0  0  0  0  0  0  0  0
  140.6990   72.7580  222.3080 C   0  0  0  0  0  0  0  0  0  0  0  0
  139.9770   71.9760  223.2500 N   0  0  0  0  0  0  0  0  0  0  0  0
  139.7350   70.5570  223.0460 C   0  0  0  0  0  0  0  0  0  0  0  0
  139.7430   69.7970  224.3460 C   0  0  0  0  0  0  0  0  0  0  0  0
  139.9780   70.6460  225.4860 N   0  0  0  0  0  0  0  0  0  0  0  0
  141.3540   71.0620  225.6380 C   0  0  0  0  0  0  0  0  0  0  0  0
  141.2350   71.8920  226.9240 C   0  0  0  0  0  0  0  0  0  0  0  0
  140.3290   70.9930  227.7400 C   0  0  0  0  0  0  0  0  0  0  0  0
  139.7220   70.0030  226.7370 C   0  0  0  0  0  0  0  0  0  0  0  0
  140.6430   74.1140  222.2980 N   0  0  0  0  0  0  0  0  0  0  0  0
  141.3130   74.8740  221.4140 C   0  0  0  0  0  0  0  0  0  0  0  0
  141.2260   76.2930  221.4370 N   0  0  0  0  0  0  0  0  0  0  0  0
  141.5980   77.0500  220.2590 C   0  0  0  0  0  0  0  0  0  0  0  0
  140.8500   78.3700  220.2760 C   0  0  0  0  0  0  0  0  0  0  0  0
  141.3400   79.0890  221.4850 C   0  0  0  0  0  0  0  0  0  0  0  0
  141.8100   80.3830  221.4520 C   0  0  0  0  0  0  0  0  0  0  0  0
  142.2470   80.9750  222.6380 C   0  0  0  0  0  0  0  0  0  0  0  0
  142.2120   80.2690  223.8430 C   0  0  0  0  0  0  0  0  0  0  0  0
  141.7330   78.9590  223.8580 C   0  0  0  0  0  0  0  0  0  0  0  0
  141.3030   78.3870  222.6750 C   0  0  0  0  0  0  0  0  0  0  0  0
  140.7790   76.9970  222.6120 C   0  0  0  0  0  0  0  0  0  0  0  0
  142.0660   74.2220  220.5070 N   0  0  0  0  0  0  0  0  0  0  0  0
  142.6760   70.7940  219.3980 C   0  0  0  0  0  0  0  0  0  0  0  0
  146.7674   67.3231  219.5961 H   0  0  0  0  0  0  0  0  0  0  0  0
  144.4259   66.5870  219.9694 H   0  0  0  0  0  0  0  0  0  0  0  0
  142.5849   68.2193  219.8652 H   0  0  0  0  0  0  0  0  0  0  0  0
  147.2352   69.7259  219.1156 H   0  0  0  0  0  0  0  0  0  0  0  0
  146.4273   72.0039  219.1760 H   0  0  0  0  0  0  0  0  0  0  0  0
  145.2078   71.9717  217.8848 H   0  0  0  0  0  0  0  0  0  0  0  0
  144.6017   72.2098  220.8733 H   0  0  0  0  0  0  0  0  0  0  0  0
  144.6616   73.5902  219.7120 H   0  0  0  0  0  0  0  0  0  0  0  0
  142.8538   72.6797  218.4340 H   0  0  0  0  0  0  0  0  0  0  0  0
  139.5970   72.4060  224.1250 H   0  0  0  0  0  0  0  0  0  0  0  0
  138.7545   70.4284  222.5642 H   0  0  0  0  0  0  0  0  0  0  0  0
  140.5415   70.1597  222.4121 H   0  0  0  0  0  0  0  0  0  0  0  0
  138.7682   69.3028  224.4705 H   0  0  0  0  0  0  0  0  0  0  0  0
  140.5659   69.0686  224.2995 H   0  0  0  0  0  0  0  0  0  0  0  0
  142.0293   70.2032  225.7663 H   0  0  0  0  0  0  0  0  0  0  0  0
  141.7761   71.5983  224.7753 H   0  0  0  0  0  0  0  0  0  0  0  0
  142.2120   72.0342  227.4090 H   0  0  0  0  0  0  0  0  0  0  0  0
  140.8603   72.9161  226.7794 H   0  0  0  0  0  0  0  0  0  0  0  0
  140.9082   70.4572  228.5064 H   0  0  0  0  0  0  0  0  0  0  0  0
  139.5528   71.5667  228.2676 H   0  0  0  0  0  0  0  0  0  0  0  0
  140.2203   69.0239  226.7916 H   0  0  0  0  0  0  0  0  0  0  0  0
  138.6574   69.7908  226.9149 H   0  0  0  0  0  0  0  0  0  0  0  0
  142.6818   77.2380  220.2663 H   0  0  0  0  0  0  0  0  0  0  0  0
  141.3408   76.4839  219.3516 H   0  0  0  0  0  0  0  0  0  0  0  0
  141.0719   78.9495  219.3677 H   0  0  0  0  0  0  0  0  0  0  0  0
  139.7604   78.2215  220.3029 H   0  0  0  0  0  0  0  0  0  0  0  0
  141.8406   80.9418  220.5050 H   0  0  0  0  0  0  0  0  0  0  0  0
  142.6230   82.0086  222.6238 H   0  0  0  0  0  0  0  0  0  0  0  0
  142.5596   80.7426  224.7730 H   0  0  0  0  0  0  0  0  0  0  0  0
  141.6979   78.3889  224.7981 H   0  0  0  0  0  0  0  0  0  0  0  0
  141.1213   76.4500  223.5029 H   0  0  0  0  0  0  0  0  0  0  0  0
  139.6813   77.0545  222.5706 H   0  0  0  0  0  0  0  0  0  0  0  0
  142.0401   70.5627  220.2653 H   0  0  0  0  0  0  0  0  0  0  0  0
  142.1718   70.6129  218.4373 H   0  0  0  0  0  0  0  0  0  0  0  0
  1  2  2  0
  2  3  1  0
  3  4  2  0
  4  5  1  0
  5  6  2  0
  5  7  1  0
  7  8  1  0
  8  9  1  0
  9 10  1  0
 10 11  2  0
 11 12  1  0
 12 13  1  0
 13 14  1  0
 14 15  1  0
 15 16  1  0
 16 17  1  0
 17 18  1  0
 18 19  1  0
 19 20  1  0
 12 21  2  0
 21 22  1  0
 22 23  1  0
 23 24  1  0
 24 25  1  0
 25 26  1  0
 26 27  2  0
 27 28  1  0
 28 29  2  0
 29 30  1  0
 30 31  2  0
 31 32  1  0
 22 33  2  0
  9 34  1  0
  6  1  1  0
 33 10  1  0
 34  4  1  0
 20 16  1  0
 32 23  1  0
 31 26  1  0
  1 35  1  0
  2 36  1  0
  3 37  1  0
  6 38  1  0
  7 39  1  0
  7 40  1  0
  8 41  1  0
  8 42  1  0
  9 43  1  6
 13 44  1  0
 14 45  1  0
 14 46  1  0
 15 47  1  0
 15 48  1  0
 17 49  1  0
 17 50  1  0
 18 51  1  0
 18 52  1  0
 19 53  1  0
 19 54  1  0
 20 55  1  0
 20 56  1  0
 24 57  1  0
 24 58  1  0
 25 59  1  0
 25 60  1  0
 27 61  1  0
 28 62  1  0
 29 63  1  0
 30 64  1  0
 32 65  1  0
 32 66  1  0
 34 67  1  0
 34 68  1  0
M  END
>  <smiles>  (9) 
c1ccc2c(c1)CCC(c1nc(NCCN3CCCC3)nc(N3CCc4ccccc4C3)n1)C2

>  <score_type>  (9) 
oracle

>  <origin>  (9) 
autodockgpu

>  <m_score__min__energy>  (9) 
-10.43

>  <m_primary>  (9) 
energy

>  <rmsd>  (9) 
8.121360017087692

>  <m_score__min__rmsd>  (9) 
8.121360017087692

>  <meeko>  (9) 
{"free_energy": -10.02, "intermolecular_energy": -11.81, "internal_energy": -1.74, "cluster_size": 13, "cluster_id": 1, "rank_in_cluster": 7}

>  <energy>  (9) 
-9.96

>  <cluster_rmsd>  (9) 
0.39

>  <cluster>  (9) 
1

$$$$

     RDKit          3D

 68 73  0  0  0  0  0  0  0  0999 V2000
  140.2610   67.7720  226.7980 C   0  0  0  0  0  0  0  0  0  0  0  0
  141.0830   68.8080  227.1800 C   0  0  0  0  0  0  0  0  0  0  0  0
  141.0560   70.0000  226.4870 C   0  0  0  0  0  0  0  0  0  0  0  0
  140.2170   70.1960  225.4030 C   0  0  0  0  0  0  0  0  0  0  0  0
  139.4110   69.1590  225.0410 C   0  0  0  0  0  0  0  0  0  0  0  0
  139.4120   67.9390  225.7190 C   0  0  0  0  0  0  0  0  0  0  0  0
  138.5020   69.3790  223.8610 C   0  0  0  0  0  0  0  0  0  0  0  0
  139.2850   70.1710  222.8560 C   0  0  0  0  0  0  0  0  0  0  0  0
  139.6000   71.5490  223.3910 C   0  0  2  0  0  0  0  0  0  0  0  0
  140.5560   72.1900  222.4460 C   0  0  0  0  0  0  0  0  0  0  0  0
  141.4660   71.5080  221.7340 N   0  0  0  0  0  0  0  0  0  0  0  0
  142.3000   72.1230  220.8990 C   0  0  0  0  0  0  0  0  0  0  0  0
  143.2570   71.3710  220.1640 N   0  0  0  0  0  0  0  0  0  0  0  0
  144.6080   71.8580  219.9380 C   0  0  0  0  0  0  0  0  0  0  0  0
  145.4250   70.8850  219.1300 C   0  0  0  0  0  0  0  0  0  0  0  0
  144.9540   69.5290  219.2500 N   0  0  0  0  0  0  0  0  0  0  0  0
  146.0070   68.5390  219.2730 C   0  0  0  0  0  0  0  0  0  0  0  0
  145.1610   67.2610  219.3700 C   0  0  0  0  0  0  0  0  0  0  0  0
  144.0680   67.5870  218.3740 C   0  0  0  0  0  0  0  0  0  0  0  0
  144.1670   69.1000  218.1370 C   0  0  0  0  0  0  0  0  0  0  0  0
  142.2000   73.4720  220.7890 N   0  0  0  0  0  0  0  0  0  0  0  0
  141.3070   74.2040  221.4770 C   0  0  0  0  0  0  0  0  0  0  0  0
  141.2360   75.6170  221.3340 N   0  0  0  0  0  0  0  0  0  0  0  0
  141.8020   76.2450  220.1580 C   0  0  0  0  0  0  0  0  0  0  0  0
  141.0780   77.5560  219.9120 C   0  0  0  0  0  0  0  0  0  0  0  0
  141.3750   78.4030  221.1010 C   0  0  0  0  0  0  0  0  0  0  0  0
  141.8600   79.6880  221.0060 C   0  0  0  0  0  0  0  0  0  0  0  0
  142.1080   80.4070  222.1760 C   0  0  0  0  0  0  0  0  0  0  0  0
  141.8700   79.8340  223.4290 C   0  0  0  0  0  0  0  0  0  0  0  0
  141.3780   78.5300  223.5060 C   0  0  0  0  0  0  0  0  0  0  0  0
  141.1380   77.8330  222.3370 C   0  0  0  0  0  0  0  0  0  0  0  0
  140.6140   76.4420  222.3400 C   0  0  0  0  0  0  0  0  0  0  0  0
  140.4880   73.5320  222.3080 N   0  0  0  0  0  0  0  0  0  0  0  0
  140.2720   71.5100  224.7360 C   0  0  0  0  0  0  0  0  0  0  0  0
  140.2792   66.8188  227.3466 H   0  0  0  0  0  0  0  0  0  0  0  0
  141.7610   68.6852  228.0375 H   0  0  0  0  0  0  0  0  0  0  0  0
  141.7195   70.8180  226.8042 H   0  0  0  0  0  0  0  0  0  0  0  0
  138.7475   67.1225  225.3999 H   0  0  0  0  0  0  0  0  0  0  0  0
  138.1995   68.4132  223.4301 H   0  0  0  0  0  0  0  0  0  0  0  0
  137.5876   69.9124  224.1598 H   0  0  0  0  0  0  0  0  0  0  0  0
  140.2258   69.6453  222.6356 H   0  0  0  0  0  0  0  0  0  0  0  0
  138.6832   70.2755  221.9412 H   0  0  0  0  0  0  0  0  0  0  0  0
  138.6510   72.0958  223.4926 H   0  0  0  0  0  0  0  0  0  0  0  0
  143.0110   70.4370  219.7630 H   0  0  0  0  0  0  0  0  0  0  0  0
  144.5559   72.8145  219.3972 H   0  0  0  0  0  0  0  0  0  0  0  0
  145.0946   71.9832  220.9165 H   0  0  0  0  0  0  0  0  0  0  0  0
  145.3792   71.1810  218.0716 H   0  0  0  0  0  0  0  0  0  0  0  0
  146.4544   70.9144  219.5167 H   0  0  0  0  0  0  0  0  0  0  0  0
  146.6101   68.5617  218.3534 H   0  0  0  0  0  0  0  0  0  0  0  0
  146.7496   68.6677  220.0742 H   0  0  0  0  0  0  0  0  0  0  0  0
  145.7327   66.3702  219.0705 H   0  0  0  0  0  0  0  0  0  0  0  0
  144.8055   67.0187  220.3824 H   0  0  0  0  0  0  0  0  0  0  0  0
  144.2289   67.0393  217.4337 H   0  0  0  0  0  0  0  0  0  0  0  0
  143.0752   67.2967  218.7482 H   0  0  0  0  0  0  0  0  0  0  0  0
  144.6693   69.3224  217.1840 H   0  0  0  0  0  0  0  0  0  0  0  0
  143.1902   69.6010  218.0677 H   0  0  0  0  0  0  0  0  0  0  0  0
  142.8727   76.4380  220.3202 H   0  0  0  0  0  0  0  0  0  0  0  0
  141.6867   75.5833  219.2869 H   0  0  0  0  0  0  0  0  0  0  0  0
  141.4516   78.0355  218.9952 H   0  0  0  0  0  0  0  0  0  0  0  0
  139.9966   77.4063  219.7771 H   0  0  0  0  0  0  0  0  0  0  0  0
  142.0493   80.1415  220.0219 H   0  0  0  0  0  0  0  0  0  0  0  0
  142.4946   81.4348  222.1119 H   0  0  0  0  0  0  0  0  0  0  0  0
  142.0689   80.4064  224.3470 H   0  0  0  0  0  0  0  0  0  0  0  0
  141.1841   78.0638  224.4832 H   0  0  0  0  0  0  0  0  0  0  0  0
  140.8018   75.9961  223.3279 H   0  0  0  0  0  0  0  0  0  0  0  0
  139.5380   76.4890  222.1163 H   0  0  0  0  0  0  0  0  0  0  0  0
  141.3287   71.7842  224.6014 H   0  0  0  0  0  0  0  0  0  0  0  0
  139.7269   72.2144  225.3815 H   0  0  0  0  0  0  0  0  0  0  0  0
  1  2  2  0
  2  3  1  0
  3  4  2  0
  4  5  1  0
  5  6  2  0
  5  7  1  0
  7  8  1  0
  8  9  1  0
  9 10  1  0
 10 11  2  0
 11 12  1  0
 12 13  1  0
 13 14  1  0
 14 15  1  0
 15 16  1  0
 16 17  1  0
 17 18  1  0
 18 19  1  0
 19 20  1  0
 12 21  2  0
 21 22  1  0
 22 23  1  0
 23 24  1  0
 24 25  1  0
 25 26  1  0
 26 27  2  0
 27 28  1  0
 28 29  2  0
 29 30  1  0
 30 31  2  0
 31 32  1  0
 22 33  2  0
  9 34  1  0
  6  1  1  0
 33 10  1  0
 34  4  1  0
 20 16  1  0
 32 23  1  0
 31 26  1  0
  1 35  1  0
  2 36  1  0
  3 37  1  0
  6 38  1  0
  7 39  1  0
  7 40  1  0
  8 41  1  0
  8 42  1  0
  9 43  1  1
 13 44  1  0
 14 45  1  0
 14 46  1  0
 15 47  1  0
 15 48  1  0
 17 49  1  0
 17 50  1  0
 18 51  1  0
 18 52  1  0
 19 53  1  0
 19 54  1  0
 20 55  1  0
 20 56  1  0
 24 57  1  0
 24 58  1  0
 25 59  1  0
 25 60  1  0
 27 61  1  0
 28 62  1  0
 29 63  1  0
 30 64  1  0
 32 65  1  0
 32 66  1  0
 34 67  1  0
 34 68  1  0
M  END
>  <smiles>  (10) 
c1ccc2c(c1)CCC(c1nc(NCCN3CCCC3)nc(N3CCc4ccccc4C3)n1)C2

>  <score_type>  (10) 
oracle

>  <origin>  (10) 
autodockgpu

>  <m_score__min__energy>  (10) 
-10.43

>  <m_primary>  (10) 
energy

>  <rmsd>  (10) 
8.351924342184244

>  <m_score__min__rmsd>  (10) 
8.351924342184244

>  <meeko>  (10) 
{"free_energy": -10.02, "intermolecular_energy": -11.81, "internal_energy": -1.69, "cluster_size": 33, "cluster_id": 2, "rank_in_cluster": 12}

>  <energy>  (10) 
-9.84

>  <cluster_rmsd>  (10) 
0.62

>  <cluster>  (10) 
1

$$$$

     RDKit          3D

 68 73  0  0  0  0  0  0  0  0999 V2000
  146.0280   68.3580  219.4590 C   0  0  0  0  0  0  0  0  0  0  0  0
  144.8310   67.8620  219.9280 C   0  0  0  0  0  0  0  0  0  0  0  0
  143.7030   68.6540  219.9090 C   0  0  0  0  0  0  0  0  0  0  0  0
  143.7290   69.9520  219.4290 C   0  0  0  0  0  0  0  0  0  0  0  0
  144.9220   70.4250  218.9690 C   0  0  0  0  0  0  0  0  0  0  0  0
  146.0830   69.6510  218.9730 C   0  0  0  0  0  0  0  0  0  0  0  0
  144.9430   71.8370  218.4480 C   0  0  0  0  0  0  0  0  0  0  0  0
  144.0600   72.6440  219.3540 C   0  0  0  0  0  0  0  0  0  0  0  0
  142.6230   72.1890  219.2410 C   0  0  2  0  0  0  0  0  0  0  0  0
  141.8510   72.8710  220.3170 C   0  0  0  0  0  0  0  0  0  0  0  0
  141.1380   72.2190  221.2470 N   0  0  0  0  0  0  0  0  0  0  0  0
  140.4640   72.8710  222.1920 C   0  0  0  0  0  0  0  0  0  0  0  0
  139.7140   72.1500  223.1590 N   0  0  0  0  0  0  0  0  0  0  0  0
  140.0000   70.7600  223.4740 C   0  0  0  0  0  0  0  0  0  0  0  0
  140.9930   70.6340  224.5990 C   0  0  0  0  0  0  0  0  0  0  0  0
  140.4140   70.9210  225.8870 N   0  0  0  0  0  0  0  0  0  0  0  0
  141.2120   71.8010  226.7090 C   0  0  0  0  0  0  0  0  0  0  0  0
  140.3330   71.8510  227.9670 C   0  0  0  0  0  0  0  0  0  0  0  0
  139.9490   70.3910  228.0840 C   0  0  0  0  0  0  0  0  0  0  0  0
  140.2870   69.7680  226.7220 C   0  0  0  0  0  0  0  0  0  0  0  0
  140.5220   74.2270  222.1840 N   0  0  0  0  0  0  0  0  0  0  0  0
  141.2200   74.9310  221.2760 C   0  0  0  0  0  0  0  0  0  0  0  0
  141.2540   76.3520  221.3020 N   0  0  0  0  0  0  0  0  0  0  0  0
  141.8510   77.0730  220.1950 C   0  0  0  0  0  0  0  0  0  0  0  0
  141.2240   78.4520  220.1220 C   0  0  0  0  0  0  0  0  0  0  0  0
  141.5990   79.1280  221.3950 C   0  0  0  0  0  0  0  0  0  0  0  0
  142.1780   80.3760  221.4420 C   0  0  0  0  0  0  0  0  0  0  0  0
  142.4940   80.9300  222.6840 C   0  0  0  0  0  0  0  0  0  0  0  0
  142.2280   80.2310  223.8650 C   0  0  0  0  0  0  0  0  0  0  0  0
  141.6410   78.9680  223.7980 C   0  0  0  0  0  0  0  0  0  0  0  0
  141.3350   78.4330  222.5610 C   0  0  0  0  0  0  0  0  0  0  0  0
  140.7080   77.0940  222.4100 C   0  0  0  0  0  0  0  0  0  0  0  0
  141.8830   74.2210  220.3430 N   0  0  0  0  0  0  0  0  0  0  0  0
  142.4640   70.7090  219.4580 C   0  0  0  0  0  0  0  0  0  0  0  0
  146.9316   67.7308  219.4712 H   0  0  0  0  0  0  0  0  0  0  0  0
  144.7757   66.8347  220.3173 H   0  0  0  0  0  0  0  0  0  0  0  0
  142.7550   68.2427  220.2861 H   0  0  0  0  0  0  0  0  0  0  0  0
  147.0295   70.0642  218.5944 H   0  0  0  0  0  0  0  0  0  0  0  0
  145.9691   72.2330  218.4673 H   0  0  0  0  0  0  0  0  0  0  0  0
  144.5878   71.8803  217.4078 H   0  0  0  0  0  0  0  0  0  0  0  0
  144.3980   72.5190  220.3933 H   0  0  0  0  0  0  0  0  0  0  0  0
  144.1211   73.7017  219.0583 H   0  0  0  0  0  0  0  0  0  0  0  0
  142.2712   72.4313  218.2273 H   0  0  0  0  0  0  0  0  0  0  0  0
  138.9270   72.6060  223.6780 H   0  0  0  0  0  0  0  0  0  0  0  0
  139.0643   70.2617  223.7676 H   0  0  0  0  0  0  0  0  0  0  0  0
  140.4350   70.2895  222.5799 H   0  0  0  0  0  0  0  0  0  0  0  0
  141.3836   69.6057  224.6100 H   0  0  0  0  0  0  0  0  0  0  0  0
  141.7907   71.3704  224.4219 H   0  0  0  0  0  0  0  0  0  0  0  0
  142.2044   71.3759  226.9199 H   0  0  0  0  0  0  0  0  0  0  0  0
  141.4383   72.7794  226.2600 H   0  0  0  0  0  0  0  0  0  0  0  0
  140.8983   72.1952  228.8456 H   0  0  0  0  0  0  0  0  0  0  0  0
  139.4840   72.5481  227.9092 H   0  0  0  0  0  0  0  0  0  0  0  0
  140.5269   69.9043  228.8835 H   0  0  0  0  0  0  0  0  0  0  0  0
  138.8856   70.2675  228.3368 H   0  0  0  0  0  0  0  0  0  0  0  0
  141.2286   69.2010  226.7652 H   0  0  0  0  0  0  0  0  0  0  0  0
  139.5364   69.0461  226.3677 H   0  0  0  0  0  0  0  0  0  0  0  0
  142.9352   77.1668  220.3554 H   0  0  0  0  0  0  0  0  0  0  0  0
  141.6758   76.5301  219.2545 H   0  0  0  0  0  0  0  0  0  0  0  0
  141.6198   79.0090  219.2600 H   0  0  0  0  0  0  0  0  0  0  0  0
  140.1327   78.3977  219.9951 H   0  0  0  0  0  0  0  0  0  0  0  0
  142.3886   80.9287  220.5146 H   0  0  0  0  0  0  0  0  0  0  0  0
  142.9570   81.9266  222.7337 H   0  0  0  0  0  0  0  0  0  0  0  0
  142.4799   80.6740  224.8398 H   0  0  0  0  0  0  0  0  0  0  0  0
  141.4243   78.4048  224.7177 H   0  0  0  0  0  0  0  0  0  0  0  0
  140.8729   76.5208  223.3342 H   0  0  0  0  0  0  0  0  0  0  0  0
  139.6362   77.2463  222.2151 H   0  0  0  0  0  0  0  0  0  0  0  0
  141.9919   70.5535  220.4393 H   0  0  0  0  0  0  0  0  0  0  0  0
  141.8525   70.3324  218.6248 H   0  0  0  0  0  0  0  0  0  0  0  0
  1  2  2  0
  2  3  1  0
  3  4  2  0
  4  5  1  0
  5  6  2  0
  5  7  1  0
  7  8  1  0
  8  9  1  0
  9 10  1  0
 10 11  2  0
 11 12  1  0
 12 13  1  0
 13 14  1  0
 14 15  1  0
 15 16  1  0
 16 17  1  0
 17 18  1  0
 18 19  1  0
 19 20  1  0
 12 21  2  0
 21 22  1  0
 22 23  1  0
 23 24  1  0
 24 25  1  0
 25 26  1  0
 26 27  2  0
 27 28  1  0
 28 29  2  0
 29 30  1  0
 30 31  2  0
 31 32  1  0
 22 33  2  0
  9 34  1  0
  6  1  1  0
 33 10  1  0
 34  4  1  0
 20 16  1  0
 32 23  1  0
 31 26  1  0
  1 35  1  0
  2 36  1  0
  3 37  1  0
  6 38  1  0
  7 39  1  0
  7 40  1  0
  8 41  1  0
  8 42  1  0
  9 43  1  6
 13 44  1  0
 14 45  1  0
 14 46  1  0
 15 47  1  0
 15 48  1  0
 17 49  1  0
 17 50  1  0
 18 51  1  0
 18 52  1  0
 19 53  1  0
 19 54  1  0
 20 55  1  0
 20 56  1  0
 24 57  1  0
 24 58  1  0
 25 59  1  0
 25 60  1  0
 27 61  1  0
 28 62  1  0
 29 63  1  0
 30 64  1  0
 32 65  1  0
 32 66  1  0
 34 67  1  0
 34 68  1  0
M  END
>  <smiles>  (11) 
c1ccc2c(c1)CCC(c1nc(NCCN3CCCC3)nc(N3CCc4ccccc4C3)n1)C2

>  <score_type>  (11) 
oracle

>  <origin>  (11) 
autodockgpu

>  <m_score__min__energy>  (11) 
-10.43

>  <m_primary>  (11) 
energy

>  <rmsd>  (11) 
8.501929062214497

>  <m_score__min__rmsd>  (11) 
8.501929062214497

>  <meeko>  (11) 
{"free_energy": -10.13, "intermolecular_energy": -11.92, "internal_energy": -1.18, "cluster_size": 13, "cluster_id": 1, "rank_in_cluster": 5}

>  <energy>  (11) 
-9.73

>  <cluster_rmsd>  (11) 
0.59

>  <cluster>  (11) 
1

$$$$

     RDKit          3D

 68 73  0  0  0  0  0  0  0  0999 V2000
  140.3150   67.3740  226.6090 C   0  0  0  0  0  0  0  0  0  0  0  0
  141.4180   68.1930  226.7140 C   0  0  0  0  0  0  0  0  0  0  0  0
  141.4210   69.4270  226.0990 C   0  0  0  0  0  0  0  0  0  0  0  0
  140.3370   69.8810  225.3660 C   0  0  0  0  0  0  0  0  0  0  0  0
  139.2560   69.0570  225.2740 C   0  0  0  0  0  0  0  0  0  0  0  0
  139.2180   67.8020  225.8840 C   0  0  0  0  0  0  0  0  0  0  0  0
  138.0820   69.5570  224.4750 C   0  0  0  0  0  0  0  0  0  0  0  0
  138.6450   70.2730  223.2830 C   0  0  0  0  0  0  0  0  0  0  0  0
  139.4020   71.5080  223.7130 C   0  0  2  0  0  0  0  0  0  0  0  0
  140.1120   72.0380  222.5140 C   0  0  0  0  0  0  0  0  0  0  0  0
  140.6360   71.2580  221.5570 N   0  0  0  0  0  0  0  0  0  0  0  0
  141.2610   71.7760  220.5020 C   0  0  0  0  0  0  0  0  0  0  0  0
  141.8110   70.9210  219.5080 N   0  0  0  0  0  0  0  0  0  0  0  0
  142.6920   71.4210  218.4660 C   0  0  0  0  0  0  0  0  0  0  0  0
  144.1390   71.3470  218.8740 C   0  0  0  0  0  0  0  0  0  0  0  0
  144.5140   72.3950  219.7890 N   0  0  0  0  0  0  0  0  0  0  0  0
  144.3050   73.7290  219.2750 C   0  0  0  0  0  0  0  0  0  0  0  0
  144.8270   74.5500  220.4620 C   0  0  0  0  0  0  0  0  0  0  0  0
  146.0700   73.7590  220.8100 C   0  0  0  0  0  0  0  0  0  0  0  0
  145.9100   72.4100  220.0950 C   0  0  0  0  0  0  0  0  0  0  0  0
  141.3520   73.1280  220.4250 N   0  0  0  0  0  0  0  0  0  0  0  0
  140.8450   73.9560  221.3550 C   0  0  0  0  0  0  0  0  0  0  0  0
  140.9630   75.3680  221.2370 N   0  0  0  0  0  0  0  0  0  0  0  0
  141.6920   75.9330  220.1200 C   0  0  0  0  0  0  0  0  0  0  0  0
  141.1590   77.3270  219.8490 C   0  0  0  0  0  0  0  0  0  0  0  0
  141.4680   78.1160  221.0740 C   0  0  0  0  0  0  0  0  0  0  0  0
  142.1170   79.3300  221.0430 C   0  0  0  0  0  0  0  0  0  0  0  0
  142.3630   79.9970  222.2440 C   0  0  0  0  0  0  0  0  0  0  0  0
  141.9600   79.4440  223.4630 C   0  0  0  0  0  0  0  0  0  0  0  0
  141.3040   78.2130  223.4760 C   0  0  0  0  0  0  0  0  0  0  0  0
  141.0680   77.5660  222.2770 C   0  0  0  0  0  0  0  0  0  0  0  0
  140.3750   76.2530  222.2110 C   0  0  0  0  0  0  0  0  0  0  0  0
  140.2230   73.3790  222.4010 N   0  0  0  0  0  0  0  0  0  0  0  0
  140.4510   71.2150  224.7500 C   0  0  0  0  0  0  0  0  0  0  0  0
  140.3071   66.3885  227.0975 H   0  0  0  0  0  0  0  0  0  0  0  0
  142.2960   67.8624  227.2884 H   0  0  0  0  0  0  0  0  0  0  0  0
  142.3093   70.0690  226.1931 H   0  0  0  0  0  0  0  0  0  0  0  0
  138.3280   67.1625  225.7893 H   0  0  0  0  0  0  0  0  0  0  0  0
  137.4575   68.7120  224.1495 H   0  0  0  0  0  0  0  0  0  0  0  0
  137.4504   70.2269  225.0769 H   0  0  0  0  0  0  0  0  0  0  0  0
  139.3284   69.5988  222.7459 H   0  0  0  0  0  0  0  0  0  0  0  0
  137.8156   70.5759  222.6270 H   0  0  0  0  0  0  0  0  0  0  0  0
  138.6774   72.2152  224.1430 H   0  0  0  0  0  0  0  0  0  0  0  0
  141.5940   69.8970  219.5010 H   0  0  0  0  0  0  0  0  0  0  0  0
  142.5470   70.8180  217.5575 H   0  0  0  0  0  0  0  0  0  0  0  0
  142.4417   72.4766  218.2842 H   0  0  0  0  0  0  0  0  0  0  0  0
  144.3186   70.3760  219.3587 H   0  0  0  0  0  0  0  0  0  0  0  0
  144.7466   71.4670  217.9649 H   0  0  0  0  0  0  0  0  0  0  0  0
  144.8903   73.9121  218.3618 H   0  0  0  0  0  0  0  0  0  0  0  0
  143.2721   73.9544  218.9713 H   0  0  0  0  0  0  0  0  0  0  0  0
  145.0699   75.5818  220.1681 H   0  0  0  0  0  0  0  0  0  0  0  0
  144.1115   74.6718  221.2886 H   0  0  0  0  0  0  0  0  0  0  0  0
  146.9702   74.2798  220.4517 H   0  0  0  0  0  0  0  0  0  0  0  0
  146.1838   73.6342  221.8970 H   0  0  0  0  0  0  0  0  0  0  0  0
  146.5194   72.3686  219.1802 H   0  0  0  0  0  0  0  0  0  0  0  0
  146.2399   71.5496  220.6958 H   0  0  0  0  0  0  0  0  0  0  0  0
  142.7628   75.9871  220.3658 H   0  0  0  0  0  0  0  0  0  0  0  0
  141.5622   75.3014  219.2288 H   0  0  0  0  0  0  0  0  0  0  0  0
  141.6585   77.7660  218.9728 H   0  0  0  0  0  0  0  0  0  0  0  0
  140.0808   77.3166  219.6313 H   0  0  0  0  0  0  0  0  0  0  0  0
  142.4368   79.7676  220.0858 H   0  0  0  0  0  0  0  0  0  0  0  0
  142.8795   80.9681  222.2313 H   0  0  0  0  0  0  0  0  0  0  0  0
  142.1588   79.9758  224.4052 H   0  0  0  0  0  0  0  0  0  0  0  0
  140.9793   77.7636  224.4261 H   0  0  0  0  0  0  0  0  0  0  0  0
  140.4293   75.7751  223.2003 H   0  0  0  0  0  0  0  0  0  0  0  0
  139.3338   76.4389  221.9088 H   0  0  0  0  0  0  0  0  0  0  0  0
  141.4389   71.2908  224.2721 H   0  0  0  0  0  0  0  0  0  0  0  0
  140.3101   71.9486  225.5575 H   0  0  0  0  0  0  0  0  0  0  0  0
  1  2  2  0
  2  3  1  0
  3  4  2  0
  4  5  1  0
  5  6  2  0
  5  7  1  0
  7  8  1  0
  8  9  1  0
  9 10  1  0
 10 11  2  0
 11 12  1  0
 12 13  1  0
 13 14  1  0
 14 15  1  0
 15 16  1  0
 16 17  1  0
 17 18  1  0
 18 19  1  0
 19 20  1  0
 12 21  2  0
 21 22  1  0
 22 23  1  0
 23 24  1  0
 24 25  1  0
 25 26  1  0
 26 27  2  0
 27 28  1  0
 28 29  2  0
 29 30  1  0
 30 31  2  0
 31 32  1  0
 22 33  2  0
  9 34  1  0
  6  1  1  0
 33 10  1  0
 34  4  1  0
 20 16  1  0
 32 23  1  0
 31 26  1  0
  1 35  1  0
  2 36  1  0
  3 37  1  0
  6 38  1  0
  7 39  1  0
  7 40  1  0
  8 41  1  0
  8 42  1  0
  9 43  1  1
 13 44  1  0
 14 45  1  0
 14 46  1  0
 15 47  1  0
 15 48  1  0
 17 49  1  0
 17 50  1  0
 18 51  1  0
 18 52  1  0
 19 53  1  0
 19 54  1  0
 20 55  1  0
 20 56  1  0
 24 57  1  0
 24 58  1  0
 25 59  1  0
 25 60  1  0
 27 61  1  0
 28 62  1  0
 29 63  1  0
 30 64  1  0
 32 65  1  0
 32 66  1  0
 34 67  1  0
 34 68  1  0
M  END
>  <smiles>  (12) 
c1ccc2c(c1)CCC(c1nc(NCCN3CCCC3)nc(N3CCc4ccccc4C3)n1)C2

>  <score_type>  (12) 
oracle

>  <origin>  (12) 
autodockgpu

>  <m_score__min__energy>  (12) 
-10.43

>  <m_primary>  (12) 
energy

>  <rmsd>  (12) 
5.969960083650959

>  <m_score__min__rmsd>  (12) 
5.969960083650959

>  <meeko>  (12) 
{"free_energy": -9.79, "intermolecular_energy": -11.58, "internal_energy": -1.69, "cluster_size": 33, "cluster_id": 2, "rank_in_cluster": 24}

>  <energy>  (12) 
-9.4

>  <cluster_rmsd>  (12) 
1.36

>  <cluster>  (12) 
1

$$$$

     RDKit          3D

 68 73  0  0  0  0  0  0  0  0999 V2000
  140.2410   67.7690  226.8130 C   0  0  0  0  0  0  0  0  0  0  0  0
  140.9990   68.8340  227.2480 C   0  0  0  0  0  0  0  0  0  0  0  0
  140.9830   70.0220  226.5480 C   0  0  0  0  0  0  0  0  0  0  0  0
  140.2200   70.1860  225.4050 C   0  0  0  0  0  0  0  0  0  0  0  0
  139.4770   69.1210  224.9910 C   0  0  0  0  0  0  0  0  0  0  0  0
  139.4690   67.9040  225.6740 C   0  0  0  0  0  0  0  0  0  0  0  0
  138.6500   69.3070  223.7470 C   0  0  0  0  0  0  0  0  0  0  0  0
  139.4780   70.1220  222.7960 C   0  0  0  0  0  0  0  0  0  0  0  0
  139.7070   71.5110  223.3450 C   0  0  2  0  0  0  0  0  0  0  0  0
  140.7090   72.1800  222.4680 C   0  0  0  0  0  0  0  0  0  0  0  0
  141.7000   71.5290  221.8430 N   0  0  0  0  0  0  0  0  0  0  0  0
  142.5720   72.1680  221.0670 C   0  0  0  0  0  0  0  0  0  0  0  0
  143.6150   71.4490  220.4230 N   0  0  0  0  0  0  0  0  0  0  0  0
  144.0520   71.7710  219.0740 C   0  0  0  0  0  0  0  0  0  0  0  0
  145.1930   70.8940  218.6310 C   0  0  0  0  0  0  0  0  0  0  0  0
  145.1770   69.6000  219.2650 N   0  0  0  0  0  0  0  0  0  0  0  0
  146.3110   68.7670  218.9320 C   0  0  0  0  0  0  0  0  0  0  0  0
  145.9500   67.5060  219.7300 C   0  0  0  0  0  0  0  0  0  0  0  0
  144.4700   67.4090  219.4230 C   0  0  0  0  0  0  0  0  0  0  0  0
  144.0780   68.7810  218.8580 C   0  0  0  0  0  0  0  0  0  0  0  0
  142.4240   73.5100  220.9270 N   0  0  0  0  0  0  0  0  0  0  0  0
  141.4490   74.2120  221.5300 C   0  0  0  0  0  0  0  0  0  0  0  0
  141.3300   75.6190  221.3580 N   0  0  0  0  0  0  0  0  0  0  0  0
  141.8700   76.2410  220.1660 C   0  0  0  0  0  0  0  0  0  0  0  0
  141.1010   77.5210  219.8970 C   0  0  0  0  0  0  0  0  0  0  0  0
  141.3750   78.4020  221.0670 C   0  0  0  0  0  0  0  0  0  0  0  0
  141.8170   79.7000  220.9420 C   0  0  0  0  0  0  0  0  0  0  0  0
  142.0460   80.4510  222.0970 C   0  0  0  0  0  0  0  0  0  0  0  0
  141.8330   79.8960  223.3620 C   0  0  0  0  0  0  0  0  0  0  0  0
  141.3850   78.5790  223.4690 C   0  0  0  0  0  0  0  0  0  0  0  0
  141.1630   77.8500  222.3160 C   0  0  0  0  0  0  0  0  0  0  0  0
  140.6860   76.4430  222.3500 C   0  0  0  0  0  0  0  0  0  0  0  0
  140.5950   73.5160  222.3040 N   0  0  0  0  0  0  0  0  0  0  0  0
  140.2800   71.4980  224.7360 C   0  0  0  0  0  0  0  0  0  0  0  0
  140.2499   66.8190  227.3674 H   0  0  0  0  0  0  0  0  0  0  0  0
  141.6165   68.7368  228.1531 H   0  0  0  0  0  0  0  0  0  0  0  0
  141.5938   70.8629  226.9082 H   0  0  0  0  0  0  0  0  0  0  0  0
  138.8575   67.0646  225.3115 H   0  0  0  0  0  0  0  0  0  0  0  0
  138.4116   68.3303  223.3008 H   0  0  0  0  0  0  0  0  0  0  0  0
  137.6993   69.8110  223.9757 H   0  0  0  0  0  0  0  0  0  0  0  0
  140.4493   69.6275  222.6474 H   0  0  0  0  0  0  0  0  0  0  0  0
  138.9415   70.2032  221.8391 H   0  0  0  0  0  0  0  0  0  0  0  0
  138.7359   72.0268  223.3744 H   0  0  0  0  0  0  0  0  0  0  0  0
  144.1030   70.6610  220.9080 H   0  0  0  0  0  0  0  0  0  0  0  0
  143.2072   71.6319  218.3834 H   0  0  0  0  0  0  0  0  0  0  0  0
  144.4005   72.8143  219.0676 H   0  0  0  0  0  0  0  0  0  0  0  0
  145.1268   70.7534  217.5420 H   0  0  0  0  0  0  0  0  0  0  0  0
  146.1290   71.3945  218.9198 H   0  0  0  0  0  0  0  0  0  0  0  0
  146.3680   68.5657  217.8521 H   0  0  0  0  0  0  0  0  0  0  0  0
  147.2936   69.2019  219.1673 H   0  0  0  0  0  0  0  0  0  0  0  0
  146.4996   66.6242  219.3690 H   0  0  0  0  0  0  0  0  0  0  0  0
  146.1971   67.5512  220.8009 H   0  0  0  0  0  0  0  0  0  0  0  0
  144.2823   66.6195  218.6804 H   0  0  0  0  0  0  0  0  0  0  0  0
  143.8834   67.1532  220.3177 H   0  0  0  0  0  0  0  0  0  0  0  0
  143.9879   68.7502  217.7621 H   0  0  0  0  0  0  0  0  0  0  0  0
  143.1020   69.1427  219.2138 H   0  0  0  0  0  0  0  0  0  0  0  0
  142.9343   76.4733  220.3189 H   0  0  0  0  0  0  0  0  0  0  0  0
  141.7739   75.5578  219.3092 H   0  0  0  0  0  0  0  0  0  0  0  0
  141.4538   77.9938  218.9686 H   0  0  0  0  0  0  0  0  0  0  0  0
  140.0247   77.3322  219.7709 H   0  0  0  0  0  0  0  0  0  0  0  0
  141.9871   80.1387  219.9477 H   0  0  0  0  0  0  0  0  0  0  0  0
  142.3975   81.4897  222.0103 H   0  0  0  0  0  0  0  0  0  0  0  0
  142.0173   80.4935  224.2670 H   0  0  0  0  0  0  0  0  0  0  0  0
  141.2110   78.1274  224.4568 H   0  0  0  0  0  0  0  0  0  0  0  0
  140.8934   76.0239  223.3457 H   0  0  0  0  0  0  0  0  0  0  0  0
  139.6080   76.4496  222.1312 H   0  0  0  0  0  0  0  0  0  0  0  0
  141.3342   71.8067  224.6771 H   0  0  0  0  0  0  0  0  0  0  0  0
  139.6658   72.1856  225.3359 H   0  0  0  0  0  0  0  0  0  0  0  0
  1  2  2  0
  2  3  1  0
  3  4  2  0
  4  5  1  0
  5  6  2  0
  5  7  1  0
  7  8  1  0
  8  9  1  0
  9 10  1  0
 10 11  2  0
 11 12  1  0
 12 13  1  0
 13 14  1  0
 14 15  1  0
 15 16  1  0
 16 17  1  0
 17 18  1  0
 18 19  1  0
 19 20  1  0
 12 21  2  0
 21 22  1  0
 22 23  1  0
 23 24  1  0
 24 25  1  0
 25 26  1  0
 26 27  2  0
 27 28  1  0
 28 29  2  0
 29 30  1  0
 30 31  2  0
 31 32  1  0
 22 33  2  0
  9 34  1  0
  6  1  1  0
 33 10  1  0
 34  4  1  0
 20 16  1  0
 32 23  1  0
 31 26  1  0
  1 35  1  0
  2 36  1  0
  3 37  1  0
  6 38  1  0
  7 39  1  0
  7 40  1  0
  8 41  1  0
  8 42  1  0
  9 43  1  1
 13 44  1  0
 14 45  1  0
 14 46  1  0
 15 47  1  0
 15 48  1  0
 17 49  1  0
 17 50  1  0
 18 51  1  0
 18 52  1  0
 19 53  1  0
 19 54  1  0
 20 55  1  0
 20 56  1  0
 24 57  1  0
 24 58  1  0
 25 59  1  0
 25 60  1  0
 27 61  1  0
 28 62  1  0
 29 63  1  0
 30 64  1  0
 32 65  1  0
 32 66  1  0
 34 67  1  0
 34 68  1  0
M  END
>  <smiles>  (13) 
c1ccc2c(c1)CCC(c1nc(NCCN3CCCC3)nc(N3CCc4ccccc4C3)n1)C2

>  <score_type>  (13) 
oracle

>  <origin>  (13) 
autodockgpu

>  <m_score__min__energy>  (13) 
-10.43

>  <m_primary>  (13) 
energy

>  <rmsd>  (13) 
8.424349774029999

>  <m_score__min__rmsd>  (13) 
8.424349774029999

>  <meeko>  (13) 
{"free_energy": -10.12, "intermolecular_energy": -11.91, "internal_energy": -1.7, "cluster_size": 33, "cluster_id": 2, "rank_in_cluster": 5}

>  <energy>  (13) 
-9.27

>  <cluster_rmsd>  (13) 
0.91

>  <cluster>  (13) 
1

$$$$

     RDKit          3D

 68 73  0  0  0  0  0  0  0  0999 V2000
  140.0820   67.8150  226.8450 C   0  0  0  0  0  0  0  0  0  0  0  0
  140.8210   68.8850  227.2980 C   0  0  0  0  0  0  0  0  0  0  0  0
  140.8200   70.0700  226.5940 C   0  0  0  0  0  0  0  0  0  0  0  0
  140.0890   70.2270  225.4280 C   0  0  0  0  0  0  0  0  0  0  0  0
  139.3640   69.1570  224.9970 C   0  0  0  0  0  0  0  0  0  0  0  0
  139.3420   67.9430  225.6840 C   0  0  0  0  0  0  0  0  0  0  0  0
  138.5720   69.3350  223.7290 C   0  0  0  0  0  0  0  0  0  0  0  0
  139.4230   70.1500  222.8000 C   0  0  0  0  0  0  0  0  0  0  0  0
  139.6290   71.5420  223.3510 C   0  0  2  0  0  0  0  0  0  0  0  0
  140.6520   72.2140  222.5000 C   0  0  0  0  0  0  0  0  0  0  0  0
  141.6700   71.5670  221.9130 N   0  0  0  0  0  0  0  0  0  0  0  0
  142.5600   72.2080  221.1600 C   0  0  0  0  0  0  0  0  0  0  0  0
  143.6310   71.4930  220.5570 N   0  0  0  0  0  0  0  0  0  0  0  0
  144.1100   71.8090  219.2210 C   0  0  0  0  0  0  0  0  0  0  0  0
  144.2020   70.5800  218.3550 C   0  0  0  0  0  0  0  0  0  0  0  0
  144.8330   69.4730  219.0270 N   0  0  0  0  0  0  0  0  0  0  0  0
  145.8400   68.8010  218.2390 C   0  0  0  0  0  0  0  0  0  0  0  0
  146.2520   67.6990  219.2260 C   0  0  0  0  0  0  0  0  0  0  0  0
  144.8910   67.2790  219.7410 C   0  0  0  0  0  0  0  0  0  0  0  0
  143.9320   68.4040  219.3300 C   0  0  0  0  0  0  0  0  0  0  0  0
  142.4050   73.5470  221.0030 N   0  0  0  0  0  0  0  0  0  0  0  0
  141.4040   74.2440  221.5680 C   0  0  0  0  0  0  0  0  0  0  0  0
  141.2770   75.6480  221.3790 N   0  0  0  0  0  0  0  0  0  0  0  0
  141.8110   76.2580  220.1780 C   0  0  0  0  0  0  0  0  0  0  0  0
  141.0350   77.5310  219.8960 C   0  0  0  0  0  0  0  0  0  0  0  0
  141.3060   78.4280  221.0540 C   0  0  0  0  0  0  0  0  0  0  0  0
  141.7400   79.7260  220.9130 C   0  0  0  0  0  0  0  0  0  0  0  0
  141.9680   80.4930  222.0580 C   0  0  0  0  0  0  0  0  0  0  0  0
  141.7600   79.9520  223.3300 C   0  0  0  0  0  0  0  0  0  0  0  0
  141.3200   78.6340  223.4540 C   0  0  0  0  0  0  0  0  0  0  0  0
  141.0990   77.8900  222.3100 C   0  0  0  0  0  0  0  0  0  0  0  0
  140.6300   76.4810  222.3620 C   0  0  0  0  0  0  0  0  0  0  0  0
  140.5320   73.5470  222.3200 N   0  0  0  0  0  0  0  0  0  0  0  0
  140.1620   71.5370  224.7570 C   0  0  0  0  0  0  0  0  0  0  0  0
  140.0804   66.8665  227.4020 H   0  0  0  0  0  0  0  0  0  0  0  0
  141.4119   68.7941  228.2214 H   0  0  0  0  0  0  0  0  0  0  0  0
  141.4166   70.9148  226.9687 H   0  0  0  0  0  0  0  0  0  0  0  0
  138.7445   67.0997  225.3075 H   0  0  0  0  0  0  0  0  0  0  0  0
  138.3508   68.3557  223.2796 H   0  0  0  0  0  0  0  0  0  0  0  0
  137.6129   69.8353  223.9285 H   0  0  0  0  0  0  0  0  0  0  0  0
  140.4006   69.6598  222.6815 H   0  0  0  0  0  0  0  0  0  0  0  0
  138.9147   70.2252  221.8274 H   0  0  0  0  0  0  0  0  0  0  0  0
  138.6546   72.0524  223.3514 H   0  0  0  0  0  0  0  0  0  0  0  0
  144.1090   70.7130  221.0650 H   0  0  0  0  0  0  0  0  0  0  0  0
  143.4160   72.5230  218.7534 H   0  0  0  0  0  0  0  0  0  0  0  0
  145.1181   72.2397  219.3120 H   0  0  0  0  0  0  0  0  0  0  0  0
  143.1855   70.2799  218.0606 H   0  0  0  0  0  0  0  0  0  0  0  0
  144.8199   70.8344  217.4812 H   0  0  0  0  0  0  0  0  0  0  0  0
  145.4221   68.3837  217.3110 H   0  0  0  0  0  0  0  0  0  0  0  0
  146.6618   69.4430  217.8889 H   0  0  0  0  0  0  0  0  0  0  0  0
  146.7694   66.8709  218.7195 H   0  0  0  0  0  0  0  0  0  0  0  0
  146.9618   68.0175  220.0037 H   0  0  0  0  0  0  0  0  0  0  0  0
  144.5843   66.3264  219.2843 H   0  0  0  0  0  0  0  0  0  0  0  0
  144.8965   67.1251  220.8302 H   0  0  0  0  0  0  0  0  0  0  0  0
  143.3388   68.1202  218.4482 H   0  0  0  0  0  0  0  0  0  0  0  0
  143.1907   68.6567  220.1024 H   0  0  0  0  0  0  0  0  0  0  0  0
  142.8746   76.4971  220.3252 H   0  0  0  0  0  0  0  0  0  0  0  0
  141.7161   75.5641  219.3298 H   0  0  0  0  0  0  0  0  0  0  0  0
  141.3834   77.9944  218.9612 H   0  0  0  0  0  0  0  0  0  0  0  0
  139.9594   77.3346  219.7753 H   0  0  0  0  0  0  0  0  0  0  0  0
  141.9051   80.1536  219.9130 H   0  0  0  0  0  0  0  0  0  0  0  0
  142.3144   81.5322  221.9577 H   0  0  0  0  0  0  0  0  0  0  0  0
  141.9421   80.5616  224.2274 H   0  0  0  0  0  0  0  0  0  0  0  0
  141.1514   78.1932  224.4476 H   0  0  0  0  0  0  0  0  0  0  0  0
  140.8413   76.0754  223.3624 H   0  0  0  0  0  0  0  0  0  0  0  0
  139.5517   76.4790  222.1448 H   0  0  0  0  0  0  0  0  0  0  0  0
  141.2159   71.8506  224.7271 H   0  0  0  0  0  0  0  0  0  0  0  0
  139.5281   72.2240  225.3369 H   0  0  0  0  0  0  0  0  0  0  0  0
  1  2  2  0
  2  3  1  0
  3  4  2  0
  4  5  1  0
  5  6  2  0
  5  7  1  0
  7  8  1  0
  8  9  1  0
  9 10  1  0
 10 11  2  0
 11 12  1  0
 12 13  1  0
 13 14  1  0
 14 15  1  0
 15 16  1  0
 16 17  1  0
 17 18  1  0
 18 19  1  0
 19 20  1  0
 12 21  2  0
 21 22  1  0
 22 23  1  0
 23 24  1  0
 24 25  1  0
 25 26  1  0
 26 27  2  0
 27 28  1  0
 28 29  2  0
 29 30  1  0
 30 31  2  0
 31 32  1  0
 22 33  2  0
  9 34  1  0
  6  1  1  0
 33 10  1  0
 34  4  1  0
 20 16  1  0
 32 23  1  0
 31 26  1  0
  1 35  1  0
  2 36  1  0
  3 37  1  0
  6 38  1  0
  7 39  1  0
  7 40  1  0
  8 41  1  0
  8 42  1  0
  9 43  1  1
 13 44  1  0
 14 45  1  0
 14 46  1  0
 15 47  1  0
 15 48  1  0
 17 49  1  0
 17 50  1  0
 18 51  1  0
 18 52  1  0
 19 53  1  0
 19 54  1  0
 20 55  1  0
 20 56  1  0
 24 57  1  0
 24 58  1  0
 25 59  1  0
 25 60  1  0
 27 61  1  0
 28 62  1  0
 29 63  1  0
 30 64  1  0
 32 65  1  0
 32 66  1  0
 34 67  1  0
 34 68  1  0
M  END
>  <smiles>  (14) 
c1ccc2c(c1)CCC(c1nc(NCCN3CCCC3)nc(N3CCc4ccccc4C3)n1)C2

>  <score_type>  (14) 
oracle

>  <origin>  (14) 
autodockgpu

>  <m_score__min__energy>  (14) 
-10.43

>  <m_primary>  (14) 
energy

>  <rmsd>  (14) 
8.484675004545815

>  <m_score__min__rmsd>  (14) 
8.484675004545815

>  <meeko>  (14) 
{"free_energy": -9.86, "intermolecular_energy": -11.65, "internal_energy": -1.4, "cluster_size": 33, "cluster_id": 2, "rank_in_cluster": 20}

>  <energy>  (14) 
-10.22

>  <cluster_rmsd>  (14) 
0.0

>  <cluster>  (14) 
2

$$$$

     RDKit          3D

 68 73  0  0  0  0  0  0  0  0999 V2000
  141.4610   80.7700  223.8140 C   0  0  0  0  0  0  0  0  0  0  0  0
  142.6210   80.2820  223.2540 C   0  0  0  0  0  0  0  0  0  0  0  0
  142.5770   79.1790  222.4280 C   0  0  0  0  0  0  0  0  0  0  0  0
  141.3870   78.5330  222.1350 C   0  0  0  0  0  0  0  0  0  0  0  0
  140.2510   79.0320  222.6980 C   0  0  0  0  0  0  0  0  0  0  0  0
  140.2590   80.1460  223.5390 C   0  0  0  0  0  0  0  0  0  0  0  0
  138.9620   78.3240  222.3760 C   0  0  0  0  0  0  0  0  0  0  0  0
  139.2680   76.8550  222.3610 C   0  0  0  0  0  0  0  0  0  0  0  0
  140.2120   76.5200  221.2280 C   0  0  2  0  0  0  0  0  0  0  0  0
  140.6430   75.1050  221.4080 C   0  0  0  0  0  0  0  0  0  0  0  0
  140.0700   74.2590  222.2770 N   0  0  0  0  0  0  0  0  0  0  0  0
  140.4870   73.0020  222.4030 C   0  0  0  0  0  0  0  0  0  0  0  0
  139.8620   72.1330  223.3380 N   0  0  0  0  0  0  0  0  0  0  0  0
  139.6260   70.7290  223.0430 C   0  0  0  0  0  0  0  0  0  0  0  0
  139.6510   69.8840  224.2900 C   0  0  0  0  0  0  0  0  0  0  0  0
  139.8990   70.6570  225.4800 N   0  0  0  0  0  0  0  0  0  0  0  0
  141.2690   71.0940  225.6250 C   0  0  0  0  0  0  0  0  0  0  0  0
  141.1680   71.8280  226.9690 C   0  0  0  0  0  0  0  0  0  0  0  0
  140.3050   70.8530  227.7430 C   0  0  0  0  0  0  0  0  0  0  0  0
  139.6930   69.9210  226.6880 C   0  0  0  0  0  0  0  0  0  0  0  0
  141.5190   72.5990  221.6170 N   0  0  0  0  0  0  0  0  0  0  0  0
  142.1290   73.4050  220.7300 C   0  0  0  0  0  0  0  0  0  0  0  0
  143.2080   72.9440  219.9270 N   0  0  0  0  0  0  0  0  0  0  0  0
  143.4030   73.5040  218.6050 C   0  0  0  0  0  0  0  0  0  0  0  0
  144.8690   73.3730  218.2360 C   0  0  0  0  0  0  0  0  0  0  0  0
  145.1370   71.9090  218.1830 C   0  0  0  0  0  0  0  0  0  0  0  0
  145.7360   71.2930  217.1080 C   0  0  0  0  0  0  0  0  0  0  0  0
  145.9470   69.9140  217.1490 C   0  0  0  0  0  0  0  0  0  0  0  0
  145.5570   69.1650  218.2630 C   0  0  0  0  0  0  0  0  0  0  0  0
  144.9510   69.8070  219.3440 C   0  0  0  0  0  0  0  0  0  0  0  0
  144.7490   71.1730  219.2870 C   0  0  0  0  0  0  0  0  0  0  0  0
  144.1120   71.9250  220.3990 C   0  0  0  0  0  0  0  0  0  0  0  0
  141.6670   74.6660  220.6440 N   0  0  0  0  0  0  0  0  0  0  0  0
  141.4570   77.3630  221.2420 C   0  0  0  0  0  0  0  0  0  0  0  0
  141.4912   81.6490  224.4746 H   0  0  0  0  0  0  0  0  0  0  0  0
  143.5826   80.7724  223.4658 H   0  0  0  0  0  0  0  0  0  0  0  0
  143.5125   78.8015  221.9895 H   0  0  0  0  0  0  0  0  0  0  0  0
  139.3223   80.5217  223.9765 H   0  0  0  0  0  0  0  0  0  0  0  0
  138.2059   78.5458  223.1435 H   0  0  0  0  0  0  0  0  0  0  0  0
  138.5611   78.6542  221.4063 H   0  0  0  0  0  0  0  0  0  0  0  0
  139.7351   76.5732  223.3162 H   0  0  0  0  0  0  0  0  0  0  0  0
  138.3300   76.2986  222.2176 H   0  0  0  0  0  0  0  0  0  0  0  0
  139.6813   76.7002  220.2815 H   0  0  0  0  0  0  0  0  0  0  0  0
  139.5530   72.4840  224.2740 H   0  0  0  0  0  0  0  0  0  0  0  0
  138.6416   70.6265  222.5630 H   0  0  0  0  0  0  0  0  0  0  0  0
  140.4287   70.3797  222.3769 H   0  0  0  0  0  0  0  0  0  0  0  0
  138.6785   69.3806  224.3936 H   0  0  0  0  0  0  0  0  0  0  0  0
  140.4738   69.1614  224.1855 H   0  0  0  0  0  0  0  0  0  0  0  0
  141.9663   70.2447  225.6741 H   0  0  0  0  0  0  0  0  0  0  0  0
  141.6549   71.6997  224.7918 H   0  0  0  0  0  0  0  0  0  0  0  0
  142.1549   71.9588  227.4369 H   0  0  0  0  0  0  0  0  0  0  0  0
  140.7671   72.8505  226.9072 H   0  0  0  0  0  0  0  0  0  0  0  0
  140.9167   70.2791  228.4546 H   0  0  0  0  0  0  0  0  0  0  0  0
  139.5311   71.3695  228.3298 H   0  0  0  0  0  0  0  0  0  0  0  0
  140.2152   68.9533  226.6595 H   0  0  0  0  0  0  0  0  0  0  0  0
  138.6390   69.6700  226.8782 H   0  0  0  0  0  0  0  0  0  0  0  0
  142.7870   72.9570  217.8761 H   0  0  0  0  0  0  0  0  0  0  0  0
  143.1065   74.5633  218.5978 H   0  0  0  0  0  0  0  0  0  0  0  0
  145.0615   73.8347  217.2563 H   0  0  0  0  0  0  0  0  0  0  0  0
  145.5197   73.8808  218.9632 H   0  0  0  0  0  0  0  0  0  0  0  0
  146.0439   71.8789  216.2294 H   0  0  0  0  0  0  0  0  0  0  0  0
  146.4253   69.4111  216.2956 H   0  0  0  0  0  0  0  0  0  0  0  0
  145.7264   68.0784  218.2874 H   0  0  0  0  0  0  0  0  0  0  0  0
  144.6385   69.2336  220.2292 H   0  0  0  0  0  0  0  0  0  0  0  0
  143.5503   71.2180  221.0272 H   0  0  0  0  0  0  0  0  0  0  0  0
  144.9110   72.4231  220.9677 H   0  0  0  0  0  0  0  0  0  0  0  0
  142.2970   76.7315  221.5668 H   0  0  0  0  0  0  0  0  0  0  0  0
  141.5850   77.7529  220.2214 H   0  0  0  0  0  0  0  0  0  0  0  0
  1  2  2  0
  2  3  1  0
  3  4  2  0
  4  5  1  0
  5  6  2  0
  5  7  1  0
  7  8  1  0
  8  9  1  0
  9 10  1  0
 10 11  2  0
 11 12  1  0
 12 13  1  0
 13 14  1  0
 14 15  1  0
 15 16  1  0
 16 17  1  0
 17 18  1  0
 18 19  1  0
 19 20  1  0
 12 21  2  0
 21 22  1  0
 22 23  1  0
 23 24  1  0
 24 25  1  0
 25 26  1  0
 26 27  2  0
 27 28  1  0
 28 29  2  0
 29 30  1  0
 30 31  2  0
 31 32  1  0
 22 33  2  0
  9 34  1  0
  6  1  1  0
 33 10  1  0
 34  4  1  0
 20 16  1  0
 32 23  1  0
 31 26  1  0
  1 35  1  0
  2 36  1  0
  3 37  1  0
  6 38  1  0
  7 39  1  0
  7 40  1  0
  8 41  1  0
  8 42  1  0
  9 43  1  6
 13 44  1  0
 14 45  1  0
 14 46  1  0
 15 47  1  0
 15 48  1  0
 17 49  1  0
 17 50  1  0
 18 51  1  0
 18 52  1  0
 19 53  1  0
 19 54  1  0
 20 55  1  0
 20 56  1  0
 24 57  1  0
 24 58  1  0
 25 59  1  0
 25 60  1  0
 27 61  1  0
 28 62  1  0
 29 63  1  0
 30 64  1  0
 32 65  1  0
 32 66  1  0
 34 67  1  0
 34 68  1  0
M  END
>  <smiles>  (15) 
c1ccc2c(c1)CCC(c1nc(NCCN3CCCC3)nc(N3CCc4ccccc4C3)n1)C2

>  <score_type>  (15) 
oracle

>  <origin>  (15) 
autodockgpu

>  <m_score__min__energy>  (15) 
-10.43

>  <m_primary>  (15) 
energy

>  <rmsd>  (15) 
8.116389712374957

>  <m_score__min__rmsd>  (15) 
8.116389712374957

>  <meeko>  (15) 
{"free_energy": -9.4, "intermolecular_energy": -11.19, "internal_energy": -1.71, "cluster_size": 13, "cluster_id": 1, "rank_in_cluster": 12}

>  <energy>  (15) 
-10.13

>  <cluster_rmsd>  (15) 
0.98

>  <cluster>  (15) 
2

$$$$

     RDKit          3D

 68 73  0  0  0  0  0  0  0  0999 V2000
  140.2980   67.8100  226.8520 C   0  0  0  0  0  0  0  0  0  0  0  0
  141.0890   68.8650  227.2500 C   0  0  0  0  0  0  0  0  0  0  0  0
  141.0600   70.0510  226.5490 C   0  0  0  0  0  0  0  0  0  0  0  0
  140.2510   70.2250  225.4390 C   0  0  0  0  0  0  0  0  0  0  0  0
  139.4750   69.1700  225.0610 C   0  0  0  0  0  0  0  0  0  0  0  0
  139.4790   67.9550  225.7470 C   0  0  0  0  0  0  0  0  0  0  0  0
  138.5980   69.3660  223.8530 C   0  0  0  0  0  0  0  0  0  0  0  0
  139.3960   70.1660  222.8650 C   0  0  0  0  0  0  0  0  0  0  0  0
  139.6690   71.5530  223.4010 C   0  0  2  0  0  0  0  0  0  0  0  0
  140.6410   72.2050  222.4790 C   0  0  0  0  0  0  0  0  0  0  0  0
  141.5900   71.5360  221.8060 N   0  0  0  0  0  0  0  0  0  0  0  0
  142.4360   72.1610  220.9910 C   0  0  0  0  0  0  0  0  0  0  0  0
  143.4340   71.4240  220.2980 N   0  0  0  0  0  0  0  0  0  0  0  0
  144.1500   71.9800  219.1620 C   0  0  0  0  0  0  0  0  0  0  0  0
  144.9880   70.9410  218.4650 C   0  0  0  0  0  0  0  0  0  0  0  0
  145.0110   69.6830  219.1680 N   0  0  0  0  0  0  0  0  0  0  0  0
  146.2800   68.9940  219.1010 C   0  0  0  0  0  0  0  0  0  0  0  0
  145.9320   67.7300  219.9000 C   0  0  0  0  0  0  0  0  0  0  0  0
  144.5590   67.4270  219.3370 C   0  0  0  0  0  0  0  0  0  0  0  0
  144.1170   68.7110  218.6220 C   0  0  0  0  0  0  0  0  0  0  0  0
  142.3080   73.5060  220.8610 N   0  0  0  0  0  0  0  0  0  0  0  0
  141.3770   74.2250  221.5110 C   0  0  0  0  0  0  0  0  0  0  0  0
  141.2770   75.6340  221.3480 N   0  0  0  0  0  0  0  0  0  0  0  0
  141.8270   76.2560  220.1610 C   0  0  0  0  0  0  0  0  0  0  0  0
  141.0760   77.5490  219.9000 C   0  0  0  0  0  0  0  0  0  0  0  0
  141.3610   78.4180  221.0750 C   0  0  0  0  0  0  0  0  0  0  0  0
  141.8200   79.7110  220.9590 C   0  0  0  0  0  0  0  0  0  0  0  0
  142.0590   80.4510  222.1190 C   0  0  0  0  0  0  0  0  0  0  0  0
  141.8370   79.8910  223.3800 C   0  0  0  0  0  0  0  0  0  0  0  0
  141.3710   78.5800  223.4780 C   0  0  0  0  0  0  0  0  0  0  0  0
  141.1400   77.8610  222.3200 C   0  0  0  0  0  0  0  0  0  0  0  0
  140.6430   76.4610  222.3450 C   0  0  0  0  0  0  0  0  0  0  0  0
  140.5460   73.5430  222.3230 N   0  0  0  0  0  0  0  0  0  0  0  0
  140.3020   71.5340  224.7650 C   0  0  0  0  0  0  0  0  0  0  0  0
  140.3175   66.8610  227.4078 H   0  0  0  0  0  0  0  0  0  0  0  0
  141.7440   68.7608  228.1276 H   0  0  0  0  0  0  0  0  0  0  0  0
  141.6979   70.8834  226.8809 H   0  0  0  0  0  0  0  0  0  0  0  0
  138.8398   67.1242  225.4136 H   0  0  0  0  0  0  0  0  0  0  0  0
  138.3258   68.3920  223.4202 H   0  0  0  0  0  0  0  0  0  0  0  0
  137.6659   69.8850  224.1211 H   0  0  0  0  0  0  0  0  0  0  0  0
  140.3525   69.6567  222.6758 H   0  0  0  0  0  0  0  0  0  0  0  0
  138.8205   70.2532  221.9317 H   0  0  0  0  0  0  0  0  0  0  0  0
  138.7079   72.0832  223.4724 H   0  0  0  0  0  0  0  0  0  0  0  0
  143.6830   70.4510  220.5900 H   0  0  0  0  0  0  0  0  0  0  0  0
  143.4206   72.3875  218.4465 H   0  0  0  0  0  0  0  0  0  0  0  0
  144.8220   72.7674  219.5340 H   0  0  0  0  0  0  0  0  0  0  0  0
  144.5769   70.7744  217.4584 H   0  0  0  0  0  0  0  0  0  0  0  0
  146.0204   71.3185  218.4248 H   0  0  0  0  0  0  0  0  0  0  0  0
  146.5634   68.7580  218.0647 H   0  0  0  0  0  0  0  0  0  0  0  0
  147.1401   69.5639  219.4822 H   0  0  0  0  0  0  0  0  0  0  0  0
  146.6428   66.9142  219.7019 H   0  0  0  0  0  0  0  0  0  0  0  0
  145.9664   67.8507  220.9928 H   0  0  0  0  0  0  0  0  0  0  0  0
  144.6113   66.5894  218.6259 H   0  0  0  0  0  0  0  0  0  0  0  0
  143.8500   67.1340  220.1254 H   0  0  0  0  0  0  0  0  0  0  0  0
  144.2400   68.6234  217.5324 H   0  0  0  0  0  0  0  0  0  0  0  0
  143.0548   68.9556  218.7697 H   0  0  0  0  0  0  0  0  0  0  0  0
  142.8943   76.4722  220.3165 H   0  0  0  0  0  0  0  0  0  0  0  0
  141.7224   75.5800  219.2995 H   0  0  0  0  0  0  0  0  0  0  0  0
  141.4361   78.0229  218.9749 H   0  0  0  0  0  0  0  0  0  0  0  0
  139.9972   77.3760  219.7722 H   0  0  0  0  0  0  0  0  0  0  0  0
  141.9958   80.1543  219.9677 H   0  0  0  0  0  0  0  0  0  0  0  0
  142.4257   81.4850  222.0393 H   0  0  0  0  0  0  0  0  0  0  0  0
  142.0285   80.4801  224.2890 H   0  0  0  0  0  0  0  0  0  0  0  0
  141.1898   78.1246  224.4628 H   0  0  0  0  0  0  0  0  0  0  0  0
  140.8433   76.0329  223.3383 H   0  0  0  0  0  0  0  0  0  0  0  0
  139.5654   76.4840  222.1254 H   0  0  0  0  0  0  0  0  0  0  0  0
  141.3572   71.8261  224.6592 H   0  0  0  0  0  0  0  0  0  0  0  0
  139.7256   72.2324  225.3895 H   0  0  0  0  0  0  0  0  0  0  0  0
  1  2  2  0
  2  3  1  0
  3  4  2  0
  4  5  1  0
  5  6  2  0
  5  7  1  0
  7  8  1  0
  8  9  1  0
  9 10  1  0
 10 11  2  0
 11 12  1  0
 12 13  1  0
 13 14  1  0
 14 15  1  0
 15 16  1  0
 16 17  1  0
 17 18  1  0
 18 19  1  0
 19 20  1  0
 12 21  2  0
 21 22  1  0
 22 23  1  0
 23 24  1  0
 24 25  1  0
 25 26  1  0
 26 27  2  0
 27 28  1  0
 28 29  2  0
 29 30  1  0
 30 31  2  0
 31 32  1  0
 22 33  2  0
  9 34  1  0
  6  1  1  0
 33 10  1  0
 34  4  1  0
 20 16  1  0
 32 23  1  0
 31 26  1  0
  1 35  1  0
  2 36  1  0
  3 37  1  0
  6 38  1  0
  7 39  1  0
  7 40  1  0
  8 41  1  0
  8 42  1  0
  9 43  1  1
 13 44  1  0
 14 45  1  0
 14 46  1  0
 15 47  1  0
 15 48  1  0
 17 49  1  0
 17 50  1  0
 18 51  1  0
 18 52  1  0
 19 53  1  0
 19 54  1  0
 20 55  1  0
 20 56  1  0
 24 57  1  0
 24 58  1  0
 25 59  1  0
 25 60  1  0
 27 61  1  0
 28 62  1  0
 29 63  1  0
 30 64  1  0
 32 65  1  0
 32 66  1  0
 34 67  1  0
 34 68  1  0
M  END
>  <smiles>  (16) 
c1ccc2c(c1)CCC(c1nc(NCCN3CCCC3)nc(N3CCc4ccccc4C3)n1)C2

>  <score_type>  (16) 
oracle

>  <origin>  (16) 
autodockgpu

>  <m_score__min__energy>  (16) 
-10.43

>  <m_primary>  (16) 
energy

>  <rmsd>  (16) 
8.37760225815248

>  <m_score__min__rmsd>  (16) 
8.37760225815248

>  <meeko>  (16) 
{"free_energy": -9.96, "intermolecular_energy": -11.75, "internal_energy": -1.77, "cluster_size": 33, "cluster_id": 2, "rank_in_cluster": 16}

>  <energy>  (16) 
-10.13

>  <cluster_rmsd>  (16) 
0.43

>  <cluster>  (16) 
2

$$$$

     RDKit          3D

 68 73  0  0  0  0  0  0  0  0999 V2000
  140.3810   67.4300  226.5280 C   0  0  0  0  0  0  0  0  0  0  0  0
  141.4510   68.2850  226.6760 C   0  0  0  0  0  0  0  0  0  0  0  0
  141.4310   69.5250  226.0750 C   0  0  0  0  0  0  0  0  0  0  0  0
  140.3550   69.9500  225.3130 C   0  0  0  0  0  0  0  0  0  0  0  0
  139.3060   69.0900  225.1780 C   0  0  0  0  0  0  0  0  0  0  0  0
  139.2930   67.8280  225.7730 C   0  0  0  0  0  0  0  0  0  0  0  0
  138.1410   69.5590  224.3490 C   0  0  0  0  0  0  0  0  0  0  0  0
  138.7150   70.3080  223.1820 C   0  0  0  0  0  0  0  0  0  0  0  0
  139.4160   71.5640  223.6480 C   0  0  2  0  0  0  0  0  0  0  0  0
  140.1440   72.1310  222.4790 C   0  0  0  0  0  0  0  0  0  0  0  0
  140.7030   71.3810  221.5170 N   0  0  0  0  0  0  0  0  0  0  0  0
  141.3430   71.9320  220.4890 C   0  0  0  0  0  0  0  0  0  0  0  0
  141.9300   71.1090  219.4900 N   0  0  0  0  0  0  0  0  0  0  0  0
  143.2900   70.6070  219.6090 C   0  0  0  0  0  0  0  0  0  0  0  0
  144.2460   71.3670  218.7290 C   0  0  0  0  0  0  0  0  0  0  0  0
  144.8600   72.4810  219.4060 N   0  0  0  0  0  0  0  0  0  0  0  0
  144.9020   72.3460  220.8440 C   0  0  0  0  0  0  0  0  0  0  0  0
  145.5650   73.6800  221.2130 C   0  0  0  0  0  0  0  0  0  0  0  0
  144.8200   74.6150  220.2830 C   0  0  0  0  0  0  0  0  0  0  0  0
  144.1450   73.7090  219.2440 C   0  0  0  0  0  0  0  0  0  0  0  0
  141.4120   73.2870  220.4420 N   0  0  0  0  0  0  0  0  0  0  0  0
  140.8690   74.0860  221.3780 C   0  0  0  0  0  0  0  0  0  0  0  0
  140.9650   75.5020  221.2930 N   0  0  0  0  0  0  0  0  0  0  0  0
  141.6000   76.1070  220.1390 C   0  0  0  0  0  0  0  0  0  0  0  0
  141.0350   77.5020  219.9520 C   0  0  0  0  0  0  0  0  0  0  0  0
  141.4310   78.2590  221.1720 C   0  0  0  0  0  0  0  0  0  0  0  0
  142.0640   79.4810  221.1270 C   0  0  0  0  0  0  0  0  0  0  0  0
  142.3960   80.1170  222.3240 C   0  0  0  0  0  0  0  0  0  0  0  0
  142.0930   79.5250  223.5540 C   0  0  0  0  0  0  0  0  0  0  0  0
  141.4510   78.2860  223.5810 C   0  0  0  0  0  0  0  0  0  0  0  0
  141.1300   77.6700  222.3860 C   0  0  0  0  0  0  0  0  0  0  0  0
  140.4450   76.3520  222.3340 C   0  0  0  0  0  0  0  0  0  0  0  0
  140.2340   73.4760  222.3960 N   0  0  0  0  0  0  0  0  0  0  0  0
  140.4410   71.2940  224.7150 C   0  0  0  0  0  0  0  0  0  0  0  0
  140.3920   66.4394  227.0062 H   0  0  0  0  0  0  0  0  0  0  0  0
  142.3216   67.9778  227.2741 H   0  0  0  0  0  0  0  0  0  0  0  0
  142.2932   70.1958  226.2039 H   0  0  0  0  0  0  0  0  0  0  0  0
  138.4294   67.1591  225.6433 H   0  0  0  0  0  0  0  0  0  0  0  0
  137.5561   68.6971  223.9955 H   0  0  0  0  0  0  0  0  0  0  0  0
  137.4690   70.2001  224.9384 H   0  0  0  0  0  0  0  0  0  0  0  0
  139.4372   69.6639  222.6590 H   0  0  0  0  0  0  0  0  0  0  0  0
  137.8958   70.5900  222.5042 H   0  0  0  0  0  0  0  0  0  0  0  0
  138.6548   72.2421  224.0613 H   0  0  0  0  0  0  0  0  0  0  0  0
  141.3940   70.8380  218.6340 H   0  0  0  0  0  0  0  0  0  0  0  0
  143.6151   70.7045  220.6553 H   0  0  0  0  0  0  0  0  0  0  0  0
  143.2948   69.5544  219.2896 H   0  0  0  0  0  0  0  0  0  0  0  0
  145.0369   70.6801  218.3932 H   0  0  0  0  0  0  0  0  0  0  0  0
  143.6699   71.7694  217.8827 H   0  0  0  0  0  0  0  0  0  0  0  0
  143.8943   72.2568  221.2760 H   0  0  0  0  0  0  0  0  0  0  0  0
  145.4235   71.4501  221.2119 H   0  0  0  0  0  0  0  0  0  0  0  0
  145.3998   73.9388  222.2693 H   0  0  0  0  0  0  0  0  0  0  0  0
  146.6596   73.6970  221.1052 H   0  0  0  0  0  0  0  0  0  0  0  0
  144.0653   75.1900  220.8397 H   0  0  0  0  0  0  0  0  0  0  0  0
  145.4950   75.3442  219.8111 H   0  0  0  0  0  0  0  0  0  0  0  0
  143.0748   73.5795  219.4627 H   0  0  0  0  0  0  0  0  0  0  0  0
  144.1794   74.1088  218.2198 H   0  0  0  0  0  0  0  0  0  0  0  0
  142.6863   76.1659  220.3021 H   0  0  0  0  0  0  0  0  0  0  0  0
  141.4068   75.4999  219.2423 H   0  0  0  0  0  0  0  0  0  0  0  0
  141.4607   77.9718  219.0531 H   0  0  0  0  0  0  0  0  0  0  0  0
  139.9432   77.4854  219.8187 H   0  0  0  0  0  0  0  0  0  0  0  0
  142.3046   79.9493  220.1612 H   0  0  0  0  0  0  0  0  0  0  0  0
  142.9011   81.0939  222.2996 H   0  0  0  0  0  0  0  0  0  0  0  0
  142.3586   80.0320  224.4934 H   0  0  0  0  0  0  0  0  0  0  0  0
  141.2040   77.8065  224.5397 H   0  0  0  0  0  0  0  0  0  0  0  0
  140.5781   75.8465  223.3019 H   0  0  0  0  0  0  0  0  0  0  0  0
  139.3823   76.5353  222.1170 H   0  0  0  0  0  0  0  0  0  0  0  0
  141.4402   71.4096  224.2698 H   0  0  0  0  0  0  0  0  0  0  0  0
  140.2482   72.0121  225.5256 H   0  0  0  0  0  0  0  0  0  0  0  0
  1  2  2  0
  2  3  1  0
  3  4  2  0
  4  5  1  0
  5  6  2  0
  5  7  1  0
  7  8  1  0
  8  9  1  0
  9 10  1  0
 10 11  2  0
 11 12  1  0
 12 13  1  0
 13 14  1  0
 14 15  1  0
 15 16  1  0
 16 17  1  0
 17 18  1  0
 18 19  1  0
 19 20  1  0
 12 21  2  0
 21 22  1  0
 22 23  1  0
 23 24  1  0
 24 25  1  0
 25 26  1  0
 26 27  2  0
 27 28  1  0
 28 29  2  0
 29 30  1  0
 30 31  2  0
 31 32  1  0
 22 33  2  0
  9 34  1  0
  6  1  1  0
 33 10  1  0
 34  4  1  0
 20 16  1  0
 32 23  1  0
 31 26  1  0
  1 35  1  0
  2 36  1  0
  3 37  1  0
  6 38  1  0
  7 39  1  0
  7 40  1  0
  8 41  1  0
  8 42  1  0
  9 43  1  1
 13 44  1  0
 14 45  1  0
 14 46  1  0
 15 47  1  0
 15 48  1  0
 17 49  1  0
 17 50  1  0
 18 51  1  0
 18 52  1  0
 19 53  1  0
 19 54  1  0
 20 55  1  0
 20 56  1  0
 24 57  1  0
 24 58  1  0
 25 59  1  0
 25 60  1  0
 27 61  1  0
 28 62  1  0
 29 63  1  0
 30 64  1  0
 32 65  1  0
 32 66  1  0
 34 67  1  0
 34 68  1  0
M  END
>  <smiles>  (17) 
c1ccc2c(c1)CCC(c1nc(NCCN3CCCC3)nc(N3CCc4ccccc4C3)n1)C2

>  <score_type>  (17) 
oracle

>  <origin>  (17) 
autodockgpu

>  <m_score__min__energy>  (17) 
-10.43

>  <m_primary>  (17) 
energy

>  <rmsd>  (17) 
5.781643219515397

>  <m_score__min__rmsd>  (17) 
5.781643219515397

>  <meeko>  (17) 
{"free_energy": -9.73, "intermolecular_energy": -11.52, "internal_energy": -1.8, "cluster_size": 33, "cluster_id": 2, "rank_in_cluster": 28}

>  <energy>  (17) 
-10.12

>  <cluster_rmsd>  (17) 
0.42

>  <cluster>  (17) 
2

$$$$

     RDKit          3D

 68 73  0  0  0  0  0  0  0  0999 V2000
  145.9590   67.5060  219.2170 C   0  0  0  0  0  0  0  0  0  0  0  0
  144.6390   67.1520  219.3930 C   0  0  0  0  0  0  0  0  0  0  0  0
  143.6560   68.1180  219.3620 C   0  0  0  0  0  0  0  0  0  0  0  0
  143.9520   69.4550  219.1580 C   0  0  0  0  0  0  0  0  0  0  0  0
  145.2630   69.7850  218.9850 C   0  0  0  0  0  0  0  0  0  0  0  0
  146.2840   68.8340  219.0100 C   0  0  0  0  0  0  0  0  0  0  0  0
  145.5780   71.2410  218.7630 C   0  0  0  0  0  0  0  0  0  0  0  0
  144.6690   72.0210  219.6680 C   0  0  0  0  0  0  0  0  0  0  0  0
  143.2270   71.8470  219.2520 C   0  0  2  0  0  0  0  0  0  0  0  0
  142.3780   72.4580  220.3130 C   0  0  0  0  0  0  0  0  0  0  0  0
  141.7450   71.7480  221.2590 N   0  0  0  0  0  0  0  0  0  0  0  0
  140.9980   72.3370  222.1890 C   0  0  0  0  0  0  0  0  0  0  0  0
  140.3350   71.5550  223.1730 N   0  0  0  0  0  0  0  0  0  0  0  0
  138.8850   71.4880  223.2530 C   0  0  0  0  0  0  0  0  0  0  0  0
  138.4280   70.5080  224.3020 C   0  0  0  0  0  0  0  0  0  0  0  0
  139.5230   69.9260  225.0350 N   0  0  0  0  0  0  0  0  0  0  0  0
  139.1900   68.6960  225.7150 C   0  0  0  0  0  0  0  0  0  0  0  0
  140.5360   68.3980  226.3900 C   0  0  0  0  0  0  0  0  0  0  0  0
  140.9030   69.7840  226.8790 C   0  0  0  0  0  0  0  0  0  0  0  0
  139.9850   70.7450  226.1120 C   0  0  0  0  0  0  0  0  0  0  0  0
  140.8960   73.6910  222.1510 N   0  0  0  0  0  0  0  0  0  0  0  0
  141.5090   74.4510  221.2270 C   0  0  0  0  0  0  0  0  0  0  0  0
  141.3760   75.8660  221.2220 N   0  0  0  0  0  0  0  0  0  0  0  0
  141.8770   76.6260  220.0940 C   0  0  0  0  0  0  0  0  0  0  0  0
  141.0930   77.9210  219.9960 C   0  0  0  0  0  0  0  0  0  0  0  0
  141.3940   78.6650  221.2510 C   0  0  0  0  0  0  0  0  0  0  0  0
  141.8230   79.9730  221.2650 C   0  0  0  0  0  0  0  0  0  0  0  0
  142.0800   80.5880  222.4910 C   0  0  0  0  0  0  0  0  0  0  0  0
  141.9070   79.8900  223.6900 C   0  0  0  0  0  0  0  0  0  0  0  0
  141.4710   78.5650  223.6570 C   0  0  0  0  0  0  0  0  0  0  0  0
  141.2210   77.9710  222.4340 C   0  0  0  0  0  0  0  0  0  0  0  0
  140.7540   76.5650  222.3190 C   0  0  0  0  0  0  0  0  0  0  0  0
  142.2520   73.8030  220.3100 N   0  0  0  0  0  0  0  0  0  0  0  0
  142.8230   70.4020  219.1460 C   0  0  0  0  0  0  0  0  0  0  0  0
  146.7472   66.7390  219.2409 H   0  0  0  0  0  0  0  0  0  0  0  0
  144.3696   66.0984  219.5583 H   0  0  0  0  0  0  0  0  0  0  0  0
  142.6071   67.8181  219.5033 H   0  0  0  0  0  0  0  0  0  0  0  0
  147.3319   69.1364  218.8671 H   0  0  0  0  0  0  0  0  0  0  0  0
  146.6294   71.4442  219.0147 H   0  0  0  0  0  0  0  0  0  0  0  0
  145.4263   71.5230  217.7106 H   0  0  0  0  0  0  0  0  0  0  0  0
  144.7930   71.6630  220.7007 H   0  0  0  0  0  0  0  0  0  0  0  0
  144.9313   73.0872  219.6007 H   0  0  0  0  0  0  0  0  0  0  0  0
  143.1021   72.3158  218.2648 H   0  0  0  0  0  0  0  0  0  0  0  0
  140.8790   70.9990  223.8730 H   0  0  0  0  0  0  0  0  0  0  0  0
  138.4956   72.4857  223.5039 H   0  0  0  0  0  0  0  0  0  0  0  0
  138.5038   71.1488  222.2785 H   0  0  0  0  0  0  0  0  0  0  0  0
  137.7698   71.0325  225.0104 H   0  0  0  0  0  0  0  0  0  0  0  0
  137.9024   69.6909  223.7862 H   0  0  0  0  0  0  0  0  0  0  0  0
  138.3860   68.8406  226.4517 H   0  0  0  0  0  0  0  0  0  0  0  0
  138.8074   67.8945  225.0660 H   0  0  0  0  0  0  0  0  0  0  0  0
  140.4258   67.6880  227.2229 H   0  0  0  0  0  0  0  0  0  0  0  0
  141.2849   67.9255  225.7375 H   0  0  0  0  0  0  0  0  0  0  0  0
  140.7292   69.8683  227.9619 H   0  0  0  0  0  0  0  0  0  0  0  0
  141.9657   70.0097  226.7068 H   0  0  0  0  0  0  0  0  0  0  0  0
  139.1493   71.0856  226.7410 H   0  0  0  0  0  0  0  0  0  0  0  0
  140.4870   71.6665  225.7822 H   0  0  0  0  0  0  0  0  0  0  0  0
  142.9439   76.8491  220.2420 H   0  0  0  0  0  0  0  0  0  0  0  0
  141.7596   76.0448  219.1675 H   0  0  0  0  0  0  0  0  0  0  0  0
  141.4162   78.5005  219.1187 H   0  0  0  0  0  0  0  0  0  0  0  0
  140.0148   77.7372  219.8794 H   0  0  0  0  0  0  0  0  0  0  0  0
  141.9612   80.5252  220.3237 H   0  0  0  0  0  0  0  0  0  0  0  0
  142.4224   81.6331  222.5143 H   0  0  0  0  0  0  0  0  0  0  0  0
  142.1131   80.3817  224.6521 H   0  0  0  0  0  0  0  0  0  0  0  0
  141.3282   78.0012  224.5907 H   0  0  0  0  0  0  0  0  0  0  0  0
  140.9912   76.0366  223.2542 H   0  0  0  0  0  0  0  0  0  0  0  0
  139.6704   76.5864  222.1311 H   0  0  0  0  0  0  0  0  0  0  0  0
  142.1652   70.1649  219.9952 H   0  0  0  0  0  0  0  0  0  0  0  0
  142.3234   70.2848  218.1730 H   0  0  0  0  0  0  0  0  0  0  0  0
  1  2  2  0
  2  3  1  0
  3  4  2  0
  4  5  1  0
  5  6  2  0
  5  7  1  0
  7  8  1  0
  8  9  1  0
  9 10  1  0
 10 11  2  0
 11 12  1  0
 12 13  1  0
 13 14  1  0
 14 15  1  0
 15 16  1  0
 16 17  1  0
 17 18  1  0
 18 19  1  0
 19 20  1  0
 12 21  2  0
 21 22  1  0
 22 23  1  0
 23 24  1  0
 24 25  1  0
 25 26  1  0
 26 27  2  0
 27 28  1  0
 28 29  2  0
 29 30  1  0
 30 31  2  0
 31 32  1  0
 22 33  2  0
  9 34  1  0
  6  1  1  0
 33 10  1  0
 34  4  1  0
 20 16  1  0
 32 23  1  0
 31 26  1  0
  1 35  1  0
  2 36  1  0
  3 37  1  0
  6 38  1  0
  7 39  1  0
  7 40  1  0
  8 41  1  0
  8 42  1  0
  9 43  1  6
 13 44  1  0
 14 45  1  0
 14 46  1  0
 15 47  1  0
 15 48  1  0
 17 49  1  0
 17 50  1  0
 18 51  1  0
 18 52  1  0
 19 53  1  0
 19 54  1  0
 20 55  1  0
 20 56  1  0
 24 57  1  0
 24 58  1  0
 25 59  1  0
 25 60  1  0
 27 61  1  0
 28 62  1  0
 29 63  1  0
 30 64  1  0
 32 65  1  0
 32 66  1  0
 34 67  1  0
 34 68  1  0
M  END
>  <smiles>  (18) 
c1ccc2c(c1)CCC(c1nc(NCCN3CCCC3)nc(N3CCc4ccccc4C3)n1)C2

>  <score_type>  (18) 
oracle

>  <origin>  (18) 
autodockgpu

>  <m_score__min__energy>  (18) 
-10.43

>  <m_primary>  (18) 
energy

>  <rmsd>  (18) 
8.577331186559471

>  <m_score__min__rmsd>  (18) 
8.577331186559471

>  <meeko>  (18) 
{"free_energy": -9.27, "intermolecular_energy": -11.06, "internal_energy": -1.73, "cluster_size": 13, "cluster_id": 1, "rank_in_cluster": 13}

>  <energy>  (18) 
-10.12

>  <cluster_rmsd>  (18) 
0.98

>  <cluster>  (18) 
2

$$$$

     RDKit          3D

 68 73  0  0  0  0  0  0  0  0999 V2000
  140.0900   67.8590  227.1130 C   0  0  0  0  0  0  0  0  0  0  0  0
  141.0920   68.7770  227.3390 C   0  0  0  0  0  0  0  0  0  0  0  0
  141.1330   69.9460  226.6100 C   0  0  0  0  0  0  0  0  0  0  0  0
  140.1870   70.2370  225.6410 C   0  0  0  0  0  0  0  0  0  0  0  0
  139.2040   69.3160  225.4320 C   0  0  0  0  0  0  0  0  0  0  0  0
  139.1320   68.1230  226.1520 C   0  0  0  0  0  0  0  0  0  0  0  0
  138.1790   69.6380  224.3780 C   0  0  0  0  0  0  0  0  0  0  0  0
  138.9170   70.2910  223.2450 C   0  0  0  0  0  0  0  0  0  0  0  0
  139.4880   71.6220  223.6790 C   0  0  2  0  0  0  0  0  0  0  0  0
  140.3840   72.1010  222.5880 C   0  0  0  0  0  0  0  0  0  0  0  0
  140.6560   73.3960  222.3670 N   0  0  0  0  0  0  0  0  0  0  0  0
  141.4640   73.7780  221.3810 C   0  0  0  0  0  0  0  0  0  0  0  0
  141.7270   75.1590  221.1690 N   0  0  0  0  0  0  0  0  0  0  0  0
  141.2970   75.8470  219.9630 C   0  0  0  0  0  0  0  0  0  0  0  0
  140.7950   77.2350  220.2590 C   0  0  0  0  0  0  0  0  0  0  0  0
  141.4350   77.8240  221.4080 N   0  0  0  0  0  0  0  0  0  0  0  0
  140.5970   77.8810  222.5850 C   0  0  0  0  0  0  0  0  0  0  0  0
  141.5620   78.5720  223.5580 C   0  0  0  0  0  0  0  0  0  0  0  0
  142.1440   79.6350  222.6490 C   0  0  0  0  0  0  0  0  0  0  0  0
  141.7810   79.1990  221.2230 C   0  0  0  0  0  0  0  0  0  0  0  0
  142.0080   72.8090  220.6010 N   0  0  0  0  0  0  0  0  0  0  0  0
  141.7700   71.4980  220.7790 C   0  0  0  0  0  0  0  0  0  0  0  0
  142.3600   70.5140  219.9380 N   0  0  0  0  0  0  0  0  0  0  0  0
  141.6130   69.3170  219.6090 C   0  0  0  0  0  0  0  0  0  0  0  0
  142.1170   68.7830  218.2810 C   0  0  0  0  0  0  0  0  0  0  0  0
  143.5410   68.4140  218.5150 C   0  0  0  0  0  0  0  0  0  0  0  0
  144.0620   67.1830  218.1870 C   0  0  0  0  0  0  0  0  0  0  0  0
  145.4110   66.9290  218.4430 C   0  0  0  0  0  0  0  0  0  0  0  0
  146.2230   67.9060  219.0250 C   0  0  0  0  0  0  0  0  0  0  0  0
  145.6780   69.1480  219.3510 C   0  0  0  0  0  0  0  0  0  0  0  0
  144.3410   69.3840  219.0900 C   0  0  0  0  0  0  0  0  0  0  0  0
  143.6900   70.6810  219.4090 C   0  0  0  0  0  0  0  0  0  0  0  0
  140.9450   71.1670  221.7900 N   0  0  0  0  0  0  0  0  0  0  0  0
  140.3290   71.5150  224.9210 C   0  0  0  0  0  0  0  0  0  0  0  0
  140.0526   66.9244  227.6920 H   0  0  0  0  0  0  0  0  0  0  0  0
  141.8594   68.5770  228.1013 H   0  0  0  0  0  0  0  0  0  0  0  0
  141.9398   70.6683  226.8032 H   0  0  0  0  0  0  0  0  0  0  0  0
  138.3240   67.4024  225.9576 H   0  0  0  0  0  0  0  0  0  0  0  0
  137.6897   68.7161  224.0306 H   0  0  0  0  0  0  0  0  0  0  0  0
  137.3968   70.3014  224.7757 H   0  0  0  0  0  0  0  0  0  0  0  0
  139.7376   69.6337  222.9216 H   0  0  0  0  0  0  0  0  0  0  0  0
  138.2151   70.4598  222.4150 H   0  0  0  0  0  0  0  0  0  0  0  0
  138.6466   72.2995  223.8864 H   0  0  0  0  0  0  0  0  0  0  0  0
  142.2420   75.7230  221.8840 H   0  0  0  0  0  0  0  0  0  0  0  0
  142.1486   75.9167  219.2702 H   0  0  0  0  0  0  0  0  0  0  0  0
  140.4710   75.2727  219.5183 H   0  0  0  0  0  0  0  0  0  0  0  0
  140.9869   77.8729  219.3836 H   0  0  0  0  0  0  0  0  0  0  0  0
  139.7199   77.1598  220.4793 H   0  0  0  0  0  0  0  0  0  0  0  0
  139.6904   78.4798  222.4133 H   0  0  0  0  0  0  0  0  0  0  0  0
  140.2069   76.9108  222.9264 H   0  0  0  0  0  0  0  0  0  0  0  0
  141.0306   79.0141  224.4137 H   0  0  0  0  0  0  0  0  0  0  0  0
  142.3038   77.9060  224.0230 H   0  0  0  0  0  0  0  0  0  0  0  0
  141.7031   80.6172  222.8746 H   0  0  0  0  0  0  0  0  0  0  0  0
  143.2316   79.7339  222.7810 H   0  0  0  0  0  0  0  0  0  0  0  0
  140.9292   79.7760  220.8339 H   0  0  0  0  0  0  0  0  0  0  0  0
  142.5886   79.3574  220.4931 H   0  0  0  0  0  0  0  0  0  0  0  0
  141.7612   68.5601  220.3933 H   0  0  0  0  0  0  0  0  0  0  0  0
  140.5404   69.5504  219.5381 H   0  0  0  0  0  0  0  0  0  0  0  0
  141.5361   67.8999  217.9764 H   0  0  0  0  0  0  0  0  0  0  0  0
  142.0150   69.5267  217.4770 H   0  0  0  0  0  0  0  0  0  0  0  0
  143.4254   66.4110  217.7301 H   0  0  0  0  0  0  0  0  0  0  0  0
  145.8390   65.9494  218.1838 H   0  0  0  0  0  0  0  0  0  0  0  0
  147.2844   67.6972  219.2246 H   0  0  0  0  0  0  0  0  0  0  0  0
  146.3031   69.9285  219.8092 H   0  0  0  0  0  0  0  0  0  0  0  0
  144.3025   71.2096  220.1542 H   0  0  0  0  0  0  0  0  0  0  0  0
  143.6088   71.2539  218.4735 H   0  0  0  0  0  0  0  0  0  0  0  0
  141.3842   71.6333  224.6338 H   0  0  0  0  0  0  0  0  0  0  0  0
  139.9815   72.3027  225.6057 H   0  0  0  0  0  0  0  0  0  0  0  0
  1  2  2  0
  2  3  1  0
  3  4  2  0
  4  5  1  0
  5  6  2  0
  5  7  1  0
  7  8  1  0
  8  9  1  0
  9 10  1  0
 10 11  2  0
 11 12  1  0
 12 13  1  0
 13 14  1  0
 14 15  1  0
 15 16  1  0
 16 17  1  0
 17 18  1  0
 18 19  1  0
 19 20  1  0
 12 21  2  0
 21 22  1  0
 22 23  1  0
 23 24  1  0
 24 25  1  0
 25 26  1  0
 26 27  2  0
 27 28  1  0
 28 29  2  0
 29 30  1  0
 30 31  2  0
 31 32  1  0
 22 33  2  0
  9 34  1  0
  6  1  1  0
 33 10  1  0
 34  4  1  0
 20 16  1  0
 32 23  1  0
 31 26  1  0
  1 35  1  0
  2 36  1  0
  3 37  1  0
  6 38  1  0
  7 39  1  0
  7 40  1  0
  8 41  1  0
  8 42  1  0
  9 43  1  1
 13 44  1  0
 14 45  1  0
 14 46  1  0
 15 47  1  0
 15 48  1  0
 17 49  1  0
 17 50  1  0
 18 51  1  0
 18 52  1  0
 19 53  1  0
 19 54  1  0
 20 55  1  0
 20 56  1  0
 24 57  1  0
 24 58  1  0
 25 59  1  0
 25 60  1  0
 27 61  1  0
 28 62  1  0
 29 63  1  0
 30 64  1  0
 32 65  1  0
 32 66  1  0
 34 67  1  0
 34 68  1  0
M  END
>  <smiles>  (19) 
c1ccc2c(c1)CCC(c1nc(NCCN3CCCC3)nc(N3CCc4ccccc4C3)n1)C2

>  <score_type>  (19) 
oracle

>  <origin>  (19) 
autodockgpu

>  <m_score__min__energy>  (19) 
-10.43

>  <m_primary>  (19) 
energy

>  <rmsd>  (19) 
5.085977890848877

>  <m_score__min__rmsd>  (19) 
5.085977890848877

>  <meeko>  (19) 
{"free_energy": -9.49, "intermolecular_energy": -11.28, "internal_energy": -1.68, "cluster_size": 4, "cluster_id": 3, "rank_in_cluster": 2}

>  <energy>  (19) 
-10.11

>  <cluster_rmsd>  (19) 
0.88

>  <cluster>  (19) 
2

$$$$

     RDKit          3D

 68 73  0  0  0  0  0  0  0  0999 V2000
  145.8480   67.9010  219.5440 C   0  0  0  0  0  0  0  0  0  0  0  0
  144.5250   67.5430  219.6800 C   0  0  0  0  0  0  0  0  0  0  0  0
  143.5390   68.5030  219.5940 C   0  0  0  0  0  0  0  0  0  0  0  0
  143.8360   69.8370  219.3740 C   0  0  0  0  0  0  0  0  0  0  0  0
  145.1510   70.1720  219.2420 C   0  0  0  0  0  0  0  0  0  0  0  0
  146.1740   69.2270  219.3230 C   0  0  0  0  0  0  0  0  0  0  0  0
  145.4650   71.6240  219.0030 C   0  0  0  0  0  0  0  0  0  0  0  0
  144.5210   72.4170  219.8580 C   0  0  0  0  0  0  0  0  0  0  0  0
  143.0950   72.2270  219.3940 C   0  0  2  0  0  0  0  0  0  0  0  0
  142.2050   72.8540  220.4110 C   0  0  0  0  0  0  0  0  0  0  0  0
  141.4850   72.1540  221.3000 N   0  0  0  0  0  0  0  0  0  0  0  0
  140.7040   72.7580  222.1930 C   0  0  0  0  0  0  0  0  0  0  0  0
  139.9490   71.9860  223.1170 N   0  0  0  0  0  0  0  0  0  0  0  0
  139.7190   70.5640  222.9240 C   0  0  0  0  0  0  0  0  0  0  0  0
  139.5460   69.8420  224.2340 C   0  0  0  0  0  0  0  0  0  0  0  0
  139.8590   70.6700  225.3710 N   0  0  0  0  0  0  0  0  0  0  0  0
  141.2550   71.0280  225.4740 C   0  0  0  0  0  0  0  0  0  0  0  0
  141.2200   71.8500  226.7700 C   0  0  0  0  0  0  0  0  0  0  0  0
  140.3090   70.9810  227.6130 C   0  0  0  0  0  0  0  0  0  0  0  0
  139.6240   70.0260  226.6250 C   0  0  0  0  0  0  0  0  0  0  0  0
  140.6600   74.1140  222.1760 N   0  0  0  0  0  0  0  0  0  0  0  0
  141.3610   74.8650  221.3080 C   0  0  0  0  0  0  0  0  0  0  0  0
  141.2850   76.2840  221.3220 N   0  0  0  0  0  0  0  0  0  0  0  0
  141.8270   77.0390  220.2100 C   0  0  0  0  0  0  0  0  0  0  0  0
  141.0960   78.3670  220.1260 C   0  0  0  0  0  0  0  0  0  0  0  0
  141.4170   79.0790  221.3930 C   0  0  0  0  0  0  0  0  0  0  0  0
  141.8990   80.3680  221.4300 C   0  0  0  0  0  0  0  0  0  0  0  0
  142.1710   80.9550  222.6670 C   0  0  0  0  0  0  0  0  0  0  0  0
  141.9600   80.2470  223.8540 C   0  0  0  0  0  0  0  0  0  0  0  0
  141.4710   78.9420  223.7980 C   0  0  0  0  0  0  0  0  0  0  0  0
  141.2070   78.3760  222.5650 C   0  0  0  0  0  0  0  0  0  0  0  0
  140.6840   76.9920  222.4250 C   0  0  0  0  0  0  0  0  0  0  0  0
  142.1340   74.2030  220.4270 N   0  0  0  0  0  0  0  0  0  0  0  0
  142.7030   70.7780  219.3020 C   0  0  0  0  0  0  0  0  0  0  0  0
  146.6386   67.1390  219.6106 H   0  0  0  0  0  0  0  0  0  0  0  0
  144.2550   66.4915  219.8572 H   0  0  0  0  0  0  0  0  0  0  0  0
  142.4871   68.2004  219.7033 H   0  0  0  0  0  0  0  0  0  0  0  0
  147.2251   69.5320  219.2127 H   0  0  0  0  0  0  0  0  0  0  0  0
  146.5055   71.8385  219.2881 H   0  0  0  0  0  0  0  0  0  0  0  0
  145.3488   71.8837  217.9404 H   0  0  0  0  0  0  0  0  0  0  0  0
  144.6093   72.0808  220.9016 H   0  0  0  0  0  0  0  0  0  0  0  0
  144.7807   73.4829  219.7781 H   0  0  0  0  0  0  0  0  0  0  0  0
  143.0031   72.6760  218.3940 H   0  0  0  0  0  0  0  0  0  0  0  0
  139.5350   72.4260  223.9720 H   0  0  0  0  0  0  0  0  0  0  0  0
  138.8093   70.4293  222.3205 H   0  0  0  0  0  0  0  0  0  0  0  0
  140.5978   70.1418  222.4147 H   0  0  0  0  0  0  0  0  0  0  0  0
  138.5006   69.5101  224.3175 H   0  0  0  0  0  0  0  0  0  0  0  0
  140.2444   68.9921  224.2396 H   0  0  0  0  0  0  0  0  0  0  0  0
  141.8986   70.1411  225.5695 H   0  0  0  0  0  0  0  0  0  0  0  0
  141.6655   71.5551  224.6001 H   0  0  0  0  0  0  0  0  0  0  0  0
  142.2199   71.9472  227.2181 H   0  0  0  0  0  0  0  0  0  0  0  0
  140.8832   72.8901  226.6482 H   0  0  0  0  0  0  0  0  0  0  0  0
  140.8941   70.4145  228.3524 H   0  0  0  0  0  0  0  0  0  0  0  0
  139.5777   71.5808  228.1747 H   0  0  0  0  0  0  0  0  0  0  0  0
  140.0832   69.0268  226.6525 H   0  0  0  0  0  0  0  0  0  0  0  0
  138.5590   69.8558  226.8414 H   0  0  0  0  0  0  0  0  0  0  0  0
  142.9007   77.2162  220.3704 H   0  0  0  0  0  0  0  0  0  0  0  0
  141.6953   76.4770  219.2737 H   0  0  0  0  0  0  0  0  0  0  0  0
  141.4489   78.9459  219.2598 H   0  0  0  0  0  0  0  0  0  0  0  0
  140.0121   78.2287  219.9992 H   0  0  0  0  0  0  0  0  0  0  0  0
  142.0674   80.9275  220.4980 H   0  0  0  0  0  0  0  0  0  0  0  0
  142.5552   81.9849  222.7083 H   0  0  0  0  0  0  0  0  0  0  0  0
  142.1781   80.7158  224.8249 H   0  0  0  0  0  0  0  0  0  0  0  0
  141.2978   78.3712  224.7222 H   0  0  0  0  0  0  0  0  0  0  0  0
  140.8922   76.4405  223.3537 H   0  0  0  0  0  0  0  0  0  0  0  0
  139.6037   77.0609  222.2293 H   0  0  0  0  0  0  0  0  0  0  0  0
  142.0158   70.5538  220.1311 H   0  0  0  0  0  0  0  0  0  0  0  0
  142.2405   70.6390  218.3137 H   0  0  0  0  0  0  0  0  0  0  0  0
  1  2  2  0
  2  3  1  0
  3  4  2  0
  4  5  1  0
  5  6  2  0
  5  7  1  0
  7  8  1  0
  8  9  1  0
  9 10  1  0
 10 11  2  0
 11 12  1  0
 12 13  1  0
 13 14  1  0
 14 15  1  0
 15 16  1  0
 16 17  1  0
 17 18  1  0
 18 19  1  0
 19 20  1  0
 12 21  2  0
 21 22  1  0
 22 23  1  0
 23 24  1  0
 24 25  1  0
 25 26  1  0
 26 27  2  0
 27 28  1  0
 28 29  2  0
 29 30  1  0
 30 31  2  0
 31 32  1  0
 22 33  2  0
  9 34  1  0
  6  1  1  0
 33 10  1  0
 34  4  1  0
 20 16  1  0
 32 23  1  0
 31 26  1  0
  1 35  1  0
  2 36  1  0
  3 37  1  0
  6 38  1  0
  7 39  1  0
  7 40  1  0
  8 41  1  0
  8 42  1  0
  9 43  1  6
 13 44  1  0
 14 45  1  0
 14 46  1  0
 15 47  1  0
 15 48  1  0
 17 49  1  0
 17 50  1  0
 18 51  1  0
 18 52  1  0
 19 53  1  0
 19 54  1  0
 20 55  1  0
 20 56  1  0
 24 57  1  0
 24 58  1  0
 25 59  1  0
 25 60  1  0
 27 61  1  0
 28 62  1  0
 29 63  1  0
 30 64  1  0
 32 65  1  0
 32 66  1  0
 34 67  1  0
 34 68  1  0
M  END
>  <smiles>  (20) 
c1ccc2c(c1)CCC(c1nc(NCCN3CCCC3)nc(N3CCc4ccccc4C3)n1)C2

>  <score_type>  (20) 
oracle

>  <origin>  (20) 
autodockgpu

>  <m_score__min__energy>  (20) 
-10.43

>  <m_primary>  (20) 
energy

>  <rmsd>  (20) 
8.029987282709067

>  <m_score__min__rmsd>  (20) 
8.029987282709067

>  <meeko>  (20) 
{"free_energy": -10.04, "intermolecular_energy": -11.83, "internal_energy": -1.71, "cluster_size": 13, "cluster_id": 1, "rank_in_cluster": 6}

>  <energy>  (20) 
-10.05

>  <cluster_rmsd>  (20) 
0.92

>  <cluster>  (20) 
2

$$$$

     RDKit          3D

 68 73  0  0  0  0  0  0  0  0999 V2000
  140.1560   67.7780  226.8490 C   0  0  0  0  0  0  0  0  0  0  0  0
  140.9070   68.8410  227.2990 C   0  0  0  0  0  0  0  0  0  0  0  0
  140.9050   70.0310  226.6020 C   0  0  0  0  0  0  0  0  0  0  0  0
  140.1630   70.1990  225.4460 C   0  0  0  0  0  0  0  0  0  0  0  0
  139.4260   69.1360  225.0170 C   0  0  0  0  0  0  0  0  0  0  0  0
  139.4040   67.9170  225.6970 C   0  0  0  0  0  0  0  0  0  0  0  0
  138.6220   69.3260  223.7580 C   0  0  0  0  0  0  0  0  0  0  0  0
  139.4670   70.1410  222.8240 C   0  0  0  0  0  0  0  0  0  0  0  0
  139.6880   71.5290  223.3810 C   0  0  2  0  0  0  0  0  0  0  0  0
  140.7060   72.1990  222.5230 C   0  0  0  0  0  0  0  0  0  0  0  0
  141.7170   71.5500  221.9270 N   0  0  0  0  0  0  0  0  0  0  0  0
  142.6030   72.1900  221.1670 C   0  0  0  0  0  0  0  0  0  0  0  0
  143.6660   71.4740  220.5540 N   0  0  0  0  0  0  0  0  0  0  0  0
  144.4440   72.0370  219.4620 C   0  0  0  0  0  0  0  0  0  0  0  0
  145.0200   70.9660  218.5750 C   0  0  0  0  0  0  0  0  0  0  0  0
  145.0710   69.6780  219.2190 N   0  0  0  0  0  0  0  0  0  0  0  0
  146.2760   68.9280  218.9450 C   0  0  0  0  0  0  0  0  0  0  0  0
  145.9730   67.6490  219.7370 C   0  0  0  0  0  0  0  0  0  0  0  0
  144.5190   67.4420  219.3670 C   0  0  0  0  0  0  0  0  0  0  0  0
  144.0540   68.7780  218.7720 C   0  0  0  0  0  0  0  0  0  0  0  0
  142.4490   73.5300  221.0140 N   0  0  0  0  0  0  0  0  0  0  0  0
  141.4550   74.2290  221.5880 C   0  0  0  0  0  0  0  0  0  0  0  0
  141.3300   75.6340  221.4030 N   0  0  0  0  0  0  0  0  0  0  0  0
  141.8850   76.2490  220.2140 C   0  0  0  0  0  0  0  0  0  0  0  0
  141.1130   77.5220  219.9230 C   0  0  0  0  0  0  0  0  0  0  0  0
  141.3630   78.4150  221.0890 C   0  0  0  0  0  0  0  0  0  0  0  0
  141.7990   79.7140  220.9610 C   0  0  0  0  0  0  0  0  0  0  0  0
  142.0060   80.4760  222.1130 C   0  0  0  0  0  0  0  0  0  0  0  0
  141.7760   79.9300  223.3790 C   0  0  0  0  0  0  0  0  0  0  0  0
  141.3350   78.6110  223.4900 C   0  0  0  0  0  0  0  0  0  0  0  0
  141.1350   77.8710  222.3390 C   0  0  0  0  0  0  0  0  0  0  0  0
  140.6650   76.4620  222.3770 C   0  0  0  0  0  0  0  0  0  0  0  0
  140.5870   73.5320  222.3460 N   0  0  0  0  0  0  0  0  0  0  0  0
  140.2370   71.5120  224.7810 C   0  0  0  0  0  0  0  0  0  0  0  0
  140.1544   66.8266  227.4012 H   0  0  0  0  0  0  0  0  0  0  0  0
  141.5085   68.7409  228.2145 H   0  0  0  0  0  0  0  0  0  0  0  0
  141.5102   70.8702  226.9754 H   0  0  0  0  0  0  0  0  0  0  0  0
  138.7974   67.0795  225.3219 H   0  0  0  0  0  0  0  0  0  0  0  0
  138.3903   68.3505  223.3056 H   0  0  0  0  0  0  0  0  0  0  0  0
  137.6684   69.8313  223.9707 H   0  0  0  0  0  0  0  0  0  0  0  0
  140.4401   69.6455  222.6912 H   0  0  0  0  0  0  0  0  0  0  0  0
  138.9479   70.2249  221.8578 H   0  0  0  0  0  0  0  0  0  0  0  0
  138.7170   72.0456  223.3952 H   0  0  0  0  0  0  0  0  0  0  0  0
  143.9220   70.5120  220.8770 H   0  0  0  0  0  0  0  0  0  0  0  0
  143.7926   72.6865  218.8588 H   0  0  0  0  0  0  0  0  0  0  0  0
  145.2789   72.6070  219.8957 H   0  0  0  0  0  0  0  0  0  0  0  0
  144.3965   70.8837  217.6725 H   0  0  0  0  0  0  0  0  0  0  0  0
  146.0526   71.2565  218.3313 H   0  0  0  0  0  0  0  0  0  0  0  0
  146.3962   68.7251  217.8706 H   0  0  0  0  0  0  0  0  0  0  0  0
  147.2125   69.4351  219.2204 H   0  0  0  0  0  0  0  0  0  0  0  0
  146.6008   66.8078  219.4079 H   0  0  0  0  0  0  0  0  0  0  0  0
  146.1686   67.7183  220.8172 H   0  0  0  0  0  0  0  0  0  0  0  0
  144.4220   66.6359  218.6248 H   0  0  0  0  0  0  0  0  0  0  0  0
  143.9136   67.1499  220.2377 H   0  0  0  0  0  0  0  0  0  0  0  0
  144.0155   68.7335  217.6736 H   0  0  0  0  0  0  0  0  0  0  0  0
  143.0394   69.0697  219.0810 H   0  0  0  0  0  0  0  0  0  0  0  0
  142.9455   76.4886  220.3812 H   0  0  0  0  0  0  0  0  0  0  0  0
  141.8062   75.5582  219.3616 H   0  0  0  0  0  0  0  0  0  0  0  0
  141.4773   77.9891  218.9961 H   0  0  0  0  0  0  0  0  0  0  0  0
  140.0399   77.3252  219.7826 H   0  0  0  0  0  0  0  0  0  0  0  0
  141.9818   80.1458  219.9660 H   0  0  0  0  0  0  0  0  0  0  0  0
  142.3534   81.5158  222.0232 H   0  0  0  0  0  0  0  0  0  0  0  0
  141.9416   80.5362  224.2818 H   0  0  0  0  0  0  0  0  0  0  0  0
  141.1491   78.1661  224.4787 H   0  0  0  0  0  0  0  0  0  0  0  0
  140.8579   76.0523  223.3795 H   0  0  0  0  0  0  0  0  0  0  0  0
  139.5907   76.4606  222.1405 H   0  0  0  0  0  0  0  0  0  0  0  0
  141.2926   71.8187  224.7407 H   0  0  0  0  0  0  0  0  0  0  0  0
  139.6140   72.1996  225.3718 H   0  0  0  0  0  0  0  0  0  0  0  0
  1  2  2  0
  2  3  1  0
  3  4  2  0
  4  5  1  0
  5  6  2  0
  5  7  1  0
  7  8  1  0
  8  9  1  0
  9 10  1  0
 10 11  2  0
 11 12  1  0
 12 13  1  0
 13 14  1  0
 14 15  1  0
 15 16  1  0
 16 17  1  0
 17 18  1  0
 18 19  1  0
 19 20  1  0
 12 21  2  0
 21 22  1  0
 22 23  1  0
 23 24  1  0
 24 25  1  0
 25 26  1  0
 26 27  2  0
 27 28  1  0
 28 29  2  0
 29 30  1  0
 30 31  2  0
 31 32  1  0
 22 33  2  0
  9 34  1  0
  6  1  1  0
 33 10  1  0
 34  4  1  0
 20 16  1  0
 32 23  1  0
 31 26  1  0
  1 35  1  0
  2 36  1  0
  3 37  1  0
  6 38  1  0
  7 39  1  0
  7 40  1  0
  8 41  1  0
  8 42  1  0
  9 43  1  1
 13 44  1  0
 14 45  1  0
 14 46  1  0
 15 47  1  0
 15 48  1  0
 17 49  1  0
 17 50  1  0
 18 51  1  0
 18 52  1  0
 19 53  1  0
 19 54  1  0
 20 55  1  0
 20 56  1  0
 24 57  1  0
 24 58  1  0
 25 59  1  0
 25 60  1  0
 27 61  1  0
 28 62  1  0
 29 63  1  0
 30 64  1  0
 32 65  1  0
 32 66  1  0
 34 67  1  0
 34 68  1  0
M  END
>  <smiles>  (21) 
c1ccc2c(c1)CCC(c1nc(NCCN3CCCC3)nc(N3CCc4ccccc4C3)n1)C2

>  <score_type>  (21) 
oracle

>  <origin>  (21) 
autodockgpu

>  <m_score__min__energy>  (21) 
-10.43

>  <m_primary>  (21) 
energy

>  <rmsd>  (21) 
8.416118135436726

>  <m_score__min__rmsd>  (21) 
8.416118135436726

>  <meeko>  (21) 
{"free_energy": -9.95, "intermolecular_energy": -11.74, "internal_energy": -1.76, "cluster_size": 33, "cluster_id": 2, "rank_in_cluster": 17}

>  <energy>  (21) 
-10.04

>  <cluster_rmsd>  (21) 
0.89

>  <cluster>  (21) 
2

$$$$

     RDKit          3D

 68 73  0  0  0  0  0  0  0  0999 V2000
  140.3120   67.8090  227.0500 C   0  0  0  0  0  0  0  0  0  0  0  0
  141.0510   68.9170  227.4030 C   0  0  0  0  0  0  0  0  0  0  0  0
  140.9160   70.0910  226.6920 C   0  0  0  0  0  0  0  0  0  0  0  0
  140.0490   70.1980  225.6180 C   0  0  0  0  0  0  0  0  0  0  0  0
  139.3270   69.0920  225.2840 C   0  0  0  0  0  0  0  0  0  0  0  0
  139.4380   67.8880  225.9810 C   0  0  0  0  0  0  0  0  0  0  0  0
  138.3880   69.2160  224.1150 C   0  0  0  0  0  0  0  0  0  0  0  0
  139.0890   70.0530  223.0850 C   0  0  0  0  0  0  0  0  0  0  0  0
  139.2950   71.4610  223.5940 C   0  0  2  0  0  0  0  0  0  0  0  0
  140.1830   72.1620  222.6240 C   0  0  0  0  0  0  0  0  0  0  0  0
  141.1040   71.5380  221.8760 N   0  0  0  0  0  0  0  0  0  0  0  0
  141.8750   72.2060  221.0200 C   0  0  0  0  0  0  0  0  0  0  0  0
  142.8460   71.5150  220.2460 N   0  0  0  0  0  0  0  0  0  0  0  0
  144.0480   72.1710  219.7570 C   0  0  0  0  0  0  0  0  0  0  0  0
  143.7860   72.9530  218.4980 C   0  0  0  0  0  0  0  0  0  0  0  0
  143.3860   74.3120  218.7600 N   0  0  0  0  0  0  0  0  0  0  0  0
  143.6840   75.2320  217.6870 C   0  0  0  0  0  0  0  0  0  0  0  0
  143.1700   76.5370  218.3110 C   0  0  0  0  0  0  0  0  0  0  0  0
  143.7010   76.3870  219.7210 C   0  0  0  0  0  0  0  0  0  0  0  0
  144.0800   74.9060  219.8610 C   0  0  0  0  0  0  0  0  0  0  0  0
  141.6970   73.5480  220.9280 N   0  0  0  0  0  0  0  0  0  0  0  0
  140.7890   74.2240  221.6540 C   0  0  0  0  0  0  0  0  0  0  0  0
  140.6350   75.6320  221.5280 N   0  0  0  0  0  0  0  0  0  0  0  0
  140.5250   76.2230  220.2100 C   0  0  0  0  0  0  0  0  0  0  0  0
  139.7570   77.5260  220.3270 C   0  0  0  0  0  0  0  0  0  0  0  0
  140.5980   78.4090  221.1820 C   0  0  0  0  0  0  0  0  0  0  0  0
  140.9510   79.6900  220.8220 C   0  0  0  0  0  0  0  0  0  0  0  0
  141.7430   80.4430  221.6910 C   0  0  0  0  0  0  0  0  0  0  0  0
  142.1740   79.9090  222.9080 C   0  0  0  0  0  0  0  0  0  0  0  0
  141.8070   78.6090  223.2570 C   0  0  0  0  0  0  0  0  0  0  0  0
  141.0220   77.8760  222.3850 C   0  0  0  0  0  0  0  0  0  0  0  0
  140.5900   76.4870  222.6880 C   0  0  0  0  0  0  0  0  0  0  0  0
  140.0370   73.4990  222.5030 N   0  0  0  0  0  0  0  0  0  0  0  0
  139.9870   71.5000  224.9290 C   0  0  0  0  0  0  0  0  0  0  0  0
  140.4162   66.8700  227.6134 H   0  0  0  0  0  0  0  0  0  0  0  0
  141.7486   68.8652  228.2519 H   0  0  0  0  0  0  0  0  0  0  0  0
  141.5136   70.9664  226.9863 H   0  0  0  0  0  0  0  0  0  0  0  0
  138.8390   67.0144  225.6844 H   0  0  0  0  0  0  0  0  0  0  0  0
  138.1607   68.2212  223.7042 H   0  0  0  0  0  0  0  0  0  0  0  0
  137.4369   69.6775  224.4190 H   0  0  0  0  0  0  0  0  0  0  0  0
  140.0672   69.6036  222.8589 H   0  0  0  0  0  0  0  0  0  0  0  0
  138.4688   70.0913  222.1773 H   0  0  0  0  0  0  0  0  0  0  0  0
  138.3056   71.9294  223.7018 H   0  0  0  0  0  0  0  0  0  0  0  0
  142.7210   70.5040  220.0060 H   0  0  0  0  0  0  0  0  0  0  0  0
  144.4190   72.8579  220.5320 H   0  0  0  0  0  0  0  0  0  0  0  0
  144.7921   71.3939  219.5279 H   0  0  0  0  0  0  0  0  0  0  0  0
  144.7057   72.9671  217.8948 H   0  0  0  0  0  0  0  0  0  0  0  0
  142.9584   72.4599  217.9671 H   0  0  0  0  0  0  0  0  0  0  0  0
  144.7624   75.2772  217.4746 H   0  0  0  0  0  0  0  0  0  0  0  0
  143.2377   74.9737  216.7154 H   0  0  0  0  0  0  0  0  0  0  0  0
  143.5898   77.4214  217.8095 H   0  0  0  0  0  0  0  0  0  0  0  0
  142.0822   76.6849  218.2409 H   0  0  0  0  0  0  0  0  0  0  0  0
  144.5844   77.0256  219.8691 H   0  0  0  0  0  0  0  0  0  0  0  0
  142.9567   76.6906  220.4719 H   0  0  0  0  0  0  0  0  0  0  0  0
  145.1669   74.7622  219.7719 H   0  0  0  0  0  0  0  0  0  0  0  0
  143.8147   74.4723  220.8364 H   0  0  0  0  0  0  0  0  0  0  0  0
  141.5294   76.4196  219.8069 H   0  0  0  0  0  0  0  0  0  0  0  0
  139.9978   75.5353  219.5324 H   0  0  0  0  0  0  0  0  0  0  0  0
  139.6121   77.9771  219.3343 H   0  0  0  0  0  0  0  0  0  0  0  0
  138.7570   77.3726  220.7587 H   0  0  0  0  0  0  0  0  0  0  0  0
  140.6143   80.1138  219.8644 H   0  0  0  0  0  0  0  0  0  0  0  0
  142.0308   81.4680  221.4144 H   0  0  0  0  0  0  0  0  0  0  0  0
  142.7983   80.5093  223.5862 H   0  0  0  0  0  0  0  0  0  0  0  0
  142.1370   78.1732  224.2116 H   0  0  0  0  0  0  0  0  0  0  0  0
  141.2544   76.0708  223.4596 H   0  0  0  0  0  0  0  0  0  0  0  0
  139.5466   76.5282  223.0340 H   0  0  0  0  0  0  0  0  0  0  0  0
  141.0158   71.8569  224.7736 H   0  0  0  0  0  0  0  0  0  0  0  0
  139.3952   72.1687  225.5714 H   0  0  0  0  0  0  0  0  0  0  0  0
  1  2  2  0
  2  3  1  0
  3  4  2  0
  4  5  1  0
  5  6  2  0
  5  7  1  0
  7  8  1  0
  8  9  1  0
  9 10  1  0
 10 11  2  0
 11 12  1  0
 12 13  1  0
 13 14  1  0
 14 15  1  0
 15 16  1  0
 16 17  1  0
 17 18  1  0
 18 19  1  0
 19 20  1  0
 12 21  2  0
 21 22  1  0
 22 23  1  0
 23 24  1  0
 24 25  1  0
 25 26  1  0
 26 27  2  0
 27 28  1  0
 28 29  2  0
 29 30  1  0
 30 31  2  0
 31 32  1  0
 22 33  2  0
  9 34  1  0
  6  1  1  0
 33 10  1  0
 34  4  1  0
 20 16  1  0
 32 23  1  0
 31 26  1  0
  1 35  1  0
  2 36  1  0
  3 37  1  0
  6 38  1  0
  7 39  1  0
  7 40  1  0
  8 41  1  0
  8 42  1  0
  9 43  1  1
 13 44  1  0
 14 45  1  0
 14 46  1  0
 15 47  1  0
 15 48  1  0
 17 49  1  0
 17 50  1  0
 18 51  1  0
 18 52  1  0
 19 53  1  0
 19 54  1  0
 20 55  1  0
 20 56  1  0
 24 57  1  0
 24 58  1  0
 25 59  1  0
 25 60  1  0
 27 61  1  0
 28 62  1  0
 29 63  1  0
 30 64  1  0
 32 65  1  0
 32 66  1  0
 34 67  1  0
 34 68  1  0
M  END
>  <smiles>  (22) 
c1ccc2c(c1)CCC(c1nc(NCCN3CCCC3)nc(N3CCc4ccccc4C3)n1)C2

>  <score_type>  (22) 
oracle

>  <origin>  (22) 
autodockgpu

>  <m_score__min__energy>  (22) 
-10.43

>  <m_primary>  (22) 
energy

>  <rmsd>  (22) 
4.923722283112297

>  <m_score__min__rmsd>  (22) 
4.923722283112297

>  <meeko>  (22) 
{"free_energy": -9.06, "intermolecular_energy": -10.85, "internal_energy": -1.88, "cluster_size": 33, "cluster_id": 2, "rank_in_cluster": 31}

>  <energy>  (22) 
-10.03

>  <cluster_rmsd>  (22) 
0.9

>  <cluster>  (22) 
2

$$$$

     RDKit          3D

 68 73  0  0  0  0  0  0  0  0999 V2000
  140.3210   67.6810  226.3770 C   0  0  0  0  0  0  0  0  0  0  0  0
  141.3260   68.5850  226.6370 C   0  0  0  0  0  0  0  0  0  0  0  0
  141.3030   69.8310  226.0470 C   0  0  0  0  0  0  0  0  0  0  0  0
  140.2870   70.2130  225.1870 C   0  0  0  0  0  0  0  0  0  0  0  0
  139.3010   69.3050  224.9420 C   0  0  0  0  0  0  0  0  0  0  0  0
  139.2930   68.0360  225.5220 C   0  0  0  0  0  0  0  0  0  0  0  0
  138.2010   69.7270  224.0060 C   0  0  0  0  0  0  0  0  0  0  0  0
  138.8480   70.5190  222.9080 C   0  0  0  0  0  0  0  0  0  0  0  0
  139.4360   71.8010  223.4520 C   0  0  2  0  0  0  0  0  0  0  0  0
  140.2460   72.4200  222.3650 C   0  0  0  0  0  0  0  0  0  0  0  0
  140.8860   71.7120  221.4220 N   0  0  0  0  0  0  0  0  0  0  0  0
  141.5970   72.3080  220.4680 C   0  0  0  0  0  0  0  0  0  0  0  0
  142.2680   71.5290  219.4870 N   0  0  0  0  0  0  0  0  0  0  0  0
  142.6230   70.1380  219.7200 C   0  0  0  0  0  0  0  0  0  0  0  0
  144.0790   69.9840  220.0700 C   0  0  0  0  0  0  0  0  0  0  0  0
  144.5340   68.6200  219.9660 N   0  0  0  0  0  0  0  0  0  0  0  0
  145.7920   68.4710  219.2710 C   0  0  0  0  0  0  0  0  0  0  0  0
  145.9380   66.9430  219.3210 C   0  0  0  0  0  0  0  0  0  0  0  0
  144.5180   66.5280  218.9920 C   0  0  0  0  0  0  0  0  0  0  0  0
  143.6660   67.7900  219.1910 C   0  0  0  0  0  0  0  0  0  0  0  0
  141.6540   73.6640  220.4790 N   0  0  0  0  0  0  0  0  0  0  0  0
  141.0330   74.4210  221.3990 C   0  0  0  0  0  0  0  0  0  0  0  0
  141.1190   75.8410  221.3760 N   0  0  0  0  0  0  0  0  0  0  0  0
  141.8070   76.4960  220.2820 C   0  0  0  0  0  0  0  0  0  0  0  0
  141.2390   77.8940  220.1220 C   0  0  0  0  0  0  0  0  0  0  0  0
  141.5660   78.6040  221.3910 C   0  0  0  0  0  0  0  0  0  0  0  0
  142.1890   79.8300  221.4270 C   0  0  0  0  0  0  0  0  0  0  0  0
  142.4540   80.4200  222.6650 C   0  0  0  0  0  0  0  0  0  0  0  0
  142.0950   79.7760  223.8520 C   0  0  0  0  0  0  0  0  0  0  0  0
  141.4640   78.5330  223.7970 C   0  0  0  0  0  0  0  0  0  0  0  0
  141.2090   77.9640  222.5630 C   0  0  0  0  0  0  0  0  0  0  0  0
  140.5400   76.6440  222.4240 C   0  0  0  0  0  0  0  0  0  0  0  0
  140.3270   73.7680  222.3420 N   0  0  0  0  0  0  0  0  0  0  0  0
  140.3640   71.5680  224.6120 C   0  0  0  0  0  0  0  0  0  0  0  0
  140.3352   66.6855  226.8448 H   0  0  0  0  0  0  0  0  0  0  0  0
  142.1478   68.3132  227.3158 H   0  0  0  0  0  0  0  0  0  0  0  0
  142.1141   70.5412  226.2655 H   0  0  0  0  0  0  0  0  0  0  0  0
  138.4806   67.3277  225.3025 H   0  0  0  0  0  0  0  0  0  0  0  0
  137.6979   68.8421  223.5891 H   0  0  0  0  0  0  0  0  0  0  0  0
  137.4429   70.3262  224.5316 H   0  0  0  0  0  0  0  0  0  0  0  0
  139.6493   69.9183  222.4529 H   0  0  0  0  0  0  0  0  0  0  0  0
  138.0861   70.7697  222.1553 H   0  0  0  0  0  0  0  0  0  0  0  0
  138.6044   72.4343  223.7945 H   0  0  0  0  0  0  0  0  0  0  0  0
  142.5270   71.9400  218.5600 H   0  0  0  0  0  0  0  0  0  0  0  0
  142.0143   69.7493  220.5497 H   0  0  0  0  0  0  0  0  0  0  0  0
  142.4327   69.5766  218.7934 H   0  0  0  0  0  0  0  0  0  0  0  0
  144.6735   70.6067  219.3853 H   0  0  0  0  0  0  0  0  0  0  0  0
  144.2045   70.2977  221.1168 H   0  0  0  0  0  0  0  0  0  0  0  0
  145.7350   68.8430  218.2374 H   0  0  0  0  0  0  0  0  0  0  0  0
  146.6325   69.0334  219.7038 H   0  0  0  0  0  0  0  0  0  0  0  0
  146.6539   66.5772  218.5702 H   0  0  0  0  0  0  0  0  0  0  0  0
  146.3265   66.5471  220.2709 H   0  0  0  0  0  0  0  0  0  0  0  0
  144.4508   66.1788  217.9511 H   0  0  0  0  0  0  0  0  0  0  0  0
  144.1763   65.6998  219.6302 H   0  0  0  0  0  0  0  0  0  0  0  0
  143.4189   68.2606  218.2279 H   0  0  0  0  0  0  0  0  0  0  0  0
  142.6950   67.5967  219.6704 H   0  0  0  0  0  0  0  0  0  0  0  0
  142.8828   76.5560  220.5035 H   0  0  0  0  0  0  0  0  0  0  0  0
  141.6663   75.9242  219.3529 H   0  0  0  0  0  0  0  0  0  0  0  0
  141.7054   78.4028  219.2655 H   0  0  0  0  0  0  0  0  0  0  0  0
  140.1557   77.8752  219.9322 H   0  0  0  0  0  0  0  0  0  0  0  0
  142.4744   80.3384  220.4942 H   0  0  0  0  0  0  0  0  0  0  0  0
  142.9500   81.4010  222.7059 H   0  0  0  0  0  0  0  0  0  0  0  0
  142.3085   80.2460  224.8233 H   0  0  0  0  0  0  0  0  0  0  0  0
  141.1736   78.0132  224.7219 H   0  0  0  0  0  0  0  0  0  0  0  0
  140.6302   76.1004  223.3760 H   0  0  0  0  0  0  0  0  0  0  0  0
  139.4875   76.8278  222.1624 H   0  0  0  0  0  0  0  0  0  0  0  0
  141.3949   71.7384  224.2682 H   0  0  0  0  0  0  0  0  0  0  0  0
  140.0576   72.2652  225.4058 H   0  0  0  0  0  0  0  0  0  0  0  0
  1  2  2  0
  2  3  1  0
  3  4  2  0
  4  5  1  0
  5  6  2  0
  5  7  1  0
  7  8  1  0
  8  9  1  0
  9 10  1  0
 10 11  2  0
 11 12  1  0
 12 13  1  0
 13 14  1  0
 14 15  1  0
 15 16  1  0
 16 17  1  0
 17 18  1  0
 18 19  1  0
 19 20  1  0
 12 21  2  0
 21 22  1  0
 22 23  1  0
 23 24  1  0
 24 25  1  0
 25 26  1  0
 26 27  2  0
 27 28  1  0
 28 29  2  0
 29 30  1  0
 30 31  2  0
 31 32  1  0
 22 33  2  0
  9 34  1  0
  6  1  1  0
 33 10  1  0
 34  4  1  0
 20 16  1  0
 32 23  1  0
 31 26  1  0
  1 35  1  0
  2 36  1  0
  3 37  1  0
  6 38  1  0
  7 39  1  0
  7 40  1  0
  8 41  1  0
  8 42  1  0
  9 43  1  1
 13 44  1  0
 14 45  1  0
 14 46  1  0
 15 47  1  0
 15 48  1  0
 17 49  1  0
 17 50  1  0
 18 51  1  0
 18 52  1  0
 19 53  1  0
 19 54  1  0
 20 55  1  0
 20 56  1  0
 24 57  1  0
 24 58  1  0
 25 59  1  0
 25 60  1  0
 27 61  1  0
 28 62  1  0
 29 63  1  0
 30 64  1  0
 32 65  1  0
 32 66  1  0
 34 67  1  0
 34 68  1  0
M  END
>  <smiles>  (23) 
c1ccc2c(c1)CCC(c1nc(NCCN3CCCC3)nc(N3CCc4ccccc4C3)n1)C2

>  <score_type>  (23) 
oracle

>  <origin>  (23) 
autodockgpu

>  <m_score__min__energy>  (23) 
-10.43

>  <m_primary>  (23) 
energy

>  <rmsd>  (23) 
8.548919177348301

>  <m_score__min__rmsd>  (23) 
8.548919177348301

>  <meeko>  (23) 
{"free_energy": -10.22, "intermolecular_energy": -12.01, "internal_energy": -1.04, "cluster_size": 33, "cluster_id": 2, "rank_in_cluster": 1}

>  <energy>  (23) 
-10.02

>  <cluster_rmsd>  (23) 
0.95

>  <cluster>  (23) 
2

$$$$

     RDKit          3D

 68 73  0  0  0  0  0  0  0  0999 V2000
  140.1260   67.8170  227.0930 C   0  0  0  0  0  0  0  0  0  0  0  0
  141.1060   68.7560  227.3220 C   0  0  0  0  0  0  0  0  0  0  0  0
  141.1240   69.9270  226.5940 C   0  0  0  0  0  0  0  0  0  0  0  0
  140.1750   70.1960  225.6220 C   0  0  0  0  0  0  0  0  0  0  0  0
  139.2130   69.2540  225.4090 C   0  0  0  0  0  0  0  0  0  0  0  0
  139.1650   68.0590  226.1280 C   0  0  0  0  0  0  0  0  0  0  0  0
  138.1860   69.5540  224.3510 C   0  0  0  0  0  0  0  0  0  0  0  0
  138.9120   70.2230  223.2210 C   0  0  0  0  0  0  0  0  0  0  0  0
  139.4530   71.5660  223.6570 C   0  0  2  0  0  0  0  0  0  0  0  0
  140.3410   72.0660  222.5700 C   0  0  0  0  0  0  0  0  0  0  0  0
  140.5880   73.3660  222.3510 N   0  0  0  0  0  0  0  0  0  0  0  0
  141.3910   73.7660  221.3680 C   0  0  0  0  0  0  0  0  0  0  0  0
  141.6270   75.1520  221.1600 N   0  0  0  0  0  0  0  0  0  0  0  0
  141.0210   75.8770  220.0550 C   0  0  0  0  0  0  0  0  0  0  0  0
  140.5680   77.2520  220.4700 C   0  0  0  0  0  0  0  0  0  0  0  0
  141.3660   77.8020  221.5370 N   0  0  0  0  0  0  0  0  0  0  0  0
  140.6500   77.9760  222.7800 C   0  0  0  0  0  0  0  0  0  0  0  0
  141.7640   78.5900  223.6390 C   0  0  0  0  0  0  0  0  0  0  0  0
  142.3640   79.5630  222.6450 C   0  0  0  0  0  0  0  0  0  0  0  0
  141.8300   79.1280  221.2730 C   0  0  0  0  0  0  0  0  0  0  0  0
  141.9560   72.8100  220.5880 N   0  0  0  0  0  0  0  0  0  0  0  0
  141.7440   71.4940  220.7630 C   0  0  0  0  0  0  0  0  0  0  0  0
  142.3550   70.5240  219.9220 N   0  0  0  0  0  0  0  0  0  0  0  0
  141.6350   69.3110  219.5910 C   0  0  0  0  0  0  0  0  0  0  0  0
  142.1510   68.7890  218.2630 C   0  0  0  0  0  0  0  0  0  0  0  0
  143.5820   68.4510  218.4970 C   0  0  0  0  0  0  0  0  0  0  0  0
  144.1300   67.2320  218.1680 C   0  0  0  0  0  0  0  0  0  0  0  0
  145.4840   67.0070  218.4240 C   0  0  0  0  0  0  0  0  0  0  0  0
  146.2750   68.0020  219.0070 C   0  0  0  0  0  0  0  0  0  0  0  0
  145.7020   69.2310  219.3340 C   0  0  0  0  0  0  0  0  0  0  0  0
  144.3610   69.4380  219.0730 C   0  0  0  0  0  0  0  0  0  0  0  0
  143.6810   70.7200  219.3920 C   0  0  0  0  0  0  0  0  0  0  0  0
  140.9230   71.1450  221.7710 N   0  0  0  0  0  0  0  0  0  0  0  0
  140.2910   71.4770  224.9020 C   0  0  0  0  0  0  0  0  0  0  0  0
  140.1072   66.8822  227.6724 H   0  0  0  0  0  0  0  0  0  0  0  0
  141.8754   68.5722  228.0863 H   0  0  0  0  0  0  0  0  0  0  0  0
  141.9134   70.6674  226.7906 H   0  0  0  0  0  0  0  0  0  0  0  0
  138.3744   67.3202  225.9302 H   0  0  0  0  0  0  0  0  0  0  0  0
  137.7184   68.6216  224.0017 H   0  0  0  0  0  0  0  0  0  0  0  0
  137.3887   70.2006  224.7463 H   0  0  0  0  0  0  0  0  0  0  0  0
  139.7475   69.5838  222.8993 H   0  0  0  0  0  0  0  0  0  0  0  0
  138.2087   70.3770  222.3894 H   0  0  0  0  0  0  0  0  0  0  0  0
  138.5962   72.2249  223.8613 H   0  0  0  0  0  0  0  0  0  0  0  0
  142.2490   75.6940  221.8040 H   0  0  0  0  0  0  0  0  0  0  0  0
  141.7594   75.9746  219.2455 H   0  0  0  0  0  0  0  0  0  0  0  0
  140.1384   75.3130  219.7190 H   0  0  0  0  0  0  0  0  0  0  0  0
  140.6340   77.9218  219.5999 H   0  0  0  0  0  0  0  0  0  0  0  0
  139.5353   77.1645  220.8385 H   0  0  0  0  0  0  0  0  0  0  0  0
  139.7958   78.6599  222.6678 H   0  0  0  0  0  0  0  0  0  0  0  0
  140.1981   77.0602  223.1889 H   0  0  0  0  0  0  0  0  0  0  0  0
  141.3597   79.1069  224.5218 H   0  0  0  0  0  0  0  0  0  0  0  0
  142.4749   77.8639  224.0603 H   0  0  0  0  0  0  0  0  0  0  0  0
  142.0459   80.5910  222.8732 H   0  0  0  0  0  0  0  0  0  0  0  0
  143.4635   79.5536  222.6770 H   0  0  0  0  0  0  0  0  0  0  0  0
  141.0085   79.7792  220.9398 H   0  0  0  0  0  0  0  0  0  0  0  0
  142.5795   79.1821  220.4697 H   0  0  0  0  0  0  0  0  0  0  0  0
  141.7994   68.5569  220.3748 H   0  0  0  0  0  0  0  0  0  0  0  0
  140.5576   69.5211  219.5192 H   0  0  0  0  0  0  0  0  0  0  0  0
  141.5896   67.8937  217.9576 H   0  0  0  0  0  0  0  0  0  0  0  0
  142.0332   69.5309  217.4595 H   0  0  0  0  0  0  0  0  0  0  0  0
  143.5105   66.4468  217.7102 H   0  0  0  0  0  0  0  0  0  0  0  0
  145.9332   66.0370  218.1644 H   0  0  0  0  0  0  0  0  0  0  0  0
  147.3409   67.8169  219.2062 H   0  0  0  0  0  0  0  0  0  0  0  0
  146.3095   70.0247  219.7934 H   0  0  0  0  0  0  0  0  0  0  0  0
  144.2820   71.2624  220.1367 H   0  0  0  0  0  0  0  0  0  0  0  0
  143.5862   71.2902  218.4561 H   0  0  0  0  0  0  0  0  0  0  0  0
  141.3444   71.6187  224.6188 H   0  0  0  0  0  0  0  0  0  0  0  0
  139.9229   72.2564  225.5854 H   0  0  0  0  0  0  0  0  0  0  0  0
  1  2  2  0
  2  3  1  0
  3  4  2  0
  4  5  1  0
  5  6  2  0
  5  7  1  0
  7  8  1  0
  8  9  1  0
  9 10  1  0
 10 11  2  0
 11 12  1  0
 12 13  1  0
 13 14  1  0
 14 15  1  0
 15 16  1  0
 16 17  1  0
 17 18  1  0
 18 19  1  0
 19 20  1  0
 12 21  2  0
 21 22  1  0
 22 23  1  0
 23 24  1  0
 24 25  1  0
 25 26  1  0
 26 27  2  0
 27 28  1  0
 28 29  2  0
 29 30  1  0
 30 31  2  0
 31 32  1  0
 22 33  2  0
  9 34  1  0
  6  1  1  0
 33 10  1  0
 34  4  1  0
 20 16  1  0
 32 23  1  0
 31 26  1  0
  1 35  1  0
  2 36  1  0
  3 37  1  0
  6 38  1  0
  7 39  1  0
  7 40  1  0
  8 41  1  0
  8 42  1  0
  9 43  1  1
 13 44  1  0
 14 45  1  0
 14 46  1  0
 15 47  1  0
 15 48  1  0
 17 49  1  0
 17 50  1  0
 18 51  1  0
 18 52  1  0
 19 53  1  0
 19 54  1  0
 20 55  1  0
 20 56  1  0
 24 57  1  0
 24 58  1  0
 25 59  1  0
 25 60  1  0
 27 61  1  0
 28 62  1  0
 29 63  1  0
 30 64  1  0
 32 65  1  0
 32 66  1  0
 34 67  1  0
 34 68  1  0
M  END
>  <smiles>  (24) 
c1ccc2c(c1)CCC(c1nc(NCCN3CCCC3)nc(N3CCc4ccccc4C3)n1)C2

>  <score_type>  (24) 
oracle

>  <origin>  (24) 
autodockgpu

>  <m_score__min__energy>  (24) 
-10.43

>  <m_primary>  (24) 
energy

>  <rmsd>  (24) 
5.085945871821974

>  <m_score__min__rmsd>  (24) 
5.085945871821974

>  <meeko>  (24) 
{"free_energy": -9.52, "intermolecular_energy": -11.31, "internal_energy": -1.68, "cluster_size": 4, "cluster_id": 3, "rank_in_cluster": 1}

>  <energy>  (24) 
-10.02

>  <cluster_rmsd>  (24) 
0.94

>  <cluster>  (24) 
2

$$$$

     RDKit          3D

 68 73  0  0  0  0  0  0  0  0999 V2000
  140.2620   67.8270  226.4180 C   0  0  0  0  0  0  0  0  0  0  0  0
  141.1790   68.7870  226.7830 C   0  0  0  0  0  0  0  0  0  0  0  0
  141.1610   70.0240  226.1730 C   0  0  0  0  0  0  0  0  0  0  0  0
  140.2390   70.3410  225.1910 C   0  0  0  0  0  0  0  0  0  0  0  0
  139.3390   69.3770  224.8440 C   0  0  0  0  0  0  0  0  0  0  0  0
  139.3280   68.1160  225.4400 C   0  0  0  0  0  0  0  0  0  0  0  0
  138.3400   69.7290  223.7740 C   0  0  0  0  0  0  0  0  0  0  0  0
  139.0730   70.5430  222.7490 C   0  0  0  0  0  0  0  0  0  0  0  0
  139.5210   71.8610  223.3380 C   0  0  2  0  0  0  0  0  0  0  0  0
  140.4230   72.5120  222.3460 C   0  0  0  0  0  0  0  0  0  0  0  0
  141.2040   71.8300  221.4950 N   0  0  0  0  0  0  0  0  0  0  0  0
  141.9940   72.4540  220.6240 C   0  0  0  0  0  0  0  0  0  0  0  0
  142.8140   71.7020  219.7390 N   0  0  0  0  0  0  0  0  0  0  0  0
  143.7230   70.6740  220.2200 C   0  0  0  0  0  0  0  0  0  0  0  0
  144.8460   70.4220  219.2500 C   0  0  0  0  0  0  0  0  0  0  0  0
  144.9850   69.0280  218.9110 N   0  0  0  0  0  0  0  0  0  0  0  0
  144.0120   68.1680  219.5430 C   0  0  0  0  0  0  0  0  0  0  0  0
  144.4730   66.8080  218.9980 C   0  0  0  0  0  0  0  0  0  0  0  0
  145.9730   66.9560  219.1440 C   0  0  0  0  0  0  0  0  0  0  0  0
  146.2190   68.4570  219.3530 C   0  0  0  0  0  0  0  0  0  0  0  0
  141.9830   73.8110  220.6230 N   0  0  0  0  0  0  0  0  0  0  0  0
  141.2200   74.5430  221.4540 C   0  0  0  0  0  0  0  0  0  0  0  0
  141.2400   75.9650  221.4230 N   0  0  0  0  0  0  0  0  0  0  0  0
  141.8290   76.6460  220.2880 C   0  0  0  0  0  0  0  0  0  0  0  0
  141.1890   78.0150  220.1590 C   0  0  0  0  0  0  0  0  0  0  0  0
  141.5570   78.7450  221.4040 C   0  0  0  0  0  0  0  0  0  0  0  0
  142.1240   80.0000  221.4000 C   0  0  0  0  0  0  0  0  0  0  0  0
  142.4350   80.6070  222.6180 C   0  0  0  0  0  0  0  0  0  0  0  0
  142.1780   79.9530  223.8260 C   0  0  0  0  0  0  0  0  0  0  0  0
  141.6030   78.6820  223.8120 C   0  0  0  0  0  0  0  0  0  0  0  0
  141.3010   78.0960  222.5970 C   0  0  0  0  0  0  0  0  0  0  0  0
  140.6870   76.7450  222.5010 C   0  0  0  0  0  0  0  0  0  0  0  0
  140.4410   73.8620  222.3150 N   0  0  0  0  0  0  0  0  0  0  0  0
  140.3130   71.6920  224.6050 C   0  0  0  0  0  0  0  0  0  0  0  0
  140.2722   66.8384  226.9003 H   0  0  0  0  0  0  0  0  0  0  0  0
  141.9255   68.5676  227.5606 H   0  0  0  0  0  0  0  0  0  0  0  0
  141.9005   70.7799  226.4757 H   0  0  0  0  0  0  0  0  0  0  0  0
  138.5868   67.3620  225.1364 H   0  0  0  0  0  0  0  0  0  0  0  0
  137.9386   68.8137  223.3146 H   0  0  0  0  0  0  0  0  0  0  0  0
  137.4932   70.2919  224.1938 H   0  0  0  0  0  0  0  0  0  0  0  0
  139.9547   69.9823  222.4051 H   0  0  0  0  0  0  0  0  0  0  0  0
  138.3966   70.7432  221.9050 H   0  0  0  0  0  0  0  0  0  0  0  0
  138.6211   72.4507  223.5670 H   0  0  0  0  0  0  0  0  0  0  0  0
  142.7840   71.8700  218.7070 H   0  0  0  0  0  0  0  0  0  0  0  0
  144.1488   70.9969  221.1815 H   0  0  0  0  0  0  0  0  0  0  0  0
  143.1533   69.7399  220.3334 H   0  0  0  0  0  0  0  0  0  0  0  0
  144.6498   70.9904  218.3289 H   0  0  0  0  0  0  0  0  0  0  0  0
  145.7810   70.7415  219.7334 H   0  0  0  0  0  0  0  0  0  0  0  0
  144.0777   68.2127  220.6401 H   0  0  0  0  0  0  0  0  0  0  0  0
  142.9620   68.4212  219.3348 H   0  0  0  0  0  0  0  0  0  0  0  0
  144.0851   65.9743  219.6018 H   0  0  0  0  0  0  0  0  0  0  0  0
  144.1288   66.5784  217.9788 H   0  0  0  0  0  0  0  0  0  0  0  0
  146.3332   66.3831  220.0112 H   0  0  0  0  0  0  0  0  0  0  0  0
  146.5084   66.5737  218.2624 H   0  0  0  0  0  0  0  0  0  0  0  0
  146.4085   68.6868  220.4119 H   0  0  0  0  0  0  0  0  0  0  0  0
  147.1003   68.8395  218.8173 H   0  0  0  0  0  0  0  0  0  0  0  0
  142.9123   76.7566  220.4436 H   0  0  0  0  0  0  0  0  0  0  0  0
  141.6583   76.0636  219.3706 H   0  0  0  0  0  0  0  0  0  0  0  0
  141.5801   78.5405  219.2753 H   0  0  0  0  0  0  0  0  0  0  0  0
  140.0984   77.9455  220.0338 H   0  0  0  0  0  0  0  0  0  0  0  0
  142.3288   80.5167  220.4507 H   0  0  0  0  0  0  0  0  0  0  0  0
  142.8868   81.6099  222.6270 H   0  0  0  0  0  0  0  0  0  0  0  0
  142.4275   80.4372  224.7817 H   0  0  0  0  0  0  0  0  0  0  0  0
  141.3931   78.1540  224.7539 H   0  0  0  0  0  0  0  0  0  0  0  0
  140.8585   76.2111  223.4473 H   0  0  0  0  0  0  0  0  0  0  0  0
  139.6134   76.8782  222.3018 H   0  0  0  0  0  0  0  0  0  0  0  0
  141.3674   71.9146  224.3845 H   0  0  0  0  0  0  0  0  0  0  0  0
  139.8763   72.3802  225.3437 H   0  0  0  0  0  0  0  0  0  0  0  0
  1  2  2  0
  2  3  1  0
  3  4  2  0
  4  5  1  0
  5  6  2  0
  5  7  1  0
  7  8  1  0
  8  9  1  0
  9 10  1  0
 10 11  2  0
 11 12  1  0
 12 13  1  0
 13 14  1  0
 14 15  1  0
 15 16  1  0
 16 17  1  0
 17 18  1  0
 18 19  1  0
 19 20  1  0
 12 21  2  0
 21 22  1  0
 22 23  1  0
 23 24  1  0
 24 25  1  0
 25 26  1  0
 26 27  2  0
 27 28  1  0
 28 29  2  0
 29 30  1  0
 30 31  2  0
 31 32  1  0
 22 33  2  0
  9 34  1  0
  6  1  1  0
 33 10  1  0
 34  4  1  0
 20 16  1  0
 32 23  1  0
 31 26  1  0
  1 35  1  0
  2 36  1  0
  3 37  1  0
  6 38  1  0
  7 39  1  0
  7 40  1  0
  8 41  1  0
  8 42  1  0
  9 43  1  1
 13 44  1  0
 14 45  1  0
 14 46  1  0
 15 47  1  0
 15 48  1  0
 17 49  1  0
 17 50  1  0
 18 51  1  0
 18 52  1  0
 19 53  1  0
 19 54  1  0
 20 55  1  0
 20 56  1  0
 24 57  1  0
 24 58  1  0
 25 59  1  0
 25 60  1  0
 27 61  1  0
 28 62  1  0
 29 63  1  0
 30 64  1  0
 32 65  1  0
 32 66  1  0
 34 67  1  0
 34 68  1  0
M  END
>  <smiles>  (25) 
c1ccc2c(c1)CCC(c1nc(NCCN3CCCC3)nc(N3CCc4ccccc4C3)n1)C2

>  <score_type>  (25) 
oracle

>  <origin>  (25) 
autodockgpu

>  <m_score__min__energy>  (25) 
-10.43

>  <m_primary>  (25) 
energy

>  <rmsd>  (25) 
8.86306448563659

>  <m_score__min__rmsd>  (25) 
8.86306448563659

>  <meeko>  (25) 
{"free_energy": -10.12, "intermolecular_energy": -11.91, "internal_energy": -1.01, "cluster_size": 33, "cluster_id": 2, "rank_in_cluster": 4}

>  <energy>  (25) 
-10.02

>  <cluster_rmsd>  (25) 
0.83

>  <cluster>  (25) 
2

$$$$

     RDKit          3D

 68 73  0  0  0  0  0  0  0  0999 V2000
  140.3450   67.4180  226.6740 C   0  0  0  0  0  0  0  0  0  0  0  0
  141.4320   68.2610  226.7390 C   0  0  0  0  0  0  0  0  0  0  0  0
  141.3890   69.4900  226.1170 C   0  0  0  0  0  0  0  0  0  0  0  0
  140.2730   69.9160  225.4160 C   0  0  0  0  0  0  0  0  0  0  0  0
  139.2080   69.0680  225.3630 C   0  0  0  0  0  0  0  0  0  0  0  0
  139.2170   67.8160  225.9810 C   0  0  0  0  0  0  0  0  0  0  0  0
  137.9990   69.5370  224.5990 C   0  0  0  0  0  0  0  0  0  0  0  0
  138.5080   70.2570  223.3850 C   0  0  0  0  0  0  0  0  0  0  0  0
  139.2510   71.5110  223.7830 C   0  0  2  0  0  0  0  0  0  0  0  0
  139.9110   72.0480  222.5600 C   0  0  0  0  0  0  0  0  0  0  0  0
  140.3980   71.2730  221.5790 N   0  0  0  0  0  0  0  0  0  0  0  0
  140.9790   71.7970  220.5020 C   0  0  0  0  0  0  0  0  0  0  0  0
  141.4900   70.9480  219.4830 N   0  0  0  0  0  0  0  0  0  0  0  0
  142.8720   71.0280  219.0370 C   0  0  0  0  0  0  0  0  0  0  0  0
  143.8310   71.0960  220.1960 C   0  0  0  0  0  0  0  0  0  0  0  0
  144.1840   72.4480  220.5470 N   0  0  0  0  0  0  0  0  0  0  0  0
  143.8970   73.4190  219.5150 C   0  0  0  0  0  0  0  0  0  0  0  0
  144.4170   74.6900  220.2020 C   0  0  0  0  0  0  0  0  0  0  0  0
  145.7060   74.1640  220.7990 C   0  0  0  0  0  0  0  0  0  0  0  0
  145.5870   72.6350  220.7480 C   0  0  0  0  0  0  0  0  0  0  0  0
  141.0640   73.1500  220.4270 N   0  0  0  0  0  0  0  0  0  0  0  0
  140.5920   73.9720  221.3800 C   0  0  0  0  0  0  0  0  0  0  0  0
  140.7020   75.3850  221.2640 N   0  0  0  0  0  0  0  0  0  0  0  0
  141.2500   75.9610  220.0530 C   0  0  0  0  0  0  0  0  0  0  0  0
  140.6930   77.3630  219.8890 C   0  0  0  0  0  0  0  0  0  0  0  0
  141.1990   78.1320  221.0600 C   0  0  0  0  0  0  0  0  0  0  0  0
  141.8440   79.3420  220.9420 C   0  0  0  0  0  0  0  0  0  0  0  0
  142.2830   79.9910  222.0980 C   0  0  0  0  0  0  0  0  0  0  0  0
  142.0720   79.4230  223.3580 C   0  0  0  0  0  0  0  0  0  0  0  0
  141.4160   78.1960  223.4580 C   0  0  0  0  0  0  0  0  0  0  0  0
  140.9890   77.5670  222.3040 C   0  0  0  0  0  0  0  0  0  0  0  0
  140.2820   76.2590  222.3300 C   0  0  0  0  0  0  0  0  0  0  0  0
  140.0150   73.3900  222.4480 N   0  0  0  0  0  0  0  0  0  0  0  0
  140.3380   71.2480  224.7880 C   0  0  0  0  0  0  0  0  0  0  0  0
  140.3741   66.4363  227.1693 H   0  0  0  0  0  0  0  0  0  0  0  0
  142.3346   67.9534  227.2874 H   0  0  0  0  0  0  0  0  0  0  0  0
  142.2658   70.1514  226.1790 H   0  0  0  0  0  0  0  0  0  0  0  0
  138.3393   67.1560  225.9174 H   0  0  0  0  0  0  0  0  0  0  0  0
  137.3831   68.6765  224.2988 H   0  0  0  0  0  0  0  0  0  0  0  0
  137.3725   70.1973  225.2167 H   0  0  0  0  0  0  0  0  0  0  0  0
  139.1885   69.5942  222.8304 H   0  0  0  0  0  0  0  0  0  0  0  0
  137.6517   70.5373  222.7539 H   0  0  0  0  0  0  0  0  0  0  0  0
  138.5248   72.2052  224.2310 H   0  0  0  0  0  0  0  0  0  0  0  0
  140.8800   70.2340  219.0230 H   0  0  0  0  0  0  0  0  0  0  0  0
  143.1039   70.1371  218.4349 H   0  0  0  0  0  0  0  0  0  0  0  0
  142.9870   71.9472  218.4439 H   0  0  0  0  0  0  0  0  0  0  0  0
  143.3631   70.6167  221.0685 H   0  0  0  0  0  0  0  0  0  0  0  0
  144.7540   70.5793  219.8943 H   0  0  0  0  0  0  0  0  0  0  0  0
  144.4446   73.2027  218.5858 H   0  0  0  0  0  0  0  0  0  0  0  0
  142.8458   73.4601  219.1935 H   0  0  0  0  0  0  0  0  0  0  0  0
  144.6029   75.4973  219.4783 H   0  0  0  0  0  0  0  0  0  0  0  0
  143.7226   75.1396  220.9270 H   0  0  0  0  0  0  0  0  0  0  0  0
  146.5697   74.5024  220.2078 H   0  0  0  0  0  0  0  0  0  0  0  0
  145.8585   74.5276  221.8259 H   0  0  0  0  0  0  0  0  0  0  0  0
  146.1687   72.2173  219.9131 H   0  0  0  0  0  0  0  0  0  0  0  0
  145.9755   72.1316  221.6456 H   0  0  0  0  0  0  0  0  0  0  0  0
  142.3467   76.0041  220.1264 H   0  0  0  0  0  0  0  0  0  0  0  0
  140.9752   75.3434  219.1852 H   0  0  0  0  0  0  0  0  0  0  0  0
  141.0512   77.8116  218.9507 H   0  0  0  0  0  0  0  0  0  0  0  0
  139.5939   77.3628  219.8451 H   0  0  0  0  0  0  0  0  0  0  0  0
  142.0112   79.7912  219.9519 H   0  0  0  0  0  0  0  0  0  0  0  0
  142.7999   80.9586  222.0164 H   0  0  0  0  0  0  0  0  0  0  0  0
  142.4208   79.9400  224.2641 H   0  0  0  0  0  0  0  0  0  0  0  0
  141.2411   77.7356  224.4416 H   0  0  0  0  0  0  0  0  0  0  0  0
  140.4866   75.7662  223.2919 H   0  0  0  0  0  0  0  0  0  0  0  0
  139.2079   76.4562  222.1978 H   0  0  0  0  0  0  0  0  0  0  0  0
  141.3084   71.3419  224.2786 H   0  0  0  0  0  0  0  0  0  0  0  0
  140.2063   71.9839  225.5949 H   0  0  0  0  0  0  0  0  0  0  0  0
  1  2  2  0
  2  3  1  0
  3  4  2  0
  4  5  1  0
  5  6  2  0
  5  7  1  0
  7  8  1  0
  8  9  1  0
  9 10  1  0
 10 11  2  0
 11 12  1  0
 12 13  1  0
 13 14  1  0
 14 15  1  0
 15 16  1  0
 16 17  1  0
 17 18  1  0
 18 19  1  0
 19 20  1  0
 12 21  2  0
 21 22  1  0
 22 23  1  0
 23 24  1  0
 24 25  1  0
 25 26  1  0
 26 27  2  0
 27 28  1  0
 28 29  2  0
 29 30  1  0
 30 31  2  0
 31 32  1  0
 22 33  2  0
  9 34  1  0
  6  1  1  0
 33 10  1  0
 34  4  1  0
 20 16  1  0
 32 23  1  0
 31 26  1  0
  1 35  1  0
  2 36  1  0
  3 37  1  0
  6 38  1  0
  7 39  1  0
  7 40  1  0
  8 41  1  0
  8 42  1  0
  9 43  1  1
 13 44  1  0
 14 45  1  0
 14 46  1  0
 15 47  1  0
 15 48  1  0
 17 49  1  0
 17 50  1  0
 18 51  1  0
 18 52  1  0
 19 53  1  0
 19 54  1  0
 20 55  1  0
 20 56  1  0
 24 57  1  0
 24 58  1  0
 25 59  1  0
 25 60  1  0
 27 61  1  0
 28 62  1  0
 29 63  1  0
 30 64  1  0
 32 65  1  0
 32 66  1  0
 34 67  1  0
 34 68  1  0
M  END
>  <smiles>  (26) 
c1ccc2c(c1)CCC(c1nc(NCCN3CCCC3)nc(N3CCc4ccccc4C3)n1)C2

>  <score_type>  (26) 
oracle

>  <origin>  (26) 
autodockgpu

>  <m_score__min__energy>  (26) 
-10.43

>  <m_primary>  (26) 
energy

>  <rmsd>  (26) 
5.77858095897598

>  <m_score__min__rmsd>  (26) 
5.77858095897598

>  <meeko>  (26) 
{"free_energy": -9.76, "intermolecular_energy": -11.55, "internal_energy": -1.77, "cluster_size": 33, "cluster_id": 2, "rank_in_cluster": 26}

>  <energy>  (26) 
-9.98

>  <cluster_rmsd>  (26) 
0.95

>  <cluster>  (26) 
2

$$$$

     RDKit          3D

 68 73  0  0  0  0  0  0  0  0999 V2000
  145.9820   68.0790  219.5830 C   0  0  0  0  0  0  0  0  0  0  0  0
  144.6660   67.7010  219.7360 C   0  0  0  0  0  0  0  0  0  0  0  0
  143.6620   68.6400  219.6270 C   0  0  0  0  0  0  0  0  0  0  0  0
  143.9340   69.9720  219.3650 C   0  0  0  0  0  0  0  0  0  0  0  0
  145.2420   70.3260  219.2170 C   0  0  0  0  0  0  0  0  0  0  0  0
  146.2820   69.4020  219.3200 C   0  0  0  0  0  0  0  0  0  0  0  0
  145.5290   71.7760  218.9330 C   0  0  0  0  0  0  0  0  0  0  0  0
  144.5750   72.5770  219.7700 C   0  0  0  0  0  0  0  0  0  0  0  0
  143.1500   72.3480  219.3190 C   0  0  2  0  0  0  0  0  0  0  0  0
  142.2540   72.9890  220.3220 C   0  0  0  0  0  0  0  0  0  0  0  0
  141.4860   72.3000  221.1790 N   0  0  0  0  0  0  0  0  0  0  0  0
  140.7010   72.9160  222.0600 C   0  0  0  0  0  0  0  0  0  0  0  0
  139.8940   72.1560  222.9500 N   0  0  0  0  0  0  0  0  0  0  0  0
  140.2660   70.8140  223.3690 C   0  0  0  0  0  0  0  0  0  0  0  0
  139.4030   70.3220  224.5000 C   0  0  0  0  0  0  0  0  0  0  0  0
  139.7840   70.8800  225.7730 N   0  0  0  0  0  0  0  0  0  0  0  0
  141.0790   71.5220  225.7720 C   0  0  0  0  0  0  0  0  0  0  0  0
  141.1600   71.9500  227.2440 C   0  0  0  0  0  0  0  0  0  0  0  0
  140.6240   70.7020  227.9150 C   0  0  0  0  0  0  0  0  0  0  0  0
  139.9410   69.8980  226.8000 C   0  0  0  0  0  0  0  0  0  0  0  0
  140.7040   74.2730  222.0650 N   0  0  0  0  0  0  0  0  0  0  0  0
  141.4540   75.0120  221.2300 C   0  0  0  0  0  0  0  0  0  0  0  0
  141.4260   76.4340  221.2660 N   0  0  0  0  0  0  0  0  0  0  0  0
  142.0190   77.1870  220.1800 C   0  0  0  0  0  0  0  0  0  0  0  0
  141.3360   78.5400  220.1010 C   0  0  0  0  0  0  0  0  0  0  0  0
  141.6510   79.2210  221.3870 C   0  0  0  0  0  0  0  0  0  0  0  0
  142.1760   80.4920  221.4570 C   0  0  0  0  0  0  0  0  0  0  0  0
  142.4380   81.0490  222.7100 C   0  0  0  0  0  0  0  0  0  0  0  0
  142.1740   80.3300  223.8790 C   0  0  0  0  0  0  0  0  0  0  0  0
  141.6430   79.0430  223.7900 C   0  0  0  0  0  0  0  0  0  0  0  0
  141.3890   78.5060  222.5410 C   0  0  0  0  0  0  0  0  0  0  0  0
  140.8230   77.1430  222.3660 C   0  0  0  0  0  0  0  0  0  0  0  0
  142.2290   74.3390  220.3590 N   0  0  0  0  0  0  0  0  0  0  0  0
  142.7840   70.8900  219.2720 C   0  0  0  0  0  0  0  0  0  0  0  0
  146.7868   67.3342  219.6694 H   0  0  0  0  0  0  0  0  0  0  0  0
  144.4162   66.6503  219.9451 H   0  0  0  0  0  0  0  0  0  0  0  0
  142.6164   68.3220  219.7516 H   0  0  0  0  0  0  0  0  0  0  0  0
  147.3267   69.7222  219.1936 H   0  0  0  0  0  0  0  0  0  0  0  0
  146.5670   72.0174  219.2056 H   0  0  0  0  0  0  0  0  0  0  0  0
  145.4029   72.0021  217.8639 H   0  0  0  0  0  0  0  0  0  0  0  0
  144.6744   72.2730  220.8225 H   0  0  0  0  0  0  0  0  0  0  0  0
  144.8152   73.6446  219.6581 H   0  0  0  0  0  0  0  0  0  0  0  0
  143.0449   72.7655  218.3067 H   0  0  0  0  0  0  0  0  0  0  0  0
  139.0020   72.5470  223.3330 H   0  0  0  0  0  0  0  0  0  0  0  0
  140.1560   70.1307  222.5140 H   0  0  0  0  0  0  0  0  0  0  0  0
  141.3077   70.8423  223.7212 H   0  0  0  0  0  0  0  0  0  0  0  0
  138.3589   70.5992  224.2924 H   0  0  0  0  0  0  0  0  0  0  0  0
  139.5289   69.2311  224.5641 H   0  0  0  0  0  0  0  0  0  0  0  0
  141.8831   70.8204  225.5052 H   0  0  0  0  0  0  0  0  0  0  0  0
  141.1930   72.3382  225.0434 H   0  0  0  0  0  0  0  0  0  0  0  0
  142.1946   72.1647  227.5497 H   0  0  0  0  0  0  0  0  0  0  0  0
  140.6159   72.8747  227.4866 H   0  0  0  0  0  0  0  0  0  0  0  0
  141.4458   70.1214  228.3595 H   0  0  0  0  0  0  0  0  0  0  0  0
  139.9257   70.9445  228.7296 H   0  0  0  0  0  0  0  0  0  0  0  0
  140.5758   69.0655  226.4623 H   0  0  0  0  0  0  0  0  0  0  0  0
  138.9960   69.4278  227.1098 H   0  0  0  0  0  0  0  0  0  0  0  0
  143.0940   77.3247  220.3679 H   0  0  0  0  0  0  0  0  0  0  0  0
  141.8903   76.6446  219.2317 H   0  0  0  0  0  0  0  0  0  0  0  0
  141.7288   79.1199  219.2528 H   0  0  0  0  0  0  0  0  0  0  0  0
  140.2514   78.4409  219.9470 H   0  0  0  0  0  0  0  0  0  0  0  0
  142.3859   81.0603  220.5389 H   0  0  0  0  0  0  0  0  0  0  0  0
  142.8565   82.0640  222.7779 H   0  0  0  0  0  0  0  0  0  0  0  0
  142.3834   80.7758  224.8625 H   0  0  0  0  0  0  0  0  0  0  0  0
  141.4294   78.4635  224.7003 H   0  0  0  0  0  0  0  0  0  0  0  0
  140.9905   76.5698  223.2898 H   0  0  0  0  0  0  0  0  0  0  0  0
  139.7504   77.2512  222.1471 H   0  0  0  0  0  0  0  0  0  0  0  0
  142.1053   70.6780  220.1114 H   0  0  0  0  0  0  0  0  0  0  0  0
  142.3190   70.7136  218.2909 H   0  0  0  0  0  0  0  0  0  0  0  0
  1  2  2  0
  2  3  1  0
  3  4  2  0
  4  5  1  0
  5  6  2  0
  5  7  1  0
  7  8  1  0
  8  9  1  0
  9 10  1  0
 10 11  2  0
 11 12  1  0
 12 13  1  0
 13 14  1  0
 14 15  1  0
 15 16  1  0
 16 17  1  0
 17 18  1  0
 18 19  1  0
 19 20  1  0
 12 21  2  0
 21 22  1  0
 22 23  1  0
 23 24  1  0
 24 25  1  0
 25 26  1  0
 26 27  2  0
 27 28  1  0
 28 29  2  0
 29 30  1  0
 30 31  2  0
 31 32  1  0
 22 33  2  0
  9 34  1  0
  6  1  1  0
 33 10  1  0
 34  4  1  0
 20 16  1  0
 32 23  1  0
 31 26  1  0
  1 35  1  0
  2 36  1  0
  3 37  1  0
  6 38  1  0
  7 39  1  0
  7 40  1  0
  8 41  1  0
  8 42  1  0
  9 43  1  6
 13 44  1  0
 14 45  1  0
 14 46  1  0
 15 47  1  0
 15 48  1  0
 17 49  1  0
 17 50  1  0
 18 51  1  0
 18 52  1  0
 19 53  1  0
 19 54  1  0
 20 55  1  0
 20 56  1  0
 24 57  1  0
 24 58  1  0
 25 59  1  0
 25 60  1  0
 27 61  1  0
 28 62  1  0
 29 63  1  0
 30 64  1  0
 32 65  1  0
 32 66  1  0
 34 67  1  0
 34 68  1  0
M  END
>  <smiles>  (27) 
c1ccc2c(c1)CCC(c1nc(NCCN3CCCC3)nc(N3CCc4ccccc4C3)n1)C2

>  <score_type>  (27) 
oracle

>  <origin>  (27) 
autodockgpu

>  <m_score__min__energy>  (27) 
-10.43

>  <m_primary>  (27) 
energy

>  <rmsd>  (27) 
8.207213537498397

>  <m_score__min__rmsd>  (27) 
8.207213537498397

>  <meeko>  (27) 
{"free_energy": -10.43, "intermolecular_energy": -12.21, "internal_energy": -1.17, "cluster_size": 13, "cluster_id": 1, "rank_in_cluster": 1}

>  <energy>  (27) 
-9.97

>  <cluster_rmsd>  (27) 
0.95

>  <cluster>  (27) 
2

$$$$

     RDKit          3D

 68 73  0  0  0  0  0  0  0  0999 V2000
  146.2670   68.2790  219.4650 C   0  0  0  0  0  0  0  0  0  0  0  0
  145.0770   67.7630  219.9300 C   0  0  0  0  0  0  0  0  0  0  0  0
  143.9400   68.5420  219.9290 C   0  0  0  0  0  0  0  0  0  0  0  0
  143.9500   69.8490  219.4700 C   0  0  0  0  0  0  0  0  0  0  0  0
  145.1360   70.3410  219.0130 C   0  0  0  0  0  0  0  0  0  0  0  0
  146.3060   69.5810  219.0000 C   0  0  0  0  0  0  0  0  0  0  0  0
  145.1390   71.7620  218.5160 C   0  0  0  0  0  0  0  0  0  0  0  0
  144.2510   72.5450  219.4380 C   0  0  0  0  0  0  0  0  0  0  0  0
  142.8190   72.0750  219.3230 C   0  0  2  0  0  0  0  0  0  0  0  0
  142.0430   72.7310  220.4130 C   0  0  0  0  0  0  0  0  0  0  0  0
  141.3900   72.0550  221.3700 N   0  0  0  0  0  0  0  0  0  0  0  0
  140.7110   72.6840  222.3260 C   0  0  0  0  0  0  0  0  0  0  0  0
  140.0250   71.9380  223.3220 N   0  0  0  0  0  0  0  0  0  0  0  0
  139.7890   70.5100  223.1870 C   0  0  0  0  0  0  0  0  0  0  0  0
  139.7670   69.8170  224.5230 C   0  0  0  0  0  0  0  0  0  0  0  0
  140.0540   70.7100  225.6170 N   0  0  0  0  0  0  0  0  0  0  0  0
  141.4440   71.0920  225.7180 C   0  0  0  0  0  0  0  0  0  0  0  0
  141.3800   71.9820  226.9670 C   0  0  0  0  0  0  0  0  0  0  0  0
  140.4700   71.1480  227.8440 C   0  0  0  0  0  0  0  0  0  0  0  0
  139.8110   70.1310  226.9020 C   0  0  0  0  0  0  0  0  0  0  0  0
  140.7000   74.0420  222.3020 N   0  0  0  0  0  0  0  0  0  0  0  0
  141.3360   74.7680  221.3670 C   0  0  0  0  0  0  0  0  0  0  0  0
  141.2990   76.1900  221.3770 N   0  0  0  0  0  0  0  0  0  0  0  0
  141.8230   76.9250  220.2440 C   0  0  0  0  0  0  0  0  0  0  0  0
  141.1250   78.2710  220.1770 C   0  0  0  0  0  0  0  0  0  0  0  0
  141.5060   78.9800  221.4300 C   0  0  0  0  0  0  0  0  0  0  0  0
  142.0230   80.2560  221.4440 C   0  0  0  0  0  0  0  0  0  0  0  0
  142.3510   80.8410  222.6690 C   0  0  0  0  0  0  0  0  0  0  0  0
  142.1590   80.1430  223.8650 C   0  0  0  0  0  0  0  0  0  0  0  0
  141.6350   78.8510  223.8320 C   0  0  0  0  0  0  0  0  0  0  0  0
  141.3160   78.2870  222.6110 C   0  0  0  0  0  0  0  0  0  0  0  0
  140.7530   76.9170  222.4950 C   0  0  0  0  0  0  0  0  0  0  0  0
  142.0080   74.0810  220.4240 N   0  0  0  0  0  0  0  0  0  0  0  0
  142.6770   70.5900  219.5170 C   0  0  0  0  0  0  0  0  0  0  0  0
  147.1772   67.6614  219.4636 H   0  0  0  0  0  0  0  0  0  0  0  0
  145.0344   66.7288  220.3022 H   0  0  0  0  0  0  0  0  0  0  0  0
  142.9983   68.1139  220.3031 H   0  0  0  0  0  0  0  0  0  0  0  0
  147.2464   70.0113  218.6251 H   0  0  0  0  0  0  0  0  0  0  0  0
  146.1608   72.1689  218.5381 H   0  0  0  0  0  0  0  0  0  0  0  0
  144.7785   71.8182  217.4783 H   0  0  0  0  0  0  0  0  0  0  0  0
  144.5945   72.4078  220.4739 H   0  0  0  0  0  0  0  0  0  0  0  0
  144.2991   73.6080  219.1591 H   0  0  0  0  0  0  0  0  0  0  0  0
  142.4612   72.3292  218.3144 H   0  0  0  0  0  0  0  0  0  0  0  0
  139.6680   72.4020  224.1900 H   0  0  0  0  0  0  0  0  0  0  0  0
  138.8202   70.3549  222.6897 H   0  0  0  0  0  0  0  0  0  0  0  0
  140.6113   70.0827  222.5943 H   0  0  0  0  0  0  0  0  0  0  0  0
  138.7689   69.3811  224.6770 H   0  0  0  0  0  0  0  0  0  0  0  0
  140.5503   69.0448  224.5099 H   0  0  0  0  0  0  0  0  0  0  0  0
  142.0978   70.2205  225.8697 H   0  0  0  0  0  0  0  0  0  0  0  0
  141.8598   71.5764  224.8222 H   0  0  0  0  0  0  0  0  0  0  0  0
  142.3723   72.1174  227.4220 H   0  0  0  0  0  0  0  0  0  0  0  0
  141.0306   73.0089  226.7844 H   0  0  0  0  0  0  0  0  0  0  0  0
  141.0527   70.6311  228.6207 H   0  0  0  0  0  0  0  0  0  0  0  0
  139.7232   71.7674  228.3623 H   0  0  0  0  0  0  0  0  0  0  0  0
  140.2833   69.1414  226.9896 H   0  0  0  0  0  0  0  0  0  0  0  0
  138.7458   69.9572  227.1144 H   0  0  0  0  0  0  0  0  0  0  0  0
  142.9058   77.0745  220.3676 H   0  0  0  0  0  0  0  0  0  0  0  0
  141.6454   76.3623  219.3156 H   0  0  0  0  0  0  0  0  0  0  0  0
  141.4646   78.8367  219.2968 H   0  0  0  0  0  0  0  0  0  0  0  0
  140.0343   78.1609  220.0861 H   0  0  0  0  0  0  0  0  0  0  0  0
  142.1755   80.8066  220.5040 H   0  0  0  0  0  0  0  0  0  0  0  0
  142.7641   81.8602  222.6930 H   0  0  0  0  0  0  0  0  0  0  0  0
  142.4196   80.6100  224.8262 H   0  0  0  0  0  0  0  0  0  0  0  0
  141.4778   78.2888  224.7643 H   0  0  0  0  0  0  0  0  0  0  0  0
  140.9771   76.3639  223.4190 H   0  0  0  0  0  0  0  0  0  0  0  0
  139.6690   77.0130  222.3346 H   0  0  0  0  0  0  0  0  0  0  0  0
  142.2113   70.4134  220.4978 H   0  0  0  0  0  0  0  0  0  0  0  0
  142.0653   70.2196  218.6812 H   0  0  0  0  0  0  0  0  0  0  0  0
  1  2  2  0
  2  3  1  0
  3  4  2  0
  4  5  1  0
  5  6  2  0
  5  7  1  0
  7  8  1  0
  8  9  1  0
  9 10  1  0
 10 11  2  0
 11 12  1  0
 12 13  1  0
 13 14  1  0
 14 15  1  0
 15 16  1  0
 16 17  1  0
 17 18  1  0
 18 19  1  0
 19 20  1  0
 12 21  2  0
 21 22  1  0
 22 23  1  0
 23 24  1  0
 24 25  1  0
 25 26  1  0
 26 27  2  0
 27 28  1  0
 28 29  2  0
 29 30  1  0
 30 31  2  0
 31 32  1  0
 22 33  2  0
  9 34  1  0
  6  1  1  0
 33 10  1  0
 34  4  1  0
 20 16  1  0
 32 23  1  0
 31 26  1  0
  1 35  1  0
  2 36  1  0
  3 37  1  0
  6 38  1  0
  7 39  1  0
  7 40  1  0
  8 41  1  0
  8 42  1  0
  9 43  1  6
 13 44  1  0
 14 45  1  0
 14 46  1  0
 15 47  1  0
 15 48  1  0
 17 49  1  0
 17 50  1  0
 18 51  1  0
 18 52  1  0
 19 53  1  0
 19 54  1  0
 20 55  1  0
 20 56  1  0
 24 57  1  0
 24 58  1  0
 25 59  1  0
 25 60  1  0
 27 61  1  0
 28 62  1  0
 29 63  1  0
 30 64  1  0
 32 65  1  0
 32 66  1  0
 34 67  1  0
 34 68  1  0
M  END
>  <smiles>  (28) 
c1ccc2c(c1)CCC(c1nc(NCCN3CCCC3)nc(N3CCc4ccccc4C3)n1)C2

>  <score_type>  (28) 
oracle

>  <origin>  (28) 
autodockgpu

>  <m_score__min__energy>  (28) 
-10.43

>  <m_primary>  (28) 
energy

>  <rmsd>  (28) 
8.169416591700653

>  <m_score__min__rmsd>  (28) 
8.169416591700653

>  <meeko>  (28) 
{"free_energy": -9.99, "intermolecular_energy": -11.78, "internal_energy": -1.75, "cluster_size": 13, "cluster_id": 1, "rank_in_cluster": 8}

>  <energy>  (28) 
-9.96

>  <cluster_rmsd>  (28) 
1.6

>  <cluster>  (28) 
2

$$$$

     RDKit          3D

 68 73  0  0  0  0  0  0  0  0999 V2000
  140.1990   67.8510  226.8580 C   0  0  0  0  0  0  0  0  0  0  0  0
  141.0420   68.8810  227.2140 C   0  0  0  0  0  0  0  0  0  0  0  0
  141.0110   70.0690  226.5140 C   0  0  0  0  0  0  0  0  0  0  0  0
  140.1500   70.2680  225.4490 C   0  0  0  0  0  0  0  0  0  0  0  0
  139.3240   69.2380  225.1130 C   0  0  0  0  0  0  0  0  0  0  0  0
  139.3280   68.0220  225.7980 C   0  0  0  0  0  0  0  0  0  0  0  0
  138.3900   69.4610  223.9530 C   0  0  0  0  0  0  0  0  0  0  0  0
  139.1580   70.2380  222.9240 C   0  0  0  0  0  0  0  0  0  0  0  0
  139.5010   71.6150  223.4430 C   0  0  2  0  0  0  0  0  0  0  0  0
  140.4420   72.2390  222.4710 C   0  0  0  0  0  0  0  0  0  0  0  0
  141.3120   71.5400  221.7270 N   0  0  0  0  0  0  0  0  0  0  0  0
  142.1330   72.1410  220.8690 C   0  0  0  0  0  0  0  0  0  0  0  0
  143.0480   71.3710  220.1000 N   0  0  0  0  0  0  0  0  0  0  0  0
  142.6060   70.2790  219.2480 C   0  0  0  0  0  0  0  0  0  0  0  0
  143.5620   70.0360  218.1100 C   0  0  0  0  0  0  0  0  0  0  0  0
  144.5020   68.9810  218.3890 N   0  0  0  0  0  0  0  0  0  0  0  0
  143.9650   67.9120  219.2010 C   0  0  0  0  0  0  0  0  0  0  0  0
  145.2100   67.0220  219.3180 C   0  0  0  0  0  0  0  0  0  0  0  0
  146.2710   68.0750  219.5630 C   0  0  0  0  0  0  0  0  0  0  0  0
  145.6230   69.4090  219.1660 C   0  0  0  0  0  0  0  0  0  0  0  0
  142.0630   73.4930  220.7710 N   0  0  0  0  0  0  0  0  0  0  0  0
  141.2100   74.2420  221.4920 C   0  0  0  0  0  0  0  0  0  0  0  0
  141.1690   75.6570  221.3590 N   0  0  0  0  0  0  0  0  0  0  0  0
  141.7570   76.2820  220.1930 C   0  0  0  0  0  0  0  0  0  0  0  0
  141.0610   77.6090  219.9520 C   0  0  0  0  0  0  0  0  0  0  0  0
  141.3650   78.4410  221.1490 C   0  0  0  0  0  0  0  0  0  0  0  0
  141.8770   79.7160  221.0680 C   0  0  0  0  0  0  0  0  0  0  0  0
  142.1300   80.4210  222.2470 C   0  0  0  0  0  0  0  0  0  0  0  0
  141.8700   79.8430  223.4930 C   0  0  0  0  0  0  0  0  0  0  0  0
  141.3510   78.5490  223.5560 C   0  0  0  0  0  0  0  0  0  0  0  0
  141.1070   77.8660  222.3790 C   0  0  0  0  0  0  0  0  0  0  0  0
  140.5550   76.4860  222.3660 C   0  0  0  0  0  0  0  0  0  0  0  0
  140.4020   73.5830  222.3440 N   0  0  0  0  0  0  0  0  0  0  0  0
  140.2040   71.5760  224.7720 C   0  0  0  0  0  0  0  0  0  0  0  0
  140.2188   66.9010  227.4122 H   0  0  0  0  0  0  0  0  0  0  0  0
  141.7391   68.7560  228.0557 H   0  0  0  0  0  0  0  0  0  0  0  0
  141.6902   70.8817  226.8108 H   0  0  0  0  0  0  0  0  0  0  0  0
  138.6477   67.2111  225.4987 H   0  0  0  0  0  0  0  0  0  0  0  0
  138.0666   68.4959  223.5358 H   0  0  0  0  0  0  0  0  0  0  0  0
  137.4891   70.0069  224.2698 H   0  0  0  0  0  0  0  0  0  0  0  0
  140.0872   69.7003  222.6845 H   0  0  0  0  0  0  0  0  0  0  0  0
  138.5360   70.3438  222.0229 H   0  0  0  0  0  0  0  0  0  0  0  0
  138.5612   72.1737  223.5640 H   0  0  0  0  0  0  0  0  0  0  0  0
  144.0740   71.5730  220.1260 H   0  0  0  0  0  0  0  0  0  0  0  0
  142.5319   69.3631  219.8526 H   0  0  0  0  0  0  0  0  0  0  0  0
  141.6291   70.5513  218.8220 H   0  0  0  0  0  0  0  0  0  0  0  0
  142.9824   69.7635  217.2157 H   0  0  0  0  0  0  0  0  0  0  0  0
  144.1370   70.9610  217.9560 H   0  0  0  0  0  0  0  0  0  0  0  0
  143.6274   68.2744  220.1832 H   0  0  0  0  0  0  0  0  0  0  0  0
  143.0752   67.4152  218.7869 H   0  0  0  0  0  0  0  0  0  0  0  0
  145.1309   66.3197  220.1609 H   0  0  0  0  0  0  0  0  0  0  0  0
  145.3962   66.3730  218.4496 H   0  0  0  0  0  0  0  0  0  0  0  0
  146.5611   68.0891  220.6240 H   0  0  0  0  0  0  0  0  0  0  0  0
  147.1849   67.8765  218.9839 H   0  0  0  0  0  0  0  0  0  0  0  0
  145.3010   69.9753  220.0523 H   0  0  0  0  0  0  0  0  0  0  0  0
  146.3015   70.0861  218.6264 H   0  0  0  0  0  0  0  0  0  0  0  0
  142.8300   76.4522  220.3653 H   0  0  0  0  0  0  0  0  0  0  0  0
  141.6361   75.6295  219.3157 H   0  0  0  0  0  0  0  0  0  0  0  0
  141.4511   78.0879  219.0418 H   0  0  0  0  0  0  0  0  0  0  0  0
  139.9779   77.4815  219.8081 H   0  0  0  0  0  0  0  0  0  0  0  0
  142.0839   80.1731  220.0891 H   0  0  0  0  0  0  0  0  0  0  0  0
  142.5379   81.4412  222.1945 H   0  0  0  0  0  0  0  0  0  0  0  0
  142.0730   80.4040  224.4171 H   0  0  0  0  0  0  0  0  0  0  0  0
  141.1392   78.0794  224.5279 H   0  0  0  0  0  0  0  0  0  0  0  0
  140.7249   76.0284  223.3518 H   0  0  0  0  0  0  0  0  0  0  0  0
  139.4822   76.5565  222.1334 H   0  0  0  0  0  0  0  0  0  0  0  0
  141.2603   71.8369  224.6107 H   0  0  0  0  0  0  0  0  0  0  0  0
  139.6819   72.2905  225.4254 H   0  0  0  0  0  0  0  0  0  0  0  0
  1  2  2  0
  2  3  1  0
  3  4  2  0
  4  5  1  0
  5  6  2  0
  5  7  1  0
  7  8  1  0
  8  9  1  0
  9 10  1  0
 10 11  2  0
 11 12  1  0
 12 13  1  0
 13 14  1  0
 14 15  1  0
 15 16  1  0
 16 17  1  0
 17 18  1  0
 18 19  1  0
 19 20  1  0
 12 21  2  0
 21 22  1  0
 22 23  1  0
 23 24  1  0
 24 25  1  0
 25 26  1  0
 26 27  2  0
 27 28  1  0
 28 29  2  0
 29 30  1  0
 30 31  2  0
 31 32  1  0
 22 33  2  0
  9 34  1  0
  6  1  1  0
 33 10  1  0
 34  4  1  0
 20 16  1  0
 32 23  1  0
 31 26  1  0
  1 35  1  0
  2 36  1  0
  3 37  1  0
  6 38  1  0
  7 39  1  0
  7 40  1  0
  8 41  1  0
  8 42  1  0
  9 43  1  1
 13 44  1  0
 14 45  1  0
 14 46  1  0
 15 47  1  0
 15 48  1  0
 17 49  1  0
 17 50  1  0
 18 51  1  0
 18 52  1  0
 19 53  1  0
 19 54  1  0
 20 55  1  0
 20 56  1  0
 24 57  1  0
 24 58  1  0
 25 59  1  0
 25 60  1  0
 27 61  1  0
 28 62  1  0
 29 63  1  0
 30 64  1  0
 32 65  1  0
 32 66  1  0
 34 67  1  0
 34 68  1  0
M  END
>  <smiles>  (29) 
c1ccc2c(c1)CCC(c1nc(NCCN3CCCC3)nc(N3CCc4ccccc4C3)n1)C2

>  <score_type>  (29) 
oracle

>  <origin>  (29) 
autodockgpu

>  <m_score__min__energy>  (29) 
-10.43

>  <m_primary>  (29) 
energy

>  <rmsd>  (29) 
8.469462170728344

>  <m_score__min__rmsd>  (29) 
8.469462170728344

>  <meeko>  (29) 
{"free_energy": -9.73, "intermolecular_energy": -11.52, "internal_energy": -1.09, "cluster_size": 33, "cluster_id": 2, "rank_in_cluster": 27}

>  <energy>  (29) 
-9.96

>  <cluster_rmsd>  (29) 
0.95

>  <cluster>  (29) 
2

$$$$

     RDKit          3D

 68 73  0  0  0  0  0  0  0  0999 V2000
  140.2380   67.8310  226.9910 C   0  0  0  0  0  0  0  0  0  0  0  0
  141.1320   68.8450  227.2530 C   0  0  0  0  0  0  0  0  0  0  0  0
  141.0750   70.0190  226.5310 C   0  0  0  0  0  0  0  0  0  0  0  0
  140.1350   70.2170  225.5340 C   0  0  0  0  0  0  0  0  0  0  0  0
  139.2590   69.2020  225.2900 C   0  0  0  0  0  0  0  0  0  0  0  0
  139.2880   68.0020  226.0010 C   0  0  0  0  0  0  0  0  0  0  0  0
  138.2400   69.4260  224.2040 C   0  0  0  0  0  0  0  0  0  0  0  0
  138.9410   70.1600  223.0990 C   0  0  0  0  0  0  0  0  0  0  0  0
  139.3580   71.5390  223.5570 C   0  0  2  0  0  0  0  0  0  0  0  0
  140.2330   72.1170  222.4980 C   0  0  0  0  0  0  0  0  0  0  0  0
  140.9970   71.3770  221.6800 N   0  0  0  0  0  0  0  0  0  0  0  0
  141.7620   71.9380  220.7460 C   0  0  0  0  0  0  0  0  0  0  0  0
  142.5640   71.1250  219.9000 N   0  0  0  0  0  0  0  0  0  0  0  0
  143.1410   71.6360  218.6670 C   0  0  0  0  0  0  0  0  0  0  0  0
  144.6460   71.6670  218.7250 C   0  0  0  0  0  0  0  0  0  0  0  0
  145.1520   72.8350  219.4010 N   0  0  0  0  0  0  0  0  0  0  0  0
  145.4340   72.6280  220.8040 C   0  0  0  0  0  0  0  0  0  0  0  0
  145.9020   74.0390  221.1860 C   0  0  0  0  0  0  0  0  0  0  0  0
  144.8740   74.8720  220.4490 C   0  0  0  0  0  0  0  0  0  0  0  0
  144.2180   73.9170  219.4430 C   0  0  0  0  0  0  0  0  0  0  0  0
  141.7440   73.2910  220.6460 N   0  0  0  0  0  0  0  0  0  0  0  0
  140.9980   74.0800  221.4390 C   0  0  0  0  0  0  0  0  0  0  0  0
  141.0090   75.4950  221.3030 N   0  0  0  0  0  0  0  0  0  0  0  0
  141.5930   76.0940  220.1200 C   0  0  0  0  0  0  0  0  0  0  0  0
  140.9450   77.4470  219.8910 C   0  0  0  0  0  0  0  0  0  0  0  0
  141.3110   78.2690  221.0780 C   0  0  0  0  0  0  0  0  0  0  0  0
  141.8700   79.5220  220.9800 C   0  0  0  0  0  0  0  0  0  0  0  0
  142.1800   80.2190  222.1500 C   0  0  0  0  0  0  0  0  0  0  0  0
  141.9270   79.6550  223.4040 C   0  0  0  0  0  0  0  0  0  0  0  0
  141.3600   78.3840  223.4840 C   0  0  0  0  0  0  0  0  0  0  0  0
  141.0600   77.7070  222.3160 C   0  0  0  0  0  0  0  0  0  0  0  0
  140.4530   76.3500  222.3220 C   0  0  0  0  0  0  0  0  0  0  0  0
  140.2430   73.4610  222.3670 N   0  0  0  0  0  0  0  0  0  0  0  0
  140.1660   71.5090  224.8250 C   0  0  0  0  0  0  0  0  0  0  0  0
  140.2793   66.8931  227.5643 H   0  0  0  0  0  0  0  0  0  0  0  0
  141.8919   68.7188  228.0383 H   0  0  0  0  0  0  0  0  0  0  0  0
  141.7959   70.8195  226.7534 H   0  0  0  0  0  0  0  0  0  0  0  0
  138.5654   67.2033  225.7772 H   0  0  0  0  0  0  0  0  0  0  0  0
  137.8595   68.4615  223.8366 H   0  0  0  0  0  0  0  0  0  0  0  0
  137.3820   70.0027  224.5797 H   0  0  0  0  0  0  0  0  0  0  0  0
  139.8346   69.5933  222.7986 H   0  0  0  0  0  0  0  0  0  0  0  0
  138.2514   70.2624  222.2481 H   0  0  0  0  0  0  0  0  0  0  0  0
  138.4451   72.1246  223.7403 H   0  0  0  0  0  0  0  0  0  0  0  0
  142.7640   70.1280  220.1450 H   0  0  0  0  0  0  0  0  0  0  0  0
  142.8300   70.9892  217.8334 H   0  0  0  0  0  0  0  0  0  0  0  0
  142.7829   72.6660  218.5228 H   0  0  0  0  0  0  0  0  0  0  0  0
  144.9962   70.7716  219.2594 H   0  0  0  0  0  0  0  0  0  0  0  0
  145.0182   71.6943  217.6902 H   0  0  0  0  0  0  0  0  0  0  0  0
  144.5345   72.3299  221.3626 H   0  0  0  0  0  0  0  0  0  0  0  0
  146.1529   71.8242  221.0209 H   0  0  0  0  0  0  0  0  0  0  0  0
  145.8559   74.2031  222.2727 H   0  0  0  0  0  0  0  0  0  0  0  0
  146.9476   74.2634  220.9286 H   0  0  0  0  0  0  0  0  0  0  0  0
  144.1239   75.2661  221.1505 H   0  0  0  0  0  0  0  0  0  0  0  0
  145.3324   75.7386  219.9501 H   0  0  0  0  0  0  0  0  0  0  0  0
  143.2326   73.5799  219.7971 H   0  0  0  0  0  0  0  0  0  0  0  0
  144.0265   74.3736  218.4607 H   0  0  0  0  0  0  0  0  0  0  0  0
  142.6758   76.2218  220.2656 H   0  0  0  0  0  0  0  0  0  0  0  0
  141.4244   75.4447  219.2482 H   0  0  0  0  0  0  0  0  0  0  0  0
  141.3319   77.9077  218.9701 H   0  0  0  0  0  0  0  0  0  0  0  0
  139.8546   77.3628  219.7732 H   0  0  0  0  0  0  0  0  0  0  0  0
  142.0699   79.9685  219.9948 H   0  0  0  0  0  0  0  0  0  0  0  0
  142.6276   81.2216  222.0841 H   0  0  0  0  0  0  0  0  0  0  0  0
  142.1736   80.2102  224.3210 H   0  0  0  0  0  0  0  0  0  0  0  0
  141.1541   77.9259  224.4626 H   0  0  0  0  0  0  0  0  0  0  0  0
  140.6289   75.8886  223.3050 H   0  0  0  0  0  0  0  0  0  0  0  0
  139.3783   76.4623  222.1161 H   0  0  0  0  0  0  0  0  0  0  0  0
  141.2118   71.7383  224.5725 H   0  0  0  0  0  0  0  0  0  0  0  0
  139.7170   72.2506  225.5021 H   0  0  0  0  0  0  0  0  0  0  0  0
  1  2  2  0
  2  3  1  0
  3  4  2  0
  4  5  1  0
  5  6  2  0
  5  7  1  0
  7  8  1  0
  8  9  1  0
  9 10  1  0
 10 11  2  0
 11 12  1  0
 12 13  1  0
 13 14  1  0
 14 15  1  0
 15 16  1  0
 16 17  1  0
 17 18  1  0
 18 19  1  0
 19 20  1  0
 12 21  2  0
 21 22  1  0
 22 23  1  0
 23 24  1  0
 24 25  1  0
 25 26  1  0
 26 27  2  0
 27 28  1  0
 28 29  2  0
 29 30  1  0
 30 31  2  0
 31 32  1  0
 22 33  2  0
  9 34  1  0
  6  1  1  0
 33 10  1  0
 34  4  1  0
 20 16  1  0
 32 23  1  0
 31 26  1  0
  1 35  1  0
  2 36  1  0
  3 37  1  0
  6 38  1  0
  7 39  1  0
  7 40  1  0
  8 41  1  0
  8 42  1  0
  9 43  1  1
 13 44  1  0
 14 45  1  0
 14 46  1  0
 15 47  1  0
 15 48  1  0
 17 49  1  0
 17 50  1  0
 18 51  1  0
 18 52  1  0
 19 53  1  0
 19 54  1  0
 20 55  1  0
 20 56  1  0
 24 57  1  0
 24 58  1  0
 25 59  1  0
 25 60  1  0
 27 61  1  0
 28 62  1  0
 29 63  1  0
 30 64  1  0
 32 65  1  0
 32 66  1  0
 34 67  1  0
 34 68  1  0
M  END
>  <smiles>  (30) 
c1ccc2c(c1)CCC(c1nc(NCCN3CCCC3)nc(N3CCc4ccccc4C3)n1)C2

>  <score_type>  (30) 
oracle

>  <origin>  (30) 
autodockgpu

>  <m_score__min__energy>  (30) 
-10.43

>  <m_primary>  (30) 
energy

>  <rmsd>  (30) 
5.7414336086136375

>  <m_score__min__rmsd>  (30) 
5.7414336086136375

>  <meeko>  (30) 
{"free_energy": -9.96, "intermolecular_energy": -11.75, "internal_energy": -1.64, "cluster_size": 33, "cluster_id": 2, "rank_in_cluster": 15}

>  <energy>  (30) 
-9.95

>  <cluster_rmsd>  (30) 
1.01

>  <cluster>  (30) 
2

$$$$

     RDKit          3D

 68 73  0  0  0  0  0  0  0  0999 V2000
  145.9440   68.1200  219.5920 C   0  0  0  0  0  0  0  0  0  0  0  0
  144.6260   67.7470  219.7350 C   0  0  0  0  0  0  0  0  0  0  0  0
  143.6270   68.6900  219.6180 C   0  0  0  0  0  0  0  0  0  0  0  0
  143.9050   70.0210  219.3580 C   0  0  0  0  0  0  0  0  0  0  0  0
  145.2150   70.3700  219.2200 C   0  0  0  0  0  0  0  0  0  0  0  0
  146.2520   69.4430  219.3320 C   0  0  0  0  0  0  0  0  0  0  0  0
  145.5110   71.8190  218.9380 C   0  0  0  0  0  0  0  0  0  0  0  0
  144.5520   72.6240  219.7670 C   0  0  0  0  0  0  0  0  0  0  0  0
  143.1310   72.4000  219.3050 C   0  0  2  0  0  0  0  0  0  0  0  0
  142.2290   73.0450  220.3010 C   0  0  0  0  0  0  0  0  0  0  0  0
  141.4490   72.3590  221.1490 N   0  0  0  0  0  0  0  0  0  0  0  0
  140.6600   72.9780  222.0240 C   0  0  0  0  0  0  0  0  0  0  0  0
  139.8400   72.2210  222.9050 N   0  0  0  0  0  0  0  0  0  0  0  0
  140.3340   71.0350  223.5860 C   0  0  0  0  0  0  0  0  0  0  0  0
  139.4100   70.6000  224.6920 C   0  0  0  0  0  0  0  0  0  0  0  0
  139.8000   71.1190  225.9780 N   0  0  0  0  0  0  0  0  0  0  0  0
  141.0770   71.7950  225.9790 C   0  0  0  0  0  0  0  0  0  0  0  0
  141.1740   72.1680  227.4650 C   0  0  0  0  0  0  0  0  0  0  0  0
  140.6840   70.8820  228.0970 C   0  0  0  0  0  0  0  0  0  0  0  0
  140.0020   70.1030  226.9640 C   0  0  0  0  0  0  0  0  0  0  0  0
  140.6700   74.3350  222.0310 N   0  0  0  0  0  0  0  0  0  0  0  0
  141.4320   75.0710  221.2040 C   0  0  0  0  0  0  0  0  0  0  0  0
  141.4130   76.4930  221.2420 N   0  0  0  0  0  0  0  0  0  0  0  0
  142.0340   77.2440  220.1710 C   0  0  0  0  0  0  0  0  0  0  0  0
  141.3610   78.6020  220.0790 C   0  0  0  0  0  0  0  0  0  0  0  0
  141.6520   79.2780  221.3730 C   0  0  0  0  0  0  0  0  0  0  0  0
  142.1820   80.5450  221.4570 C   0  0  0  0  0  0  0  0  0  0  0  0
  142.4200   81.0990  222.7160 C   0  0  0  0  0  0  0  0  0  0  0  0
  142.1260   80.3800  223.8780 C   0  0  0  0  0  0  0  0  0  0  0  0
  141.5890   79.0960  223.7750 C   0  0  0  0  0  0  0  0  0  0  0  0
  141.3600   78.5630  222.5200 C   0  0  0  0  0  0  0  0  0  0  0  0
  140.7890   77.2040  222.3300 C   0  0  0  0  0  0  0  0  0  0  0  0
  142.2110   74.3940  220.3390 N   0  0  0  0  0  0  0  0  0  0  0  0
  142.7600   70.9430  219.2560 C   0  0  0  0  0  0  0  0  0  0  0  0
  146.7451   67.3718  219.6838 H   0  0  0  0  0  0  0  0  0  0  0  0
  144.3705   66.6974  219.9424 H   0  0  0  0  0  0  0  0  0  0  0  0
  142.5793   68.3758  219.7346 H   0  0  0  0  0  0  0  0  0  0  0  0
  147.2989   69.7598  219.2152 H   0  0  0  0  0  0  0  0  0  0  0  0
  146.5475   72.0561  219.2199 H   0  0  0  0  0  0  0  0  0  0  0  0
  145.3960   72.0456  217.8678 H   0  0  0  0  0  0  0  0  0  0  0  0
  144.6417   72.3202  220.8204 H   0  0  0  0  0  0  0  0  0  0  0  0
  144.7967   73.6907  219.6562 H   0  0  0  0  0  0  0  0  0  0  0  0
  143.0355   72.8172  218.2917 H   0  0  0  0  0  0  0  0  0  0  0  0
  138.8490   72.5020  223.0900 H   0  0  0  0  0  0  0  0  0  0  0  0
  140.4253   70.2173  222.8560 H   0  0  0  0  0  0  0  0  0  0  0  0
  141.3100   71.2780  224.0314 H   0  0  0  0  0  0  0  0  0  0  0  0
  138.3945   70.9550  224.4624 H   0  0  0  0  0  0  0  0  0  0  0  0
  139.4537   69.5024  224.7493 H   0  0  0  0  0  0  0  0  0  0  0  0
  141.8942   71.1262  225.6709 H   0  0  0  0  0  0  0  0  0  0  0  0
  141.1560   72.6413  225.2808 H   0  0  0  0  0  0  0  0  0  0  0  0
  142.2081   72.3988  227.7604 H   0  0  0  0  0  0  0  0  0  0  0  0
  140.6099   73.0675  227.7526 H   0  0  0  0  0  0  0  0  0  0  0  0
  141.5289   70.3074  228.5044 H   0  0  0  0  0  0  0  0  0  0  0  0
  139.9951   71.0743  228.9327 H   0  0  0  0  0  0  0  0  0  0  0  0
  140.6522   69.3015  226.5834 H   0  0  0  0  0  0  0  0  0  0  0  0
  139.0756   69.5960  227.2720 H   0  0  0  0  0  0  0  0  0  0  0  0
  143.1054   77.3749  220.3828 H   0  0  0  0  0  0  0  0  0  0  0  0
  141.9227   76.7039  219.2192 H   0  0  0  0  0  0  0  0  0  0  0  0
  141.7762   79.1809  219.2408 H   0  0  0  0  0  0  0  0  0  0  0  0
  140.2795   78.5104  219.9003 H   0  0  0  0  0  0  0  0  0  0  0  0
  142.4150   81.1135  220.5446 H   0  0  0  0  0  0  0  0  0  0  0  0
  142.8431   82.1114  222.7944 H   0  0  0  0  0  0  0  0  0  0  0  0
  142.3165   80.8230  224.8666 H   0  0  0  0  0  0  0  0  0  0  0  0
  141.3514   78.5164  224.6792 H   0  0  0  0  0  0  0  0  0  0  0  0
  140.9317   76.6282  223.2563 H   0  0  0  0  0  0  0  0  0  0  0  0
  139.7223   77.3192  222.0874 H   0  0  0  0  0  0  0  0  0  0  0  0
  142.0743   70.7341  220.0903 H   0  0  0  0  0  0  0  0  0  0  0  0
  142.3019   70.7680  218.2714 H   0  0  0  0  0  0  0  0  0  0  0  0
  1  2  2  0
  2  3  1  0
  3  4  2  0
  4  5  1  0
  5  6  2  0
  5  7  1  0
  7  8  1  0
  8  9  1  0
  9 10  1  0
 10 11  2  0
 11 12  1  0
 12 13  1  0
 13 14  1  0
 14 15  1  0
 15 16  1  0
 16 17  1  0
 17 18  1  0
 18 19  1  0
 19 20  1  0
 12 21  2  0
 21 22  1  0
 22 23  1  0
 23 24  1  0
 24 25  1  0
 25 26  1  0
 26 27  2  0
 27 28  1  0
 28 29  2  0
 29 30  1  0
 30 31  2  0
 31 32  1  0
 22 33  2  0
  9 34  1  0
  6  1  1  0
 33 10  1  0
 34  4  1  0
 20 16  1  0
 32 23  1  0
 31 26  1  0
  1 35  1  0
  2 36  1  0
  3 37  1  0
  6 38  1  0
  7 39  1  0
  7 40  1  0
  8 41  1  0
  8 42  1  0
  9 43  1  6
 13 44  1  0
 14 45  1  0
 14 46  1  0
 15 47  1  0
 15 48  1  0
 17 49  1  0
 17 50  1  0
 18 51  1  0
 18 52  1  0
 19 53  1  0
 19 54  1  0
 20 55  1  0
 20 56  1  0
 24 57  1  0
 24 58  1  0
 25 59  1  0
 25 60  1  0
 27 61  1  0
 28 62  1  0
 29 63  1  0
 30 64  1  0
 32 65  1  0
 32 66  1  0
 34 67  1  0
 34 68  1  0
M  END
>  <smiles>  (31) 
c1ccc2c(c1)CCC(c1nc(NCCN3CCCC3)nc(N3CCc4ccccc4C3)n1)C2

>  <score_type>  (31) 
oracle

>  <origin>  (31) 
autodockgpu

>  <m_score__min__energy>  (31) 
-10.43

>  <m_primary>  (31) 
energy

>  <rmsd>  (31) 
8.242872880228722

>  <m_score__min__rmsd>  (31) 
8.242872880228722

>  <meeko>  (31) 
{"free_energy": -10.4, "intermolecular_energy": -12.19, "internal_energy": -1.11, "cluster_size": 13, "cluster_id": 1, "rank_in_cluster": 3}

>  <energy>  (31) 
-9.9

>  <cluster_rmsd>  (31) 
1.36

>  <cluster>  (31) 
2

$$$$

     RDKit          3D

 68 73  0  0  0  0  0  0  0  0999 V2000
  145.4370   67.6770  219.4680 C   0  0  0  0  0  0  0  0  0  0  0  0
  144.0760   67.4660  219.4320 C   0  0  0  0  0  0  0  0  0  0  0  0
  143.2150   68.5380  219.3330 C   0  0  0  0  0  0  0  0  0  0  0  0
  143.6760   69.8420  219.2680 C   0  0  0  0  0  0  0  0  0  0  0  0
  145.0260   70.0300  219.3050 C   0  0  0  0  0  0  0  0  0  0  0  0
  145.9260   68.9680  219.4040 C   0  0  0  0  0  0  0  0  0  0  0  0
  145.5200   71.4500  219.2340 C   0  0  0  0  0  0  0  0  0  0  0  0
  144.5760   72.2780  220.0560 C   0  0  0  0  0  0  0  0  0  0  0  0
  143.1990   72.2930  219.4310 C   0  0  2  0  0  0  0  0  0  0  0  0
  142.2730   72.9370  220.4040 C   0  0  0  0  0  0  0  0  0  0  0  0
  141.4770   72.2500  221.2380 N   0  0  0  0  0  0  0  0  0  0  0  0
  140.6660   72.8680  222.0920 C   0  0  0  0  0  0  0  0  0  0  0  0
  139.8310   72.1110  222.9580 N   0  0  0  0  0  0  0  0  0  0  0  0
  140.3140   70.9260  223.6490 C   0  0  0  0  0  0  0  0  0  0  0  0
  139.4230   70.5510  224.8040 C   0  0  0  0  0  0  0  0  0  0  0  0
  139.8790   71.0960  226.0570 N   0  0  0  0  0  0  0  0  0  0  0  0
  141.0970   71.8680  225.9570 C   0  0  0  0  0  0  0  0  0  0  0  0
  141.2900   72.2450  227.4320 C   0  0  0  0  0  0  0  0  0  0  0  0
  140.9530   70.9230  228.0920 C   0  0  0  0  0  0  0  0  0  0  0  0
  140.2390   70.0970  227.0140 C   0  0  0  0  0  0  0  0  0  0  0  0
  140.6690   74.2260  222.0940 N   0  0  0  0  0  0  0  0  0  0  0  0
  141.4450   74.9630  221.2810 C   0  0  0  0  0  0  0  0  0  0  0  0
  141.4180   76.3840  221.3130 N   0  0  0  0  0  0  0  0  0  0  0  0
  141.9810   77.1350  220.2090 C   0  0  0  0  0  0  0  0  0  0  0  0
  141.2950   78.4870  220.1430 C   0  0  0  0  0  0  0  0  0  0  0  0
  141.6440   79.1720  221.4190 C   0  0  0  0  0  0  0  0  0  0  0  0
  142.1690   80.4430  221.4700 C   0  0  0  0  0  0  0  0  0  0  0  0
  142.4640   81.0050  222.7140 C   0  0  0  0  0  0  0  0  0  0  0  0
  142.2320   80.2900  223.8920 C   0  0  0  0  0  0  0  0  0  0  0  0
  141.6990   79.0020  223.8210 C   0  0  0  0  0  0  0  0  0  0  0  0
  141.4130   78.4610  222.5820 C   0  0  0  0  0  0  0  0  0  0  0  0
  140.8440   77.0970  222.4270 C   0  0  0  0  0  0  0  0  0  0  0  0
  142.2470   74.2870  220.4360 N   0  0  0  0  0  0  0  0  0  0  0  0
  142.6670   70.9110  219.1660 C   0  0  0  0  0  0  0  0  0  0  0  0
  146.1285   66.8252  219.5470 H   0  0  0  0  0  0  0  0  0  0  0  0
  143.6765   66.4424  219.4823 H   0  0  0  0  0  0  0  0  0  0  0  0
  142.1312   68.3522  219.3048 H   0  0  0  0  0  0  0  0  0  0  0  0
  147.0095   69.1559  219.4307 H   0  0  0  0  0  0  0  0  0  0  0  0
  146.5386   71.5177  219.6438 H   0  0  0  0  0  0  0  0  0  0  0  0
  145.5536   71.8051  218.1934 H   0  0  0  0  0  0  0  0  0  0  0  0
  144.5091   71.8523  221.0681 H   0  0  0  0  0  0  0  0  0  0  0  0
  144.9562   73.3092  220.1015 H   0  0  0  0  0  0  0  0  0  0  0  0
  143.2687   72.8275  218.4721 H   0  0  0  0  0  0  0  0  0  0  0  0
  138.8360   72.3900  223.1240 H   0  0  0  0  0  0  0  0  0  0  0  0
  140.3471   70.0875  222.9377 H   0  0  0  0  0  0  0  0  0  0  0  0
  141.3156   71.1461  224.0468 H   0  0  0  0  0  0  0  0  0  0  0  0
  138.4095   70.9288  224.6038 H   0  0  0  0  0  0  0  0  0  0  0  0
  139.4380   69.4547  224.8932 H   0  0  0  0  0  0  0  0  0  0  0  0
  141.9339   71.2641  225.5764 H   0  0  0  0  0  0  0  0  0  0  0  0
  141.0523   72.7191  225.2615 H   0  0  0  0  0  0  0  0  0  0  0  0
  142.3249   72.5532  227.6419 H   0  0  0  0  0  0  0  0  0  0  0  0
  140.6861   73.0987  227.7733 H   0  0  0  0  0  0  0  0  0  0  0  0
  141.8702   70.4133  228.4222 H   0  0  0  0  0  0  0  0  0  0  0  0
  140.3241   71.0607  228.9839 H   0  0  0  0  0  0  0  0  0  0  0  0
  140.9134   69.3477  226.5738 H   0  0  0  0  0  0  0  0  0  0  0  0
  139.3826   69.5209  227.3943 H   0  0  0  0  0  0  0  0  0  0  0  0
  143.0604   77.2746  220.3681 H   0  0  0  0  0  0  0  0  0  0  0  0
  141.8273   76.5893  219.2663 H   0  0  0  0  0  0  0  0  0  0  0  0
  141.6649   79.0644  219.2829 H   0  0  0  0  0  0  0  0  0  0  0  0
  140.2068   78.3872  220.0173 H   0  0  0  0  0  0  0  0  0  0  0  0
  142.3536   81.0081  220.5445 H   0  0  0  0  0  0  0  0  0  0  0  0
  142.8832   82.0206  222.7671 H   0  0  0  0  0  0  0  0  0  0  0  0
  142.4677   80.7390  224.8681 H   0  0  0  0  0  0  0  0  0  0  0  0
  141.5093   78.4256  224.7385 H   0  0  0  0  0  0  0  0  0  0  0  0
  141.0369   76.5273  223.3480 H   0  0  0  0  0  0  0  0  0  0  0  0
  139.7659   77.2036  222.2366 H   0  0  0  0  0  0  0  0  0  0  0  0
  141.8702   70.7031  219.8953 H   0  0  0  0  0  0  0  0  0  0  0  0
  142.3076   70.9062  218.1264 H   0  0  0  0  0  0  0  0  0  0  0  0
  1  2  2  0
  2  3  1  0
  3  4  2  0
  4  5  1  0
  5  6  2  0
  5  7  1  0
  7  8  1  0
  8  9  1  0
  9 10  1  0
 10 11  2  0
 11 12  1  0
 12 13  1  0
 13 14  1  0
 14 15  1  0
 15 16  1  0
 16 17  1  0
 17 18  1  0
 18 19  1  0
 19 20  1  0
 12 21  2  0
 21 22  1  0
 22 23  1  0
 23 24  1  0
 24 25  1  0
 25 26  1  0
 26 27  2  0
 27 28  1  0
 28 29  2  0
 29 30  1  0
 30 31  2  0
 31 32  1  0
 22 33  2  0
  9 34  1  0
  6  1  1  0
 33 10  1  0
 34  4  1  0
 20 16  1  0
 32 23  1  0
 31 26  1  0
  1 35  1  0
  2 36  1  0
  3 37  1  0
  6 38  1  0
  7 39  1  0
  7 40  1  0
  8 41  1  0
  8 42  1  0
  9 43  1  6
 13 44  1  0
 14 45  1  0
 14 46  1  0
 15 47  1  0
 15 48  1  0
 17 49  1  0
 17 50  1  0
 18 51  1  0
 18 52  1  0
 19 53  1  0
 19 54  1  0
 20 55  1  0
 20 56  1  0
 24 57  1  0
 24 58  1  0
 25 59  1  0
 25 60  1  0
 27 61  1  0
 28 62  1  0
 29 63  1  0
 30 64  1  0
 32 65  1  0
 32 66  1  0
 34 67  1  0
 34 68  1  0
M  END
>  <smiles>  (32) 
c1ccc2c(c1)CCC(c1nc(NCCN3CCCC3)nc(N3CCc4ccccc4C3)n1)C2

>  <score_type>  (32) 
oracle

>  <origin>  (32) 
autodockgpu

>  <m_score__min__energy>  (32) 
-10.43

>  <m_primary>  (32) 
energy

>  <rmsd>  (32) 
8.242497845952345

>  <m_score__min__rmsd>  (32) 
8.242497845952345

>  <meeko>  (32) 
{"free_energy": -10.25, "intermolecular_energy": -12.04, "internal_energy": -1.13, "cluster_size": 13, "cluster_id": 1, "rank_in_cluster": 4}

>  <energy>  (32) 
-9.88

>  <cluster_rmsd>  (32) 
1.52

>  <cluster>  (32) 
2

$$$$

     RDKit          3D

 68 73  0  0  0  0  0  0  0  0999 V2000
  140.2880   67.7740  226.7990 C   0  0  0  0  0  0  0  0  0  0  0  0
  141.0780   68.8260  227.2080 C   0  0  0  0  0  0  0  0  0  0  0  0
  141.0490   70.0180  226.5160 C   0  0  0  0  0  0  0  0  0  0  0  0
  140.2420   70.2000  225.4060 C   0  0  0  0  0  0  0  0  0  0  0  0
  139.4680   69.1480  225.0170 C   0  0  0  0  0  0  0  0  0  0  0  0
  139.4710   67.9270  225.6940 C   0  0  0  0  0  0  0  0  0  0  0  0
  138.5930   69.3520  223.8090 C   0  0  0  0  0  0  0  0  0  0  0  0
  139.3920   70.1610  222.8300 C   0  0  0  0  0  0  0  0  0  0  0  0
  139.6630   71.5440  223.3770 C   0  0  2  0  0  0  0  0  0  0  0  0
  140.6360   72.2040  222.4620 C   0  0  0  0  0  0  0  0  0  0  0  0
  141.5870   71.5420  221.7860 N   0  0  0  0  0  0  0  0  0  0  0  0
  142.4340   72.1740  220.9780 C   0  0  0  0  0  0  0  0  0  0  0  0
  143.4340   71.4430  220.2800 N   0  0  0  0  0  0  0  0  0  0  0  0
  144.0080   71.9230  219.0340 C   0  0  0  0  0  0  0  0  0  0  0  0
  145.0540   70.9810  218.5000 C   0  0  0  0  0  0  0  0  0  0  0  0
  145.0590   69.7120  219.1820 N   0  0  0  0  0  0  0  0  0  0  0  0
  146.3150   69.0010  219.0960 C   0  0  0  0  0  0  0  0  0  0  0  0
  145.9490   67.7310  219.8760 C   0  0  0  0  0  0  0  0  0  0  0  0
  144.5680   67.4610  219.3170 C   0  0  0  0  0  0  0  0  0  0  0  0
  144.1440   68.7650  218.6260 C   0  0  0  0  0  0  0  0  0  0  0  0
  142.3060   73.5200  220.8590 N   0  0  0  0  0  0  0  0  0  0  0  0
  141.3720   74.2330  221.5130 C   0  0  0  0  0  0  0  0  0  0  0  0
  141.2720   75.6430  221.3610 N   0  0  0  0  0  0  0  0  0  0  0  0
  141.8170   76.2740  220.1760 C   0  0  0  0  0  0  0  0  0  0  0  0
  141.0650   77.5690  219.9280 C   0  0  0  0  0  0  0  0  0  0  0  0
  141.3540   78.4290  221.1090 C   0  0  0  0  0  0  0  0  0  0  0  0
  141.8130   79.7230  221.0020 C   0  0  0  0  0  0  0  0  0  0  0  0
  142.0550   80.4540  222.1670 C   0  0  0  0  0  0  0  0  0  0  0  0
  141.8370   79.8840  223.4240 C   0  0  0  0  0  0  0  0  0  0  0  0
  141.3720   78.5720  223.5140 C   0  0  0  0  0  0  0  0  0  0  0  0
  141.1370   77.8620  222.3510 C   0  0  0  0  0  0  0  0  0  0  0  0
  140.6410   76.4620  222.3660 C   0  0  0  0  0  0  0  0  0  0  0  0
  140.5410   73.5430  222.3170 N   0  0  0  0  0  0  0  0  0  0  0  0
  140.2930   71.5150  224.7420 C   0  0  0  0  0  0  0  0  0  0  0  0
  140.3070   66.8204  227.3469 H   0  0  0  0  0  0  0  0  0  0  0  0
  141.7314   68.7149  228.0859 H   0  0  0  0  0  0  0  0  0  0  0  0
  141.6854   70.8484  226.8556 H   0  0  0  0  0  0  0  0  0  0  0  0
  138.8326   67.0986  225.3532 H   0  0  0  0  0  0  0  0  0  0  0  0
  138.3234   68.3811  223.3678 H   0  0  0  0  0  0  0  0  0  0  0  0
  137.6592   69.8669  224.0790 H   0  0  0  0  0  0  0  0  0  0  0  0
  140.3493   69.6541  222.6387 H   0  0  0  0  0  0  0  0  0  0  0  0
  138.8177   70.2556  221.8966 H   0  0  0  0  0  0  0  0  0  0  0  0
  138.7013   72.0730  223.4505 H   0  0  0  0  0  0  0  0  0  0  0  0
  143.7880   70.5310  220.6500 H   0  0  0  0  0  0  0  0  0  0  0  0
  143.2058   72.0239  218.2881 H   0  0  0  0  0  0  0  0  0  0  0  0
  144.4896   72.8922  219.2307 H   0  0  0  0  0  0  0  0  0  0  0  0
  144.8576   70.8058  217.4319 H   0  0  0  0  0  0  0  0  0  0  0  0
  146.0363   71.4490  218.6614 H   0  0  0  0  0  0  0  0  0  0  0  0
  146.5880   68.7770  218.0542 H   0  0  0  0  0  0  0  0  0  0  0  0
  147.1876   69.5489  219.4813 H   0  0  0  0  0  0  0  0  0  0  0  0
  146.6441   66.9061  219.6605 H   0  0  0  0  0  0  0  0  0  0  0  0
  145.9915   67.8337  220.9704 H   0  0  0  0  0  0  0  0  0  0  0  0
  144.6015   66.6347  218.5917 H   0  0  0  0  0  0  0  0  0  0  0  0
  143.8588   67.1669  220.1047 H   0  0  0  0  0  0  0  0  0  0  0  0
  144.2583   68.6934  217.5343 H   0  0  0  0  0  0  0  0  0  0  0  0
  143.0873   69.0259  218.7850 H   0  0  0  0  0  0  0  0  0  0  0  0
  142.8850   76.4889  220.3284 H   0  0  0  0  0  0  0  0  0  0  0  0
  141.7085   75.6045  219.3100 H   0  0  0  0  0  0  0  0  0  0  0  0
  141.4218   78.0502  219.0054 H   0  0  0  0  0  0  0  0  0  0  0  0
  139.9858   77.3968  219.8027 H   0  0  0  0  0  0  0  0  0  0  0  0
  141.9864   80.1740  220.0138 H   0  0  0  0  0  0  0  0  0  0  0  0
  142.4209   81.4888  222.0944 H   0  0  0  0  0  0  0  0  0  0  0  0
  142.0309   80.4663  224.3369 H   0  0  0  0  0  0  0  0  0  0  0  0
  141.1948   78.1089  224.4959 H   0  0  0  0  0  0  0  0  0  0  0  0
  140.8443   76.0261  223.3553 H   0  0  0  0  0  0  0  0  0  0  0  0
  139.5628   76.4865  222.1493 H   0  0  0  0  0  0  0  0  0  0  0  0
  141.3481   71.8091  224.6407 H   0  0  0  0  0  0  0  0  0  0  0  0
  139.7144   72.2079  225.3707 H   0  0  0  0  0  0  0  0  0  0  0  0
  1  2  2  0
  2  3  1  0
  3  4  2  0
  4  5  1  0
  5  6  2  0
  5  7  1  0
  7  8  1  0
  8  9  1  0
  9 10  1  0
 10 11  2  0
 11 12  1  0
 12 13  1  0
 13 14  1  0
 14 15  1  0
 15 16  1  0
 16 17  1  0
 17 18  1  0
 18 19  1  0
 19 20  1  0
 12 21  2  0
 21 22  1  0
 22 23  1  0
 23 24  1  0
 24 25  1  0
 25 26  1  0
 26 27  2  0
 27 28  1  0
 28 29  2  0
 29 30  1  0
 30 31  2  0
 31 32  1  0
 22 33  2  0
  9 34  1  0
  6  1  1  0
 33 10  1  0
 34  4  1  0
 20 16  1  0
 32 23  1  0
 31 26  1  0
  1 35  1  0
  2 36  1  0
  3 37  1  0
  6 38  1  0
  7 39  1  0
  7 40  1  0
  8 41  1  0
  8 42  1  0
  9 43  1  1
 13 44  1  0
 14 45  1  0
 14 46  1  0
 15 47  1  0
 15 48  1  0
 17 49  1  0
 17 50  1  0
 18 51  1  0
 18 52  1  0
 19 53  1  0
 19 54  1  0
 20 55  1  0
 20 56  1  0
 24 57  1  0
 24 58  1  0
 25 59  1  0
 25 60  1  0
 27 61  1  0
 28 62  1  0
 29 63  1  0
 30 64  1  0
 32 65  1  0
 32 66  1  0
 34 67  1  0
 34 68  1  0
M  END
>  <smiles>  (33) 
c1ccc2c(c1)CCC(c1nc(NCCN3CCCC3)nc(N3CCc4ccccc4C3)n1)C2

>  <score_type>  (33) 
oracle

>  <origin>  (33) 
autodockgpu

>  <m_score__min__energy>  (33) 
-10.43

>  <m_primary>  (33) 
energy

>  <rmsd>  (33) 
8.353370181462543

>  <m_score__min__rmsd>  (33) 
8.353370181462543

>  <meeko>  (33) 
{"free_energy": -9.98, "intermolecular_energy": -11.77, "internal_energy": -1.76, "cluster_size": 33, "cluster_id": 2, "rank_in_cluster": 13}

>  <energy>  (33) 
-9.86

>  <cluster_rmsd>  (33) 
1.0

>  <cluster>  (33) 
2

$$$$

     RDKit          3D

 68 73  0  0  0  0  0  0  0  0999 V2000
  140.2100   67.7950  226.8220 C   0  0  0  0  0  0  0  0  0  0  0  0
  140.9490   68.8700  227.2640 C   0  0  0  0  0  0  0  0  0  0  0  0
  140.9320   70.0550  226.5580 C   0  0  0  0  0  0  0  0  0  0  0  0
  140.1860   70.2050  225.4010 C   0  0  0  0  0  0  0  0  0  0  0  0
  139.4620   69.1300  224.9800 C   0  0  0  0  0  0  0  0  0  0  0  0
  139.4560   67.9170  225.6700 C   0  0  0  0  0  0  0  0  0  0  0  0
  138.6540   69.3010  223.7210 C   0  0  0  0  0  0  0  0  0  0  0  0
  139.4890   70.1190  222.7810 C   0  0  0  0  0  0  0  0  0  0  0  0
  139.6940   71.5140  223.3260 C   0  0  2  0  0  0  0  0  0  0  0  0
  140.7030   72.1890  222.4630 C   0  0  0  0  0  0  0  0  0  0  0  0
  141.7080   71.5440  221.8520 N   0  0  0  0  0  0  0  0  0  0  0  0
  142.5860   72.1890  221.0880 C   0  0  0  0  0  0  0  0  0  0  0  0
  143.6440   71.4770  220.4590 N   0  0  0  0  0  0  0  0  0  0  0  0
  143.8120   71.4670  219.0160 C   0  0  0  0  0  0  0  0  0  0  0  0
  143.2270   70.2270  218.3930 C   0  0  0  0  0  0  0  0  0  0  0  0
  144.1020   69.0870  218.4970 N   0  0  0  0  0  0  0  0  0  0  0  0
  143.6660   68.0960  219.4550 C   0  0  0  0  0  0  0  0  0  0  0  0
  144.8140   67.0850  219.3250 C   0  0  0  0  0  0  0  0  0  0  0  0
  145.9980   68.0290  219.2780 C   0  0  0  0  0  0  0  0  0  0  0  0
  145.4070   69.4140  218.9810 C   0  0  0  0  0  0  0  0  0  0  0  0
  142.4310   73.5300  220.9440 N   0  0  0  0  0  0  0  0  0  0  0  0
  141.4420   74.2260  221.5320 C   0  0  0  0  0  0  0  0  0  0  0  0
  141.3150   75.6310  221.3570 N   0  0  0  0  0  0  0  0  0  0  0  0
  141.8350   76.2500  220.1540 C   0  0  0  0  0  0  0  0  0  0  0  0
  141.0570   77.5270  219.8920 C   0  0  0  0  0  0  0  0  0  0  0  0
  141.3450   78.4130  221.0540 C   0  0  0  0  0  0  0  0  0  0  0  0
  141.7790   79.7120  220.9190 C   0  0  0  0  0  0  0  0  0  0  0  0
  142.0230   80.4680  222.0670 C   0  0  0  0  0  0  0  0  0  0  0  0
  141.8300   79.9180  223.3370 C   0  0  0  0  0  0  0  0  0  0  0  0
  141.3890   78.6000  223.4550 C   0  0  0  0  0  0  0  0  0  0  0  0
  141.1530   77.8650  222.3080 C   0  0  0  0  0  0  0  0  0  0  0  0
  140.6820   76.4560  222.3540 C   0  0  0  0  0  0  0  0  0  0  0  0
  140.5820   73.5240  222.2950 N   0  0  0  0  0  0  0  0  0  0  0  0
  140.2440   71.5140  224.7260 C   0  0  0  0  0  0  0  0  0  0  0  0
  140.2198   66.8476  227.3809 H   0  0  0  0  0  0  0  0  0  0  0  0
  141.5525   68.7836  228.1796 H   0  0  0  0  0  0  0  0  0  0  0  0
  141.5275   70.9043  226.9242 H   0  0  0  0  0  0  0  0  0  0  0  0
  138.8592   67.0694  225.3020 H   0  0  0  0  0  0  0  0  0  0  0  0
  138.4333   68.3196  223.2759 H   0  0  0  0  0  0  0  0  0  0  0  0
  137.6943   69.7960  223.9308 H   0  0  0  0  0  0  0  0  0  0  0  0
  140.4679   69.6341  222.6520 H   0  0  0  0  0  0  0  0  0  0  0  0
  138.9682   70.1894  221.8147 H   0  0  0  0  0  0  0  0  0  0  0  0
  138.7171   72.0196  223.3359 H   0  0  0  0  0  0  0  0  0  0  0  0
  144.3370   70.9360  221.0260 H   0  0  0  0  0  0  0  0  0  0  0  0
  143.3091   72.3491  218.5930 H   0  0  0  0  0  0  0  0  0  0  0  0
  144.8899   71.4834  218.7973 H   0  0  0  0  0  0  0  0  0  0  0  0
  142.2800   69.9913  218.9006 H   0  0  0  0  0  0  0  0  0  0  0  0
  143.0747   70.4326  217.3232 H   0  0  0  0  0  0  0  0  0  0  0  0
  143.5994   68.5111  220.4715 H   0  0  0  0  0  0  0  0  0  0  0  0
  142.6615   67.6853  219.2754 H   0  0  0  0  0  0  0  0  0  0  0  0
  144.8641   66.4115  220.1932 H   0  0  0  0  0  0  0  0  0  0  0  0
  144.7332   66.4028  218.4659 H   0  0  0  0  0  0  0  0  0  0  0  0
  146.5238   68.0346  220.2442 H   0  0  0  0  0  0  0  0  0  0  0  0
  146.7311   67.7263  218.5158 H   0  0  0  0  0  0  0  0  0  0  0  0
  145.3524   70.0282  219.8919 H   0  0  0  0  0  0  0  0  0  0  0  0
  146.0050   70.0072  218.2735 H   0  0  0  0  0  0  0  0  0  0  0  0
  142.9007   76.4864  220.2897 H   0  0  0  0  0  0  0  0  0  0  0  0
  141.7285   75.5631  219.3014 H   0  0  0  0  0  0  0  0  0  0  0  0
  141.3941   77.9977  218.9567 H   0  0  0  0  0  0  0  0  0  0  0  0
  139.9796   77.3337  219.7829 H   0  0  0  0  0  0  0  0  0  0  0  0
  141.9315   80.1484  219.9208 H   0  0  0  0  0  0  0  0  0  0  0  0
  142.3707   81.5072  221.9708 H   0  0  0  0  0  0  0  0  0  0  0  0
  142.0244   80.5199  224.2369 H   0  0  0  0  0  0  0  0  0  0  0  0
  141.2312   78.1515  224.4470 H   0  0  0  0  0  0  0  0  0  0  0  0
  140.9048   76.0417  223.3483 H   0  0  0  0  0  0  0  0  0  0  0  0
  139.6011   76.4576  222.1501 H   0  0  0  0  0  0  0  0  0  0  0  0
  141.2959   71.8329  224.6828 H   0  0  0  0  0  0  0  0  0  0  0  0
  139.6132   72.1986  225.3120 H   0  0  0  0  0  0  0  0  0  0  0  0
  1  2  2  0
  2  3  1  0
  3  4  2  0
  4  5  1  0
  5  6  2  0
  5  7  1  0
  7  8  1  0
  8  9  1  0
  9 10  1  0
 10 11  2  0
 11 12  1  0
 12 13  1  0
 13 14  1  0
 14 15  1  0
 15 16  1  0
 16 17  1  0
 17 18  1  0
 18 19  1  0
 19 20  1  0
 12 21  2  0
 21 22  1  0
 22 23  1  0
 23 24  1  0
 24 25  1  0
 25 26  1  0
 26 27  2  0
 27 28  1  0
 28 29  2  0
 29 30  1  0
 30 31  2  0
 31 32  1  0
 22 33  2  0
  9 34  1  0
  6  1  1  0
 33 10  1  0
 34  4  1  0
 20 16  1  0
 32 23  1  0
 31 26  1  0
  1 35  1  0
  2 36  1  0
  3 37  1  0
  6 38  1  0
  7 39  1  0
  7 40  1  0
  8 41  1  0
  8 42  1  0
  9 43  1  1
 13 44  1  0
 14 45  1  0
 14 46  1  0
 15 47  1  0
 15 48  1  0
 17 49  1  0
 17 50  1  0
 18 51  1  0
 18 52  1  0
 19 53  1  0
 19 54  1  0
 20 55  1  0
 20 56  1  0
 24 57  1  0
 24 58  1  0
 25 59  1  0
 25 60  1  0
 27 61  1  0
 28 62  1  0
 29 63  1  0
 30 64  1  0
 32 65  1  0
 32 66  1  0
 34 67  1  0
 34 68  1  0
M  END
>  <smiles>  (34) 
c1ccc2c(c1)CCC(c1nc(NCCN3CCCC3)nc(N3CCc4ccccc4C3)n1)C2

>  <score_type>  (34) 
oracle

>  <origin>  (34) 
autodockgpu

>  <m_score__min__energy>  (34) 
-10.43

>  <m_primary>  (34) 
energy

>  <rmsd>  (34) 
8.446914808288167

>  <m_score__min__rmsd>  (34) 
8.446914808288167

>  <meeko>  (34) 
{"free_energy": -9.83, "intermolecular_energy": -11.62, "internal_energy": -1.18, "cluster_size": 33, "cluster_id": 2, "rank_in_cluster": 22}

>  <energy>  (34) 
-9.84

>  <cluster_rmsd>  (34) 
1.51

>  <cluster>  (34) 
2

$$$$

     RDKit          3D

 68 73  0  0  0  0  0  0  0  0999 V2000
  140.2260   67.8070  226.8620 C   0  0  0  0  0  0  0  0  0  0  0  0
  141.0760   68.8270  227.2290 C   0  0  0  0  0  0  0  0  0  0  0  0
  141.0610   70.0200  226.5370 C   0  0  0  0  0  0  0  0  0  0  0  0
  140.2090   70.2330  225.4670 C   0  0  0  0  0  0  0  0  0  0  0  0
  139.3750   69.2120  225.1190 C   0  0  0  0  0  0  0  0  0  0  0  0
  139.3630   67.9930  225.7970 C   0  0  0  0  0  0  0  0  0  0  0  0
  138.4520   69.4520  223.9550 C   0  0  0  0  0  0  0  0  0  0  0  0
  139.2340   70.2280  222.9360 C   0  0  0  0  0  0  0  0  0  0  0  0
  139.5850   71.5990  223.4660 C   0  0  2  0  0  0  0  0  0  0  0  0
  140.5390   72.2200  222.5040 C   0  0  0  0  0  0  0  0  0  0  0  0
  141.4390   71.5220  221.7960 N   0  0  0  0  0  0  0  0  0  0  0  0
  142.2700   72.1200  220.9460 C   0  0  0  0  0  0  0  0  0  0  0  0
  143.2170   71.3520  220.2140 N   0  0  0  0  0  0  0  0  0  0  0  0
  144.0170   71.9310  219.1470 C   0  0  0  0  0  0  0  0  0  0  0  0
  145.2480   71.1120  218.8640 C   0  0  0  0  0  0  0  0  0  0  0  0
  145.1260   69.7490  219.3160 N   0  0  0  0  0  0  0  0  0  0  0  0
  146.3280   68.9640  219.1550 C   0  0  0  0  0  0  0  0  0  0  0  0
  145.8320   67.6130  219.6900 C   0  0  0  0  0  0  0  0  0  0  0  0
  144.4630   67.5550  219.0430 C   0  0  0  0  0  0  0  0  0  0  0  0
  144.1720   68.9870  218.5720 C   0  0  0  0  0  0  0  0  0  0  0  0
  142.1780   73.4680  220.8170 N   0  0  0  0  0  0  0  0  0  0  0  0
  141.2950   74.2150  221.5020 C   0  0  0  0  0  0  0  0  0  0  0  0
  141.2310   75.6270  221.3390 N   0  0  0  0  0  0  0  0  0  0  0  0
  141.8230   76.2370  220.1660 C   0  0  0  0  0  0  0  0  0  0  0  0
  141.1080   77.5470  219.8890 C   0  0  0  0  0  0  0  0  0  0  0  0
  141.3850   78.4090  221.0720 C   0  0  0  0  0  0  0  0  0  0  0  0
  141.8760   79.6900  220.9700 C   0  0  0  0  0  0  0  0  0  0  0  0
  142.1040   80.4240  222.1360 C   0  0  0  0  0  0  0  0  0  0  0  0
  141.8390   79.8680  223.3910 C   0  0  0  0  0  0  0  0  0  0  0  0
  141.3420   78.5670  223.4760 C   0  0  0  0  0  0  0  0  0  0  0  0
  141.1220   77.8550  222.3110 C   0  0  0  0  0  0  0  0  0  0  0  0
  140.5930   76.4660  222.3210 C   0  0  0  0  0  0  0  0  0  0  0  0
  140.4780   73.5600  222.3480 N   0  0  0  0  0  0  0  0  0  0  0  0
  140.2800   71.5450  224.7990 C   0  0  0  0  0  0  0  0  0  0  0  0
  140.2334   66.8536  227.4106 H   0  0  0  0  0  0  0  0  0  0  0  0
  141.7668   68.6900  228.0740 H   0  0  0  0  0  0  0  0  0  0  0  0
  141.7452   70.8247  226.8440 H   0  0  0  0  0  0  0  0  0  0  0  0
  138.6766   67.1905  225.4890 H   0  0  0  0  0  0  0  0  0  0  0  0
  138.1218   68.4930  223.5293 H   0  0  0  0  0  0  0  0  0  0  0  0
  137.5547   70.0051  224.2696 H   0  0  0  0  0  0  0  0  0  0  0  0
  140.1603   69.6837  222.6999 H   0  0  0  0  0  0  0  0  0  0  0  0
  138.6197   70.3443  222.0309 H   0  0  0  0  0  0  0  0  0  0  0  0
  138.6494   72.1652  223.5844 H   0  0  0  0  0  0  0  0  0  0  0  0
  143.3650   70.3380  220.4280 H   0  0  0  0  0  0  0  0  0  0  0  0
  143.4069   71.9842  218.2333 H   0  0  0  0  0  0  0  0  0  0  0  0
  144.3390   72.9332  219.4663 H   0  0  0  0  0  0  0  0  0  0  0  0
  145.4260   71.1081  217.7785 H   0  0  0  0  0  0  0  0  0  0  0  0
  146.0846   71.5699  219.4121 H   0  0  0  0  0  0  0  0  0  0  0  0
  146.6356   68.8985  218.1009 H   0  0  0  0  0  0  0  0  0  0  0  0
  147.2177   69.3665  219.6614 H   0  0  0  0  0  0  0  0  0  0  0  0
  146.4743   66.7833  219.3597 H   0  0  0  0  0  0  0  0  0  0  0  0
  145.8285   67.5240  220.7864 H   0  0  0  0  0  0  0  0  0  0  0  0
  144.4707   66.8630  218.1880 H   0  0  0  0  0  0  0  0  0  0  0  0
  143.6958   67.1911  219.7423 H   0  0  0  0  0  0  0  0  0  0  0  0
  144.3350   69.0917  217.4892 H   0  0  0  0  0  0  0  0  0  0  0  0
  143.1309   69.3026  218.7349 H   0  0  0  0  0  0  0  0  0  0  0  0
  142.8910   76.4286  220.3469 H   0  0  0  0  0  0  0  0  0  0  0  0
  141.7234   75.5642  219.3015 H   0  0  0  0  0  0  0  0  0  0  0  0
  141.5005   78.0131  218.9732 H   0  0  0  0  0  0  0  0  0  0  0  0
  140.0289   77.3987  219.7357 H   0  0  0  0  0  0  0  0  0  0  0  0
  142.0861   80.1299  219.9839 H   0  0  0  0  0  0  0  0  0  0  0  0
  142.4959   81.4495  222.0663 H   0  0  0  0  0  0  0  0  0  0  0  0
  142.0211   80.4521  224.3051 H   0  0  0  0  0  0  0  0  0  0  0  0
  141.1283   78.1142  224.4554 H   0  0  0  0  0  0  0  0  0  0  0  0
  140.7596   76.0320  223.3179 H   0  0  0  0  0  0  0  0  0  0  0  0
  139.5219   76.5139  222.0754 H   0  0  0  0  0  0  0  0  0  0  0  0
  141.3398   71.7966  224.6455 H   0  0  0  0  0  0  0  0  0  0  0  0
  139.7614   72.2606  225.4540 H   0  0  0  0  0  0  0  0  0  0  0  0
  1  2  2  0
  2  3  1  0
  3  4  2  0
  4  5  1  0
  5  6  2  0
  5  7  1  0
  7  8  1  0
  8  9  1  0
  9 10  1  0
 10 11  2  0
 11 12  1  0
 12 13  1  0
 13 14  1  0
 14 15  1  0
 15 16  1  0
 16 17  1  0
 17 18  1  0
 18 19  1  0
 19 20  1  0
 12 21  2  0
 21 22  1  0
 22 23  1  0
 23 24  1  0
 24 25  1  0
 25 26  1  0
 26 27  2  0
 27 28  1  0
 28 29  2  0
 29 30  1  0
 30 31  2  0
 31 32  1  0
 22 33  2  0
  9 34  1  0
  6  1  1  0
 33 10  1  0
 34  4  1  0
 20 16  1  0
 32 23  1  0
 31 26  1  0
  1 35  1  0
  2 36  1  0
  3 37  1  0
  6 38  1  0
  7 39  1  0
  7 40  1  0
  8 41  1  0
  8 42  1  0
  9 43  1  1
 13 44  1  0
 14 45  1  0
 14 46  1  0
 15 47  1  0
 15 48  1  0
 17 49  1  0
 17 50  1  0
 18 51  1  0
 18 52  1  0
 19 53  1  0
 19 54  1  0
 20 55  1  0
 20 56  1  0
 24 57  1  0
 24 58  1  0
 25 59  1  0
 25 60  1  0
 27 61  1  0
 28 62  1  0
 29 63  1  0
 30 64  1  0
 32 65  1  0
 32 66  1  0
 34 67  1  0
 34 68  1  0
M  END
>  <smiles>  (35) 
c1ccc2c(c1)CCC(c1nc(NCCN3CCCC3)nc(N3CCc4ccccc4C3)n1)C2

>  <score_type>  (35) 
oracle

>  <origin>  (35) 
autodockgpu

>  <m_score__min__energy>  (35) 
-10.43

>  <m_primary>  (35) 
energy

>  <rmsd>  (35) 
8.279073151598173

>  <m_score__min__rmsd>  (35) 
8.279073151598173

>  <meeko>  (35) 
{"free_energy": -10.03, "intermolecular_energy": -11.82, "internal_energy": -1.71, "cluster_size": 33, "cluster_id": 2, "rank_in_cluster": 9}

>  <energy>  (35) 
-9.83

>  <cluster_rmsd>  (35) 
0.96

>  <cluster>  (35) 
2

$$$$

     RDKit          3D

 68 73  0  0  0  0  0  0  0  0999 V2000
  140.4300   67.6790  226.4230 C   0  0  0  0  0  0  0  0  0  0  0  0
  141.4370   68.5920  226.6460 C   0  0  0  0  0  0  0  0  0  0  0  0
  141.3910   69.8300  226.0420 C   0  0  0  0  0  0  0  0  0  0  0  0
  140.3520   70.1950  225.2030 C   0  0  0  0  0  0  0  0  0  0  0  0
  139.3650   69.2780  224.9940 C   0  0  0  0  0  0  0  0  0  0  0  0
  139.3800   68.0160  225.5900 C   0  0  0  0  0  0  0  0  0  0  0  0
  138.2390   69.6810  224.0800 C   0  0  0  0  0  0  0  0  0  0  0  0
  138.8540   70.4630  222.9560 C   0  0  0  0  0  0  0  0  0  0  0  0
  139.4470   71.7550  223.4690 C   0  0  2  0  0  0  0  0  0  0  0  0
  140.2260   72.3640  222.3540 C   0  0  0  0  0  0  0  0  0  0  0  0
  140.8330   71.6490  221.3950 N   0  0  0  0  0  0  0  0  0  0  0  0
  141.5170   72.2360  220.4160 C   0  0  0  0  0  0  0  0  0  0  0  0
  142.1540   71.4490  219.4190 N   0  0  0  0  0  0  0  0  0  0  0  0
  142.8250   72.0500  218.2780 C   0  0  0  0  0  0  0  0  0  0  0  0
  144.3100   71.8040  218.3080 C   0  0  0  0  0  0  0  0  0  0  0  0
  145.0030   72.6990  219.2000 N   0  0  0  0  0  0  0  0  0  0  0  0
  145.0030   72.2730  220.5810 C   0  0  0  0  0  0  0  0  0  0  0  0
  145.7710   73.4420  221.2140 C   0  0  0  0  0  0  0  0  0  0  0  0
  145.1290   74.6080  220.4910 C   0  0  0  0  0  0  0  0  0  0  0  0
  144.4000   73.9930  219.2880 C   0  0  0  0  0  0  0  0  0  0  0  0
  141.5800   73.5920  220.4180 N   0  0  0  0  0  0  0  0  0  0  0  0
  140.9900   74.3570  221.3530 C   0  0  0  0  0  0  0  0  0  0  0  0
  141.0820   75.7760  221.3190 N   0  0  0  0  0  0  0  0  0  0  0  0
  141.7530   76.4220  220.2100 C   0  0  0  0  0  0  0  0  0  0  0  0
  141.1880   77.8210  220.0500 C   0  0  0  0  0  0  0  0  0  0  0  0
  141.5390   78.5370  221.3080 C   0  0  0  0  0  0  0  0  0  0  0  0
  142.1670   79.7620  221.3260 C   0  0  0  0  0  0  0  0  0  0  0  0
  142.4550   80.3580  222.5550 C   0  0  0  0  0  0  0  0  0  0  0  0
  142.1130   79.7230  223.7530 C   0  0  0  0  0  0  0  0  0  0  0  0
  141.4770   78.4820  223.7160 C   0  0  0  0  0  0  0  0  0  0  0  0
  141.1990   77.9060  222.4900 C   0  0  0  0  0  0  0  0  0  0  0  0
  140.5230   76.5880  222.3710 C   0  0  0  0  0  0  0  0  0  0  0  0
  140.3120   73.7120  222.3200 N   0  0  0  0  0  0  0  0  0  0  0  0
  140.4050   71.5430  224.6080 C   0  0  0  0  0  0  0  0  0  0  0  0
  140.4613   66.6901  226.9038 H   0  0  0  0  0  0  0  0  0  0  0  0
  142.2779   68.3330  227.3062 H   0  0  0  0  0  0  0  0  0  0  0  0
  142.2024   70.5480  226.2319 H   0  0  0  0  0  0  0  0  0  0  0  0
  138.5674   67.2996  225.3993 H   0  0  0  0  0  0  0  0  0  0  0  0
  137.7316   68.7876  223.6870 H   0  0  0  0  0  0  0  0  0  0  0  0
  137.4900   70.2820  224.6165 H   0  0  0  0  0  0  0  0  0  0  0  0
  139.6476   69.8614  222.4889 H   0  0  0  0  0  0  0  0  0  0  0  0
  138.0722   70.6995  222.2192 H   0  0  0  0  0  0  0  0  0  0  0  0
  138.6202   72.3875  223.8244 H   0  0  0  0  0  0  0  0  0  0  0  0
  142.1590   70.4040  219.4820 H   0  0  0  0  0  0  0  0  0  0  0  0
  142.4115   71.6189  217.3543 H   0  0  0  0  0  0  0  0  0  0  0  0
  142.6580   73.1366  218.3171 H   0  0  0  0  0  0  0  0  0  0  0  0
  144.4890   70.7699  218.6376 H   0  0  0  0  0  0  0  0  0  0  0  0
  144.6970   71.9797  217.2934 H   0  0  0  0  0  0  0  0  0  0  0  0
  143.9827   72.1881  220.9831 H   0  0  0  0  0  0  0  0  0  0  0  0
  145.4371   71.2785  220.7615 H   0  0  0  0  0  0  0  0  0  0  0  0
  145.6072   73.4963  222.3004 H   0  0  0  0  0  0  0  0  0  0  0  0
  146.8649   73.3832  221.1141 H   0  0  0  0  0  0  0  0  0  0  0  0
  144.4154   75.1236  221.1505 H   0  0  0  0  0  0  0  0  0  0  0  0
  145.8738   75.3549  220.1788 H   0  0  0  0  0  0  0  0  0  0  0  0
  143.3183   73.9174  219.4729 H   0  0  0  0  0  0  0  0  0  0  0  0
  144.4900   74.5862  218.3661 H   0  0  0  0  0  0  0  0  0  0  0  0
  142.8326   76.4795  220.4129 H   0  0  0  0  0  0  0  0  0  0  0  0
  141.5938   75.8449  219.2872 H   0  0  0  0  0  0  0  0  0  0  0  0
  141.6421   78.3223  219.1826 H   0  0  0  0  0  0  0  0  0  0  0  0
  140.1016   77.8057  219.8781 H   0  0  0  0  0  0  0  0  0  0  0  0
  142.4380   80.2639  220.3854 H   0  0  0  0  0  0  0  0  0  0  0  0
  142.9560   81.3369  222.5813 H   0  0  0  0  0  0  0  0  0  0  0  0
  142.3438   80.1986  224.7176 H   0  0  0  0  0  0  0  0  0  0  0  0
  141.2005   77.9689  224.6489 H   0  0  0  0  0  0  0  0  0  0  0  0
  140.6268   76.0504  223.3251 H   0  0  0  0  0  0  0  0  0  0  0  0
  139.4670   76.7739  222.1256 H   0  0  0  0  0  0  0  0  0  0  0  0
  141.4258   71.7155  224.2361 H   0  0  0  0  0  0  0  0  0  0  0  0
  140.1134   72.2484  225.4001 H   0  0  0  0  0  0  0  0  0  0  0  0
  1  2  2  0
  2  3  1  0
  3  4  2  0
  4  5  1  0
  5  6  2  0
  5  7  1  0
  7  8  1  0
  8  9  1  0
  9 10  1  0
 10 11  2  0
 11 12  1  0
 12 13  1  0
 13 14  1  0
 14 15  1  0
 15 16  1  0
 16 17  1  0
 17 18  1  0
 18 19  1  0
 19 20  1  0
 12 21  2  0
 21 22  1  0
 22 23  1  0
 23 24  1  0
 24 25  1  0
 25 26  1  0
 26 27  2  0
 27 28  1  0
 28 29  2  0
 29 30  1  0
 30 31  2  0
 31 32  1  0
 22 33  2  0
  9 34  1  0
  6  1  1  0
 33 10  1  0
 34  4  1  0
 20 16  1  0
 32 23  1  0
 31 26  1  0
  1 35  1  0
  2 36  1  0
  3 37  1  0
  6 38  1  0
  7 39  1  0
  7 40  1  0
  8 41  1  0
  8 42  1  0
  9 43  1  1
 13 44  1  0
 14 45  1  0
 14 46  1  0
 15 47  1  0
 15 48  1  0
 17 49  1  0
 17 50  1  0
 18 51  1  0
 18 52  1  0
 19 53  1  0
 19 54  1  0
 20 55  1  0
 20 56  1  0
 24 57  1  0
 24 58  1  0
 25 59  1  0
 25 60  1  0
 27 61  1  0
 28 62  1  0
 29 63  1  0
 30 64  1  0
 32 65  1  0
 32 66  1  0
 34 67  1  0
 34 68  1  0
M  END
>  <smiles>  (36) 
c1ccc2c(c1)CCC(c1nc(NCCN3CCCC3)nc(N3CCc4ccccc4C3)n1)C2

>  <score_type>  (36) 
oracle

>  <origin>  (36) 
autodockgpu

>  <m_score__min__energy>  (36) 
-10.43

>  <m_primary>  (36) 
energy

>  <rmsd>  (36) 
5.778564968099191

>  <m_score__min__rmsd>  (36) 
5.778564968099191

>  <meeko>  (36) 
{"free_energy": -9.88, "intermolecular_energy": -11.67, "internal_energy": -1.73, "cluster_size": 33, "cluster_id": 2, "rank_in_cluster": 19}

>  <energy>  (36) 
-9.81

>  <cluster_rmsd>  (36) 
1.52

>  <cluster>  (36) 
2

$$$$

     RDKit          3D

 68 73  0  0  0  0  0  0  0  0999 V2000
  145.9760   68.1330  219.5920 C   0  0  0  0  0  0  0  0  0  0  0  0
  144.6760   67.7220  219.7830 C   0  0  0  0  0  0  0  0  0  0  0  0
  143.6460   68.6370  219.7210 C   0  0  0  0  0  0  0  0  0  0  0  0
  143.8770   69.9790  219.4680 C   0  0  0  0  0  0  0  0  0  0  0  0
  145.1700   70.3670  219.2820 C   0  0  0  0  0  0  0  0  0  0  0  0
  146.2350   69.4670  219.3380 C   0  0  0  0  0  0  0  0  0  0  0  0
  145.4120   71.8270  219.0080 C   0  0  0  0  0  0  0  0  0  0  0  0
  144.4670   72.5930  219.8870 C   0  0  0  0  0  0  0  0  0  0  0  0
  143.0340   72.3340  219.4800 C   0  0  2  0  0  0  0  0  0  0  0  0
  142.1570   72.9400  220.5210 C   0  0  0  0  0  0  0  0  0  0  0  0
  141.4690   72.2230  221.4220 N   0  0  0  0  0  0  0  0  0  0  0  0
  140.6990   72.8080  222.3360 C   0  0  0  0  0  0  0  0  0  0  0  0
  139.9780   72.0180  223.2720 N   0  0  0  0  0  0  0  0  0  0  0  0
  139.6260   70.6340  223.0010 C   0  0  0  0  0  0  0  0  0  0  0  0
  139.6130   69.8030  224.2570 C   0  0  0  0  0  0  0  0  0  0  0  0
  139.8680   70.5830  225.4420 N   0  0  0  0  0  0  0  0  0  0  0  0
  141.2510   70.9710  225.6060 C   0  0  0  0  0  0  0  0  0  0  0  0
  141.1530   71.7270  226.9380 C   0  0  0  0  0  0  0  0  0  0  0  0
  140.2410   70.7950  227.7090 C   0  0  0  0  0  0  0  0  0  0  0  0
  139.6130   69.8720  226.6550 C   0  0  0  0  0  0  0  0  0  0  0  0
  140.6300   74.1640  222.3270 N   0  0  0  0  0  0  0  0  0  0  0  0
  141.2980   74.9310  221.4480 C   0  0  0  0  0  0  0  0  0  0  0  0
  141.1970   76.3490  221.4720 N   0  0  0  0  0  0  0  0  0  0  0  0
  141.5280   77.1080  220.2830 C   0  0  0  0  0  0  0  0  0  0  0  0
  140.7670   78.4210  220.3200 C   0  0  0  0  0  0  0  0  0  0  0  0
  141.2830   79.1460  221.5140 C   0  0  0  0  0  0  0  0  0  0  0  0
  141.7390   80.4440  221.4660 C   0  0  0  0  0  0  0  0  0  0  0  0
  142.2030   81.0430  222.6390 C   0  0  0  0  0  0  0  0  0  0  0  0
  142.2090   80.3370  223.8450 C   0  0  0  0  0  0  0  0  0  0  0  0
  141.7440   79.0220  223.8750 C   0  0  0  0  0  0  0  0  0  0  0  0
  141.2870   78.4450  222.7050 C   0  0  0  0  0  0  0  0  0  0  0  0
  140.7760   77.0500  222.6590 C   0  0  0  0  0  0  0  0  0  0  0  0
  142.0620   74.2870  220.5450 N   0  0  0  0  0  0  0  0  0  0  0  0
  142.7020   70.8690  219.4260 C   0  0  0  0  0  0  0  0  0  0  0  0
  146.8008   67.4068  219.6410 H   0  0  0  0  0  0  0  0  0  0  0  0
  144.4586   66.6628  219.9853 H   0  0  0  0  0  0  0  0  0  0  0  0
  142.6133   68.2917  219.8766 H   0  0  0  0  0  0  0  0  0  0  0  0
  147.2670   69.8144  219.1821 H   0  0  0  0  0  0  0  0  0  0  0  0
  146.4523   72.0907  219.2493 H   0  0  0  0  0  0  0  0  0  0  0  0
  145.2451   72.0635  217.9468 H   0  0  0  0  0  0  0  0  0  0  0  0
  144.6088   72.2780  220.9313 H   0  0  0  0  0  0  0  0  0  0  0  0
  144.6770   73.6677  219.7820 H   0  0  0  0  0  0  0  0  0  0  0  0
  142.8852   72.7608  218.4772 H   0  0  0  0  0  0  0  0  0  0  0  0
  139.6800   72.4160  224.1930 H   0  0  0  0  0  0  0  0  0  0  0  0
  138.6258   70.6041  222.5441 H   0  0  0  0  0  0  0  0  0  0  0  0
  140.3839   70.2155  222.3224 H   0  0  0  0  0  0  0  0  0  0  0  0
  138.6259   69.3274  224.3543 H   0  0  0  0  0  0  0  0  0  0  0  0
  140.4168   69.0571  224.1705 H   0  0  0  0  0  0  0  0  0  0  0  0
  141.9152   70.0973  225.6793 H   0  0  0  0  0  0  0  0  0  0  0  0
  141.6742   71.5501  224.7720 H   0  0  0  0  0  0  0  0  0  0  0  0
  142.1355   71.8283  227.4222 H   0  0  0  0  0  0  0  0  0  0  0  0
  140.7911   72.7625  226.8552 H   0  0  0  0  0  0  0  0  0  0  0  0
  140.8185   70.2085  228.4387 H   0  0  0  0  0  0  0  0  0  0  0  0
  139.4768   71.3475  228.2753 H   0  0  0  0  0  0  0  0  0  0  0  0
  140.0988   68.8851  226.6486 H   0  0  0  0  0  0  0  0  0  0  0  0
  138.5471   69.6632  226.8292 H   0  0  0  0  0  0  0  0  0  0  0  0
  142.6096   77.3070  220.2594 H   0  0  0  0  0  0  0  0  0  0  0  0
  141.2512   76.5381  219.3838 H   0  0  0  0  0  0  0  0  0  0  0  0
  140.9576   79.0018  219.4055 H   0  0  0  0  0  0  0  0  0  0  0  0
  139.6802   78.2614  220.3775 H   0  0  0  0  0  0  0  0  0  0  0  0
  141.7379   81.0012  220.5176 H   0  0  0  0  0  0  0  0  0  0  0  0
  142.5673   82.0806  222.6135 H   0  0  0  0  0  0  0  0  0  0  0  0
  142.5779   80.8149  224.7645 H   0  0  0  0  0  0  0  0  0  0  0  0
  141.7411   78.4526  224.8161 H   0  0  0  0  0  0  0  0  0  0  0  0
  141.1492   76.5079  223.5404 H   0  0  0  0  0  0  0  0  0  0  0  0
  139.6770   77.0958  222.6492 H   0  0  0  0  0  0  0  0  0  0  0  0
  142.0577   70.6298  220.2848 H   0  0  0  0  0  0  0  0  0  0  0  0
  142.2078   70.6932  218.4591 H   0  0  0  0  0  0  0  0  0  0  0  0
  1  2  2  0
  2  3  1  0
  3  4  2  0
  4  5  1  0
  5  6  2  0
  5  7  1  0
  7  8  1  0
  8  9  1  0
  9 10  1  0
 10 11  2  0
 11 12  1  0
 12 13  1  0
 13 14  1  0
 14 15  1  0
 15 16  1  0
 16 17  1  0
 17 18  1  0
 18 19  1  0
 19 20  1  0
 12 21  2  0
 21 22  1  0
 22 23  1  0
 23 24  1  0
 24 25  1  0
 25 26  1  0
 26 27  2  0
 27 28  1  0
 28 29  2  0
 29 30  1  0
 30 31  2  0
 31 32  1  0
 22 33  2  0
  9 34  1  0
  6  1  1  0
 33 10  1  0
 34  4  1  0
 20 16  1  0
 32 23  1  0
 31 26  1  0
  1 35  1  0
  2 36  1  0
  3 37  1  0
  6 38  1  0
  7 39  1  0
  7 40  1  0
  8 41  1  0
  8 42  1  0
  9 43  1  6
 13 44  1  0
 14 45  1  0
 14 46  1  0
 15 47  1  0
 15 48  1  0
 17 49  1  0
 17 50  1  0
 18 51  1  0
 18 52  1  0
 19 53  1  0
 19 54  1  0
 20 55  1  0
 20 56  1  0
 24 57  1  0
 24 58  1  0
 25 59  1  0
 25 60  1  0
 27 61  1  0
 28 62  1  0
 29 63  1  0
 30 64  1  0
 32 65  1  0
 32 66  1  0
 34 67  1  0
 34 68  1  0
M  END
>  <smiles>  (37) 
c1ccc2c(c1)CCC(c1nc(NCCN3CCCC3)nc(N3CCc4ccccc4C3)n1)C2

>  <score_type>  (37) 
oracle

>  <origin>  (37) 
autodockgpu

>  <m_score__min__energy>  (37) 
-10.43

>  <m_primary>  (37) 
energy

>  <rmsd>  (37) 
8.139584751546014

>  <m_score__min__rmsd>  (37) 
8.139584751546014

>  <meeko>  (37) 
{"free_energy": -9.96, "intermolecular_energy": -11.75, "internal_energy": -1.73, "cluster_size": 13, "cluster_id": 1, "rank_in_cluster": 9}

>  <energy>  (37) 
-9.79

>  <cluster_rmsd>  (37) 
1.56

>  <cluster>  (37) 
2

$$$$

     RDKit          3D

 68 73  0  0  0  0  0  0  0  0999 V2000
  140.3690   67.6360  226.3520 C   0  0  0  0  0  0  0  0  0  0  0  0
  141.4290   68.5020  226.5080 C   0  0  0  0  0  0  0  0  0  0  0  0
  141.3920   69.7500  225.9220 C   0  0  0  0  0  0  0  0  0  0  0  0
  140.3090   70.1710  225.1690 C   0  0  0  0  0  0  0  0  0  0  0  0
  139.2710   69.3000  225.0260 C   0  0  0  0  0  0  0  0  0  0  0  0
  139.2740   68.0310  225.6050 C   0  0  0  0  0  0  0  0  0  0  0  0
  138.0970   69.7650  224.2050 C   0  0  0  0  0  0  0  0  0  0  0  0
  138.6590   70.5360  223.0460 C   0  0  0  0  0  0  0  0  0  0  0  0
  139.3460   71.7940  223.5260 C   0  0  2  0  0  0  0  0  0  0  0  0
  140.0640   72.3840  222.3620 C   0  0  0  0  0  0  0  0  0  0  0  0
  140.5730   71.6570  221.3570 N   0  0  0  0  0  0  0  0  0  0  0  0
  141.2060   72.2280  220.3350 C   0  0  0  0  0  0  0  0  0  0  0  0
  141.7390   71.4270  219.2880 N   0  0  0  0  0  0  0  0  0  0  0  0
  142.3190   72.0140  218.0910 C   0  0  0  0  0  0  0  0  0  0  0  0
  143.8210   72.0810  218.1720 C   0  0  0  0  0  0  0  0  0  0  0  0
  144.2860   72.6450  219.4140 N   0  0  0  0  0  0  0  0  0  0  0  0
  144.4460   74.0810  219.3860 C   0  0  0  0  0  0  0  0  0  0  0  0
  144.9670   74.3130  220.8110 C   0  0  0  0  0  0  0  0  0  0  0  0
  145.9480   73.1640  220.9280 C   0  0  0  0  0  0  0  0  0  0  0  0
  145.5970   72.2070  219.7810 C   0  0  0  0  0  0  0  0  0  0  0  0
  141.3200   73.5810  220.3420 N   0  0  0  0  0  0  0  0  0  0  0  0
  140.8290   74.3580  221.3230 C   0  0  0  0  0  0  0  0  0  0  0  0
  140.9720   75.7720  221.2930 N   0  0  0  0  0  0  0  0  0  0  0  0
  141.6800   76.3950  220.1930 C   0  0  0  0  0  0  0  0  0  0  0  0
  141.1680   77.8140  220.0290 C   0  0  0  0  0  0  0  0  0  0  0  0
  141.5270   78.5150  221.2930 C   0  0  0  0  0  0  0  0  0  0  0  0
  142.1980   79.7170  221.3210 C   0  0  0  0  0  0  0  0  0  0  0  0
  142.4910   80.3000  222.5550 C   0  0  0  0  0  0  0  0  0  0  0  0
  142.1110   79.6770  223.7470 C   0  0  0  0  0  0  0  0  0  0  0  0
  141.4310   78.4590  223.6990 C   0  0  0  0  0  0  0  0  0  0  0  0
  141.1490   77.8950  222.4690 C   0  0  0  0  0  0  0  0  0  0  0  0
  140.4280   76.6020  222.3390 C   0  0  0  0  0  0  0  0  0  0  0  0
  140.1980   73.7280  222.3320 N   0  0  0  0  0  0  0  0  0  0  0  0
  140.3770   71.5240  224.5870 C   0  0  0  0  0  0  0  0  0  0  0  0
  140.3933   66.6395  226.8173 H   0  0  0  0  0  0  0  0  0  0  0  0
  142.3049   68.1981  227.0999 H   0  0  0  0  0  0  0  0  0  0  0  0
  142.2464   70.4296  226.0566 H   0  0  0  0  0  0  0  0  0  0  0  0
  138.4177   67.3540  225.4694 H   0  0  0  0  0  0  0  0  0  0  0  0
  137.5221   68.9003  223.8420 H   0  0  0  0  0  0  0  0  0  0  0  0
  137.4183   70.3900  224.8039 H   0  0  0  0  0  0  0  0  0  0  0  0
  139.3875   69.9073  222.5130 H   0  0  0  0  0  0  0  0  0  0  0  0
  137.8346   70.8168  222.3741 H   0  0  0  0  0  0  0  0  0  0  0  0
  138.5777   72.4573  223.9500 H   0  0  0  0  0  0  0  0  0  0  0  0
  141.7290   70.3830  219.3530 H   0  0  0  0  0  0  0  0  0  0  0  0
  142.0363   71.4022  217.2216 H   0  0  0  0  0  0  0  0  0  0  0  0
  141.9359   73.0405  217.9937 H   0  0  0  0  0  0  0  0  0  0  0  0
  144.2245   71.0623  218.0751 H   0  0  0  0  0  0  0  0  0  0  0  0
  144.1689   72.7352  217.3590 H   0  0  0  0  0  0  0  0  0  0  0  0
  145.1767   74.3966  218.6267 H   0  0  0  0  0  0  0  0  0  0  0  0
  143.5388   74.6454  219.1244 H   0  0  0  0  0  0  0  0  0  0  0  0
  145.4676   75.2877  220.9082 H   0  0  0  0  0  0  0  0  0  0  0  0
  144.1893   74.3368  221.5886 H   0  0  0  0  0  0  0  0  0  0  0  0
  146.9807   73.5279  220.8226 H   0  0  0  0  0  0  0  0  0  0  0  0
  145.8813   72.6685  221.9078 H   0  0  0  0  0  0  0  0  0  0  0  0
  146.3021   72.3126  218.9433 H   0  0  0  0  0  0  0  0  0  0  0  0
  145.6457   71.1444  220.0614 H   0  0  0  0  0  0  0  0  0  0  0  0
  142.7584   76.4129  220.4092 H   0  0  0  0  0  0  0  0  0  0  0  0
  141.5114   75.8255  219.2671 H   0  0  0  0  0  0  0  0  0  0  0  0
  141.6517   78.3002  219.1690 H   0  0  0  0  0  0  0  0  0  0  0  0
  140.0841   77.8378  219.8427 H   0  0  0  0  0  0  0  0  0  0  0  0
  142.4987   80.2105  220.3850 H   0  0  0  0  0  0  0  0  0  0  0  0
  143.0267   81.2601  222.5896 H   0  0  0  0  0  0  0  0  0  0  0  0
  142.3460   80.1429  224.7154 H   0  0  0  0  0  0  0  0  0  0  0  0
  141.1238   77.9549  224.6272 H   0  0  0  0  0  0  0  0  0  0  0  0
  140.4999   76.0599  223.2935 H   0  0  0  0  0  0  0  0  0  0  0  0
  139.3825   76.8255  222.0802 H   0  0  0  0  0  0  0  0  0  0  0  0
  141.3736   71.6574  224.1408 H   0  0  0  0  0  0  0  0  0  0  0  0
  140.1776   72.2298  225.4068 H   0  0  0  0  0  0  0  0  0  0  0  0
  1  2  2  0
  2  3  1  0
  3  4  2  0
  4  5  1  0
  5  6  2  0
  5  7  1  0
  7  8  1  0
  8  9  1  0
  9 10  1  0
 10 11  2  0
 11 12  1  0
 12 13  1  0
 13 14  1  0
 14 15  1  0
 15 16  1  0
 16 17  1  0
 17 18  1  0
 18 19  1  0
 19 20  1  0
 12 21  2  0
 21 22  1  0
 22 23  1  0
 23 24  1  0
 24 25  1  0
 25 26  1  0
 26 27  2  0
 27 28  1  0
 28 29  2  0
 29 30  1  0
 30 31  2  0
 31 32  1  0
 22 33  2  0
  9 34  1  0
  6  1  1  0
 33 10  1  0
 34  4  1  0
 20 16  1  0
 32 23  1  0
 31 26  1  0
  1 35  1  0
  2 36  1  0
  3 37  1  0
  6 38  1  0
  7 39  1  0
  7 40  1  0
  8 41  1  0
  8 42  1  0
  9 43  1  1
 13 44  1  0
 14 45  1  0
 14 46  1  0
 15 47  1  0
 15 48  1  0
 17 49  1  0
 17 50  1  0
 18 51  1  0
 18 52  1  0
 19 53  1  0
 19 54  1  0
 20 55  1  0
 20 56  1  0
 24 57  1  0
 24 58  1  0
 25 59  1  0
 25 60  1  0
 27 61  1  0
 28 62  1  0
 29 63  1  0
 30 64  1  0
 32 65  1  0
 32 66  1  0
 34 67  1  0
 34 68  1  0
M  END
>  <smiles>  (38) 
c1ccc2c(c1)CCC(c1nc(NCCN3CCCC3)nc(N3CCc4ccccc4C3)n1)C2

>  <score_type>  (38) 
oracle

>  <origin>  (38) 
autodockgpu

>  <m_score__min__energy>  (38) 
-10.43

>  <m_primary>  (38) 
energy

>  <rmsd>  (38) 
5.917289955662149

>  <m_score__min__rmsd>  (38) 
5.917289955662149

>  <meeko>  (38) 
{"free_energy": -9.65, "intermolecular_energy": -11.44, "internal_energy": -1.7, "cluster_size": 33, "cluster_id": 2, "rank_in_cluster": 29}

>  <energy>  (38) 
-9.77

>  <cluster_rmsd>  (38) 
1.55

>  <cluster>  (38) 
2

$$$$

     RDKit          3D

 68 73  0  0  0  0  0  0  0  0999 V2000
  140.2310   67.8040  226.8300 C   0  0  0  0  0  0  0  0  0  0  0  0
  140.9930   68.8670  227.2590 C   0  0  0  0  0  0  0  0  0  0  0  0
  140.9790   70.0540  226.5570 C   0  0  0  0  0  0  0  0  0  0  0  0
  140.2130   70.2170  225.4150 C   0  0  0  0  0  0  0  0  0  0  0  0
  139.4650   69.1540  225.0070 C   0  0  0  0  0  0  0  0  0  0  0  0
  139.4550   67.9390  225.6930 C   0  0  0  0  0  0  0  0  0  0  0  0
  138.6350   69.3400  223.7650 C   0  0  0  0  0  0  0  0  0  0  0  0
  139.4630   70.1480  222.8090 C   0  0  0  0  0  0  0  0  0  0  0  0
  139.6980   71.5380  223.3540 C   0  0  2  0  0  0  0  0  0  0  0  0
  140.6990   72.2020  222.4720 C   0  0  0  0  0  0  0  0  0  0  0  0
  141.6860   71.5450  221.8440 N   0  0  0  0  0  0  0  0  0  0  0  0
  142.5570   72.1790  221.0630 C   0  0  0  0  0  0  0  0  0  0  0  0
  143.5950   71.4540  220.4160 N   0  0  0  0  0  0  0  0  0  0  0  0
  143.9970   71.7430  219.0490 C   0  0  0  0  0  0  0  0  0  0  0  0
  145.1510   70.8800  218.6120 C   0  0  0  0  0  0  0  0  0  0  0  0
  145.1540   69.5890  219.2530 N   0  0  0  0  0  0  0  0  0  0  0  0
  146.3010   68.7720  218.9270 C   0  0  0  0  0  0  0  0  0  0  0  0
  145.9590   67.5100  219.7310 C   0  0  0  0  0  0  0  0  0  0  0  0
  144.4810   67.3890  219.4230 C   0  0  0  0  0  0  0  0  0  0  0  0
  144.0690   68.7520  218.8490 C   0  0  0  0  0  0  0  0  0  0  0  0
  142.4150   73.5220  220.9210 N   0  0  0  0  0  0  0  0  0  0  0  0
  141.4450   74.2290  221.5270 C   0  0  0  0  0  0  0  0  0  0  0  0
  141.3320   75.6360  221.3530 N   0  0  0  0  0  0  0  0  0  0  0  0
  141.8740   76.2540  220.1600 C   0  0  0  0  0  0  0  0  0  0  0  0
  141.1100   77.5370  219.8900 C   0  0  0  0  0  0  0  0  0  0  0  0
  141.3880   78.4180  221.0580 C   0  0  0  0  0  0  0  0  0  0  0  0
  141.8340   79.7140  220.9320 C   0  0  0  0  0  0  0  0  0  0  0  0
  142.0670   80.4660  222.0850 C   0  0  0  0  0  0  0  0  0  0  0  0
  141.8520   79.9140  223.3510 C   0  0  0  0  0  0  0  0  0  0  0  0
  141.4000   78.5990  223.4600 C   0  0  0  0  0  0  0  0  0  0  0  0
  141.1740   77.8690  222.3080 C   0  0  0  0  0  0  0  0  0  0  0  0
  140.6910   76.4640  222.3440 C   0  0  0  0  0  0  0  0  0  0  0  0
  140.5910   73.5380  222.3060 N   0  0  0  0  0  0  0  0  0  0  0  0
  140.2760   71.5270  224.7430 C   0  0  0  0  0  0  0  0  0  0  0  0
  140.2391   66.8553  227.3866 H   0  0  0  0  0  0  0  0  0  0  0  0
  141.6134   68.7697  228.1621 H   0  0  0  0  0  0  0  0  0  0  0  0
  141.5930   70.8940  226.9139 H   0  0  0  0  0  0  0  0  0  0  0  0
  138.8391   67.1009  225.3349 H   0  0  0  0  0  0  0  0  0  0  0  0
  138.3908   68.3630  223.3226 H   0  0  0  0  0  0  0  0  0  0  0  0
  137.6875   69.8491  223.9953 H   0  0  0  0  0  0  0  0  0  0  0  0
  140.4321   69.6496  222.6592 H   0  0  0  0  0  0  0  0  0  0  0  0
  138.9249   70.2277  221.8529 H   0  0  0  0  0  0  0  0  0  0  0  0
  138.7283   72.0564  223.3855 H   0  0  0  0  0  0  0  0  0  0  0  0
  144.1030   70.6860  220.9130 H   0  0  0  0  0  0  0  0  0  0  0  0
  143.1427   71.5607  218.3804 H   0  0  0  0  0  0  0  0  0  0  0  0
  144.3184   72.7939  219.0017 H   0  0  0  0  0  0  0  0  0  0  0  0
  145.0878   70.7324  217.5238 H   0  0  0  0  0  0  0  0  0  0  0  0
  146.0791   71.3958  218.8993 H   0  0  0  0  0  0  0  0  0  0  0  0
  146.3631   68.5656  217.8483 H   0  0  0  0  0  0  0  0  0  0  0  0
  147.2761   69.2236  219.1620 H   0  0  0  0  0  0  0  0  0  0  0  0
  146.5224   66.6349  219.3750 H   0  0  0  0  0  0  0  0  0  0  0  0
  146.2044   67.5643  220.8019 H   0  0  0  0  0  0  0  0  0  0  0  0
  144.3060   66.5923  218.6850 H   0  0  0  0  0  0  0  0  0  0  0  0
  143.8973   67.1299  220.3186 H   0  0  0  0  0  0  0  0  0  0  0  0
  143.9814   68.7135  217.7532 H   0  0  0  0  0  0  0  0  0  0  0  0
  143.0869   69.1010  219.2007 H   0  0  0  0  0  0  0  0  0  0  0  0
  142.9393   76.4820  220.3120 H   0  0  0  0  0  0  0  0  0  0  0  0
  141.7747   75.5702  219.3041 H   0  0  0  0  0  0  0  0  0  0  0  0
  141.4642   78.0072  218.9607 H   0  0  0  0  0  0  0  0  0  0  0  0
  140.0328   77.3523  219.7650 H   0  0  0  0  0  0  0  0  0  0  0  0
  142.0044   80.1510  219.9370 H   0  0  0  0  0  0  0  0  0  0  0  0
  142.4232   81.5029  221.9963 H   0  0  0  0  0  0  0  0  0  0  0  0
  142.0380   80.5125  224.2550 H   0  0  0  0  0  0  0  0  0  0  0  0
  141.2258   78.1492  224.4486 H   0  0  0  0  0  0  0  0  0  0  0  0
  140.8964   76.0454  223.3403 H   0  0  0  0  0  0  0  0  0  0  0  0
  139.6130   76.4746  222.1252 H   0  0  0  0  0  0  0  0  0  0  0  0
  141.3311   71.8314  224.6796 H   0  0  0  0  0  0  0  0  0  0  0  0
  139.6671   72.2190  225.3434 H   0  0  0  0  0  0  0  0  0  0  0  0
  1  2  2  0
  2  3  1  0
  3  4  2  0
  4  5  1  0
  5  6  2  0
  5  7  1  0
  7  8  1  0
  8  9  1  0
  9 10  1  0
 10 11  2  0
 11 12  1  0
 12 13  1  0
 13 14  1  0
 14 15  1  0
 15 16  1  0
 16 17  1  0
 17 18  1  0
 18 19  1  0
 19 20  1  0
 12 21  2  0
 21 22  1  0
 22 23  1  0
 23 24  1  0
 24 25  1  0
 25 26  1  0
 26 27  2  0
 27 28  1  0
 28 29  2  0
 29 30  1  0
 30 31  2  0
 31 32  1  0
 22 33  2  0
  9 34  1  0
  6  1  1  0
 33 10  1  0
 34  4  1  0
 20 16  1  0
 32 23  1  0
 31 26  1  0
  1 35  1  0
  2 36  1  0
  3 37  1  0
  6 38  1  0
  7 39  1  0
  7 40  1  0
  8 41  1  0
  8 42  1  0
  9 43  1  1
 13 44  1  0
 14 45  1  0
 14 46  1  0
 15 47  1  0
 15 48  1  0
 17 49  1  0
 17 50  1  0
 18 51  1  0
 18 52  1  0
 19 53  1  0
 19 54  1  0
 20 55  1  0
 20 56  1  0
 24 57  1  0
 24 58  1  0
 25 59  1  0
 25 60  1  0
 27 61  1  0
 28 62  1  0
 29 63  1  0
 30 64  1  0
 32 65  1  0
 32 66  1  0
 34 67  1  0
 34 68  1  0
M  END
>  <smiles>  (39) 
c1ccc2c(c1)CCC(c1nc(NCCN3CCCC3)nc(N3CCc4ccccc4C3)n1)C2

>  <score_type>  (39) 
oracle

>  <origin>  (39) 
autodockgpu

>  <m_score__min__energy>  (39) 
-10.43

>  <m_primary>  (39) 
energy

>  <rmsd>  (39) 
8.422664754961138

>  <m_score__min__rmsd>  (39) 
8.422664754961138

>  <meeko>  (39) 
{"free_energy": -10.13, "intermolecular_energy": -11.92, "internal_energy": -1.68, "cluster_size": 33, "cluster_id": 2, "rank_in_cluster": 2}

>  <energy>  (39) 
-9.76

>  <cluster_rmsd>  (39) 
1.5

>  <cluster>  (39) 
2

$$$$

     RDKit          3D

 68 73  0  0  0  0  0  0  0  0999 V2000
  144.7430   67.3190  219.3730 C   0  0  0  0  0  0  0  0  0  0  0  0
  143.3710   67.2190  219.3000 C   0  0  0  0  0  0  0  0  0  0  0  0
  142.5980   68.3610  219.2530 C   0  0  0  0  0  0  0  0  0  0  0  0
  143.1620   69.6250  219.2780 C   0  0  0  0  0  0  0  0  0  0  0  0
  144.5200   69.7030  219.3500 C   0  0  0  0  0  0  0  0  0  0  0  0
  145.3320   68.5690  219.3990 C   0  0  0  0  0  0  0  0  0  0  0  0
  145.1250   71.0810  219.3770 C   0  0  0  0  0  0  0  0  0  0  0  0
  144.2300   71.9290  220.2320 C   0  0  0  0  0  0  0  0  0  0  0  0
  142.8740   72.0910  219.5850 C   0  0  2  0  0  0  0  0  0  0  0  0
  141.9780   72.7460  220.5800 C   0  0  0  0  0  0  0  0  0  0  0  0
  141.2100   72.0690  221.4460 N   0  0  0  0  0  0  0  0  0  0  0  0
  140.4260   72.6970  222.3190 C   0  0  0  0  0  0  0  0  0  0  0  0
  139.6200   71.9490  223.2200 N   0  0  0  0  0  0  0  0  0  0  0  0
  139.4380   70.5140  223.0790 C   0  0  0  0  0  0  0  0  0  0  0  0
  139.9530   69.7640  224.2780 C   0  0  0  0  0  0  0  0  0  0  0  0
  140.0610   70.5950  225.4500 N   0  0  0  0  0  0  0  0  0  0  0  0
  141.3770   71.1530  225.6580 C   0  0  0  0  0  0  0  0  0  0  0  0
  141.1320   71.9220  226.9640 C   0  0  0  0  0  0  0  0  0  0  0  0
  140.3080   70.9030  227.7240 C   0  0  0  0  0  0  0  0  0  0  0  0
  139.8430   69.8860  226.6720 C   0  0  0  0  0  0  0  0  0  0  0  0
  140.4280   74.0540  222.3050 N   0  0  0  0  0  0  0  0  0  0  0  0
  141.1780   74.7820  221.4590 C   0  0  0  0  0  0  0  0  0  0  0  0
  141.1500   76.2040  221.4760 N   0  0  0  0  0  0  0  0  0  0  0  0
  141.5580   76.9400  220.2970 C   0  0  0  0  0  0  0  0  0  0  0  0
  140.8650   78.2900  220.3040 C   0  0  0  0  0  0  0  0  0  0  0  0
  141.3790   78.9930  221.5130 C   0  0  0  0  0  0  0  0  0  0  0  0
  141.9010   80.2660  221.4760 C   0  0  0  0  0  0  0  0  0  0  0  0
  142.3580   80.8450  222.6620 C   0  0  0  0  0  0  0  0  0  0  0  0
  142.2870   80.1460  223.8700 C   0  0  0  0  0  0  0  0  0  0  0  0
  141.7540   78.8570  223.8880 C   0  0  0  0  0  0  0  0  0  0  0  0
  141.3070   78.2980  222.7060 C   0  0  0  0  0  0  0  0  0  0  0  0
  140.7270   76.9310  222.6460 C   0  0  0  0  0  0  0  0  0  0  0  0
  141.9520   74.0960  220.5970 N   0  0  0  0  0  0  0  0  0  0  0  0
  142.2410   70.7750  219.2250 C   0  0  0  0  0  0  0  0  0  0  0  0
  145.3642   66.4120  219.4103 H   0  0  0  0  0  0  0  0  0  0  0  0
  142.8918   66.2291  219.2792 H   0  0  0  0  0  0  0  0  0  0  0  0
  141.5038   68.2644  219.1941 H   0  0  0  0  0  0  0  0  0  0  0  0
  146.4259   68.6687  219.4575 H   0  0  0  0  0  0  0  0  0  0  0  0
  146.1361   71.0426  219.8085 H   0  0  0  0  0  0  0  0  0  0  0  0
  145.2103   71.4953  218.3616 H   0  0  0  0  0  0  0  0  0  0  0  0
  144.1070   71.4488  221.2140 H   0  0  0  0  0  0  0  0  0  0  0  0
  144.6881   72.9222  220.3489 H   0  0  0  0  0  0  0  0  0  0  0  0
  143.0082   72.6755  218.6629 H   0  0  0  0  0  0  0  0  0  0  0  0
  139.1320   72.4170  224.0190 H   0  0  0  0  0  0  0  0  0  0  0  0
  138.3654   70.3013  222.9599 H   0  0  0  0  0  0  0  0  0  0  0  0
  140.0074   70.1824  222.1982 H   0  0  0  0  0  0  0  0  0  0  0  0
  139.2641   68.9349  224.4969 H   0  0  0  0  0  0  0  0  0  0  0  0
  140.9624   69.4010  224.0342 H   0  0  0  0  0  0  0  0  0  0  0  0
  142.1387   70.3691  225.7817 H   0  0  0  0  0  0  0  0  0  0  0  0
  141.7613   71.7608  224.8256 H   0  0  0  0  0  0  0  0  0  0  0  0
  142.0737   72.1536  227.4833 H   0  0  0  0  0  0  0  0  0  0  0  0
  140.6513   72.9034  226.8386 H   0  0  0  0  0  0  0  0  0  0  0  0
  140.9208   70.4087  228.4923 H   0  0  0  0  0  0  0  0  0  0  0  0
  139.4586   71.3703  228.2438 H   0  0  0  0  0  0  0  0  0  0  0  0
  140.4453   68.9665  226.7126 H   0  0  0  0  0  0  0  0  0  0  0  0
  138.8040   69.5520  226.8095 H   0  0  0  0  0  0  0  0  0  0  0  0
  142.6486   77.0834  220.3088 H   0  0  0  0  0  0  0  0  0  0  0  0
  141.2815   76.3808  219.3910 H   0  0  0  0  0  0  0  0  0  0  0  0
  141.1154   78.8557  219.3944 H   0  0  0  0  0  0  0  0  0  0  0  0
  139.7700   78.1874  220.3254 H   0  0  0  0  0  0  0  0  0  0  0  0
  141.9574   80.8190  220.5268 H   0  0  0  0  0  0  0  0  0  0  0  0
  142.7781   81.8615  222.6450 H   0  0  0  0  0  0  0  0  0  0  0  0
  142.6488   80.6089  224.8000 H   0  0  0  0  0  0  0  0  0  0  0  0
  141.6904   78.2932  224.8304 H   0  0  0  0  0  0  0  0  0  0  0  0
  141.0424   76.3742  223.5407 H   0  0  0  0  0  0  0  0  0  0  0  0
  139.6328   77.0335  222.5989 H   0  0  0  0  0  0  0  0  0  0  0  0
  141.4143   70.5870  219.9259 H   0  0  0  0  0  0  0  0  0  0  0  0
  141.9047   70.8619  218.1813 H   0  0  0  0  0  0  0  0  0  0  0  0
  1  2  2  0
  2  3  1  0
  3  4  2  0
  4  5  1  0
  5  6  2  0
  5  7  1  0
  7  8  1  0
  8  9  1  0
  9 10  1  0
 10 11  2  0
 11 12  1  0
 12 13  1  0
 13 14  1  0
 14 15  1  0
 15 16  1  0
 16 17  1  0
 17 18  1  0
 18 19  1  0
 19 20  1  0
 12 21  2  0
 21 22  1  0
 22 23  1  0
 23 24  1  0
 24 25  1  0
 25 26  1  0
 26 27  2  0
 27 28  1  0
 28 29  2  0
 29 30  1  0
 30 31  2  0
 31 32  1  0
 22 33  2  0
  9 34  1  0
  6  1  1  0
 33 10  1  0
 34  4  1  0
 20 16  1  0
 32 23  1  0
 31 26  1  0
  1 35  1  0
  2 36  1  0
  3 37  1  0
  6 38  1  0
  7 39  1  0
  7 40  1  0
  8 41  1  0
  8 42  1  0
  9 43  1  6
 13 44  1  0
 14 45  1  0
 14 46  1  0
 15 47  1  0
 15 48  1  0
 17 49  1  0
 17 50  1  0
 18 51  1  0
 18 52  1  0
 19 53  1  0
 19 54  1  0
 20 55  1  0
 20 56  1  0
 24 57  1  0
 24 58  1  0
 25 59  1  0
 25 60  1  0
 27 61  1  0
 28 62  1  0
 29 63  1  0
 30 64  1  0
 32 65  1  0
 32 66  1  0
 34 67  1  0
 34 68  1  0
M  END
>  <smiles>  (40) 
c1ccc2c(c1)CCC(c1nc(NCCN3CCCC3)nc(N3CCc4ccccc4C3)n1)C2

>  <score_type>  (40) 
oracle

>  <origin>  (40) 
autodockgpu

>  <m_score__min__energy>  (40) 
-10.43

>  <m_primary>  (40) 
energy

>  <rmsd>  (40) 
8.108951596411755

>  <m_score__min__rmsd>  (40) 
8.108951596411755

>  <meeko>  (40) 
{"free_energy": -9.84, "intermolecular_energy": -11.63, "internal_energy": -1.58, "cluster_size": 13, "cluster_id": 1, "rank_in_cluster": 10}

>  <energy>  (40) 
-9.73

>  <cluster_rmsd>  (40) 
0.73

>  <cluster>  (40) 
2

$$$$

     RDKit          3D

 68 73  0  0  0  0  0  0  0  0999 V2000
  140.3120   68.1580  227.4480 C   0  0  0  0  0  0  0  0  0  0  0  0
  141.1360   69.2500  227.6080 C   0  0  0  0  0  0  0  0  0  0  0  0
  141.0360   70.3220  226.7470 C   0  0  0  0  0  0  0  0  0  0  0  0
  140.1210   70.3400  225.7080 C   0  0  0  0  0  0  0  0  0  0  0  0
  139.3140   69.2510  225.5660 C   0  0  0  0  0  0  0  0  0  0  0  0
  139.3890   68.1490  226.4190 C   0  0  0  0  0  0  0  0  0  0  0  0
  138.3230   69.2780  224.4330 C   0  0  0  0  0  0  0  0  0  0  0  0
  139.0170   69.9160  223.2660 C   0  0  0  0  0  0  0  0  0  0  0  0
  139.3380   71.3630  223.5630 C   0  0  2  0  0  0  0  0  0  0  0  0
  140.2140   71.8610  222.4650 C   0  0  0  0  0  0  0  0  0  0  0  0
  140.9090   71.0580  221.6460 N   0  0  0  0  0  0  0  0  0  0  0  0
  141.6780   71.5490  220.6770 C   0  0  0  0  0  0  0  0  0  0  0  0
  142.4060   70.6690  219.8310 N   0  0  0  0  0  0  0  0  0  0  0  0
  141.9500   70.3390  218.4910 C   0  0  0  0  0  0  0  0  0  0  0  0
  142.6730   69.1420  217.9320 C   0  0  0  0  0  0  0  0  0  0  0  0
  143.7900   68.7370  218.7480 N   0  0  0  0  0  0  0  0  0  0  0  0
  145.0730   69.1840  218.2570 C   0  0  0  0  0  0  0  0  0  0  0  0
  145.9910   68.5610  219.3180 C   0  0  0  0  0  0  0  0  0  0  0  0
  145.3540   67.1940  219.4530 C   0  0  0  0  0  0  0  0  0  0  0  0
  143.9700   67.3200  218.8010 C   0  0  0  0  0  0  0  0  0  0  0  0
  141.7370   72.8980  220.5420 N   0  0  0  0  0  0  0  0  0  0  0  0
  141.0610   73.7490  221.3340 C   0  0  0  0  0  0  0  0  0  0  0  0
  141.1510   75.1570  221.1600 N   0  0  0  0  0  0  0  0  0  0  0  0
  142.2570   75.7140  220.4080 C   0  0  0  0  0  0  0  0  0  0  0  0
  141.8240   77.0460  219.8250 C   0  0  0  0  0  0  0  0  0  0  0  0
  141.5480   77.9230  220.9970 C   0  0  0  0  0  0  0  0  0  0  0  0
  142.0910   79.1800  221.1390 C   0  0  0  0  0  0  0  0  0  0  0  0
  141.7740   79.9300  222.2740 C   0  0  0  0  0  0  0  0  0  0  0  0
  140.9190   79.4150  223.2520 C   0  0  0  0  0  0  0  0  0  0  0  0
  140.3780   78.1400  223.0910 C   0  0  0  0  0  0  0  0  0  0  0  0
  140.7020   77.4100  221.9630 C   0  0  0  0  0  0  0  0  0  0  0  0
  140.1650   76.0460  221.7210 C   0  0  0  0  0  0  0  0  0  0  0  0
  140.2990   73.1990  222.2980 N   0  0  0  0  0  0  0  0  0  0  0  0
  140.1020   71.5360  224.8460 C   0  0  0  0  0  0  0  0  0  0  0  0
  140.3877   67.3006  228.1330 H   0  0  0  0  0  0  0  0  0  0  0  0
  141.8743   69.2668  228.4233 H   0  0  0  0  0  0  0  0  0  0  0  0
  141.7011   71.1865  226.8893 H   0  0  0  0  0  0  0  0  0  0  0  0
  138.7231   67.2855  226.2746 H   0  0  0  0  0  0  0  0  0  0  0  0
  138.0134   68.2542  224.1761 H   0  0  0  0  0  0  0  0  0  0  0  0
  137.4200   69.8410  224.7115 H   0  0  0  0  0  0  0  0  0  0  0  0
  139.9515   69.3734  223.0606 H   0  0  0  0  0  0  0  0  0  0  0  0
  138.3514   69.8731  222.3913 H   0  0  0  0  0  0  0  0  0  0  0  0
  138.3872   71.9095  223.6488 H   0  0  0  0  0  0  0  0  0  0  0  0
  143.3010   70.2330  220.1530 H   0  0  0  0  0  0  0  0  0  0  0  0
  140.8726   70.1198  218.5256 H   0  0  0  0  0  0  0  0  0  0  0  0
  142.1582   71.1993  217.8379 H   0  0  0  0  0  0  0  0  0  0  0  0
  141.9647   68.3032  217.8634 H   0  0  0  0  0  0  0  0  0  0  0  0
  143.0671   69.4228  216.9442 H   0  0  0  0  0  0  0  0  0  0  0  0
  145.2853   68.7919  217.2514 H   0  0  0  0  0  0  0  0  0  0  0  0
  145.1717   70.2731  218.1383 H   0  0  0  0  0  0  0  0  0  0  0  0
  147.0314   68.4930  218.9675 H   0  0  0  0  0  0  0  0  0  0  0  0
  146.0652   69.1305  220.2562 H   0  0  0  0  0  0  0  0  0  0  0  0
  145.9569   66.4358  218.9318 H   0  0  0  0  0  0  0  0  0  0  0  0
  145.2825   66.8793  220.5046 H   0  0  0  0  0  0  0  0  0  0  0  0
  143.9620   66.8788  217.7934 H   0  0  0  0  0  0  0  0  0  0  0  0
  143.1741   66.7936  219.3483 H   0  0  0  0  0  0  0  0  0  0  0  0
  143.1197   75.8638  221.0739 H   0  0  0  0  0  0  0  0  0  0  0  0
  142.5460   75.0262  219.5997 H   0  0  0  0  0  0  0  0  0  0  0  0
  142.6262   77.4734  219.2056 H   0  0  0  0  0  0  0  0  0  0  0  0
  140.9409   76.9402  219.1777 H   0  0  0  0  0  0  0  0  0  0  0  0
  142.7642   79.5876  220.3705 H   0  0  0  0  0  0  0  0  0  0  0  0
  142.2015   80.9358  222.3991 H   0  0  0  0  0  0  0  0  0  0  0  0
  140.6743   80.0116  224.1432 H   0  0  0  0  0  0  0  0  0  0  0  0
  139.7026   77.7209  223.8514 H   0  0  0  0  0  0  0  0  0  0  0  0
  139.8172   75.6288  222.6775 H   0  0  0  0  0  0  0  0  0  0  0  0
  139.3426   76.1340  220.9958 H   0  0  0  0  0  0  0  0  0  0  0  0
  141.1410   71.7965  224.5956 H   0  0  0  0  0  0  0  0  0  0  0  0
  139.5879   72.3252  225.4143 H   0  0  0  0  0  0  0  0  0  0  0  0
  1  2  2  0
  2  3  1  0
  3  4  2  0
  4  5  1  0
  5  6  2  0
  5  7  1  0
  7  8  1  0
  8  9  1  0
  9 10  1  0
 10 11  2  0
 11 12  1  0
 12 13  1  0
 13 14  1  0
 14 15  1  0
 15 16  1  0
 16 17  1  0
 17 18  1  0
 18 19  1  0
 19 20  1  0
 12 21  2  0
 21 22  1  0
 22 23  1  0
 23 24  1  0
 24 25  1  0
 25 26  1  0
 26 27  2  0
 27 28  1  0
 28 29  2  0
 29 30  1  0
 30 31  2  0
 31 32  1  0
 22 33  2  0
  9 34  1  0
  6  1  1  0
 33 10  1  0
 34  4  1  0
 20 16  1  0
 32 23  1  0
 31 26  1  0
  1 35  1  0
  2 36  1  0
  3 37  1  0
  6 38  1  0
  7 39  1  0
  7 40  1  0
  8 41  1  0
  8 42  1  0
  9 43  1  1
 13 44  1  0
 14 45  1  0
 14 46  1  0
 15 47  1  0
 15 48  1  0
 17 49  1  0
 17 50  1  0
 18 51  1  0
 18 52  1  0
 19 53  1  0
 19 54  1  0
 20 55  1  0
 20 56  1  0
 24 57  1  0
 24 58  1  0
 25 59  1  0
 25 60  1  0
 27 61  1  0
 28 62  1  0
 29 63  1  0
 30 64  1  0
 32 65  1  0
 32 66  1  0
 34 67  1  0
 34 68  1  0
M  END
>  <smiles>  (41) 
c1ccc2c(c1)CCC(c1nc(NCCN3CCCC3)nc(N3CCc4ccccc4C3)n1)C2

>  <score_type>  (41) 
oracle

>  <origin>  (41) 
autodockgpu

>  <m_score__min__energy>  (41) 
-10.43

>  <m_primary>  (41) 
energy

>  <rmsd>  (41) 
8.273735615201968

>  <m_score__min__rmsd>  (41) 
8.273735615201968

>  <meeko>  (41) 
{"free_energy": -9.02, "intermolecular_energy": -10.81, "internal_energy": -1.75, "cluster_size": 33, "cluster_id": 2, "rank_in_cluster": 32}

>  <energy>  (41) 
-9.73

>  <cluster_rmsd>  (41) 
1.46

>  <cluster>  (41) 
2

$$$$

     RDKit          3D

 68 73  0  0  0  0  0  0  0  0999 V2000
  140.2350   67.4530  226.7770 C   0  0  0  0  0  0  0  0  0  0  0  0
  141.3610   68.2430  226.8510 C   0  0  0  0  0  0  0  0  0  0  0  0
  141.4000   69.4520  226.1890 C   0  0  0  0  0  0  0  0  0  0  0  0
  140.3290   69.9090  225.4400 C   0  0  0  0  0  0  0  0  0  0  0  0
  139.2240   69.1140  225.3800 C   0  0  0  0  0  0  0  0  0  0  0  0
  139.1500   67.8850  226.0360 C   0  0  0  0  0  0  0  0  0  0  0  0
  138.0640   69.6180  224.5630 C   0  0  0  0  0  0  0  0  0  0  0  0
  138.6460   70.2720  223.3440 C   0  0  0  0  0  0  0  0  0  0  0  0
  139.4390   71.5000  223.7260 C   0  0  2  0  0  0  0  0  0  0  0  0
  140.1630   71.9620  222.5080 C   0  0  0  0  0  0  0  0  0  0  0  0
  140.6020   71.1360  221.5470 N   0  0  0  0  0  0  0  0  0  0  0  0
  141.2430   71.5950  220.4750 C   0  0  0  0  0  0  0  0  0  0  0  0
  141.7000   70.6920  219.4770 N   0  0  0  0  0  0  0  0  0  0  0  0
  143.1060   70.3470  219.3380 C   0  0  0  0  0  0  0  0  0  0  0  0
  143.8690   71.4050  218.5870 C   0  0  0  0  0  0  0  0  0  0  0  0
  144.7300   72.1820  219.4420 N   0  0  0  0  0  0  0  0  0  0  0  0
  144.4460   72.0390  220.8520 C   0  0  0  0  0  0  0  0  0  0  0  0
  145.4960   73.0000  221.4280 C   0  0  0  0  0  0  0  0  0  0  0  0
  145.3630   74.1550  220.4580 C   0  0  0  0  0  0  0  0  0  0  0  0
  144.5950   73.5930  219.2530 C   0  0  0  0  0  0  0  0  0  0  0  0
  141.4400   72.9350  220.3840 N   0  0  0  0  0  0  0  0  0  0  0  0
  141.0210   73.8070  221.3170 C   0  0  0  0  0  0  0  0  0  0  0  0
  141.2490   75.2040  221.1840 N   0  0  0  0  0  0  0  0  0  0  0  0
  140.3230   76.1390  221.7910 C   0  0  0  0  0  0  0  0  0  0  0  0
  141.0620   77.4340  222.0790 C   0  0  0  0  0  0  0  0  0  0  0  0
  141.4750   77.9600  220.7480 C   0  0  0  0  0  0  0  0  0  0  0  0
  141.2150   79.2470  220.3350 C   0  0  0  0  0  0  0  0  0  0  0  0
  141.6430   79.6510  219.0690 C   0  0  0  0  0  0  0  0  0  0  0  0
  142.3240   78.7650  218.2300 C   0  0  0  0  0  0  0  0  0  0  0  0
  142.5780   77.4640  218.6640 C   0  0  0  0  0  0  0  0  0  0  0  0
  142.1480   77.0800  219.9210 C   0  0  0  0  0  0  0  0  0  0  0  0
  142.3830   75.7130  220.4530 C   0  0  0  0  0  0  0  0  0  0  0  0
  140.3790   73.2890  222.3810 N   0  0  0  0  0  0  0  0  0  0  0  0
  140.4810   71.2150  224.7730 C   0  0  0  0  0  0  0  0  0  0  0  0
  140.1991   66.4873  227.3025 H   0  0  0  0  0  0  0  0  0  0  0  0
  142.2292   67.9094  227.4383 H   0  0  0  0  0  0  0  0  0  0  0  0
  142.3071   70.0704  226.2579 H   0  0  0  0  0  0  0  0  0  0  0  0
  138.2418   67.2684  225.9649 H   0  0  0  0  0  0  0  0  0  0  0  0
  137.4144   68.7800  224.2699 H   0  0  0  0  0  0  0  0  0  0  0  0
  137.4535   70.3286  225.1395 H   0  0  0  0  0  0  0  0  0  0  0  0
  139.3088   69.5584  222.8326 H   0  0  0  0  0  0  0  0  0  0  0  0
  137.8246   70.5738  222.6774 H   0  0  0  0  0  0  0  0  0  0  0  0
  138.7362   72.2444  224.1283 H   0  0  0  0  0  0  0  0  0  0  0  0
  141.0300   70.2450  218.8090 H   0  0  0  0  0  0  0  0  0  0  0  0
  143.5458   70.2343  220.3399 H   0  0  0  0  0  0  0  0  0  0  0  0
  143.1732   69.4079  218.7691 H   0  0  0  0  0  0  0  0  0  0  0  0
  144.4851   70.9157  217.8182 H   0  0  0  0  0  0  0  0  0  0  0  0
  143.1340   72.0923  218.1426 H   0  0  0  0  0  0  0  0  0  0  0  0
  143.4220   72.3569  221.0975 H   0  0  0  0  0  0  0  0  0  0  0  0
  144.4975   71.0092  221.2352 H   0  0  0  0  0  0  0  0  0  0  0  0
  145.2510   73.3019  222.4570 H   0  0  0  0  0  0  0  0  0  0  0  0
  146.5096   72.5806  221.5098 H   0  0  0  0  0  0  0  0  0  0  0  0
  144.8028   74.9817  220.9192 H   0  0  0  0  0  0  0  0  0  0  0  0
  146.3442   74.5567  220.1650 H   0  0  0  0  0  0  0  0  0  0  0  0
  143.5387   73.8993  219.2748 H   0  0  0  0  0  0  0  0  0  0  0  0
  144.9737   73.9474  218.2829 H   0  0  0  0  0  0  0  0  0  0  0  0
  139.4881   76.3340  221.1019 H   0  0  0  0  0  0  0  0  0  0  0  0
  139.9227   75.7187  222.7254 H   0  0  0  0  0  0  0  0  0  0  0  0
  140.3993   78.1502  222.5868 H   0  0  0  0  0  0  0  0  0  0  0  0
  141.9260   77.2728  222.7405 H   0  0  0  0  0  0  0  0  0  0  0  0
  140.6781   79.9466  220.9925 H   0  0  0  0  0  0  0  0  0  0  0  0
  141.4421   80.6775  218.7284 H   0  0  0  0  0  0  0  0  0  0  0  0
  142.6575   79.0914  217.2339 H   0  0  0  0  0  0  0  0  0  0  0  0
  143.1125   76.7538  218.0159 H   0  0  0  0  0  0  0  0  0  0  0  0
  142.5921   75.0374  219.6105 H   0  0  0  0  0  0  0  0  0  0  0  0
  143.2335   75.7660  221.1486 H   0  0  0  0  0  0  0  0  0  0  0  0
  141.4697   71.2431  224.2917 H   0  0  0  0  0  0  0  0  0  0  0  0
  140.3630   71.9825  225.5522 H   0  0  0  0  0  0  0  0  0  0  0  0
  1  2  2  0
  2  3  1  0
  3  4  2  0
  4  5  1  0
  5  6  2  0
  5  7  1  0
  7  8  1  0
  8  9  1  0
  9 10  1  0
 10 11  2  0
 11 12  1  0
 12 13  1  0
 13 14  1  0
 14 15  1  0
 15 16  1  0
 16 17  1  0
 17 18  1  0
 18 19  1  0
 19 20  1  0
 12 21  2  0
 21 22  1  0
 22 23  1  0
 23 24  1  0
 24 25  1  0
 25 26  1  0
 26 27  2  0
 27 28  1  0
 28 29  2  0
 29 30  1  0
 30 31  2  0
 31 32  1  0
 22 33  2  0
  9 34  1  0
  6  1  1  0
 33 10  1  0
 34  4  1  0
 20 16  1  0
 32 23  1  0
 31 26  1  0
  1 35  1  0
  2 36  1  0
  3 37  1  0
  6 38  1  0
  7 39  1  0
  7 40  1  0
  8 41  1  0
  8 42  1  0
  9 43  1  1
 13 44  1  0
 14 45  1  0
 14 46  1  0
 15 47  1  0
 15 48  1  0
 17 49  1  0
 17 50  1  0
 18 51  1  0
 18 52  1  0
 19 53  1  0
 19 54  1  0
 20 55  1  0
 20 56  1  0
 24 57  1  0
 24 58  1  0
 25 59  1  0
 25 60  1  0
 27 61  1  0
 28 62  1  0
 29 63  1  0
 30 64  1  0
 32 65  1  0
 32 66  1  0
 34 67  1  0
 34 68  1  0
M  END
>  <smiles>  (42) 
c1ccc2c(c1)CCC(c1nc(NCCN3CCCC3)nc(N3CCc4ccccc4C3)n1)C2

>  <score_type>  (42) 
oracle

>  <origin>  (42) 
autodockgpu

>  <m_score__min__energy>  (42) 
-10.43

>  <m_primary>  (42) 
energy

>  <rmsd>  (42) 
6.028486443477736

>  <m_score__min__rmsd>  (42) 
6.028486443477736

>  <meeko>  (42) 
{"free_energy": -8.87, "intermolecular_energy": -10.66, "internal_energy": -1.88, "cluster_size": 33, "cluster_id": 2, "rank_in_cluster": 33}

>  <energy>  (42) 
-9.65

>  <cluster_rmsd>  (42) 
1.5

>  <cluster>  (42) 
2

$$$$

     RDKit          3D

 68 73  0  0  0  0  0  0  0  0999 V2000
  140.2380   67.7810  226.8490 C   0  0  0  0  0  0  0  0  0  0  0  0
  141.0450   68.8230  227.2480 C   0  0  0  0  0  0  0  0  0  0  0  0
  141.0290   70.0140  226.5530 C   0  0  0  0  0  0  0  0  0  0  0  0
  140.2170   70.2030  225.4470 C   0  0  0  0  0  0  0  0  0  0  0  0
  139.4250   69.1600  225.0680 C   0  0  0  0  0  0  0  0  0  0  0  0
  139.4160   67.9420  225.7490 C   0  0  0  0  0  0  0  0  0  0  0  0
  138.5450   69.3730  223.8650 C   0  0  0  0  0  0  0  0  0  0  0  0
  139.3490   70.1670  222.8770 C   0  0  0  0  0  0  0  0  0  0  0  0
  139.6430   71.5470  223.4170 C   0  0  2  0  0  0  0  0  0  0  0  0
  140.6190   72.1910  222.4940 C   0  0  0  0  0  0  0  0  0  0  0  0
  141.5620   71.5140  221.8220 N   0  0  0  0  0  0  0  0  0  0  0  0
  142.4130   72.1320  221.0050 C   0  0  0  0  0  0  0  0  0  0  0  0
  143.4050   71.3860  220.3120 N   0  0  0  0  0  0  0  0  0  0  0  0
  144.4590   72.0330  219.5490 C   0  0  0  0  0  0  0  0  0  0  0  0
  145.4040   71.0310  218.9400 C   0  0  0  0  0  0  0  0  0  0  0  0
  145.1150   69.6780  219.3410 N   0  0  0  0  0  0  0  0  0  0  0  0
  146.2490   68.7850  219.2670 C   0  0  0  0  0  0  0  0  0  0  0  0
  145.5820   67.4780  219.7180 C   0  0  0  0  0  0  0  0  0  0  0  0
  144.2790   67.5630  218.9500 C   0  0  0  0  0  0  0  0  0  0  0  0
  144.1660   69.0250  218.4950 C   0  0  0  0  0  0  0  0  0  0  0  0
  142.2950   73.4780  220.8740 N   0  0  0  0  0  0  0  0  0  0  0  0
  141.3690   74.2040  221.5230 C   0  0  0  0  0  0  0  0  0  0  0  0
  141.2800   75.6140  221.3580 N   0  0  0  0  0  0  0  0  0  0  0  0
  141.8510   76.2320  220.1780 C   0  0  0  0  0  0  0  0  0  0  0  0
  141.1110   77.5290  219.9060 C   0  0  0  0  0  0  0  0  0  0  0  0
  141.3840   78.3970  221.0850 C   0  0  0  0  0  0  0  0  0  0  0  0
  141.8530   79.6870  220.9760 C   0  0  0  0  0  0  0  0  0  0  0  0
  142.0780   80.4270  222.1380 C   0  0  0  0  0  0  0  0  0  0  0  0
  141.8340   79.8690  223.3970 C   0  0  0  0  0  0  0  0  0  0  0  0
  141.3600   78.5600  223.4880 C   0  0  0  0  0  0  0  0  0  0  0  0
  141.1420   77.8420  222.3270 C   0  0  0  0  0  0  0  0  0  0  0  0
  140.6360   76.4440  222.3450 C   0  0  0  0  0  0  0  0  0  0  0  0
  140.5350   73.5300  222.3360 N   0  0  0  0  0  0  0  0  0  0  0  0
  140.2820   71.5140  224.7780 C   0  0  0  0  0  0  0  0  0  0  0  0
  140.2473   66.8292  227.4004 H   0  0  0  0  0  0  0  0  0  0  0  0
  141.7029   68.7053  228.1217 H   0  0  0  0  0  0  0  0  0  0  0  0
  141.6790   70.8365  226.8862 H   0  0  0  0  0  0  0  0  0  0  0  0
  138.7640   67.1214  225.4153 H   0  0  0  0  0  0  0  0  0  0  0  0
  138.2580   68.4047  223.4291 H   0  0  0  0  0  0  0  0  0  0  0  0
  137.6210   69.9029  224.1398 H   0  0  0  0  0  0  0  0  0  0  0  0
  140.2977   69.6458  222.6811 H   0  0  0  0  0  0  0  0  0  0  0  0
  138.7700   70.2662  221.9470 H   0  0  0  0  0  0  0  0  0  0  0  0
  138.6890   72.0890  223.4946 H   0  0  0  0  0  0  0  0  0  0  0  0
  143.4030   70.3400  220.3340 H   0  0  0  0  0  0  0  0  0  0  0  0
  144.0023   72.6270  218.7436 H   0  0  0  0  0  0  0  0  0  0  0  0
  145.0341   72.6727  220.2346 H   0  0  0  0  0  0  0  0  0  0  0  0
  145.3285   71.0969  217.8446 H   0  0  0  0  0  0  0  0  0  0  0  0
  146.4171   71.2727  219.2937 H   0  0  0  0  0  0  0  0  0  0  0  0
  146.6448   68.7103  218.2434 H   0  0  0  0  0  0  0  0  0  0  0  0
  147.1221   69.0913  219.8619 H   0  0  0  0  0  0  0  0  0  0  0  0
  146.1716   66.5971  219.4239 H   0  0  0  0  0  0  0  0  0  0  0  0
  145.4696   67.3692  220.8068 H   0  0  0  0  0  0  0  0  0  0  0  0
  144.3009   66.8902  218.0800 H   0  0  0  0  0  0  0  0  0  0  0  0
  143.4206   67.2602  219.5676 H   0  0  0  0  0  0  0  0  0  0  0  0
  144.4354   69.1346  217.4342 H   0  0  0  0  0  0  0  0  0  0  0  0
  143.1483   69.4349  218.5738 H   0  0  0  0  0  0  0  0  0  0  0  0
  142.9172   76.4421  220.3486 H   0  0  0  0  0  0  0  0  0  0  0  0
  141.7552   75.5561  219.3155 H   0  0  0  0  0  0  0  0  0  0  0  0
  141.4869   78.0006  218.9861 H   0  0  0  0  0  0  0  0  0  0  0  0
  140.0332   77.3619  219.7628 H   0  0  0  0  0  0  0  0  0  0  0  0
  142.0476   80.1281  219.9873 H   0  0  0  0  0  0  0  0  0  0  0  0
  142.4509   81.4591  222.0627 H   0  0  0  0  0  0  0  0  0  0  0  0
  142.0144   80.4577  224.3085 H   0  0  0  0  0  0  0  0  0  0  0  0
  141.1625   78.1055  224.4701 H   0  0  0  0  0  0  0  0  0  0  0  0
  140.8189   76.0149  223.3412 H   0  0  0  0  0  0  0  0  0  0  0  0
  139.5618   76.4729  222.1098 H   0  0  0  0  0  0  0  0  0  0  0  0
  141.3405   71.7927  224.6684 H   0  0  0  0  0  0  0  0  0  0  0  0
  139.7176   72.2173  225.4080 H   0  0  0  0  0  0  0  0  0  0  0  0
  1  2  2  0
  2  3  1  0
  3  4  2  0
  4  5  1  0
  5  6  2  0
  5  7  1  0
  7  8  1  0
  8  9  1  0
  9 10  1  0
 10 11  2  0
 11 12  1  0
 12 13  1  0
 13 14  1  0
 14 15  1  0
 15 16  1  0
 16 17  1  0
 17 18  1  0
 18 19  1  0
 19 20  1  0
 12 21  2  0
 21 22  1  0
 22 23  1  0
 23 24  1  0
 24 25  1  0
 25 26  1  0
 26 27  2  0
 27 28  1  0
 28 29  2  0
 29 30  1  0
 30 31  2  0
 31 32  1  0
 22 33  2  0
  9 34  1  0
  6  1  1  0
 33 10  1  0
 34  4  1  0
 20 16  1  0
 32 23  1  0
 31 26  1  0
  1 35  1  0
  2 36  1  0
  3 37  1  0
  6 38  1  0
  7 39  1  0
  7 40  1  0
  8 41  1  0
  8 42  1  0
  9 43  1  1
 13 44  1  0
 14 45  1  0
 14 46  1  0
 15 47  1  0
 15 48  1  0
 17 49  1  0
 17 50  1  0
 18 51  1  0
 18 52  1  0
 19 53  1  0
 19 54  1  0
 20 55  1  0
 20 56  1  0
 24 57  1  0
 24 58  1  0
 25 59  1  0
 25 60  1  0
 27 61  1  0
 28 62  1  0
 29 63  1  0
 30 64  1  0
 32 65  1  0
 32 66  1  0
 34 67  1  0
 34 68  1  0
M  END
>  <smiles>  (43) 
c1ccc2c(c1)CCC(c1nc(NCCN3CCCC3)nc(N3CCc4ccccc4C3)n1)C2

>  <score_type>  (43) 
oracle

>  <origin>  (43) 
autodockgpu

>  <m_score__min__energy>  (43) 
-10.43

>  <m_primary>  (43) 
energy

>  <rmsd>  (43) 
8.348636649716521

>  <m_score__min__rmsd>  (43) 
8.348636649716521

>  <meeko>  (43) 
{"free_energy": -10.05, "intermolecular_energy": -11.84, "internal_energy": -1.73, "cluster_size": 33, "cluster_id": 2, "rank_in_cluster": 7}

>  <energy>  (43) 
-9.41

>  <cluster_rmsd>  (43) 
1.38

>  <cluster>  (43) 
2

$$$$

     RDKit          3D

 68 73  0  0  0  0  0  0  0  0999 V2000
  140.3060   67.8000  226.8400 C   0  0  0  0  0  0  0  0  0  0  0  0
  141.0750   68.8660  227.2510 C   0  0  0  0  0  0  0  0  0  0  0  0
  141.0440   70.0510  226.5470 C   0  0  0  0  0  0  0  0  0  0  0  0
  140.2540   70.2110  225.4220 C   0  0  0  0  0  0  0  0  0  0  0  0
  139.4990   69.1450  225.0310 C   0  0  0  0  0  0  0  0  0  0  0  0
  139.5060   67.9320  225.7200 C   0  0  0  0  0  0  0  0  0  0  0  0
  138.6420   69.3270  223.8070 C   0  0  0  0  0  0  0  0  0  0  0  0
  139.4480   70.1350  222.8320 C   0  0  0  0  0  0  0  0  0  0  0  0
  139.6920   71.5270  223.3690 C   0  0  2  0  0  0  0  0  0  0  0  0
  140.6730   72.1900  222.4650 C   0  0  0  0  0  0  0  0  0  0  0  0
  141.6320   71.5310  221.7980 N   0  0  0  0  0  0  0  0  0  0  0  0
  142.4850   72.1650  220.9980 C   0  0  0  0  0  0  0  0  0  0  0  0
  143.4940   71.4370  220.3100 N   0  0  0  0  0  0  0  0  0  0  0  0
  143.6950   71.5700  218.8760 C   0  0  0  0  0  0  0  0  0  0  0  0
  144.8270   70.7060  218.3880 C   0  0  0  0  0  0  0  0  0  0  0  0
  145.0420   69.5490  219.2190 N   0  0  0  0  0  0  0  0  0  0  0  0
  146.3180   68.9020  219.0110 C   0  0  0  0  0  0  0  0  0  0  0  0
  146.1850   67.7380  220.0030 C   0  0  0  0  0  0  0  0  0  0  0  0
  144.7550   67.3180  219.7330 C   0  0  0  0  0  0  0  0  0  0  0  0
  144.1240   68.4840  218.9610 C   0  0  0  0  0  0  0  0  0  0  0  0
  142.3550   73.5110  220.8780 N   0  0  0  0  0  0  0  0  0  0  0  0
  141.4130   74.2210  221.5230 C   0  0  0  0  0  0  0  0  0  0  0  0
  141.3100   75.6310  221.3700 N   0  0  0  0  0  0  0  0  0  0  0  0
  141.8550   76.2630  220.1850 C   0  0  0  0  0  0  0  0  0  0  0  0
  141.1010   77.5560  219.9360 C   0  0  0  0  0  0  0  0  0  0  0  0
  141.3880   78.4170  221.1170 C   0  0  0  0  0  0  0  0  0  0  0  0
  141.8450   79.7110  221.0090 C   0  0  0  0  0  0  0  0  0  0  0  0
  142.0860   80.4440  222.1730 C   0  0  0  0  0  0  0  0  0  0  0  0
  141.8690   79.8740  223.4310 C   0  0  0  0  0  0  0  0  0  0  0  0
  141.4060   78.5620  223.5210 C   0  0  0  0  0  0  0  0  0  0  0  0
  141.1720   77.8510  222.3590 C   0  0  0  0  0  0  0  0  0  0  0  0
  140.6780   76.4490  222.3750 C   0  0  0  0  0  0  0  0  0  0  0  0
  140.5750   73.5290  222.3190 N   0  0  0  0  0  0  0  0  0  0  0  0
  140.3000   71.5200  224.7450 C   0  0  0  0  0  0  0  0  0  0  0  0
  140.3280   66.8521  227.3977 H   0  0  0  0  0  0  0  0  0  0  0  0
  141.7142   68.7720  228.1413 H   0  0  0  0  0  0  0  0  0  0  0  0
  141.6644   70.8926  226.8889 H   0  0  0  0  0  0  0  0  0  0  0  0
  138.8837   67.0922  225.3770 H   0  0  0  0  0  0  0  0  0  0  0  0
  138.3902   68.3487  223.3717 H   0  0  0  0  0  0  0  0  0  0  0  0
  137.6985   69.8345  224.0566 H   0  0  0  0  0  0  0  0  0  0  0  0
  140.4147   69.6381  222.6626 H   0  0  0  0  0  0  0  0  0  0  0  0
  138.8894   70.2119  221.8875 H   0  0  0  0  0  0  0  0  0  0  0  0
  138.7223   72.0438  223.4200 H   0  0  0  0  0  0  0  0  0  0  0  0
  144.1260   70.7800  220.8230 H   0  0  0  0  0  0  0  0  0  0  0  0
  142.7713   71.2729  218.3579 H   0  0  0  0  0  0  0  0  0  0  0  0
  143.9484   72.6188  218.6619 H   0  0  0  0  0  0  0  0  0  0  0  0
  144.5966   70.3679  217.3669 H   0  0  0  0  0  0  0  0  0  0  0  0
  145.7444   71.3121  218.4188 H   0  0  0  0  0  0  0  0  0  0  0  0
  146.4327   68.5467  217.9763 H   0  0  0  0  0  0  0  0  0  0  0  0
  147.1967   69.5458  219.1640 H   0  0  0  0  0  0  0  0  0  0  0  0
  146.8963   66.9291  219.7798 H   0  0  0  0  0  0  0  0  0  0  0  0
  146.3999   67.9973  221.0502 H   0  0  0  0  0  0  0  0  0  0  0  0
  144.7318   66.3994  219.1284 H   0  0  0  0  0  0  0  0  0  0  0  0
  144.2102   67.1028  220.6641 H   0  0  0  0  0  0  0  0  0  0  0  0
  144.0618   68.2629  217.8853 H   0  0  0  0  0  0  0  0  0  0  0  0
  143.0911   68.7078  219.2659 H   0  0  0  0  0  0  0  0  0  0  0  0
  142.9224   76.4801  220.3384 H   0  0  0  0  0  0  0  0  0  0  0  0
  141.7486   75.5931  219.3190 H   0  0  0  0  0  0  0  0  0  0  0  0
  141.4574   78.0374  219.0134 H   0  0  0  0  0  0  0  0  0  0  0  0
  140.0222   77.3819  219.8101 H   0  0  0  0  0  0  0  0  0  0  0  0
  142.0178   80.1611  220.0203 H   0  0  0  0  0  0  0  0  0  0  0  0
  142.4499   81.4794  222.0994 H   0  0  0  0  0  0  0  0  0  0  0  0
  142.0623   80.4568  224.3437 H   0  0  0  0  0  0  0  0  0  0  0  0
  141.2294   78.0991  224.5031 H   0  0  0  0  0  0  0  0  0  0  0  0
  140.8826   76.0138  223.3643 H   0  0  0  0  0  0  0  0  0  0  0  0
  139.5996   76.4714  222.1591 H   0  0  0  0  0  0  0  0  0  0  0  0
  141.3530   71.8260  224.6579 H   0  0  0  0  0  0  0  0  0  0  0  0
  139.7029   72.2122  225.3568 H   0  0  0  0  0  0  0  0  0  0  0  0
  1  2  2  0
  2  3  1  0
  3  4  2  0
  4  5  1  0
  5  6  2  0
  5  7  1  0
  7  8  1  0
  8  9  1  0
  9 10  1  0
 10 11  2  0
 11 12  1  0
 12 13  1  0
 13 14  1  0
 14 15  1  0
 15 16  1  0
 16 17  1  0
 17 18  1  0
 18 19  1  0
 19 20  1  0
 12 21  2  0
 21 22  1  0
 22 23  1  0
 23 24  1  0
 24 25  1  0
 25 26  1  0
 26 27  2  0
 27 28  1  0
 28 29  2  0
 29 30  1  0
 30 31  2  0
 31 32  1  0
 22 33  2  0
  9 34  1  0
  6  1  1  0
 33 10  1  0
 34  4  1  0
 20 16  1  0
 32 23  1  0
 31 26  1  0
  1 35  1  0
  2 36  1  0
  3 37  1  0
  6 38  1  0
  7 39  1  0
  7 40  1  0
  8 41  1  0
  8 42  1  0
  9 43  1  1
 13 44  1  0
 14 45  1  0
 14 46  1  0
 15 47  1  0
 15 48  1  0
 17 49  1  0
 17 50  1  0
 18 51  1  0
 18 52  1  0
 19 53  1  0
 19 54  1  0
 20 55  1  0
 20 56  1  0
 24 57  1  0
 24 58  1  0
 25 59  1  0
 25 60  1  0
 27 61  1  0
 28 62  1  0
 29 63  1  0
 30 64  1  0
 32 65  1  0
 32 66  1  0
 34 67  1  0
 34 68  1  0
M  END
>  <smiles>  (44) 
c1ccc2c(c1)CCC(c1nc(NCCN3CCCC3)nc(N3CCc4ccccc4C3)n1)C2

>  <score_type>  (44) 
oracle

>  <origin>  (44) 
autodockgpu

>  <m_score__min__energy>  (44) 
-10.43

>  <m_primary>  (44) 
energy

>  <rmsd>  (44) 
8.460532431639523

>  <m_score__min__rmsd>  (44) 
8.460532431639523

>  <meeko>  (44) 
{"free_energy": -9.97, "intermolecular_energy": -11.76, "internal_energy": -1.71, "cluster_size": 33, "cluster_id": 2, "rank_in_cluster": 14}

>  <energy>  (44) 
-9.06

>  <cluster_rmsd>  (44) 
1.42

>  <cluster>  (44) 
2

$$$$

     RDKit          3D

 68 73  0  0  0  0  0  0  0  0999 V2000
  140.1180   68.1660  227.5210 C   0  0  0  0  0  0  0  0  0  0  0  0
  141.0360   69.1770  227.6980 C   0  0  0  0  0  0  0  0  0  0  0  0
  141.0410   70.2610  226.8460 C   0  0  0  0  0  0  0  0  0  0  0  0
  140.1410   70.3720  225.8000 C   0  0  0  0  0  0  0  0  0  0  0  0
  139.2400   69.3620  225.6410 C   0  0  0  0  0  0  0  0  0  0  0  0
  139.2060   68.2500  226.4850 C   0  0  0  0  0  0  0  0  0  0  0  0
  138.2640   69.4890  224.5020 C   0  0  0  0  0  0  0  0  0  0  0  0
  139.0240   70.0700  223.3460 C   0  0  0  0  0  0  0  0  0  0  0  0
  139.4720   71.4790  223.6590 C   0  0  2  0  0  0  0  0  0  0  0  0
  140.3990   71.9060  222.5730 C   0  0  0  0  0  0  0  0  0  0  0  0
  140.7390   73.1840  222.3460 N   0  0  0  0  0  0  0  0  0  0  0  0
  141.5730   73.5180  221.3650 C   0  0  0  0  0  0  0  0  0  0  0  0
  141.9080   74.8820  221.1480 N   0  0  0  0  0  0  0  0  0  0  0  0
  142.2040   75.3990  219.8210 C   0  0  0  0  0  0  0  0  0  0  0  0
  143.6840   75.4070  219.5410 C   0  0  0  0  0  0  0  0  0  0  0  0
  144.3470   74.2210  220.0230 N   0  0  0  0  0  0  0  0  0  0  0  0
  145.4930   74.4860  220.8620 C   0  0  0  0  0  0  0  0  0  0  0  0
  145.9460   73.0480  221.1470 C   0  0  0  0  0  0  0  0  0  0  0  0
  145.7920   72.4400  219.7680 C   0  0  0  0  0  0  0  0  0  0  0  0
  144.9200   73.4280  218.9800 C   0  0  0  0  0  0  0  0  0  0  0  0
  142.0730   72.5180  220.5940 N   0  0  0  0  0  0  0  0  0  0  0  0
  141.7650   71.2230  220.7770 C   0  0  0  0  0  0  0  0  0  0  0  0
  142.3100   70.2050  219.9460 N   0  0  0  0  0  0  0  0  0  0  0  0
  141.4430   69.1620  219.4340 C   0  0  0  0  0  0  0  0  0  0  0  0
  142.0390   68.6290  218.1440 C   0  0  0  0  0  0  0  0  0  0  0  0
  143.3450   68.0250  218.5290 C   0  0  0  0  0  0  0  0  0  0  0  0
  143.7140   66.7460  218.1770 C   0  0  0  0  0  0  0  0  0  0  0  0
  144.9600   66.2650  218.5830 C   0  0  0  0  0  0  0  0  0  0  0  0
  145.8230   67.0660  219.3370 C   0  0  0  0  0  0  0  0  0  0  0  0
  145.4320   68.3590  219.6840 C   0  0  0  0  0  0  0  0  0  0  0  0
  144.1950   68.8200  219.2740 C   0  0  0  0  0  0  0  0  0  0  0  0
  143.7100   70.1860  219.6050 C   0  0  0  0  0  0  0  0  0  0  0  0
  140.9170   70.9400  221.7840 N   0  0  0  0  0  0  0  0  0  0  0  0
  140.2380   71.5720  224.9500 C   0  0  0  0  0  0  0  0  0  0  0  0
  140.1102   67.2990  228.1979 H   0  0  0  0  0  0  0  0  0  0  0  0
  141.7655   69.1198  228.5193 H   0  0  0  0  0  0  0  0  0  0  0  0
  141.7808   71.0600  227.0018 H   0  0  0  0  0  0  0  0  0  0  0  0
  138.4647   67.4526  226.3280 H   0  0  0  0  0  0  0  0  0  0  0  0
  137.8635   68.5002  224.2339 H   0  0  0  0  0  0  0  0  0  0  0  0
  137.4139   70.1298  224.7789 H   0  0  0  0  0  0  0  0  0  0  0  0
  139.9072   69.4462  223.1438 H   0  0  0  0  0  0  0  0  0  0  0  0
  138.3659   70.0943  222.4649 H   0  0  0  0  0  0  0  0  0  0  0  0
  138.5732   72.1077  223.7424 H   0  0  0  0  0  0  0  0  0  0  0  0
  141.9510   75.5580  221.9450 H   0  0  0  0  0  0  0  0  0  0  0  0
  141.7035   74.7668  219.0728 H   0  0  0  0  0  0  0  0  0  0  0  0
  141.8406   76.4360  219.7692 H   0  0  0  0  0  0  0  0  0  0  0  0
  143.8363   75.4783  218.4539 H   0  0  0  0  0  0  0  0  0  0  0  0
  144.1179   76.2687  220.0695 H   0  0  0  0  0  0  0  0  0  0  0  0
  146.2656   75.0604  220.3298 H   0  0  0  0  0  0  0  0  0  0  0  0
  145.2853   75.0940  221.7549 H   0  0  0  0  0  0  0  0  0  0  0  0
  146.9890   73.0107  221.4945 H   0  0  0  0  0  0  0  0  0  0  0  0
  145.3840   72.5363  221.9422 H   0  0  0  0  0  0  0  0  0  0  0  0
  146.7743   72.3252  219.2864 H   0  0  0  0  0  0  0  0  0  0  0  0
  145.3379   71.4391  219.8114 H   0  0  0  0  0  0  0  0  0  0  0  0
  145.5281   74.0424  218.2997 H   0  0  0  0  0  0  0  0  0  0  0  0
  144.1744   72.9418  218.3337 H   0  0  0  0  0  0  0  0  0  0  0  0
  141.3660   68.3488  220.1708 H   0  0  0  0  0  0  0  0  0  0  0  0
  140.4378   69.5670  219.2452 H   0  0  0  0  0  0  0  0  0  0  0  0
  141.3793   67.8683  217.7011 H   0  0  0  0  0  0  0  0  0  0  0  0
  142.1621   69.4229  217.3926 H   0  0  0  0  0  0  0  0  0  0  0  0
  143.0371   66.1127  217.5847 H   0  0  0  0  0  0  0  0  0  0  0  0
  145.2661   65.2452  218.3068 H   0  0  0  0  0  0  0  0  0  0  0  0
  146.8028   66.6794  219.6541 H   0  0  0  0  0  0  0  0  0  0  0  0
  146.0989   69.0032  220.2759 H   0  0  0  0  0  0  0  0  0  0  0  0
  144.2869   70.5680  220.4601 H   0  0  0  0  0  0  0  0  0  0  0  0
  143.8462   70.8152  218.7130 H   0  0  0  0  0  0  0  0  0  0  0  0
  141.2984   71.7396  224.7102 H   0  0  0  0  0  0  0  0  0  0  0  0
  139.7932   72.3999  225.5215 H   0  0  0  0  0  0  0  0  0  0  0  0
  1  2  2  0
  2  3  1  0
  3  4  2  0
  4  5  1  0
  5  6  2  0
  5  7  1  0
  7  8  1  0
  8  9  1  0
  9 10  1  0
 10 11  2  0
 11 12  1  0
 12 13  1  0
 13 14  1  0
 14 15  1  0
 15 16  1  0
 16 17  1  0
 17 18  1  0
 18 19  1  0
 19 20  1  0
 12 21  2  0
 21 22  1  0
 22 23  1  0
 23 24  1  0
 24 25  1  0
 25 26  1  0
 26 27  2  0
 27 28  1  0
 28 29  2  0
 29 30  1  0
 30 31  2  0
 31 32  1  0
 22 33  2  0
  9 34  1  0
  6  1  1  0
 33 10  1  0
 34  4  1  0
 20 16  1  0
 32 23  1  0
 31 26  1  0
  1 35  1  0
  2 36  1  0
  3 37  1  0
  6 38  1  0
  7 39  1  0
  7 40  1  0
  8 41  1  0
  8 42  1  0
  9 43  1  1
 13 44  1  0
 14 45  1  0
 14 46  1  0
 15 47  1  0
 15 48  1  0
 17 49  1  0
 17 50  1  0
 18 51  1  0
 18 52  1  0
 19 53  1  0
 19 54  1  0
 20 55  1  0
 20 56  1  0
 24 57  1  0
 24 58  1  0
 25 59  1  0
 25 60  1  0
 27 61  1  0
 28 62  1  0
 29 63  1  0
 30 64  1  0
 32 65  1  0
 32 66  1  0
 34 67  1  0
 34 68  1  0
M  END
>  <smiles>  (45) 
c1ccc2c(c1)CCC(c1nc(NCCN3CCCC3)nc(N3CCc4ccccc4C3)n1)C2

>  <score_type>  (45) 
oracle

>  <origin>  (45) 
autodockgpu

>  <m_score__min__energy>  (45) 
-10.43

>  <m_primary>  (45) 
energy

>  <rmsd>  (45) 
5.784723089899448

>  <m_score__min__rmsd>  (45) 
5.784723089899448

>  <meeko>  (45) 
{"free_energy": -9.41, "intermolecular_energy": -11.2, "internal_energy": -1.81, "cluster_size": 4, "cluster_id": 3, "rank_in_cluster": 3}

>  <energy>  (45) 
-9.02

>  <cluster_rmsd>  (45) 
1.01

>  <cluster>  (45) 
2

$$$$

     RDKit          3D

 68 73  0  0  0  0  0  0  0  0999 V2000
  140.3240   67.7760  226.8210 C   0  0  0  0  0  0  0  0  0  0  0  0
  141.1190   68.8510  227.1520 C   0  0  0  0  0  0  0  0  0  0  0  0
  140.9980   70.0370  226.4600 C   0  0  0  0  0  0  0  0  0  0  0  0
  140.0900   70.1900  225.4260 C   0  0  0  0  0  0  0  0  0  0  0  0
  139.3120   69.1160  225.1130 C   0  0  0  0  0  0  0  0  0  0  0  0
  139.4080   67.9010  225.7930 C   0  0  0  0  0  0  0  0  0  0  0  0
  138.3270   69.2900  223.9880 C   0  0  0  0  0  0  0  0  0  0  0  0
  139.0140   70.1110  222.9370 C   0  0  0  0  0  0  0  0  0  0  0  0
  139.2970   71.5040  223.4500 C   0  0  2  0  0  0  0  0  0  0  0  0
  140.1670   72.1830  222.4490 C   0  0  0  0  0  0  0  0  0  0  0  0
  140.2820   73.5150  222.3480 N   0  0  0  0  0  0  0  0  0  0  0  0
  141.0740   74.0780  221.4380 C   0  0  0  0  0  0  0  0  0  0  0  0
  141.1690   75.4940  221.3530 N   0  0  0  0  0  0  0  0  0  0  0  0
  140.1880   76.2870  220.6300 C   0  0  0  0  0  0  0  0  0  0  0  0
  140.5320   77.7530  220.6480 C   0  0  0  0  0  0  0  0  0  0  0  0
  141.3640   78.1160  221.7670 N   0  0  0  0  0  0  0  0  0  0  0  0
  140.6380   78.3250  222.9990 C   0  0  0  0  0  0  0  0  0  0  0  0
  141.8000   78.7140  223.9240 C   0  0  0  0  0  0  0  0  0  0  0  0
  142.5720   79.6410  223.0080 C   0  0  0  0  0  0  0  0  0  0  0  0
  142.0290   79.3700  221.5980 C   0  0  0  0  0  0  0  0  0  0  0  0
  141.7680   73.2550  220.6110 N   0  0  0  0  0  0  0  0  0  0  0  0
  141.6900   71.9140  220.6700 C   0  0  0  0  0  0  0  0  0  0  0  0
  142.4330   71.0870  219.7830 N   0  0  0  0  0  0  0  0  0  0  0  0
  141.8560   70.7060  218.5100 C   0  0  0  0  0  0  0  0  0  0  0  0
  142.9820   70.4200  217.5340 C   0  0  0  0  0  0  0  0  0  0  0  0
  143.7120   69.2510  218.1010 C   0  0  0  0  0  0  0  0  0  0  0  0
  143.9960   68.1180  217.3740 C   0  0  0  0  0  0  0  0  0  0  0  0
  144.6860   67.0730  217.9900 C   0  0  0  0  0  0  0  0  0  0  0  0
  145.0830   67.1710  219.3270 C   0  0  0  0  0  0  0  0  0  0  0  0
  144.7850   68.3270  220.0490 C   0  0  0  0  0  0  0  0  0  0  0  0
  144.1020   69.3520  219.4230 C   0  0  0  0  0  0  0  0  0  0  0  0
  143.7500   70.6140  220.1270 C   0  0  0  0  0  0  0  0  0  0  0  0
  140.8740   71.3980  221.6080 N   0  0  0  0  0  0  0  0  0  0  0  0
  140.0470   71.5010  224.7540 C   0  0  0  0  0  0  0  0  0  0  0  0
  140.4170   66.8270  227.3694 H   0  0  0  0  0  0  0  0  0  0  0  0
  141.8506   68.7630  227.9687 H   0  0  0  0  0  0  0  0  0  0  0  0
  141.6408   70.8856  226.7370 H   0  0  0  0  0  0  0  0  0  0  0  0
  138.7635   67.0541  225.5148 H   0  0  0  0  0  0  0  0  0  0  0  0
  138.0429   68.3097  223.5778 H   0  0  0  0  0  0  0  0  0  0  0  0
  137.4089   69.7840  224.3387 H   0  0  0  0  0  0  0  0  0  0  0  0
  139.9631   69.6269  222.6634 H   0  0  0  0  0  0  0  0  0  0  0  0
  138.3564   70.1838  222.0582 H   0  0  0  0  0  0  0  0  0  0  0  0
  138.3320   72.0085  223.6057 H   0  0  0  0  0  0  0  0  0  0  0  0
  141.9550   76.0080  221.8140 H   0  0  0  0  0  0  0  0  0  0  0  0
  140.1511   75.9426  219.5860 H   0  0  0  0  0  0  0  0  0  0  0  0
  139.2132   76.1581  221.1231 H   0  0  0  0  0  0  0  0  0  0  0  0
  141.0652   78.0006  219.7183 H   0  0  0  0  0  0  0  0  0  0  0  0
  139.5901   78.3138  220.7390 H   0  0  0  0  0  0  0  0  0  0  0  0
  139.8998   79.1353  222.9065 H   0  0  0  0  0  0  0  0  0  0  0  0
  140.0404   77.4661  223.3385 H   0  0  0  0  0  0  0  0  0  0  0  0
  141.4461   79.2343  224.8262 H   0  0  0  0  0  0  0  0  0  0  0  0
  142.3798   77.8665  224.3184 H   0  0  0  0  0  0  0  0  0  0  0  0
  142.4015   80.6903  223.2905 H   0  0  0  0  0  0  0  0  0  0  0  0
  143.6561   79.4649  223.0686 H   0  0  0  0  0  0  0  0  0  0  0  0
  141.3258   80.1553  221.2836 H   0  0  0  0  0  0  0  0  0  0  0  0
  142.8067   79.3564  220.8202 H   0  0  0  0  0  0  0  0  0  0  0  0
  141.2387   69.8046  218.6379 H   0  0  0  0  0  0  0  0  0  0  0  0
  141.2234   71.5197  218.1257 H   0  0  0  0  0  0  0  0  0  0  0  0
  142.5772   70.1758  216.5408 H   0  0  0  0  0  0  0  0  0  0  0  0
  143.6421   71.2905  217.4055 H   0  0  0  0  0  0  0  0  0  0  0  0
  143.6837   68.0370  216.3224 H   0  0  0  0  0  0  0  0  0  0  0  0
  144.9199   66.1631  217.4179 H   0  0  0  0  0  0  0  0  0  0  0  0
  145.6261   66.3430  219.8060 H   0  0  0  0  0  0  0  0  0  0  0  0
  145.0895   68.4211  221.1018 H   0  0  0  0  0  0  0  0  0  0  0  0
  143.7890   70.4359  221.2118 H   0  0  0  0  0  0  0  0  0  0  0  0
  144.4734   71.3829  219.8180 H   0  0  0  0  0  0  0  0  0  0  0  0
  141.0808   71.8215  224.5576 H   0  0  0  0  0  0  0  0  0  0  0  0
  139.5088   72.1832  225.4285 H   0  0  0  0  0  0  0  0  0  0  0  0
  1  2  2  0
  2  3  1  0
  3  4  2  0
  4  5  1  0
  5  6  2  0
  5  7  1  0
  7  8  1  0
  8  9  1  0
  9 10  1  0
 10 11  2  0
 11 12  1  0
 12 13  1  0
 13 14  1  0
 14 15  1  0
 15 16  1  0
 16 17  1  0
 17 18  1  0
 18 19  1  0
 19 20  1  0
 12 21  2  0
 21 22  1  0
 22 23  1  0
 23 24  1  0
 24 25  1  0
 25 26  1  0
 26 27  2  0
 27 28  1  0
 28 29  2  0
 29 30  1  0
 30 31  2  0
 31 32  1  0
 22 33  2  0
  9 34  1  0
  6  1  1  0
 33 10  1  0
 34  4  1  0
 20 16  1  0
 32 23  1  0
 31 26  1  0
  1 35  1  0
  2 36  1  0
  3 37  1  0
  6 38  1  0
  7 39  1  0
  7 40  1  0
  8 41  1  0
  8 42  1  0
  9 43  1  1
 13 44  1  0
 14 45  1  0
 14 46  1  0
 15 47  1  0
 15 48  1  0
 17 49  1  0
 17 50  1  0
 18 51  1  0
 18 52  1  0
 19 53  1  0
 19 54  1  0
 20 55  1  0
 20 56  1  0
 24 57  1  0
 24 58  1  0
 25 59  1  0
 25 60  1  0
 27 61  1  0
 28 62  1  0
 29 63  1  0
 30 64  1  0
 32 65  1  0
 32 66  1  0
 34 67  1  0
 34 68  1  0
M  END
>  <smiles>  (46) 
c1ccc2c(c1)CCC(c1nc(NCCN3CCCC3)nc(N3CCc4ccccc4C3)n1)C2

>  <score_type>  (46) 
oracle

>  <origin>  (46) 
autodockgpu

>  <m_score__min__energy>  (46) 
-10.43

>  <m_primary>  (46) 
energy

>  <rmsd>  (46) 
5.280182716108172

>  <m_score__min__rmsd>  (46) 
5.280182716108172

>  <meeko>  (46) 
{"free_energy": -9.32, "intermolecular_energy": -11.11, "internal_energy": -1.78, "cluster_size": 4, "cluster_id": 3, "rank_in_cluster": 4}

>  <energy>  (46) 
-8.87

>  <cluster_rmsd>  (46) 
1.81

>  <cluster>  (46) 
2

$$$$

     RDKit          3D

 68 73  0  0  0  0  0  0  0  0999 V2000
  145.8510   68.1860  219.5070 C   0  0  0  0  0  0  0  0  0  0  0  0
  144.5690   67.7600  219.7770 C   0  0  0  0  0  0  0  0  0  0  0  0
  143.5170   68.6480  219.6970 C   0  0  0  0  0  0  0  0  0  0  0  0
  143.7050   69.9750  219.3510 C   0  0  0  0  0  0  0  0  0  0  0  0
  144.9800   70.3770  219.0870 C   0  0  0  0  0  0  0  0  0  0  0  0
  146.0680   69.5060  219.1580 C   0  0  0  0  0  0  0  0  0  0  0  0
  145.1770   71.8210  218.7120 C   0  0  0  0  0  0  0  0  0  0  0  0
  144.2490   72.6230  219.5770 C   0  0  0  0  0  0  0  0  0  0  0  0
  142.8090   72.3080  219.2460 C   0  0  2  0  0  0  0  0  0  0  0  0
  141.9580   72.9620  220.2810 C   0  0  0  0  0  0  0  0  0  0  0  0
  141.1850   72.2840  221.1430 N   0  0  0  0  0  0  0  0  0  0  0  0
  140.4430   72.9110  222.0530 C   0  0  0  0  0  0  0  0  0  0  0  0
  139.6300   72.1630  222.9480 N   0  0  0  0  0  0  0  0  0  0  0  0
  140.0400   70.8640  223.4550 C   0  0  0  0  0  0  0  0  0  0  0  0
  141.0700   70.9890  224.5460 C   0  0  0  0  0  0  0  0  0  0  0  0
  140.4810   71.0970  225.8570 N   0  0  0  0  0  0  0  0  0  0  0  0
  141.2560   71.8840  226.7880 C   0  0  0  0  0  0  0  0  0  0  0  0
  140.3740   71.7550  228.0370 C   0  0  0  0  0  0  0  0  0  0  0  0
  140.0230   70.2830  227.9670 C   0  0  0  0  0  0  0  0  0  0  0  0
  140.3790   69.8450  226.5390 C   0  0  0  0  0  0  0  0  0  0  0  0
  140.4940   74.2670  222.0820 N   0  0  0  0  0  0  0  0  0  0  0  0
  141.2510   74.9950  221.2430 C   0  0  0  0  0  0  0  0  0  0  0  0
  141.2750   76.4150  221.3050 N   0  0  0  0  0  0  0  0  0  0  0  0
  141.8670   77.1680  220.2170 C   0  0  0  0  0  0  0  0  0  0  0  0
  141.2300   78.5450  220.1790 C   0  0  0  0  0  0  0  0  0  0  0  0
  141.6020   79.1900  221.4690 C   0  0  0  0  0  0  0  0  0  0  0  0
  142.1720   80.4400  221.5480 C   0  0  0  0  0  0  0  0  0  0  0  0
  142.4860   80.9650  222.8030 C   0  0  0  0  0  0  0  0  0  0  0  0
  142.2260   80.2340  223.9660 C   0  0  0  0  0  0  0  0  0  0  0  0
  141.6480   78.9680  223.8680 C   0  0  0  0  0  0  0  0  0  0  0  0
  141.3440   78.4640  222.6170 C   0  0  0  0  0  0  0  0  0  0  0  0
  140.7250   77.1250  222.4330 C   0  0  0  0  0  0  0  0  0  0  0  0
  141.9820   74.3110  220.3420 N   0  0  0  0  0  0  0  0  0  0  0  0
  142.5090   70.8350  219.2990 C   0  0  0  0  0  0  0  0  0  0  0  0
  146.6942   67.4823  219.5685 H   0  0  0  0  0  0  0  0  0  0  0  0
  144.3846   66.7121  220.0562 H   0  0  0  0  0  0  0  0  0  0  0  0
  142.4993   68.2916  219.9144 H   0  0  0  0  0  0  0  0  0  0  0  0
  147.0845   69.8649  218.9392 H   0  0  0  0  0  0  0  0  0  0  0  0
  146.2194   72.1211  218.8947 H   0  0  0  0  0  0  0  0  0  0  0  0
  144.9636   71.9849  217.6454 H   0  0  0  0  0  0  0  0  0  0  0  0
  144.4387   72.3803  220.6330 H   0  0  0  0  0  0  0  0  0  0  0  0
  144.4293   73.6926  219.3943 H   0  0  0  0  0  0  0  0  0  0  0  0
  142.6120   72.6657  218.2246 H   0  0  0  0  0  0  0  0  0  0  0  0
  138.7060   72.5330  223.2690 H   0  0  0  0  0  0  0  0  0  0  0  0
  139.1577   70.3438  223.8563 H   0  0  0  0  0  0  0  0  0  0  0  0
  140.4885   70.2990  222.6246 H   0  0  0  0  0  0  0  0  0  0  0  0
  141.7168   70.0996  224.5230 H   0  0  0  0  0  0  0  0  0  0  0  0
  141.6401   71.9113  224.3608 H   0  0  0  0  0  0  0  0  0  0  0  0
  142.2575   71.4584  226.9488 H   0  0  0  0  0  0  0  0  0  0  0  0
  141.4601   72.9162  226.4673 H   0  0  0  0  0  0  0  0  0  0  0  0
  140.9295   71.9981  228.9548 H   0  0  0  0  0  0  0  0  0  0  0  0
  139.5094   72.4346  228.0633 H   0  0  0  0  0  0  0  0  0  0  0  0
  140.6097   69.7123  228.7019 H   0  0  0  0  0  0  0  0  0  0  0  0
  138.9621   70.1046  228.1965 H   0  0  0  0  0  0  0  0  0  0  0  0
  141.3335   69.2988  226.5154 H   0  0  0  0  0  0  0  0  0  0  0  0
  139.6465   69.1567  226.0922 H   0  0  0  0  0  0  0  0  0  0  0  0
  142.9505   77.2652  220.3800 H   0  0  0  0  0  0  0  0  0  0  0  0
  141.6957   76.6480  219.2629 H   0  0  0  0  0  0  0  0  0  0  0  0
  141.6213   79.1266  219.3313 H   0  0  0  0  0  0  0  0  0  0  0  0
  140.1390   78.4871  220.0508 H   0  0  0  0  0  0  0  0  0  0  0  0
  142.3774   81.0177  220.6348 H   0  0  0  0  0  0  0  0  0  0  0  0
  142.9422   81.9631  222.8774 H   0  0  0  0  0  0  0  0  0  0  0  0
  142.4754   80.6541  224.9515 H   0  0  0  0  0  0  0  0  0  0  0  0
  141.4372   78.3793  224.7730 H   0  0  0  0  0  0  0  0  0  0  0  0
  140.8949   76.5295  223.3421 H   0  0  0  0  0  0  0  0  0  0  0  0
  139.6518   77.2750  222.2438 H   0  0  0  0  0  0  0  0  0  0  0  0
  141.9039   70.6385  220.1963 H   0  0  0  0  0  0  0  0  0  0  0  0
  141.9821   70.5866  218.3659 H   0  0  0  0  0  0  0  0  0  0  0  0
  1  2  2  0
  2  3  1  0
  3  4  2  0
  4  5  1  0
  5  6  2  0
  5  7  1  0
  7  8  1  0
  8  9  1  0
  9 10  1  0
 10 11  2  0
 11 12  1  0
 12 13  1  0
 13 14  1  0
 14 15  1  0
 15 16  1  0
 16 17  1  0
 17 18  1  0
 18 19  1  0
 19 20  1  0
 12 21  2  0
 21 22  1  0
 22 23  1  0
 23 24  1  0
 24 25  1  0
 25 26  1  0
 26 27  2  0
 27 28  1  0
 28 29  2  0
 29 30  1  0
 30 31  2  0
 31 32  1  0
 22 33  2  0
  9 34  1  0
  6  1  1  0
 33 10  1  0
 34  4  1  0
 20 16  1  0
 32 23  1  0
 31 26  1  0
  1 35  1  0
  2 36  1  0
  3 37  1  0
  6 38  1  0
  7 39  1  0
  7 40  1  0
  8 41  1  0
  8 42  1  0
  9 43  1  6
 13 44  1  0
 14 45  1  0
 14 46  1  0
 15 47  1  0
 15 48  1  0
 17 49  1  0
 17 50  1  0
 18 51  1  0
 18 52  1  0
 19 53  1  0
 19 54  1  0
 20 55  1  0
 20 56  1  0
 24 57  1  0
 24 58  1  0
 25 59  1  0
 25 60  1  0
 27 61  1  0
 28 62  1  0
 29 63  1  0
 30 64  1  0
 32 65  1  0
 32 66  1  0
 34 67  1  0
 34 68  1  0
M  END
>  <smiles>  (47) 
c1ccc2c(c1)CCC(c1nc(NCCN3CCCC3)nc(N3CCc4ccccc4C3)n1)C2

>  <score_type>  (47) 
oracle

>  <origin>  (47) 
autodockgpu

>  <m_score__min__energy>  (47) 
-10.43

>  <m_primary>  (47) 
energy

>  <rmsd>  (47) 
8.465118153039615

>  <m_score__min__rmsd>  (47) 
8.465118153039615

>  <meeko>  (47) 
{"free_energy": -10.41, "intermolecular_energy": -12.2, "internal_energy": -1.14, "cluster_size": 13, "cluster_id": 1, "rank_in_cluster": 2}

>  <energy>  (47) 
-9.52

>  <cluster_rmsd>  (47) 
0.0

>  <cluster>  (47) 
3

$$$$

     RDKit          3D

 68 73  0  0  0  0  0  0  0  0999 V2000
  140.1540   67.7220  226.5830 C   0  0  0  0  0  0  0  0  0  0  0  0
  141.0140   68.7380  226.9360 C   0  0  0  0  0  0  0  0  0  0  0  0
  140.9420   69.9560  226.2940 C   0  0  0  0  0  0  0  0  0  0  0  0
  140.0210   70.1990  225.2890 C   0  0  0  0  0  0  0  0  0  0  0  0
  139.1790   69.1810  224.9540 C   0  0  0  0  0  0  0  0  0  0  0  0
  139.2240   67.9360  225.5830 C   0  0  0  0  0  0  0  0  0  0  0  0
  138.1800   69.4530  223.8610 C   0  0  0  0  0  0  0  0  0  0  0  0
  138.8870   70.2790  222.8260 C   0  0  0  0  0  0  0  0  0  0  0  0
  139.2560   71.6330  223.3870 C   0  0  2  0  0  0  0  0  0  0  0  0
  140.1390   72.3040  222.3920 C   0  0  0  0  0  0  0  0  0  0  0  0
  140.9370   71.6420  221.5410 N   0  0  0  0  0  0  0  0  0  0  0  0
  141.7080   72.2840  220.6680 C   0  0  0  0  0  0  0  0  0  0  0  0
  142.5470   71.5520  219.7830 N   0  0  0  0  0  0  0  0  0  0  0  0
  142.7720   71.9760  218.4110 C   0  0  0  0  0  0  0  0  0  0  0  0
  143.4100   73.3380  218.3440 C   0  0  0  0  0  0  0  0  0  0  0  0
  144.5990   73.4360  219.1510 N   0  0  0  0  0  0  0  0  0  0  0  0
  145.1150   72.1620  219.5980 C   0  0  0  0  0  0  0  0  0  0  0  0
  146.3150   72.6420  220.4250 C   0  0  0  0  0  0  0  0  0  0  0  0
  145.6890   73.8160  221.1490 C   0  0  0  0  0  0  0  0  0  0  0  0
  144.3920   74.1220  220.3880 C   0  0  0  0  0  0  0  0  0  0  0  0
  141.6620   73.6410  220.6650 N   0  0  0  0  0  0  0  0  0  0  0  0
  140.8820   74.3540  221.4950 C   0  0  0  0  0  0  0  0  0  0  0  0
  140.8640   75.7760  221.4610 N   0  0  0  0  0  0  0  0  0  0  0  0
  141.2410   76.4650  220.2440 C   0  0  0  0  0  0  0  0  0  0  0  0
  140.5580   77.8200  220.2230 C   0  0  0  0  0  0  0  0  0  0  0  0
  141.1120   78.5630  221.3900 C   0  0  0  0  0  0  0  0  0  0  0  0
  141.6420   79.8290  221.2910 C   0  0  0  0  0  0  0  0  0  0  0  0
  142.1380   80.4470  222.4400 C   0  0  0  0  0  0  0  0  0  0  0  0
  142.1000   79.7930  223.6750 C   0  0  0  0  0  0  0  0  0  0  0  0
  141.5590   78.5090  223.7560 C   0  0  0  0  0  0  0  0  0  0  0  0
  141.0720   77.9120  222.6080 C   0  0  0  0  0  0  0  0  0  0  0  0
  140.4810   76.5480  222.6160 C   0  0  0  0  0  0  0  0  0  0  0  0
  140.1220   73.6540  222.3590 N   0  0  0  0  0  0  0  0  0  0  0  0
  140.0340   71.5370  224.6700 C   0  0  0  0  0  0  0  0  0  0  0  0
  140.2067   66.7485  227.0924 H   0  0  0  0  0  0  0  0  0  0  0  0
  141.7582   68.5778  227.7300 H   0  0  0  0  0  0  0  0  0  0  0  0
  141.6357   70.7573  226.5885 H   0  0  0  0  0  0  0  0  0  0  0  0
  138.5291   67.1362  225.2871 H   0  0  0  0  0  0  0  0  0  0  0  0
  137.8342   68.5067  223.4194 H   0  0  0  0  0  0  0  0  0  0  0  0
  137.2981   69.9806  224.2534 H   0  0  0  0  0  0  0  0  0  0  0  0
  139.8023   69.7569  222.5103 H   0  0  0  0  0  0  0  0  0  0  0  0
  138.2150   70.4223  221.9670 H   0  0  0  0  0  0  0  0  0  0  0  0
  138.3237   72.1814  223.5869 H   0  0  0  0  0  0  0  0  0  0  0  0
  143.0300   70.6800  220.1010 H   0  0  0  0  0  0  0  0  0  0  0  0
  143.4331   71.2485  217.9174 H   0  0  0  0  0  0  0  0  0  0  0  0
  141.7965   72.0303  217.9056 H   0  0  0  0  0  0  0  0  0  0  0  0
  143.6762   73.5507  217.2981 H   0  0  0  0  0  0  0  0  0  0  0  0
  142.6827   74.0648  218.7349 H   0  0  0  0  0  0  0  0  0  0  0  0
  144.3843   71.6183  220.2148 H   0  0  0  0  0  0  0  0  0  0  0  0
  145.3581   71.4508  218.7949 H   0  0  0  0  0  0  0  0  0  0  0  0
  146.6619   71.8688  221.1263 H   0  0  0  0  0  0  0  0  0  0  0  0
  147.2119   72.8873  219.8373 H   0  0  0  0  0  0  0  0  0  0  0  0
  145.4685   73.5504  222.1934 H   0  0  0  0  0  0  0  0  0  0  0  0
  146.3620   74.6857  221.1750 H   0  0  0  0  0  0  0  0  0  0  0  0
  143.5143   73.7275  220.9209 H   0  0  0  0  0  0  0  0  0  0  0  0
  144.1930   75.1973  220.2688 H   0  0  0  0  0  0  0  0  0  0  0  0
  142.3324   76.5997  220.2174 H   0  0  0  0  0  0  0  0  0  0  0  0
  140.9332   75.8755  219.3678 H   0  0  0  0  0  0  0  0  0  0  0  0
  140.7850   78.3505  219.2865 H   0  0  0  0  0  0  0  0  0  0  0  0
  139.4635   77.7264  220.2810 H   0  0  0  0  0  0  0  0  0  0  0  0
  141.6743   80.3463  220.3208 H   0  0  0  0  0  0  0  0  0  0  0  0
  142.5633   81.4593  222.3731 H   0  0  0  0  0  0  0  0  0  0  0  0
  142.4934   80.2865  224.5759 H   0  0  0  0  0  0  0  0  0  0  0  0
  141.5206   77.9796  224.7194 H   0  0  0  0  0  0  0  0  0  0  0  0
  140.8196   76.0217  223.5207 H   0  0  0  0  0  0  0  0  0  0  0  0
  139.3865   76.6568  222.5985 H   0  0  0  0  0  0  0  0  0  0  0  0
  141.0789   71.8094  224.4604 H   0  0  0  0  0  0  0  0  0  0  0  0
  139.5492   72.2190  225.3840 H   0  0  0  0  0  0  0  0  0  0  0  0
  1  2  2  0
  2  3  1  0
  3  4  2  0
  4  5  1  0
  5  6  2  0
  5  7  1  0
  7  8  1  0
  8  9  1  0
  9 10  1  0
 10 11  2  0
 11 12  1  0
 12 13  1  0
 13 14  1  0
 14 15  1  0
 15 16  1  0
 16 17  1  0
 17 18  1  0
 18 19  1  0
 19 20  1  0
 12 21  2  0
 21 22  1  0
 22 23  1  0
 23 24  1  0
 24 25  1  0
 25 26  1  0
 26 27  2  0
 27 28  1  0
 28 29  2  0
 29 30  1  0
 30 31  2  0
 31 32  1  0
 22 33  2  0
  9 34  1  0
  6  1  1  0
 33 10  1  0
 34  4  1  0
 20 16  1  0
 32 23  1  0
 31 26  1  0
  1 35  1  0
  2 36  1  0
  3 37  1  0
  6 38  1  0
  7 39  1  0
  7 40  1  0
  8 41  1  0
  8 42  1  0
  9 43  1  1
 13 44  1  0
 14 45  1  0
 14 46  1  0
 15 47  1  0
 15 48  1  0
 17 49  1  0
 17 50  1  0
 18 51  1  0
 18 52  1  0
 19 53  1  0
 19 54  1  0
 20 55  1  0
 20 56  1  0
 24 57  1  0
 24 58  1  0
 25 59  1  0
 25 60  1  0
 27 61  1  0
 28 62  1  0
 29 63  1  0
 30 64  1  0
 32 65  1  0
 32 66  1  0
 34 67  1  0
 34 68  1  0
M  END
>  <smiles>  (48) 
c1ccc2c(c1)CCC(c1nc(NCCN3CCCC3)nc(N3CCc4ccccc4C3)n1)C2

>  <score_type>  (48) 
oracle

>  <origin>  (48) 
autodockgpu

>  <m_score__min__energy>  (48) 
-10.43

>  <m_primary>  (48) 
energy

>  <rmsd>  (48) 
6.122526584043727

>  <m_score__min__rmsd>  (48) 
6.122526584043727

>  <meeko>  (48) 
{"free_energy": -9.77, "intermolecular_energy": -11.56, "internal_energy": -1.11, "cluster_size": 33, "cluster_id": 2, "rank_in_cluster": 25}

>  <energy>  (48) 
-9.49

>  <cluster_rmsd>  (48) 
0.12

>  <cluster>  (48) 
3

$$$$

     RDKit          3D

 68 73  0  0  0  0  0  0  0  0999 V2000
  140.2490   67.8080  226.8670 C   0  0  0  0  0  0  0  0  0  0  0  0
  141.0790   68.8400  227.2460 C   0  0  0  0  0  0  0  0  0  0  0  0
  141.0590   70.0310  226.5510 C   0  0  0  0  0  0  0  0  0  0  0  0
  140.2200   70.2310  225.4670 C   0  0  0  0  0  0  0  0  0  0  0  0
  139.4070   69.1980  225.1080 C   0  0  0  0  0  0  0  0  0  0  0  0
  139.4010   67.9790  225.7890 C   0  0  0  0  0  0  0  0  0  0  0  0
  138.4980   69.4220  223.9290 C   0  0  0  0  0  0  0  0  0  0  0  0
  139.2850   70.2060  222.9210 C   0  0  0  0  0  0  0  0  0  0  0  0
  139.6100   71.5830  223.4530 C   0  0  2  0  0  0  0  0  0  0  0  0
  140.5700   72.2160  222.5050 C   0  0  0  0  0  0  0  0  0  0  0  0
  141.4860   71.5280  221.8070 N   0  0  0  0  0  0  0  0  0  0  0  0
  142.3220   72.1360  220.9690 C   0  0  0  0  0  0  0  0  0  0  0  0
  143.2850   71.3780  220.2490 N   0  0  0  0  0  0  0  0  0  0  0  0
  144.3900   72.0090  219.5450 C   0  0  0  0  0  0  0  0  0  0  0  0
  145.1680   71.0180  218.7220 C   0  0  0  0  0  0  0  0  0  0  0  0
  145.0600   69.6720  219.2240 N   0  0  0  0  0  0  0  0  0  0  0  0
  146.3100   68.9450  219.2370 C   0  0  0  0  0  0  0  0  0  0  0  0
  145.8210   67.5950  219.7790 C   0  0  0  0  0  0  0  0  0  0  0  0
  144.5390   67.4360  218.9870 C   0  0  0  0  0  0  0  0  0  0  0  0
  144.2350   68.8290  218.4170 C   0  0  0  0  0  0  0  0  0  0  0  0
  142.2180   73.4830  220.8420 N   0  0  0  0  0  0  0  0  0  0  0  0
  141.3190   74.2210  221.5160 C   0  0  0  0  0  0  0  0  0  0  0  0
  141.2440   75.6310  221.3550 N   0  0  0  0  0  0  0  0  0  0  0  0
  141.8120   76.2460  220.1730 C   0  0  0  0  0  0  0  0  0  0  0  0
  141.0840   77.5510  219.9090 C   0  0  0  0  0  0  0  0  0  0  0  0
  141.3750   78.4140  221.0880 C   0  0  0  0  0  0  0  0  0  0  0  0
  141.8560   79.6990  220.9780 C   0  0  0  0  0  0  0  0  0  0  0  0
  142.0980   80.4330  222.1410 C   0  0  0  0  0  0  0  0  0  0  0  0
  141.8580   79.8750  223.3990 C   0  0  0  0  0  0  0  0  0  0  0  0
  141.3700   78.5720  223.4910 C   0  0  0  0  0  0  0  0  0  0  0  0
  141.1360   77.8590  222.3310 C   0  0  0  0  0  0  0  0  0  0  0  0
  140.6160   76.4660  222.3490 C   0  0  0  0  0  0  0  0  0  0  0  0
  140.4980   73.5550  222.3510 N   0  0  0  0  0  0  0  0  0  0  0  0
  140.2840   71.5420  224.7970 C   0  0  0  0  0  0  0  0  0  0  0  0
  140.2610   66.8558  227.4177 H   0  0  0  0  0  0  0  0  0  0  0  0
  141.7575   68.7142  228.1027 H   0  0  0  0  0  0  0  0  0  0  0  0
  141.7282   70.8451  226.8663 H   0  0  0  0  0  0  0  0  0  0  0  0
  138.7309   67.1663  225.4720 H   0  0  0  0  0  0  0  0  0  0  0  0
  138.1878   68.4574  223.5008 H   0  0  0  0  0  0  0  0  0  0  0  0
  137.5880   69.9628  224.2280 H   0  0  0  0  0  0  0  0  0  0  0  0
  140.2219   69.6734  222.7004 H   0  0  0  0  0  0  0  0  0  0  0  0
  138.6830   70.3124  222.0065 H   0  0  0  0  0  0  0  0  0  0  0  0
  138.6647   72.1363  223.5548 H   0  0  0  0  0  0  0  0  0  0  0  0
  143.2250   70.3340  220.2070 H   0  0  0  0  0  0  0  0  0  0  0  0
  143.9896   72.7879  218.8794 H   0  0  0  0  0  0  0  0  0  0  0  0
  145.0706   72.4400  220.2940 H   0  0  0  0  0  0  0  0  0  0  0  0
  144.7864   71.0406  217.6906 H   0  0  0  0  0  0  0  0  0  0  0  0
  146.2285   71.3063  218.7698 H   0  0  0  0  0  0  0  0  0  0  0  0
  146.7385   68.8499  218.2284 H   0  0  0  0  0  0  0  0  0  0  0  0
  147.1161   69.4157  219.8189 H   0  0  0  0  0  0  0  0  0  0  0  0
  146.5355   66.7868  219.5640 H   0  0  0  0  0  0  0  0  0  0  0  0
  145.6965   67.5543  220.8712 H   0  0  0  0  0  0  0  0  0  0  0  0
  144.6774   66.7091  218.1730 H   0  0  0  0  0  0  0  0  0  0  0  0
  143.7155   67.0621  219.6132 H   0  0  0  0  0  0  0  0  0  0  0  0
  144.5149   68.8953  217.3553 H   0  0  0  0  0  0  0  0  0  0  0  0
  143.1682   69.0954  218.4474 H   0  0  0  0  0  0  0  0  0  0  0  0
  142.8815   76.4447  220.3362 H   0  0  0  0  0  0  0  0  0  0  0  0
  141.7023   75.5732  219.3097 H   0  0  0  0  0  0  0  0  0  0  0  0
  141.4581   78.0204  218.9872 H   0  0  0  0  0  0  0  0  0  0  0  0
  140.0035   77.3956  219.7734 H   0  0  0  0  0  0  0  0  0  0  0  0
  142.0469   80.1410  219.9889 H   0  0  0  0  0  0  0  0  0  0  0  0
  142.4816   81.4612  222.0658 H   0  0  0  0  0  0  0  0  0  0  0  0
  142.0526   80.4593  224.3104 H   0  0  0  0  0  0  0  0  0  0  0  0
  141.1740   78.1181  224.4736 H   0  0  0  0  0  0  0  0  0  0  0  0
  140.8018   76.0326  223.3428 H   0  0  0  0  0  0  0  0  0  0  0  0
  139.5406   76.5069  222.1213 H   0  0  0  0  0  0  0  0  0  0  0  0
  141.3426   71.8077  224.6599 H   0  0  0  0  0  0  0  0  0  0  0  0
  139.7454   72.2522  225.4416 H   0  0  0  0  0  0  0  0  0  0  0  0
  1  2  2  0
  2  3  1  0
  3  4  2  0
  4  5  1  0
  5  6  2  0
  5  7  1  0
  7  8  1  0
  8  9  1  0
  9 10  1  0
 10 11  2  0
 11 12  1  0
 12 13  1  0
 13 14  1  0
 14 15  1  0
 15 16  1  0
 16 17  1  0
 17 18  1  0
 18 19  1  0
 19 20  1  0
 12 21  2  0
 21 22  1  0
 22 23  1  0
 23 24  1  0
 24 25  1  0
 25 26  1  0
 26 27  2  0
 27 28  1  0
 28 29  2  0
 29 30  1  0
 30 31  2  0
 31 32  1  0
 22 33  2  0
  9 34  1  0
  6  1  1  0
 33 10  1  0
 34  4  1  0
 20 16  1  0
 32 23  1  0
 31 26  1  0
  1 35  1  0
  2 36  1  0
  3 37  1  0
  6 38  1  0
  7 39  1  0
  7 40  1  0
  8 41  1  0
  8 42  1  0
  9 43  1  1
 13 44  1  0
 14 45  1  0
 14 46  1  0
 15 47  1  0
 15 48  1  0
 17 49  1  0
 17 50  1  0
 18 51  1  0
 18 52  1  0
 19 53  1  0
 19 54  1  0
 20 55  1  0
 20 56  1  0
 24 57  1  0
 24 58  1  0
 25 59  1  0
 25 60  1  0
 27 61  1  0
 28 62  1  0
 29 63  1  0
 30 64  1  0
 32 65  1  0
 32 66  1  0
 34 67  1  0
 34 68  1  0
M  END
>  <smiles>  (49) 
c1ccc2c(c1)CCC(c1nc(NCCN3CCCC3)nc(N3CCc4ccccc4C3)n1)C2

>  <score_type>  (49) 
oracle

>  <origin>  (49) 
autodockgpu

>  <m_score__min__energy>  (49) 
-10.43

>  <m_primary>  (49) 
energy

>  <rmsd>  (49) 
8.396070875050071

>  <m_score__min__rmsd>  (49) 
8.396070875050071

>  <meeko>  (49) 
{"free_energy": -10.04, "intermolecular_energy": -11.83, "internal_energy": -1.72, "cluster_size": 33, "cluster_id": 2, "rank_in_cluster": 8}

>  <energy>  (49) 
-9.41

>  <cluster_rmsd>  (49) 
1.45

>  <cluster>  (49) 
3

$$$$

     RDKit          3D

 68 73  0  0  0  0  0  0  0  0999 V2000
  140.2690   67.8240  226.4030 C   0  0  0  0  0  0  0  0  0  0  0  0
  141.1890   68.7800  226.7710 C   0  0  0  0  0  0  0  0  0  0  0  0
  141.1720   70.0210  226.1690 C   0  0  0  0  0  0  0  0  0  0  0  0
  140.2470   70.3450  225.1910 C   0  0  0  0  0  0  0  0  0  0  0  0
  139.3450   69.3860  224.8410 C   0  0  0  0  0  0  0  0  0  0  0  0
  139.3330   68.1200  225.4290 C   0  0  0  0  0  0  0  0  0  0  0  0
  138.3430   69.7460  223.7770 C   0  0  0  0  0  0  0  0  0  0  0  0
  139.0740   70.5650  222.7550 C   0  0  0  0  0  0  0  0  0  0  0  0
  139.5270   71.8790  223.3510 C   0  0  2  0  0  0  0  0  0  0  0  0
  140.4270   72.5330  222.3600 C   0  0  0  0  0  0  0  0  0  0  0  0
  141.2070   71.8560  221.5040 N   0  0  0  0  0  0  0  0  0  0  0  0
  141.9940   72.4840  220.6340 C   0  0  0  0  0  0  0  0  0  0  0  0
  142.8130   71.7360  219.7450 N   0  0  0  0  0  0  0  0  0  0  0  0
  143.7150   70.6990  220.2190 C   0  0  0  0  0  0  0  0  0  0  0  0
  144.8350   70.4440  219.2460 C   0  0  0  0  0  0  0  0  0  0  0  0
  144.9640   69.0520  218.8980 N   0  0  0  0  0  0  0  0  0  0  0  0
  143.9980   68.1910  219.5430 C   0  0  0  0  0  0  0  0  0  0  0  0
  144.4450   66.8330  218.9850 C   0  0  0  0  0  0  0  0  0  0  0  0
  145.9480   66.9750  219.1060 C   0  0  0  0  0  0  0  0  0  0  0  0
  146.2030   68.4740  219.3170 C   0  0  0  0  0  0  0  0  0  0  0  0
  141.9830   73.8410  220.6400 N   0  0  0  0  0  0  0  0  0  0  0  0
  141.2220   74.5690  221.4750 C   0  0  0  0  0  0  0  0  0  0  0  0
  141.2410   75.9910  221.4500 N   0  0  0  0  0  0  0  0  0  0  0  0
  141.8140   76.6770  220.3100 C   0  0  0  0  0  0  0  0  0  0  0  0
  141.1720   78.0470  220.1970 C   0  0  0  0  0  0  0  0  0  0  0  0
  141.5590   78.7720  221.4400 C   0  0  0  0  0  0  0  0  0  0  0  0
  142.1250   80.0260  221.4330 C   0  0  0  0  0  0  0  0  0  0  0  0
  142.4540   80.6270  222.6500 C   0  0  0  0  0  0  0  0  0  0  0  0
  142.2140   79.9680  223.8590 C   0  0  0  0  0  0  0  0  0  0  0  0
  141.6390   78.6970  223.8460 C   0  0  0  0  0  0  0  0  0  0  0  0
  141.3190   78.1160  222.6330 C   0  0  0  0  0  0  0  0  0  0  0  0
  140.7040   76.7670  222.5400 C   0  0  0  0  0  0  0  0  0  0  0  0
  140.4440   73.8840  222.3350 N   0  0  0  0  0  0  0  0  0  0  0  0
  140.3220   71.7000  224.6140 C   0  0  0  0  0  0  0  0  0  0  0  0
  140.2784   66.8328  226.8799 H   0  0  0  0  0  0  0  0  0  0  0  0
  141.9374   68.5542  227.5449 H   0  0  0  0  0  0  0  0  0  0  0  0
  141.9136   70.7739  226.4743 H   0  0  0  0  0  0  0  0  0  0  0  0
  138.5901   67.3690  225.1222 H   0  0  0  0  0  0  0  0  0  0  0  0
  137.9386   68.8342  223.3132 H   0  0  0  0  0  0  0  0  0  0  0  0
  137.4984   70.3074  224.2030 H   0  0  0  0  0  0  0  0  0  0  0  0
  139.9534   70.0048  222.4045 H   0  0  0  0  0  0  0  0  0  0  0  0
  138.3950   70.7720  221.9147 H   0  0  0  0  0  0  0  0  0  0  0  0
  138.6297   72.4700  223.5867 H   0  0  0  0  0  0  0  0  0  0  0  0
  142.7870   71.9130  218.7140 H   0  0  0  0  0  0  0  0  0  0  0  0
  144.1444   71.0135  221.1816 H   0  0  0  0  0  0  0  0  0  0  0  0
  143.1386   69.7685  220.3281 H   0  0  0  0  0  0  0  0  0  0  0  0
  144.6419   71.0195  218.3287 H   0  0  0  0  0  0  0  0  0  0  0  0
  145.7727   70.7532  219.7309 H   0  0  0  0  0  0  0  0  0  0  0  0
  144.0822   68.2307  220.6391 H   0  0  0  0  0  0  0  0  0  0  0  0
  142.9455   68.4484  219.3533 H   0  0  0  0  0  0  0  0  0  0  0  0
  144.0645   65.9981  219.5917 H   0  0  0  0  0  0  0  0  0  0  0  0
  144.0829   66.6092  217.9707 H   0  0  0  0  0  0  0  0  0  0  0  0
  146.3208   66.3971  219.9645 H   0  0  0  0  0  0  0  0  0  0  0  0
  146.4669   66.5945  218.2138 H   0  0  0  0  0  0  0  0  0  0  0  0
  146.4110   68.6985  220.3736 H   0  0  0  0  0  0  0  0  0  0  0  0
  147.0766   68.8553  218.7680 H   0  0  0  0  0  0  0  0  0  0  0  0
  142.8994   76.7868  220.4507 H   0  0  0  0  0  0  0  0  0  0  0  0
  141.6305   76.0990  219.3923 H   0  0  0  0  0  0  0  0  0  0  0  0
  141.5496   78.5765  219.3098 H   0  0  0  0  0  0  0  0  0  0  0  0
  140.0796   77.9779  220.0883 H   0  0  0  0  0  0  0  0  0  0  0  0
  142.3155   80.5473  220.4833 H   0  0  0  0  0  0  0  0  0  0  0  0
  142.9067   81.6295  222.6571 H   0  0  0  0  0  0  0  0  0  0  0  0
  142.4765   80.4478  224.8134 H   0  0  0  0  0  0  0  0  0  0  0  0
  141.4429   78.1643  224.7882 H   0  0  0  0  0  0  0  0  0  0  0  0
  140.8892   76.2289  223.4813 H   0  0  0  0  0  0  0  0  0  0  0  0
  139.6277   76.9015  222.3570 H   0  0  0  0  0  0  0  0  0  0  0  0
  141.3762   71.9221  224.3919 H   0  0  0  0  0  0  0  0  0  0  0  0
  139.8889   72.3840  225.3586 H   0  0  0  0  0  0  0  0  0  0  0  0
  1  2  2  0
  2  3  1  0
  3  4  2  0
  4  5  1  0
  5  6  2  0
  5  7  1  0
  7  8  1  0
  8  9  1  0
  9 10  1  0
 10 11  2  0
 11 12  1  0
 12 13  1  0
 13 14  1  0
 14 15  1  0
 15 16  1  0
 16 17  1  0
 17 18  1  0
 18 19  1  0
 19 20  1  0
 12 21  2  0
 21 22  1  0
 22 23  1  0
 23 24  1  0
 24 25  1  0
 25 26  1  0
 26 27  2  0
 27 28  1  0
 28 29  2  0
 29 30  1  0
 30 31  2  0
 31 32  1  0
 22 33  2  0
  9 34  1  0
  6  1  1  0
 33 10  1  0
 34  4  1  0
 20 16  1  0
 32 23  1  0
 31 26  1  0
  1 35  1  0
  2 36  1  0
  3 37  1  0
  6 38  1  0
  7 39  1  0
  7 40  1  0
  8 41  1  0
  8 42  1  0
  9 43  1  1
 13 44  1  0
 14 45  1  0
 14 46  1  0
 15 47  1  0
 15 48  1  0
 17 49  1  0
 17 50  1  0
 18 51  1  0
 18 52  1  0
 19 53  1  0
 19 54  1  0
 20 55  1  0
 20 56  1  0
 24 57  1  0
 24 58  1  0
 25 59  1  0
 25 60  1  0
 27 61  1  0
 28 62  1  0
 29 63  1  0
 30 64  1  0
 32 65  1  0
 32 66  1  0
 34 67  1  0
 34 68  1  0
M  END
>  <smiles>  (50) 
c1ccc2c(c1)CCC(c1nc(NCCN3CCCC3)nc(N3CCc4ccccc4C3)n1)C2

>  <score_type>  (50) 
oracle

>  <origin>  (50) 
autodockgpu

>  <m_score__min__energy>  (50) 
-10.43

>  <m_primary>  (50) 
energy

>  <rmsd>  (50) 
8.838891697638601

>  <m_score__min__rmsd>  (50) 
8.838891697638601

>  <meeko>  (50) 
{"free_energy": -10.13, "intermolecular_energy": -11.92, "internal_energy": -1.01, "cluster_size": 33, "cluster_id": 2, "rank_in_cluster": 3}

>  <energy>  (50) 
-9.32

>  <cluster_rmsd>  (50) 
0.73

>  <cluster>  (50) 
3

$$$$

     RDKit          3D

 68 73  0  0  0  0  0  0  0  0999 V2000
  139.9980   68.4140  227.5750 C   0  0  0  0  0  0  0  0  0  0  0  0
  140.8110   69.4710  227.9370 C   0  0  0  0  0  0  0  0  0  0  0  0
  141.0070   70.4630  226.9860 C   0  0  0  0  0  0  0  0  0  0  0  0
  140.4050   70.3900  225.7250 C   0  0  0  0  0  0  0  0  0  0  0  0
  139.6020   69.3310  225.3870 C   0  0  0  0  0  0  0  0  0  0  0  0
  139.4020   68.3370  226.3300 C   0  0  0  0  0  0  0  0  0  0  0  0
  138.9340   69.1860  224.0680 C   0  0  0  0  0  0  0  0  0  0  0  0
  138.8950   70.5710  223.4440 C   0  0  0  0  0  0  0  0  0  0  0  0
  140.3280   71.0560  223.3990 C   0  0  1  0  0  0  0  0  0  0  0  0
  140.5150   72.1290  222.4020 C   0  0  0  0  0  0  0  0  0  0  0  0
  140.9820   71.8900  221.1510 N   0  0  0  0  0  0  0  0  0  0  0  0
  141.1460   72.9060  220.2590 C   0  0  0  0  0  0  0  0  0  0  0  0
  141.6370   72.6570  218.9470 N   0  0  0  0  0  0  0  0  0  0  0  0
  141.8330   73.7610  217.9950 C   0  0  0  0  0  0  0  0  0  0  0  0
  143.3160   73.6840  217.6050 C   0  0  0  0  0  0  0  0  0  0  0  0
  144.0710   73.6000  218.7590 N   0  0  0  0  0  0  0  0  0  0  0  0
  144.6880   72.4290  219.1970 C   0  0  0  0  0  0  0  0  0  0  0  0
  144.8610   72.6130  220.6900 C   0  0  0  0  0  0  0  0  0  0  0  0
  145.0310   74.1180  220.8280 C   0  0  0  0  0  0  0  0  0  0  0  0
  144.0770   74.6120  219.7390 C   0  0  0  0  0  0  0  0  0  0  0  0
  140.8420   74.1660  220.6110 N   0  0  0  0  0  0  0  0  0  0  0  0
  140.3740   74.4240  221.8510 C   0  0  0  0  0  0  0  0  0  0  0  0
  140.0370   75.7390  222.2880 N   0  0  0  0  0  0  0  0  0  0  0  0
  138.6340   76.1650  222.4130 C   0  0  0  0  0  0  0  0  0  0  0  0
  138.4670   77.4100  221.5260 C   0  0  0  0  0  0  0  0  0  0  0  0
  139.3140   78.4490  222.2160 C   0  0  0  0  0  0  0  0  0  0  0  0
  138.8440   79.7560  222.3280 C   0  0  0  0  0  0  0  0  0  0  0  0
  139.6770   80.6590  222.9770 C   0  0  0  0  0  0  0  0  0  0  0  0
  140.9070   80.3040  223.4900 C   0  0  0  0  0  0  0  0  0  0  0  0
  141.3530   79.0020  223.3680 C   0  0  0  0  0  0  0  0  0  0  0  0
  140.5380   78.0710  222.7200 C   0  0  0  0  0  0  0  0  0  0  0  0
  141.0800   76.6920  222.6240 C   0  0  0  0  0  0  0  0  0  0  0  0
  140.2220   73.4010  222.7160 N   0  0  0  0  0  0  0  0  0  0  0  0
  140.6860   71.5050  224.7980 C   0  0  0  0  0  0  0  0  0  0  0  0
  139.8192   67.6074  228.3012 H   0  0  0  0  0  0  0  0  0  0  0  0
  141.2801   69.5238  228.9305 H   0  0  0  0  0  0  0  0  0  0  0  0
  141.6481   71.3233  227.2285 H   0  0  0  0  0  0  0  0  0  0  0  0
  138.7617   67.4765  226.0858 H   0  0  0  0  0  0  0  0  0  0  0  0
  139.5048   68.4975  223.4275 H   0  0  0  0  0  0  0  0  0  0  0  0
  137.9203   68.7741  224.1809 H   0  0  0  0  0  0  0  0  0  0  0  0
  138.4781   70.5193  222.4274 H   0  0  0  0  0  0  0  0  0  0  0  0
  138.2593   71.2544  224.0260 H   0  0  0  0  0  0  0  0  0  0  0  0
  140.9997   70.2465  223.0771 H   0  0  0  0  0  0  0  0  0  0  0  0
  141.8560   71.6810  218.6710 H   0  0  0  0  0  0  0  0  0  0  0  0
  141.1924   73.6284  217.1107 H   0  0  0  0  0  0  0  0  0  0  0  0
  141.5681   74.7361  218.4297 H   0  0  0  0  0  0  0  0  0  0  0  0
  143.4899   72.7938  216.9827 H   0  0  0  0  0  0  0  0  0  0  0  0
  143.6014   74.5794  217.0333 H   0  0  0  0  0  0  0  0  0  0  0  0
  144.0538   71.5554  218.9859 H   0  0  0  0  0  0  0  0  0  0  0  0
  145.6471   72.2518  218.6883 H   0  0  0  0  0  0  0  0  0  0  0  0
  143.9735   72.2629  221.2376 H   0  0  0  0  0  0  0  0  0  0  0  0
  145.7040   72.0403  221.1040 H   0  0  0  0  0  0  0  0  0  0  0  0
  144.7263   74.4707  221.8244 H   0  0  0  0  0  0  0  0  0  0  0  0
  146.0671   74.4721  220.7224 H   0  0  0  0  0  0  0  0  0  0  0  0
  143.0666   74.7564  220.1492 H   0  0  0  0  0  0  0  0  0  0  0  0
  144.3953   75.5802  219.3250 H   0  0  0  0  0  0  0  0  0  0  0  0
  137.9629   75.3634  222.0707 H   0  0  0  0  0  0  0  0  0  0  0  0
  138.3814   76.3894  223.4598 H   0  0  0  0  0  0  0  0  0  0  0  0
  138.8326   77.2184  220.5064 H   0  0  0  0  0  0  0  0  0  0  0  0
  137.4172   77.7185  221.4134 H   0  0  0  0  0  0  0  0  0  0  0  0
  137.8660   80.0567  221.9243 H   0  0  0  0  0  0  0  0  0  0  0  0
  139.3414   81.7008  223.0862 H   0  0  0  0  0  0  0  0  0  0  0  0
  141.5315   81.0556  223.9951 H   0  0  0  0  0  0  0  0  0  0  0  0
  142.3313   78.7043  223.7734 H   0  0  0  0  0  0  0  0  0  0  0  0
  141.8553   76.6649  221.8442 H   0  0  0  0  0  0  0  0  0  0  0  0
  141.5023   76.4154  223.6013 H   0  0  0  0  0  0  0  0  0  0  0  0
  141.7533   71.7674  224.8435 H   0  0  0  0  0  0  0  0  0  0  0  0
  140.0949   72.3898  225.0767 H   0  0  0  0  0  0  0  0  0  0  0  0
  1  2  2  0
  2  3  1  0
  3  4  2  0
  4  5  1  0
  5  6  2  0
  5  7  1  0
  7  8  1  0
  8  9  1  0
  9 10  1  0
 10 11  2  0
 11 12  1  0
 12 13  1  0
 13 14  1  0
 14 15  1  0
 15 16  1  0
 16 17  1  0
 17 18  1  0
 18 19  1  0
 19 20  1  0
 12 21  2  0
 21 22  1  0
 22 23  1  0
 23 24  1  0
 24 25  1  0
 25 26  1  0
 26 27  2  0
 27 28  1  0
 28 29  2  0
 29 30  1  0
 30 31  2  0
 31 32  1  0
 22 33  2  0
  9 34  1  0
  6  1  1  0
 33 10  1  0
 34  4  1  0
 20 16  1  0
 32 23  1  0
 31 26  1  0
  1 35  1  0
  2 36  1  0
  3 37  1  0
  6 38  1  0
  7 39  1  0
  7 40  1  0
  8 41  1  0
  8 42  1  0
  9 43  1  6
 13 44  1  0
 14 45  1  0
 14 46  1  0
 15 47  1  0
 15 48  1  0
 17 49  1  0
 17 50  1  0
 18 51  1  0
 18 52  1  0
 19 53  1  0
 19 54  1  0
 20 55  1  0
 20 56  1  0
 24 57  1  0
 24 58  1  0
 25 59  1  0
 25 60  1  0
 27 61  1  0
 28 62  1  0
 29 63  1  0
 30 64  1  0
 32 65  1  0
 32 66  1  0
 34 67  1  0
 34 68  1  0
M  END
>  <smiles>  (51) 
c1ccc2c(c1)CCC(c1nc(NCCN3CCCC3)nc(N3CCc4ccccc4C3)n1)C2

>  <score_type>  (51) 
oracle

>  <origin>  (51) 
autodockgpu

>  <m_score__min__energy>  (51) 
-9.8699999999999992

>  <m_primary>  (51) 
energy

>  <rmsd>  (51) 
5.509874399123326

>  <m_score__min__rmsd>  (51) 
5.509874399123326

>  <meeko>  (51) 
{"free_energy": -9.12, "intermolecular_energy": -10.91, "internal_energy": -1.69, "cluster_size": 47, "cluster_id": 2, "rank_in_cluster": 22}

>  <energy>  (51) 
-9.87

>  <cluster_rmsd>  (51) 
0.0

>  <cluster>  (51) 
1

$$$$

     RDKit          3D

 68 73  0  0  0  0  0  0  0  0999 V2000
  140.2650   68.4890  227.6360 C   0  0  0  0  0  0  0  0  0  0  0  0
  141.0100   69.6180  227.9160 C   0  0  0  0  0  0  0  0  0  0  0  0
  141.0540   70.5980  226.9340 C   0  0  0  0  0  0  0  0  0  0  0  0
  140.3740   70.4410  225.7210 C   0  0  0  0  0  0  0  0  0  0  0  0
  139.6410   69.3110  225.4640 C   0  0  0  0  0  0  0  0  0  0  0  0
  139.5920   68.3300  226.4390 C   0  0  0  0  0  0  0  0  0  0  0  0
  138.8960   69.0760  224.2010 C   0  0  0  0  0  0  0  0  0  0  0  0
  138.6970   70.4360  223.5520 C   0  0  0  0  0  0  0  0  0  0  0  0
  140.0770   71.0370  223.3940 C   0  0  1  0  0  0  0  0  0  0  0  0
  140.1020   72.0950  222.3640 C   0  0  0  0  0  0  0  0  0  0  0  0
  140.2370   71.8230  221.0420 N   0  0  0  0  0  0  0  0  0  0  0  0
  140.2600   72.8250  220.1200 C   0  0  0  0  0  0  0  0  0  0  0  0
  140.4020   72.5420  218.7330 N   0  0  0  0  0  0  0  0  0  0  0  0
  141.7300   72.3050  218.1460 C   0  0  0  0  0  0  0  0  0  0  0  0
  142.7220   72.7830  219.2150 C   0  0  0  0  0  0  0  0  0  0  0  0
  142.7910   74.1620  219.1670 N   0  0  0  0  0  0  0  0  0  0  0  0
  142.4410   74.9150  218.0470 C   0  0  0  0  0  0  0  0  0  0  0  0
  143.2020   76.2160  218.1970 C   0  0  0  0  0  0  0  0  0  0  0  0
  143.2950   76.3810  219.7070 C   0  0  0  0  0  0  0  0  0  0  0  0
  143.4640   74.9240  220.1410 C   0  0  0  0  0  0  0  0  0  0  0  0
  140.1470   74.1040  220.5140 N   0  0  0  0  0  0  0  0  0  0  0  0
  140.0110   74.3950  221.8260 C   0  0  0  0  0  0  0  0  0  0  0  0
  139.8910   75.7320  222.3090 N   0  0  0  0  0  0  0  0  0  0  0  0
  138.5840   76.2900  222.6890 C   0  0  0  0  0  0  0  0  0  0  0  0
  138.3780   77.5560  221.8410 C   0  0  0  0  0  0  0  0  0  0  0  0
  139.4360   78.4990  222.3550 C   0  0  0  0  0  0  0  0  0  0  0  0
  139.1250   79.8440  222.5440 C   0  0  0  0  0  0  0  0  0  0  0  0
  140.1480   80.6540  223.0220 C   0  0  0  0  0  0  0  0  0  0  0  0
  141.4110   80.1760  223.3000 C   0  0  0  0  0  0  0  0  0  0  0  0
  141.6970   78.8380  223.1060 C   0  0  0  0  0  0  0  0  0  0  0  0
  140.6890   77.9980  222.6260 C   0  0  0  0  0  0  0  0  0  0  0  0
  141.0660   76.5740  222.4400 C   0  0  0  0  0  0  0  0  0  0  0  0
  139.9920   73.3840  222.7180 N   0  0  0  0  0  0  0  0  0  0  0  0
  140.4930   71.5510  224.7540 C   0  0  0  0  0  0  0  0  0  0  0  0
  140.2053   67.6904  228.3901 H   0  0  0  0  0  0  0  0  0  0  0  0
  141.5428   69.7348  228.8713 H   0  0  0  0  0  0  0  0  0  0  0  0
  141.6343   71.5153  227.1126 H   0  0  0  0  0  0  0  0  0  0  0  0
  139.0110   67.4134  226.2594 H   0  0  0  0  0  0  0  0  0  0  0  0
  139.4756   68.4195  223.5354 H   0  0  0  0  0  0  0  0  0  0  0  0
  137.9309   68.5856  224.3962 H   0  0  0  0  0  0  0  0  0  0  0  0
  138.2162   70.3224  222.5692 H   0  0  0  0  0  0  0  0  0  0  0  0
  138.0480   71.0799  224.1637 H   0  0  0  0  0  0  0  0  0  0  0  0
  140.7907   70.2779  223.0413 H   0  0  0  0  0  0  0  0  0  0  0  0
  139.5520   72.5060  218.1390 H   0  0  0  0  0  0  0  0  0  0  0  0
  141.8746   71.2354  217.9338 H   0  0  0  0  0  0  0  0  0  0  0  0
  141.8621   72.8340  217.1907 H   0  0  0  0  0  0  0  0  0  0  0  0
  142.3775   72.4636  220.2096 H   0  0  0  0  0  0  0  0  0  0  0  0
  143.7155   72.3502  219.0262 H   0  0  0  0  0  0  0  0  0  0  0  0
  142.7393   74.3966  217.1238 H   0  0  0  0  0  0  0  0  0  0  0  0
  141.3550   75.0765  217.9802 H   0  0  0  0  0  0  0  0  0  0  0  0
  144.2019   76.1445  217.7441 H   0  0  0  0  0  0  0  0  0  0  0  0
  142.7149   77.0653  217.6956 H   0  0  0  0  0  0  0  0  0  0  0  0
  144.1623   76.9931  219.9953 H   0  0  0  0  0  0  0  0  0  0  0  0
  142.4377   76.8972  220.1638 H   0  0  0  0  0  0  0  0  0  0  0  0
  144.5297   74.6532  220.1725 H   0  0  0  0  0  0  0  0  0  0  0  0
  143.0593   74.7483  221.1487 H   0  0  0  0  0  0  0  0  0  0  0  0
  137.7864   75.5614  222.4816 H   0  0  0  0  0  0  0  0  0  0  0  0
  138.5523   76.5249  223.7631 H   0  0  0  0  0  0  0  0  0  0  0  0
  138.5273   77.3422  220.7724 H   0  0  0  0  0  0  0  0  0  0  0  0
  137.3609   77.9666  221.9238 H   0  0  0  0  0  0  0  0  0  0  0  0
  138.1234   80.2433  222.3265 H   0  0  0  0  0  0  0  0  0  0  0  0
  139.9413   81.7220  223.1855 H   0  0  0  0  0  0  0  0  0  0  0  0
  142.1886   80.8576  223.6751 H   0  0  0  0  0  0  0  0  0  0  0  0
  142.6994   78.4417  223.3254 H   0  0  0  0  0  0  0  0  0  0  0  0
  141.6773   76.4807  221.5303 H   0  0  0  0  0  0  0  0  0  0  0  0
  141.6326   76.2457  223.3239 H   0  0  0  0  0  0  0  0  0  0  0  0
  141.5345   71.9029  224.7168 H   0  0  0  0  0  0  0  0  0  0  0  0
  139.8498   72.3904  225.0569 H   0  0  0  0  0  0  0  0  0  0  0  0
  1  2  2  0
  2  3  1  0
  3  4  2  0
  4  5  1  0
  5  6  2  0
  5  7  1  0
  7  8  1  0
  8  9  1  0
  9 10  1  0
 10 11  2  0
 11 12  1  0
 12 13  1  0
 13 14  1  0
 14 15  1  0
 15 16  1  0
 16 17  1  0
 17 18  1  0
 18 19  1  0
 19 20  1  0
 12 21  2  0
 21 22  1  0
 22 23  1  0
 23 24  1  0
 24 25  1  0
 25 26  1  0
 26 27  2  0
 27 28  1  0
 28 29  2  0
 29 30  1  0
 30 31  2  0
 31 32  1  0
 22 33  2  0
  9 34  1  0
  6  1  1  0
 33 10  1  0
 34  4  1  0
 20 16  1  0
 32 23  1  0
 31 26  1  0
  1 35  1  0
  2 36  1  0
  3 37  1  0
  6 38  1  0
  7 39  1  0
  7 40  1  0
  8 41  1  0
  8 42  1  0
  9 43  1  6
 13 44  1  0
 14 45  1  0
 14 46  1  0
 15 47  1  0
 15 48  1  0
 17 49  1  0
 17 50  1  0
 18 51  1  0
 18 52  1  0
 19 53  1  0
 19 54  1  0
 20 55  1  0
 20 56  1  0
 24 57  1  0
 24 58  1  0
 25 59  1  0
 25 60  1  0
 27 61  1  0
 28 62  1  0
 29 63  1  0
 30 64  1  0
 32 65  1  0
 32 66  1  0
 34 67  1  0
 34 68  1  0
M  END
>  <smiles>  (52) 
c1ccc2c(c1)CCC(c1nc(NCCN3CCCC3)nc(N3CCc4ccccc4C3)n1)C2

>  <score_type>  (52) 
oracle

>  <origin>  (52) 
autodockgpu

>  <m_score__min__energy>  (52) 
-9.8699999999999992

>  <m_primary>  (52) 
energy

>  <rmsd>  (52) 
4.234631744208744

>  <m_score__min__rmsd>  (52) 
4.234631744208744

>  <meeko>  (52) 
{"free_energy": -8.94, "intermolecular_energy": -10.73, "internal_energy": -1.86, "cluster_size": 47, "cluster_id": 2, "rank_in_cluster": 27}

>  <energy>  (52) 
-9.69

>  <cluster_rmsd>  (52) 
0.96

>  <cluster>  (52) 
1

$$$$

     RDKit          3D

 68 73  0  0  0  0  0  0  0  0999 V2000
  141.0450   81.2520  223.5810 C   0  0  0  0  0  0  0  0  0  0  0  0
  142.2520   80.8600  223.0360 C   0  0  0  0  0  0  0  0  0  0  0  0
  142.2990   79.5960  222.4640 C   0  0  0  0  0  0  0  0  0  0  0  0
  141.1720   78.7660  222.4440 C   0  0  0  0  0  0  0  0  0  0  0  0
  139.9840   79.1770  222.9910 C   0  0  0  0  0  0  0  0  0  0  0  0
  139.9290   80.4360  223.5640 C   0  0  0  0  0  0  0  0  0  0  0  0
  138.7500   78.3490  223.0080 C   0  0  0  0  0  0  0  0  0  0  0  0
  138.9180   77.2930  221.9280 C   0  0  0  0  0  0  0  0  0  0  0  0
  140.2010   76.5570  222.2510 C   0  0  1  0  0  0  0  0  0  0  0  0
  140.2470   75.2260  221.6140 C   0  0  0  0  0  0  0  0  0  0  0  0
  140.4830   75.0600  220.2880 N   0  0  0  0  0  0  0  0  0  0  0  0
  140.5140   73.8150  219.7340 C   0  0  0  0  0  0  0  0  0  0  0  0
  140.7610   73.6390  218.3440 N   0  0  0  0  0  0  0  0  0  0  0  0
  140.3790   74.6760  217.3740 C   0  0  0  0  0  0  0  0  0  0  0  0
  141.7070   75.1710  216.7860 C   0  0  0  0  0  0  0  0  0  0  0  0
  142.5920   75.3930  217.8230 N   0  0  0  0  0  0  0  0  0  0  0  0
  143.5080   74.4440  218.2750 C   0  0  0  0  0  0  0  0  0  0  0  0
  143.8100   74.8410  219.7050 C   0  0  0  0  0  0  0  0  0  0  0  0
  143.6460   76.3540  219.6770 C   0  0  0  0  0  0  0  0  0  0  0  0
  142.4820   76.4940  218.6940 C   0  0  0  0  0  0  0  0  0  0  0  0
  140.3100   72.7320  220.5010 N   0  0  0  0  0  0  0  0  0  0  0  0
  140.0740   72.8770  221.8230 C   0  0  0  0  0  0  0  0  0  0  0  0
  139.8460   71.7680  222.6900 N   0  0  0  0  0  0  0  0  0  0  0  0
  138.7250   70.8420  222.4650 C   0  0  0  0  0  0  0  0  0  0  0  0
  137.8840   70.8430  223.7510 C   0  0  0  0  0  0  0  0  0  0  0  0
  138.7960   70.2040  224.7690 C   0  0  0  0  0  0  0  0  0  0  0  0
  138.2760   69.2850  225.6770 C   0  0  0  0  0  0  0  0  0  0  0  0
  139.1750   68.7360  226.5830 C   0  0  0  0  0  0  0  0  0  0  0  0
  140.5130   69.0690  226.6030 C   0  0  0  0  0  0  0  0  0  0  0  0
  141.0060   69.9830  225.6910 C   0  0  0  0  0  0  0  0  0  0  0  0
  140.1280   70.5520  224.7670 C   0  0  0  0  0  0  0  0  0  0  0  0
  140.7260   71.5260  223.8190 C   0  0  0  0  0  0  0  0  0  0  0  0
  140.0490   74.1200  222.3470 N   0  0  0  0  0  0  0  0  0  0  0  0
  141.3420   77.4450  221.8060 C   0  0  0  0  0  0  0  0  0  0  0  0
  140.9690   82.2468  224.0441 H   0  0  0  0  0  0  0  0  0  0  0  0
  143.1336   81.5177  223.0543 H   0  0  0  0  0  0  0  0  0  0  0  0
  143.2395   79.2400  222.0181 H   0  0  0  0  0  0  0  0  0  0  0  0
  138.9882   80.7907  224.0102 H   0  0  0  0  0  0  0  0  0  0  0  0
  138.6282   77.8702  223.9908 H   0  0  0  0  0  0  0  0  0  0  0  0
  137.8575   78.9650  222.8237 H   0  0  0  0  0  0  0  0  0  0  0  0
  138.0662   76.5971  221.9396 H   0  0  0  0  0  0  0  0  0  0  0  0
  138.9582   77.7471  220.9269 H   0  0  0  0  0  0  0  0  0  0  0  0
  140.2723   76.3597  223.3308 H   0  0  0  0  0  0  0  0  0  0  0  0
  141.2160   72.7630  218.0230 H   0  0  0  0  0  0  0  0  0  0  0  0
  139.7400   74.2523  216.5852 H   0  0  0  0  0  0  0  0  0  0  0  0
  139.8028   75.4887  217.8403 H   0  0  0  0  0  0  0  0  0  0  0  0
  142.1171   74.4107  216.1050 H   0  0  0  0  0  0  0  0  0  0  0  0
  141.5453   76.1025  216.2237 H   0  0  0  0  0  0  0  0  0  0  0  0
  143.0701   73.4356  218.2379 H   0  0  0  0  0  0  0  0  0  0  0  0
  144.4151   74.4164  217.6534 H   0  0  0  0  0  0  0  0  0  0  0  0
  143.0974   74.3781  220.4036 H   0  0  0  0  0  0  0  0  0  0  0  0
  144.8044   74.5171  220.0461 H   0  0  0  0  0  0  0  0  0  0  0  0
  143.3887   76.7524  220.6695 H   0  0  0  0  0  0  0  0  0  0  0  0
  144.5534   76.9068  219.3924 H   0  0  0  0  0  0  0  0  0  0  0  0
  141.5213   76.4667  219.2291 H   0  0  0  0  0  0  0  0  0  0  0  0
  142.5187   77.4499  218.1509 H   0  0  0  0  0  0  0  0  0  0  0  0
  138.1167   71.1832  221.6144 H   0  0  0  0  0  0  0  0  0  0  0  0
  139.0891   69.8305  222.2320 H   0  0  0  0  0  0  0  0  0  0  0  0
  137.6210   71.8690  224.0480 H   0  0  0  0  0  0  0  0  0  0  0  0
  136.9282   70.3104  223.6382 H   0  0  0  0  0  0  0  0  0  0  0  0
  137.2113   69.0087  225.6769 H   0  0  0  0  0  0  0  0  0  0  0  0
  138.8035   68.0044  227.3157 H   0  0  0  0  0  0  0  0  0  0  0  0
  141.1854   68.6089  227.3420 H   0  0  0  0  0  0  0  0  0  0  0  0
  142.0713   70.2572  225.6933 H   0  0  0  0  0  0  0  0  0  0  0  0
  140.9042   72.4755  224.3450 H   0  0  0  0  0  0  0  0  0  0  0  0
  141.6709   71.1087  223.4409 H   0  0  0  0  0  0  0  0  0  0  0  0
  142.3007   77.0027  222.1145 H   0  0  0  0  0  0  0  0  0  0  0  0
  141.3396   77.5479  220.7108 H   0  0  0  0  0  0  0  0  0  0  0  0
  1  2  2  0
  2  3  1  0
  3  4  2  0
  4  5  1  0
  5  6  2  0
  5  7  1  0
  7  8  1  0
  8  9  1  0
  9 10  1  0
 10 11  2  0
 11 12  1  0
 12 13  1  0
 13 14  1  0
 14 15  1  0
 15 16  1  0
 16 17  1  0
 17 18  1  0
 18 19  1  0
 19 20  1  0
 12 21  2  0
 21 22  1  0
 22 23  1  0
 23 24  1  0
 24 25  1  0
 25 26  1  0
 26 27  2  0
 27 28  1  0
 28 29  2  0
 29 30  1  0
 30 31  2  0
 31 32  1  0
 22 33  2  0
  9 34  1  0
  6  1  1  0
 33 10  1  0
 34  4  1  0
 20 16  1  0
 32 23  1  0
 31 26  1  0
  1 35  1  0
  2 36  1  0
  3 37  1  0
  6 38  1  0
  7 39  1  0
  7 40  1  0
  8 41  1  0
  8 42  1  0
  9 43  1  1
 13 44  1  0
 14 45  1  0
 14 46  1  0
 15 47  1  0
 15 48  1  0
 17 49  1  0
 17 50  1  0
 18 51  1  0
 18 52  1  0
 19 53  1  0
 19 54  1  0
 20 55  1  0
 20 56  1  0
 24 57  1  0
 24 58  1  0
 25 59  1  0
 25 60  1  0
 27 61  1  0
 28 62  1  0
 29 63  1  0
 30 64  1  0
 32 65  1  0
 32 66  1  0
 34 67  1  0
 34 68  1  0
M  END
>  <smiles>  (53) 
c1ccc2c(c1)CCC(c1nc(NCCN3CCCC3)nc(N3CCc4ccccc4C3)n1)C2

>  <score_type>  (53) 
oracle

>  <origin>  (53) 
autodockgpu

>  <m_score__min__energy>  (53) 
-9.8699999999999992

>  <m_primary>  (53) 
energy

>  <rmsd>  (53) 
4.288377308195194

>  <m_score__min__rmsd>  (53) 
4.288377308195194

>  <meeko>  (53) 
{"free_energy": -8.34, "intermolecular_energy": -10.13, "internal_energy": -1.81, "cluster_size": 47, "cluster_id": 2, "rank_in_cluster": 47}

>  <energy>  (53) 
-9.48

>  <cluster_rmsd>  (53) 
0.61

>  <cluster>  (53) 
1

$$$$

     RDKit          3D

 68 73  0  0  0  0  0  0  0  0999 V2000
  141.4600   81.1890  223.6260 C   0  0  0  0  0  0  0  0  0  0  0  0
  142.6180   80.7070  223.0470 C   0  0  0  0  0  0  0  0  0  0  0  0
  142.5470   79.4520  222.4580 C   0  0  0  0  0  0  0  0  0  0  0  0
  141.3550   78.7170  222.4550 C   0  0  0  0  0  0  0  0  0  0  0  0
  140.2180   79.2160  223.0360 C   0  0  0  0  0  0  0  0  0  0  0  0
  140.2810   80.4670  223.6260 C   0  0  0  0  0  0  0  0  0  0  0  0
  138.9210   78.4930  223.0720 C   0  0  0  0  0  0  0  0  0  0  0  0
  138.9760   77.4420  221.9750 C   0  0  0  0  0  0  0  0  0  0  0  0
  140.2010   76.5990  222.2570 C   0  0  1  0  0  0  0  0  0  0  0  0
  140.1220   75.2780  221.6030 C   0  0  0  0  0  0  0  0  0  0  0  0
  140.0460   75.1350  220.2560 N   0  0  0  0  0  0  0  0  0  0  0  0
  139.9700   73.9000  219.6860 C   0  0  0  0  0  0  0  0  0  0  0  0
  139.8880   73.7470  218.2740 N   0  0  0  0  0  0  0  0  0  0  0  0
  141.0860   73.4330  217.4810 C   0  0  0  0  0  0  0  0  0  0  0  0
  142.0180   74.6350  217.6850 C   0  0  0  0  0  0  0  0  0  0  0  0
  142.9270   74.3230  218.6780 N   0  0  0  0  0  0  0  0  0  0  0  0
  143.2110   73.0210  219.0860 C   0  0  0  0  0  0  0  0  0  0  0  0
  143.7380   73.1590  220.4990 C   0  0  0  0  0  0  0  0  0  0  0  0
  144.4080   74.5250  220.4780 C   0  0  0  0  0  0  0  0  0  0  0  0
  143.4590   75.2910  219.5520 C   0  0  0  0  0  0  0  0  0  0  0  0
  139.9720   72.8020  220.4600 N   0  0  0  0  0  0  0  0  0  0  0  0
  140.0480   72.9230  221.8020 C   0  0  0  0  0  0  0  0  0  0  0  0
  140.0510   71.7970  222.6780 N   0  0  0  0  0  0  0  0  0  0  0  0
  139.4490   70.5160  222.2740 C   0  0  0  0  0  0  0  0  0  0  0  0
  138.3850   70.1740  223.3290 C   0  0  0  0  0  0  0  0  0  0  0  0
  139.1940   69.9170  224.5750 C   0  0  0  0  0  0  0  0  0  0  0  0
  138.8540   68.8540  225.4090 C   0  0  0  0  0  0  0  0  0  0  0  0
  139.6460   68.6760  226.5380 C   0  0  0  0  0  0  0  0  0  0  0  0
  140.7130   69.4960  226.8380 C   0  0  0  0  0  0  0  0  0  0  0  0
  141.0320   70.5440  225.9960 C   0  0  0  0  0  0  0  0  0  0  0  0
  140.2560   70.7480  224.8530 C   0  0  0  0  0  0  0  0  0  0  0  0
  140.6550   71.8920  223.9950 C   0  0  0  0  0  0  0  0  0  0  0  0
  140.1220   74.1570  222.3410 N   0  0  0  0  0  0  0  0  0  0  0  0
  141.4010   77.3960  221.7960 C   0  0  0  0  0  0  0  0  0  0  0  0
  141.4766   82.1801  224.1029 H   0  0  0  0  0  0  0  0  0  0  0  0
  143.5511   81.2895  223.0524 H   0  0  0  0  0  0  0  0  0  0  0  0
  143.4442   79.0267  221.9845 H   0  0  0  0  0  0  0  0  0  0  0  0
  139.3834   80.8910  224.0998 H   0  0  0  0  0  0  0  0  0  0  0  0
  138.7823   78.0118  224.0514 H   0  0  0  0  0  0  0  0  0  0  0  0
  138.0788   79.1833  222.9166 H   0  0  0  0  0  0  0  0  0  0  0  0
  138.0703   76.8182  221.9992 H   0  0  0  0  0  0  0  0  0  0  0  0
  139.0297   77.9055  220.9789 H   0  0  0  0  0  0  0  0  0  0  0  0
  140.2810   76.3814  223.3323 H   0  0  0  0  0  0  0  0  0  0  0  0
  138.9670   73.8630  217.8100 H   0  0  0  0  0  0  0  0  0  0  0  0
  141.5600   72.5092  217.8444 H   0  0  0  0  0  0  0  0  0  0  0  0
  140.8493   73.2668  216.4197 H   0  0  0  0  0  0  0  0  0  0  0  0
  142.5522   74.8532  216.7485 H   0  0  0  0  0  0  0  0  0  0  0  0
  141.4327   75.5201  217.9751 H   0  0  0  0  0  0  0  0  0  0  0  0
  142.3004   72.4041  219.0716 H   0  0  0  0  0  0  0  0  0  0  0  0
  143.9358   72.5285  218.4210 H   0  0  0  0  0  0  0  0  0  0  0  0
  142.9182   73.1312  221.2319 H   0  0  0  0  0  0  0  0  0  0  0  0
  144.4180   72.3452  220.7912 H   0  0  0  0  0  0  0  0  0  0  0  0
  144.4454   74.9738  221.4816 H   0  0  0  0  0  0  0  0  0  0  0  0
  145.4577   74.5142  220.1492 H   0  0  0  0  0  0  0  0  0  0  0  0
  142.6558   75.7678  220.1331 H   0  0  0  0  0  0  0  0  0  0  0  0
  143.9782   76.0931  219.0069 H   0  0  0  0  0  0  0  0  0  0  0  0
  138.9822   70.6127  221.2827 H   0  0  0  0  0  0  0  0  0  0  0  0
  140.2103   69.7246  222.2098 H   0  0  0  0  0  0  0  0  0  0  0  0
  137.6928   71.0161  223.4765 H   0  0  0  0  0  0  0  0  0  0  0  0
  137.7570   69.3177  223.0419 H   0  0  0  0  0  0  0  0  0  0  0  0
  138.0048   68.1912  225.1863 H   0  0  0  0  0  0  0  0  0  0  0  0
  139.4113   67.8459  227.2206 H   0  0  0  0  0  0  0  0  0  0  0  0
  141.3087   69.3164  227.7452 H   0  0  0  0  0  0  0  0  0  0  0  0
  141.8815   71.2054  226.2218 H   0  0  0  0  0  0  0  0  0  0  0  0
  140.3301   72.8285  224.4719 H   0  0  0  0  0  0  0  0  0  0  0  0
  141.7487   71.8748  223.8784 H   0  0  0  0  0  0  0  0  0  0  0  0
  142.3267   76.8718  222.0758 H   0  0  0  0  0  0  0  0  0  0  0  0
  141.3825   77.5147  220.7026 H   0  0  0  0  0  0  0  0  0  0  0  0
  1  2  2  0
  2  3  1  0
  3  4  2  0
  4  5  1  0
  5  6  2  0
  5  7  1  0
  7  8  1  0
  8  9  1  0
  9 10  1  0
 10 11  2  0
 11 12  1  0
 12 13  1  0
 13 14  1  0
 14 15  1  0
 15 16  1  0
 16 17  1  0
 17 18  1  0
 18 19  1  0
 19 20  1  0
 12 21  2  0
 21 22  1  0
 22 23  1  0
 23 24  1  0
 24 25  1  0
 25 26  1  0
 26 27  2  0
 27 28  1  0
 28 29  2  0
 29 30  1  0
 30 31  2  0
 31 32  1  0
 22 33  2  0
  9 34  1  0
  6  1  1  0
 33 10  1  0
 34  4  1  0
 20 16  1  0
 32 23  1  0
 31 26  1  0
  1 35  1  0
  2 36  1  0
  3 37  1  0
  6 38  1  0
  7 39  1  0
  7 40  1  0
  8 41  1  0
  8 42  1  0
  9 43  1  1
 13 44  1  0
 14 45  1  0
 14 46  1  0
 15 47  1  0
 15 48  1  0
 17 49  1  0
 17 50  1  0
 18 51  1  0
 18 52  1  0
 19 53  1  0
 19 54  1  0
 20 55  1  0
 20 56  1  0
 24 57  1  0
 24 58  1  0
 25 59  1  0
 25 60  1  0
 27 61  1  0
 28 62  1  0
 29 63  1  0
 30 64  1  0
 32 65  1  0
 32 66  1  0
 34 67  1  0
 34 68  1  0
M  END
>  <smiles>  (54) 
c1ccc2c(c1)CCC(c1nc(NCCN3CCCC3)nc(N3CCc4ccccc4C3)n1)C2

>  <score_type>  (54) 
oracle

>  <origin>  (54) 
autodockgpu

>  <m_score__min__energy>  (54) 
-9.8699999999999992

>  <m_primary>  (54) 
energy

>  <rmsd>  (54) 
4.92705721706135

>  <m_score__min__rmsd>  (54) 
4.92705721706135

>  <meeko>  (54) 
{"free_energy": -8.81, "intermolecular_energy": -10.6, "internal_energy": -2.01, "cluster_size": 47, "cluster_id": 2, "rank_in_cluster": 32}

>  <energy>  (54) 
-9.62

>  <cluster_rmsd>  (54) 
0.0

>  <cluster>  (54) 
2

$$$$

     RDKit          3D

 68 73  0  0  0  0  0  0  0  0999 V2000
  146.2810   69.0190  218.7090 C   0  0  0  0  0  0  0  0  0  0  0  0
  145.1640   68.2460  218.9590 C   0  0  0  0  0  0  0  0  0  0  0  0
  144.0450   68.9040  219.4500 C   0  0  0  0  0  0  0  0  0  0  0  0
  144.0560   70.2850  219.6760 C   0  0  0  0  0  0  0  0  0  0  0  0
  145.1760   71.0330  219.4210 C   0  0  0  0  0  0  0  0  0  0  0  0
  146.2970   70.3830  218.9310 C   0  0  0  0  0  0  0  0  0  0  0  0
  145.2610   72.5000  219.6390 C   0  0  0  0  0  0  0  0  0  0  0  0
  143.8330   73.0180  219.6820 C   0  0  0  0  0  0  0  0  0  0  0  0
  143.1310   72.2350  220.7720 C   0  0  1  0  0  0  0  0  0  0  0  0
  141.9290   72.9360  221.2640 C   0  0  0  0  0  0  0  0  0  0  0  0
  140.8570   72.2770  221.7720 N   0  0  0  0  0  0  0  0  0  0  0  0
  139.7620   72.9570  222.2140 C   0  0  0  0  0  0  0  0  0  0  0  0
  138.6370   72.2680  222.7460 N   0  0  0  0  0  0  0  0  0  0  0  0
  138.6270   70.8000  222.8350 C   0  0  0  0  0  0  0  0  0  0  0  0
  138.2700   70.4980  224.2970 C   0  0  0  0  0  0  0  0  0  0  0  0
  139.4400   70.4060  225.0260 N   0  0  0  0  0  0  0  0  0  0  0  0
  139.7720   69.3110  225.8220 C   0  0  0  0  0  0  0  0  0  0  0  0
  140.7480   69.8520  226.8460 C   0  0  0  0  0  0  0  0  0  0  0  0
  141.4450   70.9720  226.0890 C   0  0  0  0  0  0  0  0  0  0  0  0
  140.2860   71.5100  225.2480 C   0  0  0  0  0  0  0  0  0  0  0  0
  139.7330   74.2980  222.1520 N   0  0  0  0  0  0  0  0  0  0  0  0
  140.7900   74.9720  221.6500 C   0  0  0  0  0  0  0  0  0  0  0  0
  140.8200   76.3950  221.5530 N   0  0  0  0  0  0  0  0  0  0  0  0
  140.6360   77.0750  220.2610 C   0  0  0  0  0  0  0  0  0  0  0  0
  141.8790   77.9520  220.0410 C   0  0  0  0  0  0  0  0  0  0  0  0
  141.7650   79.0000  221.1200 C   0  0  0  0  0  0  0  0  0  0  0  0
  142.0670   80.3280  220.8240 C   0  0  0  0  0  0  0  0  0  0  0  0
  141.9380   81.2380  221.8660 C   0  0  0  0  0  0  0  0  0  0  0  0
  141.5350   80.8710  223.1330 C   0  0  0  0  0  0  0  0  0  0  0  0
  141.2400   79.5480  223.4030 C   0  0  0  0  0  0  0  0  0  0  0  0
  141.3610   78.6090  222.3760 C   0  0  0  0  0  0  0  0  0  0  0  0
  141.0280   77.2080  222.7380 C   0  0  0  0  0  0  0  0  0  0  0  0
  141.8610   74.2750  221.2190 N   0  0  0  0  0  0  0  0  0  0  0  0
  142.8060   70.8740  220.1980 C   0  0  0  0  0  0  0  0  0  0  0  0
  147.1880   68.5328  218.3203 H   0  0  0  0  0  0  0  0  0  0  0  0
  145.1614   67.1611  218.7777 H   0  0  0  0  0  0  0  0  0  0  0  0
  143.1323   68.3292  219.6656 H   0  0  0  0  0  0  0  0  0  0  0  0
  147.2095   70.9586  218.7164 H   0  0  0  0  0  0  0  0  0  0  0  0
  145.7705   72.7131  220.5903 H   0  0  0  0  0  0  0  0  0  0  0  0
  145.8348   72.9869  218.8367 H   0  0  0  0  0  0  0  0  0  0  0  0
  143.8242   74.0923  219.9184 H   0  0  0  0  0  0  0  0  0  0  0  0
  143.3315   72.8908  218.7113 H   0  0  0  0  0  0  0  0  0  0  0  0
  143.7816   72.1291  221.6526 H   0  0  0  0  0  0  0  0  0  0  0  0
  137.8200   72.8190  223.0720 H   0  0  0  0  0  0  0  0  0  0  0  0
  137.8724   70.3758  222.1563 H   0  0  0  0  0  0  0  0  0  0  0  0
  139.5922   70.3599  222.5439 H   0  0  0  0  0  0  0  0  0  0  0  0
  137.6445   71.3078  224.7007 H   0  0  0  0  0  0  0  0  0  0  0  0
  137.7123   69.5520  224.3601 H   0  0  0  0  0  0  0  0  0  0  0  0
  138.8765   68.9073  226.3171 H   0  0  0  0  0  0  0  0  0  0  0  0
  140.2044   68.4884  225.2334 H   0  0  0  0  0  0  0  0  0  0  0  0
  140.2204   70.2398  227.7299 H   0  0  0  0  0  0  0  0  0  0  0  0
  141.4413   69.0900  227.2316 H   0  0  0  0  0  0  0  0  0  0  0  0
  141.8400   71.7383  226.7722 H   0  0  0  0  0  0  0  0  0  0  0  0
  142.3219   70.6527  225.5067 H   0  0  0  0  0  0  0  0  0  0  0  0
  139.7505   72.3016  225.7926 H   0  0  0  0  0  0  0  0  0  0  0  0
  140.6369   71.9525  224.3040 H   0  0  0  0  0  0  0  0  0  0  0  0
  140.5468   76.3345  219.4524 H   0  0  0  0  0  0  0  0  0  0  0  0
  139.7189   77.6824  220.2612 H   0  0  0  0  0  0  0  0  0  0  0  0
  142.8011   77.3641  220.1595 H   0  0  0  0  0  0  0  0  0  0  0  0
  141.9271   78.3815  219.0295 H   0  0  0  0  0  0  0  0  0  0  0  0
  142.3901   80.6390  219.8196 H   0  0  0  0  0  0  0  0  0  0  0  0
  142.1671   82.2963  221.6722 H   0  0  0  0  0  0  0  0  0  0  0  0
  141.4487   81.6286  223.9258 H   0  0  0  0  0  0  0  0  0  0  0  0
  140.9159   79.2402  224.4081 H   0  0  0  0  0  0  0  0  0  0  0  0
  141.8557   76.7825  223.3244 H   0  0  0  0  0  0  0  0  0  0  0  0
  140.0982   77.2116  223.3257 H   0  0  0  0  0  0  0  0  0  0  0  0
  142.3894   70.2276  220.9845 H   0  0  0  0  0  0  0  0  0  0  0  0
  142.0636   70.9681  219.3917 H   0  0  0  0  0  0  0  0  0  0  0  0
  1  2  2  0
  2  3  1  0
  3  4  2  0
  4  5  1  0
  5  6  2  0
  5  7  1  0
  7  8  1  0
  8  9  1  0
  9 10  1  0
 10 11  2  0
 11 12  1  0
 12 13  1  0
 13 14  1  0
 14 15  1  0
 15 16  1  0
 16 17  1  0
 17 18  1  0
 18 19  1  0
 19 20  1  0
 12 21  2  0
 21 22  1  0
 22 23  1  0
 23 24  1  0
 24 25  1  0
 25 26  1  0
 26 27  2  0
 27 28  1  0
 28 29  2  0
 29 30  1  0
 30 31  2  0
 31 32  1  0
 22 33  2  0
  9 34  1  0
  6  1  1  0
 33 10  1  0
 34  4  1  0
 20 16  1  0
 32 23  1  0
 31 26  1  0
  1 35  1  0
  2 36  1  0
  3 37  1  0
  6 38  1  0
  7 39  1  0
  7 40  1  0
  8 41  1  0
  8 42  1  0
  9 43  1  1
 13 44  1  0
 14 45  1  0
 14 46  1  0
 15 47  1  0
 15 48  1  0
 17 49  1  0
 17 50  1  0
 18 51  1  0
 18 52  1  0
 19 53  1  0
 19 54  1  0
 20 55  1  0
 20 56  1  0
 24 57  1  0
 24 58  1  0
 25 59  1  0
 25 60  1  0
 27 61  1  0
 28 62  1  0
 29 63  1  0
 30 64  1  0
 32 65  1  0
 32 66  1  0
 34 67  1  0
 34 68  1  0
M  END
>  <smiles>  (55) 
c1ccc2c(c1)CCC(c1nc(NCCN3CCCC3)nc(N3CCc4ccccc4C3)n1)C2

>  <score_type>  (55) 
oracle

>  <origin>  (55) 
autodockgpu

>  <m_score__min__energy>  (55) 
-9.8699999999999992

>  <m_primary>  (55) 
energy

>  <rmsd>  (55) 
7.906461410873288

>  <m_score__min__rmsd>  (55) 
7.906461410873288

>  <meeko>  (55) 
{"free_energy": -9.48, "intermolecular_energy": -11.27, "internal_energy": -1.3, "cluster_size": 3, "cluster_id": 1, "rank_in_cluster": 3}

>  <energy>  (55) 
-9.53

>  <cluster_rmsd>  (55) 
0.34

>  <cluster>  (55) 
2

$$$$

     RDKit          3D

 68 73  0  0  0  0  0  0  0  0999 V2000
  140.2500   68.5800  227.5170 C   0  0  0  0  0  0  0  0  0  0  0  0
  140.9750   69.7160  227.8220 C   0  0  0  0  0  0  0  0  0  0  0  0
  141.0060   70.7150  226.8580 C   0  0  0  0  0  0  0  0  0  0  0  0
  140.3320   70.5700  225.6400 C   0  0  0  0  0  0  0  0  0  0  0  0
  139.6190   69.4330  225.3590 C   0  0  0  0  0  0  0  0  0  0  0  0
  139.5840   68.4320  226.3150 C   0  0  0  0  0  0  0  0  0  0  0  0
  138.8830   69.2090  224.0890 C   0  0  0  0  0  0  0  0  0  0  0  0
  138.6630   70.5770  223.4650 C   0  0  0  0  0  0  0  0  0  0  0  0
  140.0330   71.2040  223.3230 C   0  0  1  0  0  0  0  0  0  0  0  0
  140.0430   72.2820  222.3140 C   0  0  0  0  0  0  0  0  0  0  0  0
  140.1450   72.0340  220.9840 N   0  0  0  0  0  0  0  0  0  0  0  0
  140.1550   73.0540  220.0810 C   0  0  0  0  0  0  0  0  0  0  0  0
  140.2630   72.7970  218.6860 N   0  0  0  0  0  0  0  0  0  0  0  0
  139.9840   73.8540  217.7020 C   0  0  0  0  0  0  0  0  0  0  0  0
  141.3550   74.2170  217.1170 C   0  0  0  0  0  0  0  0  0  0  0  0
  142.0650   74.9290  218.0650 N   0  0  0  0  0  0  0  0  0  0  0  0
  143.0960   74.3840  218.8290 C   0  0  0  0  0  0  0  0  0  0  0  0
  143.1610   75.2480  220.0720 C   0  0  0  0  0  0  0  0  0  0  0  0
  142.7060   76.6070  219.5620 C   0  0  0  0  0  0  0  0  0  0  0  0
  141.6480   76.1870  218.5400 C   0  0  0  0  0  0  0  0  0  0  0  0
  140.0630   74.3260  220.5030 N   0  0  0  0  0  0  0  0  0  0  0  0
  139.9610   74.5930  221.8220 C   0  0  0  0  0  0  0  0  0  0  0  0
  139.8640   75.9210  222.3340 N   0  0  0  0  0  0  0  0  0  0  0  0
  138.5610   76.5110  222.6810 C   0  0  0  0  0  0  0  0  0  0  0  0
  138.4250   77.8010  221.8580 C   0  0  0  0  0  0  0  0  0  0  0  0
  139.4920   78.6990  222.4320 C   0  0  0  0  0  0  0  0  0  0  0  0
  139.2150   80.0490  222.6430 C   0  0  0  0  0  0  0  0  0  0  0  0
  140.2450   80.8140  223.1770 C   0  0  0  0  0  0  0  0  0  0  0  0
  141.4820   80.2900  223.4870 C   0  0  0  0  0  0  0  0  0  0  0  0
  141.7330   78.9490  223.2700 C   0  0  0  0  0  0  0  0  0  0  0  0
  140.7190   78.1530  222.7350 C   0  0  0  0  0  0  0  0  0  0  0  0
  141.0590   76.7220  222.5270 C   0  0  0  0  0  0  0  0  0  0  0  0
  139.9530   73.5650  222.6950 N   0  0  0  0  0  0  0  0  0  0  0  0
  140.4350   71.7000  224.6940 C   0  0  0  0  0  0  0  0  0  0  0  0
  140.2012   67.7662  228.2555 H   0  0  0  0  0  0  0  0  0  0  0  0
  141.5019   69.8238  228.7816 H   0  0  0  0  0  0  0  0  0  0  0  0
  141.5710   71.6379  227.0554 H   0  0  0  0  0  0  0  0  0  0  0  0
  139.0200   67.5089  226.1157 H   0  0  0  0  0  0  0  0  0  0  0  0
  139.4764   68.5752  223.4136 H   0  0  0  0  0  0  0  0  0  0  0  0
  137.9258   68.6985  224.2710 H   0  0  0  0  0  0  0  0  0  0  0  0
  138.1872   70.4737  222.4786 H   0  0  0  0  0  0  0  0  0  0  0  0
  138.0013   71.1983  224.0864 H   0  0  0  0  0  0  0  0  0  0  0  0
  140.7605   70.4638  222.9585 H   0  0  0  0  0  0  0  0  0  0  0  0
  140.5420   71.8480  218.3710 H   0  0  0  0  0  0  0  0  0  0  0  0
  139.3126   73.4823  216.9139 H   0  0  0  0  0  0  0  0  0  0  0  0
  139.4833   74.7220  218.1558 H   0  0  0  0  0  0  0  0  0  0  0  0
  141.9018   73.2986  216.8572 H   0  0  0  0  0  0  0  0  0  0  0  0
  141.2269   74.8247  216.2091 H   0  0  0  0  0  0  0  0  0  0  0  0
  142.8706   73.3406  219.0946 H   0  0  0  0  0  0  0  0  0  0  0  0
  144.0516   74.3706  218.2843 H   0  0  0  0  0  0  0  0  0  0  0  0
  142.4840   74.8708  220.8526 H   0  0  0  0  0  0  0  0  0  0  0  0
  144.1579   75.2686  220.5364 H   0  0  0  0  0  0  0  0  0  0  0  0
  142.2716   77.2175  220.3674 H   0  0  0  0  0  0  0  0  0  0  0  0
  143.5118   77.2343  219.1532 H   0  0  0  0  0  0  0  0  0  0  0  0
  140.6604   76.1097  219.0182 H   0  0  0  0  0  0  0  0  0  0  0  0
  141.5523   76.9203  217.7257 H   0  0  0  0  0  0  0  0  0  0  0  0
  137.7496   75.8128  222.4277 H   0  0  0  0  0  0  0  0  0  0  0  0
  138.4974   76.7217  223.7588 H   0  0  0  0  0  0  0  0  0  0  0  0
  138.6066   77.6073  220.7905 H   0  0  0  0  0  0  0  0  0  0  0  0
  137.4185   78.2412  221.9146 H   0  0  0  0  0  0  0  0  0  0  0  0
  138.2347   80.4848  222.4001 H   0  0  0  0  0  0  0  0  0  0  0  0
  140.0656   81.8837  223.3602 H   0  0  0  0  0  0  0  0  0  0  0  0
  142.2664   80.9376  223.9057 H   0  0  0  0  0  0  0  0  0  0  0  0
  142.7143   78.5163  223.5145 H   0  0  0  0  0  0  0  0  0  0  0  0
  141.6994   76.6311  221.6373 H   0  0  0  0  0  0  0  0  0  0  0  0
  141.5834   76.3551  223.4216 H   0  0  0  0  0  0  0  0  0  0  0  0
  141.4703   72.0707  224.6675 H   0  0  0  0  0  0  0  0  0  0  0  0
  139.7761   72.5223  225.0098 H   0  0  0  0  0  0  0  0  0  0  0  0
  1  2  2  0
  2  3  1  0
  3  4  2  0
  4  5  1  0
  5  6  2  0
  5  7  1  0
  7  8  1  0
  8  9  1  0
  9 10  1  0
 10 11  2  0
 11 12  1  0
 12 13  1  0
 13 14  1  0
 14 15  1  0
 15 16  1  0
 16 17  1  0
 17 18  1  0
 18 19  1  0
 19 20  1  0
 12 21  2  0
 21 22  1  0
 22 23  1  0
 23 24  1  0
 24 25  1  0
 25 26  1  0
 26 27  2  0
 27 28  1  0
 28 29  2  0
 29 30  1  0
 30 31  2  0
 31 32  1  0
 22 33  2  0
  9 34  1  0
  6  1  1  0
 33 10  1  0
 34  4  1  0
 20 16  1  0
 32 23  1  0
 31 26  1  0
  1 35  1  0
  2 36  1  0
  3 37  1  0
  6 38  1  0
  7 39  1  0
  7 40  1  0
  8 41  1  0
  8 42  1  0
  9 43  1  6
 13 44  1  0
 14 45  1  0
 14 46  1  0
 15 47  1  0
 15 48  1  0
 17 49  1  0
 17 50  1  0
 18 51  1  0
 18 52  1  0
 19 53  1  0
 19 54  1  0
 20 55  1  0
 20 56  1  0
 24 57  1  0
 24 58  1  0
 25 59  1  0
 25 60  1  0
 27 61  1  0
 28 62  1  0
 29 63  1  0
 30 64  1  0
 32 65  1  0
 32 66  1  0
 34 67  1  0
 34 68  1  0
M  END
>  <smiles>  (56) 
c1ccc2c(c1)CCC(c1nc(NCCN3CCCC3)nc(N3CCc4ccccc4C3)n1)C2

>  <score_type>  (56) 
oracle

>  <origin>  (56) 
autodockgpu

>  <m_score__min__energy>  (56) 
-9.8699999999999992

>  <m_primary>  (56) 
energy

>  <rmsd>  (56) 
3.66702042414243

>  <m_score__min__rmsd>  (56) 
3.66702042414243

>  <meeko>  (56) 
{"free_energy": -8.69, "intermolecular_energy": -10.48, "internal_energy": -1.99, "cluster_size": 47, "cluster_id": 2, "rank_in_cluster": 38}

>  <energy>  (56) 
-9.5

>  <cluster_rmsd>  (56) 
0.29

>  <cluster>  (56) 
2

$$$$

     RDKit          3D

 68 73  0  0  0  0  0  0  0  0999 V2000
  140.5310   80.7750  223.7090 C   0  0  0  0  0  0  0  0  0  0  0  0
  141.8150   80.2900  223.5570 C   0  0  0  0  0  0  0  0  0  0  0  0
  141.9410   78.9980  223.0660 C   0  0  0  0  0  0  0  0  0  0  0  0
  140.8160   78.2310  222.7420 C   0  0  0  0  0  0  0  0  0  0  0  0
  139.5500   78.7340  222.9010 C   0  0  0  0  0  0  0  0  0  0  0  0
  139.4160   80.0220  223.3910 C   0  0  0  0  0  0  0  0  0  0  0  0
  138.3120   77.9770  222.5810 C   0  0  0  0  0  0  0  0  0  0  0  0
  138.7170   76.8590  221.6340 C   0  0  0  0  0  0  0  0  0  0  0  0
  139.7970   76.0720  222.3440 C   0  0  1  0  0  0  0  0  0  0  0  0
  139.9370   74.7090  221.7930 C   0  0  0  0  0  0  0  0  0  0  0  0
  140.0490   74.4690  220.4620 N   0  0  0  0  0  0  0  0  0  0  0  0
  140.1720   73.1970  219.9890 C   0  0  0  0  0  0  0  0  0  0  0  0
  140.2890   72.9430  218.5940 N   0  0  0  0  0  0  0  0  0  0  0  0
  140.0770   74.0170  217.6130 C   0  0  0  0  0  0  0  0  0  0  0  0
  141.4710   74.3060  217.0390 C   0  0  0  0  0  0  0  0  0  0  0  0
  142.2360   74.9020  218.0220 N   0  0  0  0  0  0  0  0  0  0  0  0
  143.1900   74.2230  218.7780 C   0  0  0  0  0  0  0  0  0  0  0  0
  143.3270   75.0300  220.0530 C   0  0  0  0  0  0  0  0  0  0  0  0
  143.0300   76.4480  219.5880 C   0  0  0  0  0  0  0  0  0  0  0  0
  141.9500   76.1810  218.5380 C   0  0  0  0  0  0  0  0  0  0  0  0
  140.1850   72.1610  220.8430 N   0  0  0  0  0  0  0  0  0  0  0  0
  140.0750   72.3800  222.1710 C   0  0  0  0  0  0  0  0  0  0  0  0
  140.0780   71.3220  223.1270 N   0  0  0  0  0  0  0  0  0  0  0  0
  139.4940   70.0080  222.8140 C   0  0  0  0  0  0  0  0  0  0  0  0
  138.4210   69.7340  223.8790 C   0  0  0  0  0  0  0  0  0  0  0  0
  139.2180   69.5800  225.1510 C   0  0  0  0  0  0  0  0  0  0  0  0
  138.8780   68.5780  226.0580 C   0  0  0  0  0  0  0  0  0  0  0  0
  139.6580   68.4930  227.2050 C   0  0  0  0  0  0  0  0  0  0  0  0
  140.7140   69.3440  227.4540 C   0  0  0  0  0  0  0  0  0  0  0  0
  141.0330   70.3290  226.5400 C   0  0  0  0  0  0  0  0  0  0  0  0
  140.2680   70.4400  225.3770 C   0  0  0  0  0  0  0  0  0  0  0  0
  140.6660   71.5210  224.4400 C   0  0  0  0  0  0  0  0  0  0  0  0
  139.9540   73.6480  222.6130 N   0  0  0  0  0  0  0  0  0  0  0  0
  141.0750   76.8720  222.2260 C   0  0  0  0  0  0  0  0  0  0  0  0
  140.3906   81.7950  224.0962 H   0  0  0  0  0  0  0  0  0  0  0  0
  142.6952   80.8982  223.8127 H   0  0  0  0  0  0  0  0  0  0  0  0
  142.9444   78.5685  222.9288 H   0  0  0  0  0  0  0  0  0  0  0  0
  138.4123   80.4505  223.5287 H   0  0  0  0  0  0  0  0  0  0  0  0
  137.8763   77.5568  223.4995 H   0  0  0  0  0  0  0  0  0  0  0  0
  137.5558   78.6306  222.1216 H   0  0  0  0  0  0  0  0  0  0  0  0
  137.8542   76.2120  221.4173 H   0  0  0  0  0  0  0  0  0  0  0  0
  139.0782   77.2584  220.6748 H   0  0  0  0  0  0  0  0  0  0  0  0
  139.5368   75.9269  223.4029 H   0  0  0  0  0  0  0  0  0  0  0  0
  140.5280   71.9830  218.2780 H   0  0  0  0  0  0  0  0  0  0  0  0
  139.3919   73.6862  216.8185 H   0  0  0  0  0  0  0  0  0  0  0  0
  139.6221   74.9097  218.0671 H   0  0  0  0  0  0  0  0  0  0  0  0
  141.9435   73.3649  216.7210 H   0  0  0  0  0  0  0  0  0  0  0  0
  141.3887   74.9743  216.1692 H   0  0  0  0  0  0  0  0  0  0  0  0
  142.8501   73.2011  219.0019 H   0  0  0  0  0  0  0  0  0  0  0  0
  144.1475   74.1268  218.2451 H   0  0  0  0  0  0  0  0  0  0  0  0
  142.6001   74.7009  220.8102 H   0  0  0  0  0  0  0  0  0  0  0  0
  144.3124   74.9257  220.5306 H   0  0  0  0  0  0  0  0  0  0  0  0
  142.6507   77.0731  220.4098 H   0  0  0  0  0  0  0  0  0  0  0  0
  143.9054   76.9986  219.2132 H   0  0  0  0  0  0  0  0  0  0  0  0
  140.9521   76.1948  219.0006 H   0  0  0  0  0  0  0  0  0  0  0  0
  141.9480   76.9483  217.7498 H   0  0  0  0  0  0  0  0  0  0  0  0
  139.0383   70.0249  221.8130 H   0  0  0  0  0  0  0  0  0  0  0  0
  140.2642   69.2226  222.8185 H   0  0  0  0  0  0  0  0  0  0  0  0
  137.7183   70.5769  223.9550 H   0  0  0  0  0  0  0  0  0  0  0  0
  137.8055   68.8516  223.6497 H   0  0  0  0  0  0  0  0  0  0  0  0
  138.0379   67.8917  225.8759 H   0  0  0  0  0  0  0  0  0  0  0  0
  139.4231   67.7141  227.9454 H   0  0  0  0  0  0  0  0  0  0  0  0
  141.3009   69.2386  228.3784 H   0  0  0  0  0  0  0  0  0  0  0  0
  141.8741   71.0134  226.7247 H   0  0  0  0  0  0  0  0  0  0  0  0
  140.3269   72.4871  224.8421 H   0  0  0  0  0  0  0  0  0  0  0  0
  141.7610   71.5062  224.3367 H   0  0  0  0  0  0  0  0  0  0  0  0
  141.8698   76.3940  222.8174 H   0  0  0  0  0  0  0  0  0  0  0  0
  141.3991   76.9189  221.1759 H   0  0  0  0  0  0  0  0  0  0  0  0
  1  2  2  0
  2  3  1  0
  3  4  2  0
  4  5  1  0
  5  6  2  0
  5  7  1  0
  7  8  1  0
  8  9  1  0
  9 10  1  0
 10 11  2  0
 11 12  1  0
 12 13  1  0
 13 14  1  0
 14 15  1  0
 15 16  1  0
 16 17  1  0
 17 18  1  0
 18 19  1  0
 19 20  1  0
 12 21  2  0
 21 22  1  0
 22 23  1  0
 23 24  1  0
 24 25  1  0
 25 26  1  0
 26 27  2  0
 27 28  1  0
 28 29  2  0
 29 30  1  0
 30 31  2  0
 31 32  1  0
 22 33  2  0
  9 34  1  0
  6  1  1  0
 33 10  1  0
 34  4  1  0
 20 16  1  0
 32 23  1  0
 31 26  1  0
  1 35  1  0
  2 36  1  0
  3 37  1  0
  6 38  1  0
  7 39  1  0
  7 40  1  0
  8 41  1  0
  8 42  1  0
  9 43  1  1
 13 44  1  0
 14 45  1  0
 14 46  1  0
 15 47  1  0
 15 48  1  0
 17 49  1  0
 17 50  1  0
 18 51  1  0
 18 52  1  0
 19 53  1  0
 19 54  1  0
 20 55  1  0
 20 56  1  0
 24 57  1  0
 24 58  1  0
 25 59  1  0
 25 60  1  0
 27 61  1  0
 28 62  1  0
 29 63  1  0
 30 64  1  0
 32 65  1  0
 32 66  1  0
 34 67  1  0
 34 68  1  0
M  END
>  <smiles>  (57) 
c1ccc2c(c1)CCC(c1nc(NCCN3CCCC3)nc(N3CCc4ccccc4C3)n1)C2

>  <score_type>  (57) 
oracle

>  <origin>  (57) 
autodockgpu

>  <m_score__min__energy>  (57) 
-9.8699999999999992

>  <m_primary>  (57) 
energy

>  <rmsd>  (57) 
3.8429322300336763

>  <m_score__min__rmsd>  (57) 
3.8429322300336763

>  <meeko>  (57) 
{"free_energy": -8.64, "intermolecular_energy": -10.43, "internal_energy": -2.0, "cluster_size": 47, "cluster_id": 2, "rank_in_cluster": 42}

>  <energy>  (57) 
-9.42

>  <cluster_rmsd>  (57) 
0.36

>  <cluster>  (57) 
2

$$$$

     RDKit          3D

 68 73  0  0  0  0  0  0  0  0999 V2000
  141.1240   80.3240  220.7000 C   0  0  0  0  0  0  0  0  0  0  0  0
  141.8800   79.7690  219.6860 C   0  0  0  0  0  0  0  0  0  0  0  0
  141.9230   78.3830  219.6240 C   0  0  0  0  0  0  0  0  0  0  0  0
  141.2280   77.5940  220.5480 C   0  0  0  0  0  0  0  0  0  0  0  0
  140.4830   78.1670  221.5460 C   0  0  0  0  0  0  0  0  0  0  0  0
  140.4360   79.5480  221.6140 C   0  0  0  0  0  0  0  0  0  0  0  0
  139.7230   77.3920  222.5610 C   0  0  0  0  0  0  0  0  0  0  0  0
  139.5280   75.9970  221.9900 C   0  0  0  0  0  0  0  0  0  0  0  0
  140.9120   75.4730  221.6710 C   0  0  1  0  0  0  0  0  0  0  0  0
  140.9340   73.9990  221.5820 C   0  0  0  0  0  0  0  0  0  0  0  0
  141.2220   73.3420  220.4310 N   0  0  0  0  0  0  0  0  0  0  0  0
  141.2290   71.9800  220.3850 C   0  0  0  0  0  0  0  0  0  0  0  0
  141.5290   71.2890  219.1780 N   0  0  0  0  0  0  0  0  0  0  0  0
  142.9200   71.1270  218.7300 C   0  0  0  0  0  0  0  0  0  0  0  0
  143.3570   72.5310  218.2880 C   0  0  0  0  0  0  0  0  0  0  0  0
  144.2430   73.0310  219.2220 N   0  0  0  0  0  0  0  0  0  0  0  0
  145.1850   72.2490  219.8910 C   0  0  0  0  0  0  0  0  0  0  0  0
  145.4880   73.0070  221.1670 C   0  0  0  0  0  0  0  0  0  0  0  0
  145.2870   74.4580  220.7530 C   0  0  0  0  0  0  0  0  0  0  0  0
  144.1130   74.3160  219.7830 C   0  0  0  0  0  0  0  0  0  0  0  0
  140.9510   71.2690  221.4900 N   0  0  0  0  0  0  0  0  0  0  0  0
  140.6640   71.9050  222.6460 C   0  0  0  0  0  0  0  0  0  0  0  0
  140.3560   71.2080  223.8520 N   0  0  0  0  0  0  0  0  0  0  0  0
  140.5210   71.8480  225.1660 C   0  0  0  0  0  0  0  0  0  0  0  0
  141.4750   70.9570  225.9770 C   0  0  0  0  0  0  0  0  0  0  0  0
  140.6800   69.6930  226.1910 C   0  0  0  0  0  0  0  0  0  0  0  0
  140.7160   69.0590  227.4310 C   0  0  0  0  0  0  0  0  0  0  0  0
  139.9580   67.9020  227.5550 C   0  0  0  0  0  0  0  0  0  0  0  0
  139.2040   67.3880  226.5210 C   0  0  0  0  0  0  0  0  0  0  0  0
  139.1830   68.0350  225.3000 C   0  0  0  0  0  0  0  0  0  0  0  0
  139.9350   69.2010  225.1430 C   0  0  0  0  0  0  0  0  0  0  0  0
  139.8660   69.8420  223.8060 C   0  0  0  0  0  0  0  0  0  0  0  0
  140.6630   73.2530  222.6640 N   0  0  0  0  0  0  0  0  0  0  0  0
  141.3460   76.1310  220.3800 C   0  0  0  0  0  0  0  0  0  0  0  0
  141.0675   81.4194  220.7829 H   0  0  0  0  0  0  0  0  0  0  0  0
  142.4221   80.3954  218.9623 H   0  0  0  0  0  0  0  0  0  0  0  0
  142.5140   77.8958  218.8344 H   0  0  0  0  0  0  0  0  0  0  0  0
  139.8447   80.0339  222.4041 H   0  0  0  0  0  0  0  0  0  0  0  0
  140.2908   77.3405  223.5017 H   0  0  0  0  0  0  0  0  0  0  0  0
  138.7560   77.8685  222.7798 H   0  0  0  0  0  0  0  0  0  0  0  0
  139.0357   75.3480  222.7292 H   0  0  0  0  0  0  0  0  0  0  0  0
  138.8908   76.0167  221.0936 H   0  0  0  0  0  0  0  0  0  0  0  0
  141.6157   75.7223  222.4789 H   0  0  0  0  0  0  0  0  0  0  0  0
  140.7480   70.9000  218.6160 H   0  0  0  0  0  0  0  0  0  0  0  0
  143.5528   70.7660  219.5542 H   0  0  0  0  0  0  0  0  0  0  0  0
  143.0113   70.3896  217.9188 H   0  0  0  0  0  0  0  0  0  0  0  0
  143.8476   72.4742  217.3051 H   0  0  0  0  0  0  0  0  0  0  0  0
  142.4801   73.1907  218.2109 H   0  0  0  0  0  0  0  0  0  0  0  0
  144.7707   71.2561  220.1202 H   0  0  0  0  0  0  0  0  0  0  0  0
  146.0879   72.0812  219.2855 H   0  0  0  0  0  0  0  0  0  0  0  0
  144.7921   72.7242  221.9706 H   0  0  0  0  0  0  0  0  0  0  0  0
  146.4924   72.8032  221.5666 H   0  0  0  0  0  0  0  0  0  0  0  0
  145.0276   75.0927  221.6132 H   0  0  0  0  0  0  0  0  0  0  0  0
  146.1787   74.9380  220.3235 H   0  0  0  0  0  0  0  0  0  0  0  0
  143.1573   74.4063  220.3201 H   0  0  0  0  0  0  0  0  0  0  0  0
  144.1225   75.1010  219.0125 H   0  0  0  0  0  0  0  0  0  0  0  0
  140.9515   72.8532  225.0463 H   0  0  0  0  0  0  0  0  0  0  0  0
  139.5527   71.9568  225.6765 H   0  0  0  0  0  0  0  0  0  0  0  0
  142.3962   70.7512  225.4122 H   0  0  0  0  0  0  0  0  0  0  0  0
  141.8000   71.4233  226.9188 H   0  0  0  0  0  0  0  0  0  0  0  0
  141.3126   69.4535  228.2667 H   0  0  0  0  0  0  0  0  0  0  0  0
  139.9590   67.3728  228.5193 H   0  0  0  0  0  0  0  0  0  0  0  0
  138.6215   66.4665  226.6676 H   0  0  0  0  0  0  0  0  0  0  0  0
  138.5845   67.6385  224.4666 H   0  0  0  0  0  0  0  0  0  0  0  0
  140.4798   69.2644  223.0992 H   0  0  0  0  0  0  0  0  0  0  0  0
  138.8148   69.8600  223.4825 H   0  0  0  0  0  0  0  0  0  0  0  0
  142.3898   75.8642  220.1581 H   0  0  0  0  0  0  0  0  0  0  0  0
  140.7128   75.7908  219.5474 H   0  0  0  0  0  0  0  0  0  0  0  0
  1  2  2  0
  2  3  1  0
  3  4  2  0
  4  5  1  0
  5  6  2  0
  5  7  1  0
  7  8  1  0
  8  9  1  0
  9 10  1  0
 10 11  2  0
 11 12  1  0
 12 13  1  0
 13 14  1  0
 14 15  1  0
 15 16  1  0
 16 17  1  0
 17 18  1  0
 18 19  1  0
 19 20  1  0
 12 21  2  0
 21 22  1  0
 22 23  1  0
 23 24  1  0
 24 25  1  0
 25 26  1  0
 26 27  2  0
 27 28  1  0
 28 29  2  0
 29 30  1  0
 30 31  2  0
 31 32  1  0
 22 33  2  0
  9 34  1  0
  6  1  1  0
 33 10  1  0
 34  4  1  0
 20 16  1  0
 32 23  1  0
 31 26  1  0
  1 35  1  0
  2 36  1  0
  3 37  1  0
  6 38  1  0
  7 39  1  0
  7 40  1  0
  8 41  1  0
  8 42  1  0
  9 43  1  1
 13 44  1  0
 14 45  1  0
 14 46  1  0
 15 47  1  0
 15 48  1  0
 17 49  1  0
 17 50  1  0
 18 51  1  0
 18 52  1  0
 19 53  1  0
 19 54  1  0
 20 55  1  0
 20 56  1  0
 24 57  1  0
 24 58  1  0
 25 59  1  0
 25 60  1  0
 27 61  1  0
 28 62  1  0
 29 63  1  0
 30 64  1  0
 32 65  1  0
 32 66  1  0
 34 67  1  0
 34 68  1  0
M  END
>  <smiles>  (58) 
c1ccc2c(c1)CCC(c1nc(NCCN3CCCC3)nc(N3CCc4ccccc4C3)n1)C2

>  <score_type>  (58) 
oracle

>  <origin>  (58) 
autodockgpu

>  <m_score__min__energy>  (58) 
-9.8699999999999992

>  <m_primary>  (58) 
energy

>  <rmsd>  (58) 
5.890070859955194

>  <m_score__min__rmsd>  (58) 
5.890070859955194

>  <meeko>  (58) 
{"free_energy": -8.4, "intermolecular_energy": -10.19, "internal_energy": -1.82, "cluster_size": 47, "cluster_id": 2, "rank_in_cluster": 46}

>  <energy>  (58) 
-9.4

>  <cluster_rmsd>  (58) 
0.59

>  <cluster>  (58) 
2

$$$$

     RDKit          3D

 68 73  0  0  0  0  0  0  0  0999 V2000
  140.2910   68.4930  227.4910 C   0  0  0  0  0  0  0  0  0  0  0  0
  141.0270   69.6210  227.7980 C   0  0  0  0  0  0  0  0  0  0  0  0
  141.0640   70.6240  226.8390 C   0  0  0  0  0  0  0  0  0  0  0  0
  140.3830   70.4910  225.6230 C   0  0  0  0  0  0  0  0  0  0  0  0
  139.6580   69.3620  225.3400 C   0  0  0  0  0  0  0  0  0  0  0  0
  139.6170   68.3570  226.2910 C   0  0  0  0  0  0  0  0  0  0  0  0
  138.9140   69.1510  224.0710 C   0  0  0  0  0  0  0  0  0  0  0  0
  138.7040   70.5250  223.4550 C   0  0  0  0  0  0  0  0  0  0  0  0
  140.0800   71.1390  223.3100 C   0  0  1  0  0  0  0  0  0  0  0  0
  140.0960   72.2210  222.3060 C   0  0  0  0  0  0  0  0  0  0  0  0
  140.2170   71.9810  220.9770 N   0  0  0  0  0  0  0  0  0  0  0  0
  140.2330   73.0050  220.0780 C   0  0  0  0  0  0  0  0  0  0  0  0
  140.3610   72.7550  218.6840 N   0  0  0  0  0  0  0  0  0  0  0  0
  141.6440   72.9640  217.9970 C   0  0  0  0  0  0  0  0  0  0  0  0
  142.2230   74.2390  218.6250 C   0  0  0  0  0  0  0  0  0  0  0  0
  143.3550   73.9030  219.3410 N   0  0  0  0  0  0  0  0  0  0  0  0
  143.7390   72.5900  219.6100 C   0  0  0  0  0  0  0  0  0  0  0  0
  144.6070   72.6820  220.8480 C   0  0  0  0  0  0  0  0  0  0  0  0
  145.2420   74.0580  220.7140 C   0  0  0  0  0  0  0  0  0  0  0  0
  144.0870   74.8440  220.0920 C   0  0  0  0  0  0  0  0  0  0  0  0
  140.1260   74.2740  220.5050 N   0  0  0  0  0  0  0  0  0  0  0  0
  140.0040   74.5340  221.8240 C   0  0  0  0  0  0  0  0  0  0  0  0
  139.8900   75.8590  222.3400 N   0  0  0  0  0  0  0  0  0  0  0  0
  138.5830   76.4220  222.7160 C   0  0  0  0  0  0  0  0  0  0  0  0
  138.4030   77.7100  221.8990 C   0  0  0  0  0  0  0  0  0  0  0  0
  139.4640   78.6290  222.4520 C   0  0  0  0  0  0  0  0  0  0  0  0
  139.1640   79.9720  222.6720 C   0  0  0  0  0  0  0  0  0  0  0  0
  140.1880   80.7580  223.1850 C   0  0  0  0  0  0  0  0  0  0  0  0
  141.4420   80.2590  223.4680 C   0  0  0  0  0  0  0  0  0  0  0  0
  141.7160   78.9240  223.2430 C   0  0  0  0  0  0  0  0  0  0  0  0
  140.7070   78.1070  222.7280 C   0  0  0  0  0  0  0  0  0  0  0  0
  141.0720   76.6850  222.5100 C   0  0  0  0  0  0  0  0  0  0  0  0
  139.9910   73.5020  222.6920 N   0  0  0  0  0  0  0  0  0  0  0  0
  140.4930   71.6240  224.6820 C   0  0  0  0  0  0  0  0  0  0  0  0
  140.2393   67.6757  228.2254 H   0  0  0  0  0  0  0  0  0  0  0  0
  141.5581   69.7197  228.7562 H   0  0  0  0  0  0  0  0  0  0  0  0
  141.6391   71.5403  227.0382 H   0  0  0  0  0  0  0  0  0  0  0  0
  139.0424   67.4407  226.0902 H   0  0  0  0  0  0  0  0  0  0  0  0
  139.4987   68.5153  223.3898 H   0  0  0  0  0  0  0  0  0  0  0  0
  137.9530   68.6481  224.2543 H   0  0  0  0  0  0  0  0  0  0  0  0
  138.2226   70.4317  222.4703 H   0  0  0  0  0  0  0  0  0  0  0  0
  138.0511   71.1495  224.0825 H   0  0  0  0  0  0  0  0  0  0  0  0
  140.7990   70.3938  222.9389 H   0  0  0  0  0  0  0  0  0  0  0  0
  139.5310   72.4230  218.1560 H   0  0  0  0  0  0  0  0  0  0  0  0
  142.3166   72.1099  218.1644 H   0  0  0  0  0  0  0  0  0  0  0  0
  141.5210   73.0570  216.9079 H   0  0  0  0  0  0  0  0  0  0  0  0
  142.4848   74.9562  217.8331 H   0  0  0  0  0  0  0  0  0  0  0  0
  141.4797   74.7001  219.2920 H   0  0  0  0  0  0  0  0  0  0  0  0
  142.8573   71.9608  219.8017 H   0  0  0  0  0  0  0  0  0  0  0  0
  144.2731   72.1337  218.7635 H   0  0  0  0  0  0  0  0  0  0  0  0
  144.0004   72.6131  221.7630 H   0  0  0  0  0  0  0  0  0  0  0  0
  145.3434   71.8685  220.9246 H   0  0  0  0  0  0  0  0  0  0  0  0
  145.5306   74.4683  221.6930 H   0  0  0  0  0  0  0  0  0  0  0  0
  146.1736   74.0759  220.1293 H   0  0  0  0  0  0  0  0  0  0  0  0
  143.4551   75.2853  220.8769 H   0  0  0  0  0  0  0  0  0  0  0  0
  144.4473   75.6745  219.4672 H   0  0  0  0  0  0  0  0  0  0  0  0
  137.7807   75.7079  222.4788 H   0  0  0  0  0  0  0  0  0  0  0  0
  138.5385   76.6298  223.7953 H   0  0  0  0  0  0  0  0  0  0  0  0
  138.5654   77.5218  220.8275 H   0  0  0  0  0  0  0  0  0  0  0  0
  137.3892   78.1294  221.9782 H   0  0  0  0  0  0  0  0  0  0  0  0
  138.1696   80.3874  222.4513 H   0  0  0  0  0  0  0  0  0  0  0  0
  139.9902   81.8235  223.3735 H   0  0  0  0  0  0  0  0  0  0  0  0
  142.2215   80.9219  223.8716 H   0  0  0  0  0  0  0  0  0  0  0  0
  142.7112   78.5116  223.4655 H   0  0  0  0  0  0  0  0  0  0  0  0
  141.6955   76.6091  221.6070 H   0  0  0  0  0  0  0  0  0  0  0  0
  141.6223   76.3276  223.3929 H   0  0  0  0  0  0  0  0  0  0  0  0
  141.5318   71.9845  224.6527 H   0  0  0  0  0  0  0  0  0  0  0  0
  139.8435   72.4511  225.0047 H   0  0  0  0  0  0  0  0  0  0  0  0
  1  2  2  0
  2  3  1  0
  3  4  2  0
  4  5  1  0
  5  6  2  0
  5  7  1  0
  7  8  1  0
  8  9  1  0
  9 10  1  0
 10 11  2  0
 11 12  1  0
 12 13  1  0
 13 14  1  0
 14 15  1  0
 15 16  1  0
 16 17  1  0
 17 18  1  0
 18 19  1  0
 19 20  1  0
 12 21  2  0
 21 22  1  0
 22 23  1  0
 23 24  1  0
 24 25  1  0
 25 26  1  0
 26 27  2  0
 27 28  1  0
 28 29  2  0
 29 30  1  0
 30 31  2  0
 31 32  1  0
 22 33  2  0
  9 34  1  0
  6  1  1  0
 33 10  1  0
 34  4  1  0
 20 16  1  0
 32 23  1  0
 31 26  1  0
  1 35  1  0
  2 36  1  0
  3 37  1  0
  6 38  1  0
  7 39  1  0
  7 40  1  0
  8 41  1  0
  8 42  1  0
  9 43  1  6
 13 44  1  0
 14 45  1  0
 14 46  1  0
 15 47  1  0
 15 48  1  0
 17 49  1  0
 17 50  1  0
 18 51  1  0
 18 52  1  0
 19 53  1  0
 19 54  1  0
 20 55  1  0
 20 56  1  0
 24 57  1  0
 24 58  1  0
 25 59  1  0
 25 60  1  0
 27 61  1  0
 28 62  1  0
 29 63  1  0
 30 64  1  0
 32 65  1  0
 32 66  1  0
 34 67  1  0
 34 68  1  0
M  END
>  <smiles>  (59) 
c1ccc2c(c1)CCC(c1nc(NCCN3CCCC3)nc(N3CCc4ccccc4C3)n1)C2

>  <score_type>  (59) 
oracle

>  <origin>  (59) 
autodockgpu

>  <m_score__min__energy>  (59) 
-9.8699999999999992

>  <m_primary>  (59) 
energy

>  <rmsd>  (59) 
5.393091421327199

>  <m_score__min__rmsd>  (59) 
5.393091421327199

>  <meeko>  (59) 
{"free_energy": -9.4, "intermolecular_energy": -11.19, "internal_energy": -1.59, "cluster_size": 47, "cluster_id": 2, "rank_in_cluster": 5}

>  <energy>  (59) 
-9.4

>  <cluster_rmsd>  (59) 
0.58

>  <cluster>  (59) 
2

$$$$

     RDKit          3D

 68 73  0  0  0  0  0  0  0  0999 V2000
  141.0080   81.4090  222.1920 C   0  0  0  0  0  0  0  0  0  0  0  0
  140.8640   80.8980  223.4670 C   0  0  0  0  0  0  0  0  0  0  0  0
  140.8910   79.5160  223.5940 C   0  0  0  0  0  0  0  0  0  0  0  0
  141.0570   78.6880  222.4780 C   0  0  0  0  0  0  0  0  0  0  0  0
  141.1980   79.2180  221.2210 C   0  0  0  0  0  0  0  0  0  0  0  0
  141.1730   80.5950  221.0870 C   0  0  0  0  0  0  0  0  0  0  0  0
  141.3760   78.4010  219.9930 C   0  0  0  0  0  0  0  0  0  0  0  0
  141.8600   77.0330  220.4450 C   0  0  0  0  0  0  0  0  0  0  0  0
  140.8270   76.5210  221.4250 C   0  0  1  0  0  0  0  0  0  0  0  0
  140.8860   75.0520  221.5680 C   0  0  0  0  0  0  0  0  0  0  0  0
  139.9470   74.3480  222.2500 N   0  0  0  0  0  0  0  0  0  0  0  0
  140.0360   72.9930  222.3650 C   0  0  0  0  0  0  0  0  0  0  0  0
  139.0540   72.2530  223.0810 N   0  0  0  0  0  0  0  0  0  0  0  0
  139.3660   70.9260  223.6320 C   0  0  0  0  0  0  0  0  0  0  0  0
  140.6820   71.1190  224.3990 C   0  0  0  0  0  0  0  0  0  0  0  0
  140.4340   70.9530  225.7470 N   0  0  0  0  0  0  0  0  0  0  0  0
  140.8460   71.8560  226.7270 C   0  0  0  0  0  0  0  0  0  0  0  0
  140.9170   71.0430  228.0030 C   0  0  0  0  0  0  0  0  0  0  0  0
  139.8370   69.9920  227.7950 C   0  0  0  0  0  0  0  0  0  0  0  0
  139.9750   69.7380  226.2920 C   0  0  0  0  0  0  0  0  0  0  0  0
  141.0610   72.3360  221.7990 N   0  0  0  0  0  0  0  0  0  0  0  0
  142.0040   73.0190  221.1150 C   0  0  0  0  0  0  0  0  0  0  0  0
  143.1180   72.3810  220.4950 N   0  0  0  0  0  0  0  0  0  0  0  0
  144.2080   73.1650  219.8910 C   0  0  0  0  0  0  0  0  0  0  0  0
  144.3100   72.7250  218.4220 C   0  0  0  0  0  0  0  0  0  0  0  0
  144.7830   71.2960  218.5140 C   0  0  0  0  0  0  0  0  0  0  0  0
  145.7530   70.8340  217.6270 C   0  0  0  0  0  0  0  0  0  0  0  0
  146.1420   69.5090  217.7730 C   0  0  0  0  0  0  0  0  0  0  0  0
  145.6110   68.6750  218.7340 C   0  0  0  0  0  0  0  0  0  0  0  0
  144.6500   69.1550  219.6030 C   0  0  0  0  0  0  0  0  0  0  0  0
  144.2380   70.4840  219.4830 C   0  0  0  0  0  0  0  0  0  0  0  0
  143.2030   70.9320  220.4490 C   0  0  0  0  0  0  0  0  0  0  0  0
  141.8930   74.3590  221.0160 N   0  0  0  0  0  0  0  0  0  0  0  0
  141.0710   77.2340  222.7360 C   0  0  0  0  0  0  0  0  0  0  0  0
  140.9908   82.4998  222.0512 H   0  0  0  0  0  0  0  0  0  0  0  0
  140.7341   81.5546  224.3399 H   0  0  0  0  0  0  0  0  0  0  0  0
  140.7799   79.0632  224.5903 H   0  0  0  0  0  0  0  0  0  0  0  0
  141.2857   81.0468  220.0904 H   0  0  0  0  0  0  0  0  0  0  0  0
  140.4194   78.3070  219.4582 H   0  0  0  0  0  0  0  0  0  0  0  0
  142.0975   78.8693  219.3073 H   0  0  0  0  0  0  0  0  0  0  0  0
  141.9386   76.3529  219.5840 H   0  0  0  0  0  0  0  0  0  0  0  0
  142.8559   77.0936  220.9082 H   0  0  0  0  0  0  0  0  0  0  0  0
  139.8107   76.7333  221.0616 H   0  0  0  0  0  0  0  0  0  0  0  0
  138.1100   72.6650  223.2080 H   0  0  0  0  0  0  0  0  0  0  0  0
  138.5677   70.5907  224.3105 H   0  0  0  0  0  0  0  0  0  0  0  0
  139.4515   70.1602  222.8470 H   0  0  0  0  0  0  0  0  0  0  0  0
  141.4192   70.3748  224.0633 H   0  0  0  0  0  0  0  0  0  0  0  0
  141.0822   72.1263  224.2115 H   0  0  0  0  0  0  0  0  0  0  0  0
  141.8332   72.2727  226.4785 H   0  0  0  0  0  0  0  0  0  0  0  0
  140.1581   72.7095  226.8183 H   0  0  0  0  0  0  0  0  0  0  0  0
  141.9062   70.5764  228.1208 H   0  0  0  0  0  0  0  0  0  0  0  0
  140.7687   71.6453  228.9114 H   0  0  0  0  0  0  0  0  0  0  0  0
  140.0383   69.0825  228.3800 H   0  0  0  0  0  0  0  0  0  0  0  0
  138.8311   70.3009  228.1157 H   0  0  0  0  0  0  0  0  0  0  0  0
  140.7006   68.9331  226.1029 H   0  0  0  0  0  0  0  0  0  0  0  0
  139.0224   69.4221  225.8418 H   0  0  0  0  0  0  0  0  0  0  0  0
  143.9792   74.2394  219.9495 H   0  0  0  0  0  0  0  0  0  0  0  0
  145.1569   72.9951  220.4208 H   0  0  0  0  0  0  0  0  0  0  0  0
  143.3303   72.7836  217.9252 H   0  0  0  0  0  0  0  0  0  0  0  0
  144.9838   73.3618  217.8300 H   0  0  0  0  0  0  0  0  0  0  0  0
  146.1872   71.4837  216.8529 H   0  0  0  0  0  0  0  0  0  0  0  0
  146.9071   69.1073  217.0923 H   0  0  0  0  0  0  0  0  0  0  0  0
  145.9511   67.6316  218.8086 H   0  0  0  0  0  0  0  0  0  0  0  0
  144.2173   68.5022  220.3754 H   0  0  0  0  0  0  0  0  0  0  0  0
  142.2276   70.5251  220.1439 H   0  0  0  0  0  0  0  0  0  0  0  0
  143.4801   70.5679  221.4493 H   0  0  0  0  0  0  0  0  0  0  0  0
  140.2789   76.9753  223.4540 H   0  0  0  0  0  0  0  0  0  0  0  0
  142.0403   76.9317  223.1591 H   0  0  0  0  0  0  0  0  0  0  0  0
  1  2  2  0
  2  3  1  0
  3  4  2  0
  4  5  1  0
  5  6  2  0
  5  7  1  0
  7  8  1  0
  8  9  1  0
  9 10  1  0
 10 11  2  0
 11 12  1  0
 12 13  1  0
 13 14  1  0
 14 15  1  0
 15 16  1  0
 16 17  1  0
 17 18  1  0
 18 19  1  0
 19 20  1  0
 12 21  2  0
 21 22  1  0
 22 23  1  0
 23 24  1  0
 24 25  1  0
 25 26  1  0
 26 27  2  0
 27 28  1  0
 28 29  2  0
 29 30  1  0
 30 31  2  0
 31 32  1  0
 22 33  2  0
  9 34  1  0
  6  1  1  0
 33 10  1  0
 34  4  1  0
 20 16  1  0
 32 23  1  0
 31 26  1  0
  1 35  1  0
  2 36  1  0
  3 37  1  0
  6 38  1  0
  7 39  1  0
  7 40  1  0
  8 41  1  0
  8 42  1  0
  9 43  1  6
 13 44  1  0
 14 45  1  0
 14 46  1  0
 15 47  1  0
 15 48  1  0
 17 49  1  0
 17 50  1  0
 18 51  1  0
 18 52  1  0
 19 53  1  0
 19 54  1  0
 20 55  1  0
 20 56  1  0
 24 57  1  0
 24 58  1  0
 25 59  1  0
 25 60  1  0
 27 61  1  0
 28 62  1  0
 29 63  1  0
 30 64  1  0
 32 65  1  0
 32 66  1  0
 34 67  1  0
 34 68  1  0
M  END
>  <smiles>  (60) 
c1ccc2c(c1)CCC(c1nc(NCCN3CCCC3)nc(N3CCc4ccccc4C3)n1)C2

>  <score_type>  (60) 
oracle

>  <origin>  (60) 
autodockgpu

>  <m_score__min__energy>  (60) 
-9.8699999999999992

>  <m_primary>  (60) 
energy

>  <rmsd>  (60) 
8.453053260760615

>  <m_score__min__rmsd>  (60) 
8.453053260760615

>  <meeko>  (60) 
{"free_energy": -9.69, "intermolecular_energy": -11.48, "internal_energy": -1.1, "cluster_size": 3, "cluster_id": 1, "rank_in_cluster": 2}

>  <energy>  (60) 
-9.4

>  <cluster_rmsd>  (60) 
0.54

>  <cluster>  (60) 
2

$$$$

     RDKit          3D

 68 73  0  0  0  0  0  0  0  0999 V2000
  141.3770   81.2670  223.7940 C   0  0  0  0  0  0  0  0  0  0  0  0
  142.5700   80.7910  223.2880 C   0  0  0  0  0  0  0  0  0  0  0  0
  142.5380   79.5420  222.6810 C   0  0  0  0  0  0  0  0  0  0  0  0
  141.3490   78.8090  222.5900 C   0  0  0  0  0  0  0  0  0  0  0  0
  140.1760   79.3030  223.1000 C   0  0  0  0  0  0  0  0  0  0  0  0
  140.2000   80.5470  223.7070 C   0  0  0  0  0  0  0  0  0  0  0  0
  138.8790   78.5800  223.0420 C   0  0  0  0  0  0  0  0  0  0  0  0
  139.0070   77.5420  221.9390 C   0  0  0  0  0  0  0  0  0  0  0  0
  140.2100   76.6950  222.2930 C   0  0  1  0  0  0  0  0  0  0  0  0
  140.1750   75.3810  221.6190 C   0  0  0  0  0  0  0  0  0  0  0  0
  140.2080   75.2530  220.2690 N   0  0  0  0  0  0  0  0  0  0  0  0
  140.1690   74.0240  219.6810 C   0  0  0  0  0  0  0  0  0  0  0  0
  140.2020   73.8870  218.2660 N   0  0  0  0  0  0  0  0  0  0  0  0
  141.4060   73.3840  217.5870 C   0  0  0  0  0  0  0  0  0  0  0  0
  142.4900   74.4290  217.8860 C   0  0  0  0  0  0  0  0  0  0  0  0
  143.1400   74.0680  219.0500 N   0  0  0  0  0  0  0  0  0  0  0  0
  143.8240   74.9690  219.8650 C   0  0  0  0  0  0  0  0  0  0  0  0
  144.8300   74.1260  220.6220 C   0  0  0  0  0  0  0  0  0  0  0  0
  144.1250   72.7830  220.7380 C   0  0  0  0  0  0  0  0  0  0  0  0
  143.4000   72.7270  219.3920 C   0  0  0  0  0  0  0  0  0  0  0  0
  140.0990   72.9180  220.4400 N   0  0  0  0  0  0  0  0  0  0  0  0
  140.0660   73.0250  221.7860 C   0  0  0  0  0  0  0  0  0  0  0  0
  139.9870   71.8900  222.6460 N   0  0  0  0  0  0  0  0  0  0  0  0
  139.2020   70.7030  222.2730 C   0  0  0  0  0  0  0  0  0  0  0  0
  138.1790   70.4760  223.3980 C   0  0  0  0  0  0  0  0  0  0  0  0
  139.0360   70.0940  224.5790 C   0  0  0  0  0  0  0  0  0  0  0  0
  138.6230   69.0650  225.4240 C   0  0  0  0  0  0  0  0  0  0  0  0
  139.4630   68.7670  226.4900 C   0  0  0  0  0  0  0  0  0  0  0  0
  140.6440   69.4400  226.7210 C   0  0  0  0  0  0  0  0  0  0  0  0
  141.0330   70.4560  225.8700 C   0  0  0  0  0  0  0  0  0  0  0  0
  140.2110   70.7800  224.7890 C   0  0  0  0  0  0  0  0  0  0  0  0
  140.6900   71.8820  223.9170 C   0  0  0  0  0  0  0  0  0  0  0  0
  140.1050   74.2530  222.3420 N   0  0  0  0  0  0  0  0  0  0  0  0
  141.4380   77.4960  221.9210 C   0  0  0  0  0  0  0  0  0  0  0  0
  141.3624   82.2523  224.2829 H   0  0  0  0  0  0  0  0  0  0  0  0
  143.5008   81.3726  223.3619 H   0  0  0  0  0  0  0  0  0  0  0  0
  143.4647   79.1209  222.2639 H   0  0  0  0  0  0  0  0  0  0  0  0
  139.2729   80.9669  224.1244 H   0  0  0  0  0  0  0  0  0  0  0  0
  138.6760   78.0875  224.0044 H   0  0  0  0  0  0  0  0  0  0  0  0
  138.0486   79.2724  222.8396 H   0  0  0  0  0  0  0  0  0  0  0  0
  138.1016   76.9188  221.8951 H   0  0  0  0  0  0  0  0  0  0  0  0
  139.1273   78.0168  220.9541 H   0  0  0  0  0  0  0  0  0  0  0  0
  140.2179   76.4655  223.3688 H   0  0  0  0  0  0  0  0  0  0  0  0
  139.3610   74.1490  217.7170 H   0  0  0  0  0  0  0  0  0  0  0  0
  141.6945   72.4009  217.9873 H   0  0  0  0  0  0  0  0  0  0  0  0
  141.2473   73.2475  216.5071 H   0  0  0  0  0  0  0  0  0  0  0  0
  143.2100   74.4645  217.0551 H   0  0  0  0  0  0  0  0  0  0  0  0
  142.0325   75.4225  218.0033 H   0  0  0  0  0  0  0  0  0  0  0  0
  144.3361   75.7290  219.2566 H   0  0  0  0  0  0  0  0  0  0  0  0
  143.1468   75.5113  220.5412 H   0  0  0  0  0  0  0  0  0  0  0  0
  145.7710   74.0323  220.0601 H   0  0  0  0  0  0  0  0  0  0  0  0
  145.1131   74.5546  221.5947 H   0  0  0  0  0  0  0  0  0  0  0  0
  144.8426   71.9564  220.8467 H   0  0  0  0  0  0  0  0  0  0  0  0
  143.4682   72.6860  221.6151 H   0  0  0  0  0  0  0  0  0  0  0  0
  144.0373   72.2526  218.6312 H   0  0  0  0  0  0  0  0  0  0  0  0
  142.4756   72.1336  219.4502 H   0  0  0  0  0  0  0  0  0  0  0  0
  138.6832   70.8766  221.3187 H   0  0  0  0  0  0  0  0  0  0  0  0
  139.8512   69.8241  222.1464 H   0  0  0  0  0  0  0  0  0  0  0  0
  137.6111   71.3951  223.6048 H   0  0  0  0  0  0  0  0  0  0  0  0
  137.4282   69.7120  223.1476 H   0  0  0  0  0  0  0  0  0  0  0  0
  137.6832   68.5186  225.2560 H   0  0  0  0  0  0  0  0  0  0  0  0
  139.1734   67.9598  227.1789 H   0  0  0  0  0  0  0  0  0  0  0  0
  141.2746   69.1686  227.5805 H   0  0  0  0  0  0  0  0  0  0  0  0
  141.9736   71.0001  226.0409 H   0  0  0  0  0  0  0  0  0  0  0  0
  140.5208   72.8421  224.4266 H   0  0  0  0  0  0  0  0  0  0  0  0
  141.7617   71.7302  223.7211 H   0  0  0  0  0  0  0  0  0  0  0  0
  142.3431   76.9678  222.2553 H   0  0  0  0  0  0  0  0  0  0  0  0
  141.4916   77.6269  220.8301 H   0  0  0  0  0  0  0  0  0  0  0  0
  1  2  2  0
  2  3  1  0
  3  4  2  0
  4  5  1  0
  5  6  2  0
  5  7  1  0
  7  8  1  0
  8  9  1  0
  9 10  1  0
 10 11  2  0
 11 12  1  0
 12 13  1  0
 13 14  1  0
 14 15  1  0
 15 16  1  0
 16 17  1  0
 17 18  1  0
 18 19  1  0
 19 20  1  0
 12 21  2  0
 21 22  1  0
 22 23  1  0
 23 24  1  0
 24 25  1  0
 25 26  1  0
 26 27  2  0
 27 28  1  0
 28 29  2  0
 29 30  1  0
 30 31  2  0
 31 32  1  0
 22 33  2  0
  9 34  1  0
  6  1  1  0
 33 10  1  0
 34  4  1  0
 20 16  1  0
 32 23  1  0
 31 26  1  0
  1 35  1  0
  2 36  1  0
  3 37  1  0
  6 38  1  0
  7 39  1  0
  7 40  1  0
  8 41  1  0
  8 42  1  0
  9 43  1  1
 13 44  1  0
 14 45  1  0
 14 46  1  0
 15 47  1  0
 15 48  1  0
 17 49  1  0
 17 50  1  0
 18 51  1  0
 18 52  1  0
 19 53  1  0
 19 54  1  0
 20 55  1  0
 20 56  1  0
 24 57  1  0
 24 58  1  0
 25 59  1  0
 25 60  1  0
 27 61  1  0
 28 62  1  0
 29 63  1  0
 30 64  1  0
 32 65  1  0
 32 66  1  0
 34 67  1  0
 34 68  1  0
M  END
>  <smiles>  (61) 
c1ccc2c(c1)CCC(c1nc(NCCN3CCCC3)nc(N3CCc4ccccc4C3)n1)C2

>  <score_type>  (61) 
oracle

>  <origin>  (61) 
autodockgpu

>  <m_score__min__energy>  (61) 
-9.8699999999999992

>  <m_primary>  (61) 
energy

>  <rmsd>  (61) 
5.075946121336015

>  <m_score__min__rmsd>  (61) 
5.075946121336015

>  <meeko>  (61) 
{"free_energy": -8.94, "intermolecular_energy": -10.73, "internal_energy": -1.87, "cluster_size": 47, "cluster_id": 2, "rank_in_cluster": 26}

>  <energy>  (61) 
-9.37

>  <cluster_rmsd>  (61) 
0.9

>  <cluster>  (61) 
2

$$$$

     RDKit          3D

 68 73  0  0  0  0  0  0  0  0999 V2000
  139.8580   68.3810  227.5500 C   0  0  0  0  0  0  0  0  0  0  0  0
  140.7090   69.3990  227.9330 C   0  0  0  0  0  0  0  0  0  0  0  0
  140.9560   70.3940  226.9970 C   0  0  0  0  0  0  0  0  0  0  0  0
  140.3650   70.3600  225.7290 C   0  0  0  0  0  0  0  0  0  0  0  0
  139.5230   69.3390  225.3700 C   0  0  0  0  0  0  0  0  0  0  0  0
  139.2720   68.3430  226.2980 C   0  0  0  0  0  0  0  0  0  0  0  0
  138.8640   69.2370  224.0420 C   0  0  0  0  0  0  0  0  0  0  0  0
  138.8880   70.6300  223.4350 C   0  0  0  0  0  0  0  0  0  0  0  0
  140.3400   71.0570  223.4110 C   0  0  1  0  0  0  0  0  0  0  0  0
  140.5800   72.1340  222.4290 C   0  0  0  0  0  0  0  0  0  0  0  0
  141.1390   71.9020  221.2150 N   0  0  0  0  0  0  0  0  0  0  0  0
  141.3510   72.9220  220.3360 C   0  0  0  0  0  0  0  0  0  0  0  0
  141.9370   72.6810  219.0630 N   0  0  0  0  0  0  0  0  0  0  0  0
  142.0110   73.7490  218.0540 C   0  0  0  0  0  0  0  0  0  0  0  0
  143.1810   74.6340  218.5040 C   0  0  0  0  0  0  0  0  0  0  0  0
  144.0480   73.8670  219.2580 N   0  0  0  0  0  0  0  0  0  0  0  0
  144.3650   74.1390  220.5890 C   0  0  0  0  0  0  0  0  0  0  0  0
  145.7130   73.4850  220.8120 C   0  0  0  0  0  0  0  0  0  0  0  0
  145.6730   72.2960  219.8630 C   0  0  0  0  0  0  0  0  0  0  0  0
  144.8960   72.8970  218.6890 C   0  0  0  0  0  0  0  0  0  0  0  0
  141.0030   74.1760  220.6660 N   0  0  0  0  0  0  0  0  0  0  0  0
  140.4450   74.4270  221.8690 C   0  0  0  0  0  0  0  0  0  0  0  0
  140.0580   75.7370  222.2800 N   0  0  0  0  0  0  0  0  0  0  0  0
  138.6410   76.1310  222.3340 C   0  0  0  0  0  0  0  0  0  0  0  0
  138.4900   77.3670  221.4330 C   0  0  0  0  0  0  0  0  0  0  0  0
  139.2800   78.4290  222.1560 C   0  0  0  0  0  0  0  0  0  0  0  0
  138.7750   79.7250  222.2360 C   0  0  0  0  0  0  0  0  0  0  0  0
  139.5560   80.6500  222.9190 C   0  0  0  0  0  0  0  0  0  0  0  0
  140.7670   80.3270  223.4920 C   0  0  0  0  0  0  0  0  0  0  0  0
  141.2470   79.0340  223.4010 C   0  0  0  0  0  0  0  0  0  0  0  0
  140.4860   78.0810  222.7210 C   0  0  0  0  0  0  0  0  0  0  0  0
  141.0620   76.7140  222.6600 C   0  0  0  0  0  0  0  0  0  0  0  0
  140.2470   73.4000  222.7210 N   0  0  0  0  0  0  0  0  0  0  0  0
  140.7000   71.4750  224.8190 C   0  0  0  0  0  0  0  0  0  0  0  0
  139.6391   67.5737  228.2644 H   0  0  0  0  0  0  0  0  0  0  0  0
  141.1691   69.4204  228.9319 H   0  0  0  0  0  0  0  0  0  0  0  0
  141.6288   71.2246  227.2569 H   0  0  0  0  0  0  0  0  0  0  0  0
  138.5994   67.5127  226.0368 H   0  0  0  0  0  0  0  0  0  0  0  0
  139.4135   68.5337  223.3990 H   0  0  0  0  0  0  0  0  0  0  0  0
  137.8333   68.8652  224.1391 H   0  0  0  0  0  0  0  0  0  0  0  0
  138.4805   70.6076  222.4135 H   0  0  0  0  0  0  0  0  0  0  0  0
  138.2742   71.3316  224.0189 H   0  0  0  0  0  0  0  0  0  0  0  0
  140.9824   70.2251  223.0866 H   0  0  0  0  0  0  0  0  0  0  0  0
  142.3140   71.7360  218.8550 H   0  0  0  0  0  0  0  0  0  0  0  0
  142.2056   73.3271  217.0569 H   0  0  0  0  0  0  0  0  0  0  0  0
  141.0698   74.3130  217.9770 H   0  0  0  0  0  0  0  0  0  0  0  0
  143.7069   75.0298  217.6226 H   0  0  0  0  0  0  0  0  0  0  0  0
  142.8063   75.4770  219.1031 H   0  0  0  0  0  0  0  0  0  0  0  0
  144.4291   75.2242  220.7573 H   0  0  0  0  0  0  0  0  0  0  0  0
  143.6008   73.7576  221.2822 H   0  0  0  0  0  0  0  0  0  0  0  0
  146.5335   74.1706  220.5535 H   0  0  0  0  0  0  0  0  0  0  0  0
  145.8904   73.1999  221.8595 H   0  0  0  0  0  0  0  0  0  0  0  0
  146.6838   71.9830  219.5624 H   0  0  0  0  0  0  0  0  0  0  0  0
  145.2253   71.3861  220.2892 H   0  0  0  0  0  0  0  0  0  0  0  0
  145.5855   73.3631  217.9697 H   0  0  0  0  0  0  0  0  0  0  0  0
  144.3296   72.1311  218.1389 H   0  0  0  0  0  0  0  0  0  0  0  0
  138.0059   75.3126  221.9640 H   0  0  0  0  0  0  0  0  0  0  0  0
  138.3321   76.3542  223.3659 H   0  0  0  0  0  0  0  0  0  0  0  0
  138.9083   77.1782  220.4333 H   0  0  0  0  0  0  0  0  0  0  0  0
  137.4402   77.6515  221.2688 H   0  0  0  0  0  0  0  0  0  0  0  0
  137.8111   80.0011  221.7835 H   0  0  0  0  0  0  0  0  0  0  0  0
  139.1918   81.6843  223.0059 H   0  0  0  0  0  0  0  0  0  0  0  0
  141.3499   81.0959  224.0202 H   0  0  0  0  0  0  0  0  0  0  0  0
  142.2106   78.7608  223.8558 H   0  0  0  0  0  0  0  0  0  0  0  0
  141.8747   76.7000  221.9188 H   0  0  0  0  0  0  0  0  0  0  0  0
  141.4424   76.4518  223.6583 H   0  0  0  0  0  0  0  0  0  0  0  0
  141.7762   71.6947  224.8790 H   0  0  0  0  0  0  0  0  0  0  0  0
  140.1414   72.3792  225.1026 H   0  0  0  0  0  0  0  0  0  0  0  0
  1  2  2  0
  2  3  1  0
  3  4  2  0
  4  5  1  0
  5  6  2  0
  5  7  1  0
  7  8  1  0
  8  9  1  0
  9 10  1  0
 10 11  2  0
 11 12  1  0
 12 13  1  0
 13 14  1  0
 14 15  1  0
 15 16  1  0
 16 17  1  0
 17 18  1  0
 18 19  1  0
 19 20  1  0
 12 21  2  0
 21 22  1  0
 22 23  1  0
 23 24  1  0
 24 25  1  0
 25 26  1  0
 26 27  2  0
 27 28  1  0
 28 29  2  0
 29 30  1  0
 30 31  2  0
 31 32  1  0
 22 33  2  0
  9 34  1  0
  6  1  1  0
 33 10  1  0
 34  4  1  0
 20 16  1  0
 32 23  1  0
 31 26  1  0
  1 35  1  0
  2 36  1  0
  3 37  1  0
  6 38  1  0
  7 39  1  0
  7 40  1  0
  8 41  1  0
  8 42  1  0
  9 43  1  6
 13 44  1  0
 14 45  1  0
 14 46  1  0
 15 47  1  0
 15 48  1  0
 17 49  1  0
 17 50  1  0
 18 51  1  0
 18 52  1  0
 19 53  1  0
 19 54  1  0
 20 55  1  0
 20 56  1  0
 24 57  1  0
 24 58  1  0
 25 59  1  0
 25 60  1  0
 27 61  1  0
 28 62  1  0
 29 63  1  0
 30 64  1  0
 32 65  1  0
 32 66  1  0
 34 67  1  0
 34 68  1  0
M  END
>  <smiles>  (62) 
c1ccc2c(c1)CCC(c1nc(NCCN3CCCC3)nc(N3CCc4ccccc4C3)n1)C2

>  <score_type>  (62) 
oracle

>  <origin>  (62) 
autodockgpu

>  <m_score__min__energy>  (62) 
-9.8699999999999992

>  <m_primary>  (62) 
energy

>  <rmsd>  (62) 
5.713048542940098

>  <m_score__min__rmsd>  (62) 
5.713048542940098

>  <meeko>  (62) 
{"free_energy": -9.28, "intermolecular_energy": -11.07, "internal_energy": -1.57, "cluster_size": 47, "cluster_id": 2, "rank_in_cluster": 11}

>  <energy>  (62) 
-9.34

>  <cluster_rmsd>  (62) 
0.95

>  <cluster>  (62) 
2

$$$$

     RDKit          3D

 68 73  0  0  0  0  0  0  0  0999 V2000
  140.2460   68.4760  227.4810 C   0  0  0  0  0  0  0  0  0  0  0  0
  140.9990   69.5930  227.7860 C   0  0  0  0  0  0  0  0  0  0  0  0
  141.0440   70.5970  226.8290 C   0  0  0  0  0  0  0  0  0  0  0  0
  140.3560   70.4760  225.6170 C   0  0  0  0  0  0  0  0  0  0  0  0
  139.6150   69.3580  225.3350 C   0  0  0  0  0  0  0  0  0  0  0  0
  139.5640   68.3520  226.2840 C   0  0  0  0  0  0  0  0  0  0  0  0
  138.8620   69.1600  224.0700 C   0  0  0  0  0  0  0  0  0  0  0  0
  138.6680   70.5380  223.4570 C   0  0  0  0  0  0  0  0  0  0  0  0
  140.0510   71.1340  223.3070 C   0  0  1  0  0  0  0  0  0  0  0  0
  140.0770   72.2180  222.3050 C   0  0  0  0  0  0  0  0  0  0  0  0
  140.2040   71.9790  220.9750 N   0  0  0  0  0  0  0  0  0  0  0  0
  140.2290   73.0050  220.0790 C   0  0  0  0  0  0  0  0  0  0  0  0
  140.3630   72.7570  218.6850 N   0  0  0  0  0  0  0  0  0  0  0  0
  141.6690   72.8810  218.0210 C   0  0  0  0  0  0  0  0  0  0  0  0
  142.2700   74.1790  218.5770 C   0  0  0  0  0  0  0  0  0  0  0  0
  143.3870   73.8620  219.3250 N   0  0  0  0  0  0  0  0  0  0  0  0
  143.7880   72.5550  219.6000 C   0  0  0  0  0  0  0  0  0  0  0  0
  144.6170   72.6590  220.8640 C   0  0  0  0  0  0  0  0  0  0  0  0
  145.2290   74.0470  220.7540 C   0  0  0  0  0  0  0  0  0  0  0  0
  144.0780   74.8130  220.1000 C   0  0  0  0  0  0  0  0  0  0  0  0
  140.1260   74.2740  220.5080 N   0  0  0  0  0  0  0  0  0  0  0  0
  139.9980   74.5320  221.8270 C   0  0  0  0  0  0  0  0  0  0  0  0
  139.8890   75.8560  222.3450 N   0  0  0  0  0  0  0  0  0  0  0  0
  138.5820   76.4240  222.7160 C   0  0  0  0  0  0  0  0  0  0  0  0
  138.4120   77.7150  221.9000 C   0  0  0  0  0  0  0  0  0  0  0  0
  139.4740   78.6280  222.4600 C   0  0  0  0  0  0  0  0  0  0  0  0
  139.1790   79.9720  222.6810 C   0  0  0  0  0  0  0  0  0  0  0  0
  140.2050   80.7520  223.2000 C   0  0  0  0  0  0  0  0  0  0  0  0
  141.4550   80.2470  223.4880 C   0  0  0  0  0  0  0  0  0  0  0  0
  141.7240   78.9110  223.2610 C   0  0  0  0  0  0  0  0  0  0  0  0
  140.7140   78.1000  222.7400 C   0  0  0  0  0  0  0  0  0  0  0  0
  141.0740   76.6760  222.5210 C   0  0  0  0  0  0  0  0  0  0  0  0
  139.9770   73.4980  222.6930 N   0  0  0  0  0  0  0  0  0  0  0  0
  140.4780   71.6100  224.6780 C   0  0  0  0  0  0  0  0  0  0  0  0
  140.1867   67.6581  228.2141 H   0  0  0  0  0  0  0  0  0  0  0  0
  141.5370   69.6825  228.7413 H   0  0  0  0  0  0  0  0  0  0  0  0
  141.6319   71.5053  227.0273 H   0  0  0  0  0  0  0  0  0  0  0  0
  138.9751   67.4446  226.0844 H   0  0  0  0  0  0  0  0  0  0  0  0
  139.4342   68.5173  223.3848 H   0  0  0  0  0  0  0  0  0  0  0  0
  137.8949   68.6706  224.2576 H   0  0  0  0  0  0  0  0  0  0  0  0
  138.1813   70.4527  222.4742 H   0  0  0  0  0  0  0  0  0  0  0  0
  138.0263   71.1700  224.0885 H   0  0  0  0  0  0  0  0  0  0  0  0
  140.7579   70.3798  222.9309 H   0  0  0  0  0  0  0  0  0  0  0  0
  139.5210   72.4870  218.1410 H   0  0  0  0  0  0  0  0  0  0  0  0
  142.3107   72.0214  218.2646 H   0  0  0  0  0  0  0  0  0  0  0  0
  141.5772   72.9021  216.9250 H   0  0  0  0  0  0  0  0  0  0  0  0
  142.5559   74.8407  217.7461 H   0  0  0  0  0  0  0  0  0  0  0  0
  141.5307   74.6963  219.2061 H   0  0  0  0  0  0  0  0  0  0  0  0
  142.9134   71.9081  219.7630 H   0  0  0  0  0  0  0  0  0  0  0  0
  144.3554   72.1124  218.7681 H   0  0  0  0  0  0  0  0  0  0  0  0
  143.9848   72.5749  221.7602 H   0  0  0  0  0  0  0  0  0  0  0  0
  145.3665   71.8595  220.9596 H   0  0  0  0  0  0  0  0  0  0  0  0
  145.4800   74.4588  221.7426 H   0  0  0  0  0  0  0  0  0  0  0  0
  146.1773   74.0852  220.1979 H   0  0  0  0  0  0  0  0  0  0  0  0
  143.4148   75.2393  220.8671 H   0  0  0  0  0  0  0  0  0  0  0  0
  144.4411   75.6523  219.4887 H   0  0  0  0  0  0  0  0  0  0  0  0
  137.7777   75.7139  222.4734 H   0  0  0  0  0  0  0  0  0  0  0  0
  138.5328   76.6297  223.7955 H   0  0  0  0  0  0  0  0  0  0  0  0
  138.5791   77.5280  220.8290 H   0  0  0  0  0  0  0  0  0  0  0  0
  137.3997   78.1389  221.9747 H   0  0  0  0  0  0  0  0  0  0  0  0
  138.1876   80.3925  222.4567 H   0  0  0  0  0  0  0  0  0  0  0  0
  140.0116   81.8182  223.3892 H   0  0  0  0  0  0  0  0  0  0  0  0
  142.2355   80.9054  223.8971 H   0  0  0  0  0  0  0  0  0  0  0  0
  142.7164   78.4936  223.4868 H   0  0  0  0  0  0  0  0  0  0  0  0
  141.7008   76.5988  221.6203 H   0  0  0  0  0  0  0  0  0  0  0  0
  141.6195   76.3146  223.4052 H   0  0  0  0  0  0  0  0  0  0  0  0
  141.5218   71.9553  224.6442 H   0  0  0  0  0  0  0  0  0  0  0  0
  139.8425   72.4459  225.0058 H   0  0  0  0  0  0  0  0  0  0  0  0
  1  2  2  0
  2  3  1  0
  3  4  2  0
  4  5  1  0
  5  6  2  0
  5  7  1  0
  7  8  1  0
  8  9  1  0
  9 10  1  0
 10 11  2  0
 11 12  1  0
 12 13  1  0
 13 14  1  0
 14 15  1  0
 15 16  1  0
 16 17  1  0
 17 18  1  0
 18 19  1  0
 19 20  1  0
 12 21  2  0
 21 22  1  0
 22 23  1  0
 23 24  1  0
 24 25  1  0
 25 26  1  0
 26 27  2  0
 27 28  1  0
 28 29  2  0
 29 30  1  0
 30 31  2  0
 31 32  1  0
 22 33  2  0
  9 34  1  0
  6  1  1  0
 33 10  1  0
 34  4  1  0
 20 16  1  0
 32 23  1  0
 31 26  1  0
  1 35  1  0
  2 36  1  0
  3 37  1  0
  6 38  1  0
  7 39  1  0
  7 40  1  0
  8 41  1  0
  8 42  1  0
  9 43  1  6
 13 44  1  0
 14 45  1  0
 14 46  1  0
 15 47  1  0
 15 48  1  0
 17 49  1  0
 17 50  1  0
 18 51  1  0
 18 52  1  0
 19 53  1  0
 19 54  1  0
 20 55  1  0
 20 56  1  0
 24 57  1  0
 24 58  1  0
 25 59  1  0
 25 60  1  0
 27 61  1  0
 28 62  1  0
 29 63  1  0
 30 64  1  0
 32 65  1  0
 32 66  1  0
 34 67  1  0
 34 68  1  0
M  END
>  <smiles>  (63) 
c1ccc2c(c1)CCC(c1nc(NCCN3CCCC3)nc(N3CCc4ccccc4C3)n1)C2

>  <score_type>  (63) 
oracle

>  <origin>  (63) 
autodockgpu

>  <m_score__min__energy>  (63) 
-9.8699999999999992

>  <m_primary>  (63) 
energy

>  <rmsd>  (63) 
5.409933691048836

>  <m_score__min__rmsd>  (63) 
5.409933691048836

>  <meeko>  (63) 
{"free_energy": -9.4, "intermolecular_energy": -11.19, "internal_energy": -1.62, "cluster_size": 47, "cluster_id": 2, "rank_in_cluster": 6}

>  <energy>  (63) 
-9.31

>  <cluster_rmsd>  (63) 
0.41

>  <cluster>  (63) 
2

$$$$

     RDKit          3D

 68 73  0  0  0  0  0  0  0  0999 V2000
  140.1490   68.4530  227.6000 C   0  0  0  0  0  0  0  0  0  0  0  0
  140.9370   69.5430  227.9170 C   0  0  0  0  0  0  0  0  0  0  0  0
  141.0550   70.5320  226.9500 C   0  0  0  0  0  0  0  0  0  0  0  0
  140.4030   70.4220  225.7160 C   0  0  0  0  0  0  0  0  0  0  0  0
  139.6260   69.3310  225.4230 C   0  0  0  0  0  0  0  0  0  0  0  0
  139.5030   68.3410  226.3820 C   0  0  0  0  0  0  0  0  0  0  0  0
  138.9080   69.1470  224.1360 C   0  0  0  0  0  0  0  0  0  0  0  0
  138.7910   70.5230  223.5010 C   0  0  0  0  0  0  0  0  0  0  0  0
  140.2010   71.0600  223.3900 C   0  0  1  0  0  0  0  0  0  0  0  0
  140.3050   72.1290  222.3760 C   0  0  0  0  0  0  0  0  0  0  0  0
  140.6140   71.8760  221.0790 N   0  0  0  0  0  0  0  0  0  0  0  0
  140.7050   72.8890  220.1720 C   0  0  0  0  0  0  0  0  0  0  0  0
  141.0300   72.6260  218.8120 N   0  0  0  0  0  0  0  0  0  0  0  0
  142.0250   71.6030  218.4600 C   0  0  0  0  0  0  0  0  0  0  0  0
  143.2760   72.3940  218.0560 C   0  0  0  0  0  0  0  0  0  0  0  0
  143.8560   72.9130  219.1980 N   0  0  0  0  0  0  0  0  0  0  0  0
  143.7120   74.2380  219.6050 C   0  0  0  0  0  0  0  0  0  0  0  0
  144.9190   74.5140  220.4770 C   0  0  0  0  0  0  0  0  0  0  0  0
  145.2110   73.1510  221.0890 C   0  0  0  0  0  0  0  0  0  0  0  0
  144.8580   72.2330  219.9170 C   0  0  0  0  0  0  0  0  0  0  0  0
  140.4870   74.1570  220.5560 N   0  0  0  0  0  0  0  0  0  0  0  0
  140.1780   74.4290  221.8420 C   0  0  0  0  0  0  0  0  0  0  0  0
  139.9400   75.7530  222.3130 N   0  0  0  0  0  0  0  0  0  0  0  0
  138.5770   76.2230  222.6110 C   0  0  0  0  0  0  0  0  0  0  0  0
  138.3390   77.4720  221.7480 C   0  0  0  0  0  0  0  0  0  0  0  0
  139.2990   78.4840  222.3230 C   0  0  0  0  0  0  0  0  0  0  0  0
  138.8870   79.8050  222.4890 C   0  0  0  0  0  0  0  0  0  0  0  0
  139.8230   80.6810  223.0250 C   0  0  0  0  0  0  0  0  0  0  0  0
  141.0960   80.2880  223.3800 C   0  0  0  0  0  0  0  0  0  0  0  0
  141.4810   78.9730  223.2080 C   0  0  0  0  0  0  0  0  0  0  0  0
  140.5630   78.0680  222.6710 C   0  0  0  0  0  0  0  0  0  0  0  0
  141.0460   76.6720  222.5130 C   0  0  0  0  0  0  0  0  0  0  0  0
  140.0940   73.4090  222.7200 N   0  0  0  0  0  0  0  0  0  0  0  0
  140.6020   71.5370  224.7680 C   0  0  0  0  0  0  0  0  0  0  0  0
  140.0316   67.6481  228.3405 H   0  0  0  0  0  0  0  0  0  0  0  0
  141.4462   69.6231  228.8887 H   0  0  0  0  0  0  0  0  0  0  0  0
  141.6723   71.4186  227.1572 H   0  0  0  0  0  0  0  0  0  0  0  0
  138.8848   67.4554  226.1735 H   0  0  0  0  0  0  0  0  0  0  0  0
  139.4759   68.4728  223.4780 H   0  0  0  0  0  0  0  0  0  0  0  0
  137.9161   68.6995  224.2966 H   0  0  0  0  0  0  0  0  0  0  0  0
  138.3335   70.4447  222.5037 H   0  0  0  0  0  0  0  0  0  0  0  0
  138.1556   71.1889  224.1034 H   0  0  0  0  0  0  0  0  0  0  0  0
  140.8878   70.2722  223.0468 H   0  0  0  0  0  0  0  0  0  0  0  0
  140.5520   73.1710  218.0690 H   0  0  0  0  0  0  0  0  0  0  0  0
  142.2379   70.9563  219.3240 H   0  0  0  0  0  0  0  0  0  0  0  0
  141.6734   70.9426  217.6536 H   0  0  0  0  0  0  0  0  0  0  0  0
  143.9885   71.7271  217.5485 H   0  0  0  0  0  0  0  0  0  0  0  0
  143.0008   73.2087  217.3701 H   0  0  0  0  0  0  0  0  0  0  0  0
  143.7019   74.9108  218.7348 H   0  0  0  0  0  0  0  0  0  0  0  0
  142.7671   74.4044  220.1430 H   0  0  0  0  0  0  0  0  0  0  0  0
  145.7692   74.8690  219.8761 H   0  0  0  0  0  0  0  0  0  0  0  0
  144.7444   75.2998  221.2266 H   0  0  0  0  0  0  0  0  0  0  0  0
  146.2684   73.0536  221.3761 H   0  0  0  0  0  0  0  0  0  0  0  0
  144.6597   72.9394  222.0171 H   0  0  0  0  0  0  0  0  0  0  0  0
  145.7398   72.0636  219.2817 H   0  0  0  0  0  0  0  0  0  0  0  0
  144.5167   71.2450  220.2596 H   0  0  0  0  0  0  0  0  0  0  0  0
  137.8438   75.4429  222.3583 H   0  0  0  0  0  0  0  0  0  0  0  0
  138.4647   76.4551  223.6804 H   0  0  0  0  0  0  0  0  0  0  0  0
  138.5673   77.2693  220.6912 H   0  0  0  0  0  0  0  0  0  0  0  0
  137.2935   77.8135  221.7669 H   0  0  0  0  0  0  0  0  0  0  0  0
  137.8756   80.1362  222.2108 H   0  0  0  0  0  0  0  0  0  0  0  0
  139.5362   81.7327  223.1723 H   0  0  0  0  0  0  0  0  0  0  0  0
  141.8026   81.0196  223.7989 H   0  0  0  0  0  0  0  0  0  0  0  0
  142.4925   78.6444  223.4889 H   0  0  0  0  0  0  0  0  0  0  0  0
  141.7168   76.6208  221.6427 H   0  0  0  0  0  0  0  0  0  0  0  0
  141.5783   76.3817  223.4308 H   0  0  0  0  0  0  0  0  0  0  0  0
  141.6597   71.8392  224.7647 H   0  0  0  0  0  0  0  0  0  0  0  0
  139.9911   72.4024  225.0642 H   0  0  0  0  0  0  0  0  0  0  0  0
  1  2  2  0
  2  3  1  0
  3  4  2  0
  4  5  1  0
  5  6  2  0
  5  7  1  0
  7  8  1  0
  8  9  1  0
  9 10  1  0
 10 11  2  0
 11 12  1  0
 12 13  1  0
 13 14  1  0
 14 15  1  0
 15 16  1  0
 16 17  1  0
 17 18  1  0
 18 19  1  0
 19 20  1  0
 12 21  2  0
 21 22  1  0
 22 23  1  0
 23 24  1  0
 24 25  1  0
 25 26  1  0
 26 27  2  0
 27 28  1  0
 28 29  2  0
 29 30  1  0
 30 31  2  0
 31 32  1  0
 22 33  2  0
  9 34  1  0
  6  1  1  0
 33 10  1  0
 34  4  1  0
 20 16  1  0
 32 23  1  0
 31 26  1  0
  1 35  1  0
  2 36  1  0
  3 37  1  0
  6 38  1  0
  7 39  1  0
  7 40  1  0
  8 41  1  0
  8 42  1  0
  9 43  1  6
 13 44  1  0
 14 45  1  0
 14 46  1  0
 15 47  1  0
 15 48  1  0
 17 49  1  0
 17 50  1  0
 18 51  1  0
 18 52  1  0
 19 53  1  0
 19 54  1  0
 20 55  1  0
 20 56  1  0
 24 57  1  0
 24 58  1  0
 25 59  1  0
 25 60  1  0
 27 61  1  0
 28 62  1  0
 29 63  1  0
 30 64  1  0
 32 65  1  0
 32 66  1  0
 34 67  1  0
 34 68  1  0
M  END
>  <smiles>  (64) 
c1ccc2c(c1)CCC(c1nc(NCCN3CCCC3)nc(N3CCc4ccccc4C3)n1)C2

>  <score_type>  (64) 
oracle

>  <origin>  (64) 
autodockgpu

>  <m_score__min__energy>  (64) 
-9.8699999999999992

>  <m_primary>  (64) 
energy

>  <rmsd>  (64) 
5.571837936232303

>  <m_score__min__rmsd>  (64) 
5.571837936232303

>  <meeko>  (64) 
{"free_energy": -9.31, "intermolecular_energy": -11.1, "internal_energy": -1.57, "cluster_size": 47, "cluster_id": 2, "rank_in_cluster": 10}

>  <energy>  (64) 
-9.28

>  <cluster_rmsd>  (64) 
0.82

>  <cluster>  (64) 
2

$$$$

     RDKit          3D

 68 73  0  0  0  0  0  0  0  0999 V2000
  140.2560   68.4720  227.6510 C   0  0  0  0  0  0  0  0  0  0  0  0
  141.0020   69.5980  227.9350 C   0  0  0  0  0  0  0  0  0  0  0  0
  141.0590   70.5750  226.9500 C   0  0  0  0  0  0  0  0  0  0  0  0
  140.3880   70.4180  225.7320 C   0  0  0  0  0  0  0  0  0  0  0  0
  139.6520   69.2910  225.4720 C   0  0  0  0  0  0  0  0  0  0  0  0
  139.5910   68.3120  226.4490 C   0  0  0  0  0  0  0  0  0  0  0  0
  138.9170   69.0550  224.2030 C   0  0  0  0  0  0  0  0  0  0  0  0
  138.7290   70.4150  223.5490 C   0  0  0  0  0  0  0  0  0  0  0  0
  140.1130   71.0090  223.4010 C   0  0  1  0  0  0  0  0  0  0  0  0
  140.1510   72.0640  222.3690 C   0  0  0  0  0  0  0  0  0  0  0  0
  140.3220   71.7900  221.0510 N   0  0  0  0  0  0  0  0  0  0  0  0
  140.3570   72.7900  220.1270 C   0  0  0  0  0  0  0  0  0  0  0  0
  140.5370   72.5050  218.7450 N   0  0  0  0  0  0  0  0  0  0  0  0
  141.8820   72.4890  218.1500 C   0  0  0  0  0  0  0  0  0  0  0  0
  142.7520   71.7380  219.1660 C   0  0  0  0  0  0  0  0  0  0  0  0
  143.7170   72.6030  219.6450 N   0  0  0  0  0  0  0  0  0  0  0  0
  144.9790   72.1940  220.0730 C   0  0  0  0  0  0  0  0  0  0  0  0
  145.4400   73.2780  221.0250 C   0  0  0  0  0  0  0  0  0  0  0  0
  144.7650   74.5240  220.4700 C   0  0  0  0  0  0  0  0  0  0  0  0
  143.4350   73.9380  219.9950 C   0  0  0  0  0  0  0  0  0  0  0  0
  140.2180   74.0680  220.5140 N   0  0  0  0  0  0  0  0  0  0  0  0
  140.0450   74.3620  221.8210 C   0  0  0  0  0  0  0  0  0  0  0  0
  139.8960   75.6980  222.2960 N   0  0  0  0  0  0  0  0  0  0  0  0
  138.5790   76.2270  222.6860 C   0  0  0  0  0  0  0  0  0  0  0  0
  138.3340   77.4800  221.8320 C   0  0  0  0  0  0  0  0  0  0  0  0
  139.3730   78.4540  222.3290 C   0  0  0  0  0  0  0  0  0  0  0  0
  139.0300   79.7920  222.5130 C   0  0  0  0  0  0  0  0  0  0  0  0
  140.0370   80.6300  222.9750 C   0  0  0  0  0  0  0  0  0  0  0  0
  141.3140   80.1850  223.2440 C   0  0  0  0  0  0  0  0  0  0  0  0
  141.6310   78.8530  223.0550 C   0  0  0  0  0  0  0  0  0  0  0  0
  140.6410   77.9850  222.5910 C   0  0  0  0  0  0  0  0  0  0  0  0
  141.0520   76.5700  222.4110 C   0  0  0  0  0  0  0  0  0  0  0  0
  140.0160   73.3530  222.7160 N   0  0  0  0  0  0  0  0  0  0  0  0
  140.5200   71.5250  224.7630 C   0  0  0  0  0  0  0  0  0  0  0  0
  140.1881   67.6750  228.4061 H   0  0  0  0  0  0  0  0  0  0  0  0
  141.5259   69.7157  228.8950 H   0  0  0  0  0  0  0  0  0  0  0  0
  141.6427   71.4897  227.1305 H   0  0  0  0  0  0  0  0  0  0  0  0
  139.0075   67.3974  226.2673 H   0  0  0  0  0  0  0  0  0  0  0  0
  139.5000   68.3946  223.5442 H   0  0  0  0  0  0  0  0  0  0  0  0
  137.9485   68.5683  224.3907 H   0  0  0  0  0  0  0  0  0  0  0  0
  138.2557   70.3013  222.5626 H   0  0  0  0  0  0  0  0  0  0  0  0
  138.0778   71.0633  224.1537 H   0  0  0  0  0  0  0  0  0  0  0  0
  140.8261   70.2456  223.0565 H   0  0  0  0  0  0  0  0  0  0  0  0
  139.7030   72.3070  218.1600 H   0  0  0  0  0  0  0  0  0  0  0  0
  141.8721   71.9623  217.1843 H   0  0  0  0  0  0  0  0  0  0  0  0
  142.2592   73.5027  217.9499 H   0  0  0  0  0  0  0  0  0  0  0  0
  142.1267   71.3829  219.9984 H   0  0  0  0  0  0  0  0  0  0  0  0
  143.2295   70.8720  218.6842 H   0  0  0  0  0  0  0  0  0  0  0  0
  144.9166   71.2255  220.5908 H   0  0  0  0  0  0  0  0  0  0  0  0
  145.6762   72.0576  219.2331 H   0  0  0  0  0  0  0  0  0  0  0  0
  145.1063   73.0710  222.0525 H   0  0  0  0  0  0  0  0  0  0  0  0
  146.5347   73.3667  221.0866 H   0  0  0  0  0  0  0  0  0  0  0  0
  144.6169   75.2860  221.2494 H   0  0  0  0  0  0  0  0  0  0  0  0
  145.3390   75.0451  219.6897 H   0  0  0  0  0  0  0  0  0  0  0  0
  142.6884   73.9746  220.8020 H   0  0  0  0  0  0  0  0  0  0  0  0
  143.0186   74.5032  219.1482 H   0  0  0  0  0  0  0  0  0  0  0  0
  137.7973   75.4777  222.4922 H   0  0  0  0  0  0  0  0  0  0  0  0
  138.5525   76.4689  223.7588 H   0  0  0  0  0  0  0  0  0  0  0  0
  138.4787   77.2620  220.7636 H   0  0  0  0  0  0  0  0  0  0  0  0
  137.3077   77.8656  221.9219 H   0  0  0  0  0  0  0  0  0  0  0  0
  138.0164   80.1646  222.3037 H   0  0  0  0  0  0  0  0  0  0  0  0
  139.8058   81.6938  223.1329 H   0  0  0  0  0  0  0  0  0  0  0  0
  142.0780   80.8878  223.6079 H   0  0  0  0  0  0  0  0  0  0  0  0
  142.6453   78.4835  223.2664 H   0  0  0  0  0  0  0  0  0  0  0  0
  141.6574   76.4857  221.4965 H   0  0  0  0  0  0  0  0  0  0  0  0
  141.6347   76.2617  223.2916 H   0  0  0  0  0  0  0  0  0  0  0  0
  141.5634   71.8722  224.7336 H   0  0  0  0  0  0  0  0  0  0  0  0
  139.8782   72.3681  225.0582 H   0  0  0  0  0  0  0  0  0  0  0  0
  1  2  2  0
  2  3  1  0
  3  4  2  0
  4  5  1  0
  5  6  2  0
  5  7  1  0
  7  8  1  0
  8  9  1  0
  9 10  1  0
 10 11  2  0
 11 12  1  0
 12 13  1  0
 13 14  1  0
 14 15  1  0
 15 16  1  0
 16 17  1  0
 17 18  1  0
 18 19  1  0
 19 20  1  0
 12 21  2  0
 21 22  1  0
 22 23  1  0
 23 24  1  0
 24 25  1  0
 25 26  1  0
 26 27  2  0
 27 28  1  0
 28 29  2  0
 29 30  1  0
 30 31  2  0
 31 32  1  0
 22 33  2  0
  9 34  1  0
  6  1  1  0
 33 10  1  0
 34  4  1  0
 20 16  1  0
 32 23  1  0
 31 26  1  0
  1 35  1  0
  2 36  1  0
  3 37  1  0
  6 38  1  0
  7 39  1  0
  7 40  1  0
  8 41  1  0
  8 42  1  0
  9 43  1  6
 13 44  1  0
 14 45  1  0
 14 46  1  0
 15 47  1  0
 15 48  1  0
 17 49  1  0
 17 50  1  0
 18 51  1  0
 18 52  1  0
 19 53  1  0
 19 54  1  0
 20 55  1  0
 20 56  1  0
 24 57  1  0
 24 58  1  0
 25 59  1  0
 25 60  1  0
 27 61  1  0
 28 62  1  0
 29 63  1  0
 30 64  1  0
 32 65  1  0
 32 66  1  0
 34 67  1  0
 34 68  1  0
M  END
>  <smiles>  (65) 
c1ccc2c(c1)CCC(c1nc(NCCN3CCCC3)nc(N3CCc4ccccc4C3)n1)C2

>  <score_type>  (65) 
oracle

>  <origin>  (65) 
autodockgpu

>  <m_score__min__energy>  (65) 
-9.8699999999999992

>  <m_primary>  (65) 
energy

>  <rmsd>  (65) 
5.399570605817151

>  <m_score__min__rmsd>  (65) 
5.399570605817151

>  <meeko>  (65) 
{"free_energy": -9.5, "intermolecular_energy": -11.29, "internal_energy": -1.56, "cluster_size": 47, "cluster_id": 2, "rank_in_cluster": 3}

>  <energy>  (65) 
-9.27

>  <cluster_rmsd>  (65) 
0.5

>  <cluster>  (65) 
2

$$$$

     RDKit          3D

 68 73  0  0  0  0  0  0  0  0999 V2000
  140.7940   80.8020  223.6520 C   0  0  0  0  0  0  0  0  0  0  0  0
  142.0440   80.2550  223.4380 C   0  0  0  0  0  0  0  0  0  0  0  0
  142.0830   78.9570  222.9490 C   0  0  0  0  0  0  0  0  0  0  0  0
  140.9080   78.2430  222.6870 C   0  0  0  0  0  0  0  0  0  0  0  0
  139.6770   78.8060  222.9090 C   0  0  0  0  0  0  0  0  0  0  0  0
  139.6300   80.1010  223.3960 C   0  0  0  0  0  0  0  0  0  0  0  0
  138.3900   78.1090  222.6570 C   0  0  0  0  0  0  0  0  0  0  0  0
  138.6910   76.9690  221.6970 C   0  0  0  0  0  0  0  0  0  0  0  0
  139.7680   76.1340  222.3560 C   0  0  1  0  0  0  0  0  0  0  0  0
  139.8140   74.7640  221.8070 C   0  0  0  0  0  0  0  0  0  0  0  0
  139.7640   74.5100  220.4750 N   0  0  0  0  0  0  0  0  0  0  0  0
  139.8050   73.2330  220.0040 C   0  0  0  0  0  0  0  0  0  0  0  0
  139.7510   72.9640  218.6080 N   0  0  0  0  0  0  0  0  0  0  0  0
  140.8170   73.4330  217.7100 C   0  0  0  0  0  0  0  0  0  0  0  0
  140.5420   74.9320  217.5250 C   0  0  0  0  0  0  0  0  0  0  0  0
  141.3880   75.6410  218.3550 N   0  0  0  0  0  0  0  0  0  0  0  0
  141.2120   76.9870  218.6720 C   0  0  0  0  0  0  0  0  0  0  0  0
  142.5900   77.4820  219.0590 C   0  0  0  0  0  0  0  0  0  0  0  0
  143.2400   76.2400  219.6520 C   0  0  0  0  0  0  0  0  0  0  0  0
  142.6490   75.1540  218.7510 C   0  0  0  0  0  0  0  0  0  0  0  0
  139.8970   72.2030  220.8610 N   0  0  0  0  0  0  0  0  0  0  0  0
  139.9490   72.4350  222.1900 C   0  0  0  0  0  0  0  0  0  0  0  0
  140.0430   71.3860  223.1510 N   0  0  0  0  0  0  0  0  0  0  0  0
  139.5610   70.0280  222.8490 C   0  0  0  0  0  0  0  0  0  0  0  0
  138.5220   69.6760  223.9250 C   0  0  0  0  0  0  0  0  0  0  0  0
  139.3400   69.5910  225.1890 C   0  0  0  0  0  0  0  0  0  0  0  0
  139.0880   68.5690  226.1030 C   0  0  0  0  0  0  0  0  0  0  0  0
  139.8820   68.5520  227.2440 C   0  0  0  0  0  0  0  0  0  0  0  0
  140.8700   69.4840  227.4810 C   0  0  0  0  0  0  0  0  0  0  0  0
  141.1020   70.4870  226.5590 C   0  0  0  0  0  0  0  0  0  0  0  0
  140.3210   70.5320  225.4020 C   0  0  0  0  0  0  0  0  0  0  0  0
  140.6250   71.6360  224.4580 C   0  0  0  0  0  0  0  0  0  0  0  0
  139.9070   73.7090  222.6300 N   0  0  0  0  0  0  0  0  0  0  0  0
  141.0750   76.8710  222.1680 C   0  0  0  0  0  0  0  0  0  0  0  0
  140.7221   81.8292  224.0388 H   0  0  0  0  0  0  0  0  0  0  0  0
  142.9642   80.8210  223.6452 H   0  0  0  0  0  0  0  0  0  0  0  0
  143.0566   78.4797  222.7636 H   0  0  0  0  0  0  0  0  0  0  0  0
  138.6560   80.5775  223.5813 H   0  0  0  0  0  0  0  0  0  0  0  0
  137.9822   77.7136  223.5990 H   0  0  0  0  0  0  0  0  0  0  0  0
  137.6440   78.7970  222.2326 H   0  0  0  0  0  0  0  0  0  0  0  0
  137.7882   76.3633  221.5295 H   0  0  0  0  0  0  0  0  0  0  0  0
  139.0200   77.3465  220.7176 H   0  0  0  0  0  0  0  0  0  0  0  0
  139.5563   76.0061  223.4278 H   0  0  0  0  0  0  0  0  0  0  0  0
  138.9450   72.4300  218.2310 H   0  0  0  0  0  0  0  0  0  0  0  0
  141.8055   73.2736  218.1655 H   0  0  0  0  0  0  0  0  0  0  0  0
  140.8227   72.8905  216.7531 H   0  0  0  0  0  0  0  0  0  0  0  0
  140.7259   75.2161  216.4783 H   0  0  0  0  0  0  0  0  0  0  0  0
  139.4947   75.1557  217.7762 H   0  0  0  0  0  0  0  0  0  0  0  0
  140.8319   77.5426  217.8020 H   0  0  0  0  0  0  0  0  0  0  0  0
  140.4799   77.1287  219.4807 H   0  0  0  0  0  0  0  0  0  0  0  0
  143.1450   77.8377  218.1784 H   0  0  0  0  0  0  0  0  0  0  0  0
  142.5673   78.3352  219.7529 H   0  0  0  0  0  0  0  0  0  0  0  0
  144.3365   76.2795  219.5736 H   0  0  0  0  0  0  0  0  0  0  0  0
  143.0523   76.0947  220.7261 H   0  0  0  0  0  0  0  0  0  0  0  0
  143.2914   74.9907  217.8731 H   0  0  0  0  0  0  0  0  0  0  0  0
  142.5691   74.1888  219.2726 H   0  0  0  0  0  0  0  0  0  0  0  0
  139.0967   70.0040  221.8521 H   0  0  0  0  0  0  0  0  0  0  0  0
  140.3905   69.3055  222.8500 H   0  0  0  0  0  0  0  0  0  0  0  0
  137.7562   70.4617  224.0042 H   0  0  0  0  0  0  0  0  0  0  0  0
  137.9750   68.7473  223.7052 H   0  0  0  0  0  0  0  0  0  0  0  0
  138.3038   67.8171  225.9308 H   0  0  0  0  0  0  0  0  0  0  0  0
  139.7148   67.7609  227.9898 H   0  0  0  0  0  0  0  0  0  0  0  0
  141.4713   69.4294  228.4005 H   0  0  0  0  0  0  0  0  0  0  0  0
  141.8879   71.2367  226.7333 H   0  0  0  0  0  0  0  0  0  0  0  0
  140.2150   72.5744  224.8596 H   0  0  0  0  0  0  0  0  0  0  0  0
  141.7169   71.7063  224.3449 H   0  0  0  0  0  0  0  0  0  0  0  0
  141.8751   76.3579  222.7217 H   0  0  0  0  0  0  0  0  0  0  0  0
  141.3471   76.8976  221.1025 H   0  0  0  0  0  0  0  0  0  0  0  0
  1  2  2  0
  2  3  1  0
  3  4  2  0
  4  5  1  0
  5  6  2  0
  5  7  1  0
  7  8  1  0
  8  9  1  0
  9 10  1  0
 10 11  2  0
 11 12  1  0
 12 13  1  0
 13 14  1  0
 14 15  1  0
 15 16  1  0
 16 17  1  0
 17 18  1  0
 18 19  1  0
 19 20  1  0
 12 21  2  0
 21 22  1  0
 22 23  1  0
 23 24  1  0
 24 25  1  0
 25 26  1  0
 26 27  2  0
 27 28  1  0
 28 29  2  0
 29 30  1  0
 30 31  2  0
 31 32  1  0
 22 33  2  0
  9 34  1  0
  6  1  1  0
 33 10  1  0
 34  4  1  0
 20 16  1  0
 32 23  1  0
 31 26  1  0
  1 35  1  0
  2 36  1  0
  3 37  1  0
  6 38  1  0
  7 39  1  0
  7 40  1  0
  8 41  1  0
  8 42  1  0
  9 43  1  1
 13 44  1  0
 14 45  1  0
 14 46  1  0
 15 47  1  0
 15 48  1  0
 17 49  1  0
 17 50  1  0
 18 51  1  0
 18 52  1  0
 19 53  1  0
 19 54  1  0
 20 55  1  0
 20 56  1  0
 24 57  1  0
 24 58  1  0
 25 59  1  0
 25 60  1  0
 27 61  1  0
 28 62  1  0
 29 63  1  0
 30 64  1  0
 32 65  1  0
 32 66  1  0
 34 67  1  0
 34 68  1  0
M  END
>  <smiles>  (66) 
c1ccc2c(c1)CCC(c1nc(NCCN3CCCC3)nc(N3CCc4ccccc4C3)n1)C2

>  <score_type>  (66) 
oracle

>  <origin>  (66) 
autodockgpu

>  <m_score__min__energy>  (66) 
-9.8699999999999992

>  <m_primary>  (66) 
energy

>  <rmsd>  (66) 
3.6778887270430074

>  <m_score__min__rmsd>  (66) 
3.6778887270430074

>  <meeko>  (66) 
{"free_energy": -8.65, "intermolecular_energy": -10.44, "internal_energy": -2.05, "cluster_size": 47, "cluster_id": 2, "rank_in_cluster": 40}

>  <energy>  (66) 
-9.25

>  <cluster_rmsd>  (66) 
0.59

>  <cluster>  (66) 
2

$$$$

     RDKit          3D

 68 73  0  0  0  0  0  0  0  0999 V2000
  140.3530   68.5470  227.6990 C   0  0  0  0  0  0  0  0  0  0  0  0
  141.0710   69.7010  227.9450 C   0  0  0  0  0  0  0  0  0  0  0  0
  141.0690   70.6640  226.9460 C   0  0  0  0  0  0  0  0  0  0  0  0
  140.3700   70.4680  225.7490 C   0  0  0  0  0  0  0  0  0  0  0  0
  139.6640   69.3140  225.5260 C   0  0  0  0  0  0  0  0  0  0  0  0
  139.6610   68.3490  226.5180 C   0  0  0  0  0  0  0  0  0  0  0  0
  138.9020   69.0360  224.2810 C   0  0  0  0  0  0  0  0  0  0  0  0
  138.6530   70.3790  223.6140 C   0  0  0  0  0  0  0  0  0  0  0  0
  140.0130   71.0140  223.4180 C   0  0  1  0  0  0  0  0  0  0  0  0
  139.9890   72.0540  222.3710 C   0  0  0  0  0  0  0  0  0  0  0  0
  140.0220   71.7570  221.0470 N   0  0  0  0  0  0  0  0  0  0  0  0
  140.0030   72.7440  220.1080 C   0  0  0  0  0  0  0  0  0  0  0  0
  140.0390   72.4350  218.7200 N   0  0  0  0  0  0  0  0  0  0  0  0
  141.3190   72.2050  218.0330 C   0  0  0  0  0  0  0  0  0  0  0  0
  141.7870   73.6000  217.5970 C   0  0  0  0  0  0  0  0  0  0  0  0
  142.4590   74.1880  218.6510 N   0  0  0  0  0  0  0  0  0  0  0  0
  142.3930   75.5480  218.9490 C   0  0  0  0  0  0  0  0  0  0  0  0
  143.6640   75.8430  219.7170 C   0  0  0  0  0  0  0  0  0  0  0  0
  143.9430   74.5270  220.4270 C   0  0  0  0  0  0  0  0  0  0  0  0
  143.4790   73.5280  219.3650 C   0  0  0  0  0  0  0  0  0  0  0  0
  139.9490   74.0310  220.4860 N   0  0  0  0  0  0  0  0  0  0  0  0
  139.9150   74.3470  221.7990 C   0  0  0  0  0  0  0  0  0  0  0  0
  139.8610   75.6940  222.2650 N   0  0  0  0  0  0  0  0  0  0  0  0
  138.5840   76.3200  222.6430 C   0  0  0  0  0  0  0  0  0  0  0  0
  138.4360   77.5830  221.7790 C   0  0  0  0  0  0  0  0  0  0  0  0
  139.5400   78.4810  222.2770 C   0  0  0  0  0  0  0  0  0  0  0  0
  139.2950   79.8420  222.4500 C   0  0  0  0  0  0  0  0  0  0  0  0
  140.3580   80.6070  222.9140 C   0  0  0  0  0  0  0  0  0  0  0  0
  141.5980   80.0720  223.1930 C   0  0  0  0  0  0  0  0  0  0  0  0
  141.8180   78.7190  223.0150 C   0  0  0  0  0  0  0  0  0  0  0  0
  140.7690   77.9230  222.5500 C   0  0  0  0  0  0  0  0  0  0  0  0
  141.0760   76.4800  222.3810 C   0  0  0  0  0  0  0  0  0  0  0  0
  139.9350   73.3520  222.7080 N   0  0  0  0  0  0  0  0  0  0  0  0
  140.4410   71.5630  224.7610 C   0  0  0  0  0  0  0  0  0  0  0  0
  140.3308   67.7600  228.4672 H   0  0  0  0  0  0  0  0  0  0  0  0
  141.6181   69.8495  228.8877 H   0  0  0  0  0  0  0  0  0  0  0  0
  141.6275   71.5995  227.0975 H   0  0  0  0  0  0  0  0  0  0  0  0
  139.1020   67.4140  226.3655 H   0  0  0  0  0  0  0  0  0  0  0  0
  139.4873   68.3846  223.6154 H   0  0  0  0  0  0  0  0  0  0  0  0
  137.9551   68.5219  224.5024 H   0  0  0  0  0  0  0  0  0  0  0  0
  138.1559   70.2359  222.6432 H   0  0  0  0  0  0  0  0  0  0  0  0
  137.9991   71.0155  224.2281 H   0  0  0  0  0  0  0  0  0  0  0  0
  140.7399   70.2683  223.0637 H   0  0  0  0  0  0  0  0  0  0  0  0
  139.1440   72.3750  218.1960 H   0  0  0  0  0  0  0  0  0  0  0  0
  142.0491   71.7477  218.7170 H   0  0  0  0  0  0  0  0  0  0  0  0
  141.2148   71.5172  217.1809 H   0  0  0  0  0  0  0  0  0  0  0  0
  142.4600   73.5115  216.7314 H   0  0  0  0  0  0  0  0  0  0  0  0
  140.9208   74.2156  217.3129 H   0  0  0  0  0  0  0  0  0  0  0  0
  142.3519   76.1445  218.0257 H   0  0  0  0  0  0  0  0  0  0  0  0
  141.4924   75.8009  219.5278 H   0  0  0  0  0  0  0  0  0  0  0  0
  144.4861   76.1075  219.0357 H   0  0  0  0  0  0  0  0  0  0  0  0
  143.5689   76.6966  220.4043 H   0  0  0  0  0  0  0  0  0  0  0  0
  145.0125   74.4084  220.6553 H   0  0  0  0  0  0  0  0  0  0  0  0
  143.4461   74.4202  221.4025 H   0  0  0  0  0  0  0  0  0  0  0  0
  144.3104   73.2654  218.6943 H   0  0  0  0  0  0  0  0  0  0  0  0
  143.1225   72.5893  219.8142 H   0  0  0  0  0  0  0  0  0  0  0  0
  137.7510   75.6284  222.4487 H   0  0  0  0  0  0  0  0  0  0  0  0
  138.5687   76.5702  223.7141 H   0  0  0  0  0  0  0  0  0  0  0  0
  138.5709   77.3482  220.7129 H   0  0  0  0  0  0  0  0  0  0  0  0
  137.4401   78.0431  221.8596 H   0  0  0  0  0  0  0  0  0  0  0  0
  138.3130   80.2866  222.2310 H   0  0  0  0  0  0  0  0  0  0  0  0
  140.2039   81.6856  223.0653 H   0  0  0  0  0  0  0  0  0  0  0  0
  142.4095   80.7199  223.5560 H   0  0  0  0  0  0  0  0  0  0  0  0
  142.8011   78.2775  223.2355 H   0  0  0  0  0  0  0  0  0  0  0  0
  141.6783   76.3457  221.4704 H   0  0  0  0  0  0  0  0  0  0  0  0
  141.6297   76.1360  223.2670 H   0  0  0  0  0  0  0  0  0  0  0  0
  141.4719   71.9414  224.6975 H   0  0  0  0  0  0  0  0  0  0  0  0
  139.7815   72.3904  225.0617 H   0  0  0  0  0  0  0  0  0  0  0  0
  1  2  2  0
  2  3  1  0
  3  4  2  0
  4  5  1  0
  5  6  2  0
  5  7  1  0
  7  8  1  0
  8  9  1  0
  9 10  1  0
 10 11  2  0
 11 12  1  0
 12 13  1  0
 13 14  1  0
 14 15  1  0
 15 16  1  0
 16 17  1  0
 17 18  1  0
 18 19  1  0
 19 20  1  0
 12 21  2  0
 21 22  1  0
 22 23  1  0
 23 24  1  0
 24 25  1  0
 25 26  1  0
 26 27  2  0
 27 28  1  0
 28 29  2  0
 29 30  1  0
 30 31  2  0
 31 32  1  0
 22 33  2  0
  9 34  1  0
  6  1  1  0
 33 10  1  0
 34  4  1  0
 20 16  1  0
 32 23  1  0
 31 26  1  0
  1 35  1  0
  2 36  1  0
  3 37  1  0
  6 38  1  0
  7 39  1  0
  7 40  1  0
  8 41  1  0
  8 42  1  0
  9 43  1  6
 13 44  1  0
 14 45  1  0
 14 46  1  0
 15 47  1  0
 15 48  1  0
 17 49  1  0
 17 50  1  0
 18 51  1  0
 18 52  1  0
 19 53  1  0
 19 54  1  0
 20 55  1  0
 20 56  1  0
 24 57  1  0
 24 58  1  0
 25 59  1  0
 25 60  1  0
 27 61  1  0
 28 62  1  0
 29 63  1  0
 30 64  1  0
 32 65  1  0
 32 66  1  0
 34 67  1  0
 34 68  1  0
M  END
>  <smiles>  (67) 
c1ccc2c(c1)CCC(c1nc(NCCN3CCCC3)nc(N3CCc4ccccc4C3)n1)C2

>  <score_type>  (67) 
oracle

>  <origin>  (67) 
autodockgpu

>  <m_score__min__energy>  (67) 
-9.8699999999999992

>  <m_primary>  (67) 
energy

>  <rmsd>  (67) 
4.351021611685685

>  <m_score__min__rmsd>  (67) 
4.351021611685685

>  <meeko>  (67) 
{"free_energy": -8.93, "intermolecular_energy": -10.72, "internal_energy": -1.92, "cluster_size": 47, "cluster_id": 2, "rank_in_cluster": 29}

>  <energy>  (67) 
-9.23

>  <cluster_rmsd>  (67) 
0.73

>  <cluster>  (67) 
2

$$$$

     RDKit          3D

 68 73  0  0  0  0  0  0  0  0999 V2000
  140.1330   69.3130  228.1680 C   0  0  0  0  0  0  0  0  0  0  0  0
  140.9200   70.4380  228.3180 C   0  0  0  0  0  0  0  0  0  0  0  0
  141.0790   71.2440  227.2000 C   0  0  0  0  0  0  0  0  0  0  0  0
  140.4670   70.9260  225.9820 C   0  0  0  0  0  0  0  0  0  0  0  0
  139.6910   69.8030  225.8550 C   0  0  0  0  0  0  0  0  0  0  0  0
  139.5270   68.9940  226.9660 C   0  0  0  0  0  0  0  0  0  0  0  0
  139.0140   69.4010  224.5950 C   0  0  0  0  0  0  0  0  0  0  0  0
  138.9310   70.6470  223.7280 C   0  0  0  0  0  0  0  0  0  0  0  0
  140.3490   71.1520  223.5750 C   0  0  1  0  0  0  0  0  0  0  0  0
  140.4970   72.0290  222.3960 C   0  0  0  0  0  0  0  0  0  0  0  0
  140.9360   71.5710  221.1970 N   0  0  0  0  0  0  0  0  0  0  0  0
  141.0640   72.4110  220.1310 C   0  0  0  0  0  0  0  0  0  0  0  0
  141.5250   71.9330  218.8730 N   0  0  0  0  0  0  0  0  0  0  0  0
  142.8370   71.2780  218.7530 C   0  0  0  0  0  0  0  0  0  0  0  0
  143.8000   72.4020  218.3460 C   0  0  0  0  0  0  0  0  0  0  0  0
  144.4320   72.8720  219.4810 N   0  0  0  0  0  0  0  0  0  0  0  0
  144.1690   74.1160  220.0540 C   0  0  0  0  0  0  0  0  0  0  0  0
  145.4210   74.4600  220.8350 C   0  0  0  0  0  0  0  0  0  0  0  0
  145.9440   73.0930  221.2510 C   0  0  0  0  0  0  0  0  0  0  0  0
  145.5830   72.2630  220.0180 C   0  0  0  0  0  0  0  0  0  0  0  0
  140.7520   73.7110  220.2590 N   0  0  0  0  0  0  0  0  0  0  0  0
  140.3120   74.1850  221.4440 C   0  0  0  0  0  0  0  0  0  0  0  0
  139.9680   75.5550  221.6440 N   0  0  0  0  0  0  0  0  0  0  0  0
  140.9400   76.6300  221.3900 C   0  0  0  0  0  0  0  0  0  0  0  0
  141.0740   77.4260  222.6980 C   0  0  0  0  0  0  0  0  0  0  0  0
  139.7210   78.0730  222.8570 C   0  0  0  0  0  0  0  0  0  0  0  0
  139.6370   79.3950  223.2880 C   0  0  0  0  0  0  0  0  0  0  0  0
  138.3580   79.9250  223.4100 C   0  0  0  0  0  0  0  0  0  0  0  0
  137.2200   79.2010  223.1260 C   0  0  0  0  0  0  0  0  0  0  0  0
  137.3270   77.8910  222.6990 C   0  0  0  0  0  0  0  0  0  0  0  0
  138.5990   77.3300  222.5660 C   0  0  0  0  0  0  0  0  0  0  0  0
  138.6400   75.9190  222.1040 C   0  0  0  0  0  0  0  0  0  0  0  0
  140.1950   73.3340  222.4830 N   0  0  0  0  0  0  0  0  0  0  0  0
  140.7080   71.8590  224.8630 C   0  0  0  0  0  0  0  0  0  0  0  0
  139.9832   68.6492  229.0322 H   0  0  0  0  0  0  0  0  0  0  0  0
  141.3979   70.6832  229.2779 H   0  0  0  0  0  0  0  0  0  0  0  0
  141.6980   72.1505  227.2722 H   0  0  0  0  0  0  0  0  0  0  0  0
  138.9081   68.0876  226.8924 H   0  0  0  0  0  0  0  0  0  0  0  0
  139.5971   68.6211  224.0833 H   0  0  0  0  0  0  0  0  0  0  0  0
  138.0132   68.9913  224.7964 H   0  0  0  0  0  0  0  0  0  0  0  0
  138.5066   70.3989  222.7440 H   0  0  0  0  0  0  0  0  0  0  0  0
  138.2818   71.4091  224.1837 H   0  0  0  0  0  0  0  0  0  0  0  0
  141.0395   70.3143  223.3973 H   0  0  0  0  0  0  0  0  0  0  0  0
  140.9210   72.0550  218.0380 H   0  0  0  0  0  0  0  0  0  0  0  0
  143.1397   70.8375  219.7144 H   0  0  0  0  0  0  0  0  0  0  0  0
  142.8256   70.4558  218.0223 H   0  0  0  0  0  0  0  0  0  0  0  0
  144.5478   72.0120  217.6398 H   0  0  0  0  0  0  0  0  0  0  0  0
  143.2433   73.2171  217.8605 H   0  0  0  0  0  0  0  0  0  0  0  0
  143.9805   74.8688  219.2744 H   0  0  0  0  0  0  0  0  0  0  0  0
  143.2749   74.0954  220.6944 H   0  0  0  0  0  0  0  0  0  0  0  0
  146.1502   74.9877  220.2027 H   0  0  0  0  0  0  0  0  0  0  0  0
  145.2333   75.1321  221.6853 H   0  0  0  0  0  0  0  0  0  0  0  0
  147.0302   73.1102  221.4240 H   0  0  0  0  0  0  0  0  0  0  0  0
  145.5267   72.7128  222.1951 H   0  0  0  0  0  0  0  0  0  0  0  0
  146.4049   72.2819  219.2872 H   0  0  0  0  0  0  0  0  0  0  0  0
  145.4063   71.2076  220.2727 H   0  0  0  0  0  0  0  0  0  0  0  0
  141.9126   76.2017  221.1060 H   0  0  0  0  0  0  0  0  0  0  0  0
  140.6056   77.2778  220.5663 H   0  0  0  0  0  0  0  0  0  0  0  0
  141.2922   76.7579  223.5442 H   0  0  0  0  0  0  0  0  0  0  0  0
  141.8972   78.1552  222.6732 H   0  0  0  0  0  0  0  0  0  0  0  0
  140.5345   79.9875  223.5193 H   0  0  0  0  0  0  0  0  0  0  0  0
  138.2493   80.9663  223.7475 H   0  0  0  0  0  0  0  0  0  0  0  0
  136.2290   79.6648  223.2390 H   0  0  0  0  0  0  0  0  0  0  0  0
  136.4275   77.3014  222.4683 H   0  0  0  0  0  0  0  0  0  0  0  0
  138.3561   75.2601  222.9379 H   0  0  0  0  0  0  0  0  0  0  0  0
  137.9380   75.8071  221.2645 H   0  0  0  0  0  0  0  0  0  0  0  0
  141.7680   72.1525  224.8441 H   0  0  0  0  0  0  0  0  0  0  0  0
  140.0954   72.7646  224.9837 H   0  0  0  0  0  0  0  0  0  0  0  0
  1  2  2  0
  2  3  1  0
  3  4  2  0
  4  5  1  0
  5  6  2  0
  5  7  1  0
  7  8  1  0
  8  9  1  0
  9 10  1  0
 10 11  2  0
 11 12  1  0
 12 13  1  0
 13 14  1  0
 14 15  1  0
 15 16  1  0
 16 17  1  0
 17 18  1  0
 18 19  1  0
 19 20  1  0
 12 21  2  0
 21 22  1  0
 22 23  1  0
 23 24  1  0
 24 25  1  0
 25 26  1  0
 26 27  2  0
 27 28  1  0
 28 29  2  0
 29 30  1  0
 30 31  2  0
 31 32  1  0
 22 33  2  0
  9 34  1  0
  6  1  1  0
 33 10  1  0
 34  4  1  0
 20 16  1  0
 32 23  1  0
 31 26  1  0
  1 35  1  0
  2 36  1  0
  3 37  1  0
  6 38  1  0
  7 39  1  0
  7 40  1  0
  8 41  1  0
  8 42  1  0
  9 43  1  6
 13 44  1  0
 14 45  1  0
 14 46  1  0
 15 47  1  0
 15 48  1  0
 17 49  1  0
 17 50  1  0
 18 51  1  0
 18 52  1  0
 19 53  1  0
 19 54  1  0
 20 55  1  0
 20 56  1  0
 24 57  1  0
 24 58  1  0
 25 59  1  0
 25 60  1  0
 27 61  1  0
 28 62  1  0
 29 63  1  0
 30 64  1  0
 32 65  1  0
 32 66  1  0
 34 67  1  0
 34 68  1  0
M  END
>  <smiles>  (68) 
c1ccc2c(c1)CCC(c1nc(NCCN3CCCC3)nc(N3CCc4ccccc4C3)n1)C2

>  <score_type>  (68) 
oracle

>  <origin>  (68) 
autodockgpu

>  <m_score__min__energy>  (68) 
-9.8699999999999992

>  <m_primary>  (68) 
energy

>  <rmsd>  (68) 
6.092691312252271

>  <m_score__min__rmsd>  (68) 
6.092691312252271

>  <meeko>  (68) 
{"free_energy": -9.34, "intermolecular_energy": -11.13, "internal_energy": -1.51, "cluster_size": 47, "cluster_id": 2, "rank_in_cluster": 9}

>  <energy>  (68) 
-9.22

>  <cluster_rmsd>  (68) 
1.04

>  <cluster>  (68) 
2

$$$$

     RDKit          3D

 68 73  0  0  0  0  0  0  0  0999 V2000
  139.6240   68.1990  227.0000 C   0  0  0  0  0  0  0  0  0  0  0  0
  140.6800   69.0050  227.3810 C   0  0  0  0  0  0  0  0  0  0  0  0
  140.9790   70.0770  226.5510 C   0  0  0  0  0  0  0  0  0  0  0  0
  140.2400   70.3230  225.3880 C   0  0  0  0  0  0  0  0  0  0  0  0
  139.1960   69.5100  225.0300 C   0  0  0  0  0  0  0  0  0  0  0  0
  138.8920   68.4380  225.8520 C   0  0  0  0  0  0  0  0  0  0  0  0
  138.3710   69.7090  223.8110 C   0  0  0  0  0  0  0  0  0  0  0  0
  138.5620   71.1560  223.3860 C   0  0  0  0  0  0  0  0  0  0  0  0
  140.0520   71.3510  223.2040 C   0  0  1  0  0  0  0  0  0  0  0  0
  140.3540   72.5100  222.3420 C   0  0  0  0  0  0  0  0  0  0  0  0
  141.0310   72.3920  221.1720 N   0  0  0  0  0  0  0  0  0  0  0  0
  141.2950   73.4850  220.4030 C   0  0  0  0  0  0  0  0  0  0  0  0
  142.0060   73.3640  219.1760 N   0  0  0  0  0  0  0  0  0  0  0  0
  142.0980   74.4980  218.2450 C   0  0  0  0  0  0  0  0  0  0  0  0
  143.5880   74.8690  218.2250 C   0  0  0  0  0  0  0  0  0  0  0  0
  144.2490   74.0840  219.1500 N   0  0  0  0  0  0  0  0  0  0  0  0
  144.4830   74.4730  220.4680 C   0  0  0  0  0  0  0  0  0  0  0  0
  145.6840   73.6600  220.9080 C   0  0  0  0  0  0  0  0  0  0  0  0
  145.5400   72.3800  220.0990 C   0  0  0  0  0  0  0  0  0  0  0  0
  144.9790   72.9350  218.7880 C   0  0  0  0  0  0  0  0  0  0  0  0
  140.8830   74.7010  220.7980 N   0  0  0  0  0  0  0  0  0  0  0  0
  140.2070   74.8390  221.9590 C   0  0  0  0  0  0  0  0  0  0  0  0
  139.7470   76.1020  222.4360 N   0  0  0  0  0  0  0  0  0  0  0  0
  138.3160   76.3500  222.6770 C   0  0  0  0  0  0  0  0  0  0  0  0
  137.9260   77.5650  221.8210 C   0  0  0  0  0  0  0  0  0  0  0  0
  138.6920   78.7010  222.4520 C   0  0  0  0  0  0  0  0  0  0  0  0
  138.0750   79.9390  222.6170 C   0  0  0  0  0  0  0  0  0  0  0  0
  138.8400   80.9370  223.2070 C   0  0  0  0  0  0  0  0  0  0  0  0
  140.1420   80.7380  223.6160 C   0  0  0  0  0  0  0  0  0  0  0  0
  140.7330   79.5010  223.4440 C   0  0  0  0  0  0  0  0  0  0  0  0
  139.9900   78.4760  222.8530 C   0  0  0  0  0  0  0  0  0  0  0  0
  140.6880   77.1750  222.6990 C   0  0  0  0  0  0  0  0  0  0  0  0
  139.9590   73.7410  222.7010 N   0  0  0  0  0  0  0  0  0  0  0  0
  140.6490   71.4940  224.5860 C   0  0  0  0  0  0  0  0  0  0  0  0
  139.3571   67.3386  227.6313 H   0  0  0  0  0  0  0  0  0  0  0  0
  141.2556   68.8068  228.2972 H   0  0  0  0  0  0  0  0  0  0  0  0
  141.8124   70.7457  226.8123 H   0  0  0  0  0  0  0  0  0  0  0  0
  138.0591   67.7694  225.5887 H   0  0  0  0  0  0  0  0  0  0  0  0
  138.7061   69.0317  223.0117 H   0  0  0  0  0  0  0  0  0  0  0  0
  137.3113   69.4917  224.0105 H   0  0  0  0  0  0  0  0  0  0  0  0
  138.0342   71.3482  222.4402 H   0  0  0  0  0  0  0  0  0  0  0  0
  138.1561   71.8505  224.1363 H   0  0  0  0  0  0  0  0  0  0  0  0
  140.4947   70.4871  222.6865 H   0  0  0  0  0  0  0  0  0  0  0  0
  142.4600   72.4590  218.9480 H   0  0  0  0  0  0  0  0  0  0  0  0
  141.7584   74.2036  217.2410 H   0  0  0  0  0  0  0  0  0  0  0  0
  141.4640   75.3419  218.5545 H   0  0  0  0  0  0  0  0  0  0  0  0
  144.0017   74.6881  217.2220 H   0  0  0  0  0  0  0  0  0  0  0  0
  143.7143   75.9327  218.4754 H   0  0  0  0  0  0  0  0  0  0  0  0
  144.7042   75.5493  220.5203 H   0  0  0  0  0  0  0  0  0  0  0  0
  143.6081   74.3003  221.1119 H   0  0  0  0  0  0  0  0  0  0  0  0
  146.6235   74.1782  220.6656 H   0  0  0  0  0  0  0  0  0  0  0  0
  145.7184   73.4871  221.9938 H   0  0  0  0  0  0  0  0  0  0  0  0
  146.5105   71.8850  219.9473 H   0  0  0  0  0  0  0  0  0  0  0  0
  144.9154   71.6082  220.5726 H   0  0  0  0  0  0  0  0  0  0  0  0
  145.7964   73.1990  218.1008 H   0  0  0  0  0  0  0  0  0  0  0  0
  144.3499   72.1978  218.2677 H   0  0  0  0  0  0  0  0  0  0  0  0
  137.7241   75.4717  222.3799 H   0  0  0  0  0  0  0  0  0  0  0  0
  138.1222   76.5395  223.7431 H   0  0  0  0  0  0  0  0  0  0  0  0
  138.2284   77.4211  220.7732 H   0  0  0  0  0  0  0  0  0  0  0  0
  136.8405   77.7414  221.7971 H   0  0  0  0  0  0  0  0  0  0  0  0
  137.0376   80.1167  222.2972 H   0  0  0  0  0  0  0  0  0  0  0  0
  138.3879   81.9289  223.3544 H   0  0  0  0  0  0  0  0  0  0  0  0
  140.7077   81.5609  224.0773 H   0  0  0  0  0  0  0  0  0  0  0  0
  141.7700   79.3263  223.7666 H   0  0  0  0  0  0  0  0  0  0  0  0
  141.3960   77.2449  221.8601 H   0  0  0  0  0  0  0  0  0  0  0  0
  141.2180   76.9512  223.6365 H   0  0  0  0  0  0  0  0  0  0  0  0
  141.7461   71.5326  224.5157 H   0  0  0  0  0  0  0  0  0  0  0  0
  140.2946   72.4216  225.0592 H   0  0  0  0  0  0  0  0  0  0  0  0
  1  2  2  0
  2  3  1  0
  3  4  2  0
  4  5  1  0
  5  6  2  0
  5  7  1  0
  7  8  1  0
  8  9  1  0
  9 10  1  0
 10 11  2  0
 11 12  1  0
 12 13  1  0
 13 14  1  0
 14 15  1  0
 15 16  1  0
 16 17  1  0
 17 18  1  0
 18 19  1  0
 19 20  1  0
 12 21  2  0
 21 22  1  0
 22 23  1  0
 23 24  1  0
 24 25  1  0
 25 26  1  0
 26 27  2  0
 27 28  1  0
 28 29  2  0
 29 30  1  0
 30 31  2  0
 31 32  1  0
 22 33  2  0
  9 34  1  0
  6  1  1  0
 33 10  1  0
 34  4  1  0
 20 16  1  0
 32 23  1  0
 31 26  1  0
  1 35  1  0
  2 36  1  0
  3 37  1  0
  6 38  1  0
  7 39  1  0
  7 40  1  0
  8 41  1  0
  8 42  1  0
  9 43  1  6
 13 44  1  0
 14 45  1  0
 14 46  1  0
 15 47  1  0
 15 48  1  0
 17 49  1  0
 17 50  1  0
 18 51  1  0
 18 52  1  0
 19 53  1  0
 19 54  1  0
 20 55  1  0
 20 56  1  0
 24 57  1  0
 24 58  1  0
 25 59  1  0
 25 60  1  0
 27 61  1  0
 28 62  1  0
 29 63  1  0
 30 64  1  0
 32 65  1  0
 32 66  1  0
 34 67  1  0
 34 68  1  0
M  END
>  <smiles>  (69) 
c1ccc2c(c1)CCC(c1nc(NCCN3CCCC3)nc(N3CCc4ccccc4C3)n1)C2

>  <score_type>  (69) 
oracle

>  <origin>  (69) 
autodockgpu

>  <m_score__min__energy>  (69) 
-9.8699999999999992

>  <m_primary>  (69) 
energy

>  <rmsd>  (69) 
5.739212908190206

>  <m_score__min__rmsd>  (69) 
5.739212908190206

>  <meeko>  (69) 
{"free_energy": -9.16, "intermolecular_energy": -10.95, "internal_energy": -1.72, "cluster_size": 47, "cluster_id": 2, "rank_in_cluster": 18}

>  <energy>  (69) 
-9.2

>  <cluster_rmsd>  (69) 
0.98

>  <cluster>  (69) 
2

$$$$

     RDKit          3D

 68 73  0  0  0  0  0  0  0  0999 V2000
  140.3110   68.5360  227.6800 C   0  0  0  0  0  0  0  0  0  0  0  0
  141.0520   69.6740  227.9330 C   0  0  0  0  0  0  0  0  0  0  0  0
  141.0700   70.6430  226.9390 C   0  0  0  0  0  0  0  0  0  0  0  0
  140.3690   70.4670  225.7410 C   0  0  0  0  0  0  0  0  0  0  0  0
  139.6400   69.3280  225.5110 C   0  0  0  0  0  0  0  0  0  0  0  0
  139.6160   68.3580  226.4980 C   0  0  0  0  0  0  0  0  0  0  0  0
  138.8740   69.0730  224.2640 C   0  0  0  0  0  0  0  0  0  0  0  0
  138.6530   70.4240  223.6030 C   0  0  0  0  0  0  0  0  0  0  0  0
  140.0250   71.0330  223.4130 C   0  0  1  0  0  0  0  0  0  0  0  0
  140.0230   72.0790  222.3700 C   0  0  0  0  0  0  0  0  0  0  0  0
  140.1010   71.7900  221.0470 N   0  0  0  0  0  0  0  0  0  0  0  0
  140.1000   72.7820  220.1130 C   0  0  0  0  0  0  0  0  0  0  0  0
  140.1830   72.4820  218.7250 N   0  0  0  0  0  0  0  0  0  0  0  0
  141.3940   72.8060  217.9560 C   0  0  0  0  0  0  0  0  0  0  0  0
  141.1840   74.2530  217.4860 C   0  0  0  0  0  0  0  0  0  0  0  0
  141.8350   75.0990  218.3620 N   0  0  0  0  0  0  0  0  0  0  0  0
  141.3520   76.3540  218.7290 C   0  0  0  0  0  0  0  0  0  0  0  0
  142.5760   77.1330  219.1650 C   0  0  0  0  0  0  0  0  0  0  0  0
  143.4860   76.0470  219.7200 C   0  0  0  0  0  0  0  0  0  0  0  0
  143.1700   74.8960  218.7650 C   0  0  0  0  0  0  0  0  0  0  0  0
  140.0210   74.0660  220.4970 N   0  0  0  0  0  0  0  0  0  0  0  0
  139.9420   74.3740  221.8090 C   0  0  0  0  0  0  0  0  0  0  0  0
  139.8600   75.7170  222.2810 N   0  0  0  0  0  0  0  0  0  0  0  0
  138.5700   76.3130  222.6660 C   0  0  0  0  0  0  0  0  0  0  0  0
  138.3900   77.5750  221.8080 C   0  0  0  0  0  0  0  0  0  0  0  0
  139.4760   78.4960  222.3060 C   0  0  0  0  0  0  0  0  0  0  0  0
  139.2000   79.8500  222.4850 C   0  0  0  0  0  0  0  0  0  0  0  0
  140.2480   80.6380  222.9480 C   0  0  0  0  0  0  0  0  0  0  0  0
  141.5000   80.1300  223.2210 C   0  0  0  0  0  0  0  0  0  0  0  0
  141.7500   78.7830  223.0360 C   0  0  0  0  0  0  0  0  0  0  0  0
  140.7180   77.9650  222.5720 C   0  0  0  0  0  0  0  0  0  0  0  0
  141.0570   76.5300  222.3960 C   0  0  0  0  0  0  0  0  0  0  0  0
  139.9440   73.3730  222.7130 N   0  0  0  0  0  0  0  0  0  0  0  0
  140.4620   71.5660  224.7590 C   0  0  0  0  0  0  0  0  0  0  0  0
  140.2726   67.7455  228.4439 H   0  0  0  0  0  0  0  0  0  0  0  0
  141.6014   69.8061  228.8768 H   0  0  0  0  0  0  0  0  0  0  0  0
  141.6463   71.5666  227.0962 H   0  0  0  0  0  0  0  0  0  0  0  0
  139.0378   67.4356  226.3404 H   0  0  0  0  0  0  0  0  0  0  0  0
  139.4465   68.4131  223.5957 H   0  0  0  0  0  0  0  0  0  0  0  0
  137.9162   68.5779  224.4823 H   0  0  0  0  0  0  0  0  0  0  0  0
  138.1553   70.2954  222.6305 H   0  0  0  0  0  0  0  0  0  0  0  0
  138.0104   71.0703  224.2190 H   0  0  0  0  0  0  0  0  0  0  0  0
  140.7380   70.2751  223.0565 H   0  0  0  0  0  0  0  0  0  0  0  0
  139.3720   72.0280  218.2610 H   0  0  0  0  0  0  0  0  0  0  0  0
  142.2885   72.7309  218.5917 H   0  0  0  0  0  0  0  0  0  0  0  0
  141.5495   72.1144  217.1149 H   0  0  0  0  0  0  0  0  0  0  0  0
  141.5971   74.3778  216.4742 H   0  0  0  0  0  0  0  0  0  0  0  0
  140.1098   74.4890  217.4635 H   0  0  0  0  0  0  0  0  0  0  0  0
  140.8649   76.8459  217.8742 H   0  0  0  0  0  0  0  0  0  0  0  0
  140.5976   76.2892  219.5269 H   0  0  0  0  0  0  0  0  0  0  0  0
  143.0447   77.6449  218.3116 H   0  0  0  0  0  0  0  0  0  0  0  0
  142.3510   77.9268  219.8925 H   0  0  0  0  0  0  0  0  0  0  0  0
  144.5451   76.3391  219.6660 H   0  0  0  0  0  0  0  0  0  0  0  0
  143.3242   75.8153  220.7831 H   0  0  0  0  0  0  0  0  0  0  0  0
  143.8427   74.9222  217.8951 H   0  0  0  0  0  0  0  0  0  0  0  0
  143.3073   73.9163  219.2460 H   0  0  0  0  0  0  0  0  0  0  0  0
  137.7522   75.6034  222.4720 H   0  0  0  0  0  0  0  0  0  0  0  0
  138.5533   76.5590  223.7380 H   0  0  0  0  0  0  0  0  0  0  0  0
  138.5261   77.3475  220.7404 H   0  0  0  0  0  0  0  0  0  0  0  0
  137.3842   78.0121  221.8939 H   0  0  0  0  0  0  0  0  0  0  0  0
  138.2071   80.2726  222.2717 H   0  0  0  0  0  0  0  0  0  0  0  0
  140.0704   81.7124  223.1030 H   0  0  0  0  0  0  0  0  0  0  0  0
  142.2977   80.7943  223.5849 H   0  0  0  0  0  0  0  0  0  0  0  0
  142.7439   78.3633  223.2504 H   0  0  0  0  0  0  0  0  0  0  0  0
  141.6590   76.4131  221.4828 H   0  0  0  0  0  0  0  0  0  0  0  0
  141.6214   76.1951  223.2788 H   0  0  0  0  0  0  0  0  0  0  0  0
  141.5001   71.9249  224.6985 H   0  0  0  0  0  0  0  0  0  0  0  0
  139.8182   72.4042  225.0637 H   0  0  0  0  0  0  0  0  0  0  0  0
  1  2  2  0
  2  3  1  0
  3  4  2  0
  4  5  1  0
  5  6  2  0
  5  7  1  0
  7  8  1  0
  8  9  1  0
  9 10  1  0
 10 11  2  0
 11 12  1  0
 12 13  1  0
 13 14  1  0
 14 15  1  0
 15 16  1  0
 16 17  1  0
 17 18  1  0
 18 19  1  0
 19 20  1  0
 12 21  2  0
 21 22  1  0
 22 23  1  0
 23 24  1  0
 24 25  1  0
 25 26  1  0
 26 27  2  0
 27 28  1  0
 28 29  2  0
 29 30  1  0
 30 31  2  0
 31 32  1  0
 22 33  2  0
  9 34  1  0
  6  1  1  0
 33 10  1  0
 34  4  1  0
 20 16  1  0
 32 23  1  0
 31 26  1  0
  1 35  1  0
  2 36  1  0
  3 37  1  0
  6 38  1  0
  7 39  1  0
  7 40  1  0
  8 41  1  0
  8 42  1  0
  9 43  1  6
 13 44  1  0
 14 45  1  0
 14 46  1  0
 15 47  1  0
 15 48  1  0
 17 49  1  0
 17 50  1  0
 18 51  1  0
 18 52  1  0
 19 53  1  0
 19 54  1  0
 20 55  1  0
 20 56  1  0
 24 57  1  0
 24 58  1  0
 25 59  1  0
 25 60  1  0
 27 61  1  0
 28 62  1  0
 29 63  1  0
 30 64  1  0
 32 65  1  0
 32 66  1  0
 34 67  1  0
 34 68  1  0
M  END
>  <smiles>  (70) 
c1ccc2c(c1)CCC(c1nc(NCCN3CCCC3)nc(N3CCc4ccccc4C3)n1)C2

>  <score_type>  (70) 
oracle

>  <origin>  (70) 
autodockgpu

>  <m_score__min__energy>  (70) 
-9.8699999999999992

>  <m_primary>  (70) 
energy

>  <rmsd>  (70) 
3.889266952078436

>  <m_score__min__rmsd>  (70) 
3.889266952078436

>  <meeko>  (70) 
{"free_energy": -8.76, "intermolecular_energy": -10.55, "internal_energy": -1.98, "cluster_size": 47, "cluster_id": 2, "rank_in_cluster": 36}

>  <energy>  (70) 
-9.17

>  <cluster_rmsd>  (70) 
0.6

>  <cluster>  (70) 
2

$$$$

     RDKit          3D

 68 73  0  0  0  0  0  0  0  0999 V2000
  140.1790   68.4220  227.5880 C   0  0  0  0  0  0  0  0  0  0  0  0
  140.9510   69.5210  227.9080 C   0  0  0  0  0  0  0  0  0  0  0  0
  141.0590   70.5120  226.9430 C   0  0  0  0  0  0  0  0  0  0  0  0
  140.4120   70.3950  225.7070 C   0  0  0  0  0  0  0  0  0  0  0  0
  139.6510   69.2940  225.4100 C   0  0  0  0  0  0  0  0  0  0  0  0
  139.5390   68.3020  226.3680 C   0  0  0  0  0  0  0  0  0  0  0  0
  138.9400   69.1020  224.1200 C   0  0  0  0  0  0  0  0  0  0  0  0
  138.8060   70.4770  223.4860 C   0  0  0  0  0  0  0  0  0  0  0  0
  140.2100   71.0330  223.3800 C   0  0  1  0  0  0  0  0  0  0  0  0
  140.3030   72.1030  222.3680 C   0  0  0  0  0  0  0  0  0  0  0  0
  140.5870   71.8530  221.0650 N   0  0  0  0  0  0  0  0  0  0  0  0
  140.6690   72.8670  220.1590 C   0  0  0  0  0  0  0  0  0  0  0  0
  140.9680   72.6060  218.7930 N   0  0  0  0  0  0  0  0  0  0  0  0
  141.3140   73.7030  217.8760 C   0  0  0  0  0  0  0  0  0  0  0  0
  142.8250   73.5600  217.6470 C   0  0  0  0  0  0  0  0  0  0  0  0
  143.4620   73.6060  218.8710 N   0  0  0  0  0  0  0  0  0  0  0  0
  143.6810   74.7830  219.5860 C   0  0  0  0  0  0  0  0  0  0  0  0
  144.8640   74.4820  220.4820 C   0  0  0  0  0  0  0  0  0  0  0  0
  144.7180   72.9910  220.7460 C   0  0  0  0  0  0  0  0  0  0  0  0
  144.1840   72.5150  219.3940 C   0  0  0  0  0  0  0  0  0  0  0  0
  140.4660   74.1350  220.5500 N   0  0  0  0  0  0  0  0  0  0  0  0
  140.1810   74.4050  221.8420 C   0  0  0  0  0  0  0  0  0  0  0  0
  139.9590   75.7300  222.3200 N   0  0  0  0  0  0  0  0  0  0  0  0
  138.6050   76.2080  222.6440 C   0  0  0  0  0  0  0  0  0  0  0  0
  138.3600   77.4610  221.7890 C   0  0  0  0  0  0  0  0  0  0  0  0
  139.3360   78.4650  222.3490 C   0  0  0  0  0  0  0  0  0  0  0  0
  138.9350   79.7880  222.5260 C   0  0  0  0  0  0  0  0  0  0  0  0
  139.8860   80.6570  223.0490 C   0  0  0  0  0  0  0  0  0  0  0  0
  141.1620   80.2550  223.3810 C   0  0  0  0  0  0  0  0  0  0  0  0
  141.5370   78.9370  223.1980 C   0  0  0  0  0  0  0  0  0  0  0  0
  140.6040   78.0400  222.6740 C   0  0  0  0  0  0  0  0  0  0  0  0
  141.0740   76.6420  222.5040 C   0  0  0  0  0  0  0  0  0  0  0  0
  140.1060   73.3830  222.7190 N   0  0  0  0  0  0  0  0  0  0  0  0
  140.5990   71.5140  224.7600 C   0  0  0  0  0  0  0  0  0  0  0  0
  140.0694   67.6153  228.3278 H   0  0  0  0  0  0  0  0  0  0  0  0
  141.4562   69.6068  228.8814 H   0  0  0  0  0  0  0  0  0  0  0  0
  141.6642   71.4062  227.1529 H   0  0  0  0  0  0  0  0  0  0  0  0
  138.9341   67.4079  226.1568 H   0  0  0  0  0  0  0  0  0  0  0  0
  139.5195   68.4366  223.4632 H   0  0  0  0  0  0  0  0  0  0  0  0
  137.9537   68.6408  224.2767 H   0  0  0  0  0  0  0  0  0  0  0  0
  138.3527   70.3936  222.4872 H   0  0  0  0  0  0  0  0  0  0  0  0
  138.1596   71.1337  224.0868 H   0  0  0  0  0  0  0  0  0  0  0  0
  140.9089   70.2552  223.0385 H   0  0  0  0  0  0  0  0  0  0  0  0
  140.9370   71.6270  218.4510 H   0  0  0  0  0  0  0  0  0  0  0  0
  140.7669   73.6021  216.9271 H   0  0  0  0  0  0  0  0  0  0  0  0
  141.0475   74.6879  218.2872 H   0  0  0  0  0  0  0  0  0  0  0  0
  143.0360   72.5989  217.1552 H   0  0  0  0  0  0  0  0  0  0  0  0
  143.1867   74.3760  217.0041 H   0  0  0  0  0  0  0  0  0  0  0  0
  143.9146   75.6128  218.9027 H   0  0  0  0  0  0  0  0  0  0  0  0
  142.7943   75.0888  220.1607 H   0  0  0  0  0  0  0  0  0  0  0  0
  145.8133   74.7027  219.9720 H   0  0  0  0  0  0  0  0  0  0  0  0
  144.8788   75.0869  221.4006 H   0  0  0  0  0  0  0  0  0  0  0  0
  145.6851   72.5253  220.9866 H   0  0  0  0  0  0  0  0  0  0  0  0
  144.0774   72.7397  221.6042 H   0  0  0  0  0  0  0  0  0  0  0  0
  145.0150   72.2473  218.7248 H   0  0  0  0  0  0  0  0  0  0  0  0
  143.5541   71.6190  219.4958 H   0  0  0  0  0  0  0  0  0  0  0  0
  137.8621   75.4335  222.4024 H   0  0  0  0  0  0  0  0  0  0  0  0
  138.5135   76.4375  223.7159 H   0  0  0  0  0  0  0  0  0  0  0  0
  138.5682   77.2598  220.7278 H   0  0  0  0  0  0  0  0  0  0  0  0
  137.3173   77.8092  221.8277 H   0  0  0  0  0  0  0  0  0  0  0  0
  137.9211   80.1263  222.2660 H   0  0  0  0  0  0  0  0  0  0  0  0
  139.6084   81.7100  223.2044 H   0  0  0  0  0  0  0  0  0  0  0  0
  141.8799   80.9809  223.7904 H   0  0  0  0  0  0  0  0  0  0  0  0
  142.5512   78.6013  223.4602 H   0  0  0  0  0  0  0  0  0  0  0  0
  141.7297   76.5890  221.6224 H   0  0  0  0  0  0  0  0  0  0  0  0
  141.6191   76.3457  223.4123 H   0  0  0  0  0  0  0  0  0  0  0  0
  141.6523   71.8310  224.7610 H   0  0  0  0  0  0  0  0  0  0  0  0
  139.9747   72.3704  225.0546 H   0  0  0  0  0  0  0  0  0  0  0  0
  1  2  2  0
  2  3  1  0
  3  4  2  0
  4  5  1  0
  5  6  2  0
  5  7  1  0
  7  8  1  0
  8  9  1  0
  9 10  1  0
 10 11  2  0
 11 12  1  0
 12 13  1  0
 13 14  1  0
 14 15  1  0
 15 16  1  0
 16 17  1  0
 17 18  1  0
 18 19  1  0
 19 20  1  0
 12 21  2  0
 21 22  1  0
 22 23  1  0
 23 24  1  0
 24 25  1  0
 25 26  1  0
 26 27  2  0
 27 28  1  0
 28 29  2  0
 29 30  1  0
 30 31  2  0
 31 32  1  0
 22 33  2  0
  9 34  1  0
  6  1  1  0
 33 10  1  0
 34  4  1  0
 20 16  1  0
 32 23  1  0
 31 26  1  0
  1 35  1  0
  2 36  1  0
  3 37  1  0
  6 38  1  0
  7 39  1  0
  7 40  1  0
  8 41  1  0
  8 42  1  0
  9 43  1  6
 13 44  1  0
 14 45  1  0
 14 46  1  0
 15 47  1  0
 15 48  1  0
 17 49  1  0
 17 50  1  0
 18 51  1  0
 18 52  1  0
 19 53  1  0
 19 54  1  0
 20 55  1  0
 20 56  1  0
 24 57  1  0
 24 58  1  0
 25 59  1  0
 25 60  1  0
 27 61  1  0
 28 62  1  0
 29 63  1  0
 30 64  1  0
 32 65  1  0
 32 66  1  0
 34 67  1  0
 34 68  1  0
M  END
>  <smiles>  (71) 
c1ccc2c(c1)CCC(c1nc(NCCN3CCCC3)nc(N3CCc4ccccc4C3)n1)C2

>  <score_type>  (71) 
oracle

>  <origin>  (71) 
autodockgpu

>  <m_score__min__energy>  (71) 
-9.8699999999999992

>  <m_primary>  (71) 
energy

>  <rmsd>  (71) 
5.124033031855602

>  <m_score__min__rmsd>  (71) 
5.124033031855602

>  <meeko>  (71) 
{"free_energy": -9.16, "intermolecular_energy": -10.95, "internal_energy": -1.71, "cluster_size": 47, "cluster_id": 2, "rank_in_cluster": 19}

>  <energy>  (71) 
-9.16

>  <cluster_rmsd>  (71) 
0.99

>  <cluster>  (71) 
2

$$$$

     RDKit          3D

 68 73  0  0  0  0  0  0  0  0999 V2000
  140.0270   68.3290  227.2620 C   0  0  0  0  0  0  0  0  0  0  0  0
  140.8950   69.3500  227.5960 C   0  0  0  0  0  0  0  0  0  0  0  0
  141.0330   70.3810  226.6760 C   0  0  0  0  0  0  0  0  0  0  0  0
  140.3210   70.3780  225.4710 C   0  0  0  0  0  0  0  0  0  0  0  0
  139.4640   69.3540  225.1600 C   0  0  0  0  0  0  0  0  0  0  0  0
  139.3220   68.3220  226.0720 C   0  0  0  0  0  0  0  0  0  0  0  0
  138.6800   69.2830  223.9000 C   0  0  0  0  0  0  0  0  0  0  0  0
  138.6220   70.6960  223.3430 C   0  0  0  0  0  0  0  0  0  0  0  0
  140.0570   71.1520  223.1930 C   0  0  1  0  0  0  0  0  0  0  0  0
  140.1840   72.2650  222.2310 C   0  0  0  0  0  0  0  0  0  0  0  0
  140.4680   72.0670  220.9190 N   0  0  0  0  0  0  0  0  0  0  0  0
  140.5810   73.1190  220.0610 C   0  0  0  0  0  0  0  0  0  0  0  0
  140.8810   72.9140  218.6860 N   0  0  0  0  0  0  0  0  0  0  0  0
  141.5190   73.9730  217.8890 C   0  0  0  0  0  0  0  0  0  0  0  0
  142.9720   73.5080  217.7120 C   0  0  0  0  0  0  0  0  0  0  0  0
  143.5690   73.4490  218.9560 N   0  0  0  0  0  0  0  0  0  0  0  0
  143.8830   74.5730  219.7190 C   0  0  0  0  0  0  0  0  0  0  0  0
  144.9990   74.1230  220.6390 C   0  0  0  0  0  0  0  0  0  0  0  0
  144.6920   72.6470  220.8450 C   0  0  0  0  0  0  0  0  0  0  0  0
  144.1580   72.2730  219.4610 C   0  0  0  0  0  0  0  0  0  0  0  0
  140.4090   74.3730  220.5090 N   0  0  0  0  0  0  0  0  0  0  0  0
  140.1250   74.5910  221.8110 C   0  0  0  0  0  0  0  0  0  0  0  0
  139.9350   75.8980  222.3500 N   0  0  0  0  0  0  0  0  0  0  0  0
  138.5950   76.3840  222.7160 C   0  0  0  0  0  0  0  0  0  0  0  0
  138.3580   77.6770  221.9200 C   0  0  0  0  0  0  0  0  0  0  0  0
  139.3610   78.6400  222.5050 C   0  0  0  0  0  0  0  0  0  0  0  0
  138.9880   79.9610  222.7450 C   0  0  0  0  0  0  0  0  0  0  0  0
  139.9620   80.7890  223.2880 C   0  0  0  0  0  0  0  0  0  0  0  0
  141.2370   80.3510  223.5800 C   0  0  0  0  0  0  0  0  0  0  0  0
  141.5840   79.0370  223.3350 C   0  0  0  0  0  0  0  0  0  0  0  0
  140.6270   78.1780  222.7900 C   0  0  0  0  0  0  0  0  0  0  0  0
  141.0690   76.7810  222.5520 C   0  0  0  0  0  0  0  0  0  0  0  0
  140.0180   73.5320  222.6400 N   0  0  0  0  0  0  0  0  0  0  0  0
  140.5480   71.5280  224.5730 C   0  0  0  0  0  0  0  0  0  0  0  0
  139.8919   67.4941  227.9653 H   0  0  0  0  0  0  0  0  0  0  0  0
  141.4505   69.3467  228.5454 H   0  0  0  0  0  0  0  0  0  0  0  0
  141.7144   71.2154  226.8984 H   0  0  0  0  0  0  0  0  0  0  0  0
  138.6412   67.4876  225.8478 H   0  0  0  0  0  0  0  0  0  0  0  0
  139.1752   68.6124  223.1823 H   0  0  0  0  0  0  0  0  0  0  0  0
  137.6700   68.8877  224.0835 H   0  0  0  0  0  0  0  0  0  0  0  0
  138.1169   70.6999  222.3658 H   0  0  0  0  0  0  0  0  0  0  0  0
  138.0570   71.3654  224.0084 H   0  0  0  0  0  0  0  0  0  0  0  0
  140.6769   70.3437  222.7777 H   0  0  0  0  0  0  0  0  0  0  0  0
  140.6400   72.0030  218.2510 H   0  0  0  0  0  0  0  0  0  0  0  0
  141.0230   74.0753  216.9125 H   0  0  0  0  0  0  0  0  0  0  0  0
  141.4540   74.9567  218.3770 H   0  0  0  0  0  0  0  0  0  0  0  0
  142.9884   72.5121  217.2452 H   0  0  0  0  0  0  0  0  0  0  0  0
  143.5166   74.2125  217.0662 H   0  0  0  0  0  0  0  0  0  0  0  0
  144.2226   75.3961  219.0732 H   0  0  0  0  0  0  0  0  0  0  0  0
  143.0133   74.9492  220.2777 H   0  0  0  0  0  0  0  0  0  0  0  0
  145.9824   74.2608  220.1658 H   0  0  0  0  0  0  0  0  0  0  0  0
  145.0454   74.6933  221.5785 H   0  0  0  0  0  0  0  0  0  0  0  0
  145.5975   72.0761  221.0980 H   0  0  0  0  0  0  0  0  0  0  0  0
  144.0004   72.4357  221.6738 H   0  0  0  0  0  0  0  0  0  0  0  0
  144.9794   71.9431  218.8080 H   0  0  0  0  0  0  0  0  0  0  0  0
  143.4369   71.4439  219.5115 H   0  0  0  0  0  0  0  0  0  0  0  0
  137.8352   75.6332  222.4534 H   0  0  0  0  0  0  0  0  0  0  0  0
  138.5244   76.5685  223.7981 H   0  0  0  0  0  0  0  0  0  0  0  0
  138.5446   77.5183  220.8476 H   0  0  0  0  0  0  0  0  0  0  0  0
  137.3224   78.0408  221.9924 H   0  0  0  0  0  0  0  0  0  0  0  0
  137.9766   80.3283  222.5167 H   0  0  0  0  0  0  0  0  0  0  0  0
  139.7057   81.8387  223.4939 H   0  0  0  0  0  0  0  0  0  0  0  0
  141.9750   81.0462  224.0067 H   0  0  0  0  0  0  0  0  0  0  0  0
  142.5963   78.6733  223.5650 H   0  0  0  0  0  0  0  0  0  0  0  0
  141.7080   76.7546  221.6570 H   0  0  0  0  0  0  0  0  0  0  0  0
  141.6250   76.4365  223.4364 H   0  0  0  0  0  0  0  0  0  0  0  0
  141.6215   71.7648  224.5349 H   0  0  0  0  0  0  0  0  0  0  0  0
  140.0067   72.4117  224.9419 H   0  0  0  0  0  0  0  0  0  0  0  0
  1  2  2  0
  2  3  1  0
  3  4  2  0
  4  5  1  0
  5  6  2  0
  5  7  1  0
  7  8  1  0
  8  9  1  0
  9 10  1  0
 10 11  2  0
 11 12  1  0
 12 13  1  0
 13 14  1  0
 14 15  1  0
 15 16  1  0
 16 17  1  0
 17 18  1  0
 18 19  1  0
 19 20  1  0
 12 21  2  0
 21 22  1  0
 22 23  1  0
 23 24  1  0
 24 25  1  0
 25 26  1  0
 26 27  2  0
 27 28  1  0
 28 29  2  0
 29 30  1  0
 30 31  2  0
 31 32  1  0
 22 33  2  0
  9 34  1  0
  6  1  1  0
 33 10  1  0
 34  4  1  0
 20 16  1  0
 32 23  1  0
 31 26  1  0
  1 35  1  0
  2 36  1  0
  3 37  1  0
  6 38  1  0
  7 39  1  0
  7 40  1  0
  8 41  1  0
  8 42  1  0
  9 43  1  6
 13 44  1  0
 14 45  1  0
 14 46  1  0
 15 47  1  0
 15 48  1  0
 17 49  1  0
 17 50  1  0
 18 51  1  0
 18 52  1  0
 19 53  1  0
 19 54  1  0
 20 55  1  0
 20 56  1  0
 24 57  1  0
 24 58  1  0
 25 59  1  0
 25 60  1  0
 27 61  1  0
 28 62  1  0
 29 63  1  0
 30 64  1  0
 32 65  1  0
 32 66  1  0
 34 67  1  0
 34 68  1  0
M  END
>  <smiles>  (72) 
c1ccc2c(c1)CCC(c1nc(NCCN3CCCC3)nc(N3CCc4ccccc4C3)n1)C2

>  <score_type>  (72) 
oracle

>  <origin>  (72) 
autodockgpu

>  <m_score__min__energy>  (72) 
-9.8699999999999992

>  <m_primary>  (72) 
energy

>  <rmsd>  (72) 
5.302285926202041

>  <m_score__min__rmsd>  (72) 
5.302285926202041

>  <meeko>  (72) 
{"free_energy": -9.17, "intermolecular_energy": -10.96, "internal_energy": -1.67, "cluster_size": 47, "cluster_id": 2, "rank_in_cluster": 17}

>  <energy>  (72) 
-9.16

>  <cluster_rmsd>  (72) 
0.65

>  <cluster>  (72) 
2

$$$$

     RDKit          3D

 68 73  0  0  0  0  0  0  0  0999 V2000
  140.5870   80.8070  223.7660 C   0  0  0  0  0  0  0  0  0  0  0  0
  141.8640   80.3520  223.5040 C   0  0  0  0  0  0  0  0  0  0  0  0
  141.9750   79.0760  222.9680 C   0  0  0  0  0  0  0  0  0  0  0  0
  140.8420   78.2960  222.7070 C   0  0  0  0  0  0  0  0  0  0  0  0
  139.5840   78.7690  222.9760 C   0  0  0  0  0  0  0  0  0  0  0  0
  139.4650   80.0400  223.5110 C   0  0  0  0  0  0  0  0  0  0  0  0
  138.3380   77.9980  222.7290 C   0  0  0  0  0  0  0  0  0  0  0  0
  138.6890   76.9140  221.7220 C   0  0  0  0  0  0  0  0  0  0  0  0
  139.8340   76.1290  222.3260 C   0  0  1  0  0  0  0  0  0  0  0  0
  139.9550   74.7850  221.7270 C   0  0  0  0  0  0  0  0  0  0  0  0
  140.0320   74.5880  220.3870 N   0  0  0  0  0  0  0  0  0  0  0  0
  140.1390   73.3330  219.8690 C   0  0  0  0  0  0  0  0  0  0  0  0
  140.2190   73.1240  218.4640 N   0  0  0  0  0  0  0  0  0  0  0  0
  141.4990   72.7870  217.8250 C   0  0  0  0  0  0  0  0  0  0  0  0
  142.4040   73.9970  218.0960 C   0  0  0  0  0  0  0  0  0  0  0  0
  143.1800   73.7260  219.2060 N   0  0  0  0  0  0  0  0  0  0  0  0
  143.8190   74.7080  219.9610 C   0  0  0  0  0  0  0  0  0  0  0  0
  144.9710   73.9940  220.6380 C   0  0  0  0  0  0  0  0  0  0  0  0
  144.4360   72.5810  220.8130 C   0  0  0  0  0  0  0  0  0  0  0  0
  143.6180   72.4270  219.5290 C   0  0  0  0  0  0  0  0  0  0  0  0
  140.1710   72.2690  220.6870 N   0  0  0  0  0  0  0  0  0  0  0  0
  140.0970   72.4440  222.0240 C   0  0  0  0  0  0  0  0  0  0  0  0
  140.1220   71.3560  222.9450 N   0  0  0  0  0  0  0  0  0  0  0  0
  139.5690   70.0400  222.5870 C   0  0  0  0  0  0  0  0  0  0  0  0
  138.4990   69.7060  223.6390 C   0  0  0  0  0  0  0  0  0  0  0  0
  139.2970   69.5270  224.9070 C   0  0  0  0  0  0  0  0  0  0  0  0
  138.9780   68.4880  225.7790 C   0  0  0  0  0  0  0  0  0  0  0  0
  139.7570   68.3840  226.9250 C   0  0  0  0  0  0  0  0  0  0  0  0
  140.7920   69.2490  227.2060 C   0  0  0  0  0  0  0  0  0  0  0  0
  141.0910   70.2720  226.3260 C   0  0  0  0  0  0  0  0  0  0  0  0
  140.3270   70.4040  225.1650 C   0  0  0  0  0  0  0  0  0  0  0  0
  140.7020   71.5240  224.2660 C   0  0  0  0  0  0  0  0  0  0  0  0
  139.9910   73.6970  222.5110 N   0  0  0  0  0  0  0  0  0  0  0  0
  141.0850   76.9570  222.1350 C   0  0  0  0  0  0  0  0  0  0  0  0
  140.4579   81.8130  224.1917 H   0  0  0  0  0  0  0  0  0  0  0  0
  142.7502   80.9703  223.7099 H   0  0  0  0  0  0  0  0  0  0  0  0
  142.9725   78.6700  222.7441 H   0  0  0  0  0  0  0  0  0  0  0  0
  138.4670   80.4444  223.7358 H   0  0  0  0  0  0  0  0  0  0  0  0
  137.9805   77.5446  223.6653 H   0  0  0  0  0  0  0  0  0  0  0  0
  137.5380   78.6494  222.3473 H   0  0  0  0  0  0  0  0  0  0  0  0
  137.8236   76.2564  221.5528 H   0  0  0  0  0  0  0  0  0  0  0  0
  138.9689   77.3462  220.7500 H   0  0  0  0  0  0  0  0  0  0  0  0
  139.6581   75.9499  223.3970 H   0  0  0  0  0  0  0  0  0  0  0  0
  139.3560   73.2140  217.8940 H   0  0  0  0  0  0  0  0  0  0  0  0
  141.9262   71.8763  218.2701 H   0  0  0  0  0  0  0  0  0  0  0  0
  141.3856   72.5863  216.7494 H   0  0  0  0  0  0  0  0  0  0  0  0
  143.0521   74.1776  217.2257 H   0  0  0  0  0  0  0  0  0  0  0  0
  141.7910   74.8926  218.2751 H   0  0  0  0  0  0  0  0  0  0  0  0
  144.1916   75.5137  219.3114 H   0  0  0  0  0  0  0  0  0  0  0  0
  143.1398   75.1780  220.6875 H   0  0  0  0  0  0  0  0  0  0  0  0
  145.8696   74.0016  220.0036 H   0  0  0  0  0  0  0  0  0  0  0  0
  145.2784   74.4634  221.5841 H   0  0  0  0  0  0  0  0  0  0  0  0
  145.2500   71.8430  220.8661 H   0  0  0  0  0  0  0  0  0  0  0  0
  143.8660   72.4199  221.7399 H   0  0  0  0  0  0  0  0  0  0  0  0
  144.2434   72.0197  218.7209 H   0  0  0  0  0  0  0  0  0  0  0  0
  142.7753   71.7326  219.6619 H   0  0  0  0  0  0  0  0  0  0  0  0
  139.1159   70.0795  221.5855 H   0  0  0  0  0  0  0  0  0  0  0  0
  140.3571   69.2728  222.5686 H   0  0  0  0  0  0  0  0  0  0  0  0
  137.7774   70.5299  223.7414 H   0  0  0  0  0  0  0  0  0  0  0  0
  137.9035   68.8187  223.3782 H   0  0  0  0  0  0  0  0  0  0  0  0
  138.1547   67.7885  225.5716 H   0  0  0  0  0  0  0  0  0  0  0  0
  139.5379   67.5762  227.6387 H   0  0  0  0  0  0  0  0  0  0  0  0
  141.3788   69.1257  228.1282 H   0  0  0  0  0  0  0  0  0  0  0  0
  141.9155   70.9691  226.5365 H   0  0  0  0  0  0  0  0  0  0  0  0
  140.3398   72.4681  224.6991 H   0  0  0  0  0  0  0  0  0  0  0  0
  141.7973   71.5374  224.1656 H   0  0  0  0  0  0  0  0  0  0  0  0
  141.9306   76.4791  222.6513 H   0  0  0  0  0  0  0  0  0  0  0  0
  141.3278   77.0385  221.0652 H   0  0  0  0  0  0  0  0  0  0  0  0
  1  2  2  0
  2  3  1  0
  3  4  2  0
  4  5  1  0
  5  6  2  0
  5  7  1  0
  7  8  1  0
  8  9  1  0
  9 10  1  0
 10 11  2  0
 11 12  1  0
 12 13  1  0
 13 14  1  0
 14 15  1  0
 15 16  1  0
 16 17  1  0
 17 18  1  0
 18 19  1  0
 19 20  1  0
 12 21  2  0
 21 22  1  0
 22 23  1  0
 23 24  1  0
 24 25  1  0
 25 26  1  0
 26 27  2  0
 27 28  1  0
 28 29  2  0
 29 30  1  0
 30 31  2  0
 31 32  1  0
 22 33  2  0
  9 34  1  0
  6  1  1  0
 33 10  1  0
 34  4  1  0
 20 16  1  0
 32 23  1  0
 31 26  1  0
  1 35  1  0
  2 36  1  0
  3 37  1  0
  6 38  1  0
  7 39  1  0
  7 40  1  0
  8 41  1  0
  8 42  1  0
  9 43  1  1
 13 44  1  0
 14 45  1  0
 14 46  1  0
 15 47  1  0
 15 48  1  0
 17 49  1  0
 17 50  1  0
 18 51  1  0
 18 52  1  0
 19 53  1  0
 19 54  1  0
 20 55  1  0
 20 56  1  0
 24 57  1  0
 24 58  1  0
 25 59  1  0
 25 60  1  0
 27 61  1  0
 28 62  1  0
 29 63  1  0
 30 64  1  0
 32 65  1  0
 32 66  1  0
 34 67  1  0
 34 68  1  0
M  END
>  <smiles>  (73) 
c1ccc2c(c1)CCC(c1nc(NCCN3CCCC3)nc(N3CCc4ccccc4C3)n1)C2

>  <score_type>  (73) 
oracle

>  <origin>  (73) 
autodockgpu

>  <m_score__min__energy>  (73) 
-9.8699999999999992

>  <m_primary>  (73) 
energy

>  <rmsd>  (73) 
5.174896876535563

>  <m_score__min__rmsd>  (73) 
5.174896876535563

>  <meeko>  (73) 
{"free_energy": -9.11, "intermolecular_energy": -10.9, "internal_energy": -1.77, "cluster_size": 47, "cluster_id": 2, "rank_in_cluster": 24}

>  <energy>  (73) 
-9.16

>  <cluster_rmsd>  (73) 
1.11

>  <cluster>  (73) 
2

$$$$

     RDKit          3D

 68 73  0  0  0  0  0  0  0  0999 V2000
  140.6240   80.7420  223.6290 C   0  0  0  0  0  0  0  0  0  0  0  0
  141.8950   80.2150  223.5050 C   0  0  0  0  0  0  0  0  0  0  0  0
  141.9880   78.9100  223.0410 C   0  0  0  0  0  0  0  0  0  0  0  0
  140.8450   78.1720  222.7140 C   0  0  0  0  0  0  0  0  0  0  0  0
  139.5930   78.7160  222.8450 C   0  0  0  0  0  0  0  0  0  0  0  0
  139.4920   80.0170  223.3090 C   0  0  0  0  0  0  0  0  0  0  0  0
  138.3370   77.9920  222.5210 C   0  0  0  0  0  0  0  0  0  0  0  0
  138.7200   76.8440  221.6010 C   0  0  0  0  0  0  0  0  0  0  0  0
  139.7650   76.0380  222.3420 C   0  0  1  0  0  0  0  0  0  0  0  0
  139.8700   74.6610  221.8190 C   0  0  0  0  0  0  0  0  0  0  0  0
  139.8950   74.3860  220.4900 N   0  0  0  0  0  0  0  0  0  0  0  0
  139.9890   73.1020  220.0430 C   0  0  0  0  0  0  0  0  0  0  0  0
  140.0150   72.8110  218.6510 N   0  0  0  0  0  0  0  0  0  0  0  0
  141.1110   73.2970  217.8010 C   0  0  0  0  0  0  0  0  0  0  0  0
  140.7810   74.7740  217.5410 C   0  0  0  0  0  0  0  0  0  0  0  0
  141.5520   75.5520  218.3830 N   0  0  0  0  0  0  0  0  0  0  0  0
  141.2620   76.8820  218.6870 C   0  0  0  0  0  0  0  0  0  0  0  0
  142.5890   77.4870  219.0980 C   0  0  0  0  0  0  0  0  0  0  0  0
  143.3240   76.3040  219.7110 C   0  0  0  0  0  0  0  0  0  0  0  0
  142.8390   75.1690  218.8060 C   0  0  0  0  0  0  0  0  0  0  0  0
  140.0590   72.0890  220.9210 N   0  0  0  0  0  0  0  0  0  0  0  0
  140.0370   72.3420  222.2470 C   0  0  0  0  0  0  0  0  0  0  0  0
  140.1040   71.3100  223.2290 N   0  0  0  0  0  0  0  0  0  0  0  0
  139.5790   69.9620  222.9570 C   0  0  0  0  0  0  0  0  0  0  0  0
  138.5360   69.6640  224.0440 C   0  0  0  0  0  0  0  0  0  0  0  0
  139.3570   69.5790  225.3070 C   0  0  0  0  0  0  0  0  0  0  0  0
  139.0790   68.5850  226.2430 C   0  0  0  0  0  0  0  0  0  0  0  0
  139.8780   68.5660  227.3790 C   0  0  0  0  0  0  0  0  0  0  0  0
  140.8950   69.4720  227.5930 C   0  0  0  0  0  0  0  0  0  0  0  0
  141.1530   70.4490  226.6500 C   0  0  0  0  0  0  0  0  0  0  0  0
  140.3680   70.4940  225.4960 C   0  0  0  0  0  0  0  0  0  0  0  0
  140.7000   71.5700  224.5280 C   0  0  0  0  0  0  0  0  0  0  0  0
  139.9430   73.6220  222.6630 N   0  0  0  0  0  0  0  0  0  0  0  0
  141.0690   76.7960  222.2280 C   0  0  0  0  0  0  0  0  0  0  0  0
  140.5093   81.7731  223.9946 H   0  0  0  0  0  0  0  0  0  0  0  0
  142.7899   80.8010  223.7615 H   0  0  0  0  0  0  0  0  0  0  0  0
  142.9795   78.4471  222.9282 H   0  0  0  0  0  0  0  0  0  0  0  0
  138.5000   80.4781  223.4241 H   0  0  0  0  0  0  0  0  0  0  0  0
  137.8755   77.6031  223.4406 H   0  0  0  0  0  0  0  0  0  0  0  0
  137.6083   78.6599  222.0384 H   0  0  0  0  0  0  0  0  0  0  0  0
  137.8406   76.2199  221.3839 H   0  0  0  0  0  0  0  0  0  0  0  0
  139.1067   77.2133  220.6397 H   0  0  0  0  0  0  0  0  0  0  0  0
  139.4857   75.9216  223.3996 H   0  0  0  0  0  0  0  0  0  0  0  0
  139.2440   72.2490  218.2430 H   0  0  0  0  0  0  0  0  0  0  0  0
  142.0759   73.2012  218.3205 H   0  0  0  0  0  0  0  0  0  0  0  0
  141.1994   72.7210  216.8680 H   0  0  0  0  0  0  0  0  0  0  0  0
  141.0063   75.0255  216.4941 H   0  0  0  0  0  0  0  0  0  0  0  0
  139.7134   74.9597  217.7299 H   0  0  0  0  0  0  0  0  0  0  0  0
  140.8567   77.4008  217.8058 H   0  0  0  0  0  0  0  0  0  0  0  0
  140.5041   76.9696  219.4794 H   0  0  0  0  0  0  0  0  0  0  0  0
  143.1314   77.8818  218.2262 H   0  0  0  0  0  0  0  0  0  0  0  0
  142.4846   78.3387  219.7863 H   0  0  0  0  0  0  0  0  0  0  0  0
  144.4152   76.4305  219.6531 H   0  0  0  0  0  0  0  0  0  0  0  0
  143.1275   76.1496  220.7822 H   0  0  0  0  0  0  0  0  0  0  0  0
  143.5094   75.0527  217.9417 H   0  0  0  0  0  0  0  0  0  0  0  0
  142.8260   74.2032  219.3324 H   0  0  0  0  0  0  0  0  0  0  0  0
  139.1090   69.9322  221.9629 H   0  0  0  0  0  0  0  0  0  0  0  0
  140.3859   69.2145  222.9689 H   0  0  0  0  0  0  0  0  0  0  0  0
  137.7951   70.4744  224.1106 H   0  0  0  0  0  0  0  0  0  0  0  0
  137.9601   68.7481  223.8452 H   0  0  0  0  0  0  0  0  0  0  0  0
  138.2705   67.8548  226.0905 H   0  0  0  0  0  0  0  0  0  0  0  0
  139.6913   67.7948  228.1408 H   0  0  0  0  0  0  0  0  0  0  0  0
  141.4988   69.4175  228.5108 H   0  0  0  0  0  0  0  0  0  0  0  0
  141.9620   71.1779  226.8057 H   0  0  0  0  0  0  0  0  0  0  0  0
  140.3197   72.5281  224.9120 H   0  0  0  0  0  0  0  0  0  0  0  0
  141.7929   71.6064  224.4089 H   0  0  0  0  0  0  0  0  0  0  0  0
  141.8400   76.3054  222.8403 H   0  0  0  0  0  0  0  0  0  0  0  0
  141.4095   76.8125  221.1822 H   0  0  0  0  0  0  0  0  0  0  0  0
  1  2  2  0
  2  3  1  0
  3  4  2  0
  4  5  1  0
  5  6  2  0
  5  7  1  0
  7  8  1  0
  8  9  1  0
  9 10  1  0
 10 11  2  0
 11 12  1  0
 12 13  1  0
 13 14  1  0
 14 15  1  0
 15 16  1  0
 16 17  1  0
 17 18  1  0
 18 19  1  0
 19 20  1  0
 12 21  2  0
 21 22  1  0
 22 23  1  0
 23 24  1  0
 24 25  1  0
 25 26  1  0
 26 27  2  0
 27 28  1  0
 28 29  2  0
 29 30  1  0
 30 31  2  0
 31 32  1  0
 22 33  2  0
  9 34  1  0
  6  1  1  0
 33 10  1  0
 34  4  1  0
 20 16  1  0
 32 23  1  0
 31 26  1  0
  1 35  1  0
  2 36  1  0
  3 37  1  0
  6 38  1  0
  7 39  1  0
  7 40  1  0
  8 41  1  0
  8 42  1  0
  9 43  1  1
 13 44  1  0
 14 45  1  0
 14 46  1  0
 15 47  1  0
 15 48  1  0
 17 49  1  0
 17 50  1  0
 18 51  1  0
 18 52  1  0
 19 53  1  0
 19 54  1  0
 20 55  1  0
 20 56  1  0
 24 57  1  0
 24 58  1  0
 25 59  1  0
 25 60  1  0
 27 61  1  0
 28 62  1  0
 29 63  1  0
 30 64  1  0
 32 65  1  0
 32 66  1  0
 34 67  1  0
 34 68  1  0
M  END
>  <smiles>  (74) 
c1ccc2c(c1)CCC(c1nc(NCCN3CCCC3)nc(N3CCc4ccccc4C3)n1)C2

>  <score_type>  (74) 
oracle

>  <origin>  (74) 
autodockgpu

>  <m_score__min__energy>  (74) 
-9.8699999999999992

>  <m_primary>  (74) 
energy

>  <rmsd>  (74) 
3.77015140495136

>  <m_score__min__rmsd>  (74) 
3.77015140495136

>  <meeko>  (74) 
{"free_energy": -8.65, "intermolecular_energy": -10.44, "internal_energy": -2.06, "cluster_size": 47, "cluster_id": 2, "rank_in_cluster": 41}

>  <energy>  (74) 
-9.13

>  <cluster_rmsd>  (74) 
0.65

>  <cluster>  (74) 
2

$$$$

     RDKit          3D

 68 73  0  0  0  0  0  0  0  0999 V2000
  140.3640   68.5040  227.5140 C   0  0  0  0  0  0  0  0  0  0  0  0
  140.9940   69.6910  227.8300 C   0  0  0  0  0  0  0  0  0  0  0  0
  140.9730   70.6870  226.8640 C   0  0  0  0  0  0  0  0  0  0  0  0
  140.3410   70.4900  225.6310 C   0  0  0  0  0  0  0  0  0  0  0  0
  139.7210   69.3030  225.3390 C   0  0  0  0  0  0  0  0  0  0  0  0
  139.7370   68.3040  226.2970 C   0  0  0  0  0  0  0  0  0  0  0  0
  139.0330   69.0230  224.0520 C   0  0  0  0  0  0  0  0  0  0  0  0
  138.7260   70.3700  223.4190 C   0  0  0  0  0  0  0  0  0  0  0  0
  140.0490   71.0970  223.3060 C   0  0  1  0  0  0  0  0  0  0  0  0
  140.0030   72.1700  222.2940 C   0  0  0  0  0  0  0  0  0  0  0  0
  140.0200   71.9170  220.9610 N   0  0  0  0  0  0  0  0  0  0  0  0
  139.9800   72.9330  220.0540 C   0  0  0  0  0  0  0  0  0  0  0  0
  139.9990   72.6700  218.6570 N   0  0  0  0  0  0  0  0  0  0  0  0
  141.2610   72.3700  217.9650 C   0  0  0  0  0  0  0  0  0  0  0  0
  142.0610   73.6780  218.0220 C   0  0  0  0  0  0  0  0  0  0  0  0
  142.8740   73.6490  219.1380 N   0  0  0  0  0  0  0  0  0  0  0  0
  143.3610   74.7920  219.7720 C   0  0  0  0  0  0  0  0  0  0  0  0
  144.6100   74.3360  220.4970 C   0  0  0  0  0  0  0  0  0  0  0  0
  144.2960   72.8860  220.8320 C   0  0  0  0  0  0  0  0  0  0  0  0
  143.5050   72.4730  219.5890 C   0  0  0  0  0  0  0  0  0  0  0  0
  139.9220   74.2070  220.4760 N   0  0  0  0  0  0  0  0  0  0  0  0
  139.9040   74.4800  221.7980 C   0  0  0  0  0  0  0  0  0  0  0  0
  139.8470   75.8100  222.3090 N   0  0  0  0  0  0  0  0  0  0  0  0
  138.5670   76.4240  222.6970 C   0  0  0  0  0  0  0  0  0  0  0  0
  138.4260   77.7150  221.8750 C   0  0  0  0  0  0  0  0  0  0  0  0
  139.5270   78.5950  222.4120 C   0  0  0  0  0  0  0  0  0  0  0  0
  139.2810   79.9500  222.6280 C   0  0  0  0  0  0  0  0  0  0  0  0
  140.3400   80.6980  223.1260 C   0  0  0  0  0  0  0  0  0  0  0  0
  141.5770   80.1530  223.3980 C   0  0  0  0  0  0  0  0  0  0  0  0
  141.7980   78.8070  223.1760 C   0  0  0  0  0  0  0  0  0  0  0  0
  140.7530   78.0280  222.6760 C   0  0  0  0  0  0  0  0  0  0  0  0
  141.0610   76.5910  222.4610 C   0  0  0  0  0  0  0  0  0  0  0  0
  139.9440   73.4550  222.6740 N   0  0  0  0  0  0  0  0  0  0  0  0
  140.3820   71.6230  224.6850 C   0  0  0  0  0  0  0  0  0  0  0  0
  140.3604   67.6903  228.2542 H   0  0  0  0  0  0  0  0  0  0  0  0
  141.4889   69.8402  228.8010 H   0  0  0  0  0  0  0  0  0  0  0  0
  141.4626   71.6500  227.0714 H   0  0  0  0  0  0  0  0  0  0  0  0
  139.2464   67.3417  226.0887 H   0  0  0  0  0  0  0  0  0  0  0  0
  139.6876   68.4345  223.3924 H   0  0  0  0  0  0  0  0  0  0  0  0
  138.1126   68.4426  224.2134 H   0  0  0  0  0  0  0  0  0  0  0  0
  138.2817   70.2303  222.4225 H   0  0  0  0  0  0  0  0  0  0  0  0
  138.0059   70.9412  224.0233 H   0  0  0  0  0  0  0  0  0  0  0  0
  140.8376   70.4125  222.9603 H   0  0  0  0  0  0  0  0  0  0  0  0
  139.1050   72.6940  218.1300 H   0  0  0  0  0  0  0  0  0  0  0  0
  141.8022   71.5622  218.4793 H   0  0  0  0  0  0  0  0  0  0  0  0
  141.0968   72.0289  216.9322 H   0  0  0  0  0  0  0  0  0  0  0  0
  142.6780   73.7748  217.1165 H   0  0  0  0  0  0  0  0  0  0  0  0
  141.3749   74.5359  218.0791 H   0  0  0  0  0  0  0  0  0  0  0  0
  143.6049   75.5696  219.0332 H   0  0  0  0  0  0  0  0  0  0  0  0
  142.6217   75.2305  220.4584 H   0  0  0  0  0  0  0  0  0  0  0  0
  145.4944   74.4098  219.8471 H   0  0  0  0  0  0  0  0  0  0  0  0
  144.8466   74.9455  221.3816 H   0  0  0  0  0  0  0  0  0  0  0  0
  145.2126   72.2887  220.9462 H   0  0  0  0  0  0  0  0  0  0  0  0
  143.7611   72.7423  221.7824 H   0  0  0  0  0  0  0  0  0  0  0  0
  144.1812   72.0787  218.8162 H   0  0  0  0  0  0  0  0  0  0  0  0
  142.7774   71.6790  219.8128 H   0  0  0  0  0  0  0  0  0  0  0  0
  137.7355   75.7397  222.4728 H   0  0  0  0  0  0  0  0  0  0  0  0
  138.5433   76.6385  223.7756 H   0  0  0  0  0  0  0  0  0  0  0  0
  138.5691   77.5161  220.8026 H   0  0  0  0  0  0  0  0  0  0  0  0
  137.4297   78.1728  221.9630 H   0  0  0  0  0  0  0  0  0  0  0  0
  138.3011   80.4024  222.4155 H   0  0  0  0  0  0  0  0  0  0  0  0
  140.1852   81.7712  223.3114 H   0  0  0  0  0  0  0  0  0  0  0  0
  142.3853   80.7875  223.7904 H   0  0  0  0  0  0  0  0  0  0  0  0
  142.7792   78.3578  223.3893 H   0  0  0  0  0  0  0  0  0  0  0  0
  141.6705   76.4871  221.5512 H   0  0  0  0  0  0  0  0  0  0  0  0
  141.6075   76.2171  223.3394 H   0  0  0  0  0  0  0  0  0  0  0  0
  141.3875   72.0691  224.6810 H   0  0  0  0  0  0  0  0  0  0  0  0
  139.6573   72.3948  224.9835 H   0  0  0  0  0  0  0  0  0  0  0  0
  1  2  2  0
  2  3  1  0
  3  4  2  0
  4  5  1  0
  5  6  2  0
  5  7  1  0
  7  8  1  0
  8  9  1  0
  9 10  1  0
 10 11  2  0
 11 12  1  0
 12 13  1  0
 13 14  1  0
 14 15  1  0
 15 16  1  0
 16 17  1  0
 17 18  1  0
 18 19  1  0
 19 20  1  0
 12 21  2  0
 21 22  1  0
 22 23  1  0
 23 24  1  0
 24 25  1  0
 25 26  1  0
 26 27  2  0
 27 28  1  0
 28 29  2  0
 29 30  1  0
 30 31  2  0
 31 32  1  0
 22 33  2  0
  9 34  1  0
  6  1  1  0
 33 10  1  0
 34  4  1  0
 20 16  1  0
 32 23  1  0
 31 26  1  0
  1 35  1  0
  2 36  1  0
  3 37  1  0
  6 38  1  0
  7 39  1  0
  7 40  1  0
  8 41  1  0
  8 42  1  0
  9 43  1  6
 13 44  1  0
 14 45  1  0
 14 46  1  0
 15 47  1  0
 15 48  1  0
 17 49  1  0
 17 50  1  0
 18 51  1  0
 18 52  1  0
 19 53  1  0
 19 54  1  0
 20 55  1  0
 20 56  1  0
 24 57  1  0
 24 58  1  0
 25 59  1  0
 25 60  1  0
 27 61  1  0
 28 62  1  0
 29 63  1  0
 30 64  1  0
 32 65  1  0
 32 66  1  0
 34 67  1  0
 34 68  1  0
M  END
>  <smiles>  (75) 
c1ccc2c(c1)CCC(c1nc(NCCN3CCCC3)nc(N3CCc4ccccc4C3)n1)C2

>  <score_type>  (75) 
oracle

>  <origin>  (75) 
autodockgpu

>  <m_score__min__energy>  (75) 
-9.8699999999999992

>  <m_primary>  (75) 
energy

>  <rmsd>  (75) 
4.924850123830217

>  <m_score__min__rmsd>  (75) 
4.924850123830217

>  <meeko>  (75) 
{"free_energy": -9.12, "intermolecular_energy": -10.91, "internal_energy": -1.81, "cluster_size": 47, "cluster_id": 2, "rank_in_cluster": 23}

>  <energy>  (75) 
-9.12

>  <cluster_rmsd>  (75) 
0.73

>  <cluster>  (75) 
2

$$$$

     RDKit          3D

 68 73  0  0  0  0  0  0  0  0999 V2000
  140.3810   80.7870  223.7080 C   0  0  0  0  0  0  0  0  0  0  0  0
  141.6750   80.3280  223.5620 C   0  0  0  0  0  0  0  0  0  0  0  0
  141.8310   79.0370  223.0780 C   0  0  0  0  0  0  0  0  0  0  0  0
  140.7230   78.2440  222.7550 C   0  0  0  0  0  0  0  0  0  0  0  0
  139.4470   78.7200  222.9080 C   0  0  0  0  0  0  0  0  0  0  0  0
  139.2840   80.0070  223.3900 C   0  0  0  0  0  0  0  0  0  0  0  0
  138.2260   77.9360  222.5880 C   0  0  0  0  0  0  0  0  0  0  0  0
  138.6580   76.8220  221.6480 C   0  0  0  0  0  0  0  0  0  0  0  0
  139.7520   76.0620  222.3650 C   0  0  1  0  0  0  0  0  0  0  0  0
  139.9230   74.7000  221.8220 C   0  0  0  0  0  0  0  0  0  0  0  0
  140.0540   74.4560  220.4930 N   0  0  0  0  0  0  0  0  0  0  0  0
  140.2060   73.1840  220.0270 C   0  0  0  0  0  0  0  0  0  0  0  0
  140.3430   72.9260  218.6350 N   0  0  0  0  0  0  0  0  0  0  0  0
  139.8350   73.8810  217.6390 C   0  0  0  0  0  0  0  0  0  0  0  0
  141.0890   74.5630  217.0740 C   0  0  0  0  0  0  0  0  0  0  0  0
  141.7050   75.2640  218.0920 N   0  0  0  0  0  0  0  0  0  0  0  0
  141.3220   76.5430  218.4930 C   0  0  0  0  0  0  0  0  0  0  0  0
  142.5550   77.1350  219.1450 C   0  0  0  0  0  0  0  0  0  0  0  0
  143.2500   75.9120  219.7250 C   0  0  0  0  0  0  0  0  0  0  0  0
  142.9390   74.8720  218.6470 C   0  0  0  0  0  0  0  0  0  0  0  0
  140.2280   72.1520  220.8850 N   0  0  0  0  0  0  0  0  0  0  0  0
  140.0990   72.3740  222.2110 C   0  0  0  0  0  0  0  0  0  0  0  0
  140.1110   71.3210  223.1730 N   0  0  0  0  0  0  0  0  0  0  0  0
  139.5300   70.0040  222.8680 C   0  0  0  0  0  0  0  0  0  0  0  0
  138.4630   69.7310  223.9400 C   0  0  0  0  0  0  0  0  0  0  0  0
  139.2670   69.5840  225.2080 C   0  0  0  0  0  0  0  0  0  0  0  0
  138.9360   68.5850  226.1210 C   0  0  0  0  0  0  0  0  0  0  0  0
  139.7220   68.5090  227.2640 C   0  0  0  0  0  0  0  0  0  0  0  0
  140.7760   69.3640  227.5050 C   0  0  0  0  0  0  0  0  0  0  0  0
  141.0870   70.3470  226.5850 C   0  0  0  0  0  0  0  0  0  0  0  0
  140.3150   70.4500  225.4250 C   0  0  0  0  0  0  0  0  0  0  0  0
  140.7050   71.5280  224.4810 C   0  0  0  0  0  0  0  0  0  0  0  0
  139.9510   73.6420  222.6460 N   0  0  0  0  0  0  0  0  0  0  0  0
  141.0130   76.8880  222.2470 C   0  0  0  0  0  0  0  0  0  0  0  0
  140.2173   81.8057  224.0894 H   0  0  0  0  0  0  0  0  0  0  0  0
  142.5412   80.9561  223.8173 H   0  0  0  0  0  0  0  0  0  0  0  0
  142.8439   78.6289  222.9456 H   0  0  0  0  0  0  0  0  0  0  0  0
  138.2706   80.4142  223.5217 H   0  0  0  0  0  0  0  0  0  0  0  0
  137.7960   77.5114  223.5072 H   0  0  0  0  0  0  0  0  0  0  0  0
  137.4577   78.5712  222.1231 H   0  0  0  0  0  0  0  0  0  0  0  0
  137.8099   76.1556  221.4320 H   0  0  0  0  0  0  0  0  0  0  0  0
  139.0137   77.2243  220.6880 H   0  0  0  0  0  0  0  0  0  0  0  0
  139.4911   75.9170  223.4237 H   0  0  0  0  0  0  0  0  0  0  0  0
  140.8090   72.0490  218.3310 H   0  0  0  0  0  0  0  0  0  0  0  0
  139.2875   73.3557  216.8426 H   0  0  0  0  0  0  0  0  0  0  0  0
  139.1315   74.6038  218.0780 H   0  0  0  0  0  0  0  0  0  0  0  0
  141.7780   73.8025  216.6779 H   0  0  0  0  0  0  0  0  0  0  0  0
  140.8099   75.2488  216.2605 H   0  0  0  0  0  0  0  0  0  0  0  0
  141.0169   77.1453  217.6246 H   0  0  0  0  0  0  0  0  0  0  0  0
  140.4622   76.5210  219.1787 H   0  0  0  0  0  0  0  0  0  0  0  0
  143.1924   77.6384  218.4032 H   0  0  0  0  0  0  0  0  0  0  0  0
  142.3233   77.9023  219.8984 H   0  0  0  0  0  0  0  0  0  0  0  0
  144.3328   76.0737  219.8320 H   0  0  0  0  0  0  0  0  0  0  0  0
  142.9182   75.6348  220.7365 H   0  0  0  0  0  0  0  0  0  0  0  0
  143.7240   74.8702  217.8765 H   0  0  0  0  0  0  0  0  0  0  0  0
  142.8954   73.8542  219.0619 H   0  0  0  0  0  0  0  0  0  0  0  0
  139.0692   70.0154  221.8692 H   0  0  0  0  0  0  0  0  0  0  0  0
  140.3027   69.2211  222.8715 H   0  0  0  0  0  0  0  0  0  0  0  0
  137.7584   70.5722  224.0166 H   0  0  0  0  0  0  0  0  0  0  0  0
  137.8486   68.8461  223.7173 H   0  0  0  0  0  0  0  0  0  0  0  0
  138.0980   67.8941  225.9463 H   0  0  0  0  0  0  0  0  0  0  0  0
  139.4933   67.7328  228.0091 H   0  0  0  0  0  0  0  0  0  0  0  0
  141.3677   69.2641  228.4269 H   0  0  0  0  0  0  0  0  0  0  0  0
  141.9264   71.0354  226.7625 H   0  0  0  0  0  0  0  0  0  0  0  0
  140.3651   72.4949  224.8804 H   0  0  0  0  0  0  0  0  0  0  0  0
  141.7995   71.5163  224.3721 H   0  0  0  0  0  0  0  0  0  0  0  0
  141.8157   76.4302  222.8437 H   0  0  0  0  0  0  0  0  0  0  0  0
  141.3400   76.9362  221.1978 H   0  0  0  0  0  0  0  0  0  0  0  0
  1  2  2  0
  2  3  1  0
  3  4  2  0
  4  5  1  0
  5  6  2  0
  5  7  1  0
  7  8  1  0
  8  9  1  0
  9 10  1  0
 10 11  2  0
 11 12  1  0
 12 13  1  0
 13 14  1  0
 14 15  1  0
 15 16  1  0
 16 17  1  0
 17 18  1  0
 18 19  1  0
 19 20  1  0
 12 21  2  0
 21 22  1  0
 22 23  1  0
 23 24  1  0
 24 25  1  0
 25 26  1  0
 26 27  2  0
 27 28  1  0
 28 29  2  0
 29 30  1  0
 30 31  2  0
 31 32  1  0
 22 33  2  0
  9 34  1  0
  6  1  1  0
 33 10  1  0
 34  4  1  0
 20 16  1  0
 32 23  1  0
 31 26  1  0
  1 35  1  0
  2 36  1  0
  3 37  1  0
  6 38  1  0
  7 39  1  0
  7 40  1  0
  8 41  1  0
  8 42  1  0
  9 43  1  1
 13 44  1  0
 14 45  1  0
 14 46  1  0
 15 47  1  0
 15 48  1  0
 17 49  1  0
 17 50  1  0
 18 51  1  0
 18 52  1  0
 19 53  1  0
 19 54  1  0
 20 55  1  0
 20 56  1  0
 24 57  1  0
 24 58  1  0
 25 59  1  0
 25 60  1  0
 27 61  1  0
 28 62  1  0
 29 63  1  0
 30 64  1  0
 32 65  1  0
 32 66  1  0
 34 67  1  0
 34 68  1  0
M  END
>  <smiles>  (76) 
c1ccc2c(c1)CCC(c1nc(NCCN3CCCC3)nc(N3CCc4ccccc4C3)n1)C2

>  <score_type>  (76) 
oracle

>  <origin>  (76) 
autodockgpu

>  <m_score__min__energy>  (76) 
-9.8699999999999992

>  <m_primary>  (76) 
energy

>  <rmsd>  (76) 
3.644446218833318

>  <m_score__min__rmsd>  (76) 
3.644446218833318

>  <meeko>  (76) 
{"free_energy": -8.55, "intermolecular_energy": -10.34, "internal_energy": -2.02, "cluster_size": 47, "cluster_id": 2, "rank_in_cluster": 45}

>  <energy>  (76) 
-9.12

>  <cluster_rmsd>  (76) 
0.63

>  <cluster>  (76) 
2

$$$$

     RDKit          3D

 68 73  0  0  0  0  0  0  0  0999 V2000
  140.2920   68.4560  227.5030 C   0  0  0  0  0  0  0  0  0  0  0  0
  141.0370   69.5780  227.8100 C   0  0  0  0  0  0  0  0  0  0  0  0
  141.0820   70.5810  226.8510 C   0  0  0  0  0  0  0  0  0  0  0  0
  140.4030   70.4520  225.6340 C   0  0  0  0  0  0  0  0  0  0  0  0
  139.6700   69.3280  225.3500 C   0  0  0  0  0  0  0  0  0  0  0  0
  139.6200   68.3250  226.3020 C   0  0  0  0  0  0  0  0  0  0  0  0
  138.9270   69.1230  224.0810 C   0  0  0  0  0  0  0  0  0  0  0  0
  138.7280   70.4980  223.4630 C   0  0  0  0  0  0  0  0  0  0  0  0
  140.1090   71.1010  223.3200 C   0  0  1  0  0  0  0  0  0  0  0  0
  140.1350   72.1830  222.3150 C   0  0  0  0  0  0  0  0  0  0  0  0
  140.2830   71.9420  220.9880 N   0  0  0  0  0  0  0  0  0  0  0  0
  140.3070   72.9650  220.0900 C   0  0  0  0  0  0  0  0  0  0  0  0
  140.4640   72.7150  218.6980 N   0  0  0  0  0  0  0  0  0  0  0  0
  141.7570   72.2770  218.1530 C   0  0  0  0  0  0  0  0  0  0  0  0
  142.6000   73.5560  218.0660 C   0  0  0  0  0  0  0  0  0  0  0  0
  143.5900   73.4980  219.0270 N   0  0  0  0  0  0  0  0  0  0  0  0
  144.1640   72.3090  219.4760 C   0  0  0  0  0  0  0  0  0  0  0  0
  144.6990   72.6290  220.8560 C   0  0  0  0  0  0  0  0  0  0  0  0
  145.0560   74.1040  220.7460 C   0  0  0  0  0  0  0  0  0  0  0  0
  143.9320   74.6000  219.8350 C   0  0  0  0  0  0  0  0  0  0  0  0
  140.1820   74.2340  220.5120 N   0  0  0  0  0  0  0  0  0  0  0  0
  140.0330   74.4940  221.8290 C   0  0  0  0  0  0  0  0  0  0  0  0
  139.8990   75.8180  222.3410 N   0  0  0  0  0  0  0  0  0  0  0  0
  138.5830   76.3640  222.7090 C   0  0  0  0  0  0  0  0  0  0  0  0
  138.3900   77.6490  221.8880 C   0  0  0  0  0  0  0  0  0  0  0  0
  139.4350   78.5830  222.4450 C   0  0  0  0  0  0  0  0  0  0  0  0
  139.1150   79.9220  222.6600 C   0  0  0  0  0  0  0  0  0  0  0  0
  140.1270   80.7230  223.1770 C   0  0  0  0  0  0  0  0  0  0  0  0
  141.3850   80.2410  223.4680 C   0  0  0  0  0  0  0  0  0  0  0  0
  141.6790   78.9090  223.2470 C   0  0  0  0  0  0  0  0  0  0  0  0
  140.6840   78.0780  222.7280 C   0  0  0  0  0  0  0  0  0  0  0  0
  141.0690   76.6600  222.5160 C   0  0  0  0  0  0  0  0  0  0  0  0
  140.0130   73.4630  222.6980 N   0  0  0  0  0  0  0  0  0  0  0  0
  140.5240   71.5840  224.6920 C   0  0  0  0  0  0  0  0  0  0  0  0
  140.2315   67.6401  228.2382 H   0  0  0  0  0  0  0  0  0  0  0  0
  141.5690   69.6723  228.7682 H   0  0  0  0  0  0  0  0  0  0  0  0
  141.6620   71.4939  227.0514 H   0  0  0  0  0  0  0  0  0  0  0  0
  139.0389   67.4130  226.1008 H   0  0  0  0  0  0  0  0  0  0  0  0
  139.5078   68.4824  223.4011 H   0  0  0  0  0  0  0  0  0  0  0  0
  137.9617   68.6283  224.2637 H   0  0  0  0  0  0  0  0  0  0  0  0
  138.2477   70.4072  222.4776 H   0  0  0  0  0  0  0  0  0  0  0  0
  138.0784   71.1281  224.0883 H   0  0  0  0  0  0  0  0  0  0  0  0
  140.8224   70.3495  222.9508 H   0  0  0  0  0  0  0  0  0  0  0  0
  139.6480   72.8480  218.0700 H   0  0  0  0  0  0  0  0  0  0  0  0
  142.2318   71.5450  218.8229 H   0  0  0  0  0  0  0  0  0  0  0  0
  141.6496   71.7835  217.1758 H   0  0  0  0  0  0  0  0  0  0  0  0
  143.0564   73.6317  217.0680 H   0  0  0  0  0  0  0  0  0  0  0  0
  141.9638   74.4373  218.2349 H   0  0  0  0  0  0  0  0  0  0  0  0
  143.4087   71.5111  219.5296 H   0  0  0  0  0  0  0  0  0  0  0  0
  144.9537   71.9501  218.7996 H   0  0  0  0  0  0  0  0  0  0  0  0
  143.9316   72.4635  221.6266 H   0  0  0  0  0  0  0  0  0  0  0  0
  145.5491   71.9962  221.1508 H   0  0  0  0  0  0  0  0  0  0  0  0
  145.0320   74.6012  221.7269 H   0  0  0  0  0  0  0  0  0  0  0  0
  146.0703   74.3016  220.3690 H   0  0  0  0  0  0  0  0  0  0  0  0
  143.0665   74.9222  220.4325 H   0  0  0  0  0  0  0  0  0  0  0  0
  144.2457   75.4659  219.2335 H   0  0  0  0  0  0  0  0  0  0  0  0
  137.7915   75.6388  222.4689 H   0  0  0  0  0  0  0  0  0  0  0  0
  138.5300   76.5731  223.7876 H   0  0  0  0  0  0  0  0  0  0  0  0
  138.5609   77.4612  220.8177 H   0  0  0  0  0  0  0  0  0  0  0  0
  137.3702   78.0548  221.9608 H   0  0  0  0  0  0  0  0  0  0  0  0
  138.1163   80.3234  222.4331 H   0  0  0  0  0  0  0  0  0  0  0  0
  139.9147   81.7864  223.3616 H   0  0  0  0  0  0  0  0  0  0  0  0
  142.1531   80.9150  223.8752 H   0  0  0  0  0  0  0  0  0  0  0  0
  142.6785   78.5106  223.4757 H   0  0  0  0  0  0  0  0  0  0  0  0
  141.6990   76.5900  221.6170 H   0  0  0  0  0  0  0  0  0  0  0  0
  141.6185   76.3122  223.4032 H   0  0  0  0  0  0  0  0  0  0  0  0
  141.5659   71.9358  224.6639 H   0  0  0  0  0  0  0  0  0  0  0  0
  139.8812   72.4169  225.0130 H   0  0  0  0  0  0  0  0  0  0  0  0
  1  2  2  0
  2  3  1  0
  3  4  2  0
  4  5  1  0
  5  6  2  0
  5  7  1  0
  7  8  1  0
  8  9  1  0
  9 10  1  0
 10 11  2  0
 11 12  1  0
 12 13  1  0
 13 14  1  0
 14 15  1  0
 15 16  1  0
 16 17  1  0
 17 18  1  0
 18 19  1  0
 19 20  1  0
 12 21  2  0
 21 22  1  0
 22 23  1  0
 23 24  1  0
 24 25  1  0
 25 26  1  0
 26 27  2  0
 27 28  1  0
 28 29  2  0
 29 30  1  0
 30 31  2  0
 31 32  1  0
 22 33  2  0
  9 34  1  0
  6  1  1  0
 33 10  1  0
 34  4  1  0
 20 16  1  0
 32 23  1  0
 31 26  1  0
  1 35  1  0
  2 36  1  0
  3 37  1  0
  6 38  1  0
  7 39  1  0
  7 40  1  0
  8 41  1  0
  8 42  1  0
  9 43  1  6
 13 44  1  0
 14 45  1  0
 14 46  1  0
 15 47  1  0
 15 48  1  0
 17 49  1  0
 17 50  1  0
 18 51  1  0
 18 52  1  0
 19 53  1  0
 19 54  1  0
 20 55  1  0
 20 56  1  0
 24 57  1  0
 24 58  1  0
 25 59  1  0
 25 60  1  0
 27 61  1  0
 28 62  1  0
 29 63  1  0
 30 64  1  0
 32 65  1  0
 32 66  1  0
 34 67  1  0
 34 68  1  0
M  END
>  <smiles>  (77) 
c1ccc2c(c1)CCC(c1nc(NCCN3CCCC3)nc(N3CCc4ccccc4C3)n1)C2

>  <score_type>  (77) 
oracle

>  <origin>  (77) 
autodockgpu

>  <m_score__min__energy>  (77) 
-9.8699999999999992

>  <m_primary>  (77) 
energy

>  <rmsd>  (77) 
5.441081032240735

>  <m_score__min__rmsd>  (77) 
5.441081032240735

>  <meeko>  (77) 
{"free_energy": -9.27, "intermolecular_energy": -11.06, "internal_energy": -1.62, "cluster_size": 47, "cluster_id": 2, "rank_in_cluster": 12}

>  <energy>  (77) 
-9.11

>  <cluster_rmsd>  (77) 
1.11

>  <cluster>  (77) 
2

$$$$

     RDKit          3D

 68 73  0  0  0  0  0  0  0  0999 V2000
  140.2400   68.5090  227.6800 C   0  0  0  0  0  0  0  0  0  0  0  0
  141.0110   69.6250  227.9430 C   0  0  0  0  0  0  0  0  0  0  0  0
  141.0650   70.5960  226.9530 C   0  0  0  0  0  0  0  0  0  0  0  0
  140.3670   70.4450  225.7490 C   0  0  0  0  0  0  0  0  0  0  0  0
  139.6080   69.3280  225.5090 C   0  0  0  0  0  0  0  0  0  0  0  0
  139.5490   68.3550  226.4920 C   0  0  0  0  0  0  0  0  0  0  0  0
  138.8440   69.0990  224.2560 C   0  0  0  0  0  0  0  0  0  0  0  0
  138.6660   70.4590  223.5990 C   0  0  0  0  0  0  0  0  0  0  0  0
  140.0570   71.0290  223.4210 C   0  0  1  0  0  0  0  0  0  0  0  0
  140.0920   72.0780  222.3830 C   0  0  0  0  0  0  0  0  0  0  0  0
  140.2380   71.7950  221.0640 N   0  0  0  0  0  0  0  0  0  0  0  0
  140.2710   72.7900  220.1340 C   0  0  0  0  0  0  0  0  0  0  0  0
  140.4250   72.4960  218.7510 N   0  0  0  0  0  0  0  0  0  0  0  0
  141.7620   72.3340  218.1600 C   0  0  0  0  0  0  0  0  0  0  0  0
  142.5820   71.6120  219.2380 C   0  0  0  0  0  0  0  0  0  0  0  0
  143.4050   72.5330  219.8560 N   0  0  0  0  0  0  0  0  0  0  0  0
  143.1470   73.9030  219.8880 C   0  0  0  0  0  0  0  0  0  0  0  0
  144.5000   74.5520  220.0930 C   0  0  0  0  0  0  0  0  0  0  0  0
  145.2550   73.5090  220.9030 C   0  0  0  0  0  0  0  0  0  0  0  0
  144.7100   72.2200  220.2840 C   0  0  0  0  0  0  0  0  0  0  0  0
  140.1570   74.0720  220.5170 N   0  0  0  0  0  0  0  0  0  0  0  0
  140.0100   74.3740  221.8250 C   0  0  0  0  0  0  0  0  0  0  0  0
  139.8880   75.7150  222.2960 N   0  0  0  0  0  0  0  0  0  0  0  0
  138.5780   76.2790  222.6600 C   0  0  0  0  0  0  0  0  0  0  0  0
  138.3810   77.5370  221.8000 C   0  0  0  0  0  0  0  0  0  0  0  0
  139.4360   78.4840  222.3150 C   0  0  0  0  0  0  0  0  0  0  0  0
  139.1250   79.8300  222.4910 C   0  0  0  0  0  0  0  0  0  0  0  0
  140.1460   80.6420  222.9710 C   0  0  0  0  0  0  0  0  0  0  0  0
  141.4060   80.1650  223.2630 C   0  0  0  0  0  0  0  0  0  0  0  0
  141.6910   78.8250  223.0820 C   0  0  0  0  0  0  0  0  0  0  0  0
  140.6860   77.9820  222.6010 C   0  0  0  0  0  0  0  0  0  0  0  0
  141.0630   76.5570  222.4300 C   0  0  0  0  0  0  0  0  0  0  0  0
  139.9810   73.3710  222.7250 N   0  0  0  0  0  0  0  0  0  0  0  0
  140.4990   71.5440  224.7720 C   0  0  0  0  0  0  0  0  0  0  0  0
  140.1736   67.7170  228.4405 H   0  0  0  0  0  0  0  0  0  0  0  0
  141.5560   69.7384  228.8918 H   0  0  0  0  0  0  0  0  0  0  0  0
  141.6677   71.5014  227.1175 H   0  0  0  0  0  0  0  0  0  0  0  0
  138.9462   67.4499  226.3264 H   0  0  0  0  0  0  0  0  0  0  0  0
  139.4024   68.4257  223.5890 H   0  0  0  0  0  0  0  0  0  0  0  0
  137.8713   68.6300  224.4654 H   0  0  0  0  0  0  0  0  0  0  0  0
  138.1716   70.3487  222.6226 H   0  0  0  0  0  0  0  0  0  0  0  0
  138.0378   71.1210  224.2131 H   0  0  0  0  0  0  0  0  0  0  0  0
  140.7508   70.2525  223.0665 H   0  0  0  0  0  0  0  0  0  0  0  0
  139.5750   72.3960  218.1620 H   0  0  0  0  0  0  0  0  0  0  0  0
  141.7096   71.7289  217.2429 H   0  0  0  0  0  0  0  0  0  0  0  0
  142.2091   73.2974  217.8738 H   0  0  0  0  0  0  0  0  0  0  0  0
  141.9052   71.1632  219.9800 H   0  0  0  0  0  0  0  0  0  0  0  0
  143.1867   70.8155  218.7797 H   0  0  0  0  0  0  0  0  0  0  0  0
  142.6990   74.2343  218.9396 H   0  0  0  0  0  0  0  0  0  0  0  0
  142.4355   74.1710  220.6830 H   0  0  0  0  0  0  0  0  0  0  0  0
  144.9977   74.7429  219.1308 H   0  0  0  0  0  0  0  0  0  0  0  0
  144.4422   75.5315  220.5903 H   0  0  0  0  0  0  0  0  0  0  0  0
  146.3426   73.5971  220.7639 H   0  0  0  0  0  0  0  0  0  0  0  0
  145.1156   73.5874  221.9913 H   0  0  0  0  0  0  0  0  0  0  0  0
  145.3311   71.9104  219.4305 H   0  0  0  0  0  0  0  0  0  0  0  0
  144.7161   71.3869  221.0023 H   0  0  0  0  0  0  0  0  0  0  0  0
  137.7810   75.5498  222.4523 H   0  0  0  0  0  0  0  0  0  0  0  0
  138.5380   76.5236  223.7317 H   0  0  0  0  0  0  0  0  0  0  0  0
  138.5393   77.3137  220.7346 H   0  0  0  0  0  0  0  0  0  0  0  0
  137.3637   77.9494  221.8706 H   0  0  0  0  0  0  0  0  0  0  0  0
  138.1257   80.2289  222.2626 H   0  0  0  0  0  0  0  0  0  0  0  0
  139.9396   81.7115  223.1245 H   0  0  0  0  0  0  0  0  0  0  0  0
  142.1817   80.8485  223.6387 H   0  0  0  0  0  0  0  0  0  0  0  0
  142.6911   78.4292  223.3125 H   0  0  0  0  0  0  0  0  0  0  0  0
  141.6819   76.4556  221.5263 H   0  0  0  0  0  0  0  0  0  0  0  0
  141.6219   76.2354  223.3212 H   0  0  0  0  0  0  0  0  0  0  0  0
  141.5474   71.8729  224.7206 H   0  0  0  0  0  0  0  0  0  0  0  0
  139.8773   72.3993  225.0752 H   0  0  0  0  0  0  0  0  0  0  0  0
  1  2  2  0
  2  3  1  0
  3  4  2  0
  4  5  1  0
  5  6  2  0
  5  7  1  0
  7  8  1  0
  8  9  1  0
  9 10  1  0
 10 11  2  0
 11 12  1  0
 12 13  1  0
 13 14  1  0
 14 15  1  0
 15 16  1  0
 16 17  1  0
 17 18  1  0
 18 19  1  0
 19 20  1  0
 12 21  2  0
 21 22  1  0
 22 23  1  0
 23 24  1  0
 24 25  1  0
 25 26  1  0
 26 27  2  0
 27 28  1  0
 28 29  2  0
 29 30  1  0
 30 31  2  0
 31 32  1  0
 22 33  2  0
  9 34  1  0
  6  1  1  0
 33 10  1  0
 34  4  1  0
 20 16  1  0
 32 23  1  0
 31 26  1  0
  1 35  1  0
  2 36  1  0
  3 37  1  0
  6 38  1  0
  7 39  1  0
  7 40  1  0
  8 41  1  0
  8 42  1  0
  9 43  1  6
 13 44  1  0
 14 45  1  0
 14 46  1  0
 15 47  1  0
 15 48  1  0
 17 49  1  0
 17 50  1  0
 18 51  1  0
 18 52  1  0
 19 53  1  0
 19 54  1  0
 20 55  1  0
 20 56  1  0
 24 57  1  0
 24 58  1  0
 25 59  1  0
 25 60  1  0
 27 61  1  0
 28 62  1  0
 29 63  1  0
 30 64  1  0
 32 65  1  0
 32 66  1  0
 34 67  1  0
 34 68  1  0
M  END
>  <smiles>  (78) 
c1ccc2c(c1)CCC(c1nc(NCCN3CCCC3)nc(N3CCc4ccccc4C3)n1)C2

>  <score_type>  (78) 
oracle

>  <origin>  (78) 
autodockgpu

>  <m_score__min__energy>  (78) 
-9.8699999999999992

>  <m_primary>  (78) 
energy

>  <rmsd>  (78) 
5.284132817242318

>  <m_score__min__rmsd>  (78) 
5.284132817242318

>  <meeko>  (78) 
{"free_energy": -9.42, "intermolecular_energy": -11.21, "internal_energy": -1.53, "cluster_size": 47, "cluster_id": 2, "rank_in_cluster": 4}

>  <energy>  (78) 
-8.99

>  <cluster_rmsd>  (78) 
1.19

>  <cluster>  (78) 
2

$$$$

     RDKit          3D

 68 73  0  0  0  0  0  0  0  0999 V2000
  140.3900   68.5160  227.6630 C   0  0  0  0  0  0  0  0  0  0  0  0
  141.0120   69.7150  227.9530 C   0  0  0  0  0  0  0  0  0  0  0  0
  140.9820   70.6900  226.9650 C   0  0  0  0  0  0  0  0  0  0  0  0
  140.3490   70.4610  225.7380 C   0  0  0  0  0  0  0  0  0  0  0  0
  139.7380   69.2620  225.4720 C   0  0  0  0  0  0  0  0  0  0  0  0
  139.7640   68.2850  226.4520 C   0  0  0  0  0  0  0  0  0  0  0  0
  139.0510   68.9480  224.1930 C   0  0  0  0  0  0  0  0  0  0  0  0
  138.7330   70.2790  223.5310 C   0  0  0  0  0  0  0  0  0  0  0  0
  140.0500   71.0130  223.4000 C   0  0  1  0  0  0  0  0  0  0  0  0
  139.9930   72.0640  222.3640 C   0  0  0  0  0  0  0  0  0  0  0  0
  139.9950   71.7810  221.0370 N   0  0  0  0  0  0  0  0  0  0  0  0
  139.9470   72.7770  220.1090 C   0  0  0  0  0  0  0  0  0  0  0  0
  139.9500   72.4820  218.7170 N   0  0  0  0  0  0  0  0  0  0  0  0
  141.1160   72.8080  217.8820 C   0  0  0  0  0  0  0  0  0  0  0  0
  142.2830   72.0460  218.5240 C   0  0  0  0  0  0  0  0  0  0  0  0
  142.9750   72.9120  219.3470 N   0  0  0  0  0  0  0  0  0  0  0  0
  142.7930   74.2950  219.3430 C   0  0  0  0  0  0  0  0  0  0  0  0
  144.0860   74.8610  219.8930 C   0  0  0  0  0  0  0  0  0  0  0  0
  144.5550   73.7700  220.8440 C   0  0  0  0  0  0  0  0  0  0  0  0
  144.1120   72.5200  220.0810 C   0  0  0  0  0  0  0  0  0  0  0  0
  139.8940   74.0600  220.5020 N   0  0  0  0  0  0  0  0  0  0  0  0
  139.8910   74.3620  221.8180 C   0  0  0  0  0  0  0  0  0  0  0  0
  139.8400   75.7040  222.2990 N   0  0  0  0  0  0  0  0  0  0  0  0
  138.5650   76.3280  222.6870 C   0  0  0  0  0  0  0  0  0  0  0  0
  138.4180   77.6000  221.8370 C   0  0  0  0  0  0  0  0  0  0  0  0
  139.5250   78.4910  222.3430 C   0  0  0  0  0  0  0  0  0  0  0  0
  139.2820   79.8500  222.5320 C   0  0  0  0  0  0  0  0  0  0  0  0
  140.3480   80.6080  223.0020 C   0  0  0  0  0  0  0  0  0  0  0  0
  141.5870   80.0670  223.2720 C   0  0  0  0  0  0  0  0  0  0  0  0
  141.8040   78.7170  223.0790 C   0  0  0  0  0  0  0  0  0  0  0  0
  140.7530   77.9280  222.6070 C   0  0  0  0  0  0  0  0  0  0  0  0
  141.0570   76.4860  222.4220 C   0  0  0  0  0  0  0  0  0  0  0  0
  139.9400   73.3570  222.7160 N   0  0  0  0  0  0  0  0  0  0  0  0
  140.3800   71.5730  224.7660 C   0  0  0  0  0  0  0  0  0  0  0  0
  140.3929   67.7186  228.4207 H   0  0  0  0  0  0  0  0  0  0  0  0
  141.5070   69.8888  228.9198 H   0  0  0  0  0  0  0  0  0  0  0  0
  141.4649   71.6608  227.1501 H   0  0  0  0  0  0  0  0  0  0  0  0
  139.2814   67.3143  226.2654 H   0  0  0  0  0  0  0  0  0  0  0  0
  139.7094   68.3501  223.5456 H   0  0  0  0  0  0  0  0  0  0  0  0
  138.1355   68.3639  224.3681 H   0  0  0  0  0  0  0  0  0  0  0  0
  138.2883   70.1142  222.5385 H   0  0  0  0  0  0  0  0  0  0  0  0
  138.0096   70.8580  224.1239 H   0  0  0  0  0  0  0  0  0  0  0  0
  140.8437   70.3271  223.0689 H   0  0  0  0  0  0  0  0  0  0  0  0
  139.1130   72.0320  218.2980 H   0  0  0  0  0  0  0  0  0  0  0  0
  140.9571   72.4726  216.8465 H   0  0  0  0  0  0  0  0  0  0  0  0
  141.3031   73.8909  217.8346 H   0  0  0  0  0  0  0  0  0  0  0  0
  141.8949   71.2035  219.1152 H   0  0  0  0  0  0  0  0  0  0  0  0
  142.9516   71.6551  217.7428 H   0  0  0  0  0  0  0  0  0  0  0  0
  142.6156   74.6589  218.3202 H   0  0  0  0  0  0  0  0  0  0  0  0
  141.9210   74.5992  219.9406 H   0  0  0  0  0  0  0  0  0  0  0  0
  144.8186   75.0280  219.0897 H   0  0  0  0  0  0  0  0  0  0  0  0
  143.9603   75.8389  220.3808 H   0  0  0  0  0  0  0  0  0  0  0  0
  145.6459   73.7948  220.9830 H   0  0  0  0  0  0  0  0  0  0  0  0
  144.1520   73.8491  221.8644 H   0  0  0  0  0  0  0  0  0  0  0  0
  144.9091   72.1803  219.4033 H   0  0  0  0  0  0  0  0  0  0  0  0
  143.8916   71.6833  220.7602 H   0  0  0  0  0  0  0  0  0  0  0  0
  137.7302   75.6401  222.4872 H   0  0  0  0  0  0  0  0  0  0  0  0
  138.5523   76.5665  223.7608 H   0  0  0  0  0  0  0  0  0  0  0  0
  138.5507   77.3763  220.7682 H   0  0  0  0  0  0  0  0  0  0  0  0
  137.4231   78.0611  221.9241 H   0  0  0  0  0  0  0  0  0  0  0  0
  138.3000   80.2985  222.3207 H   0  0  0  0  0  0  0  0  0  0  0  0
  140.1967   81.6852  223.1655 H   0  0  0  0  0  0  0  0  0  0  0  0
  142.4007   80.7091  223.6403 H   0  0  0  0  0  0  0  0  0  0  0  0
  142.7866   78.2714  223.2931 H   0  0  0  0  0  0  0  0  0  0  0  0
  141.6579   76.3603  221.5093 H   0  0  0  0  0  0  0  0  0  0  0  0
  141.6112   76.1312  223.3035 H   0  0  0  0  0  0  0  0  0  0  0  0
  141.3819   72.0269  224.7507 H   0  0  0  0  0  0  0  0  0  0  0  0
  139.6494   72.3456  225.0476 H   0  0  0  0  0  0  0  0  0  0  0  0
  1  2  2  0
  2  3  1  0
  3  4  2  0
  4  5  1  0
  5  6  2  0
  5  7  1  0
  7  8  1  0
  8  9  1  0
  9 10  1  0
 10 11  2  0
 11 12  1  0
 12 13  1  0
 13 14  1  0
 14 15  1  0
 15 16  1  0
 16 17  1  0
 17 18  1  0
 18 19  1  0
 19 20  1  0
 12 21  2  0
 21 22  1  0
 22 23  1  0
 23 24  1  0
 24 25  1  0
 25 26  1  0
 26 27  2  0
 27 28  1  0
 28 29  2  0
 29 30  1  0
 30 31  2  0
 31 32  1  0
 22 33  2  0
  9 34  1  0
  6  1  1  0
 33 10  1  0
 34  4  1  0
 20 16  1  0
 32 23  1  0
 31 26  1  0
  1 35  1  0
  2 36  1  0
  3 37  1  0
  6 38  1  0
  7 39  1  0
  7 40  1  0
  8 41  1  0
  8 42  1  0
  9 43  1  6
 13 44  1  0
 14 45  1  0
 14 46  1  0
 15 47  1  0
 15 48  1  0
 17 49  1  0
 17 50  1  0
 18 51  1  0
 18 52  1  0
 19 53  1  0
 19 54  1  0
 20 55  1  0
 20 56  1  0
 24 57  1  0
 24 58  1  0
 25 59  1  0
 25 60  1  0
 27 61  1  0
 28 62  1  0
 29 63  1  0
 30 64  1  0
 32 65  1  0
 32 66  1  0
 34 67  1  0
 34 68  1  0
M  END
>  <smiles>  (79) 
c1ccc2c(c1)CCC(c1nc(NCCN3CCCC3)nc(N3CCc4ccccc4C3)n1)C2

>  <score_type>  (79) 
oracle

>  <origin>  (79) 
autodockgpu

>  <m_score__min__energy>  (79) 
-9.8699999999999992

>  <m_primary>  (79) 
energy

>  <rmsd>  (79) 
4.83034334413593

>  <m_score__min__rmsd>  (79) 
4.83034334413593

>  <meeko>  (79) 
{"free_energy": -9.13, "intermolecular_energy": -10.92, "internal_energy": -1.77, "cluster_size": 47, "cluster_id": 2, "rank_in_cluster": 21}

>  <energy>  (79) 
-8.94

>  <cluster_rmsd>  (79) 
1.33

>  <cluster>  (79) 
2

$$$$

     RDKit          3D

 68 73  0  0  0  0  0  0  0  0999 V2000
  140.3610   80.7820  223.6420 C   0  0  0  0  0  0  0  0  0  0  0  0
  141.6590   80.3240  223.5330 C   0  0  0  0  0  0  0  0  0  0  0  0
  141.8290   79.0280  223.0680 C   0  0  0  0  0  0  0  0  0  0  0  0
  140.7310   78.2300  222.7250 C   0  0  0  0  0  0  0  0  0  0  0  0
  139.4500   78.7050  222.8410 C   0  0  0  0  0  0  0  0  0  0  0  0
  139.2730   79.9970  223.3050 C   0  0  0  0  0  0  0  0  0  0  0  0
  138.2390   77.9160  222.5000 C   0  0  0  0  0  0  0  0  0  0  0  0
  138.6950   76.7920  221.5830 C   0  0  0  0  0  0  0  0  0  0  0  0
  139.7730   76.0420  222.3360 C   0  0  1  0  0  0  0  0  0  0  0  0
  139.9590   74.6740  221.8120 C   0  0  0  0  0  0  0  0  0  0  0  0
  140.1330   74.4170  220.4910 N   0  0  0  0  0  0  0  0  0  0  0  0
  140.2980   73.1410  220.0420 C   0  0  0  0  0  0  0  0  0  0  0  0
  140.4790   72.8680  218.6580 N   0  0  0  0  0  0  0  0  0  0  0  0
  141.6970   73.3040  217.9590 C   0  0  0  0  0  0  0  0  0  0  0  0
  142.7750   72.2960  218.3820 C   0  0  0  0  0  0  0  0  0  0  0  0
  143.5150   72.8490  219.4100 N   0  0  0  0  0  0  0  0  0  0  0  0
  143.4420   74.1900  219.7810 C   0  0  0  0  0  0  0  0  0  0  0  0
  144.7630   74.4800  220.4630 C   0  0  0  0  0  0  0  0  0  0  0  0
  145.1250   73.1380  221.0810 C   0  0  0  0  0  0  0  0  0  0  0  0
  144.6010   72.1810  220.0080 C   0  0  0  0  0  0  0  0  0  0  0  0
  140.2910   72.1170  220.9110 N   0  0  0  0  0  0  0  0  0  0  0  0
  140.1200   72.3520  222.2300 C   0  0  0  0  0  0  0  0  0  0  0  0
  140.0990   71.3090  223.2010 N   0  0  0  0  0  0  0  0  0  0  0  0
  139.5230   69.9900  222.8920 C   0  0  0  0  0  0  0  0  0  0  0  0
  138.4230   69.7300  223.9340 C   0  0  0  0  0  0  0  0  0  0  0  0
  139.1880   69.5950  225.2270 C   0  0  0  0  0  0  0  0  0  0  0  0
  138.8260   68.6060  226.1390 C   0  0  0  0  0  0  0  0  0  0  0  0
  139.5760   68.5380  227.3070 C   0  0  0  0  0  0  0  0  0  0  0  0
  140.6240   69.3940  227.5710 C   0  0  0  0  0  0  0  0  0  0  0  0
  140.9660   70.3660  226.6510 C   0  0  0  0  0  0  0  0  0  0  0  0
  140.2310   70.4590  225.4670 C   0  0  0  0  0  0  0  0  0  0  0  0
  140.6530   71.5270  224.5260 C   0  0  0  0  0  0  0  0  0  0  0  0
  139.9590   73.6240  222.6470 N   0  0  0  0  0  0  0  0  0  0  0  0
  141.0350   76.8690  222.2400 C   0  0  0  0  0  0  0  0  0  0  0  0
  140.1864   81.8043  224.0087 H   0  0  0  0  0  0  0  0  0  0  0  0
  142.5176   80.9567  223.8021 H   0  0  0  0  0  0  0  0  0  0  0  0
  142.8454   78.6198  222.9669 H   0  0  0  0  0  0  0  0  0  0  0  0
  138.2561   80.4040  223.4068 H   0  0  0  0  0  0  0  0  0  0  0  0
  137.7872   77.5009  223.4130 H   0  0  0  0  0  0  0  0  0  0  0  0
  137.4817   78.5450  222.0093 H   0  0  0  0  0  0  0  0  0  0  0  0
  137.8534   76.1217  221.3541 H   0  0  0  0  0  0  0  0  0  0  0  0
  139.0730   77.1836  220.6271 H   0  0  0  0  0  0  0  0  0  0  0  0
  139.4870   75.9085  223.3897 H   0  0  0  0  0  0  0  0  0  0  0  0
  139.7360   72.3560  218.1460 H   0  0  0  0  0  0  0  0  0  0  0  0
  141.5486   73.2780  216.8694 H   0  0  0  0  0  0  0  0  0  0  0  0
  141.9734   74.3380  218.2128 H   0  0  0  0  0  0  0  0  0  0  0  0
  142.2986   71.3663  218.7265 H   0  0  0  0  0  0  0  0  0  0  0  0
  143.4298   72.0651  217.5289 H   0  0  0  0  0  0  0  0  0  0  0  0
  143.3154   74.8299  218.8953 H   0  0  0  0  0  0  0  0  0  0  0  0
  142.5840   74.3906  220.4395 H   0  0  0  0  0  0  0  0  0  0  0  0
  145.5233   74.7988  219.7348 H   0  0  0  0  0  0  0  0  0  0  0  0
  144.7036   75.2961  221.1981 H   0  0  0  0  0  0  0  0  0  0  0  0
  146.2114   73.0356  221.2199 H   0  0  0  0  0  0  0  0  0  0  0  0
  144.7083   72.9704  222.0851 H   0  0  0  0  0  0  0  0  0  0  0  0
  145.3828   71.9731  219.2626 H   0  0  0  0  0  0  0  0  0  0  0  0
  144.3011   71.2124  220.4345 H   0  0  0  0  0  0  0  0  0  0  0  0
  139.0926   69.9926  221.8797 H   0  0  0  0  0  0  0  0  0  0  0  0
  140.2930   69.2052  222.9270 H   0  0  0  0  0  0  0  0  0  0  0  0
  137.7181   70.5732  223.9804 H   0  0  0  0  0  0  0  0  0  0  0  0
  137.8138   68.8440  223.7020 H   0  0  0  0  0  0  0  0  0  0  0  0
  137.9915   67.9161  225.9450 H   0  0  0  0  0  0  0  0  0  0  0  0
  139.3229   67.7692  228.0519 H   0  0  0  0  0  0  0  0  0  0  0  0
  141.1864   69.3032  228.5120 H   0  0  0  0  0  0  0  0  0  0  0  0
  141.8016   71.0539  226.8472 H   0  0  0  0  0  0  0  0  0  0  0  0
  140.3034   72.4984  224.9057 H   0  0  0  0  0  0  0  0  0  0  0  0
  141.7504   71.5118  224.4514 H   0  0  0  0  0  0  0  0  0  0  0  0
  141.8233   76.4194  222.8616 H   0  0  0  0  0  0  0  0  0  0  0  0
  141.3875   76.9060  221.1987 H   0  0  0  0  0  0  0  0  0  0  0  0
  1  2  2  0
  2  3  1  0
  3  4  2  0
  4  5  1  0
  5  6  2  0
  5  7  1  0
  7  8  1  0
  8  9  1  0
  9 10  1  0
 10 11  2  0
 11 12  1  0
 12 13  1  0
 13 14  1  0
 14 15  1  0
 15 16  1  0
 16 17  1  0
 17 18  1  0
 18 19  1  0
 19 20  1  0
 12 21  2  0
 21 22  1  0
 22 23  1  0
 23 24  1  0
 24 25  1  0
 25 26  1  0
 26 27  2  0
 27 28  1  0
 28 29  2  0
 29 30  1  0
 30 31  2  0
 31 32  1  0
 22 33  2  0
  9 34  1  0
  6  1  1  0
 33 10  1  0
 34  4  1  0
 20 16  1  0
 32 23  1  0
 31 26  1  0
  1 35  1  0
  2 36  1  0
  3 37  1  0
  6 38  1  0
  7 39  1  0
  7 40  1  0
  8 41  1  0
  8 42  1  0
  9 43  1  1
 13 44  1  0
 14 45  1  0
 14 46  1  0
 15 47  1  0
 15 48  1  0
 17 49  1  0
 17 50  1  0
 18 51  1  0
 18 52  1  0
 19 53  1  0
 19 54  1  0
 20 55  1  0
 20 56  1  0
 24 57  1  0
 24 58  1  0
 25 59  1  0
 25 60  1  0
 27 61  1  0
 28 62  1  0
 29 63  1  0
 30 64  1  0
 32 65  1  0
 32 66  1  0
 34 67  1  0
 34 68  1  0
M  END
>  <smiles>  (80) 
c1ccc2c(c1)CCC(c1nc(NCCN3CCCC3)nc(N3CCc4ccccc4C3)n1)C2

>  <score_type>  (80) 
oracle

>  <origin>  (80) 
autodockgpu

>  <m_score__min__energy>  (80) 
-9.8699999999999992

>  <m_primary>  (80) 
energy

>  <rmsd>  (80) 
5.345242952060589

>  <m_score__min__rmsd>  (80) 
5.345242952060589

>  <meeko>  (80) 
{"free_energy": -9.2, "intermolecular_energy": -10.99, "internal_energy": -1.61, "cluster_size": 47, "cluster_id": 2, "rank_in_cluster": 16}

>  <energy>  (80) 
-8.94

>  <cluster_rmsd>  (80) 
0.97

>  <cluster>  (80) 
2

$$$$

     RDKit          3D

 68 73  0  0  0  0  0  0  0  0999 V2000
  140.3410   68.5290  227.6590 C   0  0  0  0  0  0  0  0  0  0  0  0
  141.0540   69.6800  227.9300 C   0  0  0  0  0  0  0  0  0  0  0  0
  141.0670   70.6550  226.9420 C   0  0  0  0  0  0  0  0  0  0  0  0
  140.3860   70.4730  225.7330 C   0  0  0  0  0  0  0  0  0  0  0  0
  139.6840   69.3220  225.4860 C   0  0  0  0  0  0  0  0  0  0  0  0
  139.6660   68.3450  226.4660 C   0  0  0  0  0  0  0  0  0  0  0  0
  138.9410   69.0590  224.2270 C   0  0  0  0  0  0  0  0  0  0  0  0
  138.7010   70.4100  223.5710 C   0  0  0  0  0  0  0  0  0  0  0  0
  140.0640   71.0470  223.4040 C   0  0  1  0  0  0  0  0  0  0  0  0
  140.0550   72.1000  222.3690 C   0  0  0  0  0  0  0  0  0  0  0  0
  140.1290   71.8200  221.0430 N   0  0  0  0  0  0  0  0  0  0  0  0
  140.1220   72.8180  220.1160 C   0  0  0  0  0  0  0  0  0  0  0  0
  140.2010   72.5260  218.7260 N   0  0  0  0  0  0  0  0  0  0  0  0
  141.3800   71.8500  218.1640 C   0  0  0  0  0  0  0  0  0  0  0  0
  142.2550   72.9840  217.6100 C   0  0  0  0  0  0  0  0  0  0  0  0
  143.0530   73.4620  218.6310 N   0  0  0  0  0  0  0  0  0  0  0  0
  143.7050   72.6430  219.5520 C   0  0  0  0  0  0  0  0  0  0  0  0
  143.9300   73.5210  220.7660 C   0  0  0  0  0  0  0  0  0  0  0  0
  144.0800   74.9080  220.1570 C   0  0  0  0  0  0  0  0  0  0  0  0
  143.0770   74.8200  219.0040 C   0  0  0  0  0  0  0  0  0  0  0  0
  140.0410   74.0990  220.5080 N   0  0  0  0  0  0  0  0  0  0  0  0
  139.9660   74.3990  221.8230 C   0  0  0  0  0  0  0  0  0  0  0  0
  139.8810   75.7380  222.3030 N   0  0  0  0  0  0  0  0  0  0  0  0
  138.5920   76.3260  222.7010 C   0  0  0  0  0  0  0  0  0  0  0  0
  138.4010   77.5930  221.8520 C   0  0  0  0  0  0  0  0  0  0  0  0
  139.4870   78.5160  222.3480 C   0  0  0  0  0  0  0  0  0  0  0  0
  139.2070   79.8670  222.5370 C   0  0  0  0  0  0  0  0  0  0  0  0
  140.2540   80.6560  222.9980 C   0  0  0  0  0  0  0  0  0  0  0  0
  141.5100   80.1520  223.2580 C   0  0  0  0  0  0  0  0  0  0  0  0
  141.7640   78.8070  223.0640 C   0  0  0  0  0  0  0  0  0  0  0  0
  140.7320   77.9880  222.6020 C   0  0  0  0  0  0  0  0  0  0  0  0
  141.0760   76.5560  222.4150 C   0  0  0  0  0  0  0  0  0  0  0  0
  139.9740   73.3920  222.7200 N   0  0  0  0  0  0  0  0  0  0  0  0
  140.4710   71.5800  224.7600 C   0  0  0  0  0  0  0  0  0  0  0  0
  140.3088   67.7323  228.4168 H   0  0  0  0  0  0  0  0  0  0  0  0
  141.5861   69.8177  228.8829 H   0  0  0  0  0  0  0  0  0  0  0  0
  141.6232   71.5885  227.1126 H   0  0  0  0  0  0  0  0  0  0  0  0
  139.1089   67.4122  226.2943 H   0  0  0  0  0  0  0  0  0  0  0  0
  139.5364   68.4154  223.5627 H   0  0  0  0  0  0  0  0  0  0  0  0
  137.9909   68.5427  224.4287 H   0  0  0  0  0  0  0  0  0  0  0  0
  138.2193   70.2777  222.5909 H   0  0  0  0  0  0  0  0  0  0  0  0
  138.0367   71.0394  224.1814 H   0  0  0  0  0  0  0  0  0  0  0  0
  140.7969   70.3058  223.0525 H   0  0  0  0  0  0  0  0  0  0  0  0
  139.4100   72.8000  218.1110 H   0  0  0  0  0  0  0  0  0  0  0  0
  141.9168   71.2930  218.9460 H   0  0  0  0  0  0  0  0  0  0  0  0
  141.1090   71.1180  217.3890 H   0  0  0  0  0  0  0  0  0  0  0  0
  142.8860   72.6009  216.7945 H   0  0  0  0  0  0  0  0  0  0  0  0
  141.6201   73.7925  217.2186 H   0  0  0  0  0  0  0  0  0  0  0  0
  143.0779   71.7773  219.8116 H   0  0  0  0  0  0  0  0  0  0  0  0
  144.6475   72.2403  219.1526 H   0  0  0  0  0  0  0  0  0  0  0  0
  143.0693   73.4796  221.4497 H   0  0  0  0  0  0  0  0  0  0  0  0
  144.7969   73.2148  221.3699 H   0  0  0  0  0  0  0  0  0  0  0  0
  143.8066   75.6971  220.8730 H   0  0  0  0  0  0  0  0  0  0  0  0
  145.1053   75.1651  219.8524 H   0  0  0  0  0  0  0  0  0  0  0  0
  142.0800   75.1455  219.3357 H   0  0  0  0  0  0  0  0  0  0  0  0
  143.3623   75.4698  218.1635 H   0  0  0  0  0  0  0  0  0  0  0  0
  137.7756   75.6144  222.5084 H   0  0  0  0  0  0  0  0  0  0  0  0
  138.5818   76.5650  223.7747 H   0  0  0  0  0  0  0  0  0  0  0  0
  138.5305   77.3727  220.7821 H   0  0  0  0  0  0  0  0  0  0  0  0
  137.3941   78.0254  221.9479 H   0  0  0  0  0  0  0  0  0  0  0  0
  138.2111   80.2869  222.3325 H   0  0  0  0  0  0  0  0  0  0  0  0
  140.0725   81.7284  223.1624 H   0  0  0  0  0  0  0  0  0  0  0  0
  142.3079   80.8178  223.6187 H   0  0  0  0  0  0  0  0  0  0  0  0
  142.7608   78.3898  223.2698 H   0  0  0  0  0  0  0  0  0  0  0  0
  141.6723   76.4473  221.4970 H   0  0  0  0  0  0  0  0  0  0  0  0
  141.6479   76.2182  223.2918 H   0  0  0  0  0  0  0  0  0  0  0  0
  141.5024   71.9600  224.7169 H   0  0  0  0  0  0  0  0  0  0  0  0
  139.8063   72.4032  225.0608 H   0  0  0  0  0  0  0  0  0  0  0  0
  1  2  2  0
  2  3  1  0
  3  4  2  0
  4  5  1  0
  5  6  2  0
  5  7  1  0
  7  8  1  0
  8  9  1  0
  9 10  1  0
 10 11  2  0
 11 12  1  0
 12 13  1  0
 13 14  1  0
 14 15  1  0
 15 16  1  0
 16 17  1  0
 17 18  1  0
 18 19  1  0
 19 20  1  0
 12 21  2  0
 21 22  1  0
 22 23  1  0
 23 24  1  0
 24 25  1  0
 25 26  1  0
 26 27  2  0
 27 28  1  0
 28 29  2  0
 29 30  1  0
 30 31  2  0
 31 32  1  0
 22 33  2  0
  9 34  1  0
  6  1  1  0
 33 10  1  0
 34  4  1  0
 20 16  1  0
 32 23  1  0
 31 26  1  0
  1 35  1  0
  2 36  1  0
  3 37  1  0
  6 38  1  0
  7 39  1  0
  7 40  1  0
  8 41  1  0
  8 42  1  0
  9 43  1  6
 13 44  1  0
 14 45  1  0
 14 46  1  0
 15 47  1  0
 15 48  1  0
 17 49  1  0
 17 50  1  0
 18 51  1  0
 18 52  1  0
 19 53  1  0
 19 54  1  0
 20 55  1  0
 20 56  1  0
 24 57  1  0
 24 58  1  0
 25 59  1  0
 25 60  1  0
 27 61  1  0
 28 62  1  0
 29 63  1  0
 30 64  1  0
 32 65  1  0
 32 66  1  0
 34 67  1  0
 34 68  1  0
M  END
>  <smiles>  (81) 
c1ccc2c(c1)CCC(c1nc(NCCN3CCCC3)nc(N3CCc4ccccc4C3)n1)C2

>  <score_type>  (81) 
oracle

>  <origin>  (81) 
autodockgpu

>  <m_score__min__energy>  (81) 
-9.8699999999999992

>  <m_primary>  (81) 
energy

>  <rmsd>  (81) 
4.759758245302391

>  <m_score__min__rmsd>  (81) 
4.759758245302391

>  <meeko>  (81) 
{"free_energy": -8.92, "intermolecular_energy": -10.71, "internal_energy": -1.85, "cluster_size": 47, "cluster_id": 2, "rank_in_cluster": 30}

>  <energy>  (81) 
-8.93

>  <cluster_rmsd>  (81) 
0.72

>  <cluster>  (81) 
2

$$$$

     RDKit          3D

 68 73  0  0  0  0  0  0  0  0999 V2000
  139.6090   68.0750  226.8850 C   0  0  0  0  0  0  0  0  0  0  0  0
  140.7330   68.8050  227.2200 C   0  0  0  0  0  0  0  0  0  0  0  0
  141.0540   69.8730  226.3950 C   0  0  0  0  0  0  0  0  0  0  0  0
  140.2700   70.1900  225.2790 C   0  0  0  0  0  0  0  0  0  0  0  0
  139.1580   69.4510  224.9660 C   0  0  0  0  0  0  0  0  0  0  0  0
  138.8320   68.3840  225.7840 C   0  0  0  0  0  0  0  0  0  0  0  0
  138.2820   69.7270  223.7980 C   0  0  0  0  0  0  0  0  0  0  0  0
  138.5410   71.1680  223.3890 C   0  0  0  0  0  0  0  0  0  0  0  0
  140.0280   71.2740  223.1280 C   0  0  1  0  0  0  0  0  0  0  0  0
  140.3560   72.4300  222.2710 C   0  0  0  0  0  0  0  0  0  0  0  0
  141.0420   72.3040  221.1070 N   0  0  0  0  0  0  0  0  0  0  0  0
  141.3300   73.3950  220.3430 C   0  0  0  0  0  0  0  0  0  0  0  0
  142.0500   73.2650  219.1230 N   0  0  0  0  0  0  0  0  0  0  0  0
  142.0500   71.9960  218.3810 C   0  0  0  0  0  0  0  0  0  0  0  0
  143.0820   71.1180  219.1030 C   0  0  0  0  0  0  0  0  0  0  0  0
  144.1210   71.9220  219.5300 N   0  0  0  0  0  0  0  0  0  0  0  0
  144.3100   72.3020  220.8590 C   0  0  0  0  0  0  0  0  0  0  0  0
  145.1190   73.5800  220.7890 C   0  0  0  0  0  0  0  0  0  0  0  0
  145.9410   73.3910  219.5230 C   0  0  0  0  0  0  0  0  0  0  0  0
  144.9350   72.6490  218.6400 C   0  0  0  0  0  0  0  0  0  0  0  0
  140.9330   74.6150  220.7370 N   0  0  0  0  0  0  0  0  0  0  0  0
  140.2480   74.7610  221.8920 C   0  0  0  0  0  0  0  0  0  0  0  0
  139.8030   76.0300  222.3670 N   0  0  0  0  0  0  0  0  0  0  0  0
  138.3790   76.2840  222.6430 C   0  0  0  0  0  0  0  0  0  0  0  0
  137.9690   77.4910  221.7840 C   0  0  0  0  0  0  0  0  0  0  0  0
  138.7530   78.6320  222.3830 C   0  0  0  0  0  0  0  0  0  0  0  0
  138.1420   79.8730  222.5500 C   0  0  0  0  0  0  0  0  0  0  0  0
  138.9250   80.8760  223.1100 C   0  0  0  0  0  0  0  0  0  0  0  0
  140.2360   80.6780  223.4860 C   0  0  0  0  0  0  0  0  0  0  0  0
  140.8210   79.4380  223.3120 C   0  0  0  0  0  0  0  0  0  0  0  0
  140.0600   78.4090  222.7520 C   0  0  0  0  0  0  0  0  0  0  0  0
  140.7520   77.1050  222.5940 C   0  0  0  0  0  0  0  0  0  0  0  0
  139.9760   73.6660  222.6290 N   0  0  0  0  0  0  0  0  0  0  0  0
  140.7080   71.3500  224.4770 C   0  0  0  0  0  0  0  0  0  0  0  0
  139.3228   67.2198  227.5149 H   0  0  0  0  0  0  0  0  0  0  0  0
  141.3441   68.5515  228.0988 H   0  0  0  0  0  0  0  0  0  0  0  0
  141.9412   70.4824  226.6218 H   0  0  0  0  0  0  0  0  0  0  0  0
  137.9449   67.7748  225.5559 H   0  0  0  0  0  0  0  0  0  0  0  0
  138.5296   69.0473  222.9693 H   0  0  0  0  0  0  0  0  0  0  0  0
  137.2230   69.5719  224.0521 H   0  0  0  0  0  0  0  0  0  0  0  0
  137.9758   71.4128  222.4776 H   0  0  0  0  0  0  0  0  0  0  0  0
  138.2214   71.8701  224.1732 H   0  0  0  0  0  0  0  0  0  0  0  0
  140.3857   70.3953  222.5713 H   0  0  0  0  0  0  0  0  0  0  0  0
  142.5790   74.0830  218.7640 H   0  0  0  0  0  0  0  0  0  0  0  0
  141.0546   71.5290  218.4124 H   0  0  0  0  0  0  0  0  0  0  0  0
  142.2965   72.1370  217.3183 H   0  0  0  0  0  0  0  0  0  0  0  0
  142.6118   70.6287  219.9687 H   0  0  0  0  0  0  0  0  0  0  0  0
  143.4614   70.3439  218.4197 H   0  0  0  0  0  0  0  0  0  0  0  0
  143.3428   72.4829  221.3508 H   0  0  0  0  0  0  0  0  0  0  0  0
  144.8192   71.5218  221.4438 H   0  0  0  0  0  0  0  0  0  0  0  0
  144.4636   74.4597  220.7080 H   0  0  0  0  0  0  0  0  0  0  0  0
  145.7333   73.7556  221.6844 H   0  0  0  0  0  0  0  0  0  0  0  0
  146.2336   74.3553  219.0819 H   0  0  0  0  0  0  0  0  0  0  0  0
  146.8944   72.8629  219.6721 H   0  0  0  0  0  0  0  0  0  0  0  0
  144.3305   73.3631  218.0615 H   0  0  0  0  0  0  0  0  0  0  0  0
  145.4352   71.9918  217.9134 H   0  0  0  0  0  0  0  0  0  0  0  0
  137.7777   75.4039  222.3712 H   0  0  0  0  0  0  0  0  0  0  0  0
  138.2137   76.4855  223.7117 H   0  0  0  0  0  0  0  0  0  0  0  0
  138.2440   77.3353  220.7304 H   0  0  0  0  0  0  0  0  0  0  0  0
  136.8836   77.6694  221.7860 H   0  0  0  0  0  0  0  0  0  0  0  0
  137.0971   80.0495  222.2549 H   0  0  0  0  0  0  0  0  0  0  0  0
  138.4790   81.8704  223.2594 H   0  0  0  0  0  0  0  0  0  0  0  0
  140.8152   81.5046  223.9234 H   0  0  0  0  0  0  0  0  0  0  0  0
  141.8659   79.2646  223.6088 H   0  0  0  0  0  0  0  0  0  0  0  0
  141.4381   77.1647  221.7363 H   0  0  0  0  0  0  0  0  0  0  0  0
  141.3056   76.8905  223.5200 H   0  0  0  0  0  0  0  0  0  0  0  0
  141.7998   71.3216  224.3461 H   0  0  0  0  0  0  0  0  0  0  0  0
  140.4399   72.2876  224.9860 H   0  0  0  0  0  0  0  0  0  0  0  0
  1  2  2  0
  2  3  1  0
  3  4  2  0
  4  5  1  0
  5  6  2  0
  5  7  1  0
  7  8  1  0
  8  9  1  0
  9 10  1  0
 10 11  2  0
 11 12  1  0
 12 13  1  0
 13 14  1  0
 14 15  1  0
 15 16  1  0
 16 17  1  0
 17 18  1  0
 18 19  1  0
 19 20  1  0
 12 21  2  0
 21 22  1  0
 22 23  1  0
 23 24  1  0
 24 25  1  0
 25 26  1  0
 26 27  2  0
 27 28  1  0
 28 29  2  0
 29 30  1  0
 30 31  2  0
 31 32  1  0
 22 33  2  0
  9 34  1  0
  6  1  1  0
 33 10  1  0
 34  4  1  0
 20 16  1  0
 32 23  1  0
 31 26  1  0
  1 35  1  0
  2 36  1  0
  3 37  1  0
  6 38  1  0
  7 39  1  0
  7 40  1  0
  8 41  1  0
  8 42  1  0
  9 43  1  6
 13 44  1  0
 14 45  1  0
 14 46  1  0
 15 47  1  0
 15 48  1  0
 17 49  1  0
 17 50  1  0
 18 51  1  0
 18 52  1  0
 19 53  1  0
 19 54  1  0
 20 55  1  0
 20 56  1  0
 24 57  1  0
 24 58  1  0
 25 59  1  0
 25 60  1  0
 27 61  1  0
 28 62  1  0
 29 63  1  0
 30 64  1  0
 32 65  1  0
 32 66  1  0
 34 67  1  0
 34 68  1  0
M  END
>  <smiles>  (82) 
c1ccc2c(c1)CCC(c1nc(NCCN3CCCC3)nc(N3CCc4ccccc4C3)n1)C2

>  <score_type>  (82) 
oracle

>  <origin>  (82) 
autodockgpu

>  <m_score__min__energy>  (82) 
-9.8699999999999992

>  <m_primary>  (82) 
energy

>  <rmsd>  (82) 
5.67733523097656

>  <m_score__min__rmsd>  (82) 
5.67733523097656

>  <meeko>  (82) 
{"free_energy": -8.77, "intermolecular_energy": -10.56, "internal_energy": -1.51, "cluster_size": 47, "cluster_id": 2, "rank_in_cluster": 35}

>  <energy>  (82) 
-8.93

>  <cluster_rmsd>  (82) 
0.88

>  <cluster>  (82) 
2

$$$$

     RDKit          3D

 68 73  0  0  0  0  0  0  0  0999 V2000
  139.9870   68.2650  227.4000 C   0  0  0  0  0  0  0  0  0  0  0  0
  140.8140   69.3010  227.7890 C   0  0  0  0  0  0  0  0  0  0  0  0
  141.0110   70.3220  226.8700 C   0  0  0  0  0  0  0  0  0  0  0  0
  140.3970   70.2960  225.6120 C   0  0  0  0  0  0  0  0  0  0  0  0
  139.5800   69.2570  225.2480 C   0  0  0  0  0  0  0  0  0  0  0  0
  139.3780   68.2350  226.1590 C   0  0  0  0  0  0  0  0  0  0  0  0
  138.8980   69.1620  223.9310 C   0  0  0  0  0  0  0  0  0  0  0  0
  138.8680   70.5670  223.3530 C   0  0  0  0  0  0  0  0  0  0  0  0
  140.3060   71.0390  223.3110 C   0  0  1  0  0  0  0  0  0  0  0  0
  140.4940   72.1420  222.3480 C   0  0  0  0  0  0  0  0  0  0  0  0
  140.9560   71.9400  221.0880 N   0  0  0  0  0  0  0  0  0  0  0  0
  141.1220   72.9840  220.2270 C   0  0  0  0  0  0  0  0  0  0  0  0
  141.6070   72.7740  218.9070 N   0  0  0  0  0  0  0  0  0  0  0  0
  141.7960   73.9050  217.9870 C   0  0  0  0  0  0  0  0  0  0  0  0
  143.3170   74.0190  217.8110 C   0  0  0  0  0  0  0  0  0  0  0  0
  143.9220   73.7330  219.0200 N   0  0  0  0  0  0  0  0  0  0  0  0
  144.0970   74.6700  220.0380 C   0  0  0  0  0  0  0  0  0  0  0  0
  145.2630   74.1490  220.8530 C   0  0  0  0  0  0  0  0  0  0  0  0
  145.1410   72.6410  220.6910 C   0  0  0  0  0  0  0  0  0  0  0  0
  144.6530   72.5500  219.2440 C   0  0  0  0  0  0  0  0  0  0  0  0
  140.8250   74.2330  220.6210 N   0  0  0  0  0  0  0  0  0  0  0  0
  140.3640   74.4540  221.8710 C   0  0  0  0  0  0  0  0  0  0  0  0
  140.0350   75.7570  222.3500 N   0  0  0  0  0  0  0  0  0  0  0  0
  138.6420   76.1340  222.6380 C   0  0  0  0  0  0  0  0  0  0  0  0
  138.3320   77.3730  221.7840 C   0  0  0  0  0  0  0  0  0  0  0  0
  139.2180   78.4400  222.3760 C   0  0  0  0  0  0  0  0  0  0  0  0
  138.7200   79.7300  222.5490 C   0  0  0  0  0  0  0  0  0  0  0  0
  139.5920   80.6600  223.1020 C   0  0  0  0  0  0  0  0  0  0  0  0
  140.8840   80.3470  223.4660 C   0  0  0  0  0  0  0  0  0  0  0  0
  141.3560   79.0610  223.2870 C   0  0  0  0  0  0  0  0  0  0  0  0
  140.5040   78.1030  222.7330 C   0  0  0  0  0  0  0  0  0  0  0  0
  141.0770   76.7440  222.5680 C   0  0  0  0  0  0  0  0  0  0  0  0
  140.2090   73.4050  222.7020 N   0  0  0  0  0  0  0  0  0  0  0  0
  140.6810   71.4390  224.7200 C   0  0  0  0  0  0  0  0  0  0  0  0
  139.8070   67.4365  228.1008 H   0  0  0  0  0  0  0  0  0  0  0  0
  141.2930   69.3159  228.7791 H   0  0  0  0  0  0  0  0  0  0  0  0
  141.6621   71.1680  227.1350 H   0  0  0  0  0  0  0  0  0  0  0  0
  138.7261   67.3899  225.8930 H   0  0  0  0  0  0  0  0  0  0  0  0
  139.4555   68.4890  223.2630 H   0  0  0  0  0  0  0  0  0  0  0  0
  137.8811   68.7570  224.0401 H   0  0  0  0  0  0  0  0  0  0  0  0
  138.4418   70.5529  222.3390 H   0  0  0  0  0  0  0  0  0  0  0  0
  138.2444   71.2373  223.9627 H   0  0  0  0  0  0  0  0  0  0  0  0
  140.9667   70.2338  222.9575 H   0  0  0  0  0  0  0  0  0  0  0  0
  141.8260   71.8070  218.6010 H   0  0  0  0  0  0  0  0  0  0  0  0
  141.3084   73.7046  217.0216 H   0  0  0  0  0  0  0  0  0  0  0  0
  141.3526   74.8339  218.3751 H   0  0  0  0  0  0  0  0  0  0  0  0
  143.6567   73.3033  217.0479 H   0  0  0  0  0  0  0  0  0  0  0  0
  143.5834   75.0362  217.4881 H   0  0  0  0  0  0  0  0  0  0  0  0
  144.3305   75.6592  219.6173 H   0  0  0  0  0  0  0  0  0  0  0  0
  143.1893   74.7935  220.6469 H   0  0  0  0  0  0  0  0  0  0  0  0
  146.2204   74.5142  220.4531 H   0  0  0  0  0  0  0  0  0  0  0  0
  145.2416   74.4772  221.9027 H   0  0  0  0  0  0  0  0  0  0  0  0
  146.1108   72.1393  220.8240 H   0  0  0  0  0  0  0  0  0  0  0  0
  144.4832   72.1545  221.4262 H   0  0  0  0  0  0  0  0  0  0  0  0
  145.5068   72.4887  218.5532 H   0  0  0  0  0  0  0  0  0  0  0  0
  144.0399   71.6524  219.0750 H   0  0  0  0  0  0  0  0  0  0  0  0
  137.9637   75.3103  222.3706 H   0  0  0  0  0  0  0  0  0  0  0  0
  138.5040   76.3476  223.7082 H   0  0  0  0  0  0  0  0  0  0  0  0
  138.5828   77.1952  220.7278 H   0  0  0  0  0  0  0  0  0  0  0  0
  137.2664   77.6458  221.7963 H   0  0  0  0  0  0  0  0  0  0  0  0
  137.6921   79.9977  222.2632 H   0  0  0  0  0  0  0  0  0  0  0  0
  139.2361   81.6894  223.2557 H   0  0  0  0  0  0  0  0  0  0  0  0
  141.5376   81.1192  223.8979 H   0  0  0  0  0  0  0  0  0  0  0  0
  142.3840   78.7964  223.5755 H   0  0  0  0  0  0  0  0  0  0  0  0
  141.7574   76.7442  221.7036 H   0  0  0  0  0  0  0  0  0  0  0  0
  141.6187   76.4806  223.4884 H   0  0  0  0  0  0  0  0  0  0  0  0
  141.7511   71.6897  224.7642 H   0  0  0  0  0  0  0  0  0  0  0  0
  140.1018   72.3202  225.0332 H   0  0  0  0  0  0  0  0  0  0  0  0
  1  2  2  0
  2  3  1  0
  3  4  2  0
  4  5  1  0
  5  6  2  0
  5  7  1  0
  7  8  1  0
  8  9  1  0
  9 10  1  0
 10 11  2  0
 11 12  1  0
 12 13  1  0
 13 14  1  0
 14 15  1  0
 15 16  1  0
 16 17  1  0
 17 18  1  0
 18 19  1  0
 19 20  1  0
 12 21  2  0
 21 22  1  0
 22 23  1  0
 23 24  1  0
 24 25  1  0
 25 26  1  0
 26 27  2  0
 27 28  1  0
 28 29  2  0
 29 30  1  0
 30 31  2  0
 31 32  1  0
 22 33  2  0
  9 34  1  0
  6  1  1  0
 33 10  1  0
 34  4  1  0
 20 16  1  0
 32 23  1  0
 31 26  1  0
  1 35  1  0
  2 36  1  0
  3 37  1  0
  6 38  1  0
  7 39  1  0
  7 40  1  0
  8 41  1  0
  8 42  1  0
  9 43  1  6
 13 44  1  0
 14 45  1  0
 14 46  1  0
 15 47  1  0
 15 48  1  0
 17 49  1  0
 17 50  1  0
 18 51  1  0
 18 52  1  0
 19 53  1  0
 19 54  1  0
 20 55  1  0
 20 56  1  0
 24 57  1  0
 24 58  1  0
 25 59  1  0
 25 60  1  0
 27 61  1  0
 28 62  1  0
 29 63  1  0
 30 64  1  0
 32 65  1  0
 32 66  1  0
 34 67  1  0
 34 68  1  0
M  END
>  <smiles>  (83) 
c1ccc2c(c1)CCC(c1nc(NCCN3CCCC3)nc(N3CCc4ccccc4C3)n1)C2

>  <score_type>  (83) 
oracle

>  <origin>  (83) 
autodockgpu

>  <m_score__min__energy>  (83) 
-9.8699999999999992

>  <m_primary>  (83) 
energy

>  <rmsd>  (83) 
5.501345681220178

>  <m_score__min__rmsd>  (83) 
5.501345681220178

>  <meeko>  (83) 
{"free_energy": -9.23, "intermolecular_energy": -11.02, "internal_energy": -1.67, "cluster_size": 47, "cluster_id": 2, "rank_in_cluster": 14}

>  <energy>  (83) 
-8.92

>  <cluster_rmsd>  (83) 
0.65

>  <cluster>  (83) 
2

$$$$

     RDKit          3D

 68 73  0  0  0  0  0  0  0  0999 V2000
  140.8090   80.8280  223.5910 C   0  0  0  0  0  0  0  0  0  0  0  0
  142.0530   80.3070  223.2960 C   0  0  0  0  0  0  0  0  0  0  0  0
  142.0870   79.0100  222.8030 C   0  0  0  0  0  0  0  0  0  0  0  0
  140.9120   78.2740  222.6160 C   0  0  0  0  0  0  0  0  0  0  0  0
  139.6870   78.8120  222.9160 C   0  0  0  0  0  0  0  0  0  0  0  0
  139.6450   80.1050  223.4080 C   0  0  0  0  0  0  0  0  0  0  0  0
  138.4000   78.0890  222.7450 C   0  0  0  0  0  0  0  0  0  0  0  0
  138.6630   76.9560  221.7650 C   0  0  0  0  0  0  0  0  0  0  0  0
  139.7950   76.1420  222.3520 C   0  0  1  0  0  0  0  0  0  0  0  0
  139.8340   74.7740  221.7990 C   0  0  0  0  0  0  0  0  0  0  0  0
  139.7760   74.5250  220.4660 N   0  0  0  0  0  0  0  0  0  0  0  0
  139.8100   73.2480  219.9910 C   0  0  0  0  0  0  0  0  0  0  0  0
  139.7490   72.9850  218.5940 N   0  0  0  0  0  0  0  0  0  0  0  0
  140.9740   72.9450  217.7820 C   0  0  0  0  0  0  0  0  0  0  0  0
  141.6620   74.2920  218.0430 C   0  0  0  0  0  0  0  0  0  0  0  0
  142.7300   74.0830  218.8930 N   0  0  0  0  0  0  0  0  0  0  0  0
  143.1850   72.8190  219.2680 C   0  0  0  0  0  0  0  0  0  0  0  0
  143.8990   73.0350  220.5860 C   0  0  0  0  0  0  0  0  0  0  0  0
  144.4350   74.4530  220.4520 C   0  0  0  0  0  0  0  0  0  0  0  0
  143.2970   75.1120  219.6690 C   0  0  0  0  0  0  0  0  0  0  0  0
  139.9030   72.2160  220.8440 N   0  0  0  0  0  0  0  0  0  0  0  0
  139.9620   72.4430  222.1740 C   0  0  0  0  0  0  0  0  0  0  0  0
  140.0570   71.3900  223.1310 N   0  0  0  0  0  0  0  0  0  0  0  0
  139.5550   70.0400  222.8320 C   0  0  0  0  0  0  0  0  0  0  0  0
  138.5270   69.6970  223.9210 C   0  0  0  0  0  0  0  0  0  0  0  0
  139.3610   69.5980  225.1740 C   0  0  0  0  0  0  0  0  0  0  0  0
  139.1090   68.5780  226.0890 C   0  0  0  0  0  0  0  0  0  0  0  0
  139.9180   68.5480  227.2180 C   0  0  0  0  0  0  0  0  0  0  0  0
  140.9200   69.4670  227.4430 C   0  0  0  0  0  0  0  0  0  0  0  0
  141.1520   70.4700  226.5220 C   0  0  0  0  0  0  0  0  0  0  0  0
  140.3560   70.5270  225.3760 C   0  0  0  0  0  0  0  0  0  0  0  0
  140.6600   71.6310  224.4300 C   0  0  0  0  0  0  0  0  0  0  0  0
  139.9270   73.7160  222.6180 N   0  0  0  0  0  0  0  0  0  0  0  0
  141.0730   76.9050  222.0830 C   0  0  0  0  0  0  0  0  0  0  0  0
  140.7418   81.8529  223.9849 H   0  0  0  0  0  0  0  0  0  0  0  0
  142.9729   80.8916  223.4445 H   0  0  0  0  0  0  0  0  0  0  0  0
  143.0559   78.5522  222.5547 H   0  0  0  0  0  0  0  0  0  0  0  0
  138.6756   80.5620  223.6559 H   0  0  0  0  0  0  0  0  0  0  0  0
  138.0610   77.6846  223.7102 H   0  0  0  0  0  0  0  0  0  0  0  0
  137.6144   78.7619  222.3708 H   0  0  0  0  0  0  0  0  0  0  0  0
  137.7636   76.3326  221.6530 H   0  0  0  0  0  0  0  0  0  0  0  0
  138.9225   77.3415  220.7680 H   0  0  0  0  0  0  0  0  0  0  0  0
  139.6533   76.0088  223.4347 H   0  0  0  0  0  0  0  0  0  0  0  0
  138.8220   72.8210  218.1550 H   0  0  0  0  0  0  0  0  0  0  0  0
  141.6204   72.1124  218.0966 H   0  0  0  0  0  0  0  0  0  0  0  0
  140.7595   72.7884  216.7145 H   0  0  0  0  0  0  0  0  0  0  0  0
  142.0213   74.7149  217.0933 H   0  0  0  0  0  0  0  0  0  0  0  0
  140.9502   74.9957  218.4993 H   0  0  0  0  0  0  0  0  0  0  0  0
  142.3403   72.1259  219.3949 H   0  0  0  0  0  0  0  0  0  0  0  0
  143.8450   72.3751  218.5082 H   0  0  0  0  0  0  0  0  0  0  0  0
  143.2012   72.9537  221.4324 H   0  0  0  0  0  0  0  0  0  0  0  0
  144.6840   72.2900  220.7827 H   0  0  0  0  0  0  0  0  0  0  0  0
  144.5789   74.9267  221.4343 H   0  0  0  0  0  0  0  0  0  0  0  0
  145.4220   74.5252  219.9718 H   0  0  0  0  0  0  0  0  0  0  0  0
  142.5487   75.5312  220.3577 H   0  0  0  0  0  0  0  0  0  0  0  0
  143.6583   75.9425  219.0447 H   0  0  0  0  0  0  0  0  0  0  0  0
  139.0767   70.0247  221.8415 H   0  0  0  0  0  0  0  0  0  0  0  0
  140.3757   69.3077  222.8195 H   0  0  0  0  0  0  0  0  0  0  0  0
  137.7719   70.4915  224.0131 H   0  0  0  0  0  0  0  0  0  0  0  0
  137.9662   68.7755  223.7057 H   0  0  0  0  0  0  0  0  0  0  0  0
  138.3127   67.8367  225.9263 H   0  0  0  0  0  0  0  0  0  0  0  0
  139.7517   67.7570  227.9641 H   0  0  0  0  0  0  0  0  0  0  0  0
  141.5335   69.4020  228.3537 H   0  0  0  0  0  0  0  0  0  0  0  0
  141.9488   71.2099  226.6882 H   0  0  0  0  0  0  0  0  0  0  0  0
  140.2661   72.5730  224.8393 H   0  0  0  0  0  0  0  0  0  0  0  0
  141.7510   71.6900  224.3022 H   0  0  0  0  0  0  0  0  0  0  0  0
  141.9167   76.4071  222.5832 H   0  0  0  0  0  0  0  0  0  0  0  0
  141.2763   76.9385  221.0025 H   0  0  0  0  0  0  0  0  0  0  0  0
  1  2  2  0
  2  3  1  0
  3  4  2  0
  4  5  1  0
  5  6  2  0
  5  7  1  0
  7  8  1  0
  8  9  1  0
  9 10  1  0
 10 11  2  0
 11 12  1  0
 12 13  1  0
 13 14  1  0
 14 15  1  0
 15 16  1  0
 16 17  1  0
 17 18  1  0
 18 19  1  0
 19 20  1  0
 12 21  2  0
 21 22  1  0
 22 23  1  0
 23 24  1  0
 24 25  1  0
 25 26  1  0
 26 27  2  0
 27 28  1  0
 28 29  2  0
 29 30  1  0
 30 31  2  0
 31 32  1  0
 22 33  2  0
  9 34  1  0
  6  1  1  0
 33 10  1  0
 34  4  1  0
 20 16  1  0
 32 23  1  0
 31 26  1  0
  1 35  1  0
  2 36  1  0
  3 37  1  0
  6 38  1  0
  7 39  1  0
  7 40  1  0
  8 41  1  0
  8 42  1  0
  9 43  1  1
 13 44  1  0
 14 45  1  0
 14 46  1  0
 15 47  1  0
 15 48  1  0
 17 49  1  0
 17 50  1  0
 18 51  1  0
 18 52  1  0
 19 53  1  0
 19 54  1  0
 20 55  1  0
 20 56  1  0
 24 57  1  0
 24 58  1  0
 25 59  1  0
 25 60  1  0
 27 61  1  0
 28 62  1  0
 29 63  1  0
 30 64  1  0
 32 65  1  0
 32 66  1  0
 34 67  1  0
 34 68  1  0
M  END
>  <smiles>  (84) 
c1ccc2c(c1)CCC(c1nc(NCCN3CCCC3)nc(N3CCc4ccccc4C3)n1)C2

>  <score_type>  (84) 
oracle

>  <origin>  (84) 
autodockgpu

>  <m_score__min__energy>  (84) 
-9.8699999999999992

>  <m_primary>  (84) 
energy

>  <rmsd>  (84) 
4.847351326862963

>  <m_score__min__rmsd>  (84) 
4.847351326862963

>  <meeko>  (84) 
{"free_energy": -8.99, "intermolecular_energy": -10.78, "internal_energy": -1.91, "cluster_size": 47, "cluster_id": 2, "rank_in_cluster": 25}

>  <energy>  (84) 
-8.85

>  <cluster_rmsd>  (84) 
1.1

>  <cluster>  (84) 
2

$$$$

     RDKit          3D

 68 73  0  0  0  0  0  0  0  0999 V2000
  140.9030   80.7880  223.5780 C   0  0  0  0  0  0  0  0  0  0  0  0
  142.1360   80.2280  223.3060 C   0  0  0  0  0  0  0  0  0  0  0  0
  142.1380   78.9280  222.8200 C   0  0  0  0  0  0  0  0  0  0  0  0
  140.9440   78.2260  222.6180 C   0  0  0  0  0  0  0  0  0  0  0  0
  139.7310   78.8030  222.8960 C   0  0  0  0  0  0  0  0  0  0  0  0
  139.7210   80.0990  223.3810 C   0  0  0  0  0  0  0  0  0  0  0  0
  138.4260   78.1180  222.7090 C   0  0  0  0  0  0  0  0  0  0  0  0
  138.6690   76.9730  221.7390 C   0  0  0  0  0  0  0  0  0  0  0  0
  139.7670   76.1280  222.3480 C   0  0  1  0  0  0  0  0  0  0  0  0
  139.7730   74.7560  221.8020 C   0  0  0  0  0  0  0  0  0  0  0  0
  139.6670   74.5000  220.4740 N   0  0  0  0  0  0  0  0  0  0  0  0
  139.6710   73.2200  220.0060 C   0  0  0  0  0  0  0  0  0  0  0  0
  139.5590   72.9490  218.6140 N   0  0  0  0  0  0  0  0  0  0  0  0
  140.6650   73.2570  217.6950 C   0  0  0  0  0  0  0  0  0  0  0  0
  141.9250   73.2100  218.5700 C   0  0  0  0  0  0  0  0  0  0  0  0
  142.2970   74.5040  218.8770 N   0  0  0  0  0  0  0  0  0  0  0  0
  141.7280   75.6330  218.2890 C   0  0  0  0  0  0  0  0  0  0  0  0
  142.7740   76.7190  218.4330 C   0  0  0  0  0  0  0  0  0  0  0  0
  143.4870   76.3330  219.7200 C   0  0  0  0  0  0  0  0  0  0  0  0
  143.4590   74.8070  219.6130 C   0  0  0  0  0  0  0  0  0  0  0  0
  139.7830   72.1920  220.8620 N   0  0  0  0  0  0  0  0  0  0  0  0
  139.8910   72.4260  222.1870 C   0  0  0  0  0  0  0  0  0  0  0  0
  140.0090   71.3790  223.1470 N   0  0  0  0  0  0  0  0  0  0  0  0
  139.5430   70.0150  222.8490 C   0  0  0  0  0  0  0  0  0  0  0  0
  138.5190   69.6480  223.9350 C   0  0  0  0  0  0  0  0  0  0  0  0
  139.3510   69.5740  225.1920 C   0  0  0  0  0  0  0  0  0  0  0  0
  139.1220   68.5490  226.1080 C   0  0  0  0  0  0  0  0  0  0  0  0
  139.9270   68.5420  227.2400 C   0  0  0  0  0  0  0  0  0  0  0  0
  140.9040   69.4880  227.4680 C   0  0  0  0  0  0  0  0  0  0  0  0
  141.1140   70.4940  226.5440 C   0  0  0  0  0  0  0  0  0  0  0  0
  140.3210   70.5280  225.3950 C   0  0  0  0  0  0  0  0  0  0  0  0
  140.6010   71.6370  224.4480 C   0  0  0  0  0  0  0  0  0  0  0  0
  139.8840   73.7020  222.6240 N   0  0  0  0  0  0  0  0  0  0  0  0
  141.0720   76.8510  222.0950 C   0  0  0  0  0  0  0  0  0  0  0  0
  140.8603   81.8170  223.9644 H   0  0  0  0  0  0  0  0  0  0  0  0
  143.0707   80.7852  223.4667 H   0  0  0  0  0  0  0  0  0  0  0  0
  143.0964   78.4399  222.5891 H   0  0  0  0  0  0  0  0  0  0  0  0
  138.7622   80.5861  223.6122 H   0  0  0  0  0  0  0  0  0  0  0  0
  138.0607   77.7290  223.6709 H   0  0  0  0  0  0  0  0  0  0  0  0
  137.6668   78.8122  222.3196 H   0  0  0  0  0  0  0  0  0  0  0  0
  137.7529   76.3767  221.6161 H   0  0  0  0  0  0  0  0  0  0  0  0
  138.9552   77.3450  220.7442 H   0  0  0  0  0  0  0  0  0  0  0  0
  139.6048   76.0049  223.4290 H   0  0  0  0  0  0  0  0  0  0  0  0
  138.6800   72.5280  218.2550 H   0  0  0  0  0  0  0  0  0  0  0  0
  140.7223   72.5071  216.8923 H   0  0  0  0  0  0  0  0  0  0  0  0
  140.5370   74.2323  217.2027 H   0  0  0  0  0  0  0  0  0  0  0  0
  141.7125   72.6559  219.4962 H   0  0  0  0  0  0  0  0  0  0  0  0
  142.7385   72.7032  218.0302 H   0  0  0  0  0  0  0  0  0  0  0  0
  141.5077   75.4467  217.2275 H   0  0  0  0  0  0  0  0  0  0  0  0
  140.7756   75.9109  218.7642 H   0  0  0  0  0  0  0  0  0  0  0  0
  143.4680   76.7161  217.5796 H   0  0  0  0  0  0  0  0  0  0  0  0
  142.3479   77.7328  218.4588 H   0  0  0  0  0  0  0  0  0  0  0  0
  144.5168   76.7188  219.7442 H   0  0  0  0  0  0  0  0  0  0  0  0
  143.0273   76.7351  220.6349 H   0  0  0  0  0  0  0  0  0  0  0  0
  144.3535   74.4418  219.0873 H   0  0  0  0  0  0  0  0  0  0  0  0
  143.4521   74.3280  220.6032 H   0  0  0  0  0  0  0  0  0  0  0  0
  139.0696   69.9850  221.8565 H   0  0  0  0  0  0  0  0  0  0  0  0
  140.3823   69.3041  222.8417 H   0  0  0  0  0  0  0  0  0  0  0  0
  137.7431   70.4229  224.0219 H   0  0  0  0  0  0  0  0  0  0  0  0
  137.9829   68.7119  223.7200 H   0  0  0  0  0  0  0  0  0  0  0  0
  138.3460   67.7869  225.9435 H   0  0  0  0  0  0  0  0  0  0  0  0
  139.7788   67.7478  227.9865 H   0  0  0  0  0  0  0  0  0  0  0  0
  141.5141   69.4421  228.3821 H   0  0  0  0  0  0  0  0  0  0  0  0
  141.8916   71.2541  226.7106 H   0  0  0  0  0  0  0  0  0  0  0  0
  140.1825   72.5698  224.8540 H   0  0  0  0  0  0  0  0  0  0  0  0
  141.6907   71.7224  224.3240 H   0  0  0  0  0  0  0  0  0  0  0  0
  141.8925   76.3308  222.6109 H   0  0  0  0  0  0  0  0  0  0  0  0
  141.2931   76.8723  221.0176 H   0  0  0  0  0  0  0  0  0  0  0  0
  1  2  2  0
  2  3  1  0
  3  4  2  0
  4  5  1  0
  5  6  2  0
  5  7  1  0
  7  8  1  0
  8  9  1  0
  9 10  1  0
 10 11  2  0
 11 12  1  0
 12 13  1  0
 13 14  1  0
 14 15  1  0
 15 16  1  0
 16 17  1  0
 17 18  1  0
 18 19  1  0
 19 20  1  0
 12 21  2  0
 21 22  1  0
 22 23  1  0
 23 24  1  0
 24 25  1  0
 25 26  1  0
 26 27  2  0
 27 28  1  0
 28 29  2  0
 29 30  1  0
 30 31  2  0
 31 32  1  0
 22 33  2  0
  9 34  1  0
  6  1  1  0
 33 10  1  0
 34  4  1  0
 20 16  1  0
 32 23  1  0
 31 26  1  0
  1 35  1  0
  2 36  1  0
  3 37  1  0
  6 38  1  0
  7 39  1  0
  7 40  1  0
  8 41  1  0
  8 42  1  0
  9 43  1  1
 13 44  1  0
 14 45  1  0
 14 46  1  0
 15 47  1  0
 15 48  1  0
 17 49  1  0
 17 50  1  0
 18 51  1  0
 18 52  1  0
 19 53  1  0
 19 54  1  0
 20 55  1  0
 20 56  1  0
 24 57  1  0
 24 58  1  0
 25 59  1  0
 25 60  1  0
 27 61  1  0
 28 62  1  0
 29 63  1  0
 30 64  1  0
 32 65  1  0
 32 66  1  0
 34 67  1  0
 34 68  1  0
M  END
>  <smiles>  (85) 
c1ccc2c(c1)CCC(c1nc(NCCN3CCCC3)nc(N3CCc4ccccc4C3)n1)C2

>  <score_type>  (85) 
oracle

>  <origin>  (85) 
autodockgpu

>  <m_score__min__energy>  (85) 
-9.8699999999999992

>  <m_primary>  (85) 
energy

>  <rmsd>  (85) 
3.8952027704989125

>  <m_score__min__rmsd>  (85) 
3.8952027704989125

>  <meeko>  (85) 
{"free_energy": -8.78, "intermolecular_energy": -10.57, "internal_energy": -1.98, "cluster_size": 47, "cluster_id": 2, "rank_in_cluster": 33}

>  <energy>  (85) 
-8.81

>  <cluster_rmsd>  (85) 
1.38

>  <cluster>  (85) 
2

$$$$

     RDKit          3D

 68 73  0  0  0  0  0  0  0  0999 V2000
  141.0610   80.8590  223.5420 C   0  0  0  0  0  0  0  0  0  0  0  0
  142.2550   80.3000  223.1300 C   0  0  0  0  0  0  0  0  0  0  0  0
  142.1970   79.0180  222.6010 C   0  0  0  0  0  0  0  0  0  0  0  0
  140.9810   78.3320  222.4930 C   0  0  0  0  0  0  0  0  0  0  0  0
  139.8080   78.9060  222.9090 C   0  0  0  0  0  0  0  0  0  0  0  0
  139.8580   80.1850  223.4370 C   0  0  0  0  0  0  0  0  0  0  0  0
  138.4840   78.2370  222.8270 C   0  0  0  0  0  0  0  0  0  0  0  0
  138.6190   77.1250  221.7990 C   0  0  0  0  0  0  0  0  0  0  0  0
  139.7630   76.2520  222.2680 C   0  0  1  0  0  0  0  0  0  0  0  0
  139.7020   74.9010  221.6760 C   0  0  0  0  0  0  0  0  0  0  0  0
  139.5010   74.6940  220.3500 N   0  0  0  0  0  0  0  0  0  0  0  0
  139.4460   73.4320  219.8400 C   0  0  0  0  0  0  0  0  0  0  0  0
  139.2340   73.2120  218.4510 N   0  0  0  0  0  0  0  0  0  0  0  0
  140.3650   73.1960  217.5110 C   0  0  0  0  0  0  0  0  0  0  0  0
  141.4900   72.4720  218.2630 C   0  0  0  0  0  0  0  0  0  0  0  0
  142.3410   73.4190  218.8000 N   0  0  0  0  0  0  0  0  0  0  0  0
  143.2120   73.1650  219.8580 C   0  0  0  0  0  0  0  0  0  0  0  0
  143.4700   74.5190  220.4870 C   0  0  0  0  0  0  0  0  0  0  0  0
  143.3490   75.4690  219.3050 C   0  0  0  0  0  0  0  0  0  0  0  0
  142.2270   74.7930  218.5130 C   0  0  0  0  0  0  0  0  0  0  0  0
  139.5920   72.3720  220.6510 N   0  0  0  0  0  0  0  0  0  0  0  0
  139.7930   72.5570  221.9740 C   0  0  0  0  0  0  0  0  0  0  0  0
  139.9520   71.4740  222.8870 N   0  0  0  0  0  0  0  0  0  0  0  0
  139.5540   70.1040  222.5230 C   0  0  0  0  0  0  0  0  0  0  0  0
  138.5390   69.6410  223.5790 C   0  0  0  0  0  0  0  0  0  0  0  0
  139.3600   69.5500  224.8410 C   0  0  0  0  0  0  0  0  0  0  0  0
  139.1710   68.4750  225.7080 C   0  0  0  0  0  0  0  0  0  0  0  0
  139.9650   68.4560  226.8490 C   0  0  0  0  0  0  0  0  0  0  0  0
  140.8930   69.4350  227.1300 C   0  0  0  0  0  0  0  0  0  0  0  0
  141.0640   70.4910  226.2550 C   0  0  0  0  0  0  0  0  0  0  0  0
  140.2820   70.5390  225.0990 C   0  0  0  0  0  0  0  0  0  0  0  0
  140.5170   71.7010  224.2050 C   0  0  0  0  0  0  0  0  0  0  0  0
  139.8440   73.8170  222.4530 N   0  0  0  0  0  0  0  0  0  0  0  0
  141.0440   76.9750  221.9130 C   0  0  0  0  0  0  0  0  0  0  0  0
  141.0672   81.8734  223.9675 H   0  0  0  0  0  0  0  0  0  0  0  0
  143.2066   80.8449  223.2170 H   0  0  0  0  0  0  0  0  0  0  0  0
  143.1232   78.5320  222.2604 H   0  0  0  0  0  0  0  0  0  0  0  0
  138.9310   80.6701  223.7765 H   0  0  0  0  0  0  0  0  0  0  0  0
  138.2103   77.8169  223.8061 H   0  0  0  0  0  0  0  0  0  0  0  0
  137.6978   78.9499  222.5376 H   0  0  0  0  0  0  0  0  0  0  0  0
  137.6893   76.5394  221.7466 H   0  0  0  0  0  0  0  0  0  0  0  0
  138.8098   77.5296  220.7940 H   0  0  0  0  0  0  0  0  0  0  0  0
  139.7062   76.0917  223.3548 H   0  0  0  0  0  0  0  0  0  0  0  0
  138.2650   73.0630  218.1080 H   0  0  0  0  0  0  0  0  0  0  0  0
  140.0987   72.6506  216.5936 H   0  0  0  0  0  0  0  0  0  0  0  0
  140.6594   74.2088  217.1985 H   0  0  0  0  0  0  0  0  0  0  0  0
  141.0619   71.8585  219.0694 H   0  0  0  0  0  0  0  0  0  0  0  0
  142.0430   71.8175  217.5732 H   0  0  0  0  0  0  0  0  0  0  0  0
  142.7480   72.4828  220.5855 H   0  0  0  0  0  0  0  0  0  0  0  0
  144.1412   72.6819  219.5215 H   0  0  0  0  0  0  0  0  0  0  0  0
  142.7188   74.7475  221.2574 H   0  0  0  0  0  0  0  0  0  0  0  0
  144.4414   74.5830  220.9992 H   0  0  0  0  0  0  0  0  0  0  0  0
  143.0651   76.4820  219.6263 H   0  0  0  0  0  0  0  0  0  0  0  0
  144.2814   75.6175  218.7406 H   0  0  0  0  0  0  0  0  0  0  0  0
  141.2461   75.1731  218.8346 H   0  0  0  0  0  0  0  0  0  0  0  0
  142.3097   74.9935  217.4346 H   0  0  0  0  0  0  0  0  0  0  0  0
  139.0919   70.0965  221.5248 H   0  0  0  0  0  0  0  0  0  0  0  0
  140.4262   69.4343  222.4937 H   0  0  0  0  0  0  0  0  0  0  0  0
  137.7262   70.3737  223.6908 H   0  0  0  0  0  0  0  0  0  0  0  0
  138.0508   68.6909  223.3162 H   0  0  0  0  0  0  0  0  0  0  0  0
  138.4341   67.6851  225.5007 H   0  0  0  0  0  0  0  0  0  0  0  0
  139.8473   67.6234  227.5582 H   0  0  0  0  0  0  0  0  0  0  0  0
  141.4960   69.3762  228.0481 H   0  0  0  0  0  0  0  0  0  0  0  0
  141.8022   71.2789  226.4652 H   0  0  0  0  0  0  0  0  0  0  0  0
  140.0495   72.5934  224.6466 H   0  0  0  0  0  0  0  0  0  0  0  0
  141.6025   71.8435  224.0981 H   0  0  0  0  0  0  0  0  0  0  0  0
  141.9059   76.4319  222.3278 H   0  0  0  0  0  0  0  0  0  0  0  0
  141.1589   77.0325  220.8205 H   0  0  0  0  0  0  0  0  0  0  0  0
  1  2  2  0
  2  3  1  0
  3  4  2  0
  4  5  1  0
  5  6  2  0
  5  7  1  0
  7  8  1  0
  8  9  1  0
  9 10  1  0
 10 11  2  0
 11 12  1  0
 12 13  1  0
 13 14  1  0
 14 15  1  0
 15 16  1  0
 16 17  1  0
 17 18  1  0
 18 19  1  0
 19 20  1  0
 12 21  2  0
 21 22  1  0
 22 23  1  0
 23 24  1  0
 24 25  1  0
 25 26  1  0
 26 27  2  0
 27 28  1  0
 28 29  2  0
 29 30  1  0
 30 31  2  0
 31 32  1  0
 22 33  2  0
  9 34  1  0
  6  1  1  0
 33 10  1  0
 34  4  1  0
 20 16  1  0
 32 23  1  0
 31 26  1  0
  1 35  1  0
  2 36  1  0
  3 37  1  0
  6 38  1  0
  7 39  1  0
  7 40  1  0
  8 41  1  0
  8 42  1  0
  9 43  1  1
 13 44  1  0
 14 45  1  0
 14 46  1  0
 15 47  1  0
 15 48  1  0
 17 49  1  0
 17 50  1  0
 18 51  1  0
 18 52  1  0
 19 53  1  0
 19 54  1  0
 20 55  1  0
 20 56  1  0
 24 57  1  0
 24 58  1  0
 25 59  1  0
 25 60  1  0
 27 61  1  0
 28 62  1  0
 29 63  1  0
 30 64  1  0
 32 65  1  0
 32 66  1  0
 34 67  1  0
 34 68  1  0
M  END
>  <smiles>  (86) 
c1ccc2c(c1)CCC(c1nc(NCCN3CCCC3)nc(N3CCc4ccccc4C3)n1)C2

>  <score_type>  (86) 
oracle

>  <origin>  (86) 
autodockgpu

>  <m_score__min__energy>  (86) 
-9.8699999999999992

>  <m_primary>  (86) 
energy

>  <rmsd>  (86) 
4.025549401094141

>  <m_score__min__rmsd>  (86) 
4.025549401094141

>  <meeko>  (86) 
{"free_energy": -8.62, "intermolecular_energy": -10.41, "internal_energy": -2.04, "cluster_size": 47, "cluster_id": 2, "rank_in_cluster": 44}

>  <energy>  (86) 
-8.78

>  <cluster_rmsd>  (86) 
1.48

>  <cluster>  (86) 
2

$$$$

     RDKit          3D

 68 73  0  0  0  0  0  0  0  0999 V2000
  140.0060   68.4200  227.5100 C   0  0  0  0  0  0  0  0  0  0  0  0
  140.9090   69.4270  227.7930 C   0  0  0  0  0  0  0  0  0  0  0  0
  141.0540   70.4230  226.8370 C   0  0  0  0  0  0  0  0  0  0  0  0
  140.3170   70.4020  225.6480 C   0  0  0  0  0  0  0  0  0  0  0  0
  139.4260   69.3920  225.3890 C   0  0  0  0  0  0  0  0  0  0  0  0
  139.2760   68.3950  226.3370 C   0  0  0  0  0  0  0  0  0  0  0  0
  138.6120   69.3030  224.1490 C   0  0  0  0  0  0  0  0  0  0  0  0
  138.5810   70.6990  223.5470 C   0  0  0  0  0  0  0  0  0  0  0  0
  140.0240   71.1090  223.3520 C   0  0  1  0  0  0  0  0  0  0  0  0
  140.1590   72.1870  222.3520 C   0  0  0  0  0  0  0  0  0  0  0  0
  140.4450   71.9420  221.0480 N   0  0  0  0  0  0  0  0  0  0  0  0
  140.5660   72.9630  220.1540 C   0  0  0  0  0  0  0  0  0  0  0  0
  140.8660   72.7070  218.7870 N   0  0  0  0  0  0  0  0  0  0  0  0
  142.2560   72.5160  218.3450 C   0  0  0  0  0  0  0  0  0  0  0  0
  142.9240   71.7300  219.4820 C   0  0  0  0  0  0  0  0  0  0  0  0
  143.8820   72.5340  220.0690 N   0  0  0  0  0  0  0  0  0  0  0  0
  143.6450   73.8440  220.4820 C   0  0  0  0  0  0  0  0  0  0  0  0
  145.0070   74.5070  220.4850 C   0  0  0  0  0  0  0  0  0  0  0  0
  145.9430   73.3530  220.8130 C   0  0  0  0  0  0  0  0  0  0  0  0
  145.2520   72.2080  220.0690 C   0  0  0  0  0  0  0  0  0  0  0  0
  140.4020   74.2330  220.5580 N   0  0  0  0  0  0  0  0  0  0  0  0
  140.1170   74.4980  221.8510 C   0  0  0  0  0  0  0  0  0  0  0  0
  139.9350   75.8240  222.3430 N   0  0  0  0  0  0  0  0  0  0  0  0
  138.5970   76.3330  222.6860 C   0  0  0  0  0  0  0  0  0  0  0  0
  138.3750   77.6000  221.8440 C   0  0  0  0  0  0  0  0  0  0  0  0
  139.3830   78.5740  222.4010 C   0  0  0  0  0  0  0  0  0  0  0  0
  139.0190   79.9050  222.5930 C   0  0  0  0  0  0  0  0  0  0  0  0
  139.9970   80.7440  223.1110 C   0  0  0  0  0  0  0  0  0  0  0  0
  141.2670   80.3070  223.4250 C   0  0  0  0  0  0  0  0  0  0  0  0
  141.6050   78.9820  223.2270 C   0  0  0  0  0  0  0  0  0  0  0  0
  140.6430   78.1130  222.7070 C   0  0  0  0  0  0  0  0  0  0  0  0
  141.0750   76.7050  222.5200 C   0  0  0  0  0  0  0  0  0  0  0  0
  140.0020   73.4690  222.7160 N   0  0  0  0  0  0  0  0  0  0  0  0
  140.5550   71.5160  224.7080 C   0  0  0  0  0  0  0  0  0  0  0  0
  139.8636   67.6118  228.2425 H   0  0  0  0  0  0  0  0  0  0  0  0
  141.4848   69.4388  228.7302 H   0  0  0  0  0  0  0  0  0  0  0  0
  141.7623   71.2449  227.0179 H   0  0  0  0  0  0  0  0  0  0  0  0
  138.5677   67.5734  226.1547 H   0  0  0  0  0  0  0  0  0  0  0  0
  139.0720   68.5957  223.4432 H   0  0  0  0  0  0  0  0  0  0  0  0
  137.5957   68.9430  224.3672 H   0  0  0  0  0  0  0  0  0  0  0  0
  138.0549   70.6857  222.5811 H   0  0  0  0  0  0  0  0  0  0  0  0
  138.0495   71.4052  224.2018 H   0  0  0  0  0  0  0  0  0  0  0  0
  140.6126   70.2707  222.9509 H   0  0  0  0  0  0  0  0  0  0  0  0
  140.0870   72.6590  218.1040 H   0  0  0  0  0  0  0  0  0  0  0  0
  142.2890   71.9433  217.4064 H   0  0  0  0  0  0  0  0  0  0  0  0
  142.7637   73.4714  218.1462 H   0  0  0  0  0  0  0  0  0  0  0  0
  142.1690   71.4464  220.2300 H   0  0  0  0  0  0  0  0  0  0  0  0
  143.3914   70.8171  219.0842 H   0  0  0  0  0  0  0  0  0  0  0  0
  142.9684   74.3540  219.7805 H   0  0  0  0  0  0  0  0  0  0  0  0
  143.1636   73.8848  221.4702 H   0  0  0  0  0  0  0  0  0  0  0  0
  145.2398   74.9384  219.5003 H   0  0  0  0  0  0  0  0  0  0  0  0
  145.0823   75.3440  221.1947 H   0  0  0  0  0  0  0  0  0  0  0  0
  146.9579   73.5323  220.4285 H   0  0  0  0  0  0  0  0  0  0  0  0
  146.0903   73.1758  221.8886 H   0  0  0  0  0  0  0  0  0  0  0  0
  145.6301   72.1351  219.0386 H   0  0  0  0  0  0  0  0  0  0  0  0
  145.4409   71.2361  220.5484 H   0  0  0  0  0  0  0  0  0  0  0  0
  137.8322   75.5798  222.4458 H   0  0  0  0  0  0  0  0  0  0  0  0
  138.5225   76.5550  223.7608 H   0  0  0  0  0  0  0  0  0  0  0  0
  138.5659   77.4027  220.7788 H   0  0  0  0  0  0  0  0  0  0  0  0
  137.3422   77.9746  221.8978 H   0  0  0  0  0  0  0  0  0  0  0  0
  138.0113   80.2716  222.3476 H   0  0  0  0  0  0  0  0  0  0  0  0
  139.7481   81.8024  223.2780 H   0  0  0  0  0  0  0  0  0  0  0  0
  142.0081   81.0109  223.8316 H   0  0  0  0  0  0  0  0  0  0  0  0
  142.6132   78.6182  223.4744 H   0  0  0  0  0  0  0  0  0  0  0  0
  141.7181   76.6425  221.6298 H   0  0  0  0  0  0  0  0  0  0  0  0
  141.6238   76.3873  223.4188 H   0  0  0  0  0  0  0  0  0  0  0  0
  141.6334   71.7220  224.6395 H   0  0  0  0  0  0  0  0  0  0  0  0
  140.0458   72.4257  225.0589 H   0  0  0  0  0  0  0  0  0  0  0  0
  1  2  2  0
  2  3  1  0
  3  4  2  0
  4  5  1  0
  5  6  2  0
  5  7  1  0
  7  8  1  0
  8  9  1  0
  9 10  1  0
 10 11  2  0
 11 12  1  0
 12 13  1  0
 13 14  1  0
 14 15  1  0
 15 16  1  0
 16 17  1  0
 17 18  1  0
 18 19  1  0
 19 20  1  0
 12 21  2  0
 21 22  1  0
 22 23  1  0
 23 24  1  0
 24 25  1  0
 25 26  1  0
 26 27  2  0
 27 28  1  0
 28 29  2  0
 29 30  1  0
 30 31  2  0
 31 32  1  0
 22 33  2  0
  9 34  1  0
  6  1  1  0
 33 10  1  0
 34  4  1  0
 20 16  1  0
 32 23  1  0
 31 26  1  0
  1 35  1  0
  2 36  1  0
  3 37  1  0
  6 38  1  0
  7 39  1  0
  7 40  1  0
  8 41  1  0
  8 42  1  0
  9 43  1  6
 13 44  1  0
 14 45  1  0
 14 46  1  0
 15 47  1  0
 15 48  1  0
 17 49  1  0
 17 50  1  0
 18 51  1  0
 18 52  1  0
 19 53  1  0
 19 54  1  0
 20 55  1  0
 20 56  1  0
 24 57  1  0
 24 58  1  0
 25 59  1  0
 25 60  1  0
 27 61  1  0
 28 62  1  0
 29 63  1  0
 30 64  1  0
 32 65  1  0
 32 66  1  0
 34 67  1  0
 34 68  1  0
M  END
>  <smiles>  (87) 
c1ccc2c(c1)CCC(c1nc(NCCN3CCCC3)nc(N3CCc4ccccc4C3)n1)C2

>  <score_type>  (87) 
oracle

>  <origin>  (87) 
autodockgpu

>  <m_score__min__energy>  (87) 
-9.8699999999999992

>  <m_primary>  (87) 
energy

>  <rmsd>  (87) 
5.614096304403398

>  <m_score__min__rmsd>  (87) 
5.614096304403398

>  <meeko>  (87) 
{"free_energy": -9.62, "intermolecular_energy": -11.41, "internal_energy": -1.46, "cluster_size": 47, "cluster_id": 2, "rank_in_cluster": 1}

>  <energy>  (87) 
-8.78

>  <cluster_rmsd>  (87) 
1.35

>  <cluster>  (87) 
2

$$$$

     RDKit          3D

 68 73  0  0  0  0  0  0  0  0999 V2000
  140.9160   80.8460  223.5440 C   0  0  0  0  0  0  0  0  0  0  0  0
  142.1490   80.3120  223.2230 C   0  0  0  0  0  0  0  0  0  0  0  0
  142.1600   79.0130  222.7350 C   0  0  0  0  0  0  0  0  0  0  0  0
  140.9740   78.2860  222.5770 C   0  0  0  0  0  0  0  0  0  0  0  0
  139.7610   78.8360  222.9030 C   0  0  0  0  0  0  0  0  0  0  0  0
  139.7420   80.1320  223.3900 C   0  0  0  0  0  0  0  0  0  0  0  0
  138.4640   78.1250  222.7640 C   0  0  0  0  0  0  0  0  0  0  0  0
  138.6940   76.9860  221.7840 C   0  0  0  0  0  0  0  0  0  0  0  0
  139.8330   76.1640  222.3490 C   0  0  1  0  0  0  0  0  0  0  0  0
  139.8470   74.7930  221.8000 C   0  0  0  0  0  0  0  0  0  0  0  0
  139.7610   74.5390  220.4700 N   0  0  0  0  0  0  0  0  0  0  0  0
  139.7720   73.2600  220.0000 C   0  0  0  0  0  0  0  0  0  0  0  0
  139.6820   72.9920  218.6060 N   0  0  0  0  0  0  0  0  0  0  0  0
  139.9850   74.0370  217.6170 C   0  0  0  0  0  0  0  0  0  0  0  0
  141.4990   73.9300  217.3860 C   0  0  0  0  0  0  0  0  0  0  0  0
  142.1480   74.6140  218.3960 N   0  0  0  0  0  0  0  0  0  0  0  0
  141.9680   75.9730  218.6490 C   0  0  0  0  0  0  0  0  0  0  0  0
  143.2310   76.4090  219.3640 C   0  0  0  0  0  0  0  0  0  0  0  0
  143.6480   75.1490  220.1080 C   0  0  0  0  0  0  0  0  0  0  0  0
  143.2440   74.0750  219.0970 C   0  0  0  0  0  0  0  0  0  0  0  0
  139.8710   72.2300  220.8560 N   0  0  0  0  0  0  0  0  0  0  0  0
  139.9580   72.4630  222.1830 C   0  0  0  0  0  0  0  0  0  0  0  0
  140.0610   71.4130  223.1430 N   0  0  0  0  0  0  0  0  0  0  0  0
  139.5740   70.0560  222.8450 C   0  0  0  0  0  0  0  0  0  0  0  0
  138.5450   69.7050  223.9310 C   0  0  0  0  0  0  0  0  0  0  0  0
  139.3760   69.6180  225.1870 C   0  0  0  0  0  0  0  0  0  0  0  0
  139.1320   68.5970  226.1030 C   0  0  0  0  0  0  0  0  0  0  0  0
  139.9370   68.5770  227.2350 C   0  0  0  0  0  0  0  0  0  0  0  0
  140.9290   69.5080  227.4620 C   0  0  0  0  0  0  0  0  0  0  0  0
  141.1540   70.5110  226.5390 C   0  0  0  0  0  0  0  0  0  0  0  0
  140.3610   70.5580  225.3900 C   0  0  0  0  0  0  0  0  0  0  0  0
  140.6570   71.6620  224.4430 C   0  0  0  0  0  0  0  0  0  0  0  0
  139.9440   73.7370  222.6220 N   0  0  0  0  0  0  0  0  0  0  0  0
  141.1110   76.9140  222.0470 C   0  0  0  0  0  0  0  0  0  0  0  0
  140.8666   81.8730  223.9350 H   0  0  0  0  0  0  0  0  0  0  0  0
  143.0773   80.8887  223.3482 H   0  0  0  0  0  0  0  0  0  0  0  0
  143.1190   78.5455  222.4672 H   0  0  0  0  0  0  0  0  0  0  0  0
  138.7824   80.5987  223.6573 H   0  0  0  0  0  0  0  0  0  0  0  0
  138.1428   77.7280  223.7383 H   0  0  0  0  0  0  0  0  0  0  0  0
  137.6768   78.8039  222.4044 H   0  0  0  0  0  0  0  0  0  0  0  0
  137.7868   76.3702  221.6958 H   0  0  0  0  0  0  0  0  0  0  0  0
  138.9337   77.3647  220.7794 H   0  0  0  0  0  0  0  0  0  0  0  0
  139.7154   76.0368  223.4353 H   0  0  0  0  0  0  0  0  0  0  0  0
  139.3960   72.0430  218.2960 H   0  0  0  0  0  0  0  0  0  0  0  0
  139.4363   73.8557  216.6810 H   0  0  0  0  0  0  0  0  0  0  0  0
  139.6874   75.0372  217.9649 H   0  0  0  0  0  0  0  0  0  0  0  0
  141.8023   72.8727  217.4000 H   0  0  0  0  0  0  0  0  0  0  0  0
  141.7619   74.3629  216.4095 H   0  0  0  0  0  0  0  0  0  0  0  0
  141.8451   76.5286  217.7076 H   0  0  0  0  0  0  0  0  0  0  0  0
  141.0661   76.1660  219.2484 H   0  0  0  0  0  0  0  0  0  0  0  0
  144.0050   76.7205  218.6471 H   0  0  0  0  0  0  0  0  0  0  0  0
  143.0809   77.2757  220.0245 H   0  0  0  0  0  0  0  0  0  0  0  0
  144.7302   75.1339  220.3045 H   0  0  0  0  0  0  0  0  0  0  0  0
  143.1919   75.0342  221.1024 H   0  0  0  0  0  0  0  0  0  0  0  0
  144.0749   73.8632  218.4080 H   0  0  0  0  0  0  0  0  0  0  0  0
  142.9874   73.1256  219.5897 H   0  0  0  0  0  0  0  0  0  0  0  0
  139.1000   70.0332  221.8527 H   0  0  0  0  0  0  0  0  0  0  0  0
  140.4023   69.3322  222.8375 H   0  0  0  0  0  0  0  0  0  0  0  0
  137.7813   70.4919  224.0183 H   0  0  0  0  0  0  0  0  0  0  0  0
  137.9941   68.7774  223.7161 H   0  0  0  0  0  0  0  0  0  0  0  0
  138.3443   67.8470  225.9387 H   0  0  0  0  0  0  0  0  0  0  0  0
  139.7765   67.7854  227.9817 H   0  0  0  0  0  0  0  0  0  0  0  0
  141.5393   69.4520  228.3755 H   0  0  0  0  0  0  0  0  0  0  0  0
  141.9432   71.2589  226.7058 H   0  0  0  0  0  0  0  0  0  0  0  0
  140.2527   72.6010  224.8490 H   0  0  0  0  0  0  0  0  0  0  0  0
  141.7478   71.7308  224.3185 H   0  0  0  0  0  0  0  0  0  0  0  0
  141.9616   76.4109  222.5300 H   0  0  0  0  0  0  0  0  0  0  0  0
  141.2899   76.9407  220.9620 H   0  0  0  0  0  0  0  0  0  0  0  0
  1  2  2  0
  2  3  1  0
  3  4  2  0
  4  5  1  0
  5  6  2  0
  5  7  1  0
  7  8  1  0
  8  9  1  0
  9 10  1  0
 10 11  2  0
 11 12  1  0
 12 13  1  0
 13 14  1  0
 14 15  1  0
 15 16  1  0
 16 17  1  0
 17 18  1  0
 18 19  1  0
 19 20  1  0
 12 21  2  0
 21 22  1  0
 22 23  1  0
 23 24  1  0
 24 25  1  0
 25 26  1  0
 26 27  2  0
 27 28  1  0
 28 29  2  0
 29 30  1  0
 30 31  2  0
 31 32  1  0
 22 33  2  0
  9 34  1  0
  6  1  1  0
 33 10  1  0
 34  4  1  0
 20 16  1  0
 32 23  1  0
 31 26  1  0
  1 35  1  0
  2 36  1  0
  3 37  1  0
  6 38  1  0
  7 39  1  0
  7 40  1  0
  8 41  1  0
  8 42  1  0
  9 43  1  1
 13 44  1  0
 14 45  1  0
 14 46  1  0
 15 47  1  0
 15 48  1  0
 17 49  1  0
 17 50  1  0
 18 51  1  0
 18 52  1  0
 19 53  1  0
 19 54  1  0
 20 55  1  0
 20 56  1  0
 24 57  1  0
 24 58  1  0
 25 59  1  0
 25 60  1  0
 27 61  1  0
 28 62  1  0
 29 63  1  0
 30 64  1  0
 32 65  1  0
 32 66  1  0
 34 67  1  0
 34 68  1  0
M  END
>  <smiles>  (88) 
c1ccc2c(c1)CCC(c1nc(NCCN3CCCC3)nc(N3CCc4ccccc4C3)n1)C2

>  <score_type>  (88) 
oracle

>  <origin>  (88) 
autodockgpu

>  <m_score__min__energy>  (88) 
-9.8699999999999992

>  <m_primary>  (88) 
energy

>  <rmsd>  (88) 
3.894957223206456

>  <m_score__min__rmsd>  (88) 
3.894957223206456

>  <meeko>  (88) 
{"free_energy": -8.76, "intermolecular_energy": -10.55, "internal_energy": -2.01, "cluster_size": 47, "cluster_id": 2, "rank_in_cluster": 37}

>  <energy>  (88) 
-8.77

>  <cluster_rmsd>  (88) 
0.9

>  <cluster>  (88) 
2

$$$$

     RDKit          3D

 68 73  0  0  0  0  0  0  0  0999 V2000
  140.6200   80.7890  223.6380 C   0  0  0  0  0  0  0  0  0  0  0  0
  141.8920   80.3020  223.4120 C   0  0  0  0  0  0  0  0  0  0  0  0
  141.9880   79.0070  222.9220 C   0  0  0  0  0  0  0  0  0  0  0  0
  140.8450   78.2390  222.6700 C   0  0  0  0  0  0  0  0  0  0  0  0
  139.5910   78.7440  222.9030 C   0  0  0  0  0  0  0  0  0  0  0  0
  139.4880   80.0340  223.3920 C   0  0  0  0  0  0  0  0  0  0  0  0
  138.3360   77.9870  222.6620 C   0  0  0  0  0  0  0  0  0  0  0  0
  138.6820   76.8630  221.6980 C   0  0  0  0  0  0  0  0  0  0  0  0
  139.8020   76.0790  222.3470 C   0  0  1  0  0  0  0  0  0  0  0  0
  139.9080   74.7130  221.7960 C   0  0  0  0  0  0  0  0  0  0  0  0
  139.9490   74.4660  220.4620 N   0  0  0  0  0  0  0  0  0  0  0  0
  140.0430   73.1910  219.9900 C   0  0  0  0  0  0  0  0  0  0  0  0
  140.0850   72.9290  218.5920 N   0  0  0  0  0  0  0  0  0  0  0  0
  141.3420   73.0610  217.8400 C   0  0  0  0  0  0  0  0  0  0  0  0
  142.0510   74.2680  218.4700 C   0  0  0  0  0  0  0  0  0  0  0  0
  143.0980   73.8080  219.2450 N   0  0  0  0  0  0  0  0  0  0  0  0
  143.3530   72.4580  219.4790 C   0  0  0  0  0  0  0  0  0  0  0  0
  144.1330   72.4250  220.7760 C   0  0  0  0  0  0  0  0  0  0  0  0
  144.8880   73.7460  220.7490 C   0  0  0  0  0  0  0  0  0  0  0  0
  143.8480   74.6520  220.0870 C   0  0  0  0  0  0  0  0  0  0  0  0
  140.0970   72.1590  220.8470 N   0  0  0  0  0  0  0  0  0  0  0  0
  140.0570   72.3840  222.1780 C   0  0  0  0  0  0  0  0  0  0  0  0
  140.1070   71.3320  223.1380 N   0  0  0  0  0  0  0  0  0  0  0  0
  139.5780   69.9930  222.8310 C   0  0  0  0  0  0  0  0  0  0  0  0
  138.5190   69.6780  223.8990 C   0  0  0  0  0  0  0  0  0  0  0  0
  139.3240   69.5610  225.1690 C   0  0  0  0  0  0  0  0  0  0  0  0
  139.0290   68.5490  226.0800 C   0  0  0  0  0  0  0  0  0  0  0  0
  139.8130   68.5020  227.2260 C   0  0  0  0  0  0  0  0  0  0  0  0
  140.8330   69.3980  227.4710 C   0  0  0  0  0  0  0  0  0  0  0  0
  141.1080   70.3930  226.5530 C   0  0  0  0  0  0  0  0  0  0  0  0
  140.3370   70.4670  225.3900 C   0  0  0  0  0  0  0  0  0  0  0  0
  140.6880   71.5600  224.4490 C   0  0  0  0  0  0  0  0  0  0  0  0
  139.9650   73.6550  222.6190 N   0  0  0  0  0  0  0  0  0  0  0  0
  141.0720   76.8760  222.1480 C   0  0  0  0  0  0  0  0  0  0  0  0
  140.5032   81.8114  224.0266 H   0  0  0  0  0  0  0  0  0  0  0  0
  142.7862   80.9110  223.6107 H   0  0  0  0  0  0  0  0  0  0  0  0
  142.9812   78.5759  222.7279 H   0  0  0  0  0  0  0  0  0  0  0  0
  138.4945   80.4639  223.5873 H   0  0  0  0  0  0  0  0  0  0  0  0
  137.9560   77.5722  223.6073 H   0  0  0  0  0  0  0  0  0  0  0  0
  137.5543   78.6392  222.2452 H   0  0  0  0  0  0  0  0  0  0  0  0
  137.8071   76.2159  221.5372 H   0  0  0  0  0  0  0  0  0  0  0  0
  138.9849   77.2562  220.7164 H   0  0  0  0  0  0  0  0  0  0  0  0
  139.6050   75.9410  223.4204 H   0  0  0  0  0  0  0  0  0  0  0  0
  139.2120   72.6430  218.1090 H   0  0  0  0  0  0  0  0  0  0  0  0
  141.9541   72.1532  217.9461 H   0  0  0  0  0  0  0  0  0  0  0  0
  141.1687   73.1972  216.7623 H   0  0  0  0  0  0  0  0  0  0  0  0
  142.4374   74.9261  217.6777 H   0  0  0  0  0  0  0  0  0  0  0  0
  141.3442   74.8369  219.0920 H   0  0  0  0  0  0  0  0  0  0  0  0
  142.4112   71.8986  219.5800 H   0  0  0  0  0  0  0  0  0  0  0  0
  143.9085   71.9932  218.6512 H   0  0  0  0  0  0  0  0  0  0  0  0
  143.4581   72.3720  221.6430 H   0  0  0  0  0  0  0  0  0  0  0  0
  144.7917   71.5486  220.8659 H   0  0  0  0  0  0  0  0  0  0  0  0
  145.1391   74.0904  221.7631 H   0  0  0  0  0  0  0  0  0  0  0  0
  145.8574   73.7079  220.2304 H   0  0  0  0  0  0  0  0  0  0  0  0
  143.1994   75.1125  220.8468 H   0  0  0  0  0  0  0  0  0  0  0  0
  144.3186   75.4741  219.5278 H   0  0  0  0  0  0  0  0  0  0  0  0
  139.1204   69.9869  221.8307 H   0  0  0  0  0  0  0  0  0  0  0  0
  140.3806   69.2407  222.8372 H   0  0  0  0  0  0  0  0  0  0  0  0
  137.7822   70.4913  223.9740 H   0  0  0  0  0  0  0  0  0  0  0  0
  137.9399   68.7704  223.6736 H   0  0  0  0  0  0  0  0  0  0  0  0
  138.2192   67.8263  225.9016 H   0  0  0  0  0  0  0  0  0  0  0  0
  139.6119   67.7169  227.9697 H   0  0  0  0  0  0  0  0  0  0  0  0
  141.4255   69.3204  228.3945 H   0  0  0  0  0  0  0  0  0  0  0  0
  141.9190   71.1137  226.7342 H   0  0  0  0  0  0  0  0  0  0  0  0
  140.3094   72.5125  224.8484 H   0  0  0  0  0  0  0  0  0  0  0  0
  141.7825   71.5907  224.3440 H   0  0  0  0  0  0  0  0  0  0  0  0
  141.9000   76.4006  222.6943 H   0  0  0  0  0  0  0  0  0  0  0  0
  141.3337   76.9155  221.0803 H   0  0  0  0  0  0  0  0  0  0  0  0
  1  2  2  0
  2  3  1  0
  3  4  2  0
  4  5  1  0
  5  6  2  0
  5  7  1  0
  7  8  1  0
  8  9  1  0
  9 10  1  0
 10 11  2  0
 11 12  1  0
 12 13  1  0
 13 14  1  0
 14 15  1  0
 15 16  1  0
 16 17  1  0
 17 18  1  0
 18 19  1  0
 19 20  1  0
 12 21  2  0
 21 22  1  0
 22 23  1  0
 23 24  1  0
 24 25  1  0
 25 26  1  0
 26 27  2  0
 27 28  1  0
 28 29  2  0
 29 30  1  0
 30 31  2  0
 31 32  1  0
 22 33  2  0
  9 34  1  0
  6  1  1  0
 33 10  1  0
 34  4  1  0
 20 16  1  0
 32 23  1  0
 31 26  1  0
  1 35  1  0
  2 36  1  0
  3 37  1  0
  6 38  1  0
  7 39  1  0
  7 40  1  0
  8 41  1  0
  8 42  1  0
  9 43  1  1
 13 44  1  0
 14 45  1  0
 14 46  1  0
 15 47  1  0
 15 48  1  0
 17 49  1  0
 17 50  1  0
 18 51  1  0
 18 52  1  0
 19 53  1  0
 19 54  1  0
 20 55  1  0
 20 56  1  0
 24 57  1  0
 24 58  1  0
 25 59  1  0
 25 60  1  0
 27 61  1  0
 28 62  1  0
 29 63  1  0
 30 64  1  0
 32 65  1  0
 32 66  1  0
 34 67  1  0
 34 68  1  0
M  END
>  <smiles>  (89) 
c1ccc2c(c1)CCC(c1nc(NCCN3CCCC3)nc(N3CCc4ccccc4C3)n1)C2

>  <score_type>  (89) 
oracle

>  <origin>  (89) 
autodockgpu

>  <m_score__min__energy>  (89) 
-9.8699999999999992

>  <m_primary>  (89) 
energy

>  <rmsd>  (89) 
5.281147616772269

>  <m_score__min__rmsd>  (89) 
5.281147616772269

>  <meeko>  (89) 
{"free_energy": -9.16, "intermolecular_energy": -10.95, "internal_energy": -1.77, "cluster_size": 47, "cluster_id": 2, "rank_in_cluster": 20}

>  <energy>  (89) 
-8.76

>  <cluster_rmsd>  (89) 
1.25

>  <cluster>  (89) 
2

$$$$

     RDKit          3D

 68 73  0  0  0  0  0  0  0  0999 V2000
  140.0220   68.3970  227.5640 C   0  0  0  0  0  0  0  0  0  0  0  0
  140.8300   69.4580  227.9260 C   0  0  0  0  0  0  0  0  0  0  0  0
  141.0200   70.4530  226.9770 C   0  0  0  0  0  0  0  0  0  0  0  0
  140.4160   70.3780  225.7160 C   0  0  0  0  0  0  0  0  0  0  0  0
  139.6180   69.3160  225.3780 C   0  0  0  0  0  0  0  0  0  0  0  0
  139.4250   68.3190  226.3190 C   0  0  0  0  0  0  0  0  0  0  0  0
  138.9490   69.1690  224.0600 C   0  0  0  0  0  0  0  0  0  0  0  0
  138.9020   70.5550  223.4380 C   0  0  0  0  0  0  0  0  0  0  0  0
  140.3330   71.0480  223.3920 C   0  0  1  0  0  0  0  0  0  0  0  0
  140.5120   72.1240  222.3970 C   0  0  0  0  0  0  0  0  0  0  0  0
  140.9810   71.8890  221.1450 N   0  0  0  0  0  0  0  0  0  0  0  0
  141.1380   72.9070  220.2540 C   0  0  0  0  0  0  0  0  0  0  0  0
  141.6300   72.6640  218.9420 N   0  0  0  0  0  0  0  0  0  0  0  0
  142.4920   71.5050  218.6650 C   0  0  0  0  0  0  0  0  0  0  0  0
  143.7670   72.1020  218.0530 C   0  0  0  0  0  0  0  0  0  0  0  0
  144.4570   72.7740  219.0430 N   0  0  0  0  0  0  0  0  0  0  0  0
  145.3140   72.1510  219.9490 C   0  0  0  0  0  0  0  0  0  0  0  0
  145.3570   73.0770  221.1470 C   0  0  0  0  0  0  0  0  0  0  0  0
  145.1520   74.4490  220.5210 C   0  0  0  0  0  0  0  0  0  0  0  0
  144.1660   74.1040  219.4030 C   0  0  0  0  0  0  0  0  0  0  0  0
  140.8260   74.1640  220.6090 N   0  0  0  0  0  0  0  0  0  0  0  0
  140.3570   74.4190  221.8490 C   0  0  0  0  0  0  0  0  0  0  0  0
  140.0120   75.7310  222.2880 N   0  0  0  0  0  0  0  0  0  0  0  0
  138.6060   76.1390  222.4390 C   0  0  0  0  0  0  0  0  0  0  0  0
  138.4060   77.3780  221.5520 C   0  0  0  0  0  0  0  0  0  0  0  0
  139.2540   78.4310  222.2210 C   0  0  0  0  0  0  0  0  0  0  0  0
  138.7690   79.7320  222.3380 C   0  0  0  0  0  0  0  0  0  0  0  0
  139.6040   80.6480  222.9680 C   0  0  0  0  0  0  0  0  0  0  0  0
  140.8480   80.3110  223.4560 C   0  0  0  0  0  0  0  0  0  0  0  0
  141.3070   79.0140  223.3300 C   0  0  0  0  0  0  0  0  0  0  0  0
  140.4920   78.0700  222.7020 C   0  0  0  0  0  0  0  0  0  0  0  0
  141.0490   76.6980  222.6000 C   0  0  0  0  0  0  0  0  0  0  0  0
  140.2110   73.3930  222.7120 N   0  0  0  0  0  0  0  0  0  0  0  0
  140.6890   71.4970  224.7910 C   0  0  0  0  0  0  0  0  0  0  0  0
  139.8481   67.5886  228.2894 H   0  0  0  0  0  0  0  0  0  0  0  0
  141.3002   69.5115  228.9190 H   0  0  0  0  0  0  0  0  0  0  0  0
  141.6568   71.3164  227.2201 H   0  0  0  0  0  0  0  0  0  0  0  0
  138.7897   67.4552  226.0736 H   0  0  0  0  0  0  0  0  0  0  0  0
  139.5225   68.4844  223.4178 H   0  0  0  0  0  0  0  0  0  0  0  0
  137.9377   68.7514  224.1736 H   0  0  0  0  0  0  0  0  0  0  0  0
  138.4842   70.5026  222.4218 H   0  0  0  0  0  0  0  0  0  0  0  0
  138.2634   71.2342  224.0218 H   0  0  0  0  0  0  0  0  0  0  0  0
  141.0092   70.2431  223.0680 H   0  0  0  0  0  0  0  0  0  0  0  0
  141.3710   73.3190  218.1800 H   0  0  0  0  0  0  0  0  0  0  0  0
  142.7247   70.9642  219.5942 H   0  0  0  0  0  0  0  0  0  0  0  0
  142.0094   70.7796  217.9935 H   0  0  0  0  0  0  0  0  0  0  0  0
  144.3949   71.2962  217.6451 H   0  0  0  0  0  0  0  0  0  0  0  0
  143.5052   72.7952  217.2400 H   0  0  0  0  0  0  0  0  0  0  0  0
  144.9218   71.1644  220.2367 H   0  0  0  0  0  0  0  0  0  0  0  0
  146.3134   71.9801  219.5224 H   0  0  0  0  0  0  0  0  0  0  0  0
  144.5517   72.8419  221.8585 H   0  0  0  0  0  0  0  0  0  0  0  0
  146.2893   72.9974  221.7254 H   0  0  0  0  0  0  0  0  0  0  0  0
  144.7188   75.1615  221.2383 H   0  0  0  0  0  0  0  0  0  0  0  0
  146.0761   74.9391  220.1807 H   0  0  0  0  0  0  0  0  0  0  0  0
  143.1304   74.1868  219.7645 H   0  0  0  0  0  0  0  0  0  0  0  0
  144.2622   74.7890  218.5477 H   0  0  0  0  0  0  0  0  0  0  0  0
  137.9390   75.3276  222.1123 H   0  0  0  0  0  0  0  0  0  0  0  0
  138.3706   76.3635  223.4898 H   0  0  0  0  0  0  0  0  0  0  0  0
  138.7533   77.1871  220.5259 H   0  0  0  0  0  0  0  0  0  0  0  0
  137.3503   77.6730  221.4600 H   0  0  0  0  0  0  0  0  0  0  0  0
  137.7793   80.0188  221.9529 H   0  0  0  0  0  0  0  0  0  0  0  0
  139.2570   81.6856  223.0817 H   0  0  0  0  0  0  0  0  0  0  0  0
  141.4737   81.0725  223.9444 H   0  0  0  0  0  0  0  0  0  0  0  0
  142.2966   78.7301  223.7174 H   0  0  0  0  0  0  0  0  0  0  0  0
  141.8091   76.6777  221.8051 H   0  0  0  0  0  0  0  0  0  0  0  0
  141.4938   76.4302  223.5698 H   0  0  0  0  0  0  0  0  0  0  0  0
  141.7545   71.7665  224.8362 H   0  0  0  0  0  0  0  0  0  0  0  0
  140.0925   72.3775  225.0718 H   0  0  0  0  0  0  0  0  0  0  0  0
  1  2  2  0
  2  3  1  0
  3  4  2  0
  4  5  1  0
  5  6  2  0
  5  7  1  0
  7  8  1  0
  8  9  1  0
  9 10  1  0
 10 11  2  0
 11 12  1  0
 12 13  1  0
 13 14  1  0
 14 15  1  0
 15 16  1  0
 16 17  1  0
 17 18  1  0
 18 19  1  0
 19 20  1  0
 12 21  2  0
 21 22  1  0
 22 23  1  0
 23 24  1  0
 24 25  1  0
 25 26  1  0
 26 27  2  0
 27 28  1  0
 28 29  2  0
 29 30  1  0
 30 31  2  0
 31 32  1  0
 22 33  2  0
  9 34  1  0
  6  1  1  0
 33 10  1  0
 34  4  1  0
 20 16  1  0
 32 23  1  0
 31 26  1  0
  1 35  1  0
  2 36  1  0
  3 37  1  0
  6 38  1  0
  7 39  1  0
  7 40  1  0
  8 41  1  0
  8 42  1  0
  9 43  1  6
 13 44  1  0
 14 45  1  0
 14 46  1  0
 15 47  1  0
 15 48  1  0
 17 49  1  0
 17 50  1  0
 18 51  1  0
 18 52  1  0
 19 53  1  0
 19 54  1  0
 20 55  1  0
 20 56  1  0
 24 57  1  0
 24 58  1  0
 25 59  1  0
 25 60  1  0
 27 61  1  0
 28 62  1  0
 29 63  1  0
 30 64  1  0
 32 65  1  0
 32 66  1  0
 34 67  1  0
 34 68  1  0
M  END
>  <smiles>  (90) 
c1ccc2c(c1)CCC(c1nc(NCCN3CCCC3)nc(N3CCc4ccccc4C3)n1)C2

>  <score_type>  (90) 
oracle

>  <origin>  (90) 
autodockgpu

>  <m_score__min__energy>  (90) 
-9.8699999999999992

>  <m_primary>  (90) 
energy

>  <rmsd>  (90) 
5.759230102385613

>  <m_score__min__rmsd>  (90) 
5.759230102385613

>  <meeko>  (90) 
{"free_energy": -9.25, "intermolecular_energy": -11.04, "internal_energy": -1.47, "cluster_size": 47, "cluster_id": 2, "rank_in_cluster": 13}

>  <energy>  (90) 
-8.76

>  <cluster_rmsd>  (90) 
1.47

>  <cluster>  (90) 
2

$$$$

     RDKit          3D

 68 73  0  0  0  0  0  0  0  0999 V2000
  140.7000   80.8330  223.5790 C   0  0  0  0  0  0  0  0  0  0  0  0
  141.9580   80.2660  223.5150 C   0  0  0  0  0  0  0  0  0  0  0  0
  142.0300   78.9510  223.0760 C   0  0  0  0  0  0  0  0  0  0  0  0
  140.8780   78.2410  222.7170 C   0  0  0  0  0  0  0  0  0  0  0  0
  139.6390   78.8240  222.7890 C   0  0  0  0  0  0  0  0  0  0  0  0
  139.5590   80.1350  223.2260 C   0  0  0  0  0  0  0  0  0  0  0  0
  138.3760   78.1320  222.4280 C   0  0  0  0  0  0  0  0  0  0  0  0
  138.7600   76.9560  221.5440 C   0  0  0  0  0  0  0  0  0  0  0  0
  139.7500   76.1330  222.3390 C   0  0  1  0  0  0  0  0  0  0  0  0
  139.8340   74.7450  221.8440 C   0  0  0  0  0  0  0  0  0  0  0  0
  139.8180   74.4400  220.5220 N   0  0  0  0  0  0  0  0  0  0  0  0
  139.8930   73.1460  220.1010 C   0  0  0  0  0  0  0  0  0  0  0  0
  139.8750   72.8240  218.7160 N   0  0  0  0  0  0  0  0  0  0  0  0
  140.8570   73.4140  217.7940 C   0  0  0  0  0  0  0  0  0  0  0  0
  140.4530   74.8910  217.6850 C   0  0  0  0  0  0  0  0  0  0  0  0
  141.3240   75.6430  218.4510 N   0  0  0  0  0  0  0  0  0  0  0  0
  141.1700   77.0090  218.6800 C   0  0  0  0  0  0  0  0  0  0  0  0
  142.5610   77.5100  219.0090 C   0  0  0  0  0  0  0  0  0  0  0  0
  143.2070   76.3020  219.6710 C   0  0  0  0  0  0  0  0  0  0  0  0
  142.5860   75.1660  218.8560 C   0  0  0  0  0  0  0  0  0  0  0  0
  139.9860   72.1520  220.9990 N   0  0  0  0  0  0  0  0  0  0  0  0
  140.0050   72.4350  222.3190 C   0  0  0  0  0  0  0  0  0  0  0  0
  140.0980   71.4250  223.3220 N   0  0  0  0  0  0  0  0  0  0  0  0
  139.5960   70.0630  223.0810 C   0  0  0  0  0  0  0  0  0  0  0  0
  138.5650   69.7680  224.1820 C   0  0  0  0  0  0  0  0  0  0  0  0
  139.3970   69.7240  225.4400 C   0  0  0  0  0  0  0  0  0  0  0  0
  139.1440   68.7450  226.3980 C   0  0  0  0  0  0  0  0  0  0  0  0
  139.9510   68.7640  227.5290 C   0  0  0  0  0  0  0  0  0  0  0  0
  140.9530   69.6930  227.7160 C   0  0  0  0  0  0  0  0  0  0  0  0
  141.1860   70.6540  226.7520 C   0  0  0  0  0  0  0  0  0  0  0  0
  140.3920   70.6610  225.6030 C   0  0  0  0  0  0  0  0  0  0  0  0
  140.6980   71.7220  224.6100 C   0  0  0  0  0  0  0  0  0  0  0  0
  139.9290   73.7240  222.7090 N   0  0  0  0  0  0  0  0  0  0  0  0
  141.0800   76.8500  222.2640 C   0  0  0  0  0  0  0  0  0  0  0  0
  140.6023   81.8736  223.9219 H   0  0  0  0  0  0  0  0  0  0  0  0
  142.8593   80.8294  223.7983 H   0  0  0  0  0  0  0  0  0  0  0  0
  143.0108   78.4575  223.0090 H   0  0  0  0  0  0  0  0  0  0  0  0
  138.5775   80.6271  223.2933 H   0  0  0  0  0  0  0  0  0  0  0  0
  137.8670   77.7742  223.3351 H   0  0  0  0  0  0  0  0  0  0  0  0
  137.6875   78.8121  221.9051 H   0  0  0  0  0  0  0  0  0  0  0  0
  137.8712   76.3544  221.3030 H   0  0  0  0  0  0  0  0  0  0  0  0
  139.1953   77.2961  220.5928 H   0  0  0  0  0  0  0  0  0  0  0  0
  139.4258   76.0438  223.3864 H   0  0  0  0  0  0  0  0  0  0  0  0
  139.1560   72.1630  218.3640 H   0  0  0  0  0  0  0  0  0  0  0  0
  141.8751   73.3195  218.1996 H   0  0  0  0  0  0  0  0  0  0  0  0
  140.8627   72.9114  216.8156 H   0  0  0  0  0  0  0  0  0  0  0  0
  140.5089   75.2142  216.6350 H   0  0  0  0  0  0  0  0  0  0  0  0
  139.4223   75.0267  218.0446 H   0  0  0  0  0  0  0  0  0  0  0  0
  140.7809   77.5103  217.7815 H   0  0  0  0  0  0  0  0  0  0  0  0
  140.4544   77.2143  219.4897 H   0  0  0  0  0  0  0  0  0  0  0  0
  143.1038   77.7995  218.0971 H   0  0  0  0  0  0  0  0  0  0  0  0
  142.5614   78.4072  219.6454 H   0  0  0  0  0  0  0  0  0  0  0  0
  144.3022   76.3217  219.5698 H   0  0  0  0  0  0  0  0  0  0  0  0
  143.0381   76.2310  220.7556 H   0  0  0  0  0  0  0  0  0  0  0  0
  143.2097   74.9354  217.9797 H   0  0  0  0  0  0  0  0  0  0  0  0
  142.5041   74.2390  219.4425 H   0  0  0  0  0  0  0  0  0  0  0  0
  139.1199   70.0046  222.0911 H   0  0  0  0  0  0  0  0  0  0  0  0
  140.4164   69.3306  223.1023 H   0  0  0  0  0  0  0  0  0  0  0  0
  137.8098   70.5659  224.2376 H   0  0  0  0  0  0  0  0  0  0  0  0
  138.0042   68.8382  224.0062 H   0  0  0  0  0  0  0  0  0  0  0  0
  138.3482   67.9971  226.2663 H   0  0  0  0  0  0  0  0  0  0  0  0
  139.7836   68.0059  228.3083 H   0  0  0  0  0  0  0  0  0  0  0  0
  141.5646   69.6686  228.6300 H   0  0  0  0  0  0  0  0  0  0  0  0
  141.9826   71.4005  226.8866 H   0  0  0  0  0  0  0  0  0  0  0  0
  140.3036   72.6811  224.9768 H   0  0  0  0  0  0  0  0  0  0  0  0
  141.7892   71.7746  224.4819 H   0  0  0  0  0  0  0  0  0  0  0  0
  141.8111   76.3484  222.9150 H   0  0  0  0  0  0  0  0  0  0  0  0
  141.4621   76.8370  221.2326 H   0  0  0  0  0  0  0  0  0  0  0  0
  1  2  2  0
  2  3  1  0
  3  4  2  0
  4  5  1  0
  5  6  2  0
  5  7  1  0
  7  8  1  0
  8  9  1  0
  9 10  1  0
 10 11  2  0
 11 12  1  0
 12 13  1  0
 13 14  1  0
 14 15  1  0
 15 16  1  0
 16 17  1  0
 17 18  1  0
 18 19  1  0
 19 20  1  0
 12 21  2  0
 21 22  1  0
 22 23  1  0
 23 24  1  0
 24 25  1  0
 25 26  1  0
 26 27  2  0
 27 28  1  0
 28 29  2  0
 29 30  1  0
 30 31  2  0
 31 32  1  0
 22 33  2  0
  9 34  1  0
  6  1  1  0
 33 10  1  0
 34  4  1  0
 20 16  1  0
 32 23  1  0
 31 26  1  0
  1 35  1  0
  2 36  1  0
  3 37  1  0
  6 38  1  0
  7 39  1  0
  7 40  1  0
  8 41  1  0
  8 42  1  0
  9 43  1  1
 13 44  1  0
 14 45  1  0
 14 46  1  0
 15 47  1  0
 15 48  1  0
 17 49  1  0
 17 50  1  0
 18 51  1  0
 18 52  1  0
 19 53  1  0
 19 54  1  0
 20 55  1  0
 20 56  1  0
 24 57  1  0
 24 58  1  0
 25 59  1  0
 25 60  1  0
 27 61  1  0
 28 62  1  0
 29 63  1  0
 30 64  1  0
 32 65  1  0
 32 66  1  0
 34 67  1  0
 34 68  1  0
M  END
>  <smiles>  (91) 
c1ccc2c(c1)CCC(c1nc(NCCN3CCCC3)nc(N3CCc4ccccc4C3)n1)C2

>  <score_type>  (91) 
oracle

>  <origin>  (91) 
autodockgpu

>  <m_score__min__energy>  (91) 
-9.8699999999999992

>  <m_primary>  (91) 
energy

>  <rmsd>  (91) 
3.6310282310732234

>  <m_score__min__rmsd>  (91) 
3.6310282310732234

>  <meeko>  (91) 
{"free_energy": -8.63, "intermolecular_energy": -10.42, "internal_energy": -2.04, "cluster_size": 47, "cluster_id": 2, "rank_in_cluster": 43}

>  <energy>  (91) 
-8.69

>  <cluster_rmsd>  (91) 
1.23

>  <cluster>  (91) 
2

$$$$

     RDKit          3D

 68 73  0  0  0  0  0  0  0  0999 V2000
  139.9640   68.2270  227.3580 C   0  0  0  0  0  0  0  0  0  0  0  0
  140.8360   69.2290  227.7370 C   0  0  0  0  0  0  0  0  0  0  0  0
  141.0480   70.2520  226.8230 C   0  0  0  0  0  0  0  0  0  0  0  0
  140.4040   70.2610  225.5800 C   0  0  0  0  0  0  0  0  0  0  0  0
  139.5420   69.2550  225.2250 C   0  0  0  0  0  0  0  0  0  0  0  0
  139.3260   68.2310  226.1310 C   0  0  0  0  0  0  0  0  0  0  0  0
  138.8270   69.1970  223.9250 C   0  0  0  0  0  0  0  0  0  0  0  0
  138.8320   70.6080  223.3600 C   0  0  0  0  0  0  0  0  0  0  0  0
  140.2840   71.0300  223.2880 C   0  0  1  0  0  0  0  0  0  0  0  0
  140.4880   72.1360  222.3320 C   0  0  0  0  0  0  0  0  0  0  0  0
  140.9680   71.9370  221.0780 N   0  0  0  0  0  0  0  0  0  0  0  0
  141.1480   72.9830  220.2230 C   0  0  0  0  0  0  0  0  0  0  0  0
  141.6510   72.7770  218.9090 N   0  0  0  0  0  0  0  0  0  0  0  0
  141.9250   71.4200  218.4130 C   0  0  0  0  0  0  0  0  0  0  0  0
  143.4480   71.3710  218.2250 C   0  0  0  0  0  0  0  0  0  0  0  0
  144.0340   72.1980  219.1630 N   0  0  0  0  0  0  0  0  0  0  0  0
  144.7660   73.3390  218.8390 C   0  0  0  0  0  0  0  0  0  0  0  0
  145.6790   73.5690  220.0260 C   0  0  0  0  0  0  0  0  0  0  0  0
  144.8650   73.0210  221.1890 C   0  0  0  0  0  0  0  0  0  0  0  0
  144.1750   71.8330  220.5160 C   0  0  0  0  0  0  0  0  0  0  0  0
  140.8490   74.2310  220.6170 N   0  0  0  0  0  0  0  0  0  0  0  0
  140.3700   74.4500  221.8600 C   0  0  0  0  0  0  0  0  0  0  0  0
  140.0370   75.7520  222.3390 N   0  0  0  0  0  0  0  0  0  0  0  0
  138.6430   76.1260  222.6240 C   0  0  0  0  0  0  0  0  0  0  0  0
  138.3320   77.3650  221.7690 C   0  0  0  0  0  0  0  0  0  0  0  0
  139.2150   78.4340  222.3640 C   0  0  0  0  0  0  0  0  0  0  0  0
  138.7140   79.7220  222.5360 C   0  0  0  0  0  0  0  0  0  0  0  0
  139.5820   80.6540  223.0920 C   0  0  0  0  0  0  0  0  0  0  0  0
  140.8740   80.3430  223.4600 C   0  0  0  0  0  0  0  0  0  0  0  0
  141.3490   79.0580  223.2810 C   0  0  0  0  0  0  0  0  0  0  0  0
  140.5000   78.0990  222.7250 C   0  0  0  0  0  0  0  0  0  0  0  0
  141.0770   76.7410  222.5610 C   0  0  0  0  0  0  0  0  0  0  0  0
  140.2010   73.3980  222.6870 N   0  0  0  0  0  0  0  0  0  0  0  0
  140.7060   71.4020  224.6920 C   0  0  0  0  0  0  0  0  0  0  0  0
  139.7707   67.3984  228.0552 H   0  0  0  0  0  0  0  0  0  0  0  0
  141.3381   69.2169  228.7157 H   0  0  0  0  0  0  0  0  0  0  0  0
  141.7353   71.0714  227.0804 H   0  0  0  0  0  0  0  0  0  0  0  0
  138.6394   67.4115  225.8722 H   0  0  0  0  0  0  0  0  0  0  0  0
  139.3449   68.5117  223.2378 H   0  0  0  0  0  0  0  0  0  0  0  0
  137.7994   68.8267  224.0550 H   0  0  0  0  0  0  0  0  0  0  0  0
  138.3819   70.6183  222.3564 H   0  0  0  0  0  0  0  0  0  0  0  0
  138.2465   71.2937  223.9900 H   0  0  0  0  0  0  0  0  0  0  0  0
  140.9073   70.2060  222.9106 H   0  0  0  0  0  0  0  0  0  0  0  0
  141.8230   73.6020  218.3030 H   0  0  0  0  0  0  0  0  0  0  0  0
  141.6006   70.6667  219.1460 H   0  0  0  0  0  0  0  0  0  0  0  0
  141.3843   71.2019  217.4802 H   0  0  0  0  0  0  0  0  0  0  0  0
  143.8058   70.3402  218.3646 H   0  0  0  0  0  0  0  0  0  0  0  0
  143.7127   71.7055  217.2111 H   0  0  0  0  0  0  0  0  0  0  0  0
  145.3548   73.1740  217.9246 H   0  0  0  0  0  0  0  0  0  0  0  0
  144.1165   74.2049  218.6433 H   0  0  0  0  0  0  0  0  0  0  0  0
  146.6248   73.0194  219.9107 H   0  0  0  0  0  0  0  0  0  0  0  0
  145.9682   74.6224  220.1551 H   0  0  0  0  0  0  0  0  0  0  0  0
  145.5105   72.6980  222.0191 H   0  0  0  0  0  0  0  0  0  0  0  0
  144.1789   73.7474  221.6489 H   0  0  0  0  0  0  0  0  0  0  0  0
  144.7924   70.9272  220.6077 H   0  0  0  0  0  0  0  0  0  0  0  0
  143.2043   71.6071  220.9815 H   0  0  0  0  0  0  0  0  0  0  0  0
  137.9670   75.3009  222.3551 H   0  0  0  0  0  0  0  0  0  0  0  0
  138.5024   76.3393  223.6939 H   0  0  0  0  0  0  0  0  0  0  0  0
  138.5857   77.1880  220.7134 H   0  0  0  0  0  0  0  0  0  0  0  0
  137.2658   77.6356  221.7785 H   0  0  0  0  0  0  0  0  0  0  0  0
  137.6863   79.9874  222.2472 H   0  0  0  0  0  0  0  0  0  0  0  0
  139.2235   81.6826  223.2449 H   0  0  0  0  0  0  0  0  0  0  0  0
  141.5247   81.1159  223.8949 H   0  0  0  0  0  0  0  0  0  0  0  0
  142.3770   78.7953  223.5711 H   0  0  0  0  0  0  0  0  0  0  0  0
  141.7601   76.7431  221.6988 H   0  0  0  0  0  0  0  0  0  0  0  0
  141.6167   76.4781  223.4827 H   0  0  0  0  0  0  0  0  0  0  0  0
  141.7849   71.6151  224.7128 H   0  0  0  0  0  0  0  0  0  0  0  0
  140.1649   72.2991  225.0272 H   0  0  0  0  0  0  0  0  0  0  0  0
  1  2  2  0
  2  3  1  0
  3  4  2  0
  4  5  1  0
  5  6  2  0
  5  7  1  0
  7  8  1  0
  8  9  1  0
  9 10  1  0
 10 11  2  0
 11 12  1  0
 12 13  1  0
 13 14  1  0
 14 15  1  0
 15 16  1  0
 16 17  1  0
 17 18  1  0
 18 19  1  0
 19 20  1  0
 12 21  2  0
 21 22  1  0
 22 23  1  0
 23 24  1  0
 24 25  1  0
 25 26  1  0
 26 27  2  0
 27 28  1  0
 28 29  2  0
 29 30  1  0
 30 31  2  0
 31 32  1  0
 22 33  2  0
  9 34  1  0
  6  1  1  0
 33 10  1  0
 34  4  1  0
 20 16  1  0
 32 23  1  0
 31 26  1  0
  1 35  1  0
  2 36  1  0
  3 37  1  0
  6 38  1  0
  7 39  1  0
  7 40  1  0
  8 41  1  0
  8 42  1  0
  9 43  1  6
 13 44  1  0
 14 45  1  0
 14 46  1  0
 15 47  1  0
 15 48  1  0
 17 49  1  0
 17 50  1  0
 18 51  1  0
 18 52  1  0
 19 53  1  0
 19 54  1  0
 20 55  1  0
 20 56  1  0
 24 57  1  0
 24 58  1  0
 25 59  1  0
 25 60  1  0
 27 61  1  0
 28 62  1  0
 29 63  1  0
 30 64  1  0
 32 65  1  0
 32 66  1  0
 34 67  1  0
 34 68  1  0
M  END
>  <smiles>  (92) 
c1ccc2c(c1)CCC(c1nc(NCCN3CCCC3)nc(N3CCc4ccccc4C3)n1)C2

>  <score_type>  (92) 
oracle

>  <origin>  (92) 
autodockgpu

>  <m_score__min__energy>  (92) 
-9.8699999999999992

>  <m_primary>  (92) 
energy

>  <rmsd>  (92) 
5.91017331091746

>  <m_score__min__rmsd>  (92) 
5.91017331091746

>  <meeko>  (92) 
{"free_energy": -8.93, "intermolecular_energy": -10.72, "internal_energy": -1.64, "cluster_size": 47, "cluster_id": 2, "rank_in_cluster": 28}

>  <energy>  (92) 
-8.69

>  <cluster_rmsd>  (92) 
1.06

>  <cluster>  (92) 
2

$$$$

     RDKit          3D

 68 73  0  0  0  0  0  0  0  0999 V2000
  140.7190   80.7820  223.5760 C   0  0  0  0  0  0  0  0  0  0  0  0
  141.9750   80.2910  223.2760 C   0  0  0  0  0  0  0  0  0  0  0  0
  142.0380   78.9940  222.7860 C   0  0  0  0  0  0  0  0  0  0  0  0
  140.8800   78.2280  222.6060 C   0  0  0  0  0  0  0  0  0  0  0  0
  139.6440   78.7370  222.9110 C   0  0  0  0  0  0  0  0  0  0  0  0
  139.5730   80.0300  223.4000 C   0  0  0  0  0  0  0  0  0  0  0  0
  138.3740   77.9830  222.7480 C   0  0  0  0  0  0  0  0  0  0  0  0
  138.6590   76.8540  221.7700 C   0  0  0  0  0  0  0  0  0  0  0  0
  139.8150   76.0690  222.3540 C   0  0  1  0  0  0  0  0  0  0  0  0
  139.8840   74.7010  221.8030 C   0  0  0  0  0  0  0  0  0  0  0  0
  139.8800   74.4510  220.4690 N   0  0  0  0  0  0  0  0  0  0  0  0
  139.9400   73.1740  219.9970 C   0  0  0  0  0  0  0  0  0  0  0  0
  139.9350   72.9100  218.5990 N   0  0  0  0  0  0  0  0  0  0  0  0
  140.3880   73.9270  217.6390 C   0  0  0  0  0  0  0  0  0  0  0  0
  141.8710   73.6090  217.4020 C   0  0  0  0  0  0  0  0  0  0  0  0
  142.6230   74.2960  218.3350 N   0  0  0  0  0  0  0  0  0  0  0  0
  143.5110   73.6810  219.2170 C   0  0  0  0  0  0  0  0  0  0  0  0
  143.6330   74.6410  220.3820 C   0  0  0  0  0  0  0  0  0  0  0  0
  143.4240   75.9980  219.7250 C   0  0  0  0  0  0  0  0  0  0  0  0
  142.3780   75.6420  218.6680 C   0  0  0  0  0  0  0  0  0  0  0  0
  140.0070   72.1430  220.8540 N   0  0  0  0  0  0  0  0  0  0  0  0
  140.0130   72.3720  222.1850 C   0  0  0  0  0  0  0  0  0  0  0  0
  140.0790   71.3200  223.1460 N   0  0  0  0  0  0  0  0  0  0  0  0
  139.5490   69.9800  222.8470 C   0  0  0  0  0  0  0  0  0  0  0  0
  138.5060   69.6630  223.9300 C   0  0  0  0  0  0  0  0  0  0  0  0
  139.3290   69.5500  225.1890 C   0  0  0  0  0  0  0  0  0  0  0  0
  139.0490   68.5390  226.1060 C   0  0  0  0  0  0  0  0  0  0  0  0
  139.8490   68.4950  227.2410 C   0  0  0  0  0  0  0  0  0  0  0  0
  140.8700   69.3930  227.4700 C   0  0  0  0  0  0  0  0  0  0  0  0
  141.1300   70.3870  226.5470 C   0  0  0  0  0  0  0  0  0  0  0  0
  140.3430   70.4580  225.3950 C   0  0  0  0  0  0  0  0  0  0  0  0
  140.6780   71.5510  224.4480 C   0  0  0  0  0  0  0  0  0  0  0  0
  139.9520   73.6440  222.6260 N   0  0  0  0  0  0  0  0  0  0  0  0
  141.0720   76.8630  222.0760 C   0  0  0  0  0  0  0  0  0  0  0  0
  140.6281   81.8057  223.9681 H   0  0  0  0  0  0  0  0  0  0  0  0
  142.8810   80.8984  223.4185 H   0  0  0  0  0  0  0  0  0  0  0  0
  143.0167   78.5595  222.5342 H   0  0  0  0  0  0  0  0  0  0  0  0
  138.5938   80.4636  223.6512 H   0  0  0  0  0  0  0  0  0  0  0  0
  138.0494   77.5733  223.7159 H   0  0  0  0  0  0  0  0  0  0  0  0
  137.5710   78.6360  222.3756 H   0  0  0  0  0  0  0  0  0  0  0  0
  137.7745   76.2085  221.6649 H   0  0  0  0  0  0  0  0  0  0  0  0
  138.9034   77.2425  220.7704 H   0  0  0  0  0  0  0  0  0  0  0  0
  139.6834   75.9348  223.4378 H   0  0  0  0  0  0  0  0  0  0  0  0
  139.6040   71.9840  218.2660 H   0  0  0  0  0  0  0  0  0  0  0  0
  139.8208   73.8530  216.6994 H   0  0  0  0  0  0  0  0  0  0  0  0
  140.2375   74.9496  218.0153 H   0  0  0  0  0  0  0  0  0  0  0  0
  142.0406   72.5278  217.5126 H   0  0  0  0  0  0  0  0  0  0  0  0
  142.1631   73.9130  216.3860 H   0  0  0  0  0  0  0  0  0  0  0  0
  143.1129   72.7125  219.5540 H   0  0  0  0  0  0  0  0  0  0  0  0
  144.4841   73.4749  218.7473 H   0  0  0  0  0  0  0  0  0  0  0  0
  142.8602   74.4445  221.1397 H   0  0  0  0  0  0  0  0  0  0  0  0
  144.5916   74.5587  220.9153 H   0  0  0  0  0  0  0  0  0  0  0  0
  143.0409   76.7403  220.4407 H   0  0  0  0  0  0  0  0  0  0  0  0
  144.3397   76.4579  219.3250 H   0  0  0  0  0  0  0  0  0  0  0  0
  141.3634   75.7584  219.0766 H   0  0  0  0  0  0  0  0  0  0  0  0
  142.4465   76.2991  217.7885 H   0  0  0  0  0  0  0  0  0  0  0  0
  139.0773   69.9724  221.8533 H   0  0  0  0  0  0  0  0  0  0  0  0
  140.3533   69.2296  222.8421 H   0  0  0  0  0  0  0  0  0  0  0  0
  137.7677   70.4741  224.0143 H   0  0  0  0  0  0  0  0  0  0  0  0
  137.9267   68.7533  223.7137 H   0  0  0  0  0  0  0  0  0  0  0  0
  138.2380   67.8145  225.9402 H   0  0  0  0  0  0  0  0  0  0  0  0
  139.6599   67.7106  227.9886 H   0  0  0  0  0  0  0  0  0  0  0  0
  141.4757   69.3179  228.3852 H   0  0  0  0  0  0  0  0  0  0  0  0
  141.9420   71.1096  226.7159 H   0  0  0  0  0  0  0  0  0  0  0  0
  140.3028   72.5030  224.8517 H   0  0  0  0  0  0  0  0  0  0  0  0
  141.7709   71.5845  224.3275 H   0  0  0  0  0  0  0  0  0  0  0  0
  141.9306   76.3876  222.5728 H   0  0  0  0  0  0  0  0  0  0  0  0
  141.2684   76.8987  220.9943 H   0  0  0  0  0  0  0  0  0  0  0  0
  1  2  2  0
  2  3  1  0
  3  4  2  0
  4  5  1  0
  5  6  2  0
  5  7  1  0
  7  8  1  0
  8  9  1  0
  9 10  1  0
 10 11  2  0
 11 12  1  0
 12 13  1  0
 13 14  1  0
 14 15  1  0
 15 16  1  0
 16 17  1  0
 17 18  1  0
 18 19  1  0
 19 20  1  0
 12 21  2  0
 21 22  1  0
 22 23  1  0
 23 24  1  0
 24 25  1  0
 25 26  1  0
 26 27  2  0
 27 28  1  0
 28 29  2  0
 29 30  1  0
 30 31  2  0
 31 32  1  0
 22 33  2  0
  9 34  1  0
  6  1  1  0
 33 10  1  0
 34  4  1  0
 20 16  1  0
 32 23  1  0
 31 26  1  0
  1 35  1  0
  2 36  1  0
  3 37  1  0
  6 38  1  0
  7 39  1  0
  7 40  1  0
  8 41  1  0
  8 42  1  0
  9 43  1  1
 13 44  1  0
 14 45  1  0
 14 46  1  0
 15 47  1  0
 15 48  1  0
 17 49  1  0
 17 50  1  0
 18 51  1  0
 18 52  1  0
 19 53  1  0
 19 54  1  0
 20 55  1  0
 20 56  1  0
 24 57  1  0
 24 58  1  0
 25 59  1  0
 25 60  1  0
 27 61  1  0
 28 62  1  0
 29 63  1  0
 30 64  1  0
 32 65  1  0
 32 66  1  0
 34 67  1  0
 34 68  1  0
M  END
>  <smiles>  (93) 
c1ccc2c(c1)CCC(c1nc(NCCN3CCCC3)nc(N3CCc4ccccc4C3)n1)C2

>  <score_type>  (93) 
oracle

>  <origin>  (93) 
autodockgpu

>  <m_score__min__energy>  (93) 
-9.8699999999999992

>  <m_primary>  (93) 
energy

>  <rmsd>  (93) 
4.06953196320336

>  <m_score__min__rmsd>  (93) 
4.06953196320336

>  <meeko>  (93) 
{"free_energy": -8.78, "intermolecular_energy": -10.57, "internal_energy": -1.99, "cluster_size": 47, "cluster_id": 2, "rank_in_cluster": 34}

>  <energy>  (93) 
-8.65

>  <cluster_rmsd>  (93) 
1.65

>  <cluster>  (93) 
2

$$$$

     RDKit          3D

 68 73  0  0  0  0  0  0  0  0999 V2000
  146.1470   69.0510  218.2480 C   0  0  0  0  0  0  0  0  0  0  0  0
  145.3210   68.2600  219.0230 C   0  0  0  0  0  0  0  0  0  0  0  0
  144.2800   68.9010  219.6810 C   0  0  0  0  0  0  0  0  0  0  0  0
  144.0840   70.2810  219.5600 C   0  0  0  0  0  0  0  0  0  0  0  0
  144.9180   71.0460  218.7850 C   0  0  0  0  0  0  0  0  0  0  0  0
  145.9580   70.4150  218.1250 C   0  0  0  0  0  0  0  0  0  0  0  0
  144.7720   72.5150  218.6120 C   0  0  0  0  0  0  0  0  0  0  0  0
  143.3410   72.8590  218.9940 C   0  0  0  0  0  0  0  0  0  0  0  0
  143.1440   72.3460  220.4040 C   0  0  1  0  0  0  0  0  0  0  0  0
  142.0180   73.0180  221.0820 C   0  0  0  0  0  0  0  0  0  0  0  0
  141.0560   72.3340  221.7510 N   0  0  0  0  0  0  0  0  0  0  0  0
  140.0280   72.9870  222.3610 C   0  0  0  0  0  0  0  0  0  0  0  0
  139.0180   72.2720  223.0620 N   0  0  0  0  0  0  0  0  0  0  0  0
  139.3090   70.9680  223.6760 C   0  0  0  0  0  0  0  0  0  0  0  0
  140.6530   71.1620  224.3910 C   0  0  0  0  0  0  0  0  0  0  0  0
  140.4600   70.9890  225.7480 N   0  0  0  0  0  0  0  0  0  0  0  0
  140.8810   71.9030  226.7120 C   0  0  0  0  0  0  0  0  0  0  0  0
  141.0230   71.0930  227.9840 C   0  0  0  0  0  0  0  0  0  0  0  0
  139.9670   70.0110  227.8140 C   0  0  0  0  0  0  0  0  0  0  0  0
  140.0570   69.7610  226.3080 C   0  0  0  0  0  0  0  0  0  0  0  0
  139.9570   74.3270  222.3060 N   0  0  0  0  0  0  0  0  0  0  0  0
  140.9040   75.0260  221.6460 C   0  0  0  0  0  0  0  0  0  0  0  0
  140.8830   76.4490  221.5480 N   0  0  0  0  0  0  0  0  0  0  0  0
  140.6780   77.1220  220.2550 C   0  0  0  0  0  0  0  0  0  0  0  0
  141.8890   78.0430  220.0370 C   0  0  0  0  0  0  0  0  0  0  0  0
  141.7360   79.0860  221.1150 C   0  0  0  0  0  0  0  0  0  0  0  0
  141.9910   80.4240  220.8190 C   0  0  0  0  0  0  0  0  0  0  0  0
  141.8280   81.3290  221.8600 C   0  0  0  0  0  0  0  0  0  0  0  0
  141.4370   80.9480  223.1260 C   0  0  0  0  0  0  0  0  0  0  0  0
  141.1890   79.6160  223.3970 C   0  0  0  0  0  0  0  0  0  0  0  0
  141.3440   78.6810  222.3710 C   0  0  0  0  0  0  0  0  0  0  0  0
  141.0610   77.2690  222.7330 C   0  0  0  0  0  0  0  0  0  0  0  0
  141.9110   74.3550  221.0500 N   0  0  0  0  0  0  0  0  0  0  0  0
  142.9430   70.8500  220.3050 C   0  0  0  0  0  0  0  0  0  0  0  0
  146.9832   68.5797  217.7107 H   0  0  0  0  0  0  0  0  0  0  0  0
  145.4803   67.1754  219.1143 H   0  0  0  0  0  0  0  0  0  0  0  0
  143.5959   68.3123  220.3098 H   0  0  0  0  0  0  0  0  0  0  0  0
  146.6412   71.0047  217.4961 H   0  0  0  0  0  0  0  0  0  0  0  0
  145.4777   73.0461  219.2677 H   0  0  0  0  0  0  0  0  0  0  0  0
  144.9884   72.8152  217.5761 H   0  0  0  0  0  0  0  0  0  0  0  0
  143.1887   73.9479  218.9599 H   0  0  0  0  0  0  0  0  0  0  0  0
  142.6206   72.4041  218.2982 H   0  0  0  0  0  0  0  0  0  0  0  0
  144.0251   72.5702  221.0232 H   0  0  0  0  0  0  0  0  0  0  0  0
  138.0680   72.6850  223.1330 H   0  0  0  0  0  0  0  0  0  0  0  0
  138.5232   70.6946  224.3956 H   0  0  0  0  0  0  0  0  0  0  0  0
  139.3476   70.1584  222.9323 H   0  0  0  0  0  0  0  0  0  0  0  0
  141.3788   70.4220  224.0227 H   0  0  0  0  0  0  0  0  0  0  0  0
  141.0415   72.1718  224.1927 H   0  0  0  0  0  0  0  0  0  0  0  0
  141.8457   72.3484  226.4274 H   0  0  0  0  0  0  0  0  0  0  0  0
  140.1722   72.7360  226.8293 H   0  0  0  0  0  0  0  0  0  0  0  0
  142.0290   70.6556  228.0650 H   0  0  0  0  0  0  0  0  0  0  0  0
  140.8910   71.6907  228.8980 H   0  0  0  0  0  0  0  0  0  0  0  0
  140.2158   69.1077  228.3904 H   0  0  0  0  0  0  0  0  0  0  0  0
  138.9650   70.2909  228.1712 H   0  0  0  0  0  0  0  0  0  0  0  0
  140.7984   68.9777  226.0916 H   0  0  0  0  0  0  0  0  0  0  0  0
  139.0983   69.4172  225.8926 H   0  0  0  0  0  0  0  0  0  0  0  0
  140.6172   76.3786  219.4465 H   0  0  0  0  0  0  0  0  0  0  0  0
  139.7399   77.6964  220.2533 H   0  0  0  0  0  0  0  0  0  0  0  0
  142.8314   77.4885  220.1572 H   0  0  0  0  0  0  0  0  0  0  0  0
  141.9232   78.4739  219.0255 H   0  0  0  0  0  0  0  0  0  0  0  0
  142.3045   80.7459  219.8149 H   0  0  0  0  0  0  0  0  0  0  0  0
  142.0190   82.3948  221.6661 H   0  0  0  0  0  0  0  0  0  0  0  0
  141.3228   81.7025  223.9183 H   0  0  0  0  0  0  0  0  0  0  0  0
  140.8753   79.2978  224.4022 H   0  0  0  0  0  0  0  0  0  0  0  0
  141.9030   76.8734  223.3200 H   0  0  0  0  0  0  0  0  0  0  0  0
  140.1313   77.2394  223.3201 H   0  0  0  0  0  0  0  0  0  0  0  0
  142.9007   70.4122  221.3132 H   0  0  0  0  0  0  0  0  0  0  0  0
  141.9996   70.6263  219.7854 H   0  0  0  0  0  0  0  0  0  0  0  0
  1  2  2  0
  2  3  1  0
  3  4  2  0
  4  5  1  0
  5  6  2  0
  5  7  1  0
  7  8  1  0
  8  9  1  0
  9 10  1  0
 10 11  2  0
 11 12  1  0
 12 13  1  0
 13 14  1  0
 14 15  1  0
 15 16  1  0
 16 17  1  0
 17 18  1  0
 18 19  1  0
 19 20  1  0
 12 21  2  0
 21 22  1  0
 22 23  1  0
 23 24  1  0
 24 25  1  0
 25 26  1  0
 26 27  2  0
 27 28  1  0
 28 29  2  0
 29 30  1  0
 30 31  2  0
 31 32  1  0
 22 33  2  0
  9 34  1  0
  6  1  1  0
 33 10  1  0
 34  4  1  0
 20 16  1  0
 32 23  1  0
 31 26  1  0
  1 35  1  0
  2 36  1  0
  3 37  1  0
  6 38  1  0
  7 39  1  0
  7 40  1  0
  8 41  1  0
  8 42  1  0
  9 43  1  1
 13 44  1  0
 14 45  1  0
 14 46  1  0
 15 47  1  0
 15 48  1  0
 17 49  1  0
 17 50  1  0
 18 51  1  0
 18 52  1  0
 19 53  1  0
 19 54  1  0
 20 55  1  0
 20 56  1  0
 24 57  1  0
 24 58  1  0
 25 59  1  0
 25 60  1  0
 27 61  1  0
 28 62  1  0
 29 63  1  0
 30 64  1  0
 32 65  1  0
 32 66  1  0
 34 67  1  0
 34 68  1  0
M  END
>  <smiles>  (94) 
c1ccc2c(c1)CCC(c1nc(NCCN3CCCC3)nc(N3CCc4ccccc4C3)n1)C2

>  <score_type>  (94) 
oracle

>  <origin>  (94) 
autodockgpu

>  <m_score__min__energy>  (94) 
-9.8699999999999992

>  <m_primary>  (94) 
energy

>  <rmsd>  (94) 
8.43452142460939

>  <m_score__min__rmsd>  (94) 
8.43452142460939

>  <meeko>  (94) 
{"free_energy": -9.87, "intermolecular_energy": -11.66, "internal_energy": -1.12, "cluster_size": 3, "cluster_id": 1, "rank_in_cluster": 1}

>  <energy>  (94) 
-8.65

>  <cluster_rmsd>  (94) 
1.61

>  <cluster>  (94) 
2

$$$$

     RDKit          3D

 68 73  0  0  0  0  0  0  0  0999 V2000
  139.5820   69.0360  227.4950 C   0  0  0  0  0  0  0  0  0  0  0  0
  140.5790   69.9440  227.7930 C   0  0  0  0  0  0  0  0  0  0  0  0
  140.9060   70.8610  226.8030 C   0  0  0  0  0  0  0  0  0  0  0  0
  140.2510   70.8590  225.5660 C   0  0  0  0  0  0  0  0  0  0  0  0
  139.2630   69.9480  225.2930 C   0  0  0  0  0  0  0  0  0  0  0  0
  138.9320   69.0310  226.2740 C   0  0  0  0  0  0  0  0  0  0  0  0
  138.5280   69.8860  224.0030 C   0  0  0  0  0  0  0  0  0  0  0  0
  138.7050   71.2390  223.3340 C   0  0  0  0  0  0  0  0  0  0  0  0
  140.1970   71.4650  223.2230 C   0  0  1  0  0  0  0  0  0  0  0  0
  140.5270   72.4620  222.1850 C   0  0  0  0  0  0  0  0  0  0  0  0
  141.1810   72.1350  221.0420 N   0  0  0  0  0  0  0  0  0  0  0  0
  141.4720   73.0830  220.1070 C   0  0  0  0  0  0  0  0  0  0  0  0
  142.1580   72.7430  218.9090 N   0  0  0  0  0  0  0  0  0  0  0  0
  143.0080   71.5440  218.8420 C   0  0  0  0  0  0  0  0  0  0  0  0
  144.3560   72.0480  218.3080 C   0  0  0  0  0  0  0  0  0  0  0  0
  144.9820   72.7700  219.3050 N   0  0  0  0  0  0  0  0  0  0  0  0
  145.9580   72.2400  220.1480 C   0  0  0  0  0  0  0  0  0  0  0  0
  145.9170   73.1090  221.3880 C   0  0  0  0  0  0  0  0  0  0  0  0
  145.4880   74.4610  220.8390 C   0  0  0  0  0  0  0  0  0  0  0  0
  144.5160   74.0260  219.7410 C   0  0  0  0  0  0  0  0  0  0  0  0
  141.1110   74.3600  220.3100 N   0  0  0  0  0  0  0  0  0  0  0  0
  140.4590   74.7050  221.4410 C   0  0  0  0  0  0  0  0  0  0  0  0
  140.0530   76.0440  221.7170 N   0  0  0  0  0  0  0  0  0  0  0  0
  140.9760   77.1750  221.5330 C   0  0  0  0  0  0  0  0  0  0  0  0
  141.0660   77.8990  222.8860 C   0  0  0  0  0  0  0  0  0  0  0  0
  139.6840   78.4740  223.0700 C   0  0  0  0  0  0  0  0  0  0  0  0
  139.5370   79.7640  223.5760 C   0  0  0  0  0  0  0  0  0  0  0  0
  138.2350   80.2280  223.7160 C   0  0  0  0  0  0  0  0  0  0  0  0
  137.1320   79.4710  223.3810 C   0  0  0  0  0  0  0  0  0  0  0  0
  137.3020   78.1950  222.8800 C   0  0  0  0  0  0  0  0  0  0  0  0
  138.5990   77.6990  222.7270 C   0  0  0  0  0  0  0  0  0  0  0  0
  138.7060   76.3210  222.1850 C   0  0  0  0  0  0  0  0  0  0  0  0
  140.1830   73.7480  222.3500 N   0  0  0  0  0  0  0  0  0  0  0  0
  140.6830   71.8830  224.5940 C   0  0  0  0  0  0  0  0  0  0  0  0
  139.2954   68.2925  228.2533 H   0  0  0  0  0  0  0  0  0  0  0  0
  141.0893   69.9409  228.7675 H   0  0  0  0  0  0  0  0  0  0  0  0
  141.6949   71.6033  226.9945 H   0  0  0  0  0  0  0  0  0  0  0  0
  138.1429   68.2893  226.0811 H   0  0  0  0  0  0  0  0  0  0  0  0
  138.9449   69.0912  223.3670 H   0  0  0  0  0  0  0  0  0  0  0  0
  137.4635   69.6608  224.1646 H   0  0  0  0  0  0  0  0  0  0  0  0
  138.2452   71.2330  222.3347 H   0  0  0  0  0  0  0  0  0  0  0  0
  138.2212   72.0386  223.9142 H   0  0  0  0  0  0  0  0  0  0  0  0
  140.7048   70.5424  222.9052 H   0  0  0  0  0  0  0  0  0  0  0  0
  142.0510   73.3560  218.0780 H   0  0  0  0  0  0  0  0  0  0  0  0
  143.1289   71.0985  219.8404 H   0  0  0  0  0  0  0  0  0  0  0  0
  142.5736   70.7625  218.2012 H   0  0  0  0  0  0  0  0  0  0  0  0
  144.9841   71.1921  218.0200 H   0  0  0  0  0  0  0  0  0  0  0  0
  144.1965   72.6853  217.4257 H   0  0  0  0  0  0  0  0  0  0  0  0
  145.7253   71.1949  220.4002 H   0  0  0  0  0  0  0  0  0  0  0  0
  146.9526   72.2361  219.6782 H   0  0  0  0  0  0  0  0  0  0  0  0
  145.1858   72.7268  222.1155 H   0  0  0  0  0  0  0  0  0  0  0  0
  146.8749   73.1426  221.9277 H   0  0  0  0  0  0  0  0  0  0  0  0
  144.9868   75.0694  221.6062 H   0  0  0  0  0  0  0  0  0  0  0  0
  146.3160   75.0957  220.4904 H   0  0  0  0  0  0  0  0  0  0  0  0
  143.4955   73.9397  220.1424 H   0  0  0  0  0  0  0  0  0  0  0  0
  144.4751   74.7552  218.9185 H   0  0  0  0  0  0  0  0  0  0  0  0
  141.9688   76.8087  221.2327 H   0  0  0  0  0  0  0  0  0  0  0  0
  140.6169   77.8536  220.7452 H   0  0  0  0  0  0  0  0  0  0  0  0
  141.3091   77.1934  223.6941 H   0  0  0  0  0  0  0  0  0  0  0  0
  141.8554   78.6646  222.9106 H   0  0  0  0  0  0  0  0  0  0  0  0
  140.4051   80.3817  223.8498 H   0  0  0  0  0  0  0  0  0  0  0  0
  138.0772   81.2425  224.1109 H   0  0  0  0  0  0  0  0  0  0  0  0
  136.1201   79.8820  223.5123 H   0  0  0  0  0  0  0  0  0  0  0  0
  136.4317   77.5804  222.6064 H   0  0  0  0  0  0  0  0  0  0  0  0
  138.4464   75.6028  222.9767 H   0  0  0  0  0  0  0  0  0  0  0  0
  138.0152   76.2266  221.3342 H   0  0  0  0  0  0  0  0  0  0  0  0
  141.7805   71.9574  224.5938 H   0  0  0  0  0  0  0  0  0  0  0  0
  140.2653   72.8643  224.8634 H   0  0  0  0  0  0  0  0  0  0  0  0
  1  2  2  0
  2  3  1  0
  3  4  2  0
  4  5  1  0
  5  6  2  0
  5  7  1  0
  7  8  1  0
  8  9  1  0
  9 10  1  0
 10 11  2  0
 11 12  1  0
 12 13  1  0
 13 14  1  0
 14 15  1  0
 15 16  1  0
 16 17  1  0
 17 18  1  0
 18 19  1  0
 19 20  1  0
 12 21  2  0
 21 22  1  0
 22 23  1  0
 23 24  1  0
 24 25  1  0
 25 26  1  0
 26 27  2  0
 27 28  1  0
 28 29  2  0
 29 30  1  0
 30 31  2  0
 31 32  1  0
 22 33  2  0
  9 34  1  0
  6  1  1  0
 33 10  1  0
 34  4  1  0
 20 16  1  0
 32 23  1  0
 31 26  1  0
  1 35  1  0
  2 36  1  0
  3 37  1  0
  6 38  1  0
  7 39  1  0
  7 40  1  0
  8 41  1  0
  8 42  1  0
  9 43  1  6
 13 44  1  0
 14 45  1  0
 14 46  1  0
 15 47  1  0
 15 48  1  0
 17 49  1  0
 17 50  1  0
 18 51  1  0
 18 52  1  0
 19 53  1  0
 19 54  1  0
 20 55  1  0
 20 56  1  0
 24 57  1  0
 24 58  1  0
 25 59  1  0
 25 60  1  0
 27 61  1  0
 28 62  1  0
 29 63  1  0
 30 64  1  0
 32 65  1  0
 32 66  1  0
 34 67  1  0
 34 68  1  0
M  END
>  <smiles>  (95) 
c1ccc2c(c1)CCC(c1nc(NCCN3CCCC3)nc(N3CCc4ccccc4C3)n1)C2

>  <score_type>  (95) 
oracle

>  <origin>  (95) 
autodockgpu

>  <m_score__min__energy>  (95) 
-9.8699999999999992

>  <m_primary>  (95) 
energy

>  <rmsd>  (95) 
6.1602476862728155

>  <m_score__min__rmsd>  (95) 
6.1602476862728155

>  <meeko>  (95) 
{"free_energy": -9.22, "intermolecular_energy": -11.01, "internal_energy": -1.32, "cluster_size": 47, "cluster_id": 2, "rank_in_cluster": 15}

>  <energy>  (95) 
-8.64

>  <cluster_rmsd>  (95) 
1.51

>  <cluster>  (95) 
2

$$$$

     RDKit          3D

 68 73  0  0  0  0  0  0  0  0999 V2000
  140.2180   68.6570  227.8740 C   0  0  0  0  0  0  0  0  0  0  0  0
  140.9860   69.7790  228.1150 C   0  0  0  0  0  0  0  0  0  0  0  0
  141.0760   70.7080  227.0870 C   0  0  0  0  0  0  0  0  0  0  0  0
  140.4150   70.5100  225.8690 C   0  0  0  0  0  0  0  0  0  0  0  0
  139.6570   69.3880  225.6520 C   0  0  0  0  0  0  0  0  0  0  0  0
  139.5630   68.4560  226.6720 C   0  0  0  0  0  0  0  0  0  0  0  0
  138.9320   69.1100  224.3860 C   0  0  0  0  0  0  0  0  0  0  0  0
  138.7810   70.4410  223.6690 C   0  0  0  0  0  0  0  0  0  0  0  0
  140.1800   70.9980  223.5100 C   0  0  1  0  0  0  0  0  0  0  0  0
  140.2530   72.0030  222.4310 C   0  0  0  0  0  0  0  0  0  0  0  0
  140.4980   71.6700  221.1390 N   0  0  0  0  0  0  0  0  0  0  0  0
  140.5630   72.6260  220.1700 C   0  0  0  0  0  0  0  0  0  0  0  0
  140.8210   72.2790  218.8150 N   0  0  0  0  0  0  0  0  0  0  0  0
  142.1990   72.1100  218.3310 C   0  0  0  0  0  0  0  0  0  0  0  0
  142.9910   71.6400  219.5600 C   0  0  0  0  0  0  0  0  0  0  0  0
  143.9670   72.5780  219.8390 N   0  0  0  0  0  0  0  0  0  0  0  0
  145.3260   72.2790  219.9210 C   0  0  0  0  0  0  0  0  0  0  0  0
  145.9150   73.3670  220.7940 C   0  0  0  0  0  0  0  0  0  0  0  0
  145.0200   74.5610  220.4950 C   0  0  0  0  0  0  0  0  0  0  0  0
  143.6680   73.8650  220.3260 C   0  0  0  0  0  0  0  0  0  0  0  0
  140.3810   73.9180  220.4870 N   0  0  0  0  0  0  0  0  0  0  0  0
  140.1350   74.2700  221.7680 C   0  0  0  0  0  0  0  0  0  0  0  0
  139.9370   75.6240  222.1690 N   0  0  0  0  0  0  0  0  0  0  0  0
  138.5870   76.1600  222.4040 C   0  0  0  0  0  0  0  0  0  0  0  0
  138.4250   77.3750  221.4780 C   0  0  0  0  0  0  0  0  0  0  0  0
  139.4080   78.3750  222.0340 C   0  0  0  0  0  0  0  0  0  0  0  0
  139.0460   79.7180  222.1260 C   0  0  0  0  0  0  0  0  0  0  0  0
  140.0010   80.5800  222.6500 C   0  0  0  0  0  0  0  0  0  0  0  0
  141.2460   80.1550  223.0610 C   0  0  0  0  0  0  0  0  0  0  0  0
  141.5830   78.8180  222.9610 C   0  0  0  0  0  0  0  0  0  0  0  0
  140.6440   77.9260  222.4390 C   0  0  0  0  0  0  0  0  0  0  0  0
  141.0740   76.5070  222.3600 C   0  0  0  0  0  0  0  0  0  0  0  0
  140.0760   73.3040  222.7080 N   0  0  0  0  0  0  0  0  0  0  0  0
  140.5830   71.5670  224.8520 C   0  0  0  0  0  0  0  0  0  0  0  0
  140.1238   67.8975  228.6642 H   0  0  0  0  0  0  0  0  0  0  0  0
  141.5015   69.9295  229.0750 H   0  0  0  0  0  0  0  0  0  0  0  0
  141.6782   71.6169  227.2325 H   0  0  0  0  0  0  0  0  0  0  0  0
  138.9616   67.5468  226.5251 H   0  0  0  0  0  0  0  0  0  0  0  0
  139.5082   68.4081  223.7653 H   0  0  0  0  0  0  0  0  0  0  0  0
  137.9511   68.6531  224.5835 H   0  0  0  0  0  0  0  0  0  0  0  0
  138.3158   70.2923  222.6834 H   0  0  0  0  0  0  0  0  0  0  0  0
  138.1378   71.1302  224.2358 H   0  0  0  0  0  0  0  0  0  0  0  0
  140.8800   70.2047  223.2089 H   0  0  0  0  0  0  0  0  0  0  0  0
  140.0190   72.1460  218.1700 H   0  0  0  0  0  0  0  0  0  0  0  0
  142.2393   71.3551  217.5320 H   0  0  0  0  0  0  0  0  0  0  0  0
  142.6063   73.0385  217.9045 H   0  0  0  0  0  0  0  0  0  0  0  0
  142.3144   71.5412  220.4217 H   0  0  0  0  0  0  0  0  0  0  0  0
  143.4545   70.6631  219.3581 H   0  0  0  0  0  0  0  0  0  0  0  0
  145.4774   71.2908  220.3799 H   0  0  0  0  0  0  0  0  0  0  0  0
  145.8014   72.2422  218.9297 H   0  0  0  0  0  0  0  0  0  0  0  0
  145.8657   73.0915  221.8578 H   0  0  0  0  0  0  0  0  0  0  0  0
  146.9791   73.5590  220.5919 H   0  0  0  0  0  0  0  0  0  0  0  0
  145.0061   75.2767  221.3302 H   0  0  0  0  0  0  0  0  0  0  0  0
  145.3353   75.1634  219.6303 H   0  0  0  0  0  0  0  0  0  0  0  0
  143.1459   73.7991  221.2920 H   0  0  0  0  0  0  0  0  0  0  0  0
  143.0068   74.4173  219.6420 H   0  0  0  0  0  0  0  0  0  0  0  0
  137.8302   75.3983  222.1653 H   0  0  0  0  0  0  0  0  0  0  0  0
  138.4536   76.4460  223.4578 H   0  0  0  0  0  0  0  0  0  0  0  0
  138.6750   77.1137  220.4391 H   0  0  0  0  0  0  0  0  0  0  0  0
  137.3941   77.7578  221.4498 H   0  0  0  0  0  0  0  0  0  0  0  0
  138.0578   80.0758  221.8013 H   0  0  0  0  0  0  0  0  0  0  0  0
  139.7529   81.6478  222.7408 H   0  0  0  0  0  0  0  0  0  0  0  0
  141.9692   80.8774  223.4673 H   0  0  0  0  0  0  0  0  0  0  0  0
  142.5721   78.4635  223.2865 H   0  0  0  0  0  0  0  0  0  0  0  0
  141.7666   76.3885  221.5137 H   0  0  0  0  0  0  0  0  0  0  0  0
  141.5681   76.2394  223.3057 H   0  0  0  0  0  0  0  0  0  0  0  0
  141.6343   71.8892  224.8196 H   0  0  0  0  0  0  0  0  0  0  0  0
  139.9569   72.4367  225.1001 H   0  0  0  0  0  0  0  0  0  0  0  0
  1  2  2  0
  2  3  1  0
  3  4  2  0
  4  5  1  0
  5  6  2  0
  5  7  1  0
  7  8  1  0
  8  9  1  0
  9 10  1  0
 10 11  2  0
 11 12  1  0
 12 13  1  0
 13 14  1  0
 14 15  1  0
 15 16  1  0
 16 17  1  0
 17 18  1  0
 18 19  1  0
 19 20  1  0
 12 21  2  0
 21 22  1  0
 22 23  1  0
 23 24  1  0
 24 25  1  0
 25 26  1  0
 26 27  2  0
 27 28  1  0
 28 29  2  0
 29 30  1  0
 30 31  2  0
 31 32  1  0
 22 33  2  0
  9 34  1  0
  6  1  1  0
 33 10  1  0
 34  4  1  0
 20 16  1  0
 32 23  1  0
 31 26  1  0
  1 35  1  0
  2 36  1  0
  3 37  1  0
  6 38  1  0
  7 39  1  0
  7 40  1  0
  8 41  1  0
  8 42  1  0
  9 43  1  6
 13 44  1  0
 14 45  1  0
 14 46  1  0
 15 47  1  0
 15 48  1  0
 17 49  1  0
 17 50  1  0
 18 51  1  0
 18 52  1  0
 19 53  1  0
 19 54  1  0
 20 55  1  0
 20 56  1  0
 24 57  1  0
 24 58  1  0
 25 59  1  0
 25 60  1  0
 27 61  1  0
 28 62  1  0
 29 63  1  0
 30 64  1  0
 32 65  1  0
 32 66  1  0
 34 67  1  0
 34 68  1  0
M  END
>  <smiles>  (96) 
c1ccc2c(c1)CCC(c1nc(NCCN3CCCC3)nc(N3CCc4ccccc4C3)n1)C2

>  <score_type>  (96) 
oracle

>  <origin>  (96) 
autodockgpu

>  <m_score__min__energy>  (96) 
-9.8699999999999992

>  <m_primary>  (96) 
energy

>  <rmsd>  (96) 
5.631116809440959

>  <m_score__min__rmsd>  (96) 
5.631116809440959

>  <meeko>  (96) 
{"free_energy": -9.53, "intermolecular_energy": -11.32, "internal_energy": -1.49, "cluster_size": 47, "cluster_id": 2, "rank_in_cluster": 2}

>  <energy>  (96) 
-8.63

>  <cluster_rmsd>  (96) 
1.63

>  <cluster>  (96) 
2

$$$$

     RDKit          3D

 68 73  0  0  0  0  0  0  0  0999 V2000
  140.1420   68.4100  227.2820 C   0  0  0  0  0  0  0  0  0  0  0  0
  140.9640   69.4750  227.5960 C   0  0  0  0  0  0  0  0  0  0  0  0
  141.0430   70.5000  226.6640 C   0  0  0  0  0  0  0  0  0  0  0  0
  140.3210   70.4500  225.4660 C   0  0  0  0  0  0  0  0  0  0  0  0
  139.5120   69.3830  225.1750 C   0  0  0  0  0  0  0  0  0  0  0  0
  139.4270   68.3560  226.0990 C   0  0  0  0  0  0  0  0  0  0  0  0
  138.7190   69.2610  223.9240 C   0  0  0  0  0  0  0  0  0  0  0  0
  138.5890   70.6630  223.3510 C   0  0  0  0  0  0  0  0  0  0  0  0
  140.0000   71.1840  223.1820 C   0  0  1  0  0  0  0  0  0  0  0  0
  140.0640   72.2920  222.2070 C   0  0  0  0  0  0  0  0  0  0  0  0
  140.2340   72.0830  220.8770 N   0  0  0  0  0  0  0  0  0  0  0  0
  140.2930   73.1300  220.0070 C   0  0  0  0  0  0  0  0  0  0  0  0
  140.4730   72.9140  218.6120 N   0  0  0  0  0  0  0  0  0  0  0  0
  141.8100   72.6600  218.0570 C   0  0  0  0  0  0  0  0  0  0  0  0
  142.5980   73.9500  218.3260 C   0  0  0  0  0  0  0  0  0  0  0  0
  143.4590   73.7270  219.3840 N   0  0  0  0  0  0  0  0  0  0  0  0
  144.0880   74.7470  220.0970 C   0  0  0  0  0  0  0  0  0  0  0  0
  145.3200   74.1020  220.6980 C   0  0  0  0  0  0  0  0  0  0  0  0
  144.8790   72.6600  220.9060 C   0  0  0  0  0  0  0  0  0  0  0  0
  143.9900   72.4560  219.6780 C   0  0  0  0  0  0  0  0  0  0  0  0
  140.1800   74.3890  220.4610 N   0  0  0  0  0  0  0  0  0  0  0  0
  140.0080   74.6170  221.7810 C   0  0  0  0  0  0  0  0  0  0  0  0
  139.8860   75.9290  222.3260 N   0  0  0  0  0  0  0  0  0  0  0  0
  138.5740   76.4750  222.7110 C   0  0  0  0  0  0  0  0  0  0  0  0
  138.3890   77.7810  221.9220 C   0  0  0  0  0  0  0  0  0  0  0  0
  139.4420   78.6930  222.4980 C   0  0  0  0  0  0  0  0  0  0  0  0
  139.1330   80.0290  222.7470 C   0  0  0  0  0  0  0  0  0  0  0  0
  140.1520   80.8090  223.2800 C   0  0  0  0  0  0  0  0  0  0  0  0
  141.4080   80.3120  223.5550 C   0  0  0  0  0  0  0  0  0  0  0  0
  141.6910   78.9840  223.3020 C   0  0  0  0  0  0  0  0  0  0  0  0
  140.6880   78.1730  222.7650 C   0  0  0  0  0  0  0  0  0  0  0  0
  141.0620   76.7580  222.5170 C   0  0  0  0  0  0  0  0  0  0  0  0
  139.9540   73.5630  222.6210 N   0  0  0  0  0  0  0  0  0  0  0  0
  140.4840   71.6000  224.5530 C   0  0  0  0  0  0  0  0  0  0  0  0
  140.0531   67.5779  227.9959 H   0  0  0  0  0  0  0  0  0  0  0  0
  141.5287   69.5088  228.5394 H   0  0  0  0  0  0  0  0  0  0  0  0
  141.6855   71.3686  226.8707 H   0  0  0  0  0  0  0  0  0  0  0  0
  138.7843   67.4880  225.8905 H   0  0  0  0  0  0  0  0  0  0  0  0
  139.2376   68.6057  223.2087 H   0  0  0  0  0  0  0  0  0  0  0  0
  137.7304   68.8217  224.1233 H   0  0  0  0  0  0  0  0  0  0  0  0
  138.0755   70.6312  222.3787 H   0  0  0  0  0  0  0  0  0  0  0  0
  137.9989   71.3132  224.0136 H   0  0  0  0  0  0  0  0  0  0  0  0
  140.6540   70.4012  222.7702 H   0  0  0  0  0  0  0  0  0  0  0  0
  139.6420   72.9400  217.9900 H   0  0  0  0  0  0  0  0  0  0  0  0
  142.2829   71.8047  218.5617 H   0  0  0  0  0  0  0  0  0  0  0  0
  141.7745   72.4108  216.9862 H   0  0  0  0  0  0  0  0  0  0  0  0
  143.1744   74.2259  217.4307 H   0  0  0  0  0  0  0  0  0  0  0  0
  141.9061   74.7696  218.5702 H   0  0  0  0  0  0  0  0  0  0  0  0
  144.3713   75.5706  219.4252 H   0  0  0  0  0  0  0  0  0  0  0  0
  143.4311   75.1800  220.8658 H   0  0  0  0  0  0  0  0  0  0  0  0
  146.1741   74.1593  220.0072 H   0  0  0  0  0  0  0  0  0  0  0  0
  145.6600   74.5909  221.6229 H   0  0  0  0  0  0  0  0  0  0  0  0
  145.7357   71.9700  220.9055 H   0  0  0  0  0  0  0  0  0  0  0  0
  144.3804   72.4690  221.8677 H   0  0  0  0  0  0  0  0  0  0  0  0
  144.5839   72.0820  218.8310 H   0  0  0  0  0  0  0  0  0  0  0  0
  143.1982   71.7157  219.8652 H   0  0  0  0  0  0  0  0  0  0  0  0
  137.7768   75.7616  222.4551 H   0  0  0  0  0  0  0  0  0  0  0  0
  138.5245   76.6576  223.7946 H   0  0  0  0  0  0  0  0  0  0  0  0
  138.5557   77.6178  220.8470 H   0  0  0  0  0  0  0  0  0  0  0  0
  137.3726   78.1927  222.0077 H   0  0  0  0  0  0  0  0  0  0  0  0
  138.1367   80.4434  222.5332 H   0  0  0  0  0  0  0  0  0  0  0  0
  139.9475   81.8689  223.4917 H   0  0  0  0  0  0  0  0  0  0  0  0
  142.1824   80.9709  223.9746 H   0  0  0  0  0  0  0  0  0  0  0  0
  142.6877   78.5724  223.5193 H   0  0  0  0  0  0  0  0  0  0  0  0
  141.6882   76.7055  221.6142 H   0  0  0  0  0  0  0  0  0  0  0  0
  141.6121   76.3848  223.3934 H   0  0  0  0  0  0  0  0  0  0  0  0
  141.5443   71.8885  224.5024 H   0  0  0  0  0  0  0  0  0  0  0  0
  139.9037   72.4607  224.9170 H   0  0  0  0  0  0  0  0  0  0  0  0
  1  2  2  0
  2  3  1  0
  3  4  2  0
  4  5  1  0
  5  6  2  0
  5  7  1  0
  7  8  1  0
  8  9  1  0
  9 10  1  0
 10 11  2  0
 11 12  1  0
 12 13  1  0
 13 14  1  0
 14 15  1  0
 15 16  1  0
 16 17  1  0
 17 18  1  0
 18 19  1  0
 19 20  1  0
 12 21  2  0
 21 22  1  0
 22 23  1  0
 23 24  1  0
 24 25  1  0
 25 26  1  0
 26 27  2  0
 27 28  1  0
 28 29  2  0
 29 30  1  0
 30 31  2  0
 31 32  1  0
 22 33  2  0
  9 34  1  0
  6  1  1  0
 33 10  1  0
 34  4  1  0
 20 16  1  0
 32 23  1  0
 31 26  1  0
  1 35  1  0
  2 36  1  0
  3 37  1  0
  6 38  1  0
  7 39  1  0
  7 40  1  0
  8 41  1  0
  8 42  1  0
  9 43  1  6
 13 44  1  0
 14 45  1  0
 14 46  1  0
 15 47  1  0
 15 48  1  0
 17 49  1  0
 17 50  1  0
 18 51  1  0
 18 52  1  0
 19 53  1  0
 19 54  1  0
 20 55  1  0
 20 56  1  0
 24 57  1  0
 24 58  1  0
 25 59  1  0
 25 60  1  0
 27 61  1  0
 28 62  1  0
 29 63  1  0
 30 64  1  0
 32 65  1  0
 32 66  1  0
 34 67  1  0
 34 68  1  0
M  END
>  <smiles>  (97) 
c1ccc2c(c1)CCC(c1nc(NCCN3CCCC3)nc(N3CCc4ccccc4C3)n1)C2

>  <score_type>  (97) 
oracle

>  <origin>  (97) 
autodockgpu

>  <m_score__min__energy>  (97) 
-9.8699999999999992

>  <m_primary>  (97) 
energy

>  <rmsd>  (97) 
5.354040640153391

>  <m_score__min__rmsd>  (97) 
5.354040640153391

>  <meeko>  (97) 
{"free_energy": -9.4, "intermolecular_energy": -11.19, "internal_energy": -1.62, "cluster_size": 47, "cluster_id": 2, "rank_in_cluster": 7}

>  <energy>  (97) 
-8.62

>  <cluster_rmsd>  (97) 
1.34

>  <cluster>  (97) 
2

$$$$

     RDKit          3D

 68 73  0  0  0  0  0  0  0  0999 V2000
  140.2470   68.9210  227.6320 C   0  0  0  0  0  0  0  0  0  0  0  0
  141.0390   70.0340  227.8310 C   0  0  0  0  0  0  0  0  0  0  0  0
  141.0670   70.9730  226.8090 C   0  0  0  0  0  0  0  0  0  0  0  0
  140.3240   70.7930  225.6370 C   0  0  0  0  0  0  0  0  0  0  0  0
  139.5440   69.6790  225.4610 C   0  0  0  0  0  0  0  0  0  0  0  0
  139.5110   68.7380  226.4760 C   0  0  0  0  0  0  0  0  0  0  0  0
  138.7320   69.4200  224.2440 C   0  0  0  0  0  0  0  0  0  0  0  0
  138.5440   70.7600  223.5510 C   0  0  0  0  0  0  0  0  0  0  0  0
  139.9340   71.3070  223.3040 C   0  0  1  0  0  0  0  0  0  0  0  0
  139.9420   72.3230  222.2330 C   0  0  0  0  0  0  0  0  0  0  0  0
  139.9820   71.9950  220.9170 N   0  0  0  0  0  0  0  0  0  0  0  0
  139.9930   72.9600  219.9550 C   0  0  0  0  0  0  0  0  0  0  0  0
  140.0350   72.6180  218.5750 N   0  0  0  0  0  0  0  0  0  0  0  0
  141.2940   72.6940  217.8190 C   0  0  0  0  0  0  0  0  0  0  0  0
  141.5270   74.1950  217.5940 C   0  0  0  0  0  0  0  0  0  0  0  0
  142.3130   74.6780  218.6230 N   0  0  0  0  0  0  0  0  0  0  0  0
  142.2910   76.0030  219.0560 C   0  0  0  0  0  0  0  0  0  0  0  0
  143.6400   76.2220  219.7100 C   0  0  0  0  0  0  0  0  0  0  0  0
  143.9790   74.8430  220.2560 C   0  0  0  0  0  0  0  0  0  0  0  0
  143.3960   73.9530  219.1570 C   0  0  0  0  0  0  0  0  0  0  0  0
  139.9630   74.2560  220.3040 N   0  0  0  0  0  0  0  0  0  0  0  0
  139.9230   74.6030  221.6080 C   0  0  0  0  0  0  0  0  0  0  0  0
  139.8930   75.9610  222.0430 N   0  0  0  0  0  0  0  0  0  0  0  0
  138.6790   76.7810  221.9030 C   0  0  0  0  0  0  0  0  0  0  0  0
  139.0700   78.0150  221.0760 C   0  0  0  0  0  0  0  0  0  0  0  0
  140.0140   78.7630  221.9840 C   0  0  0  0  0  0  0  0  0  0  0  0
  139.9270   80.1510  222.0740 C   0  0  0  0  0  0  0  0  0  0  0  0
  140.8270   80.7720  222.9310 C   0  0  0  0  0  0  0  0  0  0  0  0
  141.7640   80.0740  223.6620 C   0  0  0  0  0  0  0  0  0  0  0  0
  141.8320   78.6980  223.5580 C   0  0  0  0  0  0  0  0  0  0  0  0
  140.9400   78.0440  222.7040 C   0  0  0  0  0  0  0  0  0  0  0  0
  141.0700   76.5670  222.6400 C   0  0  0  0  0  0  0  0  0  0  0  0
  139.9130   73.6290  222.5400 N   0  0  0  0  0  0  0  0  0  0  0  0
  140.4310   71.8590  224.6220 C   0  0  0  0  0  0  0  0  0  0  0  0
  140.1999   68.1542  228.4193 H   0  0  0  0  0  0  0  0  0  0  0  0
  141.6200   70.1703  228.7550 H   0  0  0  0  0  0  0  0  0  0  0  0
  141.6851   71.8758  226.9227 H   0  0  0  0  0  0  0  0  0  0  0  0
  138.8928   67.8354  226.3615 H   0  0  0  0  0  0  0  0  0  0  0  0
  139.2585   68.7198  223.5789 H   0  0  0  0  0  0  0  0  0  0  0  0
  137.7627   68.9693  224.5036 H   0  0  0  0  0  0  0  0  0  0  0  0
  138.0125   70.6248  222.5975 H   0  0  0  0  0  0  0  0  0  0  0  0
  137.9459   71.4486  224.1658 H   0  0  0  0  0  0  0  0  0  0  0  0
  140.6057   70.5115  222.9489 H   0  0  0  0  0  0  0  0  0  0  0  0
  139.1600   72.3130  218.1070 H   0  0  0  0  0  0  0  0  0  0  0  0
  142.1205   72.2562  218.3979 H   0  0  0  0  0  0  0  0  0  0  0  0
  141.2443   72.1353  216.8728 H   0  0  0  0  0  0  0  0  0  0  0  0
  142.0383   74.3507  216.6326 H   0  0  0  0  0  0  0  0  0  0  0  0
  140.5640   74.7263  217.5753 H   0  0  0  0  0  0  0  0  0  0  0  0
  142.1584   76.6863  218.2042 H   0  0  0  0  0  0  0  0  0  0  0  0
  141.4587   76.1986  219.7481 H   0  0  0  0  0  0  0  0  0  0  0  0
  144.3881   76.5514  218.9740 H   0  0  0  0  0  0  0  0  0  0  0  0
  143.6269   77.0047  220.4828 H   0  0  0  0  0  0  0  0  0  0  0  0
  145.0653   74.7029  220.3576 H   0  0  0  0  0  0  0  0  0  0  0  0
  143.5866   74.6413  221.2636 H   0  0  0  0  0  0  0  0  0  0  0  0
  144.1494   73.7583  218.3795 H   0  0  0  0  0  0  0  0  0  0  0  0
  143.0799   72.9746  219.5480 H   0  0  0  0  0  0  0  0  0  0  0  0
  137.8944   76.2106  221.3843 H   0  0  0  0  0  0  0  0  0  0  0  0
  138.2850   77.0741  222.8873 H   0  0  0  0  0  0  0  0  0  0  0  0
  139.5729   77.7199  220.1432 H   0  0  0  0  0  0  0  0  0  0  0  0
  138.2024   78.6179  220.7698 H   0  0  0  0  0  0  0  0  0  0  0  0
  139.1857   80.7239  221.4976 H   0  0  0  0  0  0  0  0  0  0  0  0
  140.7902   81.8669  223.0303 H   0  0  0  0  0  0  0  0  0  0  0  0
  142.4563   80.6113  224.3269 H   0  0  0  0  0  0  0  0  0  0  0  0
  142.5741   78.1282  224.1364 H   0  0  0  0  0  0  0  0  0  0  0  0
  141.9518   76.3104  222.0345 H   0  0  0  0  0  0  0  0  0  0  0  0
  141.1776   76.1823  223.6649 H   0  0  0  0  0  0  0  0  0  0  0  0
  141.4801   72.1743  224.5220 H   0  0  0  0  0  0  0  0  0  0  0  0
  139.8295   72.7302  224.9205 H   0  0  0  0  0  0  0  0  0  0  0  0
  1  2  2  0
  2  3  1  0
  3  4  2  0
  4  5  1  0
  5  6  2  0
  5  7  1  0
  7  8  1  0
  8  9  1  0
  9 10  1  0
 10 11  2  0
 11 12  1  0
 12 13  1  0
 13 14  1  0
 14 15  1  0
 15 16  1  0
 16 17  1  0
 17 18  1  0
 18 19  1  0
 19 20  1  0
 12 21  2  0
 21 22  1  0
 22 23  1  0
 23 24  1  0
 24 25  1  0
 25 26  1  0
 26 27  2  0
 27 28  1  0
 28 29  2  0
 29 30  1  0
 30 31  2  0
 31 32  1  0
 22 33  2  0
  9 34  1  0
  6  1  1  0
 33 10  1  0
 34  4  1  0
 20 16  1  0
 32 23  1  0
 31 26  1  0
  1 35  1  0
  2 36  1  0
  3 37  1  0
  6 38  1  0
  7 39  1  0
  7 40  1  0
  8 41  1  0
  8 42  1  0
  9 43  1  6
 13 44  1  0
 14 45  1  0
 14 46  1  0
 15 47  1  0
 15 48  1  0
 17 49  1  0
 17 50  1  0
 18 51  1  0
 18 52  1  0
 19 53  1  0
 19 54  1  0
 20 55  1  0
 20 56  1  0
 24 57  1  0
 24 58  1  0
 25 59  1  0
 25 60  1  0
 27 61  1  0
 28 62  1  0
 29 63  1  0
 30 64  1  0
 32 65  1  0
 32 66  1  0
 34 67  1  0
 34 68  1  0
M  END
>  <smiles>  (98) 
c1ccc2c(c1)CCC(c1nc(NCCN3CCCC3)nc(N3CCc4ccccc4C3)n1)C2

>  <score_type>  (98) 
oracle

>  <origin>  (98) 
autodockgpu

>  <m_score__min__energy>  (98) 
-9.8699999999999992

>  <m_primary>  (98) 
energy

>  <rmsd>  (98) 
4.249092204253308

>  <m_score__min__rmsd>  (98) 
4.249092204253308

>  <meeko>  (98) 
{"free_energy": -8.69, "intermolecular_energy": -10.48, "internal_energy": -1.98, "cluster_size": 47, "cluster_id": 2, "rank_in_cluster": 39}

>  <energy>  (98) 
-8.55

>  <cluster_rmsd>  (98) 
1.64

>  <cluster>  (98) 
2

$$$$

     RDKit          3D

 68 73  0  0  0  0  0  0  0  0999 V2000
  140.4830   68.5530  227.6720 C   0  0  0  0  0  0  0  0  0  0  0  0
  141.0600   69.7730  227.9660 C   0  0  0  0  0  0  0  0  0  0  0  0
  141.0010   70.7470  226.9790 C   0  0  0  0  0  0  0  0  0  0  0  0
  140.3830   70.4970  225.7480 C   0  0  0  0  0  0  0  0  0  0  0  0
  139.8170   69.2770  225.4780 C   0  0  0  0  0  0  0  0  0  0  0  0
  139.8720   68.3010  226.4580 C   0  0  0  0  0  0  0  0  0  0  0  0
  139.1480   68.9410  224.1950 C   0  0  0  0  0  0  0  0  0  0  0  0
  138.7860   70.2600  223.5320 C   0  0  0  0  0  0  0  0  0  0  0  0
  140.0770   71.0400  223.4100 C   0  0  1  0  0  0  0  0  0  0  0  0
  139.9890   72.0890  222.3740 C   0  0  0  0  0  0  0  0  0  0  0  0
  139.9480   71.8040  221.0480 N   0  0  0  0  0  0  0  0  0  0  0  0
  139.8710   72.7980  220.1200 C   0  0  0  0  0  0  0  0  0  0  0  0
  139.8290   72.5010  218.7300 N   0  0  0  0  0  0  0  0  0  0  0  0
  140.9770   72.8030  217.8610 C   0  0  0  0  0  0  0  0  0  0  0  0
  140.9700   74.3310  217.7180 C   0  0  0  0  0  0  0  0  0  0  0  0
  142.0160   74.8480  218.4570 N   0  0  0  0  0  0  0  0  0  0  0  0
  143.0490   74.0730  218.9830 C   0  0  0  0  0  0  0  0  0  0  0  0
  143.5840   74.8750  220.1510 C   0  0  0  0  0  0  0  0  0  0  0  0
  143.3350   76.3120  219.7170 C   0  0  0  0  0  0  0  0  0  0  0  0
  142.0060   76.1570  218.9760 C   0  0  0  0  0  0  0  0  0  0  0  0
  139.8330   74.0820  220.5130 N   0  0  0  0  0  0  0  0  0  0  0  0
  139.8720   74.3870  221.8280 C   0  0  0  0  0  0  0  0  0  0  0  0
  139.8390   75.7290  222.3080 N   0  0  0  0  0  0  0  0  0  0  0  0
  138.5750   76.3610  222.7190 C   0  0  0  0  0  0  0  0  0  0  0  0
  138.4190   77.6340  221.8710 C   0  0  0  0  0  0  0  0  0  0  0  0
  139.5410   78.5180  222.3540 C   0  0  0  0  0  0  0  0  0  0  0  0
  139.3110   79.8790  222.5460 C   0  0  0  0  0  0  0  0  0  0  0  0
  140.3900   80.6310  222.9940 C   0  0  0  0  0  0  0  0  0  0  0  0
  141.6310   80.0840  223.2410 C   0  0  0  0  0  0  0  0  0  0  0  0
  141.8360   78.7310  223.0450 C   0  0  0  0  0  0  0  0  0  0  0  0
  140.7710   77.9480  222.5950 C   0  0  0  0  0  0  0  0  0  0  0  0
  141.0630   76.5050  222.4060 C   0  0  0  0  0  0  0  0  0  0  0  0
  139.9480   73.3840  222.7260 N   0  0  0  0  0  0  0  0  0  0  0  0
  140.3800   71.6100  224.7780 C   0  0  0  0  0  0  0  0  0  0  0  0
  140.5106   67.7555  228.4291 H   0  0  0  0  0  0  0  0  0  0  0  0
  141.5430   69.9635  228.9357 H   0  0  0  0  0  0  0  0  0  0  0  0
  141.4483   71.7341  227.1676 H   0  0  0  0  0  0  0  0  0  0  0  0
  139.4246   67.3141  226.2686 H   0  0  0  0  0  0  0  0  0  0  0  0
  139.8305   68.3676  223.5505 H   0  0  0  0  0  0  0  0  0  0  0  0
  138.2526   68.3252  224.3653 H   0  0  0  0  0  0  0  0  0  0  0  0
  138.3536   70.0803  222.5366 H   0  0  0  0  0  0  0  0  0  0  0  0
  138.0383   70.8122  224.1202 H   0  0  0  0  0  0  0  0  0  0  0  0
  140.8964   70.3825  223.0839 H   0  0  0  0  0  0  0  0  0  0  0  0
  138.9720   72.0680  218.3350 H   0  0  0  0  0  0  0  0  0  0  0  0
  141.9143   72.4616  218.3247 H   0  0  0  0  0  0  0  0  0  0  0  0
  140.9059   72.2948  216.8880 H   0  0  0  0  0  0  0  0  0  0  0  0
  141.0932   74.6046  216.6597 H   0  0  0  0  0  0  0  0  0  0  0  0
  140.0153   74.7380  218.0827 H   0  0  0  0  0  0  0  0  0  0  0  0
  142.6669   73.0998  219.3248 H   0  0  0  0  0  0  0  0  0  0  0  0
  143.8280   73.8604  218.2360 H   0  0  0  0  0  0  0  0  0  0  0  0
  143.0371   74.6403  221.0761 H   0  0  0  0  0  0  0  0  0  0  0  0
  144.6402   74.6651  220.3754 H   0  0  0  0  0  0  0  0  0  0  0  0
  143.2412   76.9861  220.5812 H   0  0  0  0  0  0  0  0  0  0  0  0
  144.1437   76.7549  219.1171 H   0  0  0  0  0  0  0  0  0  0  0  0
  141.1618   76.2897  219.6686 H   0  0  0  0  0  0  0  0  0  0  0  0
  141.8905   76.9101  218.1826 H   0  0  0  0  0  0  0  0  0  0  0  0
  137.7327   75.6779  222.5352 H   0  0  0  0  0  0  0  0  0  0  0  0
  138.5840   76.6004  223.7926 H   0  0  0  0  0  0  0  0  0  0  0  0
  138.5290   77.4089  220.7999 H   0  0  0  0  0  0  0  0  0  0  0  0
  137.4289   78.1013  221.9777 H   0  0  0  0  0  0  0  0  0  0  0  0
  138.3280   80.3335  222.3532 H   0  0  0  0  0  0  0  0  0  0  0  0
  140.2479   81.7093  223.1587 H   0  0  0  0  0  0  0  0  0  0  0  0
  142.4552   80.7219  223.5928 H   0  0  0  0  0  0  0  0  0  0  0  0
  142.8200   78.2795  223.2399 H   0  0  0  0  0  0  0  0  0  0  0  0
  141.6451   76.3749  221.4818 H   0  0  0  0  0  0  0  0  0  0  0  0
  141.6324   76.1482  223.2769 H   0  0  0  0  0  0  0  0  0  0  0  0
  141.3653   72.0989  224.7684 H   0  0  0  0  0  0  0  0  0  0  0  0
  139.6215   72.3563  225.0565 H   0  0  0  0  0  0  0  0  0  0  0  0
  1  2  2  0
  2  3  1  0
  3  4  2  0
  4  5  1  0
  5  6  2  0
  5  7  1  0
  7  8  1  0
  8  9  1  0
  9 10  1  0
 10 11  2  0
 11 12  1  0
 12 13  1  0
 13 14  1  0
 14 15  1  0
 15 16  1  0
 16 17  1  0
 17 18  1  0
 18 19  1  0
 19 20  1  0
 12 21  2  0
 21 22  1  0
 22 23  1  0
 23 24  1  0
 24 25  1  0
 25 26  1  0
 26 27  2  0
 27 28  1  0
 28 29  2  0
 29 30  1  0
 30 31  2  0
 31 32  1  0
 22 33  2  0
  9 34  1  0
  6  1  1  0
 33 10  1  0
 34  4  1  0
 20 16  1  0
 32 23  1  0
 31 26  1  0
  1 35  1  0
  2 36  1  0
  3 37  1  0
  6 38  1  0
  7 39  1  0
  7 40  1  0
  8 41  1  0
  8 42  1  0
  9 43  1  6
 13 44  1  0
 14 45  1  0
 14 46  1  0
 15 47  1  0
 15 48  1  0
 17 49  1  0
 17 50  1  0
 18 51  1  0
 18 52  1  0
 19 53  1  0
 19 54  1  0
 20 55  1  0
 20 56  1  0
 24 57  1  0
 24 58  1  0
 25 59  1  0
 25 60  1  0
 27 61  1  0
 28 62  1  0
 29 63  1  0
 30 64  1  0
 32 65  1  0
 32 66  1  0
 34 67  1  0
 34 68  1  0
M  END
>  <smiles>  (99) 
c1ccc2c(c1)CCC(c1nc(NCCN3CCCC3)nc(N3CCc4ccccc4C3)n1)C2

>  <score_type>  (99) 
oracle

>  <origin>  (99) 
autodockgpu

>  <m_score__min__energy>  (99) 
-9.8699999999999992

>  <m_primary>  (99) 
energy

>  <rmsd>  (99) 
4.0185806989346995

>  <m_score__min__rmsd>  (99) 
4.0185806989346995

>  <meeko>  (99) 
{"free_energy": -8.85, "intermolecular_energy": -10.64, "internal_energy": -1.98, "cluster_size": 47, "cluster_id": 2, "rank_in_cluster": 31}

>  <energy>  (99) 
-8.4

>  <cluster_rmsd>  (99) 
1.71

>  <cluster>  (99) 
2

$$$$

     RDKit          3D

 68 73  0  0  0  0  0  0  0  0999 V2000
  140.1620   69.3800  228.2090 C   0  0  0  0  0  0  0  0  0  0  0  0
  140.9640   70.4980  228.3310 C   0  0  0  0  0  0  0  0  0  0  0  0
  141.1080   71.2910  227.2010 C   0  0  0  0  0  0  0  0  0  0  0  0
  140.4670   70.9670  226.0000 C   0  0  0  0  0  0  0  0  0  0  0  0
  139.6760   69.8510  225.9010 C   0  0  0  0  0  0  0  0  0  0  0  0
  139.5270   69.0550  227.0240 C   0  0  0  0  0  0  0  0  0  0  0  0
  138.9680   69.4440  224.6600 C   0  0  0  0  0  0  0  0  0  0  0  0
  138.8800   70.6820  223.7820 C   0  0  0  0  0  0  0  0  0  0  0  0
  140.3010   71.1700  223.5930 C   0  0  1  0  0  0  0  0  0  0  0  0
  140.4320   72.0330  222.4030 C   0  0  0  0  0  0  0  0  0  0  0  0
  140.8250   71.5550  221.1950 N   0  0  0  0  0  0  0  0  0  0  0  0
  140.9400   72.3820  220.1190 C   0  0  0  0  0  0  0  0  0  0  0  0
  141.3530   71.8840  218.8520 N   0  0  0  0  0  0  0  0  0  0  0  0
  142.7380   72.0570  218.3910 C   0  0  0  0  0  0  0  0  0  0  0  0
  143.6030   71.4990  219.5300 C   0  0  0  0  0  0  0  0  0  0  0  0
  144.4710   72.4890  219.9490 N   0  0  0  0  0  0  0  0  0  0  0  0
  145.8440   72.3010  220.1010 C   0  0  0  0  0  0  0  0  0  0  0  0
  146.2770   73.3580  221.0950 C   0  0  0  0  0  0  0  0  0  0  0  0
  145.2980   74.4920  220.8290 C   0  0  0  0  0  0  0  0  0  0  0  0
  144.0270   73.7010  220.5120 C   0  0  0  0  0  0  0  0  0  0  0  0
  140.6610   73.6900  220.2430 N   0  0  0  0  0  0  0  0  0  0  0  0
  140.2670   74.1850  221.4360 C   0  0  0  0  0  0  0  0  0  0  0  0
  139.9610   75.5630  221.6340 N   0  0  0  0  0  0  0  0  0  0  0  0
  140.9580   76.6130  221.3690 C   0  0  0  0  0  0  0  0  0  0  0  0
  141.1220   77.4090  222.6720 C   0  0  0  0  0  0  0  0  0  0  0  0
  139.7870   78.0910  222.8390 C   0  0  0  0  0  0  0  0  0  0  0  0
  139.7410   79.4160  223.2660 C   0  0  0  0  0  0  0  0  0  0  0  0
  138.4770   79.9800  223.3950 C   0  0  0  0  0  0  0  0  0  0  0  0
  137.3180   79.2840  223.1220 C   0  0  0  0  0  0  0  0  0  0  0  0
  137.3890   77.9710  222.6990 C   0  0  0  0  0  0  0  0  0  0  0  0
  138.6450   77.3760  222.5600 C   0  0  0  0  0  0  0  0  0  0  0  0
  138.6460   75.9630  222.1020 C   0  0  0  0  0  0  0  0  0  0  0  0
  140.1620   73.3450  222.4860 N   0  0  0  0  0  0  0  0  0  0  0  0
  140.6940   71.8860  224.8660 C   0  0  0  0  0  0  0  0  0  0  0  0
  140.0238   68.7266  229.0831 H   0  0  0  0  0  0  0  0  0  0  0  0
  141.4645   70.7478  229.2781 H   0  0  0  0  0  0  0  0  0  0  0  0
  141.7380   72.1913  227.2505 H   0  0  0  0  0  0  0  0  0  0  0  0
  138.8970   68.1547  226.9733 H   0  0  0  0  0  0  0  0  0  0  0  0
  139.5315   68.6525  224.1442 H   0  0  0  0  0  0  0  0  0  0  0  0
  137.9673   69.0476  224.8869 H   0  0  0  0  0  0  0  0  0  0  0  0
  138.4317   70.4286  222.8100 H   0  0  0  0  0  0  0  0  0  0  0  0
  138.2493   71.4559  224.2437 H   0  0  0  0  0  0  0  0  0  0  0  0
  140.9792   70.3238  223.4089 H   0  0  0  0  0  0  0  0  0  0  0  0
  140.6590   71.3940  218.2560 H   0  0  0  0  0  0  0  0  0  0  0  0
  142.9104   71.4939  217.4619 H   0  0  0  0  0  0  0  0  0  0  0  0
  142.9731   73.1081  218.1678 H   0  0  0  0  0  0  0  0  0  0  0  0
  142.9596   71.1912  220.3675 H   0  0  0  0  0  0  0  0  0  0  0  0
  144.1709   70.6253  219.1777 H   0  0  0  0  0  0  0  0  0  0  0  0
  146.0555   71.2943  220.4905 H   0  0  0  0  0  0  0  0  0  0  0  0
  146.3811   72.3883  219.1450 H   0  0  0  0  0  0  0  0  0  0  0  0
  146.1870   72.9910  222.1281 H   0  0  0  0  0  0  0  0  0  0  0  0
  147.3298   73.6562  220.9827 H   0  0  0  0  0  0  0  0  0  0  0  0
  145.1674   75.1309  221.7149 H   0  0  0  0  0  0  0  0  0  0  0  0
  145.6110   75.1893  220.0379 H   0  0  0  0  0  0  0  0  0  0  0  0
  143.4528   73.5109  221.4308 H   0  0  0  0  0  0  0  0  0  0  0  0
  143.3632   74.2505  219.8283 H   0  0  0  0  0  0  0  0  0  0  0  0
  141.9173   76.1596  221.0790 H   0  0  0  0  0  0  0  0  0  0  0  0
  140.6334   77.2664  220.5458 H   0  0  0  0  0  0  0  0  0  0  0  0
  141.3295   76.7384  223.5189 H   0  0  0  0  0  0  0  0  0  0  0  0
  141.9633   78.1169  222.6384 H   0  0  0  0  0  0  0  0  0  0  0  0
  140.6554   79.9853  223.4891 H   0  0  0  0  0  0  0  0  0  0  0  0
  138.3979   81.0251  223.7288 H   0  0  0  0  0  0  0  0  0  0  0  0
  136.3399   79.7731  223.2408 H   0  0  0  0  0  0  0  0  0  0  0  0
  136.4731   77.4043  222.4757 H   0  0  0  0  0  0  0  0  0  0  0  0
  138.3508   75.3142  222.9398 H   0  0  0  0  0  0  0  0  0  0  0  0
  137.9356   75.8671  221.2677 H   0  0  0  0  0  0  0  0  0  0  0  0
  141.7563   72.1682  224.8220 H   0  0  0  0  0  0  0  0  0  0  0  0
  140.0931   72.7990  224.9900 H   0  0  0  0  0  0  0  0  0  0  0  0
  1  2  2  0
  2  3  1  0
  3  4  2  0
  4  5  1  0
  5  6  2  0
  5  7  1  0
  7  8  1  0
  8  9  1  0
  9 10  1  0
 10 11  2  0
 11 12  1  0
 12 13  1  0
 13 14  1  0
 14 15  1  0
 15 16  1  0
 16 17  1  0
 17 18  1  0
 18 19  1  0
 19 20  1  0
 12 21  2  0
 21 22  1  0
 22 23  1  0
 23 24  1  0
 24 25  1  0
 25 26  1  0
 26 27  2  0
 27 28  1  0
 28 29  2  0
 29 30  1  0
 30 31  2  0
 31 32  1  0
 22 33  2  0
  9 34  1  0
  6  1  1  0
 33 10  1  0
 34  4  1  0
 20 16  1  0
 32 23  1  0
 31 26  1  0
  1 35  1  0
  2 36  1  0
  3 37  1  0
  6 38  1  0
  7 39  1  0
  7 40  1  0
  8 41  1  0
  8 42  1  0
  9 43  1  6
 13 44  1  0
 14 45  1  0
 14 46  1  0
 15 47  1  0
 15 48  1  0
 17 49  1  0
 17 50  1  0
 18 51  1  0
 18 52  1  0
 19 53  1  0
 19 54  1  0
 20 55  1  0
 20 56  1  0
 24 57  1  0
 24 58  1  0
 25 59  1  0
 25 60  1  0
 27 61  1  0
 28 62  1  0
 29 63  1  0
 30 64  1  0
 32 65  1  0
 32 66  1  0
 34 67  1  0
 34 68  1  0
M  END
>  <smiles>  (100) 
c1ccc2c(c1)CCC(c1nc(NCCN3CCCC3)nc(N3CCc4ccccc4C3)n1)C2

>  <score_type>  (100) 
oracle

>  <origin>  (100) 
autodockgpu

>  <m_score__min__energy>  (100) 
-9.8699999999999992

>  <m_primary>  (100) 
energy

>  <rmsd>  (100) 
6.005003378014373

>  <m_score__min__rmsd>  (100) 
6.005003378014373

>  <meeko>  (100) 
{"free_energy": -9.37, "intermolecular_energy": -11.16, "internal_energy": -1.52, "cluster_size": 47, "cluster_id": 2, "rank_in_cluster": 8}

>  <energy>  (100) 
-8.34

>  <cluster_rmsd>  (100) 
1.69

>  <cluster>  (100) 
2

$$$$
