
     RDKit          3D

 53 56  0  0  0  0  0  0  0  0999 V2000
  140.2340   72.4570  220.8500 O   0  0  0  0  0  0  0  0  0  0  0  0
  139.9370   72.7760  222.0380 C   0  0  0  0  0  0  0  0  0  0  0  0
  139.5280   74.1340  222.2290 N   0  0  0  0  0  0  0  0  0  0  0  0
  139.4910   74.9930  221.0870 C   0  0  0  0  0  0  0  0  0  0  0  0
  140.6320   75.9570  221.0660 C   0  0  0  0  0  0  0  0  0  0  0  0
  141.2060   76.3490  222.1210 O   0  0  0  0  0  0  0  0  0  0  0  0
  141.0890   76.4550  219.7870 N   0  0  0  0  0  0  0  0  0  0  0  0
  142.0650   77.5160  219.7100 C   0  0  0  0  0  0  0  0  0  0  0  0
  142.0850   77.9320  218.2900 C   0  0  0  0  0  0  0  0  0  0  0  0
  140.8890   77.2690  217.6610 C   0  0  0  0  0  0  0  0  0  0  0  0
  140.6490   76.0160  218.5000 C   0  0  1  0  0  0  0  0  0  0  0  0
  141.3200   74.8590  217.8690 C   0  0  0  0  0  0  0  0  0  0  0  0
  141.6330   73.8030  218.7780 N   0  0  0  0  0  0  0  0  0  0  0  0
  142.7880   73.6530  219.5550 C   0  0  0  0  0  0  0  0  0  0  0  0
  143.6640   74.7100  219.7450 C   0  0  0  0  0  0  0  0  0  0  0  0
  144.8270   74.6010  220.4770 C   0  0  0  0  0  0  0  0  0  0  0  0
  145.1760   73.4070  221.0660 C   0  0  0  0  0  0  0  0  0  0  0  0
  146.6650   73.3360  221.9820 Cl  0  0  0  0  0  0  0  0  0  0  0  0
  144.3340   72.3440  220.8970 C   0  0  0  0  0  0  0  0  0  0  0  0
  143.1690   72.4580  220.1630 C   0  0  0  0  0  0  0  0  0  0  0  0
  140.0030   71.8350  223.1470 C   0  0  0  0  0  0  0  0  0  0  0  0
  139.5360   70.5520  222.9150 C   0  0  0  0  0  0  0  0  0  0  0  0
  139.5810   69.6370  223.9360 C   0  0  0  0  0  0  0  0  0  0  0  0
  140.0800   69.9740  225.1810 C   0  0  0  0  0  0  0  0  0  0  0  0
  140.1090   69.0250  226.1840 C   0  0  0  0  0  0  0  0  0  0  0  0
  140.6210   69.4160  227.4170 C   0  0  0  0  0  0  0  0  0  0  0  0
  140.6660   68.2240  228.7030 Cl  0  0  0  0  0  0  0  0  0  0  0  0
  141.0720   70.7080  227.5940 C   0  0  0  0  0  0  0  0  0  0  0  0
  141.0450   71.6610  226.5920 C   0  0  0  0  0  0  0  0  0  0  0  0
  140.5350   71.2640  225.3700 C   0  0  0  0  0  0  0  0  0  0  0  0
  140.4870   72.1530  224.3610 N   0  0  0  0  0  0  0  0  0  0  0  0
  139.2660   74.4570  223.2040 H   0  0  0  0  0  0  0  0  0  0  0  0
  139.5331   74.3751  220.1780 H   0  0  0  0  0  0  0  0  0  0  0  0
  138.5590   75.5754  221.1338 H   0  0  0  0  0  0  0  0  0  0  0  0
  141.7692   78.3579  220.3532 H   0  0  0  0  0  0  0  0  0  0  0  0
  143.0564   77.1844  220.0523 H   0  0  0  0  0  0  0  0  0  0  0  0
  142.0054   79.0261  218.2086 H   0  0  0  0  0  0  0  0  0  0  0  0
  143.0220   77.6414  217.7923 H   0  0  0  0  0  0  0  0  0  0  0  0
  140.0134   77.9338  217.6987 H   0  0  0  0  0  0  0  0  0  0  0  0
  141.0570   77.0315  216.6001 H   0  0  0  0  0  0  0  0  0  0  0  0
  139.6224   75.6301  218.5845 H   0  0  0  0  0  0  0  0  0  0  0  0
  140.6571   74.4582  217.0881 H   0  0  0  0  0  0  0  0  0  0  0  0
  142.2755   75.2259  217.4659 H   0  0  0  0  0  0  0  0  0  0  0  0
  140.8990   73.0330  218.8810 H   0  0  0  0  0  0  0  0  0  0  0  0
  143.4198   75.6814  219.2904 H   0  0  0  0  0  0  0  0  0  0  0  0
  145.4825   75.4769  220.5915 H   0  0  0  0  0  0  0  0  0  0  0  0
  144.5892   71.3770  221.3551 H   0  0  0  0  0  0  0  0  0  0  0  0
  142.5204   71.5761  220.0548 H   0  0  0  0  0  0  0  0  0  0  0  0
  139.1360   70.2716  221.9294 H   0  0  0  0  0  0  0  0  0  0  0  0
  139.2130   68.6153  223.7611 H   0  0  0  0  0  0  0  0  0  0  0  0
  139.7422   68.0018  226.0148 H   0  0  0  0  0  0  0  0  0  0  0  0
  141.4718   70.9934  228.5782 H   0  0  0  0  0  0  0  0  0  0  0  0
  141.4114   72.6846  226.7593 H   0  0  0  0  0  0  0  0  0  0  0  0
  1  2  2  0
  2  3  1  0
  3  4  1  0
  4  5  1  0
  5  6  2  0
  5  7  1  0
  7  8  1  0
  8  9  1  0
  9 10  1  0
 10 11  1  0
 11 12  1  0
 12 13  1  0
 13 14  1  0
 14 15  2  0
 15 16  1  0
 16 17  2  0
 17 18  1  0
 17 19  1  0
 19 20  2  0
  2 21  1  0
 21 22  2  0
 22 23  1  0
 23 24  2  0
 24 25  1  0
 25 26  2  0
 26 27  1  0
 26 28  1  0
 28 29  2  0
 29 30  1  0
 30 31  2  0
 11  7  1  0
 20 14  1  0
 31 21  1  0
 30 24  1  0
  3 32  1  0
  4 33  1  0
  4 34  1  0
  8 35  1  0
  8 36  1  0
  9 37  1  0
  9 38  1  0
 10 39  1  0
 10 40  1  0
 11 41  1  1
 12 42  1  0
 12 43  1  0
 13 44  1  0
 15 45  1  0
 16 46  1  0
 19 47  1  0
 20 48  1  0
 22 49  1  0
 23 50  1  0
 25 51  1  0
 28 52  1  0
 29 53  1  0
M  END
>  <smiles>  (1) 
O=C(NCC(=O)N1CCC[C@H]1CNc1ccc(Cl)cc1)c1ccc2cc(Cl)ccc2n1

>  <score_type>  (1) 
oracle

>  <origin>  (1) 
autodockgpu

>  <m_score__min__energy>  (1) 
-8.6400000000000006

>  <m_primary>  (1) 
energy

>  <rmsd>  (1) 
4.256637711539289

>  <m_score__min__rmsd>  (1) 
4.256637711539289

>  <meeko>  (1) 
{"free_energy": -8.03, "intermolecular_energy": -10.12, "internal_energy": -2.97, "cluster_size": 8, "cluster_id": 1, "rank_in_cluster": 4}

>  <energy>  (1) 
-8.64

>  <cluster_rmsd>  (1) 
0.0

>  <cluster>  (1) 
1

$$$$

     RDKit          3D

 53 56  0  0  0  0  0  0  0  0999 V2000
  140.8420   77.4410  222.3930 O   0  0  0  0  0  0  0  0  0  0  0  0
  139.6410   77.7880  222.1960 C   0  0  0  0  0  0  0  0  0  0  0  0
  138.9490   77.0660  221.1740 N   0  0  0  0  0  0  0  0  0  0  0  0
  139.6580   76.0380  220.4780 C   0  0  0  0  0  0  0  0  0  0  0  0
  139.9460   74.8590  221.3480 C   0  0  0  0  0  0  0  0  0  0  0  0
  139.2510   74.5830  222.3660 O   0  0  0  0  0  0  0  0  0  0  0  0
  141.0650   74.0080  221.0060 N   0  0  0  0  0  0  0  0  0  0  0  0
  142.3740   74.5660  220.7580 C   0  0  0  0  0  0  0  0  0  0  0  0
  143.1740   73.4580  220.1900 C   0  0  0  0  0  0  0  0  0  0  0  0
  142.1830   72.3710  219.8680 C   0  0  0  0  0  0  0  0  0  0  0  0
  141.0320   72.5880  220.8480 C   0  0  1  0  0  0  0  0  0  0  0  0
  141.2230   71.7290  222.0370 C   0  0  0  0  0  0  0  0  0  0  0  0
  140.3480   72.0400  223.1220 N   0  0  0  0  0  0  0  0  0  0  0  0
  140.2060   71.3530  224.3340 C   0  0  0  0  0  0  0  0  0  0  0  0
  141.0320   71.6270  225.4130 C   0  0  0  0  0  0  0  0  0  0  0  0
  140.9480   70.9580  226.6140 C   0  0  0  0  0  0  0  0  0  0  0  0
  140.0160   69.9620  226.7990 C   0  0  0  0  0  0  0  0  0  0  0  0
  139.9610   69.1510  228.3490 Cl  0  0  0  0  0  0  0  0  0  0  0  0
  139.1860   69.6660  225.7540 C   0  0  0  0  0  0  0  0  0  0  0  0
  139.2730   70.3400  224.5510 C   0  0  0  0  0  0  0  0  0  0  0  0
  138.9930   78.8500  222.9540 C   0  0  0  0  0  0  0  0  0  0  0  0
  139.8080   79.8340  223.4870 C   0  0  0  0  0  0  0  0  0  0  0  0
  139.2340   80.8500  224.2070 C   0  0  0  0  0  0  0  0  0  0  0  0
  137.8680   80.9060  224.4060 C   0  0  0  0  0  0  0  0  0  0  0  0
  137.3260   81.9460  225.1360 C   0  0  0  0  0  0  0  0  0  0  0  0
  135.9460   81.9550  225.3070 C   0  0  0  0  0  0  0  0  0  0  0  0
  135.2410   83.2680  226.2320 Cl  0  0  0  0  0  0  0  0  0  0  0  0
  135.1800   80.9490  224.7550 C   0  0  0  0  0  0  0  0  0  0  0  0
  135.7180   79.9060  224.0230 C   0  0  0  0  0  0  0  0  0  0  0  0
  137.0900   79.9050  223.8580 C   0  0  0  0  0  0  0  0  0  0  0  0
  137.6640   78.9130  223.1530 N   0  0  0  0  0  0  0  0  0  0  0  0
  137.9390   77.3140  220.9660 H   0  0  0  0  0  0  0  0  0  0  0  0
  139.0509   75.7065  219.6227 H   0  0  0  0  0  0  0  0  0  0  0  0
  140.6207   76.4567  220.1493 H   0  0  0  0  0  0  0  0  0  0  0  0
  142.3078   75.3988  220.0424 H   0  0  0  0  0  0  0  0  0  0  0  0
  142.8272   74.9682  221.6761 H   0  0  0  0  0  0  0  0  0  0  0  0
  143.6937   73.7871  219.2780 H   0  0  0  0  0  0  0  0  0  0  0  0
  143.9470   73.1111  220.8915 H   0  0  0  0  0  0  0  0  0  0  0  0
  141.8306   72.4633  218.8301 H   0  0  0  0  0  0  0  0  0  0  0  0
  142.6234   71.3673  219.9612 H   0  0  0  0  0  0  0  0  0  0  0  0
  140.0193   72.2853  220.5432 H   0  0  0  0  0  0  0  0  0  0  0  0
  141.0496   70.6839  221.7408 H   0  0  0  0  0  0  0  0  0  0  0  0
  142.2489   71.9019  222.3944 H   0  0  0  0  0  0  0  0  0  0  0  0
  139.7260   72.9000  222.9980 H   0  0  0  0  0  0  0  0  0  0  0  0
  141.7906   72.4162  225.3049 H   0  0  0  0  0  0  0  0  0  0  0  0
  141.6325   71.2223  227.4335 H   0  0  0  0  0  0  0  0  0  0  0  0
  138.4323   68.8738  225.8734 H   0  0  0  0  0  0  0  0  0  0  0  0
  138.5836   70.0685  223.7379 H   0  0  0  0  0  0  0  0  0  0  0  0
  140.8970   79.8014  223.3355 H   0  0  0  0  0  0  0  0  0  0  0  0
  139.8738   81.6360  224.6346 H   0  0  0  0  0  0  0  0  0  0  0  0
  137.9607   82.7355  225.5649 H   0  0  0  0  0  0  0  0  0  0  0  0
  134.0905   80.9777  224.9040 H   0  0  0  0  0  0  0  0  0  0  0  0
  135.0847   79.1159  223.5932 H   0  0  0  0  0  0  0  0  0  0  0  0
  1  2  2  0
  2  3  1  0
  3  4  1  0
  4  5  1  0
  5  6  2  0
  5  7  1  0
  7  8  1  0
  8  9  1  0
  9 10  1  0
 10 11  1  0
 11 12  1  0
 12 13  1  0
 13 14  1  0
 14 15  2  0
 15 16  1  0
 16 17  2  0
 17 18  1  0
 17 19  1  0
 19 20  2  0
  2 21  1  0
 21 22  2  0
 22 23  1  0
 23 24  2  0
 24 25  1  0
 25 26  2  0
 26 27  1  0
 26 28  1  0
 28 29  2  0
 29 30  1  0
 30 31  2  0
 11  7  1  0
 20 14  1  0
 31 21  1  0
 30 24  1  0
  3 32  1  0
  4 33  1  0
  4 34  1  0
  8 35  1  0
  8 36  1  0
  9 37  1  0
  9 38  1  0
 10 39  1  0
 10 40  1  0
 11 41  1  6
 12 42  1  0
 12 43  1  0
 13 44  1  0
 15 45  1  0
 16 46  1  0
 19 47  1  0
 20 48  1  0
 22 49  1  0
 23 50  1  0
 25 51  1  0
 28 52  1  0
 29 53  1  0
M  END
>  <smiles>  (2) 
O=C(NCC(=O)N1CCC[C@H]1CNc1ccc(Cl)cc1)c1ccc2cc(Cl)ccc2n1

>  <score_type>  (2) 
oracle

>  <origin>  (2) 
autodockgpu

>  <m_score__min__energy>  (2) 
-8.6400000000000006

>  <m_primary>  (2) 
energy

>  <rmsd>  (2) 
8.983606157334334

>  <m_score__min__rmsd>  (2) 
8.983606157334334

>  <meeko>  (2) 
{"free_energy": -7.23, "intermolecular_energy": -9.32, "internal_energy": -2.13, "cluster_size": 1, "cluster_id": 10, "rank_in_cluster": 1}

>  <energy>  (2) 
-8.16

>  <cluster_rmsd>  (2) 
1.34

>  <cluster>  (2) 
1

$$$$

     RDKit          3D

 53 56  0  0  0  0  0  0  0  0999 V2000
  137.4780   71.2010  221.0110 O   0  0  0  0  0  0  0  0  0  0  0  0
  137.7280   71.7480  222.1250 C   0  0  0  0  0  0  0  0  0  0  0  0
  137.4810   73.1550  222.1920 N   0  0  0  0  0  0  0  0  0  0  0  0
  136.9860   73.8090  221.0210 C   0  0  0  0  0  0  0  0  0  0  0  0
  138.0610   74.0680  220.0180 C   0  0  0  0  0  0  0  0  0  0  0  0
  137.8460   74.6920  218.9410 O   0  0  0  0  0  0  0  0  0  0  0  0
  139.3950   73.5820  220.2980 N   0  0  0  0  0  0  0  0  0  0  0  0
  139.9600   72.4880  219.5440 C   0  0  0  0  0  0  0  0  0  0  0  0
  141.1930   72.1030  220.2680 C   0  0  0  0  0  0  0  0  0  0  0  0
  141.1230   72.8250  221.5880 C   0  0  0  0  0  0  0  0  0  0  0  0
  140.2780   74.0660  221.3120 C   0  0  1  0  0  0  0  0  0  0  0  0
  141.1620   75.2120  221.0070 C   0  0  0  0  0  0  0  0  0  0  0  0
  141.3200   76.1270  222.0910 N   0  0  0  0  0  0  0  0  0  0  0  0
  140.4660   77.1720  222.4640 C   0  0  0  0  0  0  0  0  0  0  0  0
  140.9630   78.3300  223.0430 C   0  0  0  0  0  0  0  0  0  0  0  0
  140.1600   79.3710  223.4530 C   0  0  0  0  0  0  0  0  0  0  0  0
  138.7930   79.3050  223.3000 C   0  0  0  0  0  0  0  0  0  0  0  0
  137.8290   80.6620  223.8400 Cl  0  0  0  0  0  0  0  0  0  0  0  0
  138.2700   78.1770  222.7330 C   0  0  0  0  0  0  0  0  0  0  0  0
  139.0800   77.1350  222.3240 C   0  0  0  0  0  0  0  0  0  0  0  0
  138.2330   71.0050  223.2710 C   0  0  0  0  0  0  0  0  0  0  0  0
  137.6860   69.7550  223.5050 C   0  0  0  0  0  0  0  0  0  0  0  0
  138.1360   69.0260  224.5760 C   0  0  0  0  0  0  0  0  0  0  0  0
  139.1180   69.5160  225.4170 C   0  0  0  0  0  0  0  0  0  0  0  0
  139.5460   68.7520  226.4850 C   0  0  0  0  0  0  0  0  0  0  0  0
  140.5360   69.2920  227.3000 C   0  0  0  0  0  0  0  0  0  0  0  0
  141.0910   68.3360  228.6610 Cl  0  0  0  0  0  0  0  0  0  0  0  0
  141.0460   70.5440  227.0220 C   0  0  0  0  0  0  0  0  0  0  0  0
  140.6200   71.3120  225.9530 C   0  0  0  0  0  0  0  0  0  0  0  0
  139.6370   70.7680  225.1490 C   0  0  0  0  0  0  0  0  0  0  0  0
  139.1880   71.4730  224.0950 N   0  0  0  0  0  0  0  0  0  0  0  0
  137.6720   73.6660  223.1010 H   0  0  0  0  0  0  0  0  0  0  0  0
  136.2172   73.1723  220.5588 H   0  0  0  0  0  0  0  0  0  0  0  0
  136.5721   74.7807  221.3284 H   0  0  0  0  0  0  0  0  0  0  0  0
  139.2565   71.6432  219.5067 H   0  0  0  0  0  0  0  0  0  0  0  0
  140.1710   72.7758  218.5035 H   0  0  0  0  0  0  0  0  0  0  0  0
  141.2230   71.0148  220.4256 H   0  0  0  0  0  0  0  0  0  0  0  0
  142.0990   72.3688  219.7036 H   0  0  0  0  0  0  0  0  0  0  0  0
  140.6445   72.1925  222.3503 H   0  0  0  0  0  0  0  0  0  0  0  0
  142.1209   73.0807  221.9738 H   0  0  0  0  0  0  0  0  0  0  0  0
  139.6813   74.4877  222.1343 H   0  0  0  0  0  0  0  0  0  0  0  0
  142.1541   74.8214  220.7365 H   0  0  0  0  0  0  0  0  0  0  0  0
  140.6885   75.7698  220.1857 H   0  0  0  0  0  0  0  0  0  0  0  0
  142.1940   76.0020  222.6940 H   0  0  0  0  0  0  0  0  0  0  0  0
  142.0504   78.4214  223.1814 H   0  0  0  0  0  0  0  0  0  0  0  0
  140.6149   80.2637  223.9070 H   0  0  0  0  0  0  0  0  0  0  0  0
  137.1811   78.0969  222.5994 H   0  0  0  0  0  0  0  0  0  0  0  0
  138.6151   76.2461  221.8726 H   0  0  0  0  0  0  0  0  0  0  0  0
  136.9042   69.3535  222.8436 H   0  0  0  0  0  0  0  0  0  0  0  0
  137.7072   68.0317  224.7698 H   0  0  0  0  0  0  0  0  0  0  0  0
  139.1214   67.7568  226.6833 H   0  0  0  0  0  0  0  0  0  0  0  0
  141.8275   70.9501  227.6810 H   0  0  0  0  0  0  0  0  0  0  0  0
  141.0434   72.3074  225.7529 H   0  0  0  0  0  0  0  0  0  0  0  0
  1  2  2  0
  2  3  1  0
  3  4  1  0
  4  5  1  0
  5  6  2  0
  5  7  1  0
  7  8  1  0
  8  9  1  0
  9 10  1  0
 10 11  1  0
 11 12  1  0
 12 13  1  0
 13 14  1  0
 14 15  2  0
 15 16  1  0
 16 17  2  0
 17 18  1  0
 17 19  1  0
 19 20  2  0
  2 21  1  0
 21 22  2  0
 22 23  1  0
 23 24  2  0
 24 25  1  0
 25 26  2  0
 26 27  1  0
 26 28  1  0
 28 29  2  0
 29 30  1  0
 30 31  2  0
 11  7  1  0
 20 14  1  0
 31 21  1  0
 30 24  1  0
  3 32  1  0
  4 33  1  0
  4 34  1  0
  8 35  1  0
  8 36  1  0
  9 37  1  0
  9 38  1  0
 10 39  1  0
 10 40  1  0
 11 41  1  1
 12 42  1  0
 12 43  1  0
 13 44  1  0
 15 45  1  0
 16 46  1  0
 19 47  1  0
 20 48  1  0
 22 49  1  0
 23 50  1  0
 25 51  1  0
 28 52  1  0
 29 53  1  0
M  END
>  <smiles>  (3) 
O=C(NCC(=O)N1CCC[C@H]1CNc1ccc(Cl)cc1)c1ccc2cc(Cl)ccc2n1

>  <score_type>  (3) 
oracle

>  <origin>  (3) 
autodockgpu

>  <m_score__min__energy>  (3) 
-8.6400000000000006

>  <m_primary>  (3) 
energy

>  <rmsd>  (3) 
3.0793903148724207

>  <m_score__min__rmsd>  (3) 
3.0793903148724207

>  <meeko>  (3) 
{"free_energy": -7.63, "intermolecular_energy": -9.71, "internal_energy": -2.11, "cluster_size": 12, "cluster_id": 2, "rank_in_cluster": 9}

>  <energy>  (3) 
-8.11

>  <cluster_rmsd>  (3) 
1.31

>  <cluster>  (3) 
1

$$$$

     RDKit          3D

 53 56  0  0  0  0  0  0  0  0999 V2000
  139.2660   76.2370  221.7300 O   0  0  0  0  0  0  0  0  0  0  0  0
  140.5140   76.1290  221.9040 C   0  0  0  0  0  0  0  0  0  0  0  0
  141.1350   77.1990  222.6230 N   0  0  0  0  0  0  0  0  0  0  0  0
  140.3090   78.2750  223.0720 C   0  0  0  0  0  0  0  0  0  0  0  0
  141.0660   79.5560  223.2010 C   0  0  0  0  0  0  0  0  0  0  0  0
  141.9720   79.7230  224.0660 O   0  0  0  0  0  0  0  0  0  0  0  0
  140.7450   80.6400  222.2980 N   0  0  0  0  0  0  0  0  0  0  0  0
  141.7740   81.5220  221.8010 C   0  0  0  0  0  0  0  0  0  0  0  0
  141.0560   82.6370  221.1430 C   0  0  0  0  0  0  0  0  0  0  0  0
  139.6150   82.4810  221.5510 C   0  0  0  0  0  0  0  0  0  0  0  0
  139.4440   80.9880  221.8210 C   0  0  1  0  0  0  0  0  0  0  0  0
  138.9210   80.3200  220.6090 C   0  0  0  0  0  0  0  0  0  0  0  0
  139.2910   78.9460  220.5000 N   0  0  0  0  0  0  0  0  0  0  0  0
  140.2880   78.3860  219.6930 C   0  0  0  0  0  0  0  0  0  0  0  0
  140.0150   77.3150  218.8570 C   0  0  0  0  0  0  0  0  0  0  0  0
  140.9700   76.7140  218.0670 C   0  0  0  0  0  0  0  0  0  0  0  0
  142.2710   77.1640  218.0740 C   0  0  0  0  0  0  0  0  0  0  0  0
  143.4360   76.3570  217.0470 Cl  0  0  0  0  0  0  0  0  0  0  0  0
  142.5750   78.2190  218.8880 C   0  0  0  0  0  0  0  0  0  0  0  0
  141.6140   78.8190  219.6780 C   0  0  0  0  0  0  0  0  0  0  0  0
  141.2830   74.9940  221.4100 C   0  0  0  0  0  0  0  0  0  0  0  0
  140.6970   73.7440  221.5080 C   0  0  0  0  0  0  0  0  0  0  0  0
  141.3900   72.6510  221.0540 C   0  0  0  0  0  0  0  0  0  0  0  0
  142.6530   72.7780  220.5060 C   0  0  0  0  0  0  0  0  0  0  0  0
  143.3190   71.6540  220.0590 C   0  0  0  0  0  0  0  0  0  0  0  0
  144.5870   71.8380  219.5170 C   0  0  0  0  0  0  0  0  0  0  0  0
  145.4480   70.4210  218.9440 Cl  0  0  0  0  0  0  0  0  0  0  0  0
  145.1240   73.1060  219.4430 C   0  0  0  0  0  0  0  0  0  0  0  0
  144.4600   74.2340  219.8890 C   0  0  0  0  0  0  0  0  0  0  0  0
  143.2020   74.0430  220.4270 C   0  0  0  0  0  0  0  0  0  0  0  0
  142.5120   75.1080  220.8750 N   0  0  0  0  0  0  0  0  0  0  0  0
  142.1790   77.1600  222.7980 H   0  0  0  0  0  0  0  0  0  0  0  0
  139.4917   78.4184  222.3499 H   0  0  0  0  0  0  0  0  0  0  0  0
  139.9240   78.0103  224.0678 H   0  0  0  0  0  0  0  0  0  0  0  0
  142.3911   81.8984  222.6302 H   0  0  0  0  0  0  0  0  0  0  0  0
  142.4521   81.0064  221.1050 H   0  0  0  0  0  0  0  0  0  0  0  0
  141.4506   83.6047  221.4864 H   0  0  0  0  0  0  0  0  0  0  0  0
  141.1765   82.6126  220.0499 H   0  0  0  0  0  0  0  0  0  0  0  0
  139.4041   83.0653  222.4588 H   0  0  0  0  0  0  0  0  0  0  0  0
  138.9232   82.8443  220.7767 H   0  0  0  0  0  0  0  0  0  0  0  0
  138.6952   80.6716  222.5621 H   0  0  0  0  0  0  0  0  0  0  0  0
  137.8229   80.3826  220.6257 H   0  0  0  0  0  0  0  0  0  0  0  0
  139.3608   80.8383  219.7442 H   0  0  0  0  0  0  0  0  0  0  0  0
  138.7420   78.2570  221.1070 H   0  0  0  0  0  0  0  0  0  0  0  0
  138.9865   76.9263  218.8226 H   0  0  0  0  0  0  0  0  0  0  0  0
  140.6904   75.8662  217.4243 H   0  0  0  0  0  0  0  0  0  0  0  0
  143.6072   78.5984  218.9145 H   0  0  0  0  0  0  0  0  0  0  0  0
  141.9039   79.6665  220.3166 H   0  0  0  0  0  0  0  0  0  0  0  0
  139.6930   73.6292  221.9424 H   0  0  0  0  0  0  0  0  0  0  0  0
  140.9319   71.6536  221.1273 H   0  0  0  0  0  0  0  0  0  0  0  0
  142.8656   70.6542  220.1286 H   0  0  0  0  0  0  0  0  0  0  0  0
  146.1276   73.2258  219.0088 H   0  0  0  0  0  0  0  0  0  0  0  0
  144.9115   75.2346  219.8188 H   0  0  0  0  0  0  0  0  0  0  0  0
  1  2  2  0
  2  3  1  0
  3  4  1  0
  4  5  1  0
  5  6  2  0
  5  7  1  0
  7  8  1  0
  8  9  1  0
  9 10  1  0
 10 11  1  0
 11 12  1  0
 12 13  1  0
 13 14  1  0
 14 15  2  0
 15 16  1  0
 16 17  2  0
 17 18  1  0
 17 19  1  0
 19 20  2  0
  2 21  1  0
 21 22  2  0
 22 23  1  0
 23 24  2  0
 24 25  1  0
 25 26  2  0
 26 27  1  0
 26 28  1  0
 28 29  2  0
 29 30  1  0
 30 31  2  0
 11  7  1  0
 20 14  1  0
 31 21  1  0
 30 24  1  0
  3 32  1  0
  4 33  1  0
  4 34  1  0
  8 35  1  0
  8 36  1  0
  9 37  1  0
  9 38  1  0
 10 39  1  0
 10 40  1  0
 11 41  1  1
 12 42  1  0
 12 43  1  0
 13 44  1  0
 15 45  1  0
 16 46  1  0
 19 47  1  0
 20 48  1  0
 22 49  1  0
 23 50  1  0
 25 51  1  0
 28 52  1  0
 29 53  1  0
M  END
>  <smiles>  (4) 
O=C(NCC(=O)N1CCC[C@H]1CNc1ccc(Cl)cc1)c1ccc2cc(Cl)ccc2n1

>  <score_type>  (4) 
oracle

>  <origin>  (4) 
autodockgpu

>  <m_score__min__energy>  (4) 
-8.6400000000000006

>  <m_primary>  (4) 
energy

>  <rmsd>  (4) 
6.411450326726965

>  <m_score__min__rmsd>  (4) 
6.411450326726965

>  <meeko>  (4) 
{"free_energy": -5.64, "intermolecular_energy": -7.73, "internal_energy": -3.59, "cluster_size": 4, "cluster_id": 15, "rank_in_cluster": 4}

>  <energy>  (4) 
-8.03

>  <cluster_rmsd>  (4) 
1.43

>  <cluster>  (4) 
1

$$$$

     RDKit          3D

 53 56  0  0  0  0  0  0  0  0999 V2000
  143.2050   75.1660  218.2120 O   0  0  0  0  0  0  0  0  0  0  0  0
  143.0750   75.7040  219.3510 C   0  0  0  0  0  0  0  0  0  0  0  0
  143.4090   74.8750  220.4680 N   0  0  0  0  0  0  0  0  0  0  0  0
  143.8490   73.5400  220.2090 C   0  0  0  0  0  0  0  0  0  0  0  0
  142.7110   72.6050  219.9650 C   0  0  0  0  0  0  0  0  0  0  0  0
  142.8510   71.5140  219.3430 O   0  0  0  0  0  0  0  0  0  0  0  0
  141.4010   72.9700  220.4610 N   0  0  0  0  0  0  0  0  0  0  0  0
  140.3610   73.4080  219.5600 C   0  0  0  0  0  0  0  0  0  0  0  0
  139.2840   73.9370  220.4270 C   0  0  0  0  0  0  0  0  0  0  0  0
  139.8900   74.0390  221.8010 C   0  0  0  0  0  0  0  0  0  0  0  0
  140.9840   72.9750  221.8280 C   0  0  1  0  0  0  0  0  0  0  0  0
  140.4510   71.7290  222.4200 C   0  0  0  0  0  0  0  0  0  0  0  0
  139.8960   71.8980  223.7240 N   0  0  0  0  0  0  0  0  0  0  0  0
  140.1620   71.1460  224.8750 C   0  0  0  0  0  0  0  0  0  0  0  0
  139.7850   69.8150  224.9630 C   0  0  0  0  0  0  0  0  0  0  0  0
  140.0000   69.0450  226.0850 C   0  0  0  0  0  0  0  0  0  0  0  0
  140.6140   69.5790  227.1950 C   0  0  0  0  0  0  0  0  0  0  0  0
  140.8580   68.5460  228.5870 Cl  0  0  0  0  0  0  0  0  0  0  0  0
  140.9980   70.8890  227.1420 C   0  0  0  0  0  0  0  0  0  0  0  0
  140.7810   71.6580  226.0150 C   0  0  0  0  0  0  0  0  0  0  0  0
  142.6190   77.0760  219.5260 C   0  0  0  0  0  0  0  0  0  0  0  0
  142.6490   77.8990  218.4130 C   0  0  0  0  0  0  0  0  0  0  0  0
  142.2280   79.1980  218.5400 C   0  0  0  0  0  0  0  0  0  0  0  0
  141.7770   79.6920  219.7500 C   0  0  0  0  0  0  0  0  0  0  0  0
  141.3590   81.0060  219.8370 C   0  0  0  0  0  0  0  0  0  0  0  0
  140.9150   81.4530  221.0780 C   0  0  0  0  0  0  0  0  0  0  0  0
  140.3820   83.1180  221.2080 Cl  0  0  0  0  0  0  0  0  0  0  0  0
  140.9060   80.5900  222.1540 C   0  0  0  0  0  0  0  0  0  0  0  0
  141.3230   79.2730  222.0700 C   0  0  0  0  0  0  0  0  0  0  0  0
  141.7630   78.8380  220.8350 C   0  0  0  0  0  0  0  0  0  0  0  0
  142.1780   77.5660  220.6990 N   0  0  0  0  0  0  0  0  0  0  0  0
  143.3190   75.2750  221.4460 H   0  0  0  0  0  0  0  0  0  0  0  0
  144.4973   73.5475  219.3204 H   0  0  0  0  0  0  0  0  0  0  0  0
  144.3903   73.1858  221.0987 H   0  0  0  0  0  0  0  0  0  0  0  0
  140.7382   74.1958  218.8914 H   0  0  0  0  0  0  0  0  0  0  0  0
  140.0038   72.5882  218.9195 H   0  0  0  0  0  0  0  0  0  0  0  0
  138.9586   74.9272  220.0755 H   0  0  0  0  0  0  0  0  0  0  0  0
  138.3964   73.2873  220.4189 H   0  0  0  0  0  0  0  0  0  0  0  0
  140.3189   75.0392  221.9615 H   0  0  0  0  0  0  0  0  0  0  0  0
  139.1441   73.8861  222.5948 H   0  0  0  0  0  0  0  0  0  0  0  0
  141.8619   73.1415  222.4695 H   0  0  0  0  0  0  0  0  0  0  0  0
  139.6644   71.3397  221.7569 H   0  0  0  0  0  0  0  0  0  0  0  0
  141.2994   71.0364  222.5221 H   0  0  0  0  0  0  0  0  0  0  0  0
  139.1910   72.6940  223.8400 H   0  0  0  0  0  0  0  0  0  0  0  0
  139.2909   69.3518  224.0962 H   0  0  0  0  0  0  0  0  0  0  0  0
  139.6778   67.9933  226.0938 H   0  0  0  0  0  0  0  0  0  0  0  0
  141.4906   71.3412  228.0154 H   0  0  0  0  0  0  0  0  0  0  0  0
  141.1072   72.7085  226.0169 H   0  0  0  0  0  0  0  0  0  0  0  0
  143.0042   77.5178  217.4442 H   0  0  0  0  0  0  0  0  0  0  0  0
  142.2496   79.8600  217.6618 H   0  0  0  0  0  0  0  0  0  0  0  0
  141.3764   81.6716  218.9614 H   0  0  0  0  0  0  0  0  0  0  0  0
  140.5506   80.9663  223.1246 H   0  0  0  0  0  0  0  0  0  0  0  0
  141.3049   78.6053  222.9440 H   0  0  0  0  0  0  0  0  0  0  0  0
  1  2  2  0
  2  3  1  0
  3  4  1  0
  4  5  1  0
  5  6  2  0
  5  7  1  0
  7  8  1  0
  8  9  1  0
  9 10  1  0
 10 11  1  0
 11 12  1  0
 12 13  1  0
 13 14  1  0
 14 15  2  0
 15 16  1  0
 16 17  2  0
 17 18  1  0
 17 19  1  0
 19 20  2  0
  2 21  1  0
 21 22  2  0
 22 23  1  0
 23 24  2  0
 24 25  1  0
 25 26  2  0
 26 27  1  0
 26 28  1  0
 28 29  2  0
 29 30  1  0
 30 31  2  0
 11  7  1  0
 20 14  1  0
 31 21  1  0
 30 24  1  0
  3 32  1  0
  4 33  1  0
  4 34  1  0
  8 35  1  0
  8 36  1  0
  9 37  1  0
  9 38  1  0
 10 39  1  0
 10 40  1  0
 11 41  1  1
 12 42  1  0
 12 43  1  0
 13 44  1  0
 15 45  1  0
 16 46  1  0
 19 47  1  0
 20 48  1  0
 22 49  1  0
 23 50  1  0
 25 51  1  0
 28 52  1  0
 29 53  1  0
M  END
>  <smiles>  (5) 
O=C(NCC(=O)N1CCC[C@H]1CNc1ccc(Cl)cc1)c1ccc2cc(Cl)ccc2n1

>  <score_type>  (5) 
oracle

>  <origin>  (5) 
autodockgpu

>  <m_score__min__energy>  (5) 
-8.6400000000000006

>  <m_primary>  (5) 
energy

>  <rmsd>  (5) 
9.067356046579937

>  <m_score__min__rmsd>  (5) 
9.067356046579937

>  <meeko>  (5) 
{"free_energy": -7.91, "intermolecular_energy": -10.0, "internal_energy": -1.77, "cluster_size": 2, "cluster_id": 4, "rank_in_cluster": 1}

>  <energy>  (5) 
-7.94

>  <cluster_rmsd>  (5) 
1.39

>  <cluster>  (5) 
1

$$$$

     RDKit          3D

 53 56  0  0  0  0  0  0  0  0999 V2000
  138.8250   71.2980  221.0790 O   0  0  0  0  0  0  0  0  0  0  0  0
  138.5840   71.6480  222.2710 C   0  0  0  0  0  0  0  0  0  0  0  0
  137.8460   72.8650  222.4210 N   0  0  0  0  0  0  0  0  0  0  0  0
  137.4550   73.5650  221.2380 C   0  0  0  0  0  0  0  0  0  0  0  0
  138.4870   74.5490  220.7940 C   0  0  0  0  0  0  0  0  0  0  0  0
  138.2610   75.7910  220.7410 O   0  0  0  0  0  0  0  0  0  0  0  0
  139.7910   74.0530  220.4110 N   0  0  0  0  0  0  0  0  0  0  0  0
  139.9590   73.2410  219.2290 C   0  0  0  0  0  0  0  0  0  0  0  0
  141.3390   72.7110  219.3050 C   0  0  0  0  0  0  0  0  0  0  0  0
  141.8110   73.0230  220.7010 C   0  0  0  0  0  0  0  0  0  0  0  0
  141.0170   74.2590  221.1170 C   0  0  1  0  0  0  0  0  0  0  0  0
  141.8100   75.4760  220.8370 C   0  0  0  0  0  0  0  0  0  0  0  0
  141.0620   76.6890  220.9280 N   0  0  0  0  0  0  0  0  0  0  0  0
  141.3850   77.8450  221.6470 C   0  0  0  0  0  0  0  0  0  0  0  0
  141.2500   77.8920  223.0260 C   0  0  0  0  0  0  0  0  0  0  0  0
  141.5280   79.0160  223.7720 C   0  0  0  0  0  0  0  0  0  0  0  0
  141.9640   80.1720  223.1640 C   0  0  0  0  0  0  0  0  0  0  0  0
  142.3010   81.5640  224.1690 Cl  0  0  0  0  0  0  0  0  0  0  0  0
  142.1080   80.1600  221.8050 C   0  0  0  0  0  0  0  0  0  0  0  0
  141.8280   79.0300  221.0600 C   0  0  0  0  0  0  0  0  0  0  0  0
  139.0210   70.8730  223.4230 C   0  0  0  0  0  0  0  0  0  0  0  0
  138.7670   69.5120  223.4030 C   0  0  0  0  0  0  0  0  0  0  0  0
  139.1630   68.7490  224.4710 C   0  0  0  0  0  0  0  0  0  0  0  0
  139.8080   69.3130  225.5570 C   0  0  0  0  0  0  0  0  0  0  0  0
  140.1930   68.5110  226.6140 C   0  0  0  0  0  0  0  0  0  0  0  0
  140.8370   69.1290  227.6810 C   0  0  0  0  0  0  0  0  0  0  0  0
  141.3330   68.1260  229.0320 Cl  0  0  0  0  0  0  0  0  0  0  0  0
  141.0650   70.4890  227.6500 C   0  0  0  0  0  0  0  0  0  0  0  0
  140.6810   71.2950  226.5940 C   0  0  0  0  0  0  0  0  0  0  0  0
  140.0420   70.6740  225.5380 C   0  0  0  0  0  0  0  0  0  0  0  0
  139.6490   71.4120  224.4840 N   0  0  0  0  0  0  0  0  0  0  0  0
  137.6150   73.2060  223.3980 H   0  0  0  0  0  0  0  0  0  0  0  0
  137.2931   72.8343  220.4319 H   0  0  0  0  0  0  0  0  0  0  0  0
  136.5346   74.1226  221.4658 H   0  0  0  0  0  0  0  0  0  0  0  0
  139.2306   72.4167  219.2223 H   0  0  0  0  0  0  0  0  0  0  0  0
  139.7952   73.8214  218.3090 H   0  0  0  0  0  0  0  0  0  0  0  0
  141.3443   71.6249  219.1307 H   0  0  0  0  0  0  0  0  0  0  0  0
  141.9923   73.1601  218.5424 H   0  0  0  0  0  0  0  0  0  0  0  0
  141.6004   72.1818  221.3778 H   0  0  0  0  0  0  0  0  0  0  0  0
  142.8967   73.1950  220.7424 H   0  0  0  0  0  0  0  0  0  0  0  0
  140.7952   74.4053  222.1844 H   0  0  0  0  0  0  0  0  0  0  0  0
  142.6371   75.5243  221.5606 H   0  0  0  0  0  0  0  0  0  0  0  0
  142.1614   75.3954  219.7978 H   0  0  0  0  0  0  0  0  0  0  0  0
  140.1430   76.7210  220.3820 H   0  0  0  0  0  0  0  0  0  0  0  0
  140.9043   76.9884  223.5494 H   0  0  0  0  0  0  0  0  0  0  0  0
  141.4005   78.9899  224.8643 H   0  0  0  0  0  0  0  0  0  0  0  0
  142.4544   81.0698  221.2928 H   0  0  0  0  0  0  0  0  0  0  0  0
  141.9589   79.0665  219.9684 H   0  0  0  0  0  0  0  0  0  0  0  0
  138.2562   69.0508  222.5449 H   0  0  0  0  0  0  0  0  0  0  0  0
  138.9639   67.6672  224.4642 H   0  0  0  0  0  0  0  0  0  0  0  0
  139.9983   67.4284  226.6120 H   0  0  0  0  0  0  0  0  0  0  0  0
  141.5764   70.9543  228.5055 H   0  0  0  0  0  0  0  0  0  0  0  0
  140.8748   72.3778  226.5947 H   0  0  0  0  0  0  0  0  0  0  0  0
  1  2  2  0
  2  3  1  0
  3  4  1  0
  4  5  1  0
  5  6  2  0
  5  7  1  0
  7  8  1  0
  8  9  1  0
  9 10  1  0
 10 11  1  0
 11 12  1  0
 12 13  1  0
 13 14  1  0
 14 15  2  0
 15 16  1  0
 16 17  2  0
 17 18  1  0
 17 19  1  0
 19 20  2  0
  2 21  1  0
 21 22  2  0
 22 23  1  0
 23 24  2  0
 24 25  1  0
 25 26  2  0
 26 27  1  0
 26 28  1  0
 28 29  2  0
 29 30  1  0
 30 31  2  0
 11  7  1  0
 20 14  1  0
 31 21  1  0
 30 24  1  0
  3 32  1  0
  4 33  1  0
  4 34  1  0
  8 35  1  0
  8 36  1  0
  9 37  1  0
  9 38  1  0
 10 39  1  0
 10 40  1  0
 11 41  1  1
 12 42  1  0
 12 43  1  0
 13 44  1  0
 15 45  1  0
 16 46  1  0
 19 47  1  0
 20 48  1  0
 22 49  1  0
 23 50  1  0
 25 51  1  0
 28 52  1  0
 29 53  1  0
M  END
>  <smiles>  (6) 
O=C(NCC(=O)N1CCC[C@H]1CNc1ccc(Cl)cc1)c1ccc2cc(Cl)ccc2n1

>  <score_type>  (6) 
oracle

>  <origin>  (6) 
autodockgpu

>  <m_score__min__energy>  (6) 
-8.6400000000000006

>  <m_primary>  (6) 
energy

>  <rmsd>  (6) 
2.585171903194501

>  <m_score__min__rmsd>  (6) 
2.585171903194501

>  <meeko>  (6) 
{"free_energy": -8.0, "intermolecular_energy": -10.09, "internal_energy": -2.39, "cluster_size": 12, "cluster_id": 2, "rank_in_cluster": 4}

>  <energy>  (6) 
-7.87

>  <cluster_rmsd>  (6) 
1.35

>  <cluster>  (6) 
1

$$$$

     RDKit          3D

 53 56  0  0  0  0  0  0  0  0999 V2000
  139.9060   74.9860  222.2930 O   0  0  0  0  0  0  0  0  0  0  0  0
  140.8480   75.6820  221.8130 C   0  0  0  0  0  0  0  0  0  0  0  0
  141.9160   74.9450  221.2110 N   0  0  0  0  0  0  0  0  0  0  0  0
  141.8300   73.5180  221.2050 C   0  0  0  0  0  0  0  0  0  0  0  0
  140.7440   73.0200  220.3090 C   0  0  0  0  0  0  0  0  0  0  0  0
  140.3600   73.6610  219.2900 O   0  0  0  0  0  0  0  0  0  0  0  0
  140.1140   71.7580  220.6270 N   0  0  0  0  0  0  0  0  0  0  0  0
  140.8970   70.5530  220.7740 C   0  0  0  0  0  0  0  0  0  0  0  0
  139.9140   69.4470  220.8270 C   0  0  0  0  0  0  0  0  0  0  0  0
  138.6010   70.0570  220.4150 C   0  0  0  0  0  0  0  0  0  0  0  0
  138.7140   71.5300  220.8020 C   0  0  1  0  0  0  0  0  0  0  0  0
  138.1150   71.7390  222.1390 C   0  0  0  0  0  0  0  0  0  0  0  0
  139.0640   72.0600  223.1550 N   0  0  0  0  0  0  0  0  0  0  0  0
  139.5270   71.2370  224.1890 C   0  0  0  0  0  0  0  0  0  0  0  0
  138.8590   70.0710  224.5280 C   0  0  0  0  0  0  0  0  0  0  0  0
  139.2600   69.2460  225.5560 C   0  0  0  0  0  0  0  0  0  0  0  0
  140.3710   69.5520  226.3090 C   0  0  0  0  0  0  0  0  0  0  0  0
  140.8280   68.4610  227.5990 Cl  0  0  0  0  0  0  0  0  0  0  0  0
  141.0530   70.6950  226.0000 C   0  0  0  0  0  0  0  0  0  0  0  0
  140.6480   71.5200  224.9690 C   0  0  0  0  0  0  0  0  0  0  0  0
  140.8570   77.1380  221.8620 C   0  0  0  0  0  0  0  0  0  0  0  0
  141.0740   77.7270  223.0960 C   0  0  0  0  0  0  0  0  0  0  0  0
  141.0890   79.0960  223.1820 C   0  0  0  0  0  0  0  0  0  0  0  0
  140.8920   79.8870  222.0660 C   0  0  0  0  0  0  0  0  0  0  0  0
  140.9140   81.2630  222.1930 C   0  0  0  0  0  0  0  0  0  0  0  0
  140.7100   82.0130  221.0390 C   0  0  0  0  0  0  0  0  0  0  0  0
  140.7350   83.7610  221.1810 Cl  0  0  0  0  0  0  0  0  0  0  0  0
  140.4970   81.3740  219.8340 C   0  0  0  0  0  0  0  0  0  0  0  0
  140.4740   79.9980  219.7040 C   0  0  0  0  0  0  0  0  0  0  0  0
  140.6780   79.2600  220.8540 C   0  0  0  0  0  0  0  0  0  0  0  0
  140.6660   77.9170  220.7820 N   0  0  0  0  0  0  0  0  0  0  0  0
  142.7330   75.4760  220.7920 H   0  0  0  0  0  0  0  0  0  0  0  0
  142.7901   73.1071  220.8595 H   0  0  0  0  0  0  0  0  0  0  0  0
  141.5984   73.1903  222.2292 H   0  0  0  0  0  0  0  0  0  0  0  0
  141.5725   70.4262  219.9152 H   0  0  0  0  0  0  0  0  0  0  0  0
  141.5269   70.5829  221.6753 H   0  0  0  0  0  0  0  0  0  0  0  0
  140.2003   68.6444  220.1314 H   0  0  0  0  0  0  0  0  0  0  0  0
  139.8588   68.9973  221.8294 H   0  0  0  0  0  0  0  0  0  0  0  0
  138.4488   69.9522  219.3306 H   0  0  0  0  0  0  0  0  0  0  0  0
  137.7452   69.5655  220.9008 H   0  0  0  0  0  0  0  0  0  0  0  0
  138.1546   72.2714  220.2127 H   0  0  0  0  0  0  0  0  0  0  0  0
  137.3908   72.5640  222.0687 H   0  0  0  0  0  0  0  0  0  0  0  0
  137.6455   70.7878  222.4303 H   0  0  0  0  0  0  0  0  0  0  0  0
  139.4740   73.0480  223.1270 H   0  0  0  0  0  0  0  0  0  0  0  0
  137.9666   69.7910  223.9490 H   0  0  0  0  0  0  0  0  0  0  0  0
  138.6866   68.3337  225.7773 H   0  0  0  0  0  0  0  0  0  0  0  0
  141.9445   70.9641  226.5855 H   0  0  0  0  0  0  0  0  0  0  0  0
  141.2285   72.4298  224.7561 H   0  0  0  0  0  0  0  0  0  0  0  0
  141.2316   77.1081  223.9916 H   0  0  0  0  0  0  0  0  0  0  0  0
  141.2611   79.5733  224.1580 H   0  0  0  0  0  0  0  0  0  0  0  0
  141.0858   81.7455  223.1665 H   0  0  0  0  0  0  0  0  0  0  0  0
  140.3382   81.9884  218.9355 H   0  0  0  0  0  0  0  0  0  0  0  0
  140.3015   79.5138  218.7315 H   0  0  0  0  0  0  0  0  0  0  0  0
  1  2  2  0
  2  3  1  0
  3  4  1  0
  4  5  1  0
  5  6  2  0
  5  7  1  0
  7  8  1  0
  8  9  1  0
  9 10  1  0
 10 11  1  0
 11 12  1  0
 12 13  1  0
 13 14  1  0
 14 15  2  0
 15 16  1  0
 16 17  2  0
 17 18  1  0
 17 19  1  0
 19 20  2  0
  2 21  1  0
 21 22  2  0
 22 23  1  0
 23 24  2  0
 24 25  1  0
 25 26  2  0
 26 27  1  0
 26 28  1  0
 28 29  2  0
 29 30  1  0
 30 31  2  0
 11  7  1  0
 20 14  1  0
 31 21  1  0
 30 24  1  0
  3 32  1  0
  4 33  1  0
  4 34  1  0
  8 35  1  0
  8 36  1  0
  9 37  1  0
  9 38  1  0
 10 39  1  0
 10 40  1  0
 11 41  1  6
 12 42  1  0
 12 43  1  0
 13 44  1  0
 15 45  1  0
 16 46  1  0
 19 47  1  0
 20 48  1  0
 22 49  1  0
 23 50  1  0
 25 51  1  0
 28 52  1  0
 29 53  1  0
M  END
>  <smiles>  (7) 
O=C(NCC(=O)N1CCC[C@H]1CNc1ccc(Cl)cc1)c1ccc2cc(Cl)ccc2n1

>  <score_type>  (7) 
oracle

>  <origin>  (7) 
autodockgpu

>  <m_score__min__energy>  (7) 
-8.6400000000000006

>  <m_primary>  (7) 
energy

>  <rmsd>  (7) 
9.166131302848468

>  <m_score__min__rmsd>  (7) 
9.166131302848468

>  <meeko>  (7) 
{"free_energy": -6.98, "intermolecular_energy": -9.07, "internal_energy": -2.5, "cluster_size": 2, "cluster_id": 4, "rank_in_cluster": 2}

>  <energy>  (7) 
-7.81

>  <cluster_rmsd>  (7) 
1.33

>  <cluster>  (7) 
1

$$$$

     RDKit          3D

 53 56  0  0  0  0  0  0  0  0999 V2000
  140.5910   73.7520  220.7150 O   0  0  0  0  0  0  0  0  0  0  0  0
  139.9490   73.7450  221.8060 C   0  0  0  0  0  0  0  0  0  0  0  0
  139.3840   74.9990  222.2000 N   0  0  0  0  0  0  0  0  0  0  0  0
  139.5890   76.1270  221.3460 C   0  0  0  0  0  0  0  0  0  0  0  0
  139.7500   77.3970  222.1150 C   0  0  0  0  0  0  0  0  0  0  0  0
  138.9890   77.7090  223.0750 O   0  0  0  0  0  0  0  0  0  0  0  0
  140.8190   78.2980  221.7410 N   0  0  0  0  0  0  0  0  0  0  0  0
  141.5770   79.0080  222.7450 C   0  0  0  0  0  0  0  0  0  0  0  0
  142.3760   80.0080  222.0020 C   0  0  0  0  0  0  0  0  0  0  0  0
  141.8130   80.0140  220.6060 C   0  0  0  0  0  0  0  0  0  0  0  0
  141.2330   78.6150  220.4110 C   0  0  1  0  0  0  0  0  0  0  0  0
  142.2320   77.7510  219.7450 C   0  0  0  0  0  0  0  0  0  0  0  0
  142.4900   76.5280  220.4330 N   0  0  0  0  0  0  0  0  0  0  0  0
  143.1040   75.3730  219.9320 C   0  0  0  0  0  0  0  0  0  0  0  0
  143.5530   74.3750  220.7830 C   0  0  0  0  0  0  0  0  0  0  0  0
  144.1880   73.2360  220.3380 C   0  0  0  0  0  0  0  0  0  0  0  0
  144.4080   73.0360  218.9940 C   0  0  0  0  0  0  0  0  0  0  0  0
  145.2200   71.5670  218.4950 Cl  0  0  0  0  0  0  0  0  0  0  0  0
  143.9780   74.0010  218.1280 C   0  0  0  0  0  0  0  0  0  0  0  0
  143.3420   75.1420  218.5780 C   0  0  0  0  0  0  0  0  0  0  0  0
  139.7880   72.5460  222.6170 C   0  0  0  0  0  0  0  0  0  0  0  0
  138.7980   71.6550  222.2380 C   0  0  0  0  0  0  0  0  0  0  0  0
  138.6160   70.5150  222.9780 C   0  0  0  0  0  0  0  0  0  0  0  0
  139.3980   70.2440  224.0850 C   0  0  0  0  0  0  0  0  0  0  0  0
  139.1850   69.0840  224.8050 C   0  0  0  0  0  0  0  0  0  0  0  0
  139.9990   68.8610  225.9100 C   0  0  0  0  0  0  0  0  0  0  0  0
  139.7420   67.3940  226.8360 Cl  0  0  0  0  0  0  0  0  0  0  0  0
  140.9700   69.7830  226.2440 C   0  0  0  0  0  0  0  0  0  0  0  0
  141.1870   70.9450  225.5260 C   0  0  0  0  0  0  0  0  0  0  0  0
  140.3740   71.1590  224.4300 C   0  0  0  0  0  0  0  0  0  0  0  0
  140.5440   72.2740  223.6960 N   0  0  0  0  0  0  0  0  0  0  0  0
  138.8350   75.0510  223.1050 H   0  0  0  0  0  0  0  0  0  0  0  0
  140.4966   75.9579  220.7480 H   0  0  0  0  0  0  0  0  0  0  0  0
  138.7004   76.2310  220.7060 H   0  0  0  0  0  0  0  0  0  0  0  0
  140.9015   79.5066  223.4558 H   0  0  0  0  0  0  0  0  0  0  0  0
  142.2144   78.3297  223.3312 H   0  0  0  0  0  0  0  0  0  0  0  0
  142.2731   81.0017  222.4625 H   0  0  0  0  0  0  0  0  0  0  0  0
  143.4480   79.7615  222.0092 H   0  0  0  0  0  0  0  0  0  0  0  0
  141.0259   80.7763  220.5093 H   0  0  0  0  0  0  0  0  0  0  0  0
  142.5770   80.2546  219.8521 H   0  0  0  0  0  0  0  0  0  0  0  0
  140.3774   78.4918  219.7308 H   0  0  0  0  0  0  0  0  0  0  0  0
  141.8641   77.5101  218.7367 H   0  0  0  0  0  0  0  0  0  0  0  0
  143.1778   78.3124  219.7269 H   0  0  0  0  0  0  0  0  0  0  0  0
  142.1800   76.4840  221.4560 H   0  0  0  0  0  0  0  0  0  0  0  0
  143.3949   74.4982  221.8646 H   0  0  0  0  0  0  0  0  0  0  0  0
  144.5222   72.4796  221.0634 H   0  0  0  0  0  0  0  0  0  0  0  0
  144.1417   73.8667  217.0486 H   0  0  0  0  0  0  0  0  0  0  0  0
  143.0128   75.8924  217.8442 H   0  0  0  0  0  0  0  0  0  0  0  0
  138.1688   71.8581  221.3589 H   0  0  0  0  0  0  0  0  0  0  0  0
  137.8317   69.8017  222.6846 H   0  0  0  0  0  0  0  0  0  0  0  0
  138.4033   68.3662  224.5157 H   0  0  0  0  0  0  0  0  0  0  0  0
  141.6012   69.5844  227.1227 H   0  0  0  0  0  0  0  0  0  0  0  0
  141.9687   71.6635  225.8136 H   0  0  0  0  0  0  0  0  0  0  0  0
  1  2  2  0
  2  3  1  0
  3  4  1  0
  4  5  1  0
  5  6  2  0
  5  7  1  0
  7  8  1  0
  8  9  1  0
  9 10  1  0
 10 11  1  0
 11 12  1  0
 12 13  1  0
 13 14  1  0
 14 15  2  0
 15 16  1  0
 16 17  2  0
 17 18  1  0
 17 19  1  0
 19 20  2  0
  2 21  1  0
 21 22  2  0
 22 23  1  0
 23 24  2  0
 24 25  1  0
 25 26  2  0
 26 27  1  0
 26 28  1  0
 28 29  2  0
 29 30  1  0
 30 31  2  0
 11  7  1  0
 20 14  1  0
 31 21  1  0
 30 24  1  0
  3 32  1  0
  4 33  1  0
  4 34  1  0
  8 35  1  0
  8 36  1  0
  9 37  1  0
  9 38  1  0
 10 39  1  0
 10 40  1  0
 11 41  1  6
 12 42  1  0
 12 43  1  0
 13 44  1  0
 15 45  1  0
 16 46  1  0
 19 47  1  0
 20 48  1  0
 22 49  1  0
 23 50  1  0
 25 51  1  0
 28 52  1  0
 29 53  1  0
M  END
>  <smiles>  (8) 
O=C(NCC(=O)N1CCC[C@H]1CNc1ccc(Cl)cc1)c1ccc2cc(Cl)ccc2n1

>  <score_type>  (8) 
oracle

>  <origin>  (8) 
autodockgpu

>  <m_score__min__energy>  (8) 
-8.6400000000000006

>  <m_primary>  (8) 
energy

>  <rmsd>  (8) 
4.697850045455124

>  <m_score__min__rmsd>  (8) 
4.697850045455124

>  <meeko>  (8) 
{"free_energy": -8.11, "intermolecular_energy": -10.2, "internal_energy": -2.02, "cluster_size": 8, "cluster_id": 1, "rank_in_cluster": 3}

>  <energy>  (8) 
-7.68

>  <cluster_rmsd>  (8) 
1.23

>  <cluster>  (8) 
1

$$$$

     RDKit          3D

 53 56  0  0  0  0  0  0  0  0999 V2000
  141.7670   74.6150  218.5340 O   0  0  0  0  0  0  0  0  0  0  0  0
  142.0030   75.5770  219.3220 C   0  0  0  0  0  0  0  0  0  0  0  0
  142.1350   75.2260  220.7030 N   0  0  0  0  0  0  0  0  0  0  0  0
  141.9920   73.8510  221.0650 C   0  0  0  0  0  0  0  0  0  0  0  0
  140.6100   73.5280  221.5300 C   0  0  0  0  0  0  0  0  0  0  0  0
  140.3790   73.0100  222.6590 O   0  0  0  0  0  0  0  0  0  0  0  0
  139.5010   73.8230  220.6490 N   0  0  0  0  0  0  0  0  0  0  0  0
  138.8310   72.7700  219.9220 C   0  0  0  0  0  0  0  0  0  0  0  0
  137.9540   73.4590  218.9480 C   0  0  0  0  0  0  0  0  0  0  0  0
  138.3850   74.9010  218.9710 C   0  0  0  0  0  0  0  0  0  0  0  0
  138.9620   75.1160  220.3680 C   0  0  1  0  0  0  0  0  0  0  0  0
  137.9160   75.6660  221.2580 C   0  0  0  0  0  0  0  0  0  0  0  0
  138.4130   76.1520  222.5050 N   0  0  0  0  0  0  0  0  0  0  0  0
  139.2750   77.2330  222.7230 C   0  0  0  0  0  0  0  0  0  0  0  0
  138.7800   78.4980  223.0000 C   0  0  0  0  0  0  0  0  0  0  0  0
  139.5880   79.5970  223.1930 C   0  0  0  0  0  0  0  0  0  0  0  0
  140.9580   79.4830  223.1170 C   0  0  0  0  0  0  0  0  0  0  0  0
  141.9270   80.9170  223.3730 Cl  0  0  0  0  0  0  0  0  0  0  0  0
  141.4790   78.2490  222.8460 C   0  0  0  0  0  0  0  0  0  0  0  0
  140.6650   77.1500  222.6530 C   0  0  0  0  0  0  0  0  0  0  0  0
  142.1350   76.9540  218.8670 C   0  0  0  0  0  0  0  0  0  0  0  0
  142.7170   77.1580  217.6280 C   0  0  0  0  0  0  0  0  0  0  0  0
  142.8590   78.4410  217.1670 C   0  0  0  0  0  0  0  0  0  0  0  0
  142.4320   79.5240  217.9130 C   0  0  0  0  0  0  0  0  0  0  0  0
  142.5910   80.8020  217.4140 C   0  0  0  0  0  0  0  0  0  0  0  0
  142.1460   81.8560  218.2060 C   0  0  0  0  0  0  0  0  0  0  0  0
  142.3400   83.4860  217.5880 Cl  0  0  0  0  0  0  0  0  0  0  0  0
  141.5730   81.5970  219.4340 C   0  0  0  0  0  0  0  0  0  0  0  0
  141.4120   80.3180  219.9370 C   0  0  0  0  0  0  0  0  0  0  0  0
  141.8570   79.2780  219.1440 C   0  0  0  0  0  0  0  0  0  0  0  0
  141.7230   78.0140  219.5870 N   0  0  0  0  0  0  0  0  0  0  0  0
  142.3340   75.9920  221.4090 H   0  0  0  0  0  0  0  0  0  0  0  0
  142.2249   73.2284  220.1886 H   0  0  0  0  0  0  0  0  0  0  0  0
  142.6828   73.6484  221.8967 H   0  0  0  0  0  0  0  0  0  0  0  0
  139.5635   72.1372  219.3995 H   0  0  0  0  0  0  0  0  0  0  0  0
  138.2590   72.1112  220.5919 H   0  0  0  0  0  0  0  0  0  0  0  0
  138.0872   73.0337  217.9423 H   0  0  0  0  0  0  0  0  0  0  0  0
  136.8903   73.3462  219.2046 H   0  0  0  0  0  0  0  0  0  0  0  0
  139.1500   75.0886  218.2032 H   0  0  0  0  0  0  0  0  0  0  0  0
  137.5512   75.5860  218.7573 H   0  0  0  0  0  0  0  0  0  0  0  0
  139.7529   75.8693  220.4985 H   0  0  0  0  0  0  0  0  0  0  0  0
  137.4191   76.4970  220.7359 H   0  0  0  0  0  0  0  0  0  0  0  0
  137.2275   74.8399  221.4893 H   0  0  0  0  0  0  0  0  0  0  0  0
  138.0900   75.6300  223.3810 H   0  0  0  0  0  0  0  0  0  0  0  0
  137.6902   78.6305  223.0690 H   0  0  0  0  0  0  0  0  0  0  0  0
  139.1341   80.5752  223.4099 H   0  0  0  0  0  0  0  0  0  0  0  0
  142.5704   78.1284  222.7801 H   0  0  0  0  0  0  0  0  0  0  0  0
  141.1290   76.1764  222.4368 H   0  0  0  0  0  0  0  0  0  0  0  0
  143.0597   76.3052  217.0236 H   0  0  0  0  0  0  0  0  0  0  0  0
  143.3219   78.6124  216.1840 H   0  0  0  0  0  0  0  0  0  0  0  0
  143.0507   80.9794  216.4305 H   0  0  0  0  0  0  0  0  0  0  0  0
  141.2281   82.4467  220.0415 H   0  0  0  0  0  0  0  0  0  0  0  0
  140.9523   80.1382  220.9200 H   0  0  0  0  0  0  0  0  0  0  0  0
  1  2  2  0
  2  3  1  0
  3  4  1  0
  4  5  1  0
  5  6  2  0
  5  7  1  0
  7  8  1  0
  8  9  1  0
  9 10  1  0
 10 11  1  0
 11 12  1  0
 12 13  1  0
 13 14  1  0
 14 15  2  0
 15 16  1  0
 16 17  2  0
 17 18  1  0
 17 19  1  0
 19 20  2  0
  2 21  1  0
 21 22  2  0
 22 23  1  0
 23 24  2  0
 24 25  1  0
 25 26  2  0
 26 27  1  0
 26 28  1  0
 28 29  2  0
 29 30  1  0
 30 31  2  0
 11  7  1  0
 20 14  1  0
 31 21  1  0
 30 24  1  0
  3 32  1  0
  4 33  1  0
  4 34  1  0
  8 35  1  0
  8 36  1  0
  9 37  1  0
  9 38  1  0
 10 39  1  0
 10 40  1  0
 11 41  1  6
 12 42  1  0
 12 43  1  0
 13 44  1  0
 15 45  1  0
 16 46  1  0
 19 47  1  0
 20 48  1  0
 22 49  1  0
 23 50  1  0
 25 51  1  0
 28 52  1  0
 29 53  1  0
M  END
>  <smiles>  (9) 
O=C(NCC(=O)N1CCC[C@H]1CNc1ccc(Cl)cc1)c1ccc2cc(Cl)ccc2n1

>  <score_type>  (9) 
oracle

>  <origin>  (9) 
autodockgpu

>  <m_score__min__energy>  (9) 
-8.6400000000000006

>  <m_primary>  (9) 
energy

>  <rmsd>  (9) 
7.936723777040344

>  <m_score__min__rmsd>  (9) 
7.936723777040344

>  <meeko>  (9) 
{"free_energy": -6.43, "intermolecular_energy": -8.52, "internal_energy": -3.06, "cluster_size": 1, "cluster_id": 16, "rank_in_cluster": 1}

>  <energy>  (9) 
-8.61

>  <cluster_rmsd>  (9) 
0.0

>  <cluster>  (9) 
2

$$$$

     RDKit          3D

 53 56  0  0  0  0  0  0  0  0999 V2000
  139.6490   72.0020  220.7790 O   0  0  0  0  0  0  0  0  0  0  0  0
  139.6610   72.4190  221.9740 C   0  0  0  0  0  0  0  0  0  0  0  0
  139.5260   73.8340  222.1370 N   0  0  0  0  0  0  0  0  0  0  0  0
  139.3930   74.6370  220.9620 C   0  0  0  0  0  0  0  0  0  0  0  0
  138.0050   74.6100  220.4110 C   0  0  0  0  0  0  0  0  0  0  0  0
  137.7680   74.4560  219.1800 O   0  0  0  0  0  0  0  0  0  0  0  0
  136.8970   74.7650  221.3280 N   0  0  0  0  0  0  0  0  0  0  0  0
  136.3340   73.6260  222.0130 C   0  0  0  0  0  0  0  0  0  0  0  0
  135.0840   74.1160  222.6370 C   0  0  0  0  0  0  0  0  0  0  0  0
  134.8400   75.4720  222.0300 C   0  0  0  0  0  0  0  0  0  0  0  0
  136.2250   75.9860  221.6460 C   0  0  1  0  0  0  0  0  0  0  0  0
  136.7590   76.8360  222.7330 C   0  0  0  0  0  0  0  0  0  0  0  0
  138.1530   76.6540  222.9800 N   0  0  0  0  0  0  0  0  0  0  0  0
  139.1520   77.6340  223.0230 C   0  0  0  0  0  0  0  0  0  0  0  0
  140.4700   77.3250  222.7230 C   0  0  0  0  0  0  0  0  0  0  0  0
  141.4910   78.2470  222.7810 C   0  0  0  0  0  0  0  0  0  0  0  0
  141.2400   79.5510  223.1470 C   0  0  0  0  0  0  0  0  0  0  0  0
  142.5810   80.6730  223.1990 Cl  0  0  0  0  0  0  0  0  0  0  0  0
  139.9510   79.8890  223.4500 C   0  0  0  0  0  0  0  0  0  0  0  0
  138.9290   78.9600  223.3910 C   0  0  0  0  0  0  0  0  0  0  0  0
  139.8020   71.5280  223.1170 C   0  0  0  0  0  0  0  0  0  0  0  0
  139.3730   70.2220  222.9580 C   0  0  0  0  0  0  0  0  0  0  0  0
  139.4890   69.3540  224.0130 C   0  0  0  0  0  0  0  0  0  0  0  0
  140.0240   69.7600  225.2210 C   0  0  0  0  0  0  0  0  0  0  0  0
  140.1250   68.8560  226.2610 C   0  0  0  0  0  0  0  0  0  0  0  0
  140.6690   69.3160  227.4560 C   0  0  0  0  0  0  0  0  0  0  0  0
  140.8050   68.1820  228.7870 Cl  0  0  0  0  0  0  0  0  0  0  0  0
  141.0800   70.6290  227.5610 C   0  0  0  0  0  0  0  0  0  0  0  0
  140.9810   71.5370  226.5230 C   0  0  0  0  0  0  0  0  0  0  0  0
  140.4390   71.0720  225.3400 C   0  0  0  0  0  0  0  0  0  0  0  0
  140.3210   71.9140  224.2970 N   0  0  0  0  0  0  0  0  0  0  0  0
  139.5290   74.2390  223.1160 H   0  0  0  0  0  0  0  0  0  0  0  0
  139.6541   75.6759  221.2121 H   0  0  0  0  0  0  0  0  0  0  0  0
  140.0672   74.2266  220.1959 H   0  0  0  0  0  0  0  0  0  0  0  0
  136.1160   72.8178  221.2994 H   0  0  0  0  0  0  0  0  0  0  0  0
  137.0289   73.2156  222.7605 H   0  0  0  0  0  0  0  0  0  0  0  0
  134.2488   73.4369  222.4106 H   0  0  0  0  0  0  0  0  0  0  0  0
  135.1659   74.1667  223.7328 H   0  0  0  0  0  0  0  0  0  0  0  0
  134.1982   75.3880  221.1406 H   0  0  0  0  0  0  0  0  0  0  0  0
  134.3251   76.1505  222.7261 H   0  0  0  0  0  0  0  0  0  0  0  0
  136.3104   76.6747  220.7926 H   0  0  0  0  0  0  0  0  0  0  0  0
  136.5899   77.8890  222.4636 H   0  0  0  0  0  0  0  0  0  0  0  0
  136.2318   76.5446  223.6534 H   0  0  0  0  0  0  0  0  0  0  0  0
  138.4770   75.6500  223.1540 H   0  0  0  0  0  0  0  0  0  0  0  0
  140.7114   76.2942  222.4245 H   0  0  0  0  0  0  0  0  0  0  0  0
  142.5174   77.9391  222.5326 H   0  0  0  0  0  0  0  0  0  0  0  0
  139.7217   80.9229  223.7473 H   0  0  0  0  0  0  0  0  0  0  0  0
  137.9063   79.2775  223.6427 H   0  0  0  0  0  0  0  0  0  0  0  0
  138.9462   69.8860  222.0015 H   0  0  0  0  0  0  0  0  0  0  0  0
  139.1497   68.3142  223.8957 H   0  0  0  0  0  0  0  0  0  0  0  0
  139.7889   67.8147  226.1487 H   0  0  0  0  0  0  0  0  0  0  0  0
  141.5067   70.9695  228.5160 H   0  0  0  0  0  0  0  0  0  0  0  0
  141.3172   72.5785  226.6335 H   0  0  0  0  0  0  0  0  0  0  0  0
  1  2  2  0
  2  3  1  0
  3  4  1  0
  4  5  1  0
  5  6  2  0
  5  7  1  0
  7  8  1  0
  8  9  1  0
  9 10  1  0
 10 11  1  0
 11 12  1  0
 12 13  1  0
 13 14  1  0
 14 15  2  0
 15 16  1  0
 16 17  2  0
 17 18  1  0
 17 19  1  0
 19 20  2  0
  2 21  1  0
 21 22  2  0
 22 23  1  0
 23 24  2  0
 24 25  1  0
 25 26  2  0
 26 27  1  0
 26 28  1  0
 28 29  2  0
 29 30  1  0
 30 31  2  0
 11  7  1  0
 20 14  1  0
 31 21  1  0
 30 24  1  0
  3 32  1  0
  4 33  1  0
  4 34  1  0
  8 35  1  0
  8 36  1  0
  9 37  1  0
  9 38  1  0
 10 39  1  0
 10 40  1  0
 11 41  1  6
 12 42  1  0
 12 43  1  0
 13 44  1  0
 15 45  1  0
 16 46  1  0
 19 47  1  0
 20 48  1  0
 22 49  1  0
 23 50  1  0
 25 51  1  0
 28 52  1  0
 29 53  1  0
M  END
>  <smiles>  (10) 
O=C(NCC(=O)N1CCC[C@H]1CNc1ccc(Cl)cc1)c1ccc2cc(Cl)ccc2n1

>  <score_type>  (10) 
oracle

>  <origin>  (10) 
autodockgpu

>  <m_score__min__energy>  (10) 
-8.6400000000000006

>  <m_primary>  (10) 
energy

>  <rmsd>  (10) 
3.817775598367285

>  <m_score__min__rmsd>  (10) 
3.817775598367285

>  <meeko>  (10) 
{"free_energy": -7.99, "intermolecular_energy": -10.08, "internal_energy": -1.92, "cluster_size": 4, "cluster_id": 3, "rank_in_cluster": 2}

>  <energy>  (10) 
-8.31

>  <cluster_rmsd>  (10) 
0.29

>  <cluster>  (10) 
2

$$$$

     RDKit          3D

 53 56  0  0  0  0  0  0  0  0999 V2000
  139.0100   72.9950  221.1330 O   0  0  0  0  0  0  0  0  0  0  0  0
  140.0400   72.7450  221.8240 C   0  0  0  0  0  0  0  0  0  0  0  0
  141.2450   73.3850  221.3930 N   0  0  0  0  0  0  0  0  0  0  0  0
  141.1820   74.2330  220.2430 C   0  0  0  0  0  0  0  0  0  0  0  0
  142.5320   74.7060  219.8140 C   0  0  0  0  0  0  0  0  0  0  0  0
  143.5750   74.4800  220.4910 O   0  0  0  0  0  0  0  0  0  0  0  0
  142.6400   75.4500  218.5780 N   0  0  0  0  0  0  0  0  0  0  0  0
  142.0780   74.9370  217.3510 C   0  0  0  0  0  0  0  0  0  0  0  0
  142.6040   75.8120  216.2790 C   0  0  0  0  0  0  0  0  0  0  0  0
  143.6910   76.6290  216.9260 C   0  0  0  0  0  0  0  0  0  0  0  0
  143.3000   76.7050  218.4000 C   0  0  1  0  0  0  0  0  0  0  0  0
  142.5460   77.9530  218.6500 C   0  0  0  0  0  0  0  0  0  0  0  0
  142.1890   78.1500  220.0180 N   0  0  0  0  0  0  0  0  0  0  0  0
  141.0830   77.6310  220.7000 C   0  0  0  0  0  0  0  0  0  0  0  0
  139.8900   77.3780  220.0410 C   0  0  0  0  0  0  0  0  0  0  0  0
  138.7670   76.8940  220.6750 C   0  0  0  0  0  0  0  0  0  0  0  0
  138.7820   76.6350  222.0270 C   0  0  0  0  0  0  0  0  0  0  0  0
  137.3220   76.0210  222.7730 Cl  0  0  0  0  0  0  0  0  0  0  0  0
  139.9430   76.8740  222.7080 C   0  0  0  0  0  0  0  0  0  0  0  0
  141.0670   77.3580  222.0670 C   0  0  0  0  0  0  0  0  0  0  0  0
  140.0160   71.8660  222.9850 C   0  0  0  0  0  0  0  0  0  0  0  0
  139.3740   70.6480  222.8420 C   0  0  0  0  0  0  0  0  0  0  0  0
  139.3290   69.7940  223.9140 C   0  0  0  0  0  0  0  0  0  0  0  0
  139.9110   70.1280  225.1230 C   0  0  0  0  0  0  0  0  0  0  0  0
  139.8460   69.2400  226.1800 C   0  0  0  0  0  0  0  0  0  0  0  0
  140.4470   69.6260  227.3740 C   0  0  0  0  0  0  0  0  0  0  0  0
  140.3750   68.5120  228.7270 Cl  0  0  0  0  0  0  0  0  0  0  0  0
  141.0740   70.8520  227.4620 C   0  0  0  0  0  0  0  0  0  0  0  0
  141.1410   71.7430  226.4060 C   0  0  0  0  0  0  0  0  0  0  0  0
  140.5410   71.3530  225.2240 C   0  0  0  0  0  0  0  0  0  0  0  0
  140.5780   72.1820  224.1660 N   0  0  0  0  0  0  0  0  0  0  0  0
  142.1390   73.2120  221.9350 H   0  0  0  0  0  0  0  0  0  0  0  0
  140.7236   73.6727  219.4148 H   0  0  0  0  0  0  0  0  0  0  0  0
  140.5840   75.1172  220.5088 H   0  0  0  0  0  0  0  0  0  0  0  0
  142.3954   73.8964  217.1883 H   0  0  0  0  0  0  0  0  0  0  0  0
  140.9783   74.9366  217.3746 H   0  0  0  0  0  0  0  0  0  0  0  0
  143.0145   75.2082  215.4563 H   0  0  0  0  0  0  0  0  0  0  0  0
  141.8170   76.4477  215.8472 H   0  0  0  0  0  0  0  0  0  0  0  0
  144.6673   76.1359  216.8094 H   0  0  0  0  0  0  0  0  0  0  0  0
  143.7867   77.6258  216.4708 H   0  0  0  0  0  0  0  0  0  0  0  0
  144.0989   76.7992  219.1502 H   0  0  0  0  0  0  0  0  0  0  0  0
  143.1663   78.8025  218.3283 H   0  0  0  0  0  0  0  0  0  0  0  0
  141.6064   77.8769  218.0830 H   0  0  0  0  0  0  0  0  0  0  0  0
  142.8440   78.7690  220.5950 H   0  0  0  0  0  0  0  0  0  0  0  0
  139.8376   77.5731  218.9597 H   0  0  0  0  0  0  0  0  0  0  0  0
  137.8497   76.7127  220.0956 H   0  0  0  0  0  0  0  0  0  0  0  0
  139.9831   76.6767  223.7894 H   0  0  0  0  0  0  0  0  0  0  0  0
  141.9799   77.5339  222.6549 H   0  0  0  0  0  0  0  0  0  0  0  0
  138.9080   70.3700  221.8851 H   0  0  0  0  0  0  0  0  0  0  0  0
  138.8200   68.8244  223.8101 H   0  0  0  0  0  0  0  0  0  0  0  0
  139.3400   68.2683  226.0814 H   0  0  0  0  0  0  0  0  0  0  0  0
  141.5424   71.1340  228.4165 H   0  0  0  0  0  0  0  0  0  0  0  0
  141.6473   72.7148  226.5026 H   0  0  0  0  0  0  0  0  0  0  0  0
  1  2  2  0
  2  3  1  0
  3  4  1  0
  4  5  1  0
  5  6  2  0
  5  7  1  0
  7  8  1  0
  8  9  1  0
  9 10  1  0
 10 11  1  0
 11 12  1  0
 12 13  1  0
 13 14  1  0
 14 15  2  0
 15 16  1  0
 16 17  2  0
 17 18  1  0
 17 19  1  0
 19 20  2  0
  2 21  1  0
 21 22  2  0
 22 23  1  0
 23 24  2  0
 24 25  1  0
 25 26  2  0
 26 27  1  0
 26 28  1  0
 28 29  2  0
 29 30  1  0
 30 31  2  0
 11  7  1  0
 20 14  1  0
 31 21  1  0
 30 24  1  0
  3 32  1  0
  4 33  1  0
  4 34  1  0
  8 35  1  0
  8 36  1  0
  9 37  1  0
  9 38  1  0
 10 39  1  0
 10 40  1  0
 11 41  1  1
 12 42  1  0
 12 43  1  0
 13 44  1  0
 15 45  1  0
 16 46  1  0
 19 47  1  0
 20 48  1  0
 22 49  1  0
 23 50  1  0
 25 51  1  0
 28 52  1  0
 29 53  1  0
M  END
>  <smiles>  (11) 
O=C(NCC(=O)N1CCC[C@H]1CNc1ccc(Cl)cc1)c1ccc2cc(Cl)ccc2n1

>  <score_type>  (11) 
oracle

>  <origin>  (11) 
autodockgpu

>  <m_score__min__energy>  (11) 
-8.6400000000000006

>  <m_primary>  (11) 
energy

>  <rmsd>  (11) 
2.956434882449103

>  <m_score__min__rmsd>  (11) 
2.956434882449103

>  <meeko>  (11) 
{"free_energy": -6.85, "intermolecular_energy": -8.94, "internal_energy": -2.62, "cluster_size": 12, "cluster_id": 2, "rank_in_cluster": 12}

>  <energy>  (11) 
-8.13

>  <cluster_rmsd>  (11) 
1.76

>  <cluster>  (11) 
2

$$$$

     RDKit          3D

 53 56  0  0  0  0  0  0  0  0999 V2000
  140.7780   74.1220  222.0590 O   0  0  0  0  0  0  0  0  0  0  0  0
  140.4030   72.9200  221.9320 C   0  0  0  0  0  0  0  0  0  0  0  0
  140.1310   72.4960  220.5930 N   0  0  0  0  0  0  0  0  0  0  0  0
  140.3000   73.4460  219.5380 C   0  0  0  0  0  0  0  0  0  0  0  0
  141.7370   73.6530  219.1870 C   0  0  0  0  0  0  0  0  0  0  0  0
  142.6490   72.8720  219.5810 O   0  0  0  0  0  0  0  0  0  0  0  0
  142.0890   74.7910  218.3670 N   0  0  0  0  0  0  0  0  0  0  0  0
  141.5790   74.9230  217.0220 C   0  0  0  0  0  0  0  0  0  0  0  0
  142.3440   76.0350  216.4160 C   0  0  0  0  0  0  0  0  0  0  0  0
  143.4780   76.3070  217.3690 C   0  0  0  0  0  0  0  0  0  0  0  0
  142.9580   75.8650  218.7340 C   0  0  1  0  0  0  0  0  0  0  0  0
  142.3950   77.0290  219.4530 C   0  0  0  0  0  0  0  0  0  0  0  0
  141.8130   76.7050  220.7150 N   0  0  0  0  0  0  0  0  0  0  0  0
  141.0760   77.5420  221.5610 C   0  0  0  0  0  0  0  0  0  0  0  0
  139.7270   77.3180  221.7910 C   0  0  0  0  0  0  0  0  0  0  0  0
  138.9550   78.1310  222.5910 C   0  0  0  0  0  0  0  0  0  0  0  0
  139.5040   79.2290  223.2140 C   0  0  0  0  0  0  0  0  0  0  0  0
  138.4690   80.2200  224.2180 Cl  0  0  0  0  0  0  0  0  0  0  0  0
  140.8320   79.4780  223.0090 C   0  0  0  0  0  0  0  0  0  0  0  0
  141.6030   78.6610  222.2050 C   0  0  0  0  0  0  0  0  0  0  0  0
  140.2550   72.0160  223.0640 C   0  0  0  0  0  0  0  0  0  0  0  0
  139.5430   70.8490  222.8520 C   0  0  0  0  0  0  0  0  0  0  0  0
  139.3820   69.9730  223.8950 C   0  0  0  0  0  0  0  0  0  0  0  0
  139.9170   70.2360  225.1430 C   0  0  0  0  0  0  0  0  0  0  0  0
  139.7340   69.3290  226.1690 C   0  0  0  0  0  0  0  0  0  0  0  0
  140.2920   69.6430  227.4040 C   0  0  0  0  0  0  0  0  0  0  0  0
  140.0700   68.5030  228.7180 Cl  0  0  0  0  0  0  0  0  0  0  0  0
  140.9930   70.8210  227.5610 C   0  0  0  0  0  0  0  0  0  0  0  0
  141.1780   71.7310  226.5360 C   0  0  0  0  0  0  0  0  0  0  0  0
  140.6200   71.4130  225.3120 C   0  0  0  0  0  0  0  0  0  0  0  0
  140.7720   72.2640  224.2820 N   0  0  0  0  0  0  0  0  0  0  0  0
  139.8140   71.4980  220.4260 H   0  0  0  0  0  0  0  0  0  0  0  0
  139.7667   73.0836  218.6468 H   0  0  0  0  0  0  0  0  0  0  0  0
  139.8958   74.4088  219.8839 H   0  0  0  0  0  0  0  0  0  0  0  0
  141.7399   73.9930  216.4570 H   0  0  0  0  0  0  0  0  0  0  0  0
  140.4968   75.1202  217.0136 H   0  0  0  0  0  0  0  0  0  0  0  0
  142.7324   75.7421  215.4294 H   0  0  0  0  0  0  0  0  0  0  0  0
  141.7174   76.9257  216.2612 H   0  0  0  0  0  0  0  0  0  0  0  0
  144.3683   75.7257  217.0872 H   0  0  0  0  0  0  0  0  0  0  0  0
  143.7792   77.3649  217.3632 H   0  0  0  0  0  0  0  0  0  0  0  0
  143.6823   75.5015  219.4778 H   0  0  0  0  0  0  0  0  0  0  0  0
  143.2033   77.7559  219.6212 H   0  0  0  0  0  0  0  0  0  0  0  0
  141.5876   77.4319  218.8239 H   0  0  0  0  0  0  0  0  0  0  0  0
  141.9550   75.7030  221.0600 H   0  0  0  0  0  0  0  0  0  0  0  0
  139.2509   76.4498  221.3118 H   0  0  0  0  0  0  0  0  0  0  0  0
  137.8889   77.9006  222.7336 H   0  0  0  0  0  0  0  0  0  0  0  0
  141.2973   80.3482  223.4950 H   0  0  0  0  0  0  0  0  0  0  0  0
  142.6677   78.9011  222.0683 H   0  0  0  0  0  0  0  0  0  0  0  0
  139.1134   70.6274  221.8639 H   0  0  0  0  0  0  0  0  0  0  0  0
  138.8163   69.0431  223.7358 H   0  0  0  0  0  0  0  0  0  0  0  0
  139.1703   68.3970  226.0156 H   0  0  0  0  0  0  0  0  0  0  0  0
  141.4248   71.0469  228.5472 H   0  0  0  0  0  0  0  0  0  0  0  0
  141.7421   72.6631  226.6876 H   0  0  0  0  0  0  0  0  0  0  0  0
  1  2  2  0
  2  3  1  0
  3  4  1  0
  4  5  1  0
  5  6  2  0
  5  7  1  0
  7  8  1  0
  8  9  1  0
  9 10  1  0
 10 11  1  0
 11 12  1  0
 12 13  1  0
 13 14  1  0
 14 15  2  0
 15 16  1  0
 16 17  2  0
 17 18  1  0
 17 19  1  0
 19 20  2  0
  2 21  1  0
 21 22  2  0
 22 23  1  0
 23 24  2  0
 24 25  1  0
 25 26  2  0
 26 27  1  0
 26 28  1  0
 28 29  2  0
 29 30  1  0
 30 31  2  0
 11  7  1  0
 20 14  1  0
 31 21  1  0
 30 24  1  0
  3 32  1  0
  4 33  1  0
  4 34  1  0
  8 35  1  0
  8 36  1  0
  9 37  1  0
  9 38  1  0
 10 39  1  0
 10 40  1  0
 11 41  1  1
 12 42  1  0
 12 43  1  0
 13 44  1  0
 15 45  1  0
 16 46  1  0
 19 47  1  0
 20 48  1  0
 22 49  1  0
 23 50  1  0
 25 51  1  0
 28 52  1  0
 29 53  1  0
M  END
>  <smiles>  (12) 
O=C(NCC(=O)N1CCC[C@H]1CNc1ccc(Cl)cc1)c1ccc2cc(Cl)ccc2n1

>  <score_type>  (12) 
oracle

>  <origin>  (12) 
autodockgpu

>  <m_score__min__energy>  (12) 
-8.6400000000000006

>  <m_primary>  (12) 
energy

>  <rmsd>  (12) 
2.6661747497190906

>  <m_score__min__rmsd>  (12) 
2.6661747497190906

>  <meeko>  (12) 
{"free_energy": -7.45, "intermolecular_energy": -9.54, "internal_energy": -2.23, "cluster_size": 12, "cluster_id": 2, "rank_in_cluster": 10}

>  <energy>  (12) 
-8.0

>  <cluster_rmsd>  (12) 
1.74

>  <cluster>  (12) 
2

$$$$

     RDKit          3D

 53 56  0  0  0  0  0  0  0  0999 V2000
  135.8800   68.5640  224.8970 O   0  0  0  0  0  0  0  0  0  0  0  0
  135.5710   69.5630  224.1840 C   0  0  0  0  0  0  0  0  0  0  0  0
  135.7790   69.4080  222.7770 N   0  0  0  0  0  0  0  0  0  0  0  0
  136.3070   68.1650  222.3080 C   0  0  0  0  0  0  0  0  0  0  0  0
  137.8000   68.1400  222.3270 C   0  0  0  0  0  0  0  0  0  0  0  0
  138.4550   67.2770  222.9760 O   0  0  0  0  0  0  0  0  0  0  0  0
  138.5150   69.1460  221.5720 N   0  0  0  0  0  0  0  0  0  0  0  0
  138.4420   69.1840  220.1300 C   0  0  0  0  0  0  0  0  0  0  0  0
  139.4830   70.1470  219.7060 C   0  0  0  0  0  0  0  0  0  0  0  0
  140.3120   70.4080  220.9360 C   0  0  0  0  0  0  0  0  0  0  0  0
  139.3620   70.1650  222.1070 C   0  0  1  0  0  0  0  0  0  0  0  0
  138.7610   71.4470  222.5340 C   0  0  0  0  0  0  0  0  0  0  0  0
  138.4790   71.5180  223.9320 N   0  0  0  0  0  0  0  0  0  0  0  0
  139.1280   70.8460  224.9740 C   0  0  0  0  0  0  0  0  0  0  0  0
  138.7150   69.5860  225.3800 C   0  0  0  0  0  0  0  0  0  0  0  0
  139.3040   68.8990  226.4190 C   0  0  0  0  0  0  0  0  0  0  0  0
  140.3560   69.4490  227.1160 C   0  0  0  0  0  0  0  0  0  0  0  0
  141.0600   68.5240  228.4250 Cl  0  0  0  0  0  0  0  0  0  0  0  0
  140.7870   70.6900  226.7420 C   0  0  0  0  0  0  0  0  0  0  0  0
  140.1940   71.3760  225.7000 C   0  0  0  0  0  0  0  0  0  0  0  0
  135.0370   70.7970  224.7460 C   0  0  0  0  0  0  0  0  0  0  0  0
  134.0230   70.6780  225.6810 C   0  0  0  0  0  0  0  0  0  0  0  0
  133.4940   71.8170  226.2310 C   0  0  0  0  0  0  0  0  0  0  0  0
  133.9550   73.0700  225.8700 C   0  0  0  0  0  0  0  0  0  0  0  0
  133.3970   74.1940  226.4470 C   0  0  0  0  0  0  0  0  0  0  0  0
  133.8970   75.4300  226.0480 C   0  0  0  0  0  0  0  0  0  0  0  0
  133.2010   76.8690  226.7710 Cl  0  0  0  0  0  0  0  0  0  0  0  0
  134.9090   75.4910  225.1120 C   0  0  0  0  0  0  0  0  0  0  0  0
  135.4690   74.3680  224.5320 C   0  0  0  0  0  0  0  0  0  0  0  0
  134.9670   73.1440  224.9340 C   0  0  0  0  0  0  0  0  0  0  0  0
  135.4780   72.0200  224.4010 N   0  0  0  0  0  0  0  0  0  0  0  0
  135.5360   70.2130  222.1320 H   0  0  0  0  0  0  0  0  0  0  0  0
  135.9315   67.3558  222.9516 H   0  0  0  0  0  0  0  0  0  0  0  0
  135.9816   68.0331  221.2656 H   0  0  0  0  0  0  0  0  0  0  0  0
  138.6449   68.1884  219.7085 H   0  0  0  0  0  0  0  0  0  0  0  0
  137.4430   69.4830  219.7799 H   0  0  0  0  0  0  0  0  0  0  0  0
  140.1044   69.7151  218.9077 H   0  0  0  0  0  0  0  0  0  0  0  0
  139.0446   71.0725  219.3045 H   0  0  0  0  0  0  0  0  0  0  0  0
  141.1667   69.7170  220.9808 H   0  0  0  0  0  0  0  0  0  0  0  0
  140.7307   71.4251  220.9458 H   0  0  0  0  0  0  0  0  0  0  0  0
  139.7839   69.8149  223.0606 H   0  0  0  0  0  0  0  0  0  0  0  0
  139.4593   72.2581  222.2802 H   0  0  0  0  0  0  0  0  0  0  0  0
  137.7983   71.5380  222.0096 H   0  0  0  0  0  0  0  0  0  0  0  0
  137.6750   72.1610  224.2220 H   0  0  0  0  0  0  0  0  0  0  0  0
  137.8772   69.1124  224.8472 H   0  0  0  0  0  0  0  0  0  0  0  0
  138.9301   67.9017  226.6941 H   0  0  0  0  0  0  0  0  0  0  0  0
  141.6252   71.1536  227.2828 H   0  0  0  0  0  0  0  0  0  0  0  0
  140.5752   72.3730  225.4342 H   0  0  0  0  0  0  0  0  0  0  0  0
  133.6484   69.6871  225.9774 H   0  0  0  0  0  0  0  0  0  0  0  0
  132.6872   71.7327  226.9739 H   0  0  0  0  0  0  0  0  0  0  0  0
  132.5907   74.1155  227.1912 H   0  0  0  0  0  0  0  0  0  0  0  0
  135.2879   76.4795  224.8133 H   0  0  0  0  0  0  0  0  0  0  0  0
  136.2747   74.4445  223.7870 H   0  0  0  0  0  0  0  0  0  0  0  0
  1  2  2  0
  2  3  1  0
  3  4  1  0
  4  5  1  0
  5  6  2  0
  5  7  1  0
  7  8  1  0
  8  9  1  0
  9 10  1  0
 10 11  1  0
 11 12  1  0
 12 13  1  0
 13 14  1  0
 14 15  2  0
 15 16  1  0
 16 17  2  0
 17 18  1  0
 17 19  1  0
 19 20  2  0
  2 21  1  0
 21 22  2  0
 22 23  1  0
 23 24  2  0
 24 25  1  0
 25 26  2  0
 26 27  1  0
 26 28  1  0
 28 29  2  0
 29 30  1  0
 30 31  2  0
 11  7  1  0
 20 14  1  0
 31 21  1  0
 30 24  1  0
  3 32  1  0
  4 33  1  0
  4 34  1  0
  8 35  1  0
  8 36  1  0
  9 37  1  0
  9 38  1  0
 10 39  1  0
 10 40  1  0
 11 41  1  1
 12 42  1  0
 12 43  1  0
 13 44  1  0
 15 45  1  0
 16 46  1  0
 19 47  1  0
 20 48  1  0
 22 49  1  0
 23 50  1  0
 25 51  1  0
 28 52  1  0
 29 53  1  0
M  END
>  <smiles>  (13) 
O=C(NCC(=O)N1CCC[C@H]1CNc1ccc(Cl)cc1)c1ccc2cc(Cl)ccc2n1

>  <score_type>  (13) 
oracle

>  <origin>  (13) 
autodockgpu

>  <m_score__min__energy>  (13) 
-8.6400000000000006

>  <m_primary>  (13) 
energy

>  <rmsd>  (13) 
8.045534231160568

>  <m_score__min__rmsd>  (13) 
8.045534231160568

>  <meeko>  (13) 
{"free_energy": -6.72, "intermolecular_energy": -8.81, "internal_energy": -3.16, "cluster_size": 1, "cluster_id": 13, "rank_in_cluster": 1}

>  <energy>  (13) 
-7.81

>  <cluster_rmsd>  (13) 
1.03

>  <cluster>  (13) 
2

$$$$

     RDKit          3D

 53 56  0  0  0  0  0  0  0  0999 V2000
  140.2290   78.1790  218.7600 O   0  0  0  0  0  0  0  0  0  0  0  0
  141.4630   77.9880  218.9670 C   0  0  0  0  0  0  0  0  0  0  0  0
  142.2300   79.1610  219.2540 N   0  0  0  0  0  0  0  0  0  0  0  0
  141.5520   80.4190  219.2820 C   0  0  0  0  0  0  0  0  0  0  0  0
  140.6340   80.5430  220.4530 C   0  0  0  0  0  0  0  0  0  0  0  0
  139.3840   80.6730  220.3220 O   0  0  0  0  0  0  0  0  0  0  0  0
  141.2050   80.5120  221.7820 N   0  0  0  0  0  0  0  0  0  0  0  0
  140.9490   81.5760  222.7240 C   0  0  0  0  0  0  0  0  0  0  0  0
  141.8870   81.3440  223.8460 C   0  0  0  0  0  0  0  0  0  0  0  0
  142.8520   80.3000  223.3520 C   0  0  0  0  0  0  0  0  0  0  0  0
  142.0690   79.5040  222.3100 C   0  0  1  0  0  0  0  0  0  0  0  0
  141.4740   78.3070  222.9430 C   0  0  0  0  0  0  0  0  0  0  0  0
  141.4320   77.1620  222.0920 N   0  0  0  0  0  0  0  0  0  0  0  0
  140.4200   76.1990  221.9970 C   0  0  0  0  0  0  0  0  0  0  0  0
  140.7050   74.8960  221.6180 C   0  0  0  0  0  0  0  0  0  0  0  0
  139.7400   73.9230  221.4830 C   0  0  0  0  0  0  0  0  0  0  0  0
  138.4150   74.2100  221.7260 C   0  0  0  0  0  0  0  0  0  0  0  0
  137.2390   72.9290  221.5370 Cl  0  0  0  0  0  0  0  0  0  0  0  0
  138.1000   75.4860  222.1010 C   0  0  0  0  0  0  0  0  0  0  0  0
  139.0710   76.4590  222.2360 C   0  0  0  0  0  0  0  0  0  0  0  0
  142.0750   76.6670  218.9190 C   0  0  0  0  0  0  0  0  0  0  0  0
  141.5360   75.7530  218.0310 C   0  0  0  0  0  0  0  0  0  0  0  0
  142.0850   74.4980  217.9590 C   0  0  0  0  0  0  0  0  0  0  0  0
  143.1590   74.1380  218.7510 C   0  0  0  0  0  0  0  0  0  0  0  0
  143.6850   72.8640  218.6490 C   0  0  0  0  0  0  0  0  0  0  0  0
  144.7640   72.5530  219.4700 C   0  0  0  0  0  0  0  0  0  0  0  0
  145.4450   70.9410  219.3540 Cl  0  0  0  0  0  0  0  0  0  0  0  0
  145.2620   73.5020  220.3380 C   0  0  0  0  0  0  0  0  0  0  0  0
  144.7380   74.7780  220.4430 C   0  0  0  0  0  0  0  0  0  0  0  0
  143.6660   75.0790  219.6250 C   0  0  0  0  0  0  0  0  0  0  0  0
  143.1190   76.3070  219.6870 N   0  0  0  0  0  0  0  0  0  0  0  0
  143.2700   79.0610  219.4360 H   0  0  0  0  0  0  0  0  0  0  0  0
  142.3008   81.2232  219.3330 H   0  0  0  0  0  0  0  0  0  0  0  0
  140.9436   80.4933  218.3686 H   0  0  0  0  0  0  0  0  0  0  0  0
  141.1394   82.5548  222.2597 H   0  0  0  0  0  0  0  0  0  0  0  0
  139.9019   81.5799  223.0611 H   0  0  0  0  0  0  0  0  0  0  0  0
  142.4206   82.2719  224.0995 H   0  0  0  0  0  0  0  0  0  0  0  0
  141.3626   81.0178  224.7563 H   0  0  0  0  0  0  0  0  0  0  0  0
  143.7339   80.7731  222.8954 H   0  0  0  0  0  0  0  0  0  0  0  0
  143.2250   79.6618  224.1666 H   0  0  0  0  0  0  0  0  0  0  0  0
  142.6219   79.0371  221.4815 H   0  0  0  0  0  0  0  0  0  0  0  0
  142.0684   78.0548  223.8335 H   0  0  0  0  0  0  0  0  0  0  0  0
  140.4320   78.5606  223.1879 H   0  0  0  0  0  0  0  0  0  0  0  0
  142.2730   77.0190  221.4470 H   0  0  0  0  0  0  0  0  0  0  0  0
  141.7521   74.6267  221.4155 H   0  0  0  0  0  0  0  0  0  0  0  0
  140.0302   72.9067  221.1781 H   0  0  0  0  0  0  0  0  0  0  0  0
  137.0493   75.7439  222.2998 H   0  0  0  0  0  0  0  0  0  0  0  0
  138.7704   77.4719  222.5420 H   0  0  0  0  0  0  0  0  0  0  0  0
  140.6823   76.0279  217.3941 H   0  0  0  0  0  0  0  0  0  0  0  0
  141.6623   73.7639  217.2573 H   0  0  0  0  0  0  0  0  0  0  0  0
  143.2677   72.1265  217.9476 H   0  0  0  0  0  0  0  0  0  0  0  0
  146.1158   73.2317  220.9767 H   0  0  0  0  0  0  0  0  0  0  0  0
  145.1545   75.5168  221.1435 H   0  0  0  0  0  0  0  0  0  0  0  0
  1  2  2  0
  2  3  1  0
  3  4  1  0
  4  5  1  0
  5  6  2  0
  5  7  1  0
  7  8  1  0
  8  9  1  0
  9 10  1  0
 10 11  1  0
 11 12  1  0
 12 13  1  0
 13 14  1  0
 14 15  2  0
 15 16  1  0
 16 17  2  0
 17 18  1  0
 17 19  1  0
 19 20  2  0
  2 21  1  0
 21 22  2  0
 22 23  1  0
 23 24  2  0
 24 25  1  0
 25 26  2  0
 26 27  1  0
 26 28  1  0
 28 29  2  0
 29 30  1  0
 30 31  2  0
 11  7  1  0
 20 14  1  0
 31 21  1  0
 30 24  1  0
  3 32  1  0
  4 33  1  0
  4 34  1  0
  8 35  1  0
  8 36  1  0
  9 37  1  0
  9 38  1  0
 10 39  1  0
 10 40  1  0
 11 41  1  6
 12 42  1  0
 12 43  1  0
 13 44  1  0
 15 45  1  0
 16 46  1  0
 19 47  1  0
 20 48  1  0
 22 49  1  0
 23 50  1  0
 25 51  1  0
 28 52  1  0
 29 53  1  0
M  END
>  <smiles>  (14) 
O=C(NCC(=O)N1CCC[C@H]1CNc1ccc(Cl)cc1)c1ccc2cc(Cl)ccc2n1

>  <score_type>  (14) 
oracle

>  <origin>  (14) 
autodockgpu

>  <m_score__min__energy>  (14) 
-8.6400000000000006

>  <m_primary>  (14) 
energy

>  <rmsd>  (14) 
7.61709632757523

>  <m_score__min__rmsd>  (14) 
7.61709632757523

>  <meeko>  (14) 
{"free_energy": -6.58, "intermolecular_energy": -8.67, "internal_energy": -3.46, "cluster_size": 2, "cluster_id": 14, "rank_in_cluster": 1}

>  <energy>  (14) 
-7.68

>  <cluster_rmsd>  (14) 
1.59

>  <cluster>  (14) 
2

$$$$

     RDKit          3D

 53 56  0  0  0  0  0  0  0  0999 V2000
  140.9940   72.8850  222.4390 O   0  0  0  0  0  0  0  0  0  0  0  0
  140.5940   73.7250  221.5810 C   0  0  0  0  0  0  0  0  0  0  0  0
  140.7030   73.3150  220.2150 N   0  0  0  0  0  0  0  0  0  0  0  0
  141.2440   72.0200  219.9430 C   0  0  0  0  0  0  0  0  0  0  0  0
  142.4320   72.0800  219.0400 C   0  0  0  0  0  0  0  0  0  0  0  0
  142.4650   71.4890  217.9240 O   0  0  0  0  0  0  0  0  0  0  0  0
  143.5840   72.8450  219.4680 N   0  0  0  0  0  0  0  0  0  0  0  0
  144.9000   72.2520  219.4940 C   0  0  0  0  0  0  0  0  0  0  0  0
  145.7550   73.2190  220.2190 C   0  0  0  0  0  0  0  0  0  0  0  0
  144.8030   74.2110  220.8350 C   0  0  0  0  0  0  0  0  0  0  0  0
  143.5800   74.2000  219.9210 C   0  0  1  0  0  0  0  0  0  0  0  0
  143.6920   75.2900  218.9270 C   0  0  0  0  0  0  0  0  0  0  0  0
  143.3660   76.5800  219.4430 N   0  0  0  0  0  0  0  0  0  0  0  0
  142.1170   77.2120  219.4510 C   0  0  0  0  0  0  0  0  0  0  0  0
  140.9690   76.5320  219.0740 C   0  0  0  0  0  0  0  0  0  0  0  0
  139.7240   77.1200  219.0380 C   0  0  0  0  0  0  0  0  0  0  0  0
  139.5620   78.4420  219.3850 C   0  0  0  0  0  0  0  0  0  0  0  0
  137.9530   79.1280  219.3190 Cl  0  0  0  0  0  0  0  0  0  0  0  0
  140.6740   79.1420  219.7610 C   0  0  0  0  0  0  0  0  0  0  0  0
  141.9210   78.5490  219.7950 C   0  0  0  0  0  0  0  0  0  0  0  0
  140.0550   75.0280  221.9460 C   0  0  0  0  0  0  0  0  0  0  0  0
  138.6820   75.1880  221.8700 C   0  0  0  0  0  0  0  0  0  0  0  0
  138.1370   76.4010  222.2050 C   0  0  0  0  0  0  0  0  0  0  0  0
  138.9310   77.4560  222.6150 C   0  0  0  0  0  0  0  0  0  0  0  0
  138.3450   78.6620  222.9450 C   0  0  0  0  0  0  0  0  0  0  0  0
  139.1890   79.6920  223.3500 C   0  0  0  0  0  0  0  0  0  0  0  0
  138.4620   81.2310  223.7730 Cl  0  0  0  0  0  0  0  0  0  0  0  0
  140.5510   79.4790  223.4080 C   0  0  0  0  0  0  0  0  0  0  0  0
  141.1410   78.2720  223.0790 C   0  0  0  0  0  0  0  0  0  0  0  0
  140.2960   77.2550  222.6770 C   0  0  0  0  0  0  0  0  0  0  0  0
  140.8190   76.0610  222.3460 N   0  0  0  0  0  0  0  0  0  0  0  0
  140.3820   73.9780  219.4540 H   0  0  0  0  0  0  0  0  0  0  0  0
  141.5454   71.5558  220.8936 H   0  0  0  0  0  0  0  0  0  0  0  0
  140.4659   71.4300  219.4365 H   0  0  0  0  0  0  0  0  0  0  0  0
  144.8768   71.2876  220.0226 H   0  0  0  0  0  0  0  0  0  0  0  0
  145.2780   72.0527  218.4804 H   0  0  0  0  0  0  0  0  0  0  0  0
  146.3371   72.7080  221.0001 H   0  0  0  0  0  0  0  0  0  0  0  0
  146.4785   73.7075  219.5497 H   0  0  0  0  0  0  0  0  0  0  0  0
  144.5275   73.9018  221.8541 H   0  0  0  0  0  0  0  0  0  0  0  0
  145.2473   75.2136  220.9208 H   0  0  0  0  0  0  0  0  0  0  0  0
  142.5965   74.4286  220.3575 H   0  0  0  0  0  0  0  0  0  0  0  0
  144.7278   75.3166  218.5576 H   0  0  0  0  0  0  0  0  0  0  0  0
  142.9647   75.0718  218.1311 H   0  0  0  0  0  0  0  0  0  0  0  0
  144.1710   77.1350  219.8770 H   0  0  0  0  0  0  0  0  0  0  0  0
  141.0567   75.4728  218.7903 H   0  0  0  0  0  0  0  0  0  0  0  0
  138.8505   76.5272  218.7288 H   0  0  0  0  0  0  0  0  0  0  0  0
  140.5737   80.2006  220.0427 H   0  0  0  0  0  0  0  0  0  0  0  0
  142.7881   79.1514  220.1036 H   0  0  0  0  0  0  0  0  0  0  0  0
  138.0391   74.3562  221.5463 H   0  0  0  0  0  0  0  0  0  0  0  0
  137.0470   76.5372  222.1464 H   0  0  0  0  0  0  0  0  0  0  0  0
  137.2555   78.8030  222.8900 H   0  0  0  0  0  0  0  0  0  0  0  0
  141.1979   80.3079  223.7310 H   0  0  0  0  0  0  0  0  0  0  0  0
  142.2302   78.1285  223.1346 H   0  0  0  0  0  0  0  0  0  0  0  0
  1  2  2  0
  2  3  1  0
  3  4  1  0
  4  5  1  0
  5  6  2  0
  5  7  1  0
  7  8  1  0
  8  9  1  0
  9 10  1  0
 10 11  1  0
 11 12  1  0
 12 13  1  0
 13 14  1  0
 14 15  2  0
 15 16  1  0
 16 17  2  0
 17 18  1  0
 17 19  1  0
 19 20  2  0
  2 21  1  0
 21 22  2  0
 22 23  1  0
 23 24  2  0
 24 25  1  0
 25 26  2  0
 26 27  1  0
 26 28  1  0
 28 29  2  0
 29 30  1  0
 30 31  2  0
 11  7  1  0
 20 14  1  0
 31 21  1  0
 30 24  1  0
  3 32  1  0
  4 33  1  0
  4 34  1  0
  8 35  1  0
  8 36  1  0
  9 37  1  0
  9 38  1  0
 10 39  1  0
 10 40  1  0
 11 41  1  1
 12 42  1  0
 12 43  1  0
 13 44  1  0
 15 45  1  0
 16 46  1  0
 19 47  1  0
 20 48  1  0
 22 49  1  0
 23 50  1  0
 25 51  1  0
 28 52  1  0
 29 53  1  0
M  END
>  <smiles>  (15) 
O=C(NCC(=O)N1CCC[C@H]1CNc1ccc(Cl)cc1)c1ccc2cc(Cl)ccc2n1

>  <score_type>  (15) 
oracle

>  <origin>  (15) 
autodockgpu

>  <m_score__min__energy>  (15) 
-8.6400000000000006

>  <m_primary>  (15) 
energy

>  <rmsd>  (15) 
6.33757651581638

>  <m_score__min__rmsd>  (15) 
6.33757651581638

>  <meeko>  (15) 
{"free_energy": -5.94, "intermolecular_energy": -8.03, "internal_energy": -3.43, "cluster_size": 3, "cluster_id": 12, "rank_in_cluster": 2}

>  <energy>  (15) 
-7.65

>  <cluster_rmsd>  (15) 
1.94

>  <cluster>  (15) 
2

$$$$

     RDKit          3D

 53 56  0  0  0  0  0  0  0  0999 V2000
  140.2830   78.1760  218.5770 O   0  0  0  0  0  0  0  0  0  0  0  0
  141.4880   77.9740  218.9070 C   0  0  0  0  0  0  0  0  0  0  0  0
  142.2140   79.1310  219.3340 N   0  0  0  0  0  0  0  0  0  0  0  0
  141.5310   80.3870  219.3500 C   0  0  0  0  0  0  0  0  0  0  0  0
  140.6500   80.5370  220.5460 C   0  0  0  0  0  0  0  0  0  0  0  0
  139.3930   80.6270  220.4540 O   0  0  0  0  0  0  0  0  0  0  0  0
  141.2660   80.5820  221.8540 N   0  0  0  0  0  0  0  0  0  0  0  0
  140.9540   81.6410  222.7860 C   0  0  0  0  0  0  0  0  0  0  0  0
  141.9460   81.5110  223.8770 C   0  0  0  0  0  0  0  0  0  0  0  0
  142.9770   80.5400  223.3690 C   0  0  0  0  0  0  0  0  0  0  0  0
  142.2290   79.6600  222.3700 C   0  0  1  0  0  0  0  0  0  0  0  0
  141.7560   78.4320  223.0450 C   0  0  0  0  0  0  0  0  0  0  0  0
  141.4500   77.3610  222.1520 N   0  0  0  0  0  0  0  0  0  0  0  0
  140.2830   76.5890  222.1060 C   0  0  0  0  0  0  0  0  0  0  0  0
  140.3170   75.2660  221.6930 C   0  0  0  0  0  0  0  0  0  0  0  0
  139.1910   74.4770  221.6030 C   0  0  0  0  0  0  0  0  0  0  0  0
  137.9520   74.9820  221.9290 C   0  0  0  0  0  0  0  0  0  0  0  0
  136.5630   73.9260  221.7940 Cl  0  0  0  0  0  0  0  0  0  0  0  0
  137.8840   76.2830  222.3390 C   0  0  0  0  0  0  0  0  0  0  0  0
  139.0150   77.0710  222.4270 C   0  0  0  0  0  0  0  0  0  0  0  0
  142.1080   76.6570  218.8610 C   0  0  0  0  0  0  0  0  0  0  0  0
  141.6080   75.7550  217.9380 C   0  0  0  0  0  0  0  0  0  0  0  0
  142.1660   74.5050  217.8660 C   0  0  0  0  0  0  0  0  0  0  0  0
  143.2110   74.1360  218.6930 C   0  0  0  0  0  0  0  0  0  0  0  0
  143.7470   72.8670  218.5900 C   0  0  0  0  0  0  0  0  0  0  0  0
  144.7960   72.5460  219.4460 C   0  0  0  0  0  0  0  0  0  0  0  0
  145.4900   70.9400  219.3290 Cl  0  0  0  0  0  0  0  0  0  0  0  0
  145.2560   73.4830  220.3480 C   0  0  0  0  0  0  0  0  0  0  0  0
  144.7220   74.7550  220.4540 C   0  0  0  0  0  0  0  0  0  0  0  0
  143.6800   75.0650  219.6000 C   0  0  0  0  0  0  0  0  0  0  0  0
  143.1250   76.2890  219.6620 N   0  0  0  0  0  0  0  0  0  0  0  0
  143.2280   79.0210  219.6230 H   0  0  0  0  0  0  0  0  0  0  0  0
  142.2770   81.1954  219.3564 H   0  0  0  0  0  0  0  0  0  0  0  0
  140.8942   80.4355  218.4544 H   0  0  0  0  0  0  0  0  0  0  0  0
  141.0456   82.6224  222.2978 H   0  0  0  0  0  0  0  0  0  0  0  0
  139.9225   81.5650  223.1605 H   0  0  0  0  0  0  0  0  0  0  0  0
  142.4090   82.4850  224.0937 H   0  0  0  0  0  0  0  0  0  0  0  0
  141.4819   81.1619  224.8112 H   0  0  0  0  0  0  0  0  0  0  0  0
  143.8008   81.0743  222.8732 H   0  0  0  0  0  0  0  0  0  0  0  0
  143.4284   79.9522  224.1819 H   0  0  0  0  0  0  0  0  0  0  0  0
  142.7919   79.2231  221.5320 H   0  0  0  0  0  0  0  0  0  0  0  0
  142.5414   78.0926  223.7363 H   0  0  0  0  0  0  0  0  0  0  0  0
  140.8209   78.6927  223.5624 H   0  0  0  0  0  0  0  0  0  0  0  0
  142.2000   77.1160  221.4300 H   0  0  0  0  0  0  0  0  0  0  0  0
  141.2885   74.8255  221.4245 H   0  0  0  0  0  0  0  0  0  0  0  0
  139.2826   73.4334  221.2674 H   0  0  0  0  0  0  0  0  0  0  0  0
  136.9070   76.7128  222.6050 H   0  0  0  0  0  0  0  0  0  0  0  0
  138.9117   78.1138  222.7616 H   0  0  0  0  0  0  0  0  0  0  0  0
  140.7774   76.0362  217.2739 H   0  0  0  0  0  0  0  0  0  0  0  0
  141.7748   73.7812  217.1359 H   0  0  0  0  0  0  0  0  0  0  0  0
  143.3602   72.1398  217.8609 H   0  0  0  0  0  0  0  0  0  0  0  0
  146.0863   73.2059  221.0142 H   0  0  0  0  0  0  0  0  0  0  0  0
  145.1077   75.4838  221.1820 H   0  0  0  0  0  0  0  0  0  0  0  0
  1  2  2  0
  2  3  1  0
  3  4  1  0
  4  5  1  0
  5  6  2  0
  5  7  1  0
  7  8  1  0
  8  9  1  0
  9 10  1  0
 10 11  1  0
 11 12  1  0
 12 13  1  0
 13 14  1  0
 14 15  2  0
 15 16  1  0
 16 17  2  0
 17 18  1  0
 17 19  1  0
 19 20  2  0
  2 21  1  0
 21 22  2  0
 22 23  1  0
 23 24  2  0
 24 25  1  0
 25 26  2  0
 26 27  1  0
 26 28  1  0
 28 29  2  0
 29 30  1  0
 30 31  2  0
 11  7  1  0
 20 14  1  0
 31 21  1  0
 30 24  1  0
  3 32  1  0
  4 33  1  0
  4 34  1  0
  8 35  1  0
  8 36  1  0
  9 37  1  0
  9 38  1  0
 10 39  1  0
 10 40  1  0
 11 41  1  6
 12 42  1  0
 12 43  1  0
 13 44  1  0
 15 45  1  0
 16 46  1  0
 19 47  1  0
 20 48  1  0
 22 49  1  0
 23 50  1  0
 25 51  1  0
 28 52  1  0
 29 53  1  0
M  END
>  <smiles>  (16) 
O=C(NCC(=O)N1CCC[C@H]1CNc1ccc(Cl)cc1)c1ccc2cc(Cl)ccc2n1

>  <score_type>  (16) 
oracle

>  <origin>  (16) 
autodockgpu

>  <m_score__min__energy>  (16) 
-8.6400000000000006

>  <m_primary>  (16) 
energy

>  <rmsd>  (16) 
7.588543666411113

>  <m_score__min__rmsd>  (16) 
7.588543666411113

>  <meeko>  (16) 
{"free_energy": -6.57, "intermolecular_energy": -8.66, "internal_energy": -3.39, "cluster_size": 2, "cluster_id": 14, "rank_in_cluster": 2}

>  <energy>  (16) 
-7.64

>  <cluster_rmsd>  (16) 
1.7

>  <cluster>  (16) 
2

$$$$

     RDKit          3D

 53 56  0  0  0  0  0  0  0  0999 V2000
  140.2740   74.1230  222.1250 O   0  0  0  0  0  0  0  0  0  0  0  0
  140.1580   72.8710  221.9790 C   0  0  0  0  0  0  0  0  0  0  0  0
  140.0370   72.4150  220.6280 N   0  0  0  0  0  0  0  0  0  0  0  0
  140.0570   73.3900  219.5840 C   0  0  0  0  0  0  0  0  0  0  0  0
  141.3170   73.3400  218.7850 C   0  0  0  0  0  0  0  0  0  0  0  0
  141.9420   72.2620  218.5720 O   0  0  0  0  0  0  0  0  0  0  0  0
  141.8370   74.5750  218.2390 N   0  0  0  0  0  0  0  0  0  0  0  0
  141.9380   74.7710  216.8120 C   0  0  0  0  0  0  0  0  0  0  0  0
  142.7390   76.0030  216.6380 C   0  0  0  0  0  0  0  0  0  0  0  0
  143.3110   76.3050  217.9980 C   0  0  0  0  0  0  0  0  0  0  0  0
  142.3180   75.6950  218.9840 C   0  0  1  0  0  0  0  0  0  0  0  0
  141.3580   76.7300  219.4260 C   0  0  0  0  0  0  0  0  0  0  0  0
  141.2150   76.8200  220.8440 N   0  0  0  0  0  0  0  0  0  0  0  0
  141.4590   77.9290  221.6620 C   0  0  0  0  0  0  0  0  0  0  0  0
  141.8760   79.1370  221.1250 C   0  0  0  0  0  0  0  0  0  0  0  0
  142.1560   80.2460  221.8930 C   0  0  0  0  0  0  0  0  0  0  0  0
  142.0280   80.2010  223.2630 C   0  0  0  0  0  0  0  0  0  0  0  0
  142.3990   81.6450  224.1810 Cl  0  0  0  0  0  0  0  0  0  0  0  0
  141.6190   79.0250  223.8250 C   0  0  0  0  0  0  0  0  0  0  0  0
  141.3390   77.9150  223.0510 C   0  0  0  0  0  0  0  0  0  0  0  0
  140.1470   71.9450  223.1020 C   0  0  0  0  0  0  0  0  0  0  0  0
  139.5980   70.6930  222.8840 C   0  0  0  0  0  0  0  0  0  0  0  0
  139.5690   69.7940  223.9190 C   0  0  0  0  0  0  0  0  0  0  0  0
  140.0770   70.1150  225.1640 C   0  0  0  0  0  0  0  0  0  0  0  0
  140.0310   69.1810  226.1810 C   0  0  0  0  0  0  0  0  0  0  0  0
  140.5550   69.5560  227.4150 C   0  0  0  0  0  0  0  0  0  0  0  0
  140.5050   68.3840  228.7180 Cl  0  0  0  0  0  0  0  0  0  0  0  0
  141.0910   70.8170  227.5780 C   0  0  0  0  0  0  0  0  0  0  0  0
  141.1390   71.7540  226.5620 C   0  0  0  0  0  0  0  0  0  0  0  0
  140.6160   71.3740  225.3400 C   0  0  0  0  0  0  0  0  0  0  0  0
  140.6390   72.2480  224.3180 N   0  0  0  0  0  0  0  0  0  0  0  0
  139.9380   71.3750  220.4460 H   0  0  0  0  0  0  0  0  0  0  0  0
  139.2051   73.2067  218.9127 H   0  0  0  0  0  0  0  0  0  0  0  0
  139.9944   74.3839  220.0511 H   0  0  0  0  0  0  0  0  0  0  0  0
  142.4427   73.9146  216.3411 H   0  0  0  0  0  0  0  0  0  0  0  0
  140.9478   74.8580  216.3409 H   0  0  0  0  0  0  0  0  0  0  0  0
  143.5462   75.8373  215.9094 H   0  0  0  0  0  0  0  0  0  0  0  0
  142.1299   76.8359  216.2568 H   0  0  0  0  0  0  0  0  0  0  0  0
  144.3031   75.8437  218.1121 H   0  0  0  0  0  0  0  0  0  0  0  0
  143.4470   77.3844  218.1605 H   0  0  0  0  0  0  0  0  0  0  0  0
  142.6931   75.3422  219.9560 H   0  0  0  0  0  0  0  0  0  0  0  0
  141.7025   77.7048  219.0503 H   0  0  0  0  0  0  0  0  0  0  0  0
  140.3746   76.4454  219.0237 H   0  0  0  0  0  0  0  0  0  0  0  0
  140.8810   75.9360  221.3440 H   0  0  0  0  0  0  0  0  0  0  0  0
  141.9888   79.2138  220.0335 H   0  0  0  0  0  0  0  0  0  0  0  0
  142.4850   81.1763  221.4069 H   0  0  0  0  0  0  0  0  0  0  0  0
  141.5102   78.9602  224.9177 H   0  0  0  0  0  0  0  0  0  0  0  0
  141.0106   76.9898  223.5471 H   0  0  0  0  0  0  0  0  0  0  0  0
  139.1921   70.4240  221.8977 H   0  0  0  0  0  0  0  0  0  0  0  0
  139.1328   68.7975  223.7554 H   0  0  0  0  0  0  0  0  0  0  0  0
  139.5982   68.1823  226.0222 H   0  0  0  0  0  0  0  0  0  0  0  0
  141.4993   71.0898  228.5623 H   0  0  0  0  0  0  0  0  0  0  0  0
  141.5722   72.7529  226.7185 H   0  0  0  0  0  0  0  0  0  0  0  0
  1  2  2  0
  2  3  1  0
  3  4  1  0
  4  5  1  0
  5  6  2  0
  5  7  1  0
  7  8  1  0
  8  9  1  0
  9 10  1  0
 10 11  1  0
 11 12  1  0
 12 13  1  0
 13 14  1  0
 14 15  2  0
 15 16  1  0
 16 17  2  0
 17 18  1  0
 17 19  1  0
 19 20  2  0
  2 21  1  0
 21 22  2  0
 22 23  1  0
 23 24  2  0
 24 25  1  0
 25 26  2  0
 26 27  1  0
 26 28  1  0
 28 29  2  0
 29 30  1  0
 30 31  2  0
 11  7  1  0
 20 14  1  0
 31 21  1  0
 30 24  1  0
  3 32  1  0
  4 33  1  0
  4 34  1  0
  8 35  1  0
  8 36  1  0
  9 37  1  0
  9 38  1  0
 10 39  1  0
 10 40  1  0
 11 41  1  1
 12 42  1  0
 12 43  1  0
 13 44  1  0
 15 45  1  0
 16 46  1  0
 19 47  1  0
 20 48  1  0
 22 49  1  0
 23 50  1  0
 25 51  1  0
 28 52  1  0
 29 53  1  0
M  END
>  <smiles>  (17) 
O=C(NCC(=O)N1CCC[C@H]1CNc1ccc(Cl)cc1)c1ccc2cc(Cl)ccc2n1

>  <score_type>  (17) 
oracle

>  <origin>  (17) 
autodockgpu

>  <m_score__min__energy>  (17) 
-8.6400000000000006

>  <m_primary>  (17) 
energy

>  <rmsd>  (17) 
2.554951946280118

>  <m_score__min__rmsd>  (17) 
2.554951946280118

>  <meeko>  (17) 
{"free_energy": -8.13, "intermolecular_energy": -10.22, "internal_energy": -2.08, "cluster_size": 12, "cluster_id": 2, "rank_in_cluster": 3}

>  <energy>  (17) 
-7.63

>  <cluster_rmsd>  (17) 
1.78

>  <cluster>  (17) 
2

$$$$

     RDKit          3D

 53 56  0  0  0  0  0  0  0  0999 V2000
  140.3950   72.1740  220.9090 O   0  0  0  0  0  0  0  0  0  0  0  0
  139.9290   72.4690  222.0480 C   0  0  0  0  0  0  0  0  0  0  0  0
  139.3170   73.7580  222.1500 N   0  0  0  0  0  0  0  0  0  0  0  0
  139.2860   74.5840  220.9840 C   0  0  0  0  0  0  0  0  0  0  0  0
  140.5730   75.3100  220.7700 C   0  0  0  0  0  0  0  0  0  0  0  0
  141.5170   75.2770  221.6100 O   0  0  0  0  0  0  0  0  0  0  0  0
  140.7380   76.0760  219.5540 N   0  0  0  0  0  0  0  0  0  0  0  0
  139.6590   76.1980  218.6010 C   0  0  0  0  0  0  0  0  0  0  0  0
  140.2630   76.8080  217.3950 C   0  0  0  0  0  0  0  0  0  0  0  0
  141.7510   76.7440  217.6170 C   0  0  0  0  0  0  0  0  0  0  0  0
  141.9230   76.7560  219.1340 C   0  0  1  0  0  0  0  0  0  0  0  0
  142.1570   78.1410  219.5970 C   0  0  0  0  0  0  0  0  0  0  0  0
  142.1480   78.2870  221.0170 N   0  0  0  0  0  0  0  0  0  0  0  0
  141.1570   78.8740  221.8130 C   0  0  0  0  0  0  0  0  0  0  0  0
  141.4770   79.4950  223.0110 C   0  0  0  0  0  0  0  0  0  0  0  0
  140.5340   80.0600  223.8410 C   0  0  0  0  0  0  0  0  0  0  0  0
  139.1980   80.0320  223.5070 C   0  0  0  0  0  0  0  0  0  0  0  0
  138.0510   80.7680  224.6050 Cl  0  0  0  0  0  0  0  0  0  0  0  0
  138.8490   79.4270  222.3330 C   0  0  0  0  0  0  0  0  0  0  0  0
  139.7980   78.8610  221.5030 C   0  0  0  0  0  0  0  0  0  0  0  0
  140.0020   71.5650  223.1880 C   0  0  0  0  0  0  0  0  0  0  0  0
  139.5290   70.2770  223.0040 C   0  0  0  0  0  0  0  0  0  0  0  0
  139.5810   69.3970  224.0550 C   0  0  0  0  0  0  0  0  0  0  0  0
  140.0940   69.7740  225.2820 C   0  0  0  0  0  0  0  0  0  0  0  0
  140.1310   68.8590  226.3170 C   0  0  0  0  0  0  0  0  0  0  0  0
  140.6560   69.2900  227.5310 C   0  0  0  0  0  0  0  0  0  0  0  0
  140.7100   68.1420  228.8560 Cl  0  0  0  0  0  0  0  0  0  0  0  0
  141.1140   70.5860  227.6590 C   0  0  0  0  0  0  0  0  0  0  0  0
  141.0790   71.5040  226.6260 C   0  0  0  0  0  0  0  0  0  0  0  0
  140.5550   71.0680  225.4240 C   0  0  0  0  0  0  0  0  0  0  0  0
  140.5000   71.9220  224.3850 N   0  0  0  0  0  0  0  0  0  0  0  0
  138.9080   74.0580  223.0820 H   0  0  0  0  0  0  0  0  0  0  0  0
  139.0870   73.9507  220.1069 H   0  0  0  0  0  0  0  0  0  0  0  0
  138.4949   75.3353  221.1245 H   0  0  0  0  0  0  0  0  0  0  0  0
  139.2423   75.2081  218.3634 H   0  0  0  0  0  0  0  0  0  0  0  0
  138.8328   76.8073  218.9961 H   0  0  0  0  0  0  0  0  0  0  0  0
  139.9833   76.2402  216.4953 H   0  0  0  0  0  0  0  0  0  0  0  0
  139.9163   77.8406  217.2416 H   0  0  0  0  0  0  0  0  0  0  0  0
  142.1669   75.8206  217.1877 H   0  0  0  0  0  0  0  0  0  0  0  0
  142.2780   77.5801  217.1340 H   0  0  0  0  0  0  0  0  0  0  0  0
  142.7988   76.2498  219.5662 H   0  0  0  0  0  0  0  0  0  0  0  0
  143.1370   78.4705  219.2214 H   0  0  0  0  0  0  0  0  0  0  0  0
  141.3281   78.7511  219.2087 H   0  0  0  0  0  0  0  0  0  0  0  0
  142.9980   77.9030  221.5390 H   0  0  0  0  0  0  0  0  0  0  0  0
  142.5339   79.5384  223.3127 H   0  0  0  0  0  0  0  0  0  0  0  0
  140.8509   80.5381  224.7796 H   0  0  0  0  0  0  0  0  0  0  0  0
  137.7889   79.3895  222.0418 H   0  0  0  0  0  0  0  0  0  0  0  0
  139.4703   78.3847  220.5672 H   0  0  0  0  0  0  0  0  0  0  0  0
  139.1188   69.9648  222.0323 H   0  0  0  0  0  0  0  0  0  0  0  0
  139.2072   68.3715  223.9187 H   0  0  0  0  0  0  0  0  0  0  0  0
  139.7604   67.8316  226.1862 H   0  0  0  0  0  0  0  0  0  0  0  0
  141.5261   70.9031  228.6284 H   0  0  0  0  0  0  0  0  0  0  0  0
  141.4502   72.5315  226.7546 H   0  0  0  0  0  0  0  0  0  0  0  0
  1  2  2  0
  2  3  1  0
  3  4  1  0
  4  5  1  0
  5  6  2  0
  5  7  1  0
  7  8  1  0
  8  9  1  0
  9 10  1  0
 10 11  1  0
 11 12  1  0
 12 13  1  0
 13 14  1  0
 14 15  2  0
 15 16  1  0
 16 17  2  0
 17 18  1  0
 17 19  1  0
 19 20  2  0
  2 21  1  0
 21 22  2  0
 22 23  1  0
 23 24  2  0
 24 25  1  0
 25 26  2  0
 26 27  1  0
 26 28  1  0
 28 29  2  0
 29 30  1  0
 30 31  2  0
 11  7  1  0
 20 14  1  0
 31 21  1  0
 30 24  1  0
  3 32  1  0
  4 33  1  0
  4 34  1  0
  8 35  1  0
  8 36  1  0
  9 37  1  0
  9 38  1  0
 10 39  1  0
 10 40  1  0
 11 41  1  6
 12 42  1  0
 12 43  1  0
 13 44  1  0
 15 45  1  0
 16 46  1  0
 19 47  1  0
 20 48  1  0
 22 49  1  0
 23 50  1  0
 25 51  1  0
 28 52  1  0
 29 53  1  0
M  END
>  <smiles>  (18) 
O=C(NCC(=O)N1CCC[C@H]1CNc1ccc(Cl)cc1)c1ccc2cc(Cl)ccc2n1

>  <score_type>  (18) 
oracle

>  <origin>  (18) 
autodockgpu

>  <m_score__min__energy>  (18) 
-8.6400000000000006

>  <m_primary>  (18) 
energy

>  <rmsd>  (18) 
1.899231364672806

>  <m_score__min__rmsd>  (18) 
1.899231364672806

>  <meeko>  (18) 
{"free_energy": -8.31, "intermolecular_energy": -10.4, "internal_energy": -1.72, "cluster_size": 12, "cluster_id": 2, "rank_in_cluster": 2}

>  <energy>  (18) 
-7.45

>  <cluster_rmsd>  (18) 
1.54

>  <cluster>  (18) 
2

$$$$

     RDKit          3D

 53 56  0  0  0  0  0  0  0  0999 V2000
  138.4130   71.1910  220.5710 O   0  0  0  0  0  0  0  0  0  0  0  0
  138.2830   71.7070  221.7190 C   0  0  0  0  0  0  0  0  0  0  0  0
  137.7470   73.0340  221.7430 N   0  0  0  0  0  0  0  0  0  0  0  0
  137.4140   73.6480  220.4960 C   0  0  0  0  0  0  0  0  0  0  0  0
  138.5000   74.5450  219.9980 C   0  0  0  0  0  0  0  0  0  0  0  0
  138.2660   75.6930  219.5250 O   0  0  0  0  0  0  0  0  0  0  0  0
  139.8660   74.0740  220.0630 N   0  0  0  0  0  0  0  0  0  0  0  0
  140.5650   73.6550  218.8710 C   0  0  0  0  0  0  0  0  0  0  0  0
  141.8050   73.0030  219.3470 C   0  0  0  0  0  0  0  0  0  0  0  0
  141.6190   72.8240  220.8300 C   0  0  0  0  0  0  0  0  0  0  0  0
  140.6610   73.9380  221.2430 C   0  0  1  0  0  0  0  0  0  0  0  0
  141.4330   75.1040  221.7260 C   0  0  0  0  0  0  0  0  0  0  0  0
  140.7870   76.3580  221.5070 N   0  0  0  0  0  0  0  0  0  0  0  0
  141.1360   77.6070  222.0330 C   0  0  0  0  0  0  0  0  0  0  0  0
  141.3280   77.7820  223.3950 C   0  0  0  0  0  0  0  0  0  0  0  0
  141.6430   78.9970  223.9610 C   0  0  0  0  0  0  0  0  0  0  0  0
  141.7860   80.1200  223.1780 C   0  0  0  0  0  0  0  0  0  0  0  0
  142.1880   81.6340  223.9600 Cl  0  0  0  0  0  0  0  0  0  0  0  0
  141.6030   79.9830  221.8310 C   0  0  0  0  0  0  0  0  0  0  0  0
  141.2870   78.7620  221.2670 C   0  0  0  0  0  0  0  0  0  0  0  0
  138.6480   71.0080  222.9430 C   0  0  0  0  0  0  0  0  0  0  0  0
  138.0580   69.7770  223.1680 C   0  0  0  0  0  0  0  0  0  0  0  0
  138.3770   69.0890  224.3110 C   0  0  0  0  0  0  0  0  0  0  0  0
  139.2710   69.6030  225.2320 C   0  0  0  0  0  0  0  0  0  0  0  0
  139.5670   68.8800  226.3710 C   0  0  0  0  0  0  0  0  0  0  0  0
  140.4720   69.4420  227.2660 C   0  0  0  0  0  0  0  0  0  0  0  0
  140.8610   68.5390  228.7180 Cl  0  0  0  0  0  0  0  0  0  0  0  0
  141.0310   70.6740  226.9930 C   0  0  0  0  0  0  0  0  0  0  0  0
  140.7370   71.4000  225.8530 C   0  0  0  0  0  0  0  0  0  0  0  0
  139.8370   70.8350  224.9700 C   0  0  0  0  0  0  0  0  0  0  0  0
  139.5170   71.5000  223.8460 N   0  0  0  0  0  0  0  0  0  0  0  0
  137.6150   73.5160  222.6780 H   0  0  0  0  0  0  0  0  0  0  0  0
  137.2363   72.8596  219.7498 H   0  0  0  0  0  0  0  0  0  0  0  0
  136.5153   74.2626  220.6528 H   0  0  0  0  0  0  0  0  0  0  0  0
  139.9531   72.9439  218.2967 H   0  0  0  0  0  0  0  0  0  0  0  0
  140.7805   74.5037  218.2053 H   0  0  0  0  0  0  0  0  0  0  0  0
  141.9401   72.0281  218.8557 H   0  0  0  0  0  0  0  0  0  0  0  0
  142.6973   73.6035  219.1163 H   0  0  0  0  0  0  0  0  0  0  0  0
  141.1834   71.8380  221.0492 H   0  0  0  0  0  0  0  0  0  0  0  0
  142.5726   72.8744  221.3760 H   0  0  0  0  0  0  0  0  0  0  0  0
  139.9977   73.7665  222.1036 H   0  0  0  0  0  0  0  0  0  0  0  0
  141.6001   74.9848  222.8067 H   0  0  0  0  0  0  0  0  0  0  0  0
  142.3715   75.1245  221.1525 H   0  0  0  0  0  0  0  0  0  0  0  0
  139.9330   76.3460  220.8630 H   0  0  0  0  0  0  0  0  0  0  0  0
  141.2237   76.9082  224.0550 H   0  0  0  0  0  0  0  0  0  0  0  0
  141.7818   79.0710  225.0497 H   0  0  0  0  0  0  0  0  0  0  0  0
  141.7096   80.8642  221.1813 H   0  0  0  0  0  0  0  0  0  0  0  0
  141.1500   78.6991  220.1774 H   0  0  0  0  0  0  0  0  0  0  0  0
  137.3454   69.3572  222.4428 H   0  0  0  0  0  0  0  0  0  0  0  0
  137.9127   68.1096  224.4985 H   0  0  0  0  0  0  0  0  0  0  0  0
  139.1060   67.8998  226.5627 H   0  0  0  0  0  0  0  0  0  0  0  0
  141.7435   71.0983  227.7157 H   0  0  0  0  0  0  0  0  0  0  0  0
  141.1975   72.3799  225.6588 H   0  0  0  0  0  0  0  0  0  0  0  0
  1  2  2  0
  2  3  1  0
  3  4  1  0
  4  5  1  0
  5  6  2  0
  5  7  1  0
  7  8  1  0
  8  9  1  0
  9 10  1  0
 10 11  1  0
 11 12  1  0
 12 13  1  0
 13 14  1  0
 14 15  2  0
 15 16  1  0
 16 17  2  0
 17 18  1  0
 17 19  1  0
 19 20  2  0
  2 21  1  0
 21 22  2  0
 22 23  1  0
 23 24  2  0
 24 25  1  0
 25 26  2  0
 26 27  1  0
 26 28  1  0
 28 29  2  0
 29 30  1  0
 30 31  2  0
 11  7  1  0
 20 14  1  0
 31 21  1  0
 30 24  1  0
  3 32  1  0
  4 33  1  0
  4 34  1  0
  8 35  1  0
  8 36  1  0
  9 37  1  0
  9 38  1  0
 10 39  1  0
 10 40  1  0
 11 41  1  1
 12 42  1  0
 12 43  1  0
 13 44  1  0
 15 45  1  0
 16 46  1  0
 19 47  1  0
 20 48  1  0
 22 49  1  0
 23 50  1  0
 25 51  1  0
 28 52  1  0
 29 53  1  0
M  END
>  <smiles>  (19) 
O=C(NCC(=O)N1CCC[C@H]1CNc1ccc(Cl)cc1)c1ccc2cc(Cl)ccc2n1

>  <score_type>  (19) 
oracle

>  <origin>  (19) 
autodockgpu

>  <m_score__min__energy>  (19) 
-8.6400000000000006

>  <m_primary>  (19) 
energy

>  <rmsd>  (19) 
2.7431086622735448

>  <m_score__min__rmsd>  (19) 
2.7431086622735448

>  <meeko>  (19) 
{"free_energy": -7.2, "intermolecular_energy": -9.29, "internal_energy": -2.47, "cluster_size": 12, "cluster_id": 2, "rank_in_cluster": 11}

>  <energy>  (19) 
-7.2

>  <cluster_rmsd>  (19) 
1.87

>  <cluster>  (19) 
2

$$$$

     RDKit          3D

 53 56  0  0  0  0  0  0  0  0999 V2000
  141.2790   74.3520  221.8460 O   0  0  0  0  0  0  0  0  0  0  0  0
  140.2150   73.6700  221.7770 C   0  0  0  0  0  0  0  0  0  0  0  0
  139.2320   74.1480  220.8540 N   0  0  0  0  0  0  0  0  0  0  0  0
  139.5290   75.3300  220.1060 C   0  0  0  0  0  0  0  0  0  0  0  0
  139.3580   76.5720  220.9180 C   0  0  0  0  0  0  0  0  0  0  0  0
  138.2740   76.8540  221.5030 O   0  0  0  0  0  0  0  0  0  0  0  0
  140.4780   77.4800  221.0320 N   0  0  0  0  0  0  0  0  0  0  0  0
  140.8610   78.0290  222.3110 C   0  0  0  0  0  0  0  0  0  0  0  0
  141.8450   79.0920  222.0070 C   0  0  0  0  0  0  0  0  0  0  0  0
  141.7640   79.2980  220.5170 C   0  0  0  0  0  0  0  0  0  0  0  0
  141.2960   77.9550  219.9610 C   0  0  1  0  0  0  0  0  0  0  0  0
  142.4680   77.1550  219.5430 C   0  0  0  0  0  0  0  0  0  0  0  0
  142.7430   76.0430  220.3950 N   0  0  0  0  0  0  0  0  0  0  0  0
  143.4490   74.8750  220.0820 C   0  0  0  0  0  0  0  0  0  0  0  0
  142.8770   73.8800  219.3050 C   0  0  0  0  0  0  0  0  0  0  0  0
  143.5220   72.7020  218.9960 C   0  0  0  0  0  0  0  0  0  0  0  0
  144.7970   72.4580  219.4560 C   0  0  0  0  0  0  0  0  0  0  0  0
  145.5600   70.9430  219.0260 Cl  0  0  0  0  0  0  0  0  0  0  0  0
  145.3900   73.4200  220.2250 C   0  0  0  0  0  0  0  0  0  0  0  0
  144.7390   74.5990  220.5330 C   0  0  0  0  0  0  0  0  0  0  0  0
  139.9930   72.4740  222.5780 C   0  0  0  0  0  0  0  0  0  0  0  0
  139.1320   71.5190  222.0630 C   0  0  0  0  0  0  0  0  0  0  0  0
  138.8970   70.3800  222.7890 C   0  0  0  0  0  0  0  0  0  0  0  0
  139.5020   70.1720  224.0150 C   0  0  0  0  0  0  0  0  0  0  0  0
  139.2420   69.0110  224.7160 C   0  0  0  0  0  0  0  0  0  0  0  0
  139.8760   68.8510  225.9440 C   0  0  0  0  0  0  0  0  0  0  0  0
  139.5560   67.3830  226.8490 Cl  0  0  0  0  0  0  0  0  0  0  0  0
  140.7240   69.8340  226.4100 C   0  0  0  0  0  0  0  0  0  0  0  0
  140.9880   70.9980  225.7110 C   0  0  0  0  0  0  0  0  0  0  0  0
  140.3540   71.1490  224.4920 C   0  0  0  0  0  0  0  0  0  0  0  0
  140.5770   72.2620  223.7710 N   0  0  0  0  0  0  0  0  0  0  0  0
  138.3210   73.6150  220.7540 H   0  0  0  0  0  0  0  0  0  0  0  0
  140.5709   75.2757  219.7575 H   0  0  0  0  0  0  0  0  0  0  0  0
  138.8255   75.3800  219.2619 H   0  0  0  0  0  0  0  0  0  0  0  0
  139.9854   78.4515  222.8256 H   0  0  0  0  0  0  0  0  0  0  0  0
  141.2831   77.2602  222.9749 H   0  0  0  0  0  0  0  0  0  0  0  0
  141.5859   80.0196  222.5384 H   0  0  0  0  0  0  0  0  0  0  0  0
  142.8599   78.8135  222.3268 H   0  0  0  0  0  0  0  0  0  0  0  0
  141.0410   80.0907  220.2744 H   0  0  0  0  0  0  0  0  0  0  0  0
  142.7276   79.6110  220.0887 H   0  0  0  0  0  0  0  0  0  0  0  0
  140.7075   77.9480  219.0317 H   0  0  0  0  0  0  0  0  0  0  0  0
  142.2839   76.7757  218.5270 H   0  0  0  0  0  0  0  0  0  0  0  0
  143.3428   77.8199  219.5935 H   0  0  0  0  0  0  0  0  0  0  0  0
  142.3670   76.1050  221.3940 H   0  0  0  0  0  0  0  0  0  0  0  0
  141.8601   74.0381  218.9166 H   0  0  0  0  0  0  0  0  0  0  0  0
  143.0135   71.9492  218.3758 H   0  0  0  0  0  0  0  0  0  0  0  0
  146.4077   73.2518  220.6070 H   0  0  0  0  0  0  0  0  0  0  0  0
  145.2557   75.3449  221.1548 H   0  0  0  0  0  0  0  0  0  0  0  0
  138.6453   71.6718  221.0885 H   0  0  0  0  0  0  0  0  0  0  0  0
  138.2138   69.6166  222.3884 H   0  0  0  0  0  0  0  0  0  0  0  0
  138.5610   68.2436  224.3194 H   0  0  0  0  0  0  0  0  0  0  0  0
  141.2135   69.6852  227.3838 H   0  0  0  0  0  0  0  0  0  0  0  0
  141.6693   71.7661  226.1059 H   0  0  0  0  0  0  0  0  0  0  0  0
  1  2  2  0
  2  3  1  0
  3  4  1  0
  4  5  1  0
  5  6  2  0
  5  7  1  0
  7  8  1  0
  8  9  1  0
  9 10  1  0
 10 11  1  0
 11 12  1  0
 12 13  1  0
 13 14  1  0
 14 15  2  0
 15 16  1  0
 16 17  2  0
 17 18  1  0
 17 19  1  0
 19 20  2  0
  2 21  1  0
 21 22  2  0
 22 23  1  0
 23 24  2  0
 24 25  1  0
 25 26  2  0
 26 27  1  0
 26 28  1  0
 28 29  2  0
 29 30  1  0
 30 31  2  0
 11  7  1  0
 20 14  1  0
 31 21  1  0
 30 24  1  0
  3 32  1  0
  4 33  1  0
  4 34  1  0
  8 35  1  0
  8 36  1  0
  9 37  1  0
  9 38  1  0
 10 39  1  0
 10 40  1  0
 11 41  1  6
 12 42  1  0
 12 43  1  0
 13 44  1  0
 15 45  1  0
 16 46  1  0
 19 47  1  0
 20 48  1  0
 22 49  1  0
 23 50  1  0
 25 51  1  0
 28 52  1  0
 29 53  1  0
M  END
>  <smiles>  (20) 
O=C(NCC(=O)N1CCC[C@H]1CNc1ccc(Cl)cc1)c1ccc2cc(Cl)ccc2n1

>  <score_type>  (20) 
oracle

>  <origin>  (20) 
autodockgpu

>  <m_score__min__energy>  (20) 
-8.6400000000000006

>  <m_primary>  (20) 
energy

>  <rmsd>  (20) 
4.582622284787999

>  <m_score__min__rmsd>  (20) 
4.582622284787999

>  <meeko>  (20) 
{"free_energy": -7.68, "intermolecular_energy": -9.77, "internal_energy": -2.57, "cluster_size": 8, "cluster_id": 1, "rank_in_cluster": 8}

>  <energy>  (20) 
-6.85

>  <cluster_rmsd>  (20) 
1.89

>  <cluster>  (20) 
2

$$$$

     RDKit          3D

 53 56  0  0  0  0  0  0  0  0999 V2000
  138.2630   70.7610  221.3840 O   0  0  0  0  0  0  0  0  0  0  0  0
  138.4760   71.5040  222.3870 C   0  0  0  0  0  0  0  0  0  0  0  0
  138.0550   72.8640  222.2490 N   0  0  0  0  0  0  0  0  0  0  0  0
  137.4440   73.2580  221.0190 C   0  0  0  0  0  0  0  0  0  0  0  0
  137.2490   74.7360  220.9310 C   0  0  0  0  0  0  0  0  0  0  0  0
  137.7750   75.4360  220.0190 O   0  0  0  0  0  0  0  0  0  0  0  0
  136.4260   75.3830  221.9300 N   0  0  0  0  0  0  0  0  0  0  0  0
  135.8120   74.6220  222.9920 C   0  0  0  0  0  0  0  0  0  0  0  0
  134.8570   75.5480  223.6410 C   0  0  0  0  0  0  0  0  0  0  0  0
  134.7620   76.7360  222.7200 C   0  0  0  0  0  0  0  0  0  0  0  0
  136.1020   76.7740  221.9900 C   0  0  1  0  0  0  0  0  0  0  0  0
  137.0240   77.6960  222.6890 C   0  0  0  0  0  0  0  0  0  0  0  0
  138.3890   77.5580  222.2970 N   0  0  0  0  0  0  0  0  0  0  0  0
  139.4880   78.3090  222.7330 C   0  0  0  0  0  0  0  0  0  0  0  0
  139.3320   79.6130  223.1770 C   0  0  0  0  0  0  0  0  0  0  0  0
  140.3860   80.4000  223.5870 C   0  0  0  0  0  0  0  0  0  0  0  0
  141.6730   79.9110  223.5730 C   0  0  0  0  0  0  0  0  0  0  0  0
  142.9670   80.9610  224.1070 Cl  0  0  0  0  0  0  0  0  0  0  0  0
  141.8620   78.6290  223.1400 C   0  0  0  0  0  0  0  0  0  0  0  0
  140.8020   77.8430  222.7300 C   0  0  0  0  0  0  0  0  0  0  0  0
  139.1070   71.0190  223.6070 C   0  0  0  0  0  0  0  0  0  0  0  0
  140.0680   71.8290  224.1860 C   0  0  0  0  0  0  0  0  0  0  0  0
  140.6850   71.4060  225.3350 C   0  0  0  0  0  0  0  0  0  0  0  0
  140.3630   70.1940  225.9190 C   0  0  0  0  0  0  0  0  0  0  0  0
  141.0060   69.8030  227.0770 C   0  0  0  0  0  0  0  0  0  0  0  0
  140.6450   68.5740  227.6230 C   0  0  0  0  0  0  0  0  0  0  0  0
  141.4510   68.0610  229.0930 Cl  0  0  0  0  0  0  0  0  0  0  0  0
  139.6800   67.8060  227.0040 C   0  0  0  0  0  0  0  0  0  0  0  0
  139.0350   68.1950  225.8440 C   0  0  0  0  0  0  0  0  0  0  0  0
  139.3990   69.4160  225.3090 C   0  0  0  0  0  0  0  0  0  0  0  0
  138.8010   69.8420  224.1820 N   0  0  0  0  0  0  0  0  0  0  0  0
  138.2070   73.5320  223.0580 H   0  0  0  0  0  0  0  0  0  0  0  0
  138.0860   72.9357  220.1859 H   0  0  0  0  0  0  0  0  0  0  0  0
  136.4526   72.7842  220.9688 H   0  0  0  0  0  0  0  0  0  0  0  0
  135.2829   73.7487  222.5829 H   0  0  0  0  0  0  0  0  0  0  0  0
  136.5581   74.2400  223.7043 H   0  0  0  0  0  0  0  0  0  0  0  0
  133.8732   75.0691  223.7540 H   0  0  0  0  0  0  0  0  0  0  0  0
  135.1892   75.8376  224.6489 H   0  0  0  0  0  0  0  0  0  0  0  0
  133.9355   76.6070  222.0057 H   0  0  0  0  0  0  0  0  0  0  0  0
  134.5612   77.6692  223.2666 H   0  0  0  0  0  0  0  0  0  0  0  0
  136.1334   77.1932  220.9735 H   0  0  0  0  0  0  0  0  0  0  0  0
  136.7063   78.7280  222.4792 H   0  0  0  0  0  0  0  0  0  0  0  0
  136.9731   77.4469  223.7592 H   0  0  0  0  0  0  0  0  0  0  0  0
  138.6040   76.7890  221.5860 H   0  0  0  0  0  0  0  0  0  0  0  0
  138.3185   80.0397  223.2032 H   0  0  0  0  0  0  0  0  0  0  0  0
  140.1975   81.4285  223.9287 H   0  0  0  0  0  0  0  0  0  0  0  0
  142.8802   78.2134  223.1173 H   0  0  0  0  0  0  0  0  0  0  0  0
  141.0015   76.8160  222.3901 H   0  0  0  0  0  0  0  0  0  0  0  0
  140.3323   72.7956  223.7323 H   0  0  0  0  0  0  0  0  0  0  0  0
  141.4510   72.0428  225.8016 H   0  0  0  0  0  0  0  0  0  0  0  0
  141.7718   70.4364  227.5486 H   0  0  0  0  0  0  0  0  0  0  0  0
  139.4111   66.8391  227.4543 H   0  0  0  0  0  0  0  0  0  0  0  0
  138.2694   67.5630  225.3702 H   0  0  0  0  0  0  0  0  0  0  0  0
  1  2  2  0
  2  3  1  0
  3  4  1  0
  4  5  1  0
  5  6  2  0
  5  7  1  0
  7  8  1  0
  8  9  1  0
  9 10  1  0
 10 11  1  0
 11 12  1  0
 12 13  1  0
 13 14  1  0
 14 15  2  0
 15 16  1  0
 16 17  2  0
 17 18  1  0
 17 19  1  0
 19 20  2  0
  2 21  1  0
 21 22  2  0
 22 23  1  0
 23 24  2  0
 24 25  1  0
 25 26  2  0
 26 27  1  0
 26 28  1  0
 28 29  2  0
 29 30  1  0
 30 31  2  0
 11  7  1  0
 20 14  1  0
 31 21  1  0
 30 24  1  0
  3 32  1  0
  4 33  1  0
  4 34  1  0
  8 35  1  0
  8 36  1  0
  9 37  1  0
  9 38  1  0
 10 39  1  0
 10 40  1  0
 11 41  1  6
 12 42  1  0
 12 43  1  0
 13 44  1  0
 15 45  1  0
 16 46  1  0
 19 47  1  0
 20 48  1  0
 22 49  1  0
 23 50  1  0
 25 51  1  0
 28 52  1  0
 29 53  1  0
M  END
>  <smiles>  (21) 
O=C(NCC(=O)N1CCC[C@H]1CNc1ccc(Cl)cc1)c1ccc2cc(Cl)ccc2n1

>  <score_type>  (21) 
oracle

>  <origin>  (21) 
autodockgpu

>  <m_score__min__energy>  (21) 
-8.6400000000000006

>  <m_primary>  (21) 
energy

>  <rmsd>  (21) 
4.324877665265642

>  <m_score__min__rmsd>  (21) 
4.324877665265642

>  <meeko>  (21) 
{"free_energy": -7.92, "intermolecular_energy": -10.01, "internal_energy": -1.85, "cluster_size": 4, "cluster_id": 3, "rank_in_cluster": 3}

>  <energy>  (21) 
-8.27

>  <cluster_rmsd>  (21) 
0.0

>  <cluster>  (21) 
3

$$$$

     RDKit          3D

 53 56  0  0  0  0  0  0  0  0999 V2000
  141.7130   73.0600  221.0340 O   0  0  0  0  0  0  0  0  0  0  0  0
  140.9210   73.8990  221.5570 C   0  0  0  0  0  0  0  0  0  0  0  0
  139.8210   73.3420  222.2820 N   0  0  0  0  0  0  0  0  0  0  0  0
  139.7130   71.9180  222.3520 C   0  0  0  0  0  0  0  0  0  0  0  0
  138.2980   71.4640  222.5000 C   0  0  0  0  0  0  0  0  0  0  0  0
  137.4380   72.1270  223.1470 O   0  0  0  0  0  0  0  0  0  0  0  0
  137.9050   70.2190  221.8770 N   0  0  0  0  0  0  0  0  0  0  0  0
  137.7060   70.1330  220.4500 C   0  0  0  0  0  0  0  0  0  0  0  0
  137.0670   68.8180  220.2180 C   0  0  0  0  0  0  0  0  0  0  0  0
  136.6640   68.3220  221.5810 C   0  0  0  0  0  0  0  0  0  0  0  0
  137.6480   68.9820  222.5450 C   0  0  1  0  0  0  0  0  0  0  0  0
  138.7760   68.0620  222.8100 C   0  0  0  0  0  0  0  0  0  0  0  0
  139.0130   67.8200  224.1970 N   0  0  0  0  0  0  0  0  0  0  0  0
  139.4580   68.7300  225.1630 C   0  0  0  0  0  0  0  0  0  0  0  0
  139.9580   69.9710  224.8010 C   0  0  0  0  0  0  0  0  0  0  0  0
  140.4350   70.8860  225.7140 C   0  0  0  0  0  0  0  0  0  0  0  0
  140.4330   70.6000  227.0610 C   0  0  0  0  0  0  0  0  0  0  0  0
  141.0500   71.8070  228.1680 Cl  0  0  0  0  0  0  0  0  0  0  0  0
  139.9460   69.3850  227.4520 C   0  0  0  0  0  0  0  0  0  0  0  0
  139.4700   68.4690  226.5330 C   0  0  0  0  0  0  0  0  0  0  0  0
  141.1070   75.3380  221.4360 C   0  0  0  0  0  0  0  0  0  0  0  0
  141.8610   75.7910  220.3680 C   0  0  0  0  0  0  0  0  0  0  0  0
  142.0580   77.1410  220.2220 C   0  0  0  0  0  0  0  0  0  0  0  0
  141.5190   78.0460  221.1170 C   0  0  0  0  0  0  0  0  0  0  0  0
  141.7390   79.3980  220.9360 C   0  0  0  0  0  0  0  0  0  0  0  0
  141.1750   80.2660  221.8660 C   0  0  0  0  0  0  0  0  0  0  0  0
  141.4440   81.9850  221.6520 Cl  0  0  0  0  0  0  0  0  0  0  0  0
  140.4320   79.7600  222.9130 C   0  0  0  0  0  0  0  0  0  0  0  0
  140.2100   78.4080  223.0970 C   0  0  0  0  0  0  0  0  0  0  0  0
  140.7740   77.5530  222.1700 C   0  0  0  0  0  0  0  0  0  0  0  0
  140.5870   76.2270  222.3020 N   0  0  0  0  0  0  0  0  0  0  0  0
  139.1260   73.9970  222.7420 H   0  0  0  0  0  0  0  0  0  0  0  0
  140.1286   71.4859  221.4298 H   0  0  0  0  0  0  0  0  0  0  0  0
  140.2692   71.5813  223.2393 H   0  0  0  0  0  0  0  0  0  0  0  0
  137.0502   70.9454  220.1037 H   0  0  0  0  0  0  0  0  0  0  0  0
  138.6535   70.2290  219.8994 H   0  0  0  0  0  0  0  0  0  0  0  0
  136.1835   68.9283  219.5721 H   0  0  0  0  0  0  0  0  0  0  0  0
  137.7472   68.1167  219.7126 H   0  0  0  0  0  0  0  0  0  0  0  0
  135.6323   68.6243  221.8136 H   0  0  0  0  0  0  0  0  0  0  0  0
  136.6916   67.2244  221.6475 H   0  0  0  0  0  0  0  0  0  0  0  0
  137.3151   69.1924  223.5721 H   0  0  0  0  0  0  0  0  0  0  0  0
  138.5597   67.0998  222.3228 H   0  0  0  0  0  0  0  0  0  0  0  0
  139.6809   68.5439  222.4113 H   0  0  0  0  0  0  0  0  0  0  0  0
  138.8290   66.8250  224.5440 H   0  0  0  0  0  0  0  0  0  0  0  0
  139.9748   70.2381  223.7340 H   0  0  0  0  0  0  0  0  0  0  0  0
  140.8212   71.8545  225.3635 H   0  0  0  0  0  0  0  0  0  0  0  0
  139.9324   69.1301  228.5220 H   0  0  0  0  0  0  0  0  0  0  0  0
  139.0882   67.5026  226.8939 H   0  0  0  0  0  0  0  0  0  0  0  0
  142.2950   75.0812  219.6484 H   0  0  0  0  0  0  0  0  0  0  0  0
  142.6566   77.5103  219.3762 H   0  0  0  0  0  0  0  0  0  0  0  0
  142.3356   79.7729  220.0913 H   0  0  0  0  0  0  0  0  0  0  0  0
  139.9958   80.4658  223.6352 H   0  0  0  0  0  0  0  0  0  0  0  0
  139.6132   78.0312  223.9407 H   0  0  0  0  0  0  0  0  0  0  0  0
  1  2  2  0
  2  3  1  0
  3  4  1  0
  4  5  1  0
  5  6  2  0
  5  7  1  0
  7  8  1  0
  8  9  1  0
  9 10  1  0
 10 11  1  0
 11 12  1  0
 12 13  1  0
 13 14  1  0
 14 15  2  0
 15 16  1  0
 16 17  2  0
 17 18  1  0
 17 19  1  0
 19 20  2  0
  2 21  1  0
 21 22  2  0
 22 23  1  0
 23 24  2  0
 24 25  1  0
 25 26  2  0
 26 27  1  0
 26 28  1  0
 28 29  2  0
 29 30  1  0
 30 31  2  0
 11  7  1  0
 20 14  1  0
 31 21  1  0
 30 24  1  0
  3 32  1  0
  4 33  1  0
  4 34  1  0
  8 35  1  0
  8 36  1  0
  9 37  1  0
  9 38  1  0
 10 39  1  0
 10 40  1  0
 11 41  1  1
 12 42  1  0
 12 43  1  0
 13 44  1  0
 15 45  1  0
 16 46  1  0
 19 47  1  0
 20 48  1  0
 22 49  1  0
 23 50  1  0
 25 51  1  0
 28 52  1  0
 29 53  1  0
M  END
>  <smiles>  (22) 
O=C(NCC(=O)N1CCC[C@H]1CNc1ccc(Cl)cc1)c1ccc2cc(Cl)ccc2n1

>  <score_type>  (22) 
oracle

>  <origin>  (22) 
autodockgpu

>  <m_score__min__energy>  (22) 
-8.6400000000000006

>  <m_primary>  (22) 
energy

>  <rmsd>  (22) 
9.224956068364566

>  <m_score__min__rmsd>  (22) 
9.224956068364566

>  <meeko>  (22) 
{"free_energy": -7.73, "intermolecular_energy": -9.82, "internal_energy": -1.8, "cluster_size": 2, "cluster_id": 6, "rank_in_cluster": 1}

>  <energy>  (22) 
-7.99

>  <cluster_rmsd>  (22) 
1.36

>  <cluster>  (22) 
3

$$$$

     RDKit          3D

 53 56  0  0  0  0  0  0  0  0999 V2000
  140.4990   73.7420  221.9920 O   0  0  0  0  0  0  0  0  0  0  0  0
  139.6730   72.8130  222.2290 C   0  0  0  0  0  0  0  0  0  0  0  0
  138.5350   72.7600  221.3640 N   0  0  0  0  0  0  0  0  0  0  0  0
  138.4310   73.7400  220.3290 C   0  0  0  0  0  0  0  0  0  0  0  0
  138.3320   75.1280  220.8710 C   0  0  0  0  0  0  0  0  0  0  0  0
  137.9370   75.3700  222.0470 O   0  0  0  0  0  0  0  0  0  0  0  0
  138.7010   76.2320  220.0110 N   0  0  0  0  0  0  0  0  0  0  0  0
  137.9530   77.4670  220.0240 C   0  0  0  0  0  0  0  0  0  0  0  0
  138.4410   78.2370  218.8590 C   0  0  0  0  0  0  0  0  0  0  0  0
  139.2610   77.2660  218.0510 C   0  0  0  0  0  0  0  0  0  0  0  0
  139.7740   76.2470  219.0660 C   0  0  1  0  0  0  0  0  0  0  0  0
  141.1260   76.6370  219.5220 C   0  0  0  0  0  0  0  0  0  0  0  0
  141.2670   76.6870  220.9420 N   0  0  0  0  0  0  0  0  0  0  0  0
  141.4930   77.8130  221.7430 C   0  0  0  0  0  0  0  0  0  0  0  0
  141.8800   79.0220  221.1850 C   0  0  0  0  0  0  0  0  0  0  0  0
  142.1420   80.1470  221.9360 C   0  0  0  0  0  0  0  0  0  0  0  0
  142.0260   80.1180  223.3070 C   0  0  0  0  0  0  0  0  0  0  0  0
  142.3720   81.5830  224.2020 Cl  0  0  0  0  0  0  0  0  0  0  0  0
  141.6460   78.9420  223.8890 C   0  0  0  0  0  0  0  0  0  0  0  0
  141.3850   77.8160  223.1330 C   0  0  0  0  0  0  0  0  0  0  0  0
  139.8570   71.8520  223.3090 C   0  0  0  0  0  0  0  0  0  0  0  0
  139.4600   70.5480  223.0690 C   0  0  0  0  0  0  0  0  0  0  0  0
  139.6160   69.6150  224.0620 C   0  0  0  0  0  0  0  0  0  0  0  0
  140.1600   69.9550  225.2870 C   0  0  0  0  0  0  0  0  0  0  0  0
  140.3030   68.9870  226.2620 C   0  0  0  0  0  0  0  0  0  0  0  0
  140.8540   69.3820  227.4770 C   0  0  0  0  0  0  0  0  0  0  0  0
  141.0430   68.1670  228.7270 Cl  0  0  0  0  0  0  0  0  0  0  0  0
  141.2330   70.6960  227.6630 C   0  0  0  0  0  0  0  0  0  0  0  0
  141.0920   71.6680  226.6890 C   0  0  0  0  0  0  0  0  0  0  0  0
  140.5430   71.2670  225.4860 C   0  0  0  0  0  0  0  0  0  0  0  0
  140.3850   72.1730  224.5040 N   0  0  0  0  0  0  0  0  0  0  0  0
  137.8100   72.0020  221.5160 H   0  0  0  0  0  0  0  0  0  0  0  0
  139.3223   73.6733  219.6878 H   0  0  0  0  0  0  0  0  0  0  0  0
  137.5116   73.5339  219.7614 H   0  0  0  0  0  0  0  0  0  0  0  0
  136.8760   77.2652  219.9276 H   0  0  0  0  0  0  0  0  0  0  0  0
  138.0927   78.0188  220.9653 H   0  0  0  0  0  0  0  0  0  0  0  0
  137.5951   78.6134  218.2651 H   0  0  0  0  0  0  0  0  0  0  0  0
  139.0310   79.1130  219.1664 H   0  0  0  0  0  0  0  0  0  0  0  0
  138.6387   76.7740  217.2890 H   0  0  0  0  0  0  0  0  0  0  0  0
  140.0810   77.7636  217.5125 H   0  0  0  0  0  0  0  0  0  0  0  0
  139.9665   75.2188  218.7259 H   0  0  0  0  0  0  0  0  0  0  0  0
  141.8482   75.9068  219.1280 H   0  0  0  0  0  0  0  0  0  0  0  0
  141.3072   77.6554  219.1477 H   0  0  0  0  0  0  0  0  0  0  0  0
  141.1900   75.7550  221.4600 H   0  0  0  0  0  0  0  0  0  0  0  0
  141.9826   79.0859  220.0917 H   0  0  0  0  0  0  0  0  0  0  0  0
  142.4469   81.0775  221.4348 H   0  0  0  0  0  0  0  0  0  0  0  0
  141.5457   78.8907  224.9832 H   0  0  0  0  0  0  0  0  0  0  0  0
  141.0818   76.8907  223.6447 H   0  0  0  0  0  0  0  0  0  0  0  0
  139.0268   70.2648  222.0984 H   0  0  0  0  0  0  0  0  0  0  0  0
  139.3024   68.5764  223.8805 H   0  0  0  0  0  0  0  0  0  0  0  0
  139.9938   67.9463  226.0850 H   0  0  0  0  0  0  0  0  0  0  0  0
  141.6677   70.9839  228.6316 H   0  0  0  0  0  0  0  0  0  0  0  0
  141.4017   72.7090  226.8635 H   0  0  0  0  0  0  0  0  0  0  0  0
  1  2  2  0
  2  3  1  0
  3  4  1  0
  4  5  1  0
  5  6  2  0
  5  7  1  0
  7  8  1  0
  8  9  1  0
  9 10  1  0
 10 11  1  0
 11 12  1  0
 12 13  1  0
 13 14  1  0
 14 15  2  0
 15 16  1  0
 16 17  2  0
 17 18  1  0
 17 19  1  0
 19 20  2  0
  2 21  1  0
 21 22  2  0
 22 23  1  0
 23 24  2  0
 24 25  1  0
 25 26  2  0
 26 27  1  0
 26 28  1  0
 28 29  2  0
 29 30  1  0
 30 31  2  0
 11  7  1  0
 20 14  1  0
 31 21  1  0
 30 24  1  0
  3 32  1  0
  4 33  1  0
  4 34  1  0
  8 35  1  0
  8 36  1  0
  9 37  1  0
  9 38  1  0
 10 39  1  0
 10 40  1  0
 11 41  1  6
 12 42  1  0
 12 43  1  0
 13 44  1  0
 15 45  1  0
 16 46  1  0
 19 47  1  0
 20 48  1  0
 22 49  1  0
 23 50  1  0
 25 51  1  0
 28 52  1  0
 29 53  1  0
M  END
>  <smiles>  (23) 
O=C(NCC(=O)N1CCC[C@H]1CNc1ccc(Cl)cc1)c1ccc2cc(Cl)ccc2n1

>  <score_type>  (23) 
oracle

>  <origin>  (23) 
autodockgpu

>  <m_score__min__energy>  (23) 
-8.6400000000000006

>  <m_primary>  (23) 
energy

>  <rmsd>  (23) 
2.27583306259181

>  <m_score__min__rmsd>  (23) 
2.27583306259181

>  <meeko>  (23) 
{"free_energy": -7.68, "intermolecular_energy": -9.77, "internal_energy": -2.36, "cluster_size": 12, "cluster_id": 2, "rank_in_cluster": 6}

>  <energy>  (23) 
-7.92

>  <cluster_rmsd>  (23) 
0.81

>  <cluster>  (23) 
3

$$$$

     RDKit          3D

 53 56  0  0  0  0  0  0  0  0999 V2000
  139.7880   72.6990  220.6040 O   0  0  0  0  0  0  0  0  0  0  0  0
  139.7190   73.0050  221.8300 C   0  0  0  0  0  0  0  0  0  0  0  0
  139.5470   74.3970  222.1110 N   0  0  0  0  0  0  0  0  0  0  0  0
  139.4700   75.3020  221.0080 C   0  0  0  0  0  0  0  0  0  0  0  0
  139.0500   76.6720  221.4270 C   0  0  0  0  0  0  0  0  0  0  0  0
  137.8390   77.0340  221.4430 O   0  0  0  0  0  0  0  0  0  0  0  0
  140.0720   77.6140  221.8290 N   0  0  0  0  0  0  0  0  0  0  0  0
  141.1990   77.8970  220.9720 C   0  0  0  0  0  0  0  0  0  0  0  0
  142.1430   78.6760  221.8040 C   0  0  0  0  0  0  0  0  0  0  0  0
  141.6270   78.5570  223.2140 C   0  0  0  0  0  0  0  0  0  0  0  0
  140.1240   78.3330  223.0630 C   0  0  1  0  0  0  0  0  0  0  0  0
  139.4160   79.6270  223.1700 C   0  0  0  0  0  0  0  0  0  0  0  0
  138.0010   79.5030  223.3200 N   0  0  0  0  0  0  0  0  0  0  0  0
  137.1710   80.1770  224.2230 C   0  0  0  0  0  0  0  0  0  0  0  0
  137.7020   80.9830  225.2180 C   0  0  0  0  0  0  0  0  0  0  0  0
  136.9260   81.6420  226.1470 C   0  0  0  0  0  0  0  0  0  0  0  0
  135.5550   81.5250  226.1250 C   0  0  0  0  0  0  0  0  0  0  0  0
  134.6280   82.3890  227.3330 Cl  0  0  0  0  0  0  0  0  0  0  0  0
  134.9990   80.7380  225.1570 C   0  0  0  0  0  0  0  0  0  0  0  0
  135.7800   80.0790  224.2280 C   0  0  0  0  0  0  0  0  0  0  0  0
  139.8060   72.0150  222.8950 C   0  0  0  0  0  0  0  0  0  0  0  0
  139.2860   70.7590  222.6340 C   0  0  0  0  0  0  0  0  0  0  0  0
  139.3500   69.8010  223.6140 C   0  0  0  0  0  0  0  0  0  0  0  0
  139.9200   70.0680  224.8440 C   0  0  0  0  0  0  0  0  0  0  0  0
  139.9660   69.0760  225.8050 C   0  0  0  0  0  0  0  0  0  0  0  0
  140.5510   69.3980  227.0260 C   0  0  0  0  0  0  0  0  0  0  0  0
  140.6180   68.1510  228.2570 Cl  0  0  0  0  0  0  0  0  0  0  0  0
  141.0530   70.6660  227.2330 C   0  0  0  0  0  0  0  0  0  0  0  0
  141.0090   71.6610  226.2730 C   0  0  0  0  0  0  0  0  0  0  0  0
  140.4270   71.3340  225.0630 C   0  0  0  0  0  0  0  0  0  0  0  0
  140.3600   72.2650  224.0950 N   0  0  0  0  0  0  0  0  0  0  0  0
  139.4820   74.7110  223.1220 H   0  0  0  0  0  0  0  0  0  0  0  0
  140.4600   75.3654  220.5328 H   0  0  0  0  0  0  0  0  0  0  0  0
  138.7127   74.9170  220.3092 H   0  0  0  0  0  0  0  0  0  0  0  0
  141.6678   76.9618  220.6321 H   0  0  0  0  0  0  0  0  0  0  0  0
  140.8972   78.4505  220.0706 H   0  0  0  0  0  0  0  0  0  0  0  0
  143.1575   78.2575  221.7290 H   0  0  0  0  0  0  0  0  0  0  0  0
  142.2049   79.7250  221.4786 H   0  0  0  0  0  0  0  0  0  0  0  0
  142.0960   77.7046  223.7274 H   0  0  0  0  0  0  0  0  0  0  0  0
  141.8550   79.4491  223.8158 H   0  0  0  0  0  0  0  0  0  0  0  0
  139.5995   77.7533  223.8369 H   0  0  0  0  0  0  0  0  0  0  0  0
  139.8108   80.1663  224.0437 H   0  0  0  0  0  0  0  0  0  0  0  0
  139.5907   80.1649  222.2265 H   0  0  0  0  0  0  0  0  0  0  0  0
  137.5130   78.8130  222.6640 H   0  0  0  0  0  0  0  0  0  0  0  0
  138.7943   81.1023  225.2685 H   0  0  0  0  0  0  0  0  0  0  0  0
  137.4071   82.2675  226.9134 H   0  0  0  0  0  0  0  0  0  0  0  0
  133.9054   80.6266  225.1165 H   0  0  0  0  0  0  0  0  0  0  0  0
  135.2883   79.4559  223.4664 H   0  0  0  0  0  0  0  0  0  0  0  0
  138.8299   70.5332  221.6588 H   0  0  0  0  0  0  0  0  0  0  0  0
  138.9392   68.7999  223.4165 H   0  0  0  0  0  0  0  0  0  0  0  0
  139.5571   68.0731  225.6127 H   0  0  0  0  0  0  0  0  0  0  0  0
  141.5096   70.8967  228.2068 H   0  0  0  0  0  0  0  0  0  0  0  0
  141.4177   72.6643  226.4636 H   0  0  0  0  0  0  0  0  0  0  0  0
  1  2  2  0
  2  3  1  0
  3  4  1  0
  4  5  1  0
  5  6  2  0
  5  7  1  0
  7  8  1  0
  8  9  1  0
  9 10  1  0
 10 11  1  0
 11 12  1  0
 12 13  1  0
 13 14  1  0
 14 15  2  0
 15 16  1  0
 16 17  2  0
 17 18  1  0
 17 19  1  0
 19 20  2  0
  2 21  1  0
 21 22  2  0
 22 23  1  0
 23 24  2  0
 24 25  1  0
 25 26  2  0
 26 27  1  0
 26 28  1  0
 28 29  2  0
 29 30  1  0
 30 31  2  0
 11  7  1  0
 20 14  1  0
 31 21  1  0
 30 24  1  0
  3 32  1  0
  4 33  1  0
  4 34  1  0
  8 35  1  0
  8 36  1  0
  9 37  1  0
  9 38  1  0
 10 39  1  0
 10 40  1  0
 11 41  1  1
 12 42  1  0
 12 43  1  0
 13 44  1  0
 15 45  1  0
 16 46  1  0
 19 47  1  0
 20 48  1  0
 22 49  1  0
 23 50  1  0
 25 51  1  0
 28 52  1  0
 29 53  1  0
M  END
>  <smiles>  (24) 
O=C(NCC(=O)N1CCC[C@H]1CNc1ccc(Cl)cc1)c1ccc2cc(Cl)ccc2n1

>  <score_type>  (24) 
oracle

>  <origin>  (24) 
autodockgpu

>  <m_score__min__energy>  (24) 
-8.6400000000000006

>  <m_primary>  (24) 
energy

>  <rmsd>  (24) 
4.015824330554741

>  <m_score__min__rmsd>  (24) 
4.015824330554741

>  <meeko>  (24) 
{"free_energy": -7.88, "intermolecular_energy": -9.97, "internal_energy": -1.95, "cluster_size": 1, "cluster_id": 5, "rank_in_cluster": 1}

>  <energy>  (24) 
-7.84

>  <cluster_rmsd>  (24) 
1.32

>  <cluster>  (24) 
3

$$$$

     RDKit          3D

 53 56  0  0  0  0  0  0  0  0999 V2000
  138.3210   75.4970  222.4390 O   0  0  0  0  0  0  0  0  0  0  0  0
  139.4920   75.8540  222.1170 C   0  0  0  0  0  0  0  0  0  0  0  0
  139.7720   77.2500  222.2540 N   0  0  0  0  0  0  0  0  0  0  0  0
  138.7280   78.1030  222.7310 C   0  0  0  0  0  0  0  0  0  0  0  0
  139.2580   79.2910  223.4640 C   0  0  0  0  0  0  0  0  0  0  0  0
  138.5760   79.9130  224.3270 O   0  0  0  0  0  0  0  0  0  0  0  0
  140.6010   79.7410  223.1690 N   0  0  0  0  0  0  0  0  0  0  0  0
  141.7500   78.9990  223.6320 C   0  0  0  0  0  0  0  0  0  0  0  0
  142.9150   79.8780  223.3810 C   0  0  0  0  0  0  0  0  0  0  0  0
  142.3340   81.2250  223.0390 C   0  0  0  0  0  0  0  0  0  0  0  0
  140.9600   80.9200  222.4470 C   0  0  1  0  0  0  0  0  0  0  0  0
  141.0580   80.8580  220.9720 C   0  0  0  0  0  0  0  0  0  0  0  0
  141.9280   79.8330  220.4920 N   0  0  0  0  0  0  0  0  0  0  0  0
  141.5890   78.6970  219.7490 C   0  0  0  0  0  0  0  0  0  0  0  0
  142.5660   77.9140  219.1530 C   0  0  0  0  0  0  0  0  0  0  0  0
  142.2790   76.8040  218.3880 C   0  0  0  0  0  0  0  0  0  0  0  0
  140.9750   76.4150  218.1800 C   0  0  0  0  0  0  0  0  0  0  0  0
  140.6780   74.9950  217.2000 Cl  0  0  0  0  0  0  0  0  0  0  0  0
  139.9870   77.1650  218.7530 C   0  0  0  0  0  0  0  0  0  0  0  0
  140.2800   78.2770  219.5190 C   0  0  0  0  0  0  0  0  0  0  0  0
  140.4990   74.9160  221.6390 C   0  0  0  0  0  0  0  0  0  0  0  0
  140.1420   73.5800  221.5840 C   0  0  0  0  0  0  0  0  0  0  0  0
  141.0640   72.6670  221.1400 C   0  0  0  0  0  0  0  0  0  0  0  0
  142.3310   73.0580  220.7480 C   0  0  0  0  0  0  0  0  0  0  0  0
  143.2320   72.1090  220.3050 C   0  0  0  0  0  0  0  0  0  0  0  0
  144.4930   72.5560  219.9240 C   0  0  0  0  0  0  0  0  0  0  0  0
  145.6490   71.3650  219.3590 Cl  0  0  0  0  0  0  0  0  0  0  0  0
  144.7960   73.9000  219.9980 C   0  0  0  0  0  0  0  0  0  0  0  0
  143.8970   74.8530  220.4410 C   0  0  0  0  0  0  0  0  0  0  0  0
  142.6470   74.4010  220.8180 C   0  0  0  0  0  0  0  0  0  0  0  0
  141.7340   75.2870  221.2560 N   0  0  0  0  0  0  0  0  0  0  0  0
  140.7380   77.6060  222.0000 H   0  0  0  0  0  0  0  0  0  0  0  0
  138.1362   78.4523  221.8720 H   0  0  0  0  0  0  0  0  0  0  0  0
  138.1123   77.5214  223.4329 H   0  0  0  0  0  0  0  0  0  0  0  0
  141.6585   78.7790  224.7059 H   0  0  0  0  0  0  0  0  0  0  0  0
  141.8481   78.0332  223.1146 H   0  0  0  0  0  0  0  0  0  0  0  0
  143.5451   79.9477  224.2799 H   0  0  0  0  0  0  0  0  0  0  0  0
  143.5528   79.4907  222.5728 H   0  0  0  0  0  0  0  0  0  0  0  0
  142.2375   81.8456  223.9420 H   0  0  0  0  0  0  0  0  0  0  0  0
  142.9714   81.7860  222.3398 H   0  0  0  0  0  0  0  0  0  0  0  0
  140.1606   81.6666  222.5630 H   0  0  0  0  0  0  0  0  0  0  0  0
  140.0521   80.6767  220.5655 H   0  0  0  0  0  0  0  0  0  0  0  0
  141.4816   81.8173  220.6399 H   0  0  0  0  0  0  0  0  0  0  0  0
  142.9660   79.9440  220.7260 H   0  0  0  0  0  0  0  0  0  0  0  0
  143.6204   78.1920  219.2977 H   0  0  0  0  0  0  0  0  0  0  0  0
  143.0991   76.2239  217.9398 H   0  0  0  0  0  0  0  0  0  0  0  0
  138.9361   76.8774  218.6013 H   0  0  0  0  0  0  0  0  0  0  0  0
  139.4523   78.8501  219.9622 H   0  0  0  0  0  0  0  0  0  0  0  0
  139.1366   73.2562  221.8910 H   0  0  0  0  0  0  0  0  0  0  0  0
  140.7901   71.6026  221.0948 H   0  0  0  0  0  0  0  0  0  0  0  0
  142.9632   71.0435  220.2556 H   0  0  0  0  0  0  0  0  0  0  0  0
  145.7996   74.2289  219.6903 H   0  0  0  0  0  0  0  0  0  0  0  0
  144.1641   75.9189  220.4908 H   0  0  0  0  0  0  0  0  0  0  0  0
  1  2  2  0
  2  3  1  0
  3  4  1  0
  4  5  1  0
  5  6  2  0
  5  7  1  0
  7  8  1  0
  8  9  1  0
  9 10  1  0
 10 11  1  0
 11 12  1  0
 12 13  1  0
 13 14  1  0
 14 15  2  0
 15 16  1  0
 16 17  2  0
 17 18  1  0
 17 19  1  0
 19 20  2  0
  2 21  1  0
 21 22  2  0
 22 23  1  0
 23 24  2  0
 24 25  1  0
 25 26  2  0
 26 27  1  0
 26 28  1  0
 28 29  2  0
 29 30  1  0
 30 31  2  0
 11  7  1  0
 20 14  1  0
 31 21  1  0
 30 24  1  0
  3 32  1  0
  4 33  1  0
  4 34  1  0
  8 35  1  0
  8 36  1  0
  9 37  1  0
  9 38  1  0
 10 39  1  0
 10 40  1  0
 11 41  1  6
 12 42  1  0
 12 43  1  0
 13 44  1  0
 15 45  1  0
 16 46  1  0
 19 47  1  0
 20 48  1  0
 22 49  1  0
 23 50  1  0
 25 51  1  0
 28 52  1  0
 29 53  1  0
M  END
>  <smiles>  (25) 
O=C(NCC(=O)N1CCC[C@H]1CNc1ccc(Cl)cc1)c1ccc2cc(Cl)ccc2n1

>  <score_type>  (25) 
oracle

>  <origin>  (25) 
autodockgpu

>  <m_score__min__energy>  (25) 
-8.6400000000000006

>  <m_primary>  (25) 
energy

>  <rmsd>  (25) 
6.171036869269825

>  <m_score__min__rmsd>  (25) 
6.171036869269825

>  <meeko>  (25) 
{"free_energy": -6.26, "intermolecular_energy": -8.35, "internal_energy": -3.33, "cluster_size": 4, "cluster_id": 15, "rank_in_cluster": 3}

>  <energy>  (25) 
-7.91

>  <cluster_rmsd>  (25) 
0.0

>  <cluster>  (25) 
4

$$$$

     RDKit          3D

 53 56  0  0  0  0  0  0  0  0999 V2000
  140.6430   72.3390  221.2120 O   0  0  0  0  0  0  0  0  0  0  0  0
  139.9290   72.4840  222.2460 C   0  0  0  0  0  0  0  0  0  0  0  0
  139.0400   73.6050  222.2310 N   0  0  0  0  0  0  0  0  0  0  0  0
  139.0360   74.4460  221.0750 C   0  0  0  0  0  0  0  0  0  0  0  0
  140.2590   75.2980  220.9900 C   0  0  0  0  0  0  0  0  0  0  0  0
  141.0180   75.4950  221.9820 O   0  0  0  0  0  0  0  0  0  0  0  0
  140.5800   75.9190  219.7230 N   0  0  0  0  0  0  0  0  0  0  0  0
  139.6310   75.9170  218.6340 C   0  0  0  0  0  0  0  0  0  0  0  0
  140.3860   76.3870  217.4510 C   0  0  0  0  0  0  0  0  0  0  0  0
  141.8340   76.3650  217.8650 C   0  0  0  0  0  0  0  0  0  0  0  0
  141.8110   76.5570  219.3800 C   0  0  1  0  0  0  0  0  0  0  0  0
  141.9910   77.9890  219.7020 C   0  0  0  0  0  0  0  0  0  0  0  0
  142.1220   78.2570  221.0980 N   0  0  0  0  0  0  0  0  0  0  0  0
  141.1840   78.8510  221.9500 C   0  0  0  0  0  0  0  0  0  0  0  0
  139.8240   78.6590  221.7620 C   0  0  0  0  0  0  0  0  0  0  0  0
  138.8640   79.2460  222.5570 C   0  0  0  0  0  0  0  0  0  0  0  0
  139.2230   80.0700  223.5990 C   0  0  0  0  0  0  0  0  0  0  0  0
  137.9550   80.7840  224.5710 Cl  0  0  0  0  0  0  0  0  0  0  0  0
  140.5570   80.2810  223.8120 C   0  0  0  0  0  0  0  0  0  0  0  0
  141.5160   79.6910  223.0130 C   0  0  0  0  0  0  0  0  0  0  0  0
  139.9960   71.5780  223.3840 C   0  0  0  0  0  0  0  0  0  0  0  0
  139.5290   70.2880  223.1940 C   0  0  0  0  0  0  0  0  0  0  0  0
  139.5750   69.4060  224.2420 C   0  0  0  0  0  0  0  0  0  0  0  0
  140.0770   69.7810  225.4750 C   0  0  0  0  0  0  0  0  0  0  0  0
  140.1070   68.8640  226.5070 C   0  0  0  0  0  0  0  0  0  0  0  0
  140.6210   69.2930  227.7270 C   0  0  0  0  0  0  0  0  0  0  0  0
  140.6680   68.1410  229.0490 Cl  0  0  0  0  0  0  0  0  0  0  0  0
  141.0730   70.5890  227.8630 C   0  0  0  0  0  0  0  0  0  0  0  0
  141.0440   71.5110  226.8310 C   0  0  0  0  0  0  0  0  0  0  0  0
  140.5320   71.0770  225.6240 C   0  0  0  0  0  0  0  0  0  0  0  0
  140.4820   71.9330  224.5870 N   0  0  0  0  0  0  0  0  0  0  0  0
  138.4160   73.7760  223.0720 H   0  0  0  0  0  0  0  0  0  0  0  0
  138.9829   73.8128  220.1771 H   0  0  0  0  0  0  0  0  0  0  0  0
  138.1650   75.1139  221.1477 H   0  0  0  0  0  0  0  0  0  0  0  0
  139.2430   74.9018  218.4640 H   0  0  0  0  0  0  0  0  0  0  0  0
  138.7641   76.5599  218.8468 H   0  0  0  0  0  0  0  0  0  0  0  0
  140.2199   75.7145  216.5965 H   0  0  0  0  0  0  0  0  0  0  0  0
  140.0665   77.3909  217.1346 H   0  0  0  0  0  0  0  0  0  0  0  0
  142.2969   75.4020  217.6037 H   0  0  0  0  0  0  0  0  0  0  0  0
  142.4223   77.1435  217.3572 H   0  0  0  0  0  0  0  0  0  0  0  0
  142.6218   76.1142  219.9772 H   0  0  0  0  0  0  0  0  0  0  0  0
  142.8989   78.3465  219.1942 H   0  0  0  0  0  0  0  0  0  0  0  0
  141.0834   78.5089  219.3614 H   0  0  0  0  0  0  0  0  0  0  0  0
  143.0470   77.9700  221.5520 H   0  0  0  0  0  0  0  0  0  0  0  0
  139.4958   78.0071  220.9390 H   0  0  0  0  0  0  0  0  0  0  0  0
  137.7996   79.0540  222.3567 H   0  0  0  0  0  0  0  0  0  0  0  0
  140.8731   80.9351  224.6380 H   0  0  0  0  0  0  0  0  0  0  0  0
  142.5775   79.8900  223.2217 H   0  0  0  0  0  0  0  0  0  0  0  0
  139.1279   69.9766  222.2182 H   0  0  0  0  0  0  0  0  0  0  0  0
  139.2054   68.3798  224.0997 H   0  0  0  0  0  0  0  0  0  0  0  0
  139.7395   67.8362  226.3703 H   0  0  0  0  0  0  0  0  0  0  0  0
  141.4753   70.9046  228.8370 H   0  0  0  0  0  0  0  0  0  0  0  0
  141.4109   72.5392  226.9657 H   0  0  0  0  0  0  0  0  0  0  0  0
  1  2  2  0
  2  3  1  0
  3  4  1  0
  4  5  1  0
  5  6  2  0
  5  7  1  0
  7  8  1  0
  8  9  1  0
  9 10  1  0
 10 11  1  0
 11 12  1  0
 12 13  1  0
 13 14  1  0
 14 15  2  0
 15 16  1  0
 16 17  2  0
 17 18  1  0
 17 19  1  0
 19 20  2  0
  2 21  1  0
 21 22  2  0
 22 23  1  0
 23 24  2  0
 24 25  1  0
 25 26  2  0
 26 27  1  0
 26 28  1  0
 28 29  2  0
 29 30  1  0
 30 31  2  0
 11  7  1  0
 20 14  1  0
 31 21  1  0
 30 24  1  0
  3 32  1  0
  4 33  1  0
  4 34  1  0
  8 35  1  0
  8 36  1  0
  9 37  1  0
  9 38  1  0
 10 39  1  0
 10 40  1  0
 11 41  1  1
 12 42  1  0
 12 43  1  0
 13 44  1  0
 15 45  1  0
 16 46  1  0
 19 47  1  0
 20 48  1  0
 22 49  1  0
 23 50  1  0
 25 51  1  0
 28 52  1  0
 29 53  1  0
M  END
>  <smiles>  (26) 
O=C(NCC(=O)N1CCC[C@H]1CNc1ccc(Cl)cc1)c1ccc2cc(Cl)ccc2n1

>  <score_type>  (26) 
oracle

>  <origin>  (26) 
autodockgpu

>  <m_score__min__energy>  (26) 
-8.6400000000000006

>  <m_primary>  (26) 
energy

>  <rmsd>  (26) 
1.697963865837267

>  <m_score__min__rmsd>  (26) 
1.697963865837267

>  <meeko>  (26) 
{"free_energy": -8.61, "intermolecular_energy": -10.7, "internal_energy": -1.63, "cluster_size": 12, "cluster_id": 2, "rank_in_cluster": 1}

>  <energy>  (26) 
-6.98

>  <cluster_rmsd>  (26) 
1.83

>  <cluster>  (26) 
4

$$$$

     RDKit          3D

 53 56  0  0  0  0  0  0  0  0999 V2000
  139.0710   73.3560  221.5260 O   0  0  0  0  0  0  0  0  0  0  0  0
  140.1320   72.9370  222.0740 C   0  0  0  0  0  0  0  0  0  0  0  0
  141.3520   73.4640  221.5430 N   0  0  0  0  0  0  0  0  0  0  0  0
  141.2680   74.3960  220.4620 C   0  0  0  0  0  0  0  0  0  0  0  0
  142.6140   74.7930  219.9510 C   0  0  0  0  0  0  0  0  0  0  0  0
  143.6740   74.5900  220.6070 O   0  0  0  0  0  0  0  0  0  0  0  0
  142.6970   75.4350  218.6570 N   0  0  0  0  0  0  0  0  0  0  0  0
  143.0940   74.6910  217.4840 C   0  0  0  0  0  0  0  0  0  0  0  0
  143.3210   75.7050  216.4310 C   0  0  0  0  0  0  0  0  0  0  0  0
  143.3190   77.0310  217.1440 C   0  0  0  0  0  0  0  0  0  0  0  0
  142.4430   76.8120  218.3760 C   0  0  1  0  0  0  0  0  0  0  0  0
  141.0580   77.2410  218.0830 C   0  0  0  0  0  0  0  0  0  0  0  0
  140.3580   77.7540  219.2170 N   0  0  0  0  0  0  0  0  0  0  0  0
  140.8950   78.3890  220.3420 C   0  0  0  0  0  0  0  0  0  0  0  0
  141.4990   79.6330  220.2410 C   0  0  0  0  0  0  0  0  0  0  0  0
  142.0670   80.2830  221.3150 C   0  0  0  0  0  0  0  0  0  0  0  0
  142.0580   79.7100  222.5670 C   0  0  0  0  0  0  0  0  0  0  0  0
  142.7950   80.5890  223.8890 Cl  0  0  0  0  0  0  0  0  0  0  0  0
  141.4700   78.4840  222.7010 C   0  0  0  0  0  0  0  0  0  0  0  0
  140.9020   77.8350  221.6220 C   0  0  0  0  0  0  0  0  0  0  0  0
  140.1280   71.9830  223.1740 C   0  0  0  0  0  0  0  0  0  0  0  0
  139.5980   70.7290  222.9210 C   0  0  0  0  0  0  0  0  0  0  0  0
  139.5760   69.8040  223.9330 C   0  0  0  0  0  0  0  0  0  0  0  0
  140.0700   70.1020  225.1900 C   0  0  0  0  0  0  0  0  0  0  0  0
  140.0310   69.1430  226.1830 C   0  0  0  0  0  0  0  0  0  0  0  0
  140.5400   69.4940  227.4290 C   0  0  0  0  0  0  0  0  0  0  0  0
  140.4990   68.2890  228.7030 Cl  0  0  0  0  0  0  0  0  0  0  0  0
  141.0560   70.7590  227.6270 C   0  0  0  0  0  0  0  0  0  0  0  0
  141.0970   71.7210  226.6350 C   0  0  0  0  0  0  0  0  0  0  0  0
  140.5890   71.3640  225.4010 C   0  0  0  0  0  0  0  0  0  0  0  0
  140.6060   72.2630  224.4000 N   0  0  0  0  0  0  0  0  0  0  0  0
  142.2720   73.1480  221.9640 H   0  0  0  0  0  0  0  0  0  0  0  0
  140.6995   73.9351  219.6408 H   0  0  0  0  0  0  0  0  0  0  0  0
  140.7692   75.3021  220.8364 H   0  0  0  0  0  0  0  0  0  0  0  0
  144.0180   74.1275  217.6806 H   0  0  0  0  0  0  0  0  0  0  0  0
  142.3290   73.9585  217.1871 H   0  0  0  0  0  0  0  0  0  0  0  0
  144.2888   75.5358  215.9363 H   0  0  0  0  0  0  0  0  0  0  0  0
  142.5495   75.6609  215.6482 H   0  0  0  0  0  0  0  0  0  0  0  0
  144.3402   77.3130  217.4401 H   0  0  0  0  0  0  0  0  0  0  0  0
  142.9418   77.8441  216.5063 H   0  0  0  0  0  0  0  0  0  0  0  0
  142.6497   77.4052  219.2790 H   0  0  0  0  0  0  0  0  0  0  0  0
  141.0944   78.0268  217.3141 H   0  0  0  0  0  0  0  0  0  0  0  0
  140.5113   76.3470  217.7485 H   0  0  0  0  0  0  0  0  0  0  0  0
  139.2940   77.6410  219.2080 H   0  0  0  0  0  0  0  0  0  0  0  0
  141.5260   80.1242  219.2571 H   0  0  0  0  0  0  0  0  0  0  0  0
  142.5322   81.2693  221.1708 H   0  0  0  0  0  0  0  0  0  0  0  0
  141.4485   78.0031  223.6901 H   0  0  0  0  0  0  0  0  0  0  0  0
  140.4400   76.8489  221.7773 H   0  0  0  0  0  0  0  0  0  0  0  0
  139.2016   70.4793  221.9258 H   0  0  0  0  0  0  0  0  0  0  0  0
  139.1571   68.8051  223.7413 H   0  0  0  0  0  0  0  0  0  0  0  0
  139.6144   68.1422  225.9962 H   0  0  0  0  0  0  0  0  0  0  0  0
  141.4532   71.0135  228.6207 H   0  0  0  0  0  0  0  0  0  0  0  0
  141.5139   72.7221  226.8193 H   0  0  0  0  0  0  0  0  0  0  0  0
  1  2  2  0
  2  3  1  0
  3  4  1  0
  4  5  1  0
  5  6  2  0
  5  7  1  0
  7  8  1  0
  8  9  1  0
  9 10  1  0
 10 11  1  0
 11 12  1  0
 12 13  1  0
 13 14  1  0
 14 15  2  0
 15 16  1  0
 16 17  2  0
 17 18  1  0
 17 19  1  0
 19 20  2  0
  2 21  1  0
 21 22  2  0
 22 23  1  0
 23 24  2  0
 24 25  1  0
 25 26  2  0
 26 27  1  0
 26 28  1  0
 28 29  2  0
 29 30  1  0
 30 31  2  0
 11  7  1  0
 20 14  1  0
 31 21  1  0
 30 24  1  0
  3 32  1  0
  4 33  1  0
  4 34  1  0
  8 35  1  0
  8 36  1  0
  9 37  1  0
  9 38  1  0
 10 39  1  0
 10 40  1  0
 11 41  1  1
 12 42  1  0
 12 43  1  0
 13 44  1  0
 15 45  1  0
 16 46  1  0
 19 47  1  0
 20 48  1  0
 22 49  1  0
 23 50  1  0
 25 51  1  0
 28 52  1  0
 29 53  1  0
M  END
>  <smiles>  (27) 
O=C(NCC(=O)N1CCC[C@H]1CNc1ccc(Cl)cc1)c1ccc2cc(Cl)ccc2n1

>  <score_type>  (27) 
oracle

>  <origin>  (27) 
autodockgpu

>  <m_score__min__energy>  (27) 
-8.6400000000000006

>  <m_primary>  (27) 
energy

>  <rmsd>  (27) 
2.8009856190229665

>  <m_score__min__rmsd>  (27) 
2.8009856190229665

>  <meeko>  (27) 
{"free_energy": -7.65, "intermolecular_energy": -9.74, "internal_energy": -1.88, "cluster_size": 12, "cluster_id": 2, "rank_in_cluster": 7}

>  <energy>  (27) 
-7.88

>  <cluster_rmsd>  (27) 
0.0

>  <cluster>  (27) 
5

$$$$

     RDKit          3D

 53 56  0  0  0  0  0  0  0  0999 V2000
  137.1640   71.8020  221.5020 O   0  0  0  0  0  0  0  0  0  0  0  0
  137.1220   72.8310  222.2380 C   0  0  0  0  0  0  0  0  0  0  0  0
  138.1280   73.8150  221.9830 N   0  0  0  0  0  0  0  0  0  0  0  0
  139.0750   73.5560  220.9430 C   0  0  0  0  0  0  0  0  0  0  0  0
  140.2930   72.8560  221.4470 C   0  0  0  0  0  0  0  0  0  0  0  0
  141.0390   73.3510  222.3390 O   0  0  0  0  0  0  0  0  0  0  0  0
  140.6250   71.5620  220.8890 N   0  0  0  0  0  0  0  0  0  0  0  0
  141.9560   71.2830  220.4040 C   0  0  0  0  0  0  0  0  0  0  0  0
  141.8510   69.9950  219.6810 C   0  0  0  0  0  0  0  0  0  0  0  0
  140.3740   69.7340  219.5410 C   0  0  0  0  0  0  0  0  0  0  0  0
  139.7340   70.4570  220.7240 C   0  0  1  0  0  0  0  0  0  0  0  0
  139.5500   69.5100  221.8450 C   0  0  0  0  0  0  0  0  0  0  0  0
  138.8740   70.0700  222.9710 N   0  0  0  0  0  0  0  0  0  0  0  0
  139.4210   70.4320  224.2080 C   0  0  0  0  0  0  0  0  0  0  0  0
  139.1190   69.7220  225.3600 C   0  0  0  0  0  0  0  0  0  0  0  0
  139.6100   70.0590  226.6020 C   0  0  0  0  0  0  0  0  0  0  0  0
  140.4440   71.1440  226.7570 C   0  0  0  0  0  0  0  0  0  0  0  0
  141.0330   71.5170  228.3620 Cl  0  0  0  0  0  0  0  0  0  0  0  0
  140.7610   71.8660  225.6410 C   0  0  0  0  0  0  0  0  0  0  0  0
  140.2670   71.5250  224.3970 C   0  0  0  0  0  0  0  0  0  0  0  0
  136.1190   73.0150  223.2780 C   0  0  0  0  0  0  0  0  0  0  0  0
  135.4890   71.8800  223.7570 C   0  0  0  0  0  0  0  0  0  0  0  0
  134.5390   72.0140  224.7370 C   0  0  0  0  0  0  0  0  0  0  0  0
  134.2050   73.2540  225.2480 C   0  0  0  0  0  0  0  0  0  0  0  0
  133.2430   73.3480  226.2350 C   0  0  0  0  0  0  0  0  0  0  0  0
  132.9440   74.6200  226.7150 C   0  0  0  0  0  0  0  0  0  0  0  0
  131.7250   74.7590  227.9680 Cl  0  0  0  0  0  0  0  0  0  0  0  0
  133.6020   75.7190  226.2010 C   0  0  0  0  0  0  0  0  0  0  0  0
  134.5650   75.6280  225.2130 C   0  0  0  0  0  0  0  0  0  0  0  0
  134.8560   74.3620  224.7430 C   0  0  0  0  0  0  0  0  0  0  0  0
  135.7870   74.2180  223.7820 N   0  0  0  0  0  0  0  0  0  0  0  0
  138.1410   74.6980  222.5680 H   0  0  0  0  0  0  0  0  0  0  0  0
  138.5967   72.9269  220.1778 H   0  0  0  0  0  0  0  0  0  0  0  0
  139.3912   74.5241  220.5273 H   0  0  0  0  0  0  0  0  0  0  0  0
  142.2923   72.0795  219.7239 H   0  0  0  0  0  0  0  0  0  0  0  0
  142.6872   71.2325  221.2242 H   0  0  0  0  0  0  0  0  0  0  0  0
  142.3241   70.0698  218.6908 H   0  0  0  0  0  0  0  0  0  0  0  0
  142.3610   69.1817  220.2180 H   0  0  0  0  0  0  0  0  0  0  0  0
  139.9977   70.1392  218.5901 H   0  0  0  0  0  0  0  0  0  0  0  0
  140.1417   68.6588  219.5376 H   0  0  0  0  0  0  0  0  0  0  0  0
  138.7078   70.8376  220.6137 H   0  0  0  0  0  0  0  0  0  0  0  0
  138.9650   68.6524  221.4813 H   0  0  0  0  0  0  0  0  0  0  0  0
  140.5548   69.2215  222.1872 H   0  0  0  0  0  0  0  0  0  0  0  0
  137.8230   70.2340  222.8610 H   0  0  0  0  0  0  0  0  0  0  0  0
  138.4559   68.8482  225.2782 H   0  0  0  0  0  0  0  0  0  0  0  0
  139.3332   69.4554  227.4790 H   0  0  0  0  0  0  0  0  0  0  0  0
  141.4245   72.7383  225.7354 H   0  0  0  0  0  0  0  0  0  0  0  0
  140.5500   72.1354  223.5267 H   0  0  0  0  0  0  0  0  0  0  0  0
  135.7457   70.8873  223.3586 H   0  0  0  0  0  0  0  0  0  0  0  0
  134.0330   71.1172  225.1239 H   0  0  0  0  0  0  0  0  0  0  0  0
  132.7342   72.4544  226.6256 H   0  0  0  0  0  0  0  0  0  0  0  0
  133.3484   76.7139  226.5959 H   0  0  0  0  0  0  0  0  0  0  0  0
  135.0746   76.5203  224.8203 H   0  0  0  0  0  0  0  0  0  0  0  0
  1  2  2  0
  2  3  1  0
  3  4  1  0
  4  5  1  0
  5  6  2  0
  5  7  1  0
  7  8  1  0
  8  9  1  0
  9 10  1  0
 10 11  1  0
 11 12  1  0
 12 13  1  0
 13 14  1  0
 14 15  2  0
 15 16  1  0
 16 17  2  0
 17 18  1  0
 17 19  1  0
 19 20  2  0
  2 21  1  0
 21 22  2  0
 22 23  1  0
 23 24  2  0
 24 25  1  0
 25 26  2  0
 26 27  1  0
 26 28  1  0
 28 29  2  0
 29 30  1  0
 30 31  2  0
 11  7  1  0
 20 14  1  0
 31 21  1  0
 30 24  1  0
  3 32  1  0
  4 33  1  0
  4 34  1  0
  8 35  1  0
  8 36  1  0
  9 37  1  0
  9 38  1  0
 10 39  1  0
 10 40  1  0
 11 41  1  6
 12 42  1  0
 12 43  1  0
 13 44  1  0
 15 45  1  0
 16 46  1  0
 19 47  1  0
 20 48  1  0
 22 49  1  0
 23 50  1  0
 25 51  1  0
 28 52  1  0
 29 53  1  0
M  END
>  <smiles>  (28) 
O=C(NCC(=O)N1CCC[C@H]1CNc1ccc(Cl)cc1)c1ccc2cc(Cl)ccc2n1

>  <score_type>  (28) 
oracle

>  <origin>  (28) 
autodockgpu

>  <m_score__min__energy>  (28) 
-8.6400000000000006

>  <m_primary>  (28) 
energy

>  <rmsd>  (28) 
7.402381592884543

>  <m_score__min__rmsd>  (28) 
7.402381592884543

>  <meeko>  (28) 
{"free_energy": -6.43, "intermolecular_energy": -8.52, "internal_energy": -3.02, "cluster_size": 1, "cluster_id": 17, "rank_in_cluster": 1}

>  <energy>  (28) 
-7.73

>  <cluster_rmsd>  (28) 
0.0

>  <cluster>  (28) 
6

$$$$

     RDKit          3D

 53 56  0  0  0  0  0  0  0  0999 V2000
  140.3110   73.3940  222.3480 O   0  0  0  0  0  0  0  0  0  0  0  0
  140.7600   74.0050  221.3340 C   0  0  0  0  0  0  0  0  0  0  0  0
  141.0150   73.1910  220.1850 N   0  0  0  0  0  0  0  0  0  0  0  0
  140.7480   71.7900  220.2790 C   0  0  0  0  0  0  0  0  0  0  0  0
  139.2890   71.4990  220.4000 C   0  0  0  0  0  0  0  0  0  0  0  0
  138.4180   72.1030  219.7120 O   0  0  0  0  0  0  0  0  0  0  0  0
  138.8640   70.4860  221.3420 N   0  0  0  0  0  0  0  0  0  0  0  0
  139.7410   69.3990  221.7090 C   0  0  0  0  0  0  0  0  0  0  0  0
  138.8950   68.4450  222.4600 C   0  0  0  0  0  0  0  0  0  0  0  0
  137.4780   68.9050  222.2380 C   0  0  0  0  0  0  0  0  0  0  0  0
  137.5890   70.4060  221.9830 C   0  0  1  0  0  0  0  0  0  0  0  0
  137.3740   71.1420  223.2480 C   0  0  0  0  0  0  0  0  0  0  0  0
  138.5810   71.5010  223.9220 N   0  0  0  0  0  0  0  0  0  0  0  0
  139.2220   70.8140  224.9590 C   0  0  0  0  0  0  0  0  0  0  0  0
  138.7140   69.6200  225.4470 C   0  0  0  0  0  0  0  0  0  0  0  0
  139.2940   68.9230  226.4850 C   0  0  0  0  0  0  0  0  0  0  0  0
  140.4330   69.3960  227.0970 C   0  0  0  0  0  0  0  0  0  0  0  0
  141.1200   68.4630  228.4080 Cl  0  0  0  0  0  0  0  0  0  0  0  0
  140.9600   70.5710  226.6400 C   0  0  0  0  0  0  0  0  0  0  0  0
  140.3750   71.2660  225.5990 C   0  0  0  0  0  0  0  0  0  0  0  0
  141.0050   75.4400  221.3240 C   0  0  0  0  0  0  0  0  0  0  0  0
  141.5700   75.9770  220.1800 C   0  0  0  0  0  0  0  0  0  0  0  0
  141.8160   77.3250  220.1330 C   0  0  0  0  0  0  0  0  0  0  0  0
  141.5100   78.1480  221.2010 C   0  0  0  0  0  0  0  0  0  0  0  0
  141.7720   79.5020  221.1150 C   0  0  0  0  0  0  0  0  0  0  0  0
  141.4460   80.2850  222.2180 C   0  0  0  0  0  0  0  0  0  0  0  0
  141.7720   82.0060  222.1280 Cl  0  0  0  0  0  0  0  0  0  0  0  0
  140.8850   79.6990  223.3340 C   0  0  0  0  0  0  0  0  0  0  0  0
  140.6210   78.3440  223.4230 C   0  0  0  0  0  0  0  0  0  0  0  0
  140.9480   77.5730  222.3240 C   0  0  0  0  0  0  0  0  0  0  0  0
  140.7110   76.2490  222.3580 N   0  0  0  0  0  0  0  0  0  0  0  0
  141.3920   73.6500  219.3070 H   0  0  0  0  0  0  0  0  0  0  0  0
  141.1339   71.2948  219.3758 H   0  0  0  0  0  0  0  0  0  0  0  0
  141.2430   71.4129  221.1860 H   0  0  0  0  0  0  0  0  0  0  0  0
  140.1561   68.9197  220.8102 H   0  0  0  0  0  0  0  0  0  0  0  0
  140.5943   69.7478  222.3091 H   0  0  0  0  0  0  0  0  0  0  0  0
  139.0326   67.4236  222.0755 H   0  0  0  0  0  0  0  0  0  0  0  0
  139.1546   68.4221  223.5287 H   0  0  0  0  0  0  0  0  0  0  0  0
  137.0374   68.3960  221.3681 H   0  0  0  0  0  0  0  0  0  0  0  0
  136.8289   68.6772  223.0963 H   0  0  0  0  0  0  0  0  0  0  0  0
  136.8355   70.8864  221.3416 H   0  0  0  0  0  0  0  0  0  0  0  0
  136.8165   72.0630  223.0222 H   0  0  0  0  0  0  0  0  0  0  0  0
  136.8222   70.4677  223.9195 H   0  0  0  0  0  0  0  0  0  0  0  0
  139.0550   72.4030  223.5980 H   0  0  0  0  0  0  0  0  0  0  0  0
  137.8047   69.2093  224.9838 H   0  0  0  0  0  0  0  0  0  0  0  0
  138.8428   67.9801  226.8276 H   0  0  0  0  0  0  0  0  0  0  0  0
  141.8695   70.9722  227.1110 H   0  0  0  0  0  0  0  0  0  0  0  0
  140.8345   72.2076  225.2640 H   0  0  0  0  0  0  0  0  0  0  0  0
  141.8174   75.3331  219.3231 H   0  0  0  0  0  0  0  0  0  0  0  0
  142.2654   77.7601  219.2282 H   0  0  0  0  0  0  0  0  0  0  0  0
  142.2197   79.9426  220.2120 H   0  0  0  0  0  0  0  0  0  0  0  0
  140.6360   80.3392  224.1932 H   0  0  0  0  0  0  0  0  0  0  0  0
  140.1725   77.9018  224.3249 H   0  0  0  0  0  0  0  0  0  0  0  0
  1  2  2  0
  2  3  1  0
  3  4  1  0
  4  5  1  0
  5  6  2  0
  5  7  1  0
  7  8  1  0
  8  9  1  0
  9 10  1  0
 10 11  1  0
 11 12  1  0
 12 13  1  0
 13 14  1  0
 14 15  2  0
 15 16  1  0
 16 17  2  0
 17 18  1  0
 17 19  1  0
 19 20  2  0
  2 21  1  0
 21 22  2  0
 22 23  1  0
 23 24  2  0
 24 25  1  0
 25 26  2  0
 26 27  1  0
 26 28  1  0
 28 29  2  0
 29 30  1  0
 30 31  2  0
 11  7  1  0
 20 14  1  0
 31 21  1  0
 30 24  1  0
  3 32  1  0
  4 33  1  0
  4 34  1  0
  8 35  1  0
  8 36  1  0
  9 37  1  0
  9 38  1  0
 10 39  1  0
 10 40  1  0
 11 41  1  6
 12 42  1  0
 12 43  1  0
 13 44  1  0
 15 45  1  0
 16 46  1  0
 19 47  1  0
 20 48  1  0
 22 49  1  0
 23 50  1  0
 25 51  1  0
 28 52  1  0
 29 53  1  0
M  END
>  <smiles>  (29) 
O=C(NCC(=O)N1CCC[C@H]1CNc1ccc(Cl)cc1)c1ccc2cc(Cl)ccc2n1

>  <score_type>  (29) 
oracle

>  <origin>  (29) 
autodockgpu

>  <m_score__min__energy>  (29) 
-8.6400000000000006

>  <m_primary>  (29) 
energy

>  <rmsd>  (29) 
8.94257758612025

>  <m_score__min__rmsd>  (29) 
8.94257758612025

>  <meeko>  (29) 
{"free_energy": -7.48, "intermolecular_energy": -9.57, "internal_energy": -2.47, "cluster_size": 2, "cluster_id": 6, "rank_in_cluster": 2}

>  <energy>  (29) 
-7.48

>  <cluster_rmsd>  (29) 
1.6

>  <cluster>  (29) 
6

$$$$

     RDKit          3D

 53 56  0  0  0  0  0  0  0  0999 V2000
  137.4740   73.7130  222.3500 O   0  0  0  0  0  0  0  0  0  0  0  0
  138.0340   74.4550  221.4910 C   0  0  0  0  0  0  0  0  0  0  0  0
  137.7740   74.1230  220.1240 N   0  0  0  0  0  0  0  0  0  0  0  0
  136.9250   73.0060  219.8520 C   0  0  0  0  0  0  0  0  0  0  0  0
  137.5790   71.7040  220.1770 C   0  0  0  0  0  0  0  0  0  0  0  0
  136.9180   70.6690  220.4740 O   0  0  0  0  0  0  0  0  0  0  0  0
  139.0240   71.6330  220.1500 N   0  0  0  0  0  0  0  0  0  0  0  0
  139.7680   72.0920  219.0010 C   0  0  0  0  0  0  0  0  0  0  0  0
  141.1570   71.6280  219.2170 C   0  0  0  0  0  0  0  0  0  0  0  0
  141.0810   70.6600  220.3680 C   0  0  0  0  0  0  0  0  0  0  0  0
  139.8670   71.1090  221.1780 C   0  0  1  0  0  0  0  0  0  0  0  0
  140.3030   72.0020  222.2740 C   0  0  0  0  0  0  0  0  0  0  0  0
  139.5460   71.8580  223.4750 N   0  0  0  0  0  0  0  0  0  0  0  0
  139.8630   71.0930  224.6040 C   0  0  0  0  0  0  0  0  0  0  0  0
  139.3040   69.8400  224.7990 C   0  0  0  0  0  0  0  0  0  0  0  0
  139.5640   69.0640  225.9080 C   0  0  0  0  0  0  0  0  0  0  0  0
  140.4130   69.5130  226.8950 C   0  0  0  0  0  0  0  0  0  0  0  0
  140.7020   68.4780  228.2770 Cl  0  0  0  0  0  0  0  0  0  0  0  0
  140.9820   70.7450  226.7330 C   0  0  0  0  0  0  0  0  0  0  0  0
  140.7180   71.5190  225.6190 C   0  0  0  0  0  0  0  0  0  0  0  0
  138.8880   75.5770  221.8560 C   0  0  0  0  0  0  0  0  0  0  0  0
  140.2510   75.4170  221.6800 C   0  0  0  0  0  0  0  0  0  0  0  0
  141.0870   76.4520  222.0130 C   0  0  0  0  0  0  0  0  0  0  0  0
  140.5930   77.6410  222.5160 C   0  0  0  0  0  0  0  0  0  0  0  0
  141.4670   78.6610  222.8390 C   0  0  0  0  0  0  0  0  0  0  0  0
  140.9170   79.8360  223.3420 C   0  0  0  0  0  0  0  0  0  0  0  0
  142.0120   81.1420  223.7580 Cl  0  0  0  0  0  0  0  0  0  0  0  0
  139.5510   79.9430  223.4980 C   0  0  0  0  0  0  0  0  0  0  0  0
  138.6730   78.9240  223.1750 C   0  0  0  0  0  0  0  0  0  0  0  0
  139.2260   77.7600  222.6770 C   0  0  0  0  0  0  0  0  0  0  0  0
  138.4160   76.7380  222.3460 N   0  0  0  0  0  0  0  0  0  0  0  0
  138.2160   74.7110  219.3610 H   0  0  0  0  0  0  0  0  0  0  0  0
  136.0100   73.1023  220.4549 H   0  0  0  0  0  0  0  0  0  0  0  0
  136.6995   73.0094  218.7754 H   0  0  0  0  0  0  0  0  0  0  0  0
  139.3567   71.6571  218.0781 H   0  0  0  0  0  0  0  0  0  0  0  0
  139.7157   73.1853  218.8916 H   0  0  0  0  0  0  0  0  0  0  0  0
  141.5393   71.1256  218.3162 H   0  0  0  0  0  0  0  0  0  0  0  0
  141.8391   72.4642  219.4302 H   0  0  0  0  0  0  0  0  0  0  0  0
  140.9431   69.6322  220.0011 H   0  0  0  0  0  0  0  0  0  0  0  0
  142.0023   70.6573  220.9689 H   0  0  0  0  0  0  0  0  0  0  0  0
  139.3077   70.3523  221.7476 H   0  0  0  0  0  0  0  0  0  0  0  0
  141.3568   71.7825  222.5007 H   0  0  0  0  0  0  0  0  0  0  0  0
  140.1515   73.0337  221.9237 H   0  0  0  0  0  0  0  0  0  0  0  0
  138.6240   72.3980  223.5230 H   0  0  0  0  0  0  0  0  0  0  0  0
  138.6205   69.4461  224.0324 H   0  0  0  0  0  0  0  0  0  0  0  0
  139.0889   68.0767  226.0057 H   0  0  0  0  0  0  0  0  0  0  0  0
  141.6645   71.1286  227.5057 H   0  0  0  0  0  0  0  0  0  0  0  0
  141.1988   72.5044  225.5303 H   0  0  0  0  0  0  0  0  0  0  0  0
  140.6570   74.4762  221.2800 H   0  0  0  0  0  0  0  0  0  0  0  0
  142.1721   76.3336  221.8771 H   0  0  0  0  0  0  0  0  0  0  0  0
  142.5529   78.5489  222.7041 H   0  0  0  0  0  0  0  0  0  0  0  0
  139.1406   80.8820  223.8978 H   0  0  0  0  0  0  0  0  0  0  0  0
  137.5868   79.0351  223.3083 H   0  0  0  0  0  0  0  0  0  0  0  0
  1  2  2  0
  2  3  1  0
  3  4  1  0
  4  5  1  0
  5  6  2  0
  5  7  1  0
  7  8  1  0
  8  9  1  0
  9 10  1  0
 10 11  1  0
 11 12  1  0
 12 13  1  0
 13 14  1  0
 14 15  2  0
 15 16  1  0
 16 17  2  0
 17 18  1  0
 17 19  1  0
 19 20  2  0
  2 21  1  0
 21 22  2  0
 22 23  1  0
 23 24  2  0
 24 25  1  0
 25 26  2  0
 26 27  1  0
 26 28  1  0
 28 29  2  0
 29 30  1  0
 30 31  2  0
 11  7  1  0
 20 14  1  0
 31 21  1  0
 30 24  1  0
  3 32  1  0
  4 33  1  0
  4 34  1  0
  8 35  1  0
  8 36  1  0
  9 37  1  0
  9 38  1  0
 10 39  1  0
 10 40  1  0
 11 41  1  1
 12 42  1  0
 12 43  1  0
 13 44  1  0
 15 45  1  0
 16 46  1  0
 19 47  1  0
 20 48  1  0
 22 49  1  0
 23 50  1  0
 25 51  1  0
 28 52  1  0
 29 53  1  0
M  END
>  <smiles>  (30) 
O=C(NCC(=O)N1CCC[C@H]1CNc1ccc(Cl)cc1)c1ccc2cc(Cl)ccc2n1

>  <score_type>  (30) 
oracle

>  <origin>  (30) 
autodockgpu

>  <m_score__min__energy>  (30) 
-8.6400000000000006

>  <m_primary>  (30) 
energy

>  <rmsd>  (30) 
8.004217986649326

>  <m_score__min__rmsd>  (30) 
8.004217986649326

>  <meeko>  (30) 
{"free_energy": -7.25, "intermolecular_energy": -9.34, "internal_energy": -2.57, "cluster_size": 2, "cluster_id": 9, "rank_in_cluster": 1}

>  <energy>  (30) 
-7.53

>  <cluster_rmsd>  (30) 
0.0

>  <cluster>  (30) 
7

$$$$

     RDKit          3D

 53 56  0  0  0  0  0  0  0  0999 V2000
  141.0440   72.7950  222.4440 O   0  0  0  0  0  0  0  0  0  0  0  0
  140.7570   73.6260  221.5330 C   0  0  0  0  0  0  0  0  0  0  0  0
  140.9710   73.1730  220.1930 N   0  0  0  0  0  0  0  0  0  0  0  0
  141.4800   71.8510  220.0020 C   0  0  0  0  0  0  0  0  0  0  0  0
  142.6910   71.8310  219.1300 C   0  0  0  0  0  0  0  0  0  0  0  0
  142.7540   71.1400  218.0730 O   0  0  0  0  0  0  0  0  0  0  0  0
  143.8320   72.6340  219.5160 N   0  0  0  0  0  0  0  0  0  0  0  0
  145.1790   72.1680  219.2860 C   0  0  0  0  0  0  0  0  0  0  0  0
  146.0520   73.1020  220.0320 C   0  0  0  0  0  0  0  0  0  0  0  0
  145.1260   73.9070  220.9040 C   0  0  0  0  0  0  0  0  0  0  0  0
  143.7910   73.9070  220.1620 C   0  0  1  0  0  0  0  0  0  0  0  0
  143.6820   75.1290  219.3350 C   0  0  0  0  0  0  0  0  0  0  0  0
  142.9290   76.1770  219.9450 N   0  0  0  0  0  0  0  0  0  0  0  0
  142.5760   77.4140  219.3940 C   0  0  0  0  0  0  0  0  0  0  0  0
  142.8940   77.7290  218.0820 C   0  0  0  0  0  0  0  0  0  0  0  0
  142.5940   78.9440  217.5060 C   0  0  0  0  0  0  0  0  0  0  0  0
  141.9470   79.9220  218.2270 C   0  0  0  0  0  0  0  0  0  0  0  0
  141.5940   81.4430  217.4360 Cl  0  0  0  0  0  0  0  0  0  0  0  0
  141.6200   79.6440  219.5240 C   0  0  0  0  0  0  0  0  0  0  0  0
  141.9230   78.4240  220.0980 C   0  0  0  0  0  0  0  0  0  0  0  0
  140.2410   74.9580  221.8160 C   0  0  0  0  0  0  0  0  0  0  0  0
  138.9170   75.2040  221.4970 C   0  0  0  0  0  0  0  0  0  0  0  0
  138.3950   76.4470  221.7480 C   0  0  0  0  0  0  0  0  0  0  0  0
  139.1650   77.4480  222.3110 C   0  0  0  0  0  0  0  0  0  0  0  0
  138.6040   78.6880  222.5500 C   0  0  0  0  0  0  0  0  0  0  0  0
  139.4220   79.6600  223.1170 C   0  0  0  0  0  0  0  0  0  0  0  0
  138.7270   81.2390  223.4270 Cl  0  0  0  0  0  0  0  0  0  0  0  0
  140.7360   79.3610  223.4150 C   0  0  0  0  0  0  0  0  0  0  0  0
  141.3010   78.1210  223.1780 C   0  0  0  0  0  0  0  0  0  0  0  0
  140.4820   77.1620  222.6140 C   0  0  0  0  0  0  0  0  0  0  0  0
  140.9820   75.9380  222.3630 N   0  0  0  0  0  0  0  0  0  0  0  0
  140.7460   73.8270  219.3890 H   0  0  0  0  0  0  0  0  0  0  0  0
  141.7432   71.4281  220.9828 H   0  0  0  0  0  0  0  0  0  0  0  0
  140.6980   71.2577  219.5056 H   0  0  0  0  0  0  0  0  0  0  0  0
  145.3010   71.1423  219.6642 H   0  0  0  0  0  0  0  0  0  0  0  0
  145.4261   72.1453  218.2144 H   0  0  0  0  0  0  0  0  0  0  0  0
  146.7733   72.5452  220.6481 H   0  0  0  0  0  0  0  0  0  0  0  0
  146.6365   73.7431  219.3557 H   0  0  0  0  0  0  0  0  0  0  0  0
  145.0194   73.4373  221.8930 H   0  0  0  0  0  0  0  0  0  0  0  0
  145.5028   74.9254  221.0798 H   0  0  0  0  0  0  0  0  0  0  0  0
  142.8640   73.9802  220.7496 H   0  0  0  0  0  0  0  0  0  0  0  0
  144.6969   75.5032  219.1352 H   0  0  0  0  0  0  0  0  0  0  0  0
  143.1470   74.8454  218.4167 H   0  0  0  0  0  0  0  0  0  0  0  0
  142.5900   75.9980  220.9440 H   0  0  0  0  0  0  0  0  0  0  0  0
  143.4103   76.9731  217.4720 H   0  0  0  0  0  0  0  0  0  0  0  0
  142.8743   79.1345  216.4595 H   0  0  0  0  0  0  0  0  0  0  0  0
  141.1043   80.4079  220.1244 H   0  0  0  0  0  0  0  0  0  0  0  0
  141.6393   78.2441  221.1455 H   0  0  0  0  0  0  0  0  0  0  0  0
  138.2938   74.4157  221.0496 H   0  0  0  0  0  0  0  0  0  0  0  0
  137.3438   76.6516  221.4967 H   0  0  0  0  0  0  0  0  0  0  0  0
  137.5531   78.8981  222.3020 H   0  0  0  0  0  0  0  0  0  0  0  0
  141.3636   80.1460  223.8621 H   0  0  0  0  0  0  0  0  0  0  0  0
  142.3513   77.9087  223.4265 H   0  0  0  0  0  0  0  0  0  0  0  0
  1  2  2  0
  2  3  1  0
  3  4  1  0
  4  5  1  0
  5  6  2  0
  5  7  1  0
  7  8  1  0
  8  9  1  0
  9 10  1  0
 10 11  1  0
 11 12  1  0
 12 13  1  0
 13 14  1  0
 14 15  2  0
 15 16  1  0
 16 17  2  0
 17 18  1  0
 17 19  1  0
 19 20  2  0
  2 21  1  0
 21 22  2  0
 22 23  1  0
 23 24  2  0
 24 25  1  0
 25 26  2  0
 26 27  1  0
 26 28  1  0
 28 29  2  0
 29 30  1  0
 30 31  2  0
 11  7  1  0
 20 14  1  0
 31 21  1  0
 30 24  1  0
  3 32  1  0
  4 33  1  0
  4 34  1  0
  8 35  1  0
  8 36  1  0
  9 37  1  0
  9 38  1  0
 10 39  1  0
 10 40  1  0
 11 41  1  1
 12 42  1  0
 12 43  1  0
 13 44  1  0
 15 45  1  0
 16 46  1  0
 19 47  1  0
 20 48  1  0
 22 49  1  0
 23 50  1  0
 25 51  1  0
 28 52  1  0
 29 53  1  0
M  END
>  <smiles>  (31) 
O=C(NCC(=O)N1CCC[C@H]1CNc1ccc(Cl)cc1)c1ccc2cc(Cl)ccc2n1

>  <score_type>  (31) 
oracle

>  <origin>  (31) 
autodockgpu

>  <m_score__min__energy>  (31) 
-8.6400000000000006

>  <m_primary>  (31) 
energy

>  <rmsd>  (31) 
6.4092690564793875

>  <m_score__min__rmsd>  (31) 
6.4092690564793875

>  <meeko>  (31) 
{"free_energy": -6.73, "intermolecular_energy": -8.82, "internal_energy": -3.03, "cluster_size": 3, "cluster_id": 12, "rank_in_cluster": 1}

>  <energy>  (31) 
-7.32

>  <cluster_rmsd>  (31) 
0.0

>  <cluster>  (31) 
8

$$$$

     RDKit          3D

 53 56  0  0  0  0  0  0  0  0999 V2000
  139.8360   72.1450  220.6560 O   0  0  0  0  0  0  0  0  0  0  0  0
  139.6380   72.5430  221.8410 C   0  0  0  0  0  0  0  0  0  0  0  0
  139.2470   73.9130  221.9760 N   0  0  0  0  0  0  0  0  0  0  0  0
  139.1170   74.6960  220.7870 C   0  0  0  0  0  0  0  0  0  0  0  0
  138.7960   76.1240  221.0820 C   0  0  0  0  0  0  0  0  0  0  0  0
  137.6170   76.5770  221.0380 O   0  0  0  0  0  0  0  0  0  0  0  0
  139.8810   77.0170  221.4290 N   0  0  0  0  0  0  0  0  0  0  0  0
  140.5810   76.8810  222.6850 C   0  0  0  0  0  0  0  0  0  0  0  0
  141.4170   78.0960  222.8060 C   0  0  0  0  0  0  0  0  0  0  0  0
  140.9320   79.0250  221.7240 C   0  0  0  0  0  0  0  0  0  0  0  0
  140.3670   78.1070  220.6430 C   0  0  1  0  0  0  0  0  0  0  0  0
  141.4030   77.8480  219.6200 C   0  0  0  0  0  0  0  0  0  0  0  0
  142.5520   77.1630  220.1190 N   0  0  0  0  0  0  0  0  0  0  0  0
  142.8460   75.7970  220.0260 C   0  0  0  0  0  0  0  0  0  0  0  0
  143.6860   75.3120  219.0370 C   0  0  0  0  0  0  0  0  0  0  0  0
  143.9800   73.9740  218.8890 C   0  0  0  0  0  0  0  0  0  0  0  0
  143.4390   73.0380  219.7410 C   0  0  0  0  0  0  0  0  0  0  0  0
  143.8540   71.3550  219.5000 Cl  0  0  0  0  0  0  0  0  0  0  0  0
  142.6060   73.4840  220.7290 C   0  0  0  0  0  0  0  0  0  0  0  0
  142.3130   74.8260  220.8730 C   0  0  0  0  0  0  0  0  0  0  0  0
  139.7940   71.6750  223.0000 C   0  0  0  0  0  0  0  0  0  0  0  0
  139.3930   70.3580  222.8610 C   0  0  0  0  0  0  0  0  0  0  0  0
  139.5240   69.5110  223.9320 C   0  0  0  0  0  0  0  0  0  0  0  0
  140.0460   69.9480  225.1350 C   0  0  0  0  0  0  0  0  0  0  0  0
  140.1620   69.0640  226.1900 C   0  0  0  0  0  0  0  0  0  0  0  0
  140.6930   69.5570  227.3780 C   0  0  0  0  0  0  0  0  0  0  0  0
  140.8490   68.4490  228.7290 Cl  0  0  0  0  0  0  0  0  0  0  0  0
  141.0770   70.8790  227.4620 C   0  0  0  0  0  0  0  0  0  0  0  0
  140.9620   71.7670  226.4080 C   0  0  0  0  0  0  0  0  0  0  0  0
  140.4330   71.2700  225.2320 C   0  0  0  0  0  0  0  0  0  0  0  0
  140.3010   72.0920  224.1750 N   0  0  0  0  0  0  0  0  0  0  0  0
  139.0680   74.3010  222.9460 H   0  0  0  0  0  0  0  0  0  0  0  0
  140.0648   74.6541  220.2303 H   0  0  0  0  0  0  0  0  0  0  0  0
  138.2868   74.2789  220.1981 H   0  0  0  0  0  0  0  0  0  0  0  0
  139.8661   76.8218  223.5189 H   0  0  0  0  0  0  0  0  0  0  0  0
  141.1875   75.9638  222.7166 H   0  0  0  0  0  0  0  0  0  0  0  0
  141.2854   78.5566  223.7962 H   0  0  0  0  0  0  0  0  0  0  0  0
  142.4878   77.8679  222.6995 H   0  0  0  0  0  0  0  0  0  0  0  0
  140.1498   79.6948  222.1108 H   0  0  0  0  0  0  0  0  0  0  0  0
  141.7362   79.6703  221.3408 H   0  0  0  0  0  0  0  0  0  0  0  0
  139.5501   78.4833  220.0097 H   0  0  0  0  0  0  0  0  0  0  0  0
  140.9559   77.2377  218.8214 H   0  0  0  0  0  0  0  0  0  0  0  0
  141.7478   78.8286  219.2602 H   0  0  0  0  0  0  0  0  0  0  0  0
  143.2790   77.7630  220.6250 H   0  0  0  0  0  0  0  0  0  0  0  0
  144.1397   76.0288  218.3368 H   0  0  0  0  0  0  0  0  0  0  0  0
  144.6538   73.6506  218.0819 H   0  0  0  0  0  0  0  0  0  0  0  0
  142.1594   72.7582  221.4245 H   0  0  0  0  0  0  0  0  0  0  0  0
  141.6371   75.1391  221.6824 H   0  0  0  0  0  0  0  0  0  0  0  0
  138.9768   69.9968  221.9090 H   0  0  0  0  0  0  0  0  0  0  0  0
  139.2071   68.4624  223.8315 H   0  0  0  0  0  0  0  0  0  0  0  0
  139.8477   68.0141  226.0950 H   0  0  0  0  0  0  0  0  0  0  0  0
  141.4943   71.2442  228.4120 H   0  0  0  0  0  0  0  0  0  0  0  0
  141.2761   72.8171  226.5011 H   0  0  0  0  0  0  0  0  0  0  0  0
  1  2  2  0
  2  3  1  0
  3  4  1  0
  4  5  1  0
  5  6  2  0
  5  7  1  0
  7  8  1  0
  8  9  1  0
  9 10  1  0
 10 11  1  0
 11 12  1  0
 12 13  1  0
 13 14  1  0
 14 15  2  0
 15 16  1  0
 16 17  2  0
 17 18  1  0
 17 19  1  0
 19 20  2  0
  2 21  1  0
 21 22  2  0
 22 23  1  0
 23 24  2  0
 24 25  1  0
 25 26  2  0
 26 27  1  0
 26 28  1  0
 28 29  2  0
 29 30  1  0
 30 31  2  0
 11  7  1  0
 20 14  1  0
 31 21  1  0
 30 24  1  0
  3 32  1  0
  4 33  1  0
  4 34  1  0
  8 35  1  0
  8 36  1  0
  9 37  1  0
  9 38  1  0
 10 39  1  0
 10 40  1  0
 11 41  1  6
 12 42  1  0
 12 43  1  0
 13 44  1  0
 15 45  1  0
 16 46  1  0
 19 47  1  0
 20 48  1  0
 22 49  1  0
 23 50  1  0
 25 51  1  0
 28 52  1  0
 29 53  1  0
M  END
>  <smiles>  (32) 
O=C(NCC(=O)N1CCC[C@H]1CNc1ccc(Cl)cc1)c1ccc2cc(Cl)ccc2n1

>  <score_type>  (32) 
oracle

>  <origin>  (32) 
autodockgpu

>  <m_score__min__energy>  (32) 
-8.6400000000000006

>  <m_primary>  (32) 
energy

>  <rmsd>  (32) 
4.049392207229637

>  <m_score__min__rmsd>  (32) 
4.049392207229637

>  <meeko>  (32) 
{"free_energy": -8.16, "intermolecular_energy": -10.25, "internal_energy": -2.16, "cluster_size": 8, "cluster_id": 1, "rank_in_cluster": 2}

>  <energy>  (32) 
-7.25

>  <cluster_rmsd>  (32) 
0.0

>  <cluster>  (32) 
9

$$$$

     RDKit          3D

 53 56  0  0  0  0  0  0  0  0999 V2000
  138.3150   76.6260  220.2030 O   0  0  0  0  0  0  0  0  0  0  0  0
  138.1840   76.5260  221.4580 C   0  0  0  0  0  0  0  0  0  0  0  0
  138.6200   75.2890  222.0290 N   0  0  0  0  0  0  0  0  0  0  0  0
  139.1550   74.2940  221.1530 C   0  0  0  0  0  0  0  0  0  0  0  0
  140.5080   73.8300  221.5800 C   0  0  0  0  0  0  0  0  0  0  0  0
  140.7020   73.2250  222.6720 O   0  0  0  0  0  0  0  0  0  0  0  0
  141.6320   74.0870  220.7060 N   0  0  0  0  0  0  0  0  0  0  0  0
  142.2540   73.0170  219.9630 C   0  0  0  0  0  0  0  0  0  0  0  0
  143.5000   73.5920  219.4080 C   0  0  0  0  0  0  0  0  0  0  0  0
  143.6780   74.9120  220.1100 C   0  0  0  0  0  0  0  0  0  0  0  0
  142.2650   75.3490  220.4890 C   0  0  1  0  0  0  0  0  0  0  0  0
  141.7280   76.2510  219.4470 C   0  0  0  0  0  0  0  0  0  0  0  0
  140.9610   77.3400  219.9610 N   0  0  0  0  0  0  0  0  0  0  0  0
  141.3070   78.2240  220.9900 C   0  0  0  0  0  0  0  0  0  0  0  0
  141.7210   79.5170  220.7120 C   0  0  0  0  0  0  0  0  0  0  0  0
  142.1000   80.4130  221.6880 C   0  0  0  0  0  0  0  0  0  0  0  0
  142.0820   80.0520  223.0160 C   0  0  0  0  0  0  0  0  0  0  0  0
  142.5740   81.2360  224.2070 Cl  0  0  0  0  0  0  0  0  0  0  0  0
  141.6790   78.7830  223.3250 C   0  0  0  0  0  0  0  0  0  0  0  0
  141.3000   77.8880  222.3430 C   0  0  0  0  0  0  0  0  0  0  0  0
  137.6270   77.5920  222.2790 C   0  0  0  0  0  0  0  0  0  0  0  0
  136.2610   77.5740  222.4990 C   0  0  0  0  0  0  0  0  0  0  0  0
  135.7000   78.5620  223.2660 C   0  0  0  0  0  0  0  0  0  0  0  0
  136.4720   79.5660  223.8200 C   0  0  0  0  0  0  0  0  0  0  0  0
  135.8710   80.5440  224.5890 C   0  0  0  0  0  0  0  0  0  0  0  0
  136.6940   81.5320  225.1210 C   0  0  0  0  0  0  0  0  0  0  0  0
  135.9480   82.7820  226.1000 Cl  0  0  0  0  0  0  0  0  0  0  0  0
  138.0500   81.5030  224.8710 C   0  0  0  0  0  0  0  0  0  0  0  0
  138.6550   80.5260  224.1020 C   0  0  0  0  0  0  0  0  0  0  0  0
  137.8320   79.5490  223.5770 C   0  0  0  0  0  0  0  0  0  0  0  0
  138.3700   78.5740  222.8220 N   0  0  0  0  0  0  0  0  0  0  0  0
  138.5340   75.1500  223.0770 H   0  0  0  0  0  0  0  0  0  0  0  0
  138.4731   73.4309  221.1399 H   0  0  0  0  0  0  0  0  0  0  0  0
  139.2538   74.7438  220.1541 H   0  0  0  0  0  0  0  0  0  0  0  0
  142.4838   72.1709  220.6273 H   0  0  0  0  0  0  0  0  0  0  0  0
  141.5940   72.6331  219.1711 H   0  0  0  0  0  0  0  0  0  0  0  0
  144.3540   72.9293  219.6120 H   0  0  0  0  0  0  0  0  0  0  0  0
  143.4438   73.7134  218.3162 H   0  0  0  0  0  0  0  0  0  0  0  0
  144.3001   74.7914  221.0092 H   0  0  0  0  0  0  0  0  0  0  0  0
  144.1846   75.6537  219.4750 H   0  0  0  0  0  0  0  0  0  0  0  0
  142.1317   75.9746  221.3839 H   0  0  0  0  0  0  0  0  0  0  0  0
  142.5736   76.6624  218.8763 H   0  0  0  0  0  0  0  0  0  0  0  0
  141.0494   75.6496  218.8242 H   0  0  0  0  0  0  0  0  0  0  0  0
  140.0050   77.5020  219.5090 H   0  0  0  0  0  0  0  0  0  0  0  0
  141.7484   79.8437  219.6620 H   0  0  0  0  0  0  0  0  0  0  0  0
  142.4199   81.4261  221.4030 H   0  0  0  0  0  0  0  0  0  0  0  0
  141.6559   78.4674  224.3785 H   0  0  0  0  0  0  0  0  0  0  0  0
  140.9823   76.8772  222.6384 H   0  0  0  0  0  0  0  0  0  0  0  0
  135.6354   76.7798  222.0655 H   0  0  0  0  0  0  0  0  0  0  0  0
  134.6145   78.5558  223.4441 H   0  0  0  0  0  0  0  0  0  0  0  0
  134.7865   80.5417  224.7731 H   0  0  0  0  0  0  0  0  0  0  0  0
  138.6798   82.2943  225.3037 H   0  0  0  0  0  0  0  0  0  0  0  0
  139.7394   80.5269  223.9173 H   0  0  0  0  0  0  0  0  0  0  0  0
  1  2  2  0
  2  3  1  0
  3  4  1  0
  4  5  1  0
  5  6  2  0
  5  7  1  0
  7  8  1  0
  8  9  1  0
  9 10  1  0
 10 11  1  0
 11 12  1  0
 12 13  1  0
 13 14  1  0
 14 15  2  0
 15 16  1  0
 16 17  2  0
 17 18  1  0
 17 19  1  0
 19 20  2  0
  2 21  1  0
 21 22  2  0
 22 23  1  0
 23 24  2  0
 24 25  1  0
 25 26  2  0
 26 27  1  0
 26 28  1  0
 28 29  2  0
 29 30  1  0
 30 31  2  0
 11  7  1  0
 20 14  1  0
 31 21  1  0
 30 24  1  0
  3 32  1  0
  4 33  1  0
  4 34  1  0
  8 35  1  0
  8 36  1  0
  9 37  1  0
  9 38  1  0
 10 39  1  0
 10 40  1  0
 11 41  1  1
 12 42  1  0
 12 43  1  0
 13 44  1  0
 15 45  1  0
 16 46  1  0
 19 47  1  0
 20 48  1  0
 22 49  1  0
 23 50  1  0
 25 51  1  0
 28 52  1  0
 29 53  1  0
M  END
>  <smiles>  (33) 
O=C(NCC(=O)N1CCC[C@H]1CNc1ccc(Cl)cc1)c1ccc2cc(Cl)ccc2n1

>  <score_type>  (33) 
oracle

>  <origin>  (33) 
autodockgpu

>  <m_score__min__energy>  (33) 
-8.6400000000000006

>  <m_primary>  (33) 
energy

>  <rmsd>  (33) 
6.740225120500981

>  <m_score__min__rmsd>  (33) 
6.740225120500981

>  <meeko>  (33) 
{"free_energy": -6.89, "intermolecular_energy": -8.98, "internal_energy": -3.29, "cluster_size": 3, "cluster_id": 11, "rank_in_cluster": 1}

>  <energy>  (33) 
-6.66

>  <cluster_rmsd>  (33) 
1.06

>  <cluster>  (33) 
9

$$$$

     RDKit          3D

 53 56  0  0  0  0  0  0  0  0999 V2000
  138.4450   75.5480  222.3140 O   0  0  0  0  0  0  0  0  0  0  0  0
  139.6430   75.8610  222.0510 C   0  0  0  0  0  0  0  0  0  0  0  0
  139.9790   77.2380  222.2440 N   0  0  0  0  0  0  0  0  0  0  0  0
  138.9560   78.1230  222.7060 C   0  0  0  0  0  0  0  0  0  0  0  0
  139.5080   79.2630  223.4980 C   0  0  0  0  0  0  0  0  0  0  0  0
  138.9230   79.7250  224.5180 O   0  0  0  0  0  0  0  0  0  0  0  0
  140.7580   79.8550  223.0730 N   0  0  0  0  0  0  0  0  0  0  0  0
  142.0010   79.5100  223.7220 C   0  0  0  0  0  0  0  0  0  0  0  0
  142.9950   80.4830  223.2170 C   0  0  0  0  0  0  0  0  0  0  0  0
  142.1930   81.5400  222.5040 C   0  0  0  0  0  0  0  0  0  0  0  0
  140.9280   80.8240  222.0370 C   0  0  1  0  0  0  0  0  0  0  0  0
  141.1040   80.3610  220.6430 C   0  0  0  0  0  0  0  0  0  0  0  0
  141.9420   79.2120  220.5160 N   0  0  0  0  0  0  0  0  0  0  0  0
  141.8250   78.1610  219.5980 C   0  0  0  0  0  0  0  0  0  0  0  0
  140.5910   77.6020  219.3050 C   0  0  0  0  0  0  0  0  0  0  0  0
  140.4310   76.5480  218.4310 C   0  0  0  0  0  0  0  0  0  0  0  0
  141.5190   75.9930  217.7950 C   0  0  0  0  0  0  0  0  0  0  0  0
  141.2470   74.6580  216.6970 Cl  0  0  0  0  0  0  0  0  0  0  0  0
  142.7500   76.5220  218.0620 C   0  0  0  0  0  0  0  0  0  0  0  0
  142.9060   77.5780  218.9390 C   0  0  0  0  0  0  0  0  0  0  0  0
  140.6250   74.8930  221.5820 C   0  0  0  0  0  0  0  0  0  0  0  0
  140.2310   73.5680  221.5300 C   0  0  0  0  0  0  0  0  0  0  0  0
  141.1290   72.6270  221.0940 C   0  0  0  0  0  0  0  0  0  0  0  0
  142.4090   72.9800  220.7100 C   0  0  0  0  0  0  0  0  0  0  0  0
  143.2850   72.0040  220.2770 C   0  0  0  0  0  0  0  0  0  0  0  0
  144.5620   72.4130  219.9030 C   0  0  0  0  0  0  0  0  0  0  0  0
  145.6870   71.1870  219.3500 Cl  0  0  0  0  0  0  0  0  0  0  0  0
  144.9030   73.7480  219.9750 C   0  0  0  0  0  0  0  0  0  0  0  0
  144.0280   74.7280  220.4090 C   0  0  0  0  0  0  0  0  0  0  0  0
  142.7630   74.3130  220.7790 C   0  0  0  0  0  0  0  0  0  0  0  0
  141.8740   75.2270  221.2070 N   0  0  0  0  0  0  0  0  0  0  0  0
  140.9700   77.5570  222.0390 H   0  0  0  0  0  0  0  0  0  0  0  0
  138.4166   78.5252  221.8358 H   0  0  0  0  0  0  0  0  0  0  0  0
  138.2863   77.5493  223.3636 H   0  0  0  0  0  0  0  0  0  0  0  0
  141.9008   79.5948  224.8141 H   0  0  0  0  0  0  0  0  0  0  0  0
  142.2994   78.4734  223.5067 H   0  0  0  0  0  0  0  0  0  0  0  0
  143.5590   80.9253  224.0514 H   0  0  0  0  0  0  0  0  0  0  0  0
  143.7303   80.0083  222.5507 H   0  0  0  0  0  0  0  0  0  0  0  0
  141.9415   82.3630  223.1891 H   0  0  0  0  0  0  0  0  0  0  0  0
  142.7488   81.9875  221.6669 H   0  0  0  0  0  0  0  0  0  0  0  0
  140.0012   81.4082  221.9377 H   0  0  0  0  0  0  0  0  0  0  0  0
  140.1137   80.1144  220.2324 H   0  0  0  0  0  0  0  0  0  0  0  0
  141.5971   81.1777  220.0954 H   0  0  0  0  0  0  0  0  0  0  0  0
  142.7580   79.1420  221.2030 H   0  0  0  0  0  0  0  0  0  0  0  0
  139.6975   78.0189  219.7927 H   0  0  0  0  0  0  0  0  0  0  0  0
  139.4249   76.1466  218.2399 H   0  0  0  0  0  0  0  0  0  0  0  0
  143.6365   76.0978  217.5678 H   0  0  0  0  0  0  0  0  0  0  0  0
  143.9165   77.9716  219.1232 H   0  0  0  0  0  0  0  0  0  0  0  0
  139.2153   73.2740  221.8330 H   0  0  0  0  0  0  0  0  0  0  0  0
  140.8244   71.5710  221.0491 H   0  0  0  0  0  0  0  0  0  0  0  0
  142.9858   70.9465  220.2296 H   0  0  0  0  0  0  0  0  0  0  0  0
  145.9177   74.0471  219.6734 H   0  0  0  0  0  0  0  0  0  0  0  0
  144.3249   75.7861  220.4571 H   0  0  0  0  0  0  0  0  0  0  0  0
  1  2  2  0
  2  3  1  0
  3  4  1  0
  4  5  1  0
  5  6  2  0
  5  7  1  0
  7  8  1  0
  8  9  1  0
  9 10  1  0
 10 11  1  0
 11 12  1  0
 12 13  1  0
 13 14  1  0
 14 15  2  0
 15 16  1  0
 16 17  2  0
 17 18  1  0
 17 19  1  0
 19 20  2  0
  2 21  1  0
 21 22  2  0
 22 23  1  0
 23 24  2  0
 24 25  1  0
 25 26  2  0
 26 27  1  0
 26 28  1  0
 28 29  2  0
 29 30  1  0
 30 31  2  0
 11  7  1  0
 20 14  1  0
 31 21  1  0
 30 24  1  0
  3 32  1  0
  4 33  1  0
  4 34  1  0
  8 35  1  0
  8 36  1  0
  9 37  1  0
  9 38  1  0
 10 39  1  0
 10 40  1  0
 11 41  1  6
 12 42  1  0
 12 43  1  0
 13 44  1  0
 15 45  1  0
 16 46  1  0
 19 47  1  0
 20 48  1  0
 22 49  1  0
 23 50  1  0
 25 51  1  0
 28 52  1  0
 29 53  1  0
M  END
>  <smiles>  (34) 
O=C(NCC(=O)N1CCC[C@H]1CNc1ccc(Cl)cc1)c1ccc2cc(Cl)ccc2n1

>  <score_type>  (34) 
oracle

>  <origin>  (34) 
autodockgpu

>  <m_score__min__energy>  (34) 
-8.6400000000000006

>  <m_primary>  (34) 
energy

>  <rmsd>  (34) 
6.26684544170744

>  <m_score__min__rmsd>  (34) 
6.26684544170744

>  <meeko>  (34) 
{"free_energy": -6.31, "intermolecular_energy": -8.4, "internal_energy": -3.3, "cluster_size": 4, "cluster_id": 15, "rank_in_cluster": 2}

>  <energy>  (34) 
-7.23

>  <cluster_rmsd>  (34) 
0.0

>  <cluster>  (34) 
10

$$$$

     RDKit          3D

 53 56  0  0  0  0  0  0  0  0999 V2000
  139.8030   72.0850  220.8130 O   0  0  0  0  0  0  0  0  0  0  0  0
  139.7530   72.4820  222.0140 C   0  0  0  0  0  0  0  0  0  0  0  0
  139.5670   73.8890  222.1930 N   0  0  0  0  0  0  0  0  0  0  0  0
  139.4580   74.7080  221.0260 C   0  0  0  0  0  0  0  0  0  0  0  0
  140.7750   75.2710  220.6030 C   0  0  0  0  0  0  0  0  0  0  0  0
  141.0390   76.5040  220.6770 O   0  0  0  0  0  0  0  0  0  0  0  0
  141.7790   74.3640  220.0910 N   0  0  0  0  0  0  0  0  0  0  0  0
  141.4810   73.4670  218.9990 C   0  0  0  0  0  0  0  0  0  0  0  0
  142.6280   72.5330  218.9310 C   0  0  0  0  0  0  0  0  0  0  0  0
  143.4110   72.7670  220.1950 C   0  0  0  0  0  0  0  0  0  0  0  0
  143.1140   74.2150  220.5780 C   0  0  1  0  0  0  0  0  0  0  0  0
  144.1750   75.0980  220.0440 C   0  0  0  0  0  0  0  0  0  0  0  0
  143.7230   76.4110  219.7120 N   0  0  0  0  0  0  0  0  0  0  0  0
  143.3240   76.8910  218.4590 C   0  0  0  0  0  0  0  0  0  0  0  0
  143.6490   76.2100  217.2960 C   0  0  0  0  0  0  0  0  0  0  0  0
  143.3040   76.6590  216.0400 C   0  0  0  0  0  0  0  0  0  0  0  0
  142.6020   77.8330  215.8830 C   0  0  0  0  0  0  0  0  0  0  0  0
  142.1940   78.3470  214.2610 Cl  0  0  0  0  0  0  0  0  0  0  0  0
  142.2660   78.5290  217.0100 C   0  0  0  0  0  0  0  0  0  0  0  0
  142.6150   78.0760  218.2680 C   0  0  0  0  0  0  0  0  0  0  0  0
  139.8740   71.5770  223.1490 C   0  0  0  0  0  0  0  0  0  0  0  0
  139.4420   70.2750  222.9670 C   0  0  0  0  0  0  0  0  0  0  0  0
  139.5390   69.3930  224.0140 C   0  0  0  0  0  0  0  0  0  0  0  0
  140.0580   69.7830  225.2340 C   0  0  0  0  0  0  0  0  0  0  0  0
  140.1400   68.8650  226.2640 C   0  0  0  0  0  0  0  0  0  0  0  0
  140.6700   69.3090  227.4720 C   0  0  0  0  0  0  0  0  0  0  0  0
  140.7820   68.1580  228.7910 Cl  0  0  0  0  0  0  0  0  0  0  0  0
  141.0860   70.6180  227.5990 C   0  0  0  0  0  0  0  0  0  0  0  0
  141.0050   71.5390  226.5700 C   0  0  0  0  0  0  0  0  0  0  0  0
  140.4770   71.0910  225.3740 C   0  0  0  0  0  0  0  0  0  0  0  0
  140.3780   71.9460  224.3410 N   0  0  0  0  0  0  0  0  0  0  0  0
  139.5170   74.2780  223.1780 H   0  0  0  0  0  0  0  0  0  0  0  0
  139.0528   74.0999  220.2038 H   0  0  0  0  0  0  0  0  0  0  0  0
  138.7939   75.5510  221.2676 H   0  0  0  0  0  0  0  0  0  0  0  0
  140.5487   72.9175  219.1962 H   0  0  0  0  0  0  0  0  0  0  0  0
  141.3390   74.0090  218.0524 H   0  0  0  0  0  0  0  0  0  0  0  0
  142.2745   71.4924  218.8846 H   0  0  0  0  0  0  0  0  0  0  0  0
  143.2407   72.7030  218.0334 H   0  0  0  0  0  0  0  0  0  0  0  0
  143.0795   72.0809  220.9884 H   0  0  0  0  0  0  0  0  0  0  0  0
  144.4872   72.5879  220.0549 H   0  0  0  0  0  0  0  0  0  0  0  0
  143.1396   74.4915  221.6424 H   0  0  0  0  0  0  0  0  0  0  0  0
  144.9667   75.1859  220.8027 H   0  0  0  0  0  0  0  0  0  0  0  0
  144.5329   74.6384  219.1109 H   0  0  0  0  0  0  0  0  0  0  0  0
  143.6830   77.1160  220.5160 H   0  0  0  0  0  0  0  0  0  0  0  0
  144.2087   75.2668  217.3800 H   0  0  0  0  0  0  0  0  0  0  0  0
  143.5921   76.0740  215.1542 H   0  0  0  0  0  0  0  0  0  0  0  0
  141.7054   79.4705  216.9137 H   0  0  0  0  0  0  0  0  0  0  0  0
  142.3239   78.6696  219.1471 H   0  0  0  0  0  0  0  0  0  0  0  0
  139.0281   69.9526  222.0001 H   0  0  0  0  0  0  0  0  0  0  0  0
  139.1972   68.3561  223.8796 H   0  0  0  0  0  0  0  0  0  0  0  0
  139.8005   67.8267  226.1345 H   0  0  0  0  0  0  0  0  0  0  0  0
  141.5016   70.9448  228.5636 H   0  0  0  0  0  0  0  0  0  0  0  0
  141.3444   72.5775  226.6975 H   0  0  0  0  0  0  0  0  0  0  0  0
  1  2  2  0
  2  3  1  0
  3  4  1  0
  4  5  1  0
  5  6  2  0
  5  7  1  0
  7  8  1  0
  8  9  1  0
  9 10  1  0
 10 11  1  0
 11 12  1  0
 12 13  1  0
 13 14  1  0
 14 15  2  0
 15 16  1  0
 16 17  2  0
 17 18  1  0
 17 19  1  0
 19 20  2  0
  2 21  1  0
 21 22  2  0
 22 23  1  0
 23 24  2  0
 24 25  1  0
 25 26  2  0
 26 27  1  0
 26 28  1  0
 28 29  2  0
 29 30  1  0
 30 31  2  0
 11  7  1  0
 20 14  1  0
 31 21  1  0
 30 24  1  0
  3 32  1  0
  4 33  1  0
  4 34  1  0
  8 35  1  0
  8 36  1  0
  9 37  1  0
  9 38  1  0
 10 39  1  0
 10 40  1  0
 11 41  1  1
 12 42  1  0
 12 43  1  0
 13 44  1  0
 15 45  1  0
 16 46  1  0
 19 47  1  0
 20 48  1  0
 22 49  1  0
 23 50  1  0
 25 51  1  0
 28 52  1  0
 29 53  1  0
M  END
>  <smiles>  (35) 
O=C(NCC(=O)N1CCC[C@H]1CNc1ccc(Cl)cc1)c1ccc2cc(Cl)ccc2n1

>  <score_type>  (35) 
oracle

>  <origin>  (35) 
autodockgpu

>  <m_score__min__energy>  (35) 
-8.6400000000000006

>  <m_primary>  (35) 
energy

>  <rmsd>  (35) 
3.562517002845899

>  <m_score__min__rmsd>  (35) 
3.562517002845899

>  <meeko>  (35) 
{"free_energy": -7.53, "intermolecular_energy": -9.62, "internal_energy": -2.21, "cluster_size": 1, "cluster_id": 7, "rank_in_cluster": 1}

>  <energy>  (35) 
-6.89

>  <cluster_rmsd>  (35) 
0.0

>  <cluster>  (35) 
11

$$$$

     RDKit          3D

 53 56  0  0  0  0  0  0  0  0999 V2000
  137.4760   72.6000  222.7150 O   0  0  0  0  0  0  0  0  0  0  0  0
  137.7300   73.4510  221.8120 C   0  0  0  0  0  0  0  0  0  0  0  0
  137.6070   72.9810  220.4670 N   0  0  0  0  0  0  0  0  0  0  0  0
  137.2170   71.6210  220.2620 C   0  0  0  0  0  0  0  0  0  0  0  0
  138.3370   70.6660  220.5160 C   0  0  0  0  0  0  0  0  0  0  0  0
  138.1460   69.5080  220.9850 O   0  0  0  0  0  0  0  0  0  0  0  0
  139.6860   71.0900  220.2120 N   0  0  0  0  0  0  0  0  0  0  0  0
  140.0580   71.4810  218.8720 C   0  0  0  0  0  0  0  0  0  0  0  0
  141.5340   71.5870  218.8860 C   0  0  0  0  0  0  0  0  0  0  0  0
  141.9680   70.9630  220.1860 C   0  0  0  0  0  0  0  0  0  0  0  0
  140.7810   71.1530  221.1280 C   0  0  1  0  0  0  0  0  0  0  0  0
  140.9760   72.3800  221.9310 C   0  0  0  0  0  0  0  0  0  0  0  0
  140.1890   72.4240  223.1210 N   0  0  0  0  0  0  0  0  0  0  0  0
  140.2070   71.5270  224.1960 C   0  0  0  0  0  0  0  0  0  0  0  0
  139.4830   70.3460  224.1540 C   0  0  0  0  0  0  0  0  0  0  0  0
  139.4470   69.4470  225.1980 C   0  0  0  0  0  0  0  0  0  0  0  0
  140.1480   69.6910  226.3580 C   0  0  0  0  0  0  0  0  0  0  0  0
  140.0610   68.5090  227.6460 Cl  0  0  0  0  0  0  0  0  0  0  0  0
  140.8730   70.8470  226.4320 C   0  0  0  0  0  0  0  0  0  0  0  0
  140.9060   71.7450  225.3830 C   0  0  0  0  0  0  0  0  0  0  0  0
  138.1230   74.8220  222.1100 C   0  0  0  0  0  0  0  0  0  0  0  0
  137.1090   75.7560  222.2380 C   0  0  0  0  0  0  0  0  0  0  0  0
  137.4390   77.0570  222.5170 C   0  0  0  0  0  0  0  0  0  0  0  0
  138.7570   77.4460  222.6720 C   0  0  0  0  0  0  0  0  0  0  0  0
  139.0500   78.7660  222.9530 C   0  0  0  0  0  0  0  0  0  0  0  0
  140.3920   79.1050  223.0980 C   0  0  0  0  0  0  0  0  0  0  0  0
  140.7830   80.7760  223.4560 Cl  0  0  0  0  0  0  0  0  0  0  0  0
  141.3630   78.1340  222.9600 C   0  0  0  0  0  0  0  0  0  0  0  0
  141.0730   76.8110  222.6780 C   0  0  0  0  0  0  0  0  0  0  0  0
  139.7380   76.4840  222.5350 C   0  0  0  0  0  0  0  0  0  0  0  0
  139.4020   75.2100  222.2620 N   0  0  0  0  0  0  0  0  0  0  0  0
  137.8070   73.6510  219.6700 H   0  0  0  0  0  0  0  0  0  0  0  0
  136.3880   71.3839  220.9451 H   0  0  0  0  0  0  0  0  0  0  0  0
  136.9141   71.5125  219.2101 H   0  0  0  0  0  0  0  0  0  0  0  0
  139.7341   70.7208  218.1459 H   0  0  0  0  0  0  0  0  0  0  0  0
  139.5837   72.4287  218.5771 H   0  0  0  0  0  0  0  0  0  0  0  0
  141.9670   71.0421  218.0342 H   0  0  0  0  0  0  0  0  0  0  0  0
  141.8697   72.6311  218.8015 H   0  0  0  0  0  0  0  0  0  0  0  0
  142.1857   69.8936  220.0484 H   0  0  0  0  0  0  0  0  0  0  0  0
  142.8869   71.4221  220.5795 H   0  0  0  0  0  0  0  0  0  0  0  0
  140.6214   70.4142  221.9272 H   0  0  0  0  0  0  0  0  0  0  0  0
  142.0369   72.4431  222.2149 H   0  0  0  0  0  0  0  0  0  0  0  0
  140.6552   73.2255  221.3048 H   0  0  0  0  0  0  0  0  0  0  0  0
  139.5020   73.2390  223.2060 H   0  0  0  0  0  0  0  0  0  0  0  0
  138.9097   70.1152  223.2440 H   0  0  0  0  0  0  0  0  0  0  0  0
  138.8529   68.5261  225.1038 H   0  0  0  0  0  0  0  0  0  0  0  0
  141.4427   71.0672  227.3469 H   0  0  0  0  0  0  0  0  0  0  0  0
  141.5035   72.6627  225.4873 H   0  0  0  0  0  0  0  0  0  0  0  0
  136.0566   75.4592  222.1179 H   0  0  0  0  0  0  0  0  0  0  0  0
  136.6400   77.8060  222.6196 H   0  0  0  0  0  0  0  0  0  0  0  0
  138.2549   79.5189  223.0580 H   0  0  0  0  0  0  0  0  0  0  0  0
  142.4168   78.4257  223.0799 H   0  0  0  0  0  0  0  0  0  0  0  0
  141.8663   76.0563  222.5727 H   0  0  0  0  0  0  0  0  0  0  0  0
  1  2  2  0
  2  3  1  0
  3  4  1  0
  4  5  1  0
  5  6  2  0
  5  7  1  0
  7  8  1  0
  8  9  1  0
  9 10  1  0
 10 11  1  0
 11 12  1  0
 12 13  1  0
 13 14  1  0
 14 15  2  0
 15 16  1  0
 16 17  2  0
 17 18  1  0
 17 19  1  0
 19 20  2  0
  2 21  1  0
 21 22  2  0
 22 23  1  0
 23 24  2  0
 24 25  1  0
 25 26  2  0
 26 27  1  0
 26 28  1  0
 28 29  2  0
 29 30  1  0
 30 31  2  0
 11  7  1  0
 20 14  1  0
 31 21  1  0
 30 24  1  0
  3 32  1  0
  4 33  1  0
  4 34  1  0
  8 35  1  0
  8 36  1  0
  9 37  1  0
  9 38  1  0
 10 39  1  0
 10 40  1  0
 11 41  1  1
 12 42  1  0
 12 43  1  0
 13 44  1  0
 15 45  1  0
 16 46  1  0
 19 47  1  0
 20 48  1  0
 22 49  1  0
 23 50  1  0
 25 51  1  0
 28 52  1  0
 29 53  1  0
M  END
>  <smiles>  (36) 
O=C(NCC(=O)N1CCC[C@H]1CNc1ccc(Cl)cc1)c1ccc2cc(Cl)ccc2n1

>  <score_type>  (36) 
oracle

>  <origin>  (36) 
autodockgpu

>  <m_score__min__energy>  (36) 
-8.6400000000000006

>  <m_primary>  (36) 
energy

>  <rmsd>  (36) 
7.657520344961868

>  <m_score__min__rmsd>  (36) 
7.657520344961868

>  <meeko>  (36) 
{"free_energy": -6.66, "intermolecular_energy": -8.75, "internal_energy": -3.47, "cluster_size": 2, "cluster_id": 9, "rank_in_cluster": 2}

>  <energy>  (36) 
-6.8

>  <cluster_rmsd>  (36) 
0.43

>  <cluster>  (36) 
11

$$$$

     RDKit          3D

 53 56  0  0  0  0  0  0  0  0999 V2000
  138.4190   77.2370  220.2630 O   0  0  0  0  0  0  0  0  0  0  0  0
  138.1390   76.9570  221.4650 C   0  0  0  0  0  0  0  0  0  0  0  0
  138.4400   75.6200  221.8740 N   0  0  0  0  0  0  0  0  0  0  0  0
  139.0190   74.7350  220.9120 C   0  0  0  0  0  0  0  0  0  0  0  0
  140.1060   73.8950  221.4970 C   0  0  0  0  0  0  0  0  0  0  0  0
  139.9470   73.2190  222.5520 O   0  0  0  0  0  0  0  0  0  0  0  0
  141.3870   73.8600  220.8240 N   0  0  0  0  0  0  0  0  0  0  0  0
  141.7840   72.7120  220.0430 C   0  0  0  0  0  0  0  0  0  0  0  0
  143.2180   72.9170  219.7400 C   0  0  0  0  0  0  0  0  0  0  0  0
  143.6550   74.0580  220.6210 C   0  0  0  0  0  0  0  0  0  0  0  0
  142.3890   74.8790  220.8550 C   0  0  1  0  0  0  0  0  0  0  0  0
  142.3220   75.9820  219.8720 C   0  0  0  0  0  0  0  0  0  0  0  0
  141.3870   77.0050  220.2120 N   0  0  0  0  0  0  0  0  0  0  0  0
  141.5410   78.0310  221.1510 C   0  0  0  0  0  0  0  0  0  0  0  0
  141.8640   79.3200  220.7570 C   0  0  0  0  0  0  0  0  0  0  0  0
  142.0540   80.3550  221.6470 C   0  0  0  0  0  0  0  0  0  0  0  0
  141.9270   80.1470  223.0020 C   0  0  0  0  0  0  0  0  0  0  0  0
  142.1800   81.5030  224.0790 Cl  0  0  0  0  0  0  0  0  0  0  0  0
  141.6090   78.8870  223.4250 C   0  0  0  0  0  0  0  0  0  0  0  0
  141.4190   77.8520  222.5290 C   0  0  0  0  0  0  0  0  0  0  0  0
  137.5480   77.9230  222.3820 C   0  0  0  0  0  0  0  0  0  0  0  0
  136.1910   77.8120  222.6280 C   0  0  0  0  0  0  0  0  0  0  0  0
  135.5990   78.7040  223.4850 C   0  0  0  0  0  0  0  0  0  0  0  0
  136.3320   79.7010  224.1020 C   0  0  0  0  0  0  0  0  0  0  0  0
  135.7000   80.5800  224.9600 C   0  0  0  0  0  0  0  0  0  0  0  0
  136.4830   81.5660  225.5540 C   0  0  0  0  0  0  0  0  0  0  0  0
  135.6980   82.6910  226.6460 Cl  0  0  0  0  0  0  0  0  0  0  0  0
  137.8330   81.6310  225.2730 C   0  0  0  0  0  0  0  0  0  0  0  0
  138.4680   80.7520  224.4140 C   0  0  0  0  0  0  0  0  0  0  0  0
  137.6830   79.7770  223.8290 C   0  0  0  0  0  0  0  0  0  0  0  0
  138.2530   78.8970  222.9860 N   0  0  0  0  0  0  0  0  0  0  0  0
  138.2270   75.3300  222.8710 H   0  0  0  0  0  0  0  0  0  0  0  0
  138.2319   74.0732  220.5214 H   0  0  0  0  0  0  0  0  0  0  0  0
  139.4609   75.3487  220.1132 H   0  0  0  0  0  0  0  0  0  0  0  0
  141.6415   71.7864  220.6201 H   0  0  0  0  0  0  0  0  0  0  0  0
  141.1831   72.6140  219.1268 H   0  0  0  0  0  0  0  0  0  0  0  0
  143.7939   72.0091  219.9725 H   0  0  0  0  0  0  0  0  0  0  0  0
  143.3833   73.1366  218.6749 H   0  0  0  0  0  0  0  0  0  0  0  0
  144.0535   73.6806  221.5743 H   0  0  0  0  0  0  0  0  0  0  0  0
  144.4566   74.6541  220.1604 H   0  0  0  0  0  0  0  0  0  0  0  0
  142.2963   75.4438  221.7944 H   0  0  0  0  0  0  0  0  0  0  0  0
  143.3203   76.4374  219.7942 H   0  0  0  0  0  0  0  0  0  0  0  0
  141.9825   75.5426  218.9225 H   0  0  0  0  0  0  0  0  0  0  0  0
  140.4550   76.9900  219.6870 H   0  0  0  0  0  0  0  0  0  0  0  0
  141.9740   79.5269  219.6822 H   0  0  0  0  0  0  0  0  0  0  0  0
  142.3095   81.3567  221.2712 H   0  0  0  0  0  0  0  0  0  0  0  0
  141.5019   78.6923  224.5023 H   0  0  0  0  0  0  0  0  0  0  0  0
  141.1632   76.8543  222.9152 H   0  0  0  0  0  0  0  0  0  0  0  0
  135.5974   77.0221  222.1446 H   0  0  0  0  0  0  0  0  0  0  0  0
  134.5203   78.6249  223.6854 H   0  0  0  0  0  0  0  0  0  0  0  0
  134.6220   80.5040  225.1655 H   0  0  0  0  0  0  0  0  0  0  0  0
  138.4316   82.4183  225.7545 H   0  0  0  0  0  0  0  0  0  0  0  0
  139.5458   80.8257  224.2067 H   0  0  0  0  0  0  0  0  0  0  0  0
  1  2  2  0
  2  3  1  0
  3  4  1  0
  4  5  1  0
  5  6  2  0
  5  7  1  0
  7  8  1  0
  8  9  1  0
  9 10  1  0
 10 11  1  0
 11 12  1  0
 12 13  1  0
 13 14  1  0
 14 15  2  0
 15 16  1  0
 16 17  2  0
 17 18  1  0
 17 19  1  0
 19 20  2  0
  2 21  1  0
 21 22  2  0
 22 23  1  0
 23 24  2  0
 24 25  1  0
 25 26  2  0
 26 27  1  0
 26 28  1  0
 28 29  2  0
 29 30  1  0
 30 31  2  0
 11  7  1  0
 20 14  1  0
 31 21  1  0
 30 24  1  0
  3 32  1  0
  4 33  1  0
  4 34  1  0
  8 35  1  0
  8 36  1  0
  9 37  1  0
  9 38  1  0
 10 39  1  0
 10 40  1  0
 11 41  1  1
 12 42  1  0
 12 43  1  0
 13 44  1  0
 15 45  1  0
 16 46  1  0
 19 47  1  0
 20 48  1  0
 22 49  1  0
 23 50  1  0
 25 51  1  0
 28 52  1  0
 29 53  1  0
M  END
>  <smiles>  (37) 
O=C(NCC(=O)N1CCC[C@H]1CNc1ccc(Cl)cc1)c1ccc2cc(Cl)ccc2n1

>  <score_type>  (37) 
oracle

>  <origin>  (37) 
autodockgpu

>  <m_score__min__energy>  (37) 
-8.6400000000000006

>  <m_primary>  (37) 
energy

>  <rmsd>  (37) 
6.874748174895783

>  <m_score__min__rmsd>  (37) 
6.874748174895783

>  <meeko>  (37) 
{"free_energy": -6.53, "intermolecular_energy": -8.61, "internal_energy": -3.28, "cluster_size": 3, "cluster_id": 11, "rank_in_cluster": 3}

>  <energy>  (37) 
-6.53

>  <cluster_rmsd>  (37) 
0.5

>  <cluster>  (37) 
11

$$$$

     RDKit          3D

 53 56  0  0  0  0  0  0  0  0999 V2000
  139.6090   74.5310  222.0360 O   0  0  0  0  0  0  0  0  0  0  0  0
  140.8020   74.7560  221.6790 C   0  0  0  0  0  0  0  0  0  0  0  0
  141.2490   76.1070  221.8310 N   0  0  0  0  0  0  0  0  0  0  0  0
  140.3290   77.0640  222.3610 C   0  0  0  0  0  0  0  0  0  0  0  0
  141.0170   78.2830  222.8820 C   0  0  0  0  0  0  0  0  0  0  0  0
  141.8270   78.2410  223.8510 O   0  0  0  0  0  0  0  0  0  0  0  0
  140.7410   79.5540  222.2480 N   0  0  0  0  0  0  0  0  0  0  0  0
  141.0340   80.7980  222.9200 C   0  0  0  0  0  0  0  0  0  0  0  0
  140.3870   81.8500  222.1040 C   0  0  0  0  0  0  0  0  0  0  0  0
  139.4970   81.1160  221.1370 C   0  0  0  0  0  0  0  0  0  0  0  0
  140.1520   79.7490  220.9600 C   0  0  1  0  0  0  0  0  0  0  0  0
  141.0260   79.7660  219.7670 C   0  0  0  0  0  0  0  0  0  0  0  0
  142.0870   78.8120  219.8110 N   0  0  0  0  0  0  0  0  0  0  0  0
  142.1620   77.5810  219.1480 C   0  0  0  0  0  0  0  0  0  0  0  0
  141.0290   76.9820  218.6200 C   0  0  0  0  0  0  0  0  0  0  0  0
  141.0500   75.7590  217.9870 C   0  0  0  0  0  0  0  0  0  0  0  0
  142.2290   75.0620  217.8470 C   0  0  0  0  0  0  0  0  0  0  0  0
  142.1870   73.5140  217.0310 Cl  0  0  0  0  0  0  0  0  0  0  0  0
  143.3650   75.6240  218.3560 C   0  0  0  0  0  0  0  0  0  0  0  0
  143.3390   76.8510  218.9910 C   0  0  0  0  0  0  0  0  0  0  0  0
  141.6750   73.7180  221.1470 C   0  0  0  0  0  0  0  0  0  0  0  0
  141.1040   72.4840  220.8900 C   0  0  0  0  0  0  0  0  0  0  0  0
  141.8950   71.4810  220.3890 C   0  0  0  0  0  0  0  0  0  0  0  0
  143.2390   71.6840  220.1390 C   0  0  0  0  0  0  0  0  0  0  0  0
  144.0030   70.6490  219.6340 C   0  0  0  0  0  0  0  0  0  0  0  0
  145.3500   70.9060  219.4010 C   0  0  0  0  0  0  0  0  0  0  0  0
  146.3350   69.6040  218.7600 Cl  0  0  0  0  0  0  0  0  0  0  0  0
  145.8680   72.1550  219.6760 C   0  0  0  0  0  0  0  0  0  0  0  0
  145.1060   73.1930  220.1820 C   0  0  0  0  0  0  0  0  0  0  0  0
  143.7690   72.9300  220.4100 C   0  0  0  0  0  0  0  0  0  0  0  0
  142.9840   73.9060  220.9010 N   0  0  0  0  0  0  0  0  0  0  0  0
  142.2410   76.3530  221.5480 H   0  0  0  0  0  0  0  0  0  0  0  0
  139.6325   77.3641  221.5642 H   0  0  0  0  0  0  0  0  0  0  0  0
  139.7987   76.5918  223.2011 H   0  0  0  0  0  0  0  0  0  0  0  0
  140.6188   80.7918  223.9386 H   0  0  0  0  0  0  0  0  0  0  0  0
  142.1170   80.9646  223.0165 H   0  0  0  0  0  0  0  0  0  0  0  0
  139.7920   82.5202  222.7418 H   0  0  0  0  0  0  0  0  0  0  0  0
  141.1265   82.4767  221.5840 H   0  0  0  0  0  0  0  0  0  0  0  0
  138.4829   81.0087  221.5494 H   0  0  0  0  0  0  0  0  0  0  0  0
  139.3926   81.6518  220.1820 H   0  0  0  0  0  0  0  0  0  0  0  0
  139.5104   78.8870  220.7249 H   0  0  0  0  0  0  0  0  0  0  0  0
  140.4076   79.5550  218.8821 H   0  0  0  0  0  0  0  0  0  0  0  0
  141.4938   80.7608  219.7293 H   0  0  0  0  0  0  0  0  0  0  0  0
  142.9270   79.0640  220.4220 H   0  0  0  0  0  0  0  0  0  0  0  0
  140.0674   77.5084  218.7109 H   0  0  0  0  0  0  0  0  0  0  0  0
  140.1160   75.3351  217.5896 H   0  0  0  0  0  0  0  0  0  0  0  0
  144.3209   75.0885  218.2584 H   0  0  0  0  0  0  0  0  0  0  0  0
  144.2784   77.2654  219.3857 H   0  0  0  0  0  0  0  0  0  0  0  0
  140.0352   72.3103  221.0838 H   0  0  0  0  0  0  0  0  0  0  0  0
  141.4508   70.4962  220.1823 H   0  0  0  0  0  0  0  0  0  0  0  0
  143.5639   69.6624  219.4249 H   0  0  0  0  0  0  0  0  0  0  0  0
  146.9363   72.3337  219.4840 H   0  0  0  0  0  0  0  0  0  0  0  0
  145.5435   74.1800  220.3926 H   0  0  0  0  0  0  0  0  0  0  0  0
  1  2  2  0
  2  3  1  0
  3  4  1  0
  4  5  1  0
  5  6  2  0
  5  7  1  0
  7  8  1  0
  8  9  1  0
  9 10  1  0
 10 11  1  0
 11 12  1  0
 12 13  1  0
 13 14  1  0
 14 15  2  0
 15 16  1  0
 16 17  2  0
 17 18  1  0
 17 19  1  0
 19 20  2  0
  2 21  1  0
 21 22  2  0
 22 23  1  0
 23 24  2  0
 24 25  1  0
 25 26  2  0
 26 27  1  0
 26 28  1  0
 28 29  2  0
 29 30  1  0
 30 31  2  0
 11  7  1  0
 20 14  1  0
 31 21  1  0
 30 24  1  0
  3 32  1  0
  4 33  1  0
  4 34  1  0
  8 35  1  0
  8 36  1  0
  9 37  1  0
  9 38  1  0
 10 39  1  0
 10 40  1  0
 11 41  1  6
 12 42  1  0
 12 43  1  0
 13 44  1  0
 15 45  1  0
 16 46  1  0
 19 47  1  0
 20 48  1  0
 22 49  1  0
 23 50  1  0
 25 51  1  0
 28 52  1  0
 29 53  1  0
M  END
>  <smiles>  (38) 
O=C(NCC(=O)N1CCC[C@H]1CNc1ccc(Cl)cc1)c1ccc2cc(Cl)ccc2n1

>  <score_type>  (38) 
oracle

>  <origin>  (38) 
autodockgpu

>  <m_score__min__energy>  (38) 
-8.6400000000000006

>  <m_primary>  (38) 
energy

>  <rmsd>  (38) 
6.194330298884106

>  <m_score__min__rmsd>  (38) 
6.194330298884106

>  <meeko>  (38) 
{"free_energy": -6.44, "intermolecular_energy": -8.53, "internal_energy": -3.24, "cluster_size": 4, "cluster_id": 15, "rank_in_cluster": 1}

>  <energy>  (38) 
-6.73

>  <cluster_rmsd>  (38) 
0.0

>  <cluster>  (38) 
12

$$$$

     RDKit          3D

 53 56  0  0  0  0  0  0  0  0999 V2000
  140.0140   72.3460  220.7560 O   0  0  0  0  0  0  0  0  0  0  0  0
  139.7210   72.6860  221.9390 C   0  0  0  0  0  0  0  0  0  0  0  0
  139.2480   74.0260  222.0980 N   0  0  0  0  0  0  0  0  0  0  0  0
  139.1500   74.8490  220.9330 C   0  0  0  0  0  0  0  0  0  0  0  0
  139.8030   76.1780  221.1210 C   0  0  0  0  0  0  0  0  0  0  0  0
  139.6590   76.8610  222.1750 O   0  0  0  0  0  0  0  0  0  0  0  0
  140.6300   76.6970  220.0530 N   0  0  0  0  0  0  0  0  0  0  0  0
  141.8150   77.4710  220.3410 C   0  0  0  0  0  0  0  0  0  0  0  0
  142.2390   78.0420  219.0430 C   0  0  0  0  0  0  0  0  0  0  0  0
  141.0900   77.7940  218.1020 C   0  0  0  0  0  0  0  0  0  0  0  0
  140.3940   76.5520  218.6520 C   0  0  1  0  0  0  0  0  0  0  0  0
  140.9040   75.3480  217.9590 C   0  0  0  0  0  0  0  0  0  0  0  0
  141.2840   74.2900  218.8390 N   0  0  0  0  0  0  0  0  0  0  0  0
  142.5150   74.1080  219.4810 C   0  0  0  0  0  0  0  0  0  0  0  0
  142.8040   72.9290  220.1500 C   0  0  0  0  0  0  0  0  0  0  0  0
  143.9890   72.7150  220.8210 C   0  0  0  0  0  0  0  0  0  0  0  0
  144.9610   73.6890  220.8550 C   0  0  0  0  0  0  0  0  0  0  0  0
  146.4430   73.3540  221.7230 Cl  0  0  0  0  0  0  0  0  0  0  0  0
  144.7070   74.8640  220.2050 C   0  0  0  0  0  0  0  0  0  0  0  0
  143.5180   75.0740  219.5340 C   0  0  0  0  0  0  0  0  0  0  0  0
  139.8510   71.7810  223.0740 C   0  0  0  0  0  0  0  0  0  0  0  0
  139.4150   70.4790  222.8970 C   0  0  0  0  0  0  0  0  0  0  0  0
  139.5200   69.5990  223.9440 C   0  0  0  0  0  0  0  0  0  0  0  0
  140.0500   69.9890  225.1590 C   0  0  0  0  0  0  0  0  0  0  0  0
  140.1410   69.0730  226.1890 C   0  0  0  0  0  0  0  0  0  0  0  0
  140.6820   69.5170  227.3920 C   0  0  0  0  0  0  0  0  0  0  0  0
  140.8040   68.3670  228.7110 Cl  0  0  0  0  0  0  0  0  0  0  0  0
  141.1000   70.8260  227.5140 C   0  0  0  0  0  0  0  0  0  0  0  0
  141.0120   71.7450  226.4850 C   0  0  0  0  0  0  0  0  0  0  0  0
  140.4730   71.2970  225.2940 C   0  0  0  0  0  0  0  0  0  0  0  0
  140.3650   72.1510  224.2600 N   0  0  0  0  0  0  0  0  0  0  0  0
  138.9870   74.3660  223.0680 H   0  0  0  0  0  0  0  0  0  0  0  0
  139.6362   74.3318  220.0927 H   0  0  0  0  0  0  0  0  0  0  0  0
  138.0824   75.0241  220.7338 H   0  0  0  0  0  0  0  0  0  0  0  0
  141.5854   78.2735  221.0575 H   0  0  0  0  0  0  0  0  0  0  0  0
  142.6055   76.8542  220.7934 H   0  0  0  0  0  0  0  0  0  0  0  0
  142.4299   79.1208  219.1412 H   0  0  0  0  0  0  0  0  0  0  0  0
  143.1710   77.5842  218.6799 H   0  0  0  0  0  0  0  0  0  0  0  0
  140.4023   78.6525  218.0960 H   0  0  0  0  0  0  0  0  0  0  0  0
  141.4269   77.6548  217.0642 H   0  0  0  0  0  0  0  0  0  0  0  0
  139.3133   76.4382  218.4815 H   0  0  0  0  0  0  0  0  0  0  0  0
  140.1158   74.9745  217.2888 H   0  0  0  0  0  0  0  0  0  0  0  0
  141.8111   75.6527  217.4166 H   0  0  0  0  0  0  0  0  0  0  0  0
  140.5420   73.5460  219.0340 H   0  0  0  0  0  0  0  0  0  0  0  0
  142.0522   72.1261  220.1453 H   0  0  0  0  0  0  0  0  0  0  0  0
  144.1594   71.7570  221.3340 H   0  0  0  0  0  0  0  0  0  0  0  0
  145.4661   75.6600  220.2164 H   0  0  0  0  0  0  0  0  0  0  0  0
  143.3576   76.0356  219.0246 H   0  0  0  0  0  0  0  0  0  0  0  0
  138.9921   70.1560  221.9343 H   0  0  0  0  0  0  0  0  0  0  0  0
  139.1755   68.5625  223.8138 H   0  0  0  0  0  0  0  0  0  0  0  0
  139.7997   68.0348  226.0635 H   0  0  0  0  0  0  0  0  0  0  0  0
  141.5231   71.1538  228.4750 H   0  0  0  0  0  0  0  0  0  0  0  0
  141.3545   72.7830  226.6083 H   0  0  0  0  0  0  0  0  0  0  0  0
  1  2  2  0
  2  3  1  0
  3  4  1  0
  4  5  1  0
  5  6  2  0
  5  7  1  0
  7  8  1  0
  8  9  1  0
  9 10  1  0
 10 11  1  0
 11 12  1  0
 12 13  1  0
 13 14  1  0
 14 15  2  0
 15 16  1  0
 16 17  2  0
 17 18  1  0
 17 19  1  0
 19 20  2  0
  2 21  1  0
 21 22  2  0
 22 23  1  0
 23 24  2  0
 24 25  1  0
 25 26  2  0
 26 27  1  0
 26 28  1  0
 28 29  2  0
 29 30  1  0
 30 31  2  0
 11  7  1  0
 20 14  1  0
 31 21  1  0
 30 24  1  0
  3 32  1  0
  4 33  1  0
  4 34  1  0
  8 35  1  0
  8 36  1  0
  9 37  1  0
  9 38  1  0
 10 39  1  0
 10 40  1  0
 11 41  1  1
 12 42  1  0
 12 43  1  0
 13 44  1  0
 15 45  1  0
 16 46  1  0
 19 47  1  0
 20 48  1  0
 22 49  1  0
 23 50  1  0
 25 51  1  0
 28 52  1  0
 29 53  1  0
M  END
>  <smiles>  (39) 
O=C(NCC(=O)N1CCC[C@H]1CNc1ccc(Cl)cc1)c1ccc2cc(Cl)ccc2n1

>  <score_type>  (39) 
oracle

>  <origin>  (39) 
autodockgpu

>  <m_score__min__energy>  (39) 
-8.6400000000000006

>  <m_primary>  (39) 
energy

>  <rmsd>  (39) 
4.107536025539019

>  <m_score__min__rmsd>  (39) 
4.107536025539019

>  <meeko>  (39) 
{"free_energy": -7.94, "intermolecular_energy": -10.03, "internal_energy": -2.82, "cluster_size": 8, "cluster_id": 1, "rank_in_cluster": 5}

>  <energy>  (39) 
-5.94

>  <cluster_rmsd>  (39) 
1.22

>  <cluster>  (39) 
12

$$$$

     RDKit          3D

 53 56  0  0  0  0  0  0  0  0999 V2000
  138.4310   76.5110  220.1370 O   0  0  0  0  0  0  0  0  0  0  0  0
  138.2310   76.3960  221.3810 C   0  0  0  0  0  0  0  0  0  0  0  0
  138.5950   75.1350  221.9520 N   0  0  0  0  0  0  0  0  0  0  0  0
  139.1400   74.1360  221.0860 C   0  0  0  0  0  0  0  0  0  0  0  0
  140.4050   73.5510  221.6210 C   0  0  0  0  0  0  0  0  0  0  0  0
  140.4680   72.9950  222.7540 O   0  0  0  0  0  0  0  0  0  0  0  0
  141.5980   73.6280  220.8070 N   0  0  0  0  0  0  0  0  0  0  0  0
  141.9810   72.5340  219.9450 C   0  0  0  0  0  0  0  0  0  0  0  0
  143.3530   72.8510  219.4890 C   0  0  0  0  0  0  0  0  0  0  0  0
  143.8080   73.9960  220.3550 C   0  0  0  0  0  0  0  0  0  0  0  0
  142.5240   74.7150  220.7610 C   0  0  1  0  0  0  0  0  0  0  0  0
  142.2680   75.8370  219.8310 C   0  0  0  0  0  0  0  0  0  0  0  0
  141.2930   76.7680  220.3010 N   0  0  0  0  0  0  0  0  0  0  0  0
  141.4750   77.8180  221.2080 C   0  0  0  0  0  0  0  0  0  0  0  0
  141.8200   79.0880  220.7720 C   0  0  0  0  0  0  0  0  0  0  0  0
  142.0380   80.1450  221.6290 C   0  0  0  0  0  0  0  0  0  0  0  0
  141.9190   79.9800  222.9910 C   0  0  0  0  0  0  0  0  0  0  0  0
  142.2080   81.3620  224.0240 Cl  0  0  0  0  0  0  0  0  0  0  0  0
  141.5800   78.7400  223.4540 C   0  0  0  0  0  0  0  0  0  0  0  0
  141.3620   77.6830  222.5910 C   0  0  0  0  0  0  0  0  0  0  0  0
  137.6700   77.4680  222.1920 C   0  0  0  0  0  0  0  0  0  0  0  0
  136.3000   77.4620  222.3860 C   0  0  0  0  0  0  0  0  0  0  0  0
  135.7340   78.4560  223.1430 C   0  0  0  0  0  0  0  0  0  0  0  0
  136.5060   79.4530  223.7100 C   0  0  0  0  0  0  0  0  0  0  0  0
  135.9000   80.4370  224.4670 C   0  0  0  0  0  0  0  0  0  0  0  0
  136.7220   81.4170  225.0140 C   0  0  0  0  0  0  0  0  0  0  0  0
  135.9700   82.6750  225.9780 Cl  0  0  0  0  0  0  0  0  0  0  0  0
  138.0820   81.3760  224.7890 C   0  0  0  0  0  0  0  0  0  0  0  0
  138.6920   80.3930  224.0310 C   0  0  0  0  0  0  0  0  0  0  0  0
  137.8690   79.4230  223.4910 C   0  0  0  0  0  0  0  0  0  0  0  0
  138.4120   78.4430  222.7470 N   0  0  0  0  0  0  0  0  0  0  0  0
  138.4510   74.9820  222.9910 H   0  0  0  0  0  0  0  0  0  0  0  0
  138.4007   73.3303  220.9661 H   0  0  0  0  0  0  0  0  0  0  0  0
  139.3717   74.6153  220.1234 H   0  0  0  0  0  0  0  0  0  0  0  0
  141.9704   71.5848  220.5008 H   0  0  0  0  0  0  0  0  0  0  0  0
  141.2867   72.4183  219.0997 H   0  0  0  0  0  0  0  0  0  0  0  0
  144.0134   71.9815  219.6225 H   0  0  0  0  0  0  0  0  0  0  0  0
  143.3790   73.1109  218.4205 H   0  0  0  0  0  0  0  0  0  0  0  0
  144.3398   73.6226  221.2425 H   0  0  0  0  0  0  0  0  0  0  0  0
  144.5068   74.6620  219.8277 H   0  0  0  0  0  0  0  0  0  0  0  0
  142.5017   75.2444  221.7250 H   0  0  0  0  0  0  0  0  0  0  0  0
  143.2131   76.3766  219.6711 H   0  0  0  0  0  0  0  0  0  0  0  0
  141.8695   75.3985  218.9042 H   0  0  0  0  0  0  0  0  0  0  0  0
  140.3020   76.6520  219.9150 H   0  0  0  0  0  0  0  0  0  0  0  0
  141.9247   79.2602  219.6906 H   0  0  0  0  0  0  0  0  0  0  0  0
  142.3096   81.1299  221.2212 H   0  0  0  0  0  0  0  0  0  0  0  0
  141.4784   78.5796  224.5375 H   0  0  0  0  0  0  0  0  0  0  0  0
  141.0903   76.7025  223.0091 H   0  0  0  0  0  0  0  0  0  0  0  0
  135.6754   76.6735  221.9407 H   0  0  0  0  0  0  0  0  0  0  0  0
  134.6455   78.4600  223.3019 H   0  0  0  0  0  0  0  0  0  0  0  0
  134.8122   80.4453  224.6305 H   0  0  0  0  0  0  0  0  0  0  0  0
  138.7109   82.1617  225.2331 H   0  0  0  0  0  0  0  0  0  0  0  0
  139.7795   80.3837  223.8660 H   0  0  0  0  0  0  0  0  0  0  0  0
  1  2  2  0
  2  3  1  0
  3  4  1  0
  4  5  1  0
  5  6  2  0
  5  7  1  0
  7  8  1  0
  8  9  1  0
  9 10  1  0
 10 11  1  0
 11 12  1  0
 12 13  1  0
 13 14  1  0
 14 15  2  0
 15 16  1  0
 16 17  2  0
 17 18  1  0
 17 19  1  0
 19 20  2  0
  2 21  1  0
 21 22  2  0
 22 23  1  0
 23 24  2  0
 24 25  1  0
 25 26  2  0
 26 27  1  0
 26 28  1  0
 28 29  2  0
 29 30  1  0
 30 31  2  0
 11  7  1  0
 20 14  1  0
 31 21  1  0
 30 24  1  0
  3 32  1  0
  4 33  1  0
  4 34  1  0
  8 35  1  0
  8 36  1  0
  9 37  1  0
  9 38  1  0
 10 39  1  0
 10 40  1  0
 11 41  1  1
 12 42  1  0
 12 43  1  0
 13 44  1  0
 15 45  1  0
 16 46  1  0
 19 47  1  0
 20 48  1  0
 22 49  1  0
 23 50  1  0
 25 51  1  0
 28 52  1  0
 29 53  1  0
M  END
>  <smiles>  (40) 
O=C(NCC(=O)N1CCC[C@H]1CNc1ccc(Cl)cc1)c1ccc2cc(Cl)ccc2n1

>  <score_type>  (40) 
oracle

>  <origin>  (40) 
autodockgpu

>  <m_score__min__energy>  (40) 
-8.6400000000000006

>  <m_primary>  (40) 
energy

>  <rmsd>  (40) 
6.749481657834998

>  <m_score__min__rmsd>  (40) 
6.749481657834998

>  <meeko>  (40) 
{"free_energy": -6.8, "intermolecular_energy": -8.88, "internal_energy": -3.33, "cluster_size": 3, "cluster_id": 11, "rank_in_cluster": 2}

>  <energy>  (40) 
-5.93

>  <cluster_rmsd>  (40) 
1.62

>  <cluster>  (40) 
12

$$$$

     RDKit          3D

 53 56  0  0  0  0  0  0  0  0999 V2000
  140.1000   74.3710  222.2750 O   0  0  0  0  0  0  0  0  0  0  0  0
  140.4180   75.0480  221.2540 C   0  0  0  0  0  0  0  0  0  0  0  0
  140.8160   74.2890  220.1090 N   0  0  0  0  0  0  0  0  0  0  0  0
  140.8220   72.8640  220.2140 C   0  0  0  0  0  0  0  0  0  0  0  0
  141.9910   72.3580  220.9930 C   0  0  0  0  0  0  0  0  0  0  0  0
  141.8610   71.5770  221.9780 O   0  0  0  0  0  0  0  0  0  0  0  0
  143.3170   72.7810  220.5990 N   0  0  0  0  0  0  0  0  0  0  0  0
  144.3180   71.8180  220.2070 C   0  0  0  0  0  0  0  0  0  0  0  0
  145.5890   72.5750  220.1360 C   0  0  0  0  0  0  0  0  0  0  0  0
  145.2990   73.9050  220.7800 C   0  0  0  0  0  0  0  0  0  0  0  0
  143.8030   74.1250  220.5690 C   0  0  1  0  0  0  0  0  0  0  0  0
  143.5870   74.9390  219.3530 C   0  0  0  0  0  0  0  0  0  0  0  0
  143.0290   76.2280  219.6100 N   0  0  0  0  0  0  0  0  0  0  0  0
  142.4710   77.1210  218.6880 C   0  0  0  0  0  0  0  0  0  0  0  0
  142.9240   78.4280  218.5940 C   0  0  0  0  0  0  0  0  0  0  0  0
  142.3860   79.3510  217.7240 C   0  0  0  0  0  0  0  0  0  0  0  0
  141.3500   79.0040  216.8860 C   0  0  0  0  0  0  0  0  0  0  0  0
  140.7130   80.2230  215.8030 Cl  0  0  0  0  0  0  0  0  0  0  0  0
  140.8800   77.7230  216.9530 C   0  0  0  0  0  0  0  0  0  0  0  0
  141.4220   76.8010  217.8280 C   0  0  0  0  0  0  0  0  0  0  0  0
  140.3840   76.5040  221.2320 C   0  0  0  0  0  0  0  0  0  0  0  0
  139.3020   77.1020  220.6100 C   0  0  0  0  0  0  0  0  0  0  0  0
  139.2360   78.4710  220.5690 C   0  0  0  0  0  0  0  0  0  0  0  0
  140.2240   79.2550  221.1340 C   0  0  0  0  0  0  0  0  0  0  0  0
  140.1220   80.6320  221.0730 C   0  0  0  0  0  0  0  0  0  0  0  0
  141.1440   81.3740  221.6570 C   0  0  0  0  0  0  0  0  0  0  0  0
  141.0310   83.1220  221.5890 Cl  0  0  0  0  0  0  0  0  0  0  0  0
  142.2000   80.7270  222.2650 C   0  0  0  0  0  0  0  0  0  0  0  0
  142.3060   79.3490  222.3280 C   0  0  0  0  0  0  0  0  0  0  0  0
  141.2870   78.6190  221.7450 C   0  0  0  0  0  0  0  0  0  0  0  0
  141.3410   77.2760  221.7800 N   0  0  0  0  0  0  0  0  0  0  0  0
  141.0930   74.8040  219.2240 H   0  0  0  0  0  0  0  0  0  0  0  0
  139.8971   72.5423  220.7151 H   0  0  0  0  0  0  0  0  0  0  0  0
  140.8919   72.4519  219.1965 H   0  0  0  0  0  0  0  0  0  0  0  0
  144.3908   71.0136  220.9537 H   0  0  0  0  0  0  0  0  0  0  0  0
  144.0723   71.3421  219.2462 H   0  0  0  0  0  0  0  0  0  0  0  0
  146.3827   72.0467  220.6846 H   0  0  0  0  0  0  0  0  0  0  0  0
  145.9392   72.6901  219.0996 H   0  0  0  0  0  0  0  0  0  0  0  0
  145.5384   73.8759  221.8532 H   0  0  0  0  0  0  0  0  0  0  0  0
  145.9023   74.7159  220.3459 H   0  0  0  0  0  0  0  0  0  0  0  0
  143.2510   74.7219  221.3100 H   0  0  0  0  0  0  0  0  0  0  0  0
  144.5562   75.0752  218.8510 H   0  0  0  0  0  0  0  0  0  0  0  0
  142.8610   74.3956  218.7304 H   0  0  0  0  0  0  0  0  0  0  0  0
  143.0360   76.5530  220.6280 H   0  0  0  0  0  0  0  0  0  0  0  0
  143.7526   78.7431  219.2452 H   0  0  0  0  0  0  0  0  0  0  0  0
  142.7878   80.3747  217.6986 H   0  0  0  0  0  0  0  0  0  0  0  0
  140.0519   77.4188  216.2960 H   0  0  0  0  0  0  0  0  0  0  0  0
  141.0118   75.7805  217.8464 H   0  0  0  0  0  0  0  0  0  0  0  0
  138.5087   76.4897  220.1564 H   0  0  0  0  0  0  0  0  0  0  0  0
  138.3796   78.9549  220.0766 H   0  0  0  0  0  0  0  0  0  0  0  0
  139.2676   81.1215  220.5827 H   0  0  0  0  0  0  0  0  0  0  0  0
  142.9950   81.3353  222.7211 H   0  0  0  0  0  0  0  0  0  0  0  0
  143.1596   78.8581  222.8182 H   0  0  0  0  0  0  0  0  0  0  0  0
  1  2  2  0
  2  3  1  0
  3  4  1  0
  4  5  1  0
  5  6  2  0
  5  7  1  0
  7  8  1  0
  8  9  1  0
  9 10  1  0
 10 11  1  0
 11 12  1  0
 12 13  1  0
 13 14  1  0
 14 15  2  0
 15 16  1  0
 16 17  2  0
 17 18  1  0
 17 19  1  0
 19 20  2  0
  2 21  1  0
 21 22  2  0
 22 23  1  0
 23 24  2  0
 24 25  1  0
 25 26  2  0
 26 27  1  0
 26 28  1  0
 28 29  2  0
 29 30  1  0
 30 31  2  0
 11  7  1  0
 20 14  1  0
 31 21  1  0
 30 24  1  0
  3 32  1  0
  4 33  1  0
  4 34  1  0
  8 35  1  0
  8 36  1  0
  9 37  1  0
  9 38  1  0
 10 39  1  0
 10 40  1  0
 11 41  1  1
 12 42  1  0
 12 43  1  0
 13 44  1  0
 15 45  1  0
 16 46  1  0
 19 47  1  0
 20 48  1  0
 22 49  1  0
 23 50  1  0
 25 51  1  0
 28 52  1  0
 29 53  1  0
M  END
>  <smiles>  (41) 
O=C(NCC(=O)N1CCC[C@H]1CNc1ccc(Cl)cc1)c1ccc2cc(Cl)ccc2n1

>  <score_type>  (41) 
oracle

>  <origin>  (41) 
autodockgpu

>  <m_score__min__energy>  (41) 
-8.6400000000000006

>  <m_primary>  (41) 
energy

>  <rmsd>  (41) 
7.358614313395603

>  <m_score__min__rmsd>  (41) 
7.358614313395603

>  <meeko>  (41) 
{"free_energy": -5.93, "intermolecular_energy": -8.01, "internal_energy": -3.58, "cluster_size": 3, "cluster_id": 12, "rank_in_cluster": 3}

>  <energy>  (41) 
-6.72

>  <cluster_rmsd>  (41) 
0.0

>  <cluster>  (41) 
13

$$$$

     RDKit          3D

 53 56  0  0  0  0  0  0  0  0999 V2000
  137.6280   71.0870  220.9840 O   0  0  0  0  0  0  0  0  0  0  0  0
  138.1490   71.6340  221.9990 C   0  0  0  0  0  0  0  0  0  0  0  0
  138.2200   73.0630  221.9630 N   0  0  0  0  0  0  0  0  0  0  0  0
  137.7080   73.7330  220.8090 C   0  0  0  0  0  0  0  0  0  0  0  0
  136.4320   74.4550  221.0920 C   0  0  0  0  0  0  0  0  0  0  0  0
  136.2240   75.6400  220.7070 O   0  0  0  0  0  0  0  0  0  0  0  0
  135.4010   73.7640  221.8370 N   0  0  0  0  0  0  0  0  0  0  0  0
  134.8400   72.5250  221.3550 C   0  0  0  0  0  0  0  0  0  0  0  0
  133.6620   72.2630  222.2120 C   0  0  0  0  0  0  0  0  0  0  0  0
  133.4340   73.5380  222.9790 C   0  0  0  0  0  0  0  0  0  0  0  0
  134.8090   74.1960  223.0640 C   0  0  1  0  0  0  0  0  0  0  0  0
  135.4570   73.8290  224.3420 C   0  0  0  0  0  0  0  0  0  0  0  0
  136.0570   72.5330  224.3360 N   0  0  0  0  0  0  0  0  0  0  0  0
  135.4550   71.3060  224.6370 C   0  0  0  0  0  0  0  0  0  0  0  0
  134.6270   71.1670  225.7400 C   0  0  0  0  0  0  0  0  0  0  0  0
  134.0360   69.9730  226.0920 C   0  0  0  0  0  0  0  0  0  0  0  0
  134.2470   68.8380  225.3420 C   0  0  0  0  0  0  0  0  0  0  0  0
  133.4650   67.3540  225.8420 Cl  0  0  0  0  0  0  0  0  0  0  0  0
  135.0570   68.9410  224.2470 C   0  0  0  0  0  0  0  0  0  0  0  0
  135.6480   70.1400  223.8980 C   0  0  0  0  0  0  0  0  0  0  0  0
  138.6480   70.8730  223.1360 C   0  0  0  0  0  0  0  0  0  0  0  0
  138.5920   69.4930  223.0460 C   0  0  0  0  0  0  0  0  0  0  0  0
  139.0510   68.7430  224.0980 C   0  0  0  0  0  0  0  0  0  0  0  0
  139.5650   69.3380  225.2350 C   0  0  0  0  0  0  0  0  0  0  0  0
  140.0190   68.5480  226.2730 C   0  0  0  0  0  0  0  0  0  0  0  0
  140.5260   69.1980  227.3940 C   0  0  0  0  0  0  0  0  0  0  0  0
  141.1070   68.2110  228.7220 Cl  0  0  0  0  0  0  0  0  0  0  0  0
  140.5590   70.5770  227.4320 C   0  0  0  0  0  0  0  0  0  0  0  0
  140.1050   71.3710  226.3940 C   0  0  0  0  0  0  0  0  0  0  0  0
  139.6030   70.7180  225.2850 C   0  0  0  0  0  0  0  0  0  0  0  0
  139.1500   71.4440  224.2460 N   0  0  0  0  0  0  0  0  0  0  0  0
  138.6470   73.5750  222.7870 H   0  0  0  0  0  0  0  0  0  0  0  0
  138.4563   74.4604  220.4613 H   0  0  0  0  0  0  0  0  0  0  0  0
  137.5008   72.9718  220.0424 H   0  0  0  0  0  0  0  0  0  0  0  0
  134.5351   72.6249  220.3028 H   0  0  0  0  0  0  0  0  0  0  0  0
  135.5688   71.7023  221.4013 H   0  0  0  0  0  0  0  0  0  0  0  0
  132.7834   72.0225  221.5954 H   0  0  0  0  0  0  0  0  0  0  0  0
  133.8262   71.4063  222.8822 H   0  0  0  0  0  0  0  0  0  0  0  0
  132.7256   74.1891  222.4458 H   0  0  0  0  0  0  0  0  0  0  0  0
  133.0017   73.3517  223.9732 H   0  0  0  0  0  0  0  0  0  0  0  0
  134.8630   75.2932  223.1201 H   0  0  0  0  0  0  0  0  0  0  0  0
  136.2389   74.5715  224.5595 H   0  0  0  0  0  0  0  0  0  0  0  0
  134.6666   73.8111  225.1069 H   0  0  0  0  0  0  0  0  0  0  0  0
  137.0920   72.4910  224.0700 H   0  0  0  0  0  0  0  0  0  0  0  0
  134.4325   72.0518  226.3639 H   0  0  0  0  0  0  0  0  0  0  0  0
  133.3895   69.9263  226.9807 H   0  0  0  0  0  0  0  0  0  0  0  0
  135.2428   68.0498  223.6295 H   0  0  0  0  0  0  0  0  0  0  0  0
  136.2924   70.1757  223.0072 H   0  0  0  0  0  0  0  0  0  0  0  0
  138.1865   69.0066  222.1466 H   0  0  0  0  0  0  0  0  0  0  0  0
  139.0094   67.6455  224.0360 H   0  0  0  0  0  0  0  0  0  0  0  0
  139.9813   67.4501  226.2158 H   0  0  0  0  0  0  0  0  0  0  0  0
  140.9650   71.0676  228.3290 H   0  0  0  0  0  0  0  0  0  0  0  0
  140.1420   72.4690  226.4491 H   0  0  0  0  0  0  0  0  0  0  0  0
  1  2  2  0
  2  3  1  0
  3  4  1  0
  4  5  1  0
  5  6  2  0
  5  7  1  0
  7  8  1  0
  8  9  1  0
  9 10  1  0
 10 11  1  0
 11 12  1  0
 12 13  1  0
 13 14  1  0
 14 15  2  0
 15 16  1  0
 16 17  2  0
 17 18  1  0
 17 19  1  0
 19 20  2  0
  2 21  1  0
 21 22  2  0
 22 23  1  0
 23 24  2  0
 24 25  1  0
 25 26  2  0
 26 27  1  0
 26 28  1  0
 28 29  2  0
 29 30  1  0
 30 31  2  0
 11  7  1  0
 20 14  1  0
 31 21  1  0
 30 24  1  0
  3 32  1  0
  4 33  1  0
  4 34  1  0
  8 35  1  0
  8 36  1  0
  9 37  1  0
  9 38  1  0
 10 39  1  0
 10 40  1  0
 11 41  1  6
 12 42  1  0
 12 43  1  0
 13 44  1  0
 15 45  1  0
 16 46  1  0
 19 47  1  0
 20 48  1  0
 22 49  1  0
 23 50  1  0
 25 51  1  0
 28 52  1  0
 29 53  1  0
M  END
>  <smiles>  (42) 
O=C(NCC(=O)N1CCC[C@H]1CNc1ccc(Cl)cc1)c1ccc2cc(Cl)ccc2n1

>  <score_type>  (42) 
oracle

>  <origin>  (42) 
autodockgpu

>  <m_score__min__energy>  (42) 
-8.6400000000000006

>  <m_primary>  (42) 
energy

>  <rmsd>  (42) 
7.177617971544537

>  <m_score__min__rmsd>  (42) 
7.177617971544537

>  <meeko>  (42) 
{"free_energy": -6.05, "intermolecular_energy": -8.14, "internal_energy": -3.57, "cluster_size": 1, "cluster_id": 18, "rank_in_cluster": 1}

>  <energy>  (42) 
-6.58

>  <cluster_rmsd>  (42) 
0.0

>  <cluster>  (42) 
14

$$$$

     RDKit          3D

 53 56  0  0  0  0  0  0  0  0999 V2000
  140.1450   72.4750  220.9230 O   0  0  0  0  0  0  0  0  0  0  0  0
  139.8880   72.7890  222.1220 C   0  0  0  0  0  0  0  0  0  0  0  0
  139.5200   74.1540  222.3390 N   0  0  0  0  0  0  0  0  0  0  0  0
  139.4760   75.0270  221.2080 C   0  0  0  0  0  0  0  0  0  0  0  0
  139.3480   76.4610  221.6040 C   0  0  0  0  0  0  0  0  0  0  0  0
  138.5320   76.8500  222.4870 O   0  0  0  0  0  0  0  0  0  0  0  0
  140.1910   77.4360  220.9460 N   0  0  0  0  0  0  0  0  0  0  0  0
  141.2580   78.0960  221.6610 C   0  0  0  0  0  0  0  0  0  0  0  0
  141.7150   79.1870  220.7700 C   0  0  0  0  0  0  0  0  0  0  0  0
  140.6750   79.2790  219.6850 C   0  0  0  0  0  0  0  0  0  0  0  0
  140.0800   77.8760  219.5910 C   0  0  1  0  0  0  0  0  0  0  0  0
  140.7720   77.1130  218.5300 C   0  0  0  0  0  0  0  0  0  0  0  0
  140.9920   75.7400  218.8530 N   0  0  0  0  0  0  0  0  0  0  0  0
  142.1670   75.1470  219.3300 C   0  0  0  0  0  0  0  0  0  0  0  0
  142.2640   73.7730  219.4830 C   0  0  0  0  0  0  0  0  0  0  0  0
  143.3890   73.1480  219.9750 C   0  0  0  0  0  0  0  0  0  0  0  0
  144.4940   73.8810  220.3450 C   0  0  0  0  0  0  0  0  0  0  0  0
  145.8900   73.0260  220.9630 Cl  0  0  0  0  0  0  0  0  0  0  0  0
  144.4310   75.2390  220.2070 C   0  0  0  0  0  0  0  0  0  0  0  0
  143.3010   75.8620  219.7130 C   0  0  0  0  0  0  0  0  0  0  0  0
  139.9570   71.8330  223.2190 C   0  0  0  0  0  0  0  0  0  0  0  0
  139.4920   70.5530  222.9720 C   0  0  0  0  0  0  0  0  0  0  0  0
  139.5410   69.6250  223.9810 C   0  0  0  0  0  0  0  0  0  0  0  0
  140.0420   69.9460  225.2280 C   0  0  0  0  0  0  0  0  0  0  0  0
  140.0750   68.9840  226.2190 C   0  0  0  0  0  0  0  0  0  0  0  0
  140.5890   69.3600  227.4560 C   0  0  0  0  0  0  0  0  0  0  0  0
  140.6390   68.1510  228.7260 Cl  0  0  0  0  0  0  0  0  0  0  0  0
  141.0390   70.6500  227.6490 C   0  0  0  0  0  0  0  0  0  0  0  0
  141.0080   71.6160  226.6590 C   0  0  0  0  0  0  0  0  0  0  0  0
  140.4950   71.2350  225.4340 C   0  0  0  0  0  0  0  0  0  0  0  0
  140.4430   72.1360  224.4360 N   0  0  0  0  0  0  0  0  0  0  0  0
  139.2930   74.4730  223.3240 H   0  0  0  0  0  0  0  0  0  0  0  0
  140.4021   74.9015  220.6279 H   0  0  0  0  0  0  0  0  0  0  0  0
  138.5900   74.7619  220.6124 H   0  0  0  0  0  0  0  0  0  0  0  0
  140.8874   78.5060  222.6121 H   0  0  0  0  0  0  0  0  0  0  0  0
  142.0745   77.4016  221.9081 H   0  0  0  0  0  0  0  0  0  0  0  0
  141.7783   80.1353  221.3239 H   0  0  0  0  0  0  0  0  0  0  0  0
  142.7167   78.9887  220.3609 H   0  0  0  0  0  0  0  0  0  0  0  0
  139.8992   80.0112  219.9536 H   0  0  0  0  0  0  0  0  0  0  0  0
  141.1033   79.6121  218.7281 H   0  0  0  0  0  0  0  0  0  0  0  0
  139.0350   77.7699  219.2644 H   0  0  0  0  0  0  0  0  0  0  0  0
  140.1619   77.1600  217.6159 H   0  0  0  0  0  0  0  0  0  0  0  0
  141.7629   77.5729  218.4014 H   0  0  0  0  0  0  0  0  0  0  0  0
  140.1610   75.0810  218.7150 H   0  0  0  0  0  0  0  0  0  0  0  0
  141.4019   73.1520  219.1981 H   0  0  0  0  0  0  0  0  0  0  0  0
  143.4044   72.0525  220.0731 H   0  0  0  0  0  0  0  0  0  0  0  0
  145.2992   75.8498  220.4956 H   0  0  0  0  0  0  0  0  0  0  0  0
  143.2959   76.9579  219.6188 H   0  0  0  0  0  0  0  0  0  0  0  0
  139.0902   70.2846  221.9838 H   0  0  0  0  0  0  0  0  0  0  0  0
  139.1741   68.6050  223.7936 H   0  0  0  0  0  0  0  0  0  0  0  0
  139.7098   67.9624  226.0375 H   0  0  0  0  0  0  0  0  0  0  0  0
  141.4411   70.9231  228.6358 H   0  0  0  0  0  0  0  0  0  0  0  0
  141.3740   72.6377  226.8384 H   0  0  0  0  0  0  0  0  0  0  0  0
  1  2  2  0
  2  3  1  0
  3  4  1  0
  4  5  1  0
  5  6  2  0
  5  7  1  0
  7  8  1  0
  8  9  1  0
  9 10  1  0
 10 11  1  0
 11 12  1  0
 12 13  1  0
 13 14  1  0
 14 15  2  0
 15 16  1  0
 16 17  2  0
 17 18  1  0
 17 19  1  0
 19 20  2  0
  2 21  1  0
 21 22  2  0
 22 23  1  0
 23 24  2  0
 24 25  1  0
 25 26  2  0
 26 27  1  0
 26 28  1  0
 28 29  2  0
 29 30  1  0
 30 31  2  0
 11  7  1  0
 20 14  1  0
 31 21  1  0
 30 24  1  0
  3 32  1  0
  4 33  1  0
  4 34  1  0
  8 35  1  0
  8 36  1  0
  9 37  1  0
  9 38  1  0
 10 39  1  0
 10 40  1  0
 11 41  1  6
 12 42  1  0
 12 43  1  0
 13 44  1  0
 15 45  1  0
 16 46  1  0
 19 47  1  0
 20 48  1  0
 22 49  1  0
 23 50  1  0
 25 51  1  0
 28 52  1  0
 29 53  1  0
M  END
>  <smiles>  (43) 
O=C(NCC(=O)N1CCC[C@H]1CNc1ccc(Cl)cc1)c1ccc2cc(Cl)ccc2n1

>  <score_type>  (43) 
oracle

>  <origin>  (43) 
autodockgpu

>  <m_score__min__energy>  (43) 
-8.6400000000000006

>  <m_primary>  (43) 
energy

>  <rmsd>  (43) 
4.061682309582813

>  <m_score__min__rmsd>  (43) 
4.061682309582813

>  <meeko>  (43) 
{"free_energy": -7.87, "intermolecular_energy": -9.95, "internal_energy": -2.17, "cluster_size": 8, "cluster_id": 1, "rank_in_cluster": 6}

>  <energy>  (43) 
-6.57

>  <cluster_rmsd>  (43) 
0.37

>  <cluster>  (43) 
14

$$$$

     RDKit          3D

 53 56  0  0  0  0  0  0  0  0999 V2000
  140.6700   72.6080  220.7920 O   0  0  0  0  0  0  0  0  0  0  0  0
  140.2830   72.9150  221.9570 C   0  0  0  0  0  0  0  0  0  0  0  0
  139.8820   74.2770  222.1370 N   0  0  0  0  0  0  0  0  0  0  0  0
  139.9520   75.1540  221.0110 C   0  0  0  0  0  0  0  0  0  0  0  0
  140.3360   76.5440  221.3970 C   0  0  0  0  0  0  0  0  0  0  0  0
  140.0250   77.0470  222.5140 O   0  0  0  0  0  0  0  0  0  0  0  0
  141.0920   77.3380  220.4530 N   0  0  0  0  0  0  0  0  0  0  0  0
  141.1410   78.7770  220.5640 C   0  0  0  0  0  0  0  0  0  0  0  0
  141.7630   79.2500  219.3070 C   0  0  0  0  0  0  0  0  0  0  0  0
  141.7830   78.0520  218.3950 C   0  0  0  0  0  0  0  0  0  0  0  0
  141.8280   76.8470  219.3310 C   0  0  1  0  0  0  0  0  0  0  0  0
  143.2310   76.4200  219.5240 C   0  0  0  0  0  0  0  0  0  0  0  0
  143.3760   75.2590  220.3430 N   0  0  0  0  0  0  0  0  0  0  0  0
  144.0200   74.0580  220.0250 C   0  0  0  0  0  0  0  0  0  0  0  0
  143.3770   73.0740  219.2910 C   0  0  0  0  0  0  0  0  0  0  0  0
  143.9600   71.8650  218.9790 C   0  0  0  0  0  0  0  0  0  0  0  0
  145.2410   71.5770  219.3920 C   0  0  0  0  0  0  0  0  0  0  0  0
  145.9240   70.0240  218.9610 Cl  0  0  0  0  0  0  0  0  0  0  0  0
  145.9040   72.5260  220.1180 C   0  0  0  0  0  0  0  0  0  0  0  0
  145.3150   73.7360  220.4290 C   0  0  0  0  0  0  0  0  0  0  0  0
  140.2430   71.9560  223.0530 C   0  0  0  0  0  0  0  0  0  0  0  0
  139.7300   70.7010  222.7750 C   0  0  0  0  0  0  0  0  0  0  0  0
  139.6760   69.7710  223.7810 C   0  0  0  0  0  0  0  0  0  0  0  0
  140.1210   70.0660  225.0560 C   0  0  0  0  0  0  0  0  0  0  0  0
  140.0510   69.1020  226.0440 C   0  0  0  0  0  0  0  0  0  0  0  0
  140.5120   69.4510  227.3090 C   0  0  0  0  0  0  0  0  0  0  0  0
  140.4290   68.2400  228.5750 Cl  0  0  0  0  0  0  0  0  0  0  0  0
  141.0130   70.7170  227.5320 C   0  0  0  0  0  0  0  0  0  0  0  0
  141.0850   71.6840  226.5460 C   0  0  0  0  0  0  0  0  0  0  0  0
  140.6250   71.3300  225.2920 C   0  0  0  0  0  0  0  0  0  0  0  0
  140.6740   72.2330  224.2970 N   0  0  0  0  0  0  0  0  0  0  0  0
  139.5490   74.5900  223.0930 H   0  0  0  0  0  0  0  0  0  0  0  0
  140.6998   74.7638  220.3050 H   0  0  0  0  0  0  0  0  0  0  0  0
  138.9518   75.1961  220.5552 H   0  0  0  0  0  0  0  0  0  0  0  0
  140.1266   79.1891  220.6697 H   0  0  0  0  0  0  0  0  0  0  0  0
  141.7115   79.0988  221.4477 H   0  0  0  0  0  0  0  0  0  0  0  0
  141.1665   80.0610  218.8639 H   0  0  0  0  0  0  0  0  0  0  0  0
  142.7728   79.6520  219.4764 H   0  0  0  0  0  0  0  0  0  0  0  0
  140.8768   78.0246  217.7720 H   0  0  0  0  0  0  0  0  0  0  0  0
  142.6385   78.0718  217.7038 H   0  0  0  0  0  0  0  0  0  0  0  0
  141.3763   75.9028  218.9927 H   0  0  0  0  0  0  0  0  0  0  0  0
  143.6660   76.2039  218.5370 H   0  0  0  0  0  0  0  0  0  0  0  0
  143.7461   77.2422  220.0423 H   0  0  0  0  0  0  0  0  0  0  0  0
  142.9410   75.3100  221.3190 H   0  0  0  0  0  0  0  0  0  0  0  0
  142.3523   73.2672  218.9407 H   0  0  0  0  0  0  0  0  0  0  0  0
  143.3963   71.1231  218.3944 H   0  0  0  0  0  0  0  0  0  0  0  0
  146.9287   72.3219  220.4621 H   0  0  0  0  0  0  0  0  0  0  0  0
  145.8869   74.4704  221.0152 H   0  0  0  0  0  0  0  0  0  0  0  0
  139.3719   70.4540  221.7647 H   0  0  0  0  0  0  0  0  0  0  0  0
  139.2706   68.7706  223.5693 H   0  0  0  0  0  0  0  0  0  0  0  0
  139.6472   68.0997  225.8383 H   0  0  0  0  0  0  0  0  0  0  0  0
  141.3718   70.9689  228.5409 H   0  0  0  0  0  0  0  0  0  0  0  0
  141.4890   72.6866  226.7501 H   0  0  0  0  0  0  0  0  0  0  0  0
  1  2  2  0
  2  3  1  0
  3  4  1  0
  4  5  1  0
  5  6  2  0
  5  7  1  0
  7  8  1  0
  8  9  1  0
  9 10  1  0
 10 11  1  0
 11 12  1  0
 12 13  1  0
 13 14  1  0
 14 15  2  0
 15 16  1  0
 16 17  2  0
 17 18  1  0
 17 19  1  0
 19 20  2  0
  2 21  1  0
 21 22  2  0
 22 23  1  0
 23 24  2  0
 24 25  1  0
 25 26  2  0
 26 27  1  0
 26 28  1  0
 28 29  2  0
 29 30  1  0
 30 31  2  0
 11  7  1  0
 20 14  1  0
 31 21  1  0
 30 24  1  0
  3 32  1  0
  4 33  1  0
  4 34  1  0
  8 35  1  0
  8 36  1  0
  9 37  1  0
  9 38  1  0
 10 39  1  0
 10 40  1  0
 11 41  1  6
 12 42  1  0
 12 43  1  0
 13 44  1  0
 15 45  1  0
 16 46  1  0
 19 47  1  0
 20 48  1  0
 22 49  1  0
 23 50  1  0
 25 51  1  0
 28 52  1  0
 29 53  1  0
M  END
>  <smiles>  (44) 
O=C(NCC(=O)N1CCC[C@H]1CNc1ccc(Cl)cc1)c1ccc2cc(Cl)ccc2n1

>  <score_type>  (44) 
oracle

>  <origin>  (44) 
autodockgpu

>  <m_score__min__energy>  (44) 
-8.6400000000000006

>  <m_primary>  (44) 
energy

>  <rmsd>  (44) 
4.571056202711649

>  <m_score__min__rmsd>  (44) 
4.571056202711649

>  <meeko>  (44) 
{"free_energy": -8.64, "intermolecular_energy": -10.73, "internal_energy": -1.96, "cluster_size": 8, "cluster_id": 1, "rank_in_cluster": 1}

>  <energy>  (44) 
-6.44

>  <cluster_rmsd>  (44) 
0.0

>  <cluster>  (44) 
15

$$$$

     RDKit          3D

 53 56  0  0  0  0  0  0  0  0999 V2000
  140.4720   73.5270  222.1400 O   0  0  0  0  0  0  0  0  0  0  0  0
  139.5870   72.7080  222.5220 C   0  0  0  0  0  0  0  0  0  0  0  0
  138.3420   72.7690  221.8190 N   0  0  0  0  0  0  0  0  0  0  0  0
  138.2090   73.7290  220.7690 C   0  0  0  0  0  0  0  0  0  0  0  0
  137.9230   75.1000  221.2870 C   0  0  0  0  0  0  0  0  0  0  0  0
  137.2430   75.3000  222.3330 O   0  0  0  0  0  0  0  0  0  0  0  0
  138.4460   76.2350  220.5580 N   0  0  0  0  0  0  0  0  0  0  0  0
  138.0490   77.5810  220.8970 C   0  0  0  0  0  0  0  0  0  0  0  0
  138.5590   78.4320  219.7980 C   0  0  0  0  0  0  0  0  0  0  0  0
  138.9860   77.4750  218.7160 C   0  0  0  0  0  0  0  0  0  0  0  0
  139.3500   76.1880  219.4520 C   0  0  1  0  0  0  0  0  0  0  0  0
  140.8050   76.1610  219.7160 C   0  0  0  0  0  0  0  0  0  0  0  0
  141.1500   76.3790  221.0840 N   0  0  0  0  0  0  0  0  0  0  0  0
  141.4180   77.5980  221.7190 C   0  0  0  0  0  0  0  0  0  0  0  0
  141.2530   77.7430  223.0870 C   0  0  0  0  0  0  0  0  0  0  0  0
  141.4760   78.9300  223.7510 C   0  0  0  0  0  0  0  0  0  0  0  0
  141.8830   80.0510  223.0640 C   0  0  0  0  0  0  0  0  0  0  0  0
  142.1490   81.5270  223.9660 Cl  0  0  0  0  0  0  0  0  0  0  0  0
  142.0540   79.9430  221.7130 C   0  0  0  0  0  0  0  0  0  0  0  0
  141.8300   78.7500  221.0520 C   0  0  0  0  0  0  0  0  0  0  0  0
  139.8070   71.7590  223.6060 C   0  0  0  0  0  0  0  0  0  0  0  0
  139.4960   70.4330  223.3570 C   0  0  0  0  0  0  0  0  0  0  0  0
  139.6890   69.5110  224.3530 C   0  0  0  0  0  0  0  0  0  0  0  0
  140.1850   69.8820  225.5890 C   0  0  0  0  0  0  0  0  0  0  0  0
  140.3660   68.9230  226.5670 C   0  0  0  0  0  0  0  0  0  0  0  0
  140.8670   69.3500  227.7930 C   0  0  0  0  0  0  0  0  0  0  0  0
  141.1040   68.1460  229.0470 Cl  0  0  0  0  0  0  0  0  0  0  0  0
  141.1600   70.6840  227.9880 C   0  0  0  0  0  0  0  0  0  0  0  0
  140.9790   71.6460  227.0110 C   0  0  0  0  0  0  0  0  0  0  0  0
  140.4810   71.2140  225.7970 C   0  0  0  0  0  0  0  0  0  0  0  0
  140.2880   72.1100  224.8120 N   0  0  0  0  0  0  0  0  0  0  0  0
  137.5640   72.1050  222.0970 H   0  0  0  0  0  0  0  0  0  0  0  0
  139.1464   73.7565  220.1941 H   0  0  0  0  0  0  0  0  0  0  0  0
  137.3603   73.4235  220.1394 H   0  0  0  0  0  0  0  0  0  0  0  0
  136.9534   77.6537  220.9629 H   0  0  0  0  0  0  0  0  0  0  0  0
  138.4498   77.8912  221.8733 H   0  0  0  0  0  0  0  0  0  0  0  0
  137.7670   79.1007  219.4298 H   0  0  0  0  0  0  0  0  0  0  0  0
  139.3898   79.0726  220.1286 H   0  0  0  0  0  0  0  0  0  0  0  0
  138.1620   77.2970  218.0093 H   0  0  0  0  0  0  0  0  0  0  0  0
  139.8271   77.8664  218.1250 H   0  0  0  0  0  0  0  0  0  0  0  0
  139.2240   75.2298  218.9266 H   0  0  0  0  0  0  0  0  0  0  0  0
  141.1934   75.1773  219.4136 H   0  0  0  0  0  0  0  0  0  0  0  0
  141.2488   76.9863  219.1399 H   0  0  0  0  0  0  0  0  0  0  0  0
  141.2130   75.5080  221.7020 H   0  0  0  0  0  0  0  0  0  0  0  0
  140.9286   76.8691  223.6710 H   0  0  0  0  0  0  0  0  0  0  0  0
  141.3274   78.9819  224.8397 H   0  0  0  0  0  0  0  0  0  0  0  0
  142.3768   80.8241  221.1390 H   0  0  0  0  0  0  0  0  0  0  0  0
  141.9820   78.7086  219.9633 H   0  0  0  0  0  0  0  0  0  0  0  0
  139.1012   70.1249  222.3776 H   0  0  0  0  0  0  0  0  0  0  0  0
  139.4444   68.4551  224.1650 H   0  0  0  0  0  0  0  0  0  0  0  0
  140.1241   67.8656  226.3841 H   0  0  0  0  0  0  0  0  0  0  0  0
  141.5558   70.9968  228.9655 H   0  0  0  0  0  0  0  0  0  0  0  0
  141.2199   72.7040  227.1918 H   0  0  0  0  0  0  0  0  0  0  0  0
  1  2  2  0
  2  3  1  0
  3  4  1  0
  4  5  1  0
  5  6  2  0
  5  7  1  0
  7  8  1  0
  8  9  1  0
  9 10  1  0
 10 11  1  0
 11 12  1  0
 12 13  1  0
 13 14  1  0
 14 15  2  0
 15 16  1  0
 16 17  2  0
 17 18  1  0
 17 19  1  0
 19 20  2  0
  2 21  1  0
 21 22  2  0
 22 23  1  0
 23 24  2  0
 24 25  1  0
 25 26  2  0
 26 27  1  0
 26 28  1  0
 28 29  2  0
 29 30  1  0
 30 31  2  0
 11  7  1  0
 20 14  1  0
 31 21  1  0
 30 24  1  0
  3 32  1  0
  4 33  1  0
  4 34  1  0
  8 35  1  0
  8 36  1  0
  9 37  1  0
  9 38  1  0
 10 39  1  0
 10 40  1  0
 11 41  1  6
 12 42  1  0
 12 43  1  0
 13 44  1  0
 15 45  1  0
 16 46  1  0
 19 47  1  0
 20 48  1  0
 22 49  1  0
 23 50  1  0
 25 51  1  0
 28 52  1  0
 29 53  1  0
M  END
>  <smiles>  (45) 
O=C(NCC(=O)N1CCC[C@H]1CNc1ccc(Cl)cc1)c1ccc2cc(Cl)ccc2n1

>  <score_type>  (45) 
oracle

>  <origin>  (45) 
autodockgpu

>  <m_score__min__energy>  (45) 
-8.6400000000000006

>  <m_primary>  (45) 
energy

>  <rmsd>  (45) 
2.546957774147256

>  <m_score__min__rmsd>  (45) 
2.546957774147256

>  <meeko>  (45) 
{"free_energy": -7.64, "intermolecular_energy": -9.73, "internal_energy": -2.55, "cluster_size": 12, "cluster_id": 2, "rank_in_cluster": 8}

>  <energy>  (45) 
-6.31

>  <cluster_rmsd>  (45) 
1.43

>  <cluster>  (45) 
15

$$$$

     RDKit          3D

 53 56  0  0  0  0  0  0  0  0999 V2000
  139.9930   73.5770  222.4890 O   0  0  0  0  0  0  0  0  0  0  0  0
  139.4260   72.4500  222.5880 C   0  0  0  0  0  0  0  0  0  0  0  0
  138.4790   72.1420  221.5610 N   0  0  0  0  0  0  0  0  0  0  0  0
  138.2590   73.1120  220.5350 C   0  0  0  0  0  0  0  0  0  0  0  0
  136.8640   73.6440  220.5470 C   0  0  0  0  0  0  0  0  0  0  0  0
  136.2180   73.8760  219.4860 O   0  0  0  0  0  0  0  0  0  0  0  0
  136.2360   73.9010  221.8250 N   0  0  0  0  0  0  0  0  0  0  0  0
  136.0840   72.8490  222.8030 C   0  0  0  0  0  0  0  0  0  0  0  0
  135.1850   73.4010  223.8410 C   0  0  0  0  0  0  0  0  0  0  0  0
  134.6250   74.6690  223.2530 C   0  0  0  0  0  0  0  0  0  0  0  0
  135.6870   75.1450  222.2650 C   0  0  1  0  0  0  0  0  0  0  0  0
  136.5750   76.1280  222.9240 C   0  0  0  0  0  0  0  0  0  0  0  0
  137.9660   75.8550  222.7590 N   0  0  0  0  0  0  0  0  0  0  0  0
  139.0120   76.7750  222.6220 C   0  0  0  0  0  0  0  0  0  0  0  0
  138.8900   78.0720  223.0950 C   0  0  0  0  0  0  0  0  0  0  0  0
  139.8800   79.0200  222.9570 C   0  0  0  0  0  0  0  0  0  0  0  0
  141.0650   78.7110  222.3270 C   0  0  0  0  0  0  0  0  0  0  0  0
  142.2820   79.9600  222.1860 Cl  0  0  0  0  0  0  0  0  0  0  0  0
  141.2180   77.4400  221.8480 C   0  0  0  0  0  0  0  0  0  0  0  0
  140.2220   76.4930  221.9890 C   0  0  0  0  0  0  0  0  0  0  0  0
  139.7100   71.5180  223.6700 C   0  0  0  0  0  0  0  0  0  0  0  0
  139.4050   70.1850  223.4530 C   0  0  0  0  0  0  0  0  0  0  0  0
  139.6570   69.2770  224.4490 C   0  0  0  0  0  0  0  0  0  0  0  0
  140.2080   69.6700  225.6550 C   0  0  0  0  0  0  0  0  0  0  0  0
  140.4480   68.7250  226.6350 C   0  0  0  0  0  0  0  0  0  0  0  0
  141.0020   69.1730  227.8300 C   0  0  0  0  0  0  0  0  0  0  0  0
  141.3140   67.9880  229.0850 Cl  0  0  0  0  0  0  0  0  0  0  0  0
  141.2870   70.5130  227.9940 C   0  0  0  0  0  0  0  0  0  0  0  0
  141.0470   71.4610  227.0160 C   0  0  0  0  0  0  0  0  0  0  0  0
  140.4970   71.0080  225.8320 C   0  0  0  0  0  0  0  0  0  0  0  0
  140.2450   71.8900  224.8470 N   0  0  0  0  0  0  0  0  0  0  0  0
  137.9740   71.2100  221.5930 H   0  0  0  0  0  0  0  0  0  0  0  0
  138.9577   73.9485  220.6835 H   0  0  0  0  0  0  0  0  0  0  0  0
  138.4225   72.6188  219.5654 H   0  0  0  0  0  0  0  0  0  0  0  0
  135.6360   71.9567  222.3413 H   0  0  0  0  0  0  0  0  0  0  0  0
  137.0522   72.5401  223.2239 H   0  0  0  0  0  0  0  0  0  0  0  0
  134.3755   72.6910  224.0660 H   0  0  0  0  0  0  0  0  0  0  0  0
  135.7174   73.5886  224.7851 H   0  0  0  0  0  0  0  0  0  0  0  0
  133.6757   74.4691  222.7345 H   0  0  0  0  0  0  0  0  0  0  0  0
  134.4084   75.4231  224.0240 H   0  0  0  0  0  0  0  0  0  0  0  0
  135.3641   75.7242  221.3873 H   0  0  0  0  0  0  0  0  0  0  0  0
  136.3649   77.1217  222.5016 H   0  0  0  0  0  0  0  0  0  0  0  0
  136.3655   76.0736  224.0025 H   0  0  0  0  0  0  0  0  0  0  0  0
  138.2480   74.8230  222.7370 H   0  0  0  0  0  0  0  0  0  0  0  0
  137.9583   78.3581  223.6049 H   0  0  0  0  0  0  0  0  0  0  0  0
  139.7224   80.0337  223.3539 H   0  0  0  0  0  0  0  0  0  0  0  0
  142.1539   77.1653  221.3395 H   0  0  0  0  0  0  0  0  0  0  0  0
  140.3892   75.4823  221.5883 H   0  0  0  0  0  0  0  0  0  0  0  0
  138.9678   69.8598  222.4974 H   0  0  0  0  0  0  0  0  0  0  0  0
  139.4164   68.2161  224.2857 H   0  0  0  0  0  0  0  0  0  0  0  0
  140.2107   67.6626  226.4765 H   0  0  0  0  0  0  0  0  0  0  0  0
  141.7257   70.8428  228.9473 H   0  0  0  0  0  0  0  0  0  0  0  0
  141.2825   72.5240  227.1730 H   0  0  0  0  0  0  0  0  0  0  0  0
  1  2  2  0
  2  3  1  0
  3  4  1  0
  4  5  1  0
  5  6  2  0
  5  7  1  0
  7  8  1  0
  8  9  1  0
  9 10  1  0
 10 11  1  0
 11 12  1  0
 12 13  1  0
 13 14  1  0
 14 15  2  0
 15 16  1  0
 16 17  2  0
 17 18  1  0
 17 19  1  0
 19 20  2  0
  2 21  1  0
 21 22  2  0
 22 23  1  0
 23 24  2  0
 24 25  1  0
 25 26  2  0
 26 27  1  0
 26 28  1  0
 28 29  2  0
 29 30  1  0
 30 31  2  0
 11  7  1  0
 20 14  1  0
 31 21  1  0
 30 24  1  0
  3 32  1  0
  4 33  1  0
  4 34  1  0
  8 35  1  0
  8 36  1  0
  9 37  1  0
  9 38  1  0
 10 39  1  0
 10 40  1  0
 11 41  1  6
 12 42  1  0
 12 43  1  0
 13 44  1  0
 15 45  1  0
 16 46  1  0
 19 47  1  0
 20 48  1  0
 22 49  1  0
 23 50  1  0
 25 51  1  0
 28 52  1  0
 29 53  1  0
M  END
>  <smiles>  (46) 
O=C(NCC(=O)N1CCC[C@H]1CNc1ccc(Cl)cc1)c1ccc2cc(Cl)ccc2n1

>  <score_type>  (46) 
oracle

>  <origin>  (46) 
autodockgpu

>  <m_score__min__energy>  (46) 
-8.6400000000000006

>  <m_primary>  (46) 
energy

>  <rmsd>  (46) 
4.400897863737738

>  <m_score__min__rmsd>  (46) 
4.400897863737738

>  <meeko>  (46) 
{"free_energy": -7.84, "intermolecular_energy": -9.93, "internal_energy": -2.46, "cluster_size": 4, "cluster_id": 3, "rank_in_cluster": 4}

>  <energy>  (46) 
-6.26

>  <cluster_rmsd>  (46) 
1.58

>  <cluster>  (46) 
15

$$$$

     RDKit          3D

 53 56  0  0  0  0  0  0  0  0999 V2000
  139.3950   71.9380  220.8050 O   0  0  0  0  0  0  0  0  0  0  0  0
  139.5260   72.3620  221.9910 C   0  0  0  0  0  0  0  0  0  0  0  0
  139.4640   73.7820  222.1500 N   0  0  0  0  0  0  0  0  0  0  0  0
  139.2650   74.5820  220.9820 C   0  0  0  0  0  0  0  0  0  0  0  0
  139.4180   76.0410  221.2620 C   0  0  0  0  0  0  0  0  0  0  0  0
  139.3410   76.5180  222.4300 O   0  0  0  0  0  0  0  0  0  0  0  0
  139.6640   76.9340  220.1500 N   0  0  0  0  0  0  0  0  0  0  0  0
  138.6040   77.7480  219.6040 C   0  0  0  0  0  0  0  0  0  0  0  0
  139.1450   78.3100  218.3460 C   0  0  0  0  0  0  0  0  0  0  0  0
  140.4170   77.5490  218.0820 C   0  0  0  0  0  0  0  0  0  0  0  0
  140.9030   77.1070  219.4600 C   0  0  1  0  0  0  0  0  0  0  0  0
  141.8820   78.0870  219.9790 C   0  0  0  0  0  0  0  0  0  0  0  0
  141.8130   78.2830  221.3920 N   0  0  0  0  0  0  0  0  0  0  0  0
  140.8650   79.0210  222.1100 C   0  0  0  0  0  0  0  0  0  0  0  0
  140.6900   78.8270  223.4720 C   0  0  0  0  0  0  0  0  0  0  0  0
  139.7500   79.5080  224.2140 C   0  0  0  0  0  0  0  0  0  0  0  0
  138.9240   80.4360  223.6200 C   0  0  0  0  0  0  0  0  0  0  0  0
  137.7520   81.2670  224.6200 Cl  0  0  0  0  0  0  0  0  0  0  0  0
  139.0700   80.6510  222.2790 C   0  0  0  0  0  0  0  0  0  0  0  0
  140.0140   79.9650  221.5380 C   0  0  0  0  0  0  0  0  0  0  0  0
  139.7250   71.4730  223.1280 C   0  0  0  0  0  0  0  0  0  0  0  0
  139.3690   70.1460  222.9630 C   0  0  0  0  0  0  0  0  0  0  0  0
  139.5410   69.2800  224.0120 C   0  0  0  0  0  0  0  0  0  0  0  0
  140.0620   69.7080  225.2190 C   0  0  0  0  0  0  0  0  0  0  0  0
  140.2220   68.8050  226.2520 C   0  0  0  0  0  0  0  0  0  0  0  0
  140.7500   69.2880  227.4450 C   0  0  0  0  0  0  0  0  0  0  0  0
  140.9600   68.1560  228.7680 Cl  0  0  0  0  0  0  0  0  0  0  0  0
  141.0880   70.6210  227.5560 C   0  0  0  0  0  0  0  0  0  0  0  0
  140.9300   71.5280  226.5230 C   0  0  0  0  0  0  0  0  0  0  0  0
  140.4050   71.0400  225.3420 C   0  0  0  0  0  0  0  0  0  0  0  0
  140.2310   71.8810  224.3060 N   0  0  0  0  0  0  0  0  0  0  0  0
  139.5660   74.1930  223.1220 H   0  0  0  0  0  0  0  0  0  0  0  0
  140.0038   74.2882  220.2218 H   0  0  0  0  0  0  0  0  0  0  0  0
  138.2369   74.4129  220.6292 H   0  0  0  0  0  0  0  0  0  0  0  0
  137.7144   77.1342  219.3996 H   0  0  0  0  0  0  0  0  0  0  0  0
  138.2943   78.5380  220.3040 H   0  0  0  0  0  0  0  0  0  0  0  0
  138.4315   78.1647  217.5215 H   0  0  0  0  0  0  0  0  0  0  0  0
  139.3251   79.3922  218.4258 H   0  0  0  0  0  0  0  0  0  0  0  0
  140.2201   76.6759  217.4426 H   0  0  0  0  0  0  0  0  0  0  0  0
  141.1643   78.1611  217.5558 H   0  0  0  0  0  0  0  0  0  0  0  0
  141.4881   76.1787  219.5369 H   0  0  0  0  0  0  0  0  0  0  0  0
  142.8927   77.7329  219.7277 H   0  0  0  0  0  0  0  0  0  0  0  0
  141.6439   79.0537  219.5112 H   0  0  0  0  0  0  0  0  0  0  0  0
  142.5750   77.8110  221.9750 H   0  0  0  0  0  0  0  0  0  0  0  0
  141.3319   78.0950  223.9839 H   0  0  0  0  0  0  0  0  0  0  0  0
  139.6583   79.3085  225.2919 H   0  0  0  0  0  0  0  0  0  0  0  0
  138.4226   81.3857  221.7781 H   0  0  0  0  0  0  0  0  0  0  0  0
  140.0963   80.1711  220.4606 H   0  0  0  0  0  0  0  0  0  0  0  0
  138.9553   69.7922  222.0071 H   0  0  0  0  0  0  0  0  0  0  0  0
  139.2589   68.2237  223.8908 H   0  0  0  0  0  0  0  0  0  0  0  0
  139.9433   67.7472  226.1360 H   0  0  0  0  0  0  0  0  0  0  0  0
  141.5023   70.9794  228.5099 H   0  0  0  0  0  0  0  0  0  0  0  0
  141.2088   72.5860  226.6366 H   0  0  0  0  0  0  0  0  0  0  0  0
  1  2  2  0
  2  3  1  0
  3  4  1  0
  4  5  1  0
  5  6  2  0
  5  7  1  0
  7  8  1  0
  8  9  1  0
  9 10  1  0
 10 11  1  0
 11 12  1  0
 12 13  1  0
 13 14  1  0
 14 15  2  0
 15 16  1  0
 16 17  2  0
 17 18  1  0
 17 19  1  0
 19 20  2  0
  2 21  1  0
 21 22  2  0
 22 23  1  0
 23 24  2  0
 24 25  1  0
 25 26  2  0
 26 27  1  0
 26 28  1  0
 28 29  2  0
 29 30  1  0
 30 31  2  0
 11  7  1  0
 20 14  1  0
 31 21  1  0
 30 24  1  0
  3 32  1  0
  4 33  1  0
  4 34  1  0
  8 35  1  0
  8 36  1  0
  9 37  1  0
  9 38  1  0
 10 39  1  0
 10 40  1  0
 11 41  1  6
 12 42  1  0
 12 43  1  0
 13 44  1  0
 15 45  1  0
 16 46  1  0
 19 47  1  0
 20 48  1  0
 22 49  1  0
 23 50  1  0
 25 51  1  0
 28 52  1  0
 29 53  1  0
M  END
>  <smiles>  (47) 
O=C(NCC(=O)N1CCC[C@H]1CNc1ccc(Cl)cc1)c1ccc2cc(Cl)ccc2n1

>  <score_type>  (47) 
oracle

>  <origin>  (47) 
autodockgpu

>  <m_score__min__energy>  (47) 
-8.6400000000000006

>  <m_primary>  (47) 
energy

>  <rmsd>  (47) 
2.084414650103235

>  <m_score__min__rmsd>  (47) 
2.084414650103235

>  <meeko>  (47) 
{"free_energy": -7.81, "intermolecular_energy": -9.9, "internal_energy": -2.11, "cluster_size": 12, "cluster_id": 2, "rank_in_cluster": 5}

>  <energy>  (47) 
-5.64

>  <cluster_rmsd>  (47) 
1.5

>  <cluster>  (47) 
15

$$$$

     RDKit          3D

 53 56  0  0  0  0  0  0  0  0999 V2000
  140.9370   73.9280  222.0610 O   0  0  0  0  0  0  0  0  0  0  0  0
  140.1710   72.9200  222.0580 C   0  0  0  0  0  0  0  0  0  0  0  0
  139.3590   72.7630  220.8910 N   0  0  0  0  0  0  0  0  0  0  0  0
  139.4780   73.7370  219.8520 C   0  0  0  0  0  0  0  0  0  0  0  0
  138.8340   75.0350  220.2150 C   0  0  0  0  0  0  0  0  0  0  0  0
  137.5980   75.2450  220.0560 O   0  0  0  0  0  0  0  0  0  0  0  0
  139.6630   76.0850  220.7660 N   0  0  0  0  0  0  0  0  0  0  0  0
  139.6850   76.3440  222.1870 C   0  0  0  0  0  0  0  0  0  0  0  0
  140.4130   77.6230  222.3440 C   0  0  0  0  0  0  0  0  0  0  0  0
  140.5300   78.1910  220.9540 C   0  0  0  0  0  0  0  0  0  0  0  0
  140.5030   76.9760  220.0300 C   0  0  1  0  0  0  0  0  0  0  0  0
  141.8880   76.5610  219.7150 C   0  0  0  0  0  0  0  0  0  0  0  0
  142.3910   75.5300  220.5650 N   0  0  0  0  0  0  0  0  0  0  0  0
  143.1030   74.3830  220.1940 C   0  0  0  0  0  0  0  0  0  0  0  0
  144.3270   74.0830  220.7720 C   0  0  0  0  0  0  0  0  0  0  0  0
  145.0760   72.9820  220.4180 C   0  0  0  0  0  0  0  0  0  0  0  0
  144.6290   72.1100  219.4510 C   0  0  0  0  0  0  0  0  0  0  0  0
  145.6290   70.7310  219.0490 Cl  0  0  0  0  0  0  0  0  0  0  0  0
  143.4260   72.3770  218.8610 C   0  0  0  0  0  0  0  0  0  0  0  0
  142.6780   73.4820  219.2190 C   0  0  0  0  0  0  0  0  0  0  0  0
  140.1120   71.9730  223.1640 C   0  0  0  0  0  0  0  0  0  0  0  0
  139.4680   70.7700  222.9310 C   0  0  0  0  0  0  0  0  0  0  0  0
  139.3910   69.8540  223.9480 C   0  0  0  0  0  0  0  0  0  0  0  0
  139.9420   70.1110  225.1900 C   0  0  0  0  0  0  0  0  0  0  0  0
  139.8450   69.1620  226.1890 C   0  0  0  0  0  0  0  0  0  0  0  0
  140.4160   69.4710  227.4200 C   0  0  0  0  0  0  0  0  0  0  0  0
  140.3020   68.2790  228.7010 Cl  0  0  0  0  0  0  0  0  0  0  0  0
  141.0460   70.6860  227.5980 C   0  0  0  0  0  0  0  0  0  0  0  0
  141.1450   71.6380  226.5990 C   0  0  0  0  0  0  0  0  0  0  0  0
  140.5750   71.3230  225.3810 C   0  0  0  0  0  0  0  0  0  0  0  0
  140.6450   72.2140  224.3750 N   0  0  0  0  0  0  0  0  0  0  0  0
  138.6990   71.9360  220.8340 H   0  0  0  0  0  0  0  0  0  0  0  0
  140.5454   73.9148  219.6544 H   0  0  0  0  0  0  0  0  0  0  0  0
  138.9646   73.3440  218.9621 H   0  0  0  0  0  0  0  0  0  0  0  0
  138.6605   76.4342  222.5773 H   0  0  0  0  0  0  0  0  0  0  0  0
  140.1689   75.5278  222.7434 H   0  0  0  0  0  0  0  0  0  0  0  0
  139.8497   78.3090  222.9937 H   0  0  0  0  0  0  0  0  0  0  0  0
  141.3986   77.4777  222.8104 H   0  0  0  0  0  0  0  0  0  0  0  0
  139.6849   78.8610  220.7372 H   0  0  0  0  0  0  0  0  0  0  0  0
  141.4448   78.7883  220.8262 H   0  0  0  0  0  0  0  0  0  0  0  0
  140.0944   77.0970  219.0159 H   0  0  0  0  0  0  0  0  0  0  0  0
  141.9129   76.1970  218.6772 H   0  0  0  0  0  0  0  0  0  0  0  0
  142.5280   77.4422  219.8692 H   0  0  0  0  0  0  0  0  0  0  0  0
  142.2040   75.6440  221.6120 H   0  0  0  0  0  0  0  0  0  0  0  0
  144.7185   74.7554  221.5496 H   0  0  0  0  0  0  0  0  0  0  0  0
  146.0409   72.7979  220.9130 H   0  0  0  0  0  0  0  0  0  0  0  0
  143.0448   71.6977  218.0843 H   0  0  0  0  0  0  0  0  0  0  0  0
  141.7146   73.6567  218.7177 H   0  0  0  0  0  0  0  0  0  0  0  0
  139.0260   70.5529  221.9474 H   0  0  0  0  0  0  0  0  0  0  0  0
  138.8807   68.8954  223.7726 H   0  0  0  0  0  0  0  0  0  0  0  0
  139.3372   68.2012  226.0185 H   0  0  0  0  0  0  0  0  0  0  0  0
  141.4900   70.9077  228.5797 H   0  0  0  0  0  0  0  0  0  0  0  0
  141.6530   72.5992  226.7666 H   0  0  0  0  0  0  0  0  0  0  0  0
  1  2  2  0
  2  3  1  0
  3  4  1  0
  4  5  1  0
  5  6  2  0
  5  7  1  0
  7  8  1  0
  8  9  1  0
  9 10  1  0
 10 11  1  0
 11 12  1  0
 12 13  1  0
 13 14  1  0
 14 15  2  0
 15 16  1  0
 16 17  2  0
 17 18  1  0
 17 19  1  0
 19 20  2  0
  2 21  1  0
 21 22  2  0
 22 23  1  0
 23 24  2  0
 24 25  1  0
 25 26  2  0
 26 27  1  0
 26 28  1  0
 28 29  2  0
 29 30  1  0
 30 31  2  0
 11  7  1  0
 20 14  1  0
 31 21  1  0
 30 24  1  0
  3 32  1  0
  4 33  1  0
  4 34  1  0
  8 35  1  0
  8 36  1  0
  9 37  1  0
  9 38  1  0
 10 39  1  0
 10 40  1  0
 11 41  1  6
 12 42  1  0
 12 43  1  0
 13 44  1  0
 15 45  1  0
 16 46  1  0
 19 47  1  0
 20 48  1  0
 22 49  1  0
 23 50  1  0
 25 51  1  0
 28 52  1  0
 29 53  1  0
M  END
>  <smiles>  (48) 
O=C(NCC(=O)N1CCC[C@H]1CNc1ccc(Cl)cc1)c1ccc2cc(Cl)ccc2n1

>  <score_type>  (48) 
oracle

>  <origin>  (48) 
autodockgpu

>  <m_score__min__energy>  (48) 
-8.6400000000000006

>  <m_primary>  (48) 
energy

>  <rmsd>  (48) 
4.441490042893612

>  <m_score__min__rmsd>  (48) 
4.441490042893612

>  <meeko>  (48) 
{"free_energy": -7.81, "intermolecular_energy": -9.9, "internal_energy": -2.51, "cluster_size": 8, "cluster_id": 1, "rank_in_cluster": 7}

>  <energy>  (48) 
-6.43

>  <cluster_rmsd>  (48) 
0.0

>  <cluster>  (48) 
16

$$$$

     RDKit          3D

 53 56  0  0  0  0  0  0  0  0999 V2000
  139.3410   74.9010  222.3490 O   0  0  0  0  0  0  0  0  0  0  0  0
  140.5180   75.1450  221.9530 C   0  0  0  0  0  0  0  0  0  0  0  0
  140.9290   76.5120  222.0410 N   0  0  0  0  0  0  0  0  0  0  0  0
  139.9950   77.4640  222.5570 C   0  0  0  0  0  0  0  0  0  0  0  0
  140.1240   78.7980  221.8980 C   0  0  0  0  0  0  0  0  0  0  0  0
  139.3680   79.1620  220.9540 O   0  0  0  0  0  0  0  0  0  0  0  0
  141.1550   79.7000  222.3650 N   0  0  0  0  0  0  0  0  0  0  0  0
  142.5450   79.3080  222.3540 C   0  0  0  0  0  0  0  0  0  0  0  0
  143.2550   80.3490  223.1300 C   0  0  0  0  0  0  0  0  0  0  0  0
  142.1750   81.1540  223.8030 C   0  0  0  0  0  0  0  0  0  0  0  0
  140.9560   81.0120  222.8940 C   0  0  1  0  0  0  0  0  0  0  0  0
  140.8960   82.1600  221.9620 C   0  0  0  0  0  0  0  0  0  0  0  0
  140.6080   81.7960  220.6120 N   0  0  0  0  0  0  0  0  0  0  0  0
  141.3680   82.0680  219.4680 C   0  0  0  0  0  0  0  0  0  0  0  0
  142.1550   81.0890  218.8820 C   0  0  0  0  0  0  0  0  0  0  0  0
  142.9410   81.3180  217.7750 C   0  0  0  0  0  0  0  0  0  0  0  0
  142.9790   82.5620  217.1860 C   0  0  0  0  0  0  0  0  0  0  0  0
  143.9970   82.7870  215.7810 Cl  0  0  0  0  0  0  0  0  0  0  0  0
  142.2140   83.5510  217.7390 C   0  0  0  0  0  0  0  0  0  0  0  0
  141.4270   83.3160  218.8510 C   0  0  0  0  0  0  0  0  0  0  0  0
  141.4070   74.1110  221.4400 C   0  0  0  0  0  0  0  0  0  0  0  0
  140.9230   72.8140  221.4200 C   0  0  0  0  0  0  0  0  0  0  0  0
  141.7310   71.8140  220.9450 C   0  0  0  0  0  0  0  0  0  0  0  0
  143.0090   72.0790  220.4880 C   0  0  0  0  0  0  0  0  0  0  0  0
  143.7930   71.0450  220.0160 C   0  0  0  0  0  0  0  0  0  0  0  0
  145.0720   71.3660  219.5700 C   0  0  0  0  0  0  0  0  0  0  0  0
  146.0810   70.0650  218.9660 Cl  0  0  0  0  0  0  0  0  0  0  0  0
  145.5040   72.6750  219.6120 C   0  0  0  0  0  0  0  0  0  0  0  0
  144.7210   73.7140  220.0840 C   0  0  0  0  0  0  0  0  0  0  0  0
  143.4540   73.3860  220.5260 C   0  0  0  0  0  0  0  0  0  0  0  0
  142.6510   74.3590  220.9940 N   0  0  0  0  0  0  0  0  0  0  0  0
  141.9060   76.7750  221.7240 H   0  0  0  0  0  0  0  0  0  0  0  0
  138.9756   77.0849  222.3921 H   0  0  0  0  0  0  0  0  0  0  0  0
  140.2057   77.5959  223.6286 H   0  0  0  0  0  0  0  0  0  0  0  0
  142.6705   78.3230  222.8273 H   0  0  0  0  0  0  0  0  0  0  0  0
  142.9373   79.2235  221.3298 H   0  0  0  0  0  0  0  0  0  0  0  0
  143.9143   79.8873  223.8797 H   0  0  0  0  0  0  0  0  0  0  0  0
  143.8910   80.9753  222.4871 H   0  0  0  0  0  0  0  0  0  0  0  0
  141.9601   80.7527  224.8044 H   0  0  0  0  0  0  0  0  0  0  0  0
  142.4677   82.2051  223.9426 H   0  0  0  0  0  0  0  0  0  0  0  0
  139.9547   81.0675  223.3460 H   0  0  0  0  0  0  0  0  0  0  0  0
  140.1112   82.8477  222.3100 H   0  0  0  0  0  0  0  0  0  0  0  0
  141.8940   82.6227  221.9615 H   0  0  0  0  0  0  0  0  0  0  0  0
  139.7030   81.2480  220.4510 H   0  0  0  0  0  0  0  0  0  0  0  0
  142.1514   80.0810  219.3224 H   0  0  0  0  0  0  0  0  0  0  0  0
  143.5446   80.4989  217.3569 H   0  0  0  0  0  0  0  0  0  0  0  0
  142.2249   84.5550  217.2896 H   0  0  0  0  0  0  0  0  0  0  0  0
  140.8275   84.1415  219.2623 H   0  0  0  0  0  0  0  0  0  0  0  0
  139.9077   72.5900  221.7791 H   0  0  0  0  0  0  0  0  0  0  0  0
  141.3555   70.7802  220.9269 H   0  0  0  0  0  0  0  0  0  0  0  0
  143.4220   70.0097  219.9933 H   0  0  0  0  0  0  0  0  0  0  0  0
  146.5184   72.9040  219.2536 H   0  0  0  0  0  0  0  0  0  0  0  0
  145.0895   74.7502  220.1061 H   0  0  0  0  0  0  0  0  0  0  0  0
  1  2  2  0
  2  3  1  0
  3  4  1  0
  4  5  1  0
  5  6  2  0
  5  7  1  0
  7  8  1  0
  8  9  1  0
  9 10  1  0
 10 11  1  0
 11 12  1  0
 12 13  1  0
 13 14  1  0
 14 15  2  0
 15 16  1  0
 16 17  2  0
 17 18  1  0
 17 19  1  0
 19 20  2  0
  2 21  1  0
 21 22  2  0
 22 23  1  0
 23 24  2  0
 24 25  1  0
 25 26  2  0
 26 27  1  0
 26 28  1  0
 28 29  2  0
 29 30  1  0
 30 31  2  0
 11  7  1  0
 20 14  1  0
 31 21  1  0
 30 24  1  0
  3 32  1  0
  4 33  1  0
  4 34  1  0
  8 35  1  0
  8 36  1  0
  9 37  1  0
  9 38  1  0
 10 39  1  0
 10 40  1  0
 11 41  1  1
 12 42  1  0
 12 43  1  0
 13 44  1  0
 15 45  1  0
 16 46  1  0
 19 47  1  0
 20 48  1  0
 22 49  1  0
 23 50  1  0
 25 51  1  0
 28 52  1  0
 29 53  1  0
M  END
>  <smiles>  (49) 
O=C(NCC(=O)N1CCC[C@H]1CNc1ccc(Cl)cc1)c1ccc2cc(Cl)ccc2n1

>  <score_type>  (49) 
oracle

>  <origin>  (49) 
autodockgpu

>  <m_score__min__energy>  (49) 
-8.6400000000000006

>  <m_primary>  (49) 
energy

>  <rmsd>  (49) 
6.100149193062413

>  <m_score__min__rmsd>  (49) 
6.100149193062413

>  <meeko>  (49) 
{"free_energy": -7.32, "intermolecular_energy": -9.41, "internal_energy": -2.32, "cluster_size": 1, "cluster_id": 8, "rank_in_cluster": 1}

>  <energy>  (49) 
-6.43

>  <cluster_rmsd>  (49) 
0.0

>  <cluster>  (49) 
17

$$$$

     RDKit          3D

 53 56  0  0  0  0  0  0  0  0999 V2000
  139.2780   71.1820  221.1030 O   0  0  0  0  0  0  0  0  0  0  0  0
  138.9080   71.6060  222.2370 C   0  0  0  0  0  0  0  0  0  0  0  0
  137.9110   72.6320  222.2180 N   0  0  0  0  0  0  0  0  0  0  0  0
  137.4290   73.0800  220.9490 C   0  0  0  0  0  0  0  0  0  0  0  0
  136.2150   73.9390  221.0750 C   0  0  0  0  0  0  0  0  0  0  0  0
  135.3930   74.0940  220.1270 O   0  0  0  0  0  0  0  0  0  0  0  0
  135.9770   74.6160  222.3310 N   0  0  0  0  0  0  0  0  0  0  0  0
  135.3910   73.9190  223.4520 C   0  0  0  0  0  0  0  0  0  0  0  0
  135.0600   74.9690  224.4420 C   0  0  0  0  0  0  0  0  0  0  0  0
  135.2170   76.2750  223.7080 C   0  0  0  0  0  0  0  0  0  0  0  0
  136.2470   75.9900  222.6170 C   0  0  1  0  0  0  0  0  0  0  0  0
  137.5940   76.3740  223.0930 C   0  0  0  0  0  0  0  0  0  0  0  0
  138.1430   77.5090  222.4250 N   0  0  0  0  0  0  0  0  0  0  0  0
  139.2900   78.2360  222.7670 C   0  0  0  0  0  0  0  0  0  0  0  0
  139.1990   79.5370  223.2350 C   0  0  0  0  0  0  0  0  0  0  0  0
  140.3000   80.3000  223.5560 C   0  0  0  0  0  0  0  0  0  0  0  0
  141.5720   79.7880  223.4230 C   0  0  0  0  0  0  0  0  0  0  0  0
  142.9280   80.8090  223.8490 Cl  0  0  0  0  0  0  0  0  0  0  0  0
  141.6960   78.5070  222.9640 C   0  0  0  0  0  0  0  0  0  0  0  0
  140.5890   77.7460  222.6430 C   0  0  0  0  0  0  0  0  0  0  0  0
  139.4530   71.0930  223.4860 C   0  0  0  0  0  0  0  0  0  0  0  0
  140.3870   71.8790  224.1390 C   0  0  0  0  0  0  0  0  0  0  0  0
  140.9230   71.4280  225.3180 C   0  0  0  0  0  0  0  0  0  0  0  0
  140.5470   70.2130  225.8590 C   0  0  0  0  0  0  0  0  0  0  0  0
  141.1090   69.7930  227.0500 C   0  0  0  0  0  0  0  0  0  0  0  0
  140.6970   68.5620  227.5500 C   0  0  0  0  0  0  0  0  0  0  0  0
  141.4000   68.0130  229.0600 Cl  0  0  0  0  0  0  0  0  0  0  0  0
  139.7630   67.8180  226.8590 C   0  0  0  0  0  0  0  0  0  0  0  0
  139.1990   68.2350  225.6670 C   0  0  0  0  0  0  0  0  0  0  0  0
  139.6140   69.4590  225.1760 C   0  0  0  0  0  0  0  0  0  0  0  0
  139.0940   69.9120  224.0210 N   0  0  0  0  0  0  0  0  0  0  0  0
  137.5630   73.0240  223.1400 H   0  0  0  0  0  0  0  0  0  0  0  0
  138.2223   73.6592  220.4538 H   0  0  0  0  0  0  0  0  0  0  0  0
  137.1532   72.1920  220.3613 H   0  0  0  0  0  0  0  0  0  0  0  0
  134.4816   73.3848  223.1396 H   0  0  0  0  0  0  0  0  0  0  0  0
  136.0773   73.1672  223.8688 H   0  0  0  0  0  0  0  0  0  0  0  0
  134.0262   74.8497  224.7984 H   0  0  0  0  0  0  0  0  0  0  0  0
  135.7111   74.9165  225.3271 H   0  0  0  0  0  0  0  0  0  0  0  0
  134.2600   76.5876  223.2648 H   0  0  0  0  0  0  0  0  0  0  0  0
  135.5345   77.0899  224.3752 H   0  0  0  0  0  0  0  0  0  0  0  0
  136.1942   76.5664  221.6816 H   0  0  0  0  0  0  0  0  0  0  0  0
  137.5294   76.6024  224.1671 H   0  0  0  0  0  0  0  0  0  0  0  0
  138.2610   75.5256  222.8802 H   0  0  0  0  0  0  0  0  0  0  0  0
  137.6180   77.8490  221.5570 H   0  0  0  0  0  0  0  0  0  0  0  0
  138.2002   79.9816  223.3559 H   0  0  0  0  0  0  0  0  0  0  0  0
  140.1622   81.3281  223.9221 H   0  0  0  0  0  0  0  0  0  0  0  0
  142.6997   78.0722  222.8476 H   0  0  0  0  0  0  0  0  0  0  0  0
  140.7374   76.7192  222.2774 H   0  0  0  0  0  0  0  0  0  0  0  0
  140.6939   72.8484  223.7195 H   0  0  0  0  0  0  0  0  0  0  0  0
  141.6667   72.0453  225.8433 H   0  0  0  0  0  0  0  0  0  0  0  0
  141.8516   70.4070  227.5806 H   0  0  0  0  0  0  0  0  0  0  0  0
  139.4525   66.8483  227.2753 H   0  0  0  0  0  0  0  0  0  0  0  0
  138.4561   67.6224  225.1353 H   0  0  0  0  0  0  0  0  0  0  0  0
  1  2  2  0
  2  3  1  0
  3  4  1  0
  4  5  1  0
  5  6  2  0
  5  7  1  0
  7  8  1  0
  8  9  1  0
  9 10  1  0
 10 11  1  0
 11 12  1  0
 12 13  1  0
 13 14  1  0
 14 15  2  0
 15 16  1  0
 16 17  2  0
 17 18  1  0
 17 19  1  0
 19 20  2  0
  2 21  1  0
 21 22  2  0
 22 23  1  0
 23 24  2  0
 24 25  1  0
 25 26  2  0
 26 27  1  0
 26 28  1  0
 28 29  2  0
 29 30  1  0
 30 31  2  0
 11  7  1  0
 20 14  1  0
 31 21  1  0
 30 24  1  0
  3 32  1  0
  4 33  1  0
  4 34  1  0
  8 35  1  0
  8 36  1  0
  9 37  1  0
  9 38  1  0
 10 39  1  0
 10 40  1  0
 11 41  1  6
 12 42  1  0
 12 43  1  0
 13 44  1  0
 15 45  1  0
 16 46  1  0
 19 47  1  0
 20 48  1  0
 22 49  1  0
 23 50  1  0
 25 51  1  0
 28 52  1  0
 29 53  1  0
M  END
>  <smiles>  (50) 
O=C(NCC(=O)N1CCC[C@H]1CNc1ccc(Cl)cc1)c1ccc2cc(Cl)ccc2n1

>  <score_type>  (50) 
oracle

>  <origin>  (50) 
autodockgpu

>  <m_score__min__energy>  (50) 
-8.6400000000000006

>  <m_primary>  (50) 
energy

>  <rmsd>  (50) 
4.595577004269932

>  <m_score__min__rmsd>  (50) 
4.595577004269932

>  <meeko>  (50) 
{"free_energy": -8.27, "intermolecular_energy": -10.36, "internal_energy": -1.25, "cluster_size": 4, "cluster_id": 3, "rank_in_cluster": 1}

>  <energy>  (50) 
-6.05

>  <cluster_rmsd>  (50) 
0.0

>  <cluster>  (50) 
18

$$$$
