
     RDKit          3D

 52 56  0  0  0  0  0  0  0  0999 V2000
  142.9390   74.9150  220.3280 O   0  0  0  0  0  0  0  0  0  0  0  0
  141.8900   74.5970  220.9610 C   0  0  0  0  0  0  0  0  0  0  0  0
  141.5920   73.1650  221.0990 C   0  0  0  0  0  0  0  0  0  0  0  0
  140.3380   72.9330  221.8600 C   0  0  0  0  0  0  0  0  0  0  0  0
  139.9350   71.5280  222.0660 C   0  0  0  0  0  0  0  0  0  0  0  0
  139.5750   70.7090  221.0180 C   0  0  0  0  0  0  0  0  0  0  0  0
  139.1930   69.3940  221.1750 C   0  0  0  0  0  0  0  0  0  0  0  0
  139.1710   68.8720  222.4500 C   0  0  0  0  0  0  0  0  0  0  0  0
  139.5230   69.6540  223.5320 C   0  0  0  0  0  0  0  0  0  0  0  0
  139.4740   69.0240  224.8450 C   0  0  0  0  0  0  0  0  0  0  0  0
  139.1900   67.7950  224.9510 O   0  0  0  0  0  0  0  0  0  0  0  0
  139.7320   69.7190  226.0530 N   0  0  0  0  0  0  0  0  0  0  0  0
  139.6950   69.1350  227.3700 C   0  0  0  0  0  0  0  0  0  0  0  0
  140.3690   70.0540  228.3350 C   0  0  0  0  0  0  0  0  0  0  0  0
  141.0480   71.0690  227.4460 C   0  0  0  0  0  0  0  0  0  0  0  0
  140.0810   71.1190  226.2640 C   0  0  0  0  0  0  0  0  0  0  0  0
  139.9020   70.9720  223.3410 C   0  0  0  0  0  0  0  0  0  0  0  0
  139.6140   73.8760  222.3340 N   0  0  0  0  0  0  0  0  0  0  0  0
  139.9080   75.2590  222.1960 C   0  0  0  0  0  0  0  0  0  0  0  0
  139.1150   76.2540  222.7130 C   0  0  0  0  0  0  0  0  0  0  0  0
  139.4740   77.5970  222.5340 C   0  0  0  0  0  0  0  0  0  0  0  0
  140.6150   77.9530  221.8450 C   0  0  0  0  0  0  0  0  0  0  0  0
  141.0090   79.3500  221.6460 C   0  0  0  0  0  0  0  0  0  0  0  0
  141.4010   80.1670  222.6900 C   0  0  0  0  0  0  0  0  0  0  0  0
  141.7600   81.4850  222.4100 C   0  0  0  0  0  0  0  0  0  0  0  0
  141.7250   81.9700  221.1050 C   0  0  0  0  0  0  0  0  0  0  0  0
  141.3340   81.1570  220.0550 C   0  0  0  0  0  0  0  0  0  0  0  0
  140.9860   79.8610  220.3700 C   0  0  0  0  0  0  0  0  0  0  0  0
  141.4060   76.9490  221.3290 C   0  0  0  0  0  0  0  0  0  0  0  0
  141.0410   75.6420  221.5130 C   0  0  0  0  0  0  0  0  0  0  0  0
  141.4864   72.7251  220.0963 H   0  0  0  0  0  0  0  0  0  0  0  0
  142.4190   72.6956  221.6519 H   0  0  0  0  0  0  0  0  0  0  0  0
  139.5935   71.1274  220.0008 H   0  0  0  0  0  0  0  0  0  0  0  0
  138.9136   68.7787  220.3070 H   0  0  0  0  0  0  0  0  0  0  0  0
  138.8710   67.8254  222.6068 H   0  0  0  0  0  0  0  0  0  0  0  0
  138.6493   68.9834  227.6757 H   0  0  0  0  0  0  0  0  0  0  0  0
  140.2150   68.1658  227.3587 H   0  0  0  0  0  0  0  0  0  0  0  0
  139.6338   70.5389  228.9941 H   0  0  0  0  0  0  0  0  0  0  0  0
  141.0717   69.5324  229.0015 H   0  0  0  0  0  0  0  0  0  0  0  0
  141.1309   72.0477  227.9412 H   0  0  0  0  0  0  0  0  0  0  0  0
  142.0822   70.8117  227.1737 H   0  0  0  0  0  0  0  0  0  0  0  0
  139.1892   71.7141  226.5100 H   0  0  0  0  0  0  0  0  0  0  0  0
  140.5176   71.5918  225.3719 H   0  0  0  0  0  0  0  0  0  0  0  0
  140.1807   71.5877  224.2089 H   0  0  0  0  0  0  0  0  0  0  0  0
  138.1997   75.9974  223.2666 H   0  0  0  0  0  0  0  0  0  0  0  0
  138.8311   78.3854  222.9525 H   0  0  0  0  0  0  0  0  0  0  0  0
  141.4292   79.7850  223.7211 H   0  0  0  0  0  0  0  0  0  0  0  0
  142.0743   82.1489  223.2288 H   0  0  0  0  0  0  0  0  0  0  0  0
  142.0119   83.0131  220.9059 H   0  0  0  0  0  0  0  0  0  0  0  0
  141.3026   81.5272  219.0196 H   0  0  0  0  0  0  0  0  0  0  0  0
  140.6712   79.1963  219.5520 H   0  0  0  0  0  0  0  0  0  0  0  0
  142.3231   77.1956  220.7739 H   0  0  0  0  0  0  0  0  0  0  0  0
  1  2  2  0
  2  3  1  0
  3  4  1  0
  4  5  1  0
  5  6  2  0
  6  7  1  0
  7  8  2  0
  8  9  1  0
  9 10  1  0
 10 11  2  0
 10 12  1  0
 12 13  1  0
 13 14  1  0
 14 15  1  0
 15 16  1  0
  9 17  2  0
  4 18  2  0
 18 19  1  0
 19 20  2  0
 20 21  1  0
 21 22  2  0
 22 23  1  0
 23 24  2  0
 24 25  1  0
 25 26  2  0
 26 27  1  0
 27 28  2  0
 22 29  1  0
 29 30  2  0
 30  2  1  0
 17  5  1  0
 30 19  1  0
 16 12  1  0
 28 23  1  0
  3 31  1  0
  3 32  1  0
  6 33  1  0
  7 34  1  0
  8 35  1  0
 13 36  1  0
 13 37  1  0
 14 38  1  0
 14 39  1  0
 15 40  1  0
 15 41  1  0
 16 42  1  0
 16 43  1  0
 17 44  1  0
 20 45  1  0
 21 46  1  0
 24 47  1  0
 25 48  1  0
 26 49  1  0
 27 50  1  0
 28 51  1  0
 29 52  1  0
M  END
>  <smiles>  (1) 
O=C1CC(c2cccc(C(=O)N3CCCC3)c2)=Nc2ccc(-c3ccccc3)cc21

>  <score_type>  (1) 
oracle

>  <origin>  (1) 
autodockgpu

>  <m_score__min__energy>  (1) 
-9.2899999999999991

>  <m_primary>  (1) 
energy

>  <rmsd>  (1) 
6.819327092400069

>  <m_score__min__rmsd>  (1) 
6.819327092400069

>  <meeko>  (1) 
{"free_energy": -9.17, "intermolecular_energy": -10.07, "internal_energy": -0.86, "cluster_size": 50, "cluster_id": 1, "rank_in_cluster": 37}

>  <energy>  (1) 
-9.29

>  <cluster_rmsd>  (1) 
0.0

>  <cluster>  (1) 
1

$$$$

     RDKit          3D

 52 56  0  0  0  0  0  0  0  0999 V2000
  142.9340   74.9260  220.3640 O   0  0  0  0  0  0  0  0  0  0  0  0
  141.8800   74.6030  220.9860 C   0  0  0  0  0  0  0  0  0  0  0  0
  141.5840   73.1700  221.1160 C   0  0  0  0  0  0  0  0  0  0  0  0
  140.3240   72.9310  221.8640 C   0  0  0  0  0  0  0  0  0  0  0  0
  139.9230   71.5250  222.0610 C   0  0  0  0  0  0  0  0  0  0  0  0
  139.5540   70.7140  221.0080 C   0  0  0  0  0  0  0  0  0  0  0  0
  139.1730   69.3980  221.1570 C   0  0  0  0  0  0  0  0  0  0  0  0
  139.1630   68.8650  222.4280 C   0  0  0  0  0  0  0  0  0  0  0  0
  139.5240   69.6380  223.5130 C   0  0  0  0  0  0  0  0  0  0  0  0
  139.4860   68.9960  224.8210 C   0  0  0  0  0  0  0  0  0  0  0  0
  139.2080   67.7650  224.9180 O   0  0  0  0  0  0  0  0  0  0  0  0
  139.7500   69.6810  226.0340 N   0  0  0  0  0  0  0  0  0  0  0  0
  139.7240   69.0850  227.3460 C   0  0  0  0  0  0  0  0  0  0  0  0
  140.4020   69.9980  228.3140 C   0  0  0  0  0  0  0  0  0  0  0  0
  141.0710   71.0240  227.4290 C   0  0  0  0  0  0  0  0  0  0  0  0
  140.0960   71.0800  226.2540 C   0  0  0  0  0  0  0  0  0  0  0  0
  139.9010   70.9570  223.3310 C   0  0  0  0  0  0  0  0  0  0  0  0
  139.5920   73.8700  222.3350 N   0  0  0  0  0  0  0  0  0  0  0  0
  139.8840   75.2550  222.2040 C   0  0  0  0  0  0  0  0  0  0  0  0
  139.0830   76.2460  222.7170 C   0  0  0  0  0  0  0  0  0  0  0  0
  139.4400   77.5900  222.5470 C   0  0  0  0  0  0  0  0  0  0  0  0
  140.5870   77.9530  221.8700 C   0  0  0  0  0  0  0  0  0  0  0  0
  140.9790   79.3510  221.6800 C   0  0  0  0  0  0  0  0  0  0  0  0
  141.3740   80.1600  222.7280 C   0  0  0  0  0  0  0  0  0  0  0  0
  141.7310   81.4810  222.4570 C   0  0  0  0  0  0  0  0  0  0  0  0
  141.6910   81.9760  221.1560 C   0  0  0  0  0  0  0  0  0  0  0  0
  141.2960   81.1700  220.1020 C   0  0  0  0  0  0  0  0  0  0  0  0
  140.9510   79.8710  220.4070 C   0  0  0  0  0  0  0  0  0  0  0  0
  141.3860   76.9530  221.3580 C   0  0  0  0  0  0  0  0  0  0  0  0
  141.0220   75.6430  221.5340 C   0  0  0  0  0  0  0  0  0  0  0  0
  141.4890   72.7338  220.1107 H   0  0  0  0  0  0  0  0  0  0  0  0
  142.4069   72.7011  221.6754 H   0  0  0  0  0  0  0  0  0  0  0  0
  139.5644   71.1409  219.9943 H   0  0  0  0  0  0  0  0  0  0  0  0
  138.8851   68.7904  220.2864 H   0  0  0  0  0  0  0  0  0  0  0  0
  138.8654   67.8168  222.5786 H   0  0  0  0  0  0  0  0  0  0  0  0
  138.6810   68.9273  227.6578 H   0  0  0  0  0  0  0  0  0  0  0  0
  140.2467   68.1174  227.3226 H   0  0  0  0  0  0  0  0  0  0  0  0
  139.6700   70.4743  228.9828 H   0  0  0  0  0  0  0  0  0  0  0  0
  141.1117   69.4730  228.9703 H   0  0  0  0  0  0  0  0  0  0  0  0
  141.1530   71.9988  227.9321 H   0  0  0  0  0  0  0  0  0  0  0  0
  142.1045   70.7736  227.1476 H   0  0  0  0  0  0  0  0  0  0  0  0
  139.2040   71.6703  226.5107 H   0  0  0  0  0  0  0  0  0  0  0  0
  140.5252   71.5611  225.3628 H   0  0  0  0  0  0  0  0  0  0  0  0
  140.1872   71.5646  224.2021 H   0  0  0  0  0  0  0  0  0  0  0  0
  138.1629   75.9848  223.2603 H   0  0  0  0  0  0  0  0  0  0  0  0
  138.7909   78.3747  222.9629 H   0  0  0  0  0  0  0  0  0  0  0  0
  141.4063   79.7700  223.7560 H   0  0  0  0  0  0  0  0  0  0  0  0
  142.0475   82.1388  223.2799 H   0  0  0  0  0  0  0  0  0  0  0  0
  141.9768   83.0206  220.9634 H   0  0  0  0  0  0  0  0  0  0  0  0
  141.2593   81.5485  219.0698 H   0  0  0  0  0  0  0  0  0  0  0  0
  140.6350   79.2121  219.5848 H   0  0  0  0  0  0  0  0  0  0  0  0
  142.3078   77.2041  220.8128 H   0  0  0  0  0  0  0  0  0  0  0  0
  1  2  2  0
  2  3  1  0
  3  4  1  0
  4  5  1  0
  5  6  2  0
  6  7  1  0
  7  8  2  0
  8  9  1  0
  9 10  1  0
 10 11  2  0
 10 12  1  0
 12 13  1  0
 13 14  1  0
 14 15  1  0
 15 16  1  0
  9 17  2  0
  4 18  2  0
 18 19  1  0
 19 20  2  0
 20 21  1  0
 21 22  2  0
 22 23  1  0
 23 24  2  0
 24 25  1  0
 25 26  2  0
 26 27  1  0
 27 28  2  0
 22 29  1  0
 29 30  2  0
 30  2  1  0
 17  5  1  0
 30 19  1  0
 16 12  1  0
 28 23  1  0
  3 31  1  0
  3 32  1  0
  6 33  1  0
  7 34  1  0
  8 35  1  0
 13 36  1  0
 13 37  1  0
 14 38  1  0
 14 39  1  0
 15 40  1  0
 15 41  1  0
 16 42  1  0
 16 43  1  0
 17 44  1  0
 20 45  1  0
 21 46  1  0
 24 47  1  0
 25 48  1  0
 26 49  1  0
 27 50  1  0
 28 51  1  0
 29 52  1  0
M  END
>  <smiles>  (2) 
O=C1CC(c2cccc(C(=O)N3CCCC3)c2)=Nc2ccc(-c3ccccc3)cc21

>  <score_type>  (2) 
oracle

>  <origin>  (2) 
autodockgpu

>  <m_score__min__energy>  (2) 
-9.2899999999999991

>  <m_primary>  (2) 
energy

>  <rmsd>  (2) 
6.815923345956745

>  <m_score__min__rmsd>  (2) 
6.815923345956745

>  <meeko>  (2) 
{"free_energy": -9.18, "intermolecular_energy": -10.08, "internal_energy": -0.86, "cluster_size": 50, "cluster_id": 1, "rank_in_cluster": 34}

>  <energy>  (2) 
-9.29

>  <cluster_rmsd>  (2) 
0.04

>  <cluster>  (2) 
1

$$$$

     RDKit          3D

 52 56  0  0  0  0  0  0  0  0999 V2000
  142.9750   74.9190  220.4400 O   0  0  0  0  0  0  0  0  0  0  0  0
  141.9080   74.6020  221.0440 C   0  0  0  0  0  0  0  0  0  0  0  0
  141.6050   73.1710  221.1730 C   0  0  0  0  0  0  0  0  0  0  0  0
  140.3310   72.9390  221.9000 C   0  0  0  0  0  0  0  0  0  0  0  0
  139.9210   71.5350  222.0930 C   0  0  0  0  0  0  0  0  0  0  0  0
  139.5410   70.7310  221.0400 C   0  0  0  0  0  0  0  0  0  0  0  0
  139.1520   69.4170  221.1860 C   0  0  0  0  0  0  0  0  0  0  0  0
  139.1440   68.8790  222.4550 C   0  0  0  0  0  0  0  0  0  0  0  0
  139.5150   69.6460  223.5410 C   0  0  0  0  0  0  0  0  0  0  0  0
  139.4780   69.0000  224.8470 C   0  0  0  0  0  0  0  0  0  0  0  0
  139.2050   67.7670  224.9400 O   0  0  0  0  0  0  0  0  0  0  0  0
  139.7380   69.6820  226.0620 N   0  0  0  0  0  0  0  0  0  0  0  0
  139.7130   69.0820  227.3720 C   0  0  0  0  0  0  0  0  0  0  0  0
  140.3850   69.9950  228.3440 C   0  0  0  0  0  0  0  0  0  0  0  0
  141.0510   71.0260  227.4630 C   0  0  0  0  0  0  0  0  0  0  0  0
  140.0770   71.0820  226.2870 C   0  0  0  0  0  0  0  0  0  0  0  0
  139.9000   70.9620  223.3610 C   0  0  0  0  0  0  0  0  0  0  0  0
  139.5950   73.8830  222.3550 N   0  0  0  0  0  0  0  0  0  0  0  0
  139.8940   75.2660  222.2260 C   0  0  0  0  0  0  0  0  0  0  0  0
  139.0880   76.2610  222.7210 C   0  0  0  0  0  0  0  0  0  0  0  0
  139.4530   77.6030  222.5540 C   0  0  0  0  0  0  0  0  0  0  0  0
  140.6140   77.9590  221.8960 C   0  0  0  0  0  0  0  0  0  0  0  0
  141.0150   79.3550  221.7090 C   0  0  0  0  0  0  0  0  0  0  0  0
  141.0250   79.9650  220.4690 C   0  0  0  0  0  0  0  0  0  0  0  0
  141.4210   81.2990  220.3810 C   0  0  0  0  0  0  0  0  0  0  0  0
  141.8000   82.0050  221.5200 C   0  0  0  0  0  0  0  0  0  0  0  0
  141.7920   81.4000  222.7660 C   0  0  0  0  0  0  0  0  0  0  0  0
  141.3950   80.0810  222.8140 C   0  0  0  0  0  0  0  0  0  0  0  0
  141.4170   76.9550  221.4010 C   0  0  0  0  0  0  0  0  0  0  0  0
  141.0460   75.6480  221.5740 C   0  0  0  0  0  0  0  0  0  0  0  0
  141.5259   72.7320  220.1675 H   0  0  0  0  0  0  0  0  0  0  0  0
  142.4165   72.7007  221.7478 H   0  0  0  0  0  0  0  0  0  0  0  0
  139.5486   71.1616  220.0278 H   0  0  0  0  0  0  0  0  0  0  0  0
  138.8562   68.8146  220.3145 H   0  0  0  0  0  0  0  0  0  0  0  0
  138.8402   67.8322  222.6032 H   0  0  0  0  0  0  0  0  0  0  0  0
  138.6703   68.9183  227.6817 H   0  0  0  0  0  0  0  0  0  0  0  0
  140.2406   68.1171  227.3463 H   0  0  0  0  0  0  0  0  0  0  0  0
  139.6497   70.4663  229.0127 H   0  0  0  0  0  0  0  0  0  0  0  0
  141.0955   69.4714  229.0004 H   0  0  0  0  0  0  0  0  0  0  0  0
  141.1288   71.9995  227.9692 H   0  0  0  0  0  0  0  0  0  0  0  0
  142.0857   70.7803  227.1820 H   0  0  0  0  0  0  0  0  0  0  0  0
  139.1819   71.6672  226.5448 H   0  0  0  0  0  0  0  0  0  0  0  0
  140.5047   71.5685  225.3980 H   0  0  0  0  0  0  0  0  0  0  0  0
  140.1940   71.5647  224.2330 H   0  0  0  0  0  0  0  0  0  0  0  0
  138.1570   76.0048  223.2479 H   0  0  0  0  0  0  0  0  0  0  0  0
  138.7999   78.3915  222.9562 H   0  0  0  0  0  0  0  0  0  0  0  0
  140.7262   79.4086  219.5684 H   0  0  0  0  0  0  0  0  0  0  0  0
  141.4342   81.7992  219.4014 H   0  0  0  0  0  0  0  0  0  0  0  0
  142.1097   83.0566  221.4290 H   0  0  0  0  0  0  0  0  0  0  0  0
  142.0883   81.9461  223.6737 H   0  0  0  0  0  0  0  0  0  0  0  0
  141.3812   79.5796  223.7930 H   0  0  0  0  0  0  0  0  0  0  0  0
  142.3489   77.2011  220.8709 H   0  0  0  0  0  0  0  0  0  0  0  0
  1  2  2  0
  2  3  1  0
  3  4  1  0
  4  5  1  0
  5  6  2  0
  6  7  1  0
  7  8  2  0
  8  9  1  0
  9 10  1  0
 10 11  2  0
 10 12  1  0
 12 13  1  0
 13 14  1  0
 14 15  1  0
 15 16  1  0
  9 17  2  0
  4 18  2  0
 18 19  1  0
 19 20  2  0
 20 21  1  0
 21 22  2  0
 22 23  1  0
 23 24  2  0
 24 25  1  0
 25 26  2  0
 26 27  1  0
 27 28  2  0
 22 29  1  0
 29 30  2  0
 30  2  1  0
 17  5  1  0
 30 19  1  0
 16 12  1  0
 28 23  1  0
  3 31  1  0
  3 32  1  0
  6 33  1  0
  7 34  1  0
  8 35  1  0
 13 36  1  0
 13 37  1  0
 14 38  1  0
 14 39  1  0
 15 40  1  0
 15 41  1  0
 16 42  1  0
 16 43  1  0
 17 44  1  0
 20 45  1  0
 21 46  1  0
 24 47  1  0
 25 48  1  0
 26 49  1  0
 27 50  1  0
 28 51  1  0
 29 52  1  0
M  END
>  <smiles>  (3) 
O=C1CC(c2cccc(C(=O)N3CCCC3)c2)=Nc2ccc(-c3ccccc3)cc21

>  <score_type>  (3) 
oracle

>  <origin>  (3) 
autodockgpu

>  <m_score__min__energy>  (3) 
-9.2899999999999991

>  <m_primary>  (3) 
energy

>  <rmsd>  (3) 
6.809979762706345

>  <m_score__min__rmsd>  (3) 
6.809979762706345

>  <meeko>  (3) 
{"free_energy": -9.27, "intermolecular_energy": -10.17, "internal_energy": -0.86, "cluster_size": 50, "cluster_id": 1, "rank_in_cluster": 12}

>  <energy>  (3) 
-9.28

>  <cluster_rmsd>  (3) 
0.05

>  <cluster>  (3) 
1

$$$$

     RDKit          3D

 52 56  0  0  0  0  0  0  0  0999 V2000
  142.7960   74.7260  220.6630 O   0  0  0  0  0  0  0  0  0  0  0  0
  141.6800   74.4560  221.1980 C   0  0  0  0  0  0  0  0  0  0  0  0
  141.3160   73.0390  221.3220 C   0  0  0  0  0  0  0  0  0  0  0  0
  139.9890   72.8640  221.9640 C   0  0  0  0  0  0  0  0  0  0  0  0
  139.5140   71.4790  222.1460 C   0  0  0  0  0  0  0  0  0  0  0  0
  138.8820   70.7830  221.1370 C   0  0  0  0  0  0  0  0  0  0  0  0
  138.4260   69.4900  221.2740 C   0  0  0  0  0  0  0  0  0  0  0  0
  138.6140   68.8590  222.4850 C   0  0  0  0  0  0  0  0  0  0  0  0
  139.2420   69.5160  223.5250 C   0  0  0  0  0  0  0  0  0  0  0  0
  139.4000   68.7770  224.7710 C   0  0  0  0  0  0  0  0  0  0  0  0
  139.2540   67.5200  224.7880 O   0  0  0  0  0  0  0  0  0  0  0  0
  139.7200   69.3920  226.0070 N   0  0  0  0  0  0  0  0  0  0  0  0
  139.8870   68.7000  227.2600 C   0  0  0  0  0  0  0  0  0  0  0  0
  140.5690   69.6030  228.2350 C   0  0  0  0  0  0  0  0  0  0  0  0
  141.0410   70.7570  227.3810 C   0  0  0  0  0  0  0  0  0  0  0  0
  139.9490   70.7990  226.3130 C   0  0  0  0  0  0  0  0  0  0  0  0
  139.6870   70.8150  223.3560 C   0  0  0  0  0  0  0  0  0  0  0  0
  139.2590   73.8410  222.3570 N   0  0  0  0  0  0  0  0  0  0  0  0
  139.6180   75.2100  222.2330 C   0  0  0  0  0  0  0  0  0  0  0  0
  138.8180   76.2410  222.6610 C   0  0  0  0  0  0  0  0  0  0  0  0
  139.2440   77.5660  222.5020 C   0  0  0  0  0  0  0  0  0  0  0  0
  140.4580   77.8710  221.9210 C   0  0  0  0  0  0  0  0  0  0  0  0
  140.9220   79.2480  221.7450 C   0  0  0  0  0  0  0  0  0  0  0  0
  140.9800   79.8600  220.5070 C   0  0  0  0  0  0  0  0  0  0  0  0
  141.4350   81.1760  220.4300 C   0  0  0  0  0  0  0  0  0  0  0  0
  141.8260   81.8610  221.5780 C   0  0  0  0  0  0  0  0  0  0  0  0
  141.7710   81.2540  222.8210 C   0  0  0  0  0  0  0  0  0  0  0  0
  141.3160   79.9540  222.8580 C   0  0  0  0  0  0  0  0  0  0  0  0
  141.2550   76.8300  221.4930 C   0  0  0  0  0  0  0  0  0  0  0  0
  140.8240   75.5400  221.6560 C   0  0  0  0  0  0  0  0  0  0  0  0
  141.2878   72.5896  220.3184 H   0  0  0  0  0  0  0  0  0  0  0  0
  142.0692   72.5470  221.9550 H   0  0  0  0  0  0  0  0  0  0  0  0
  138.7340   71.2873  220.1707 H   0  0  0  0  0  0  0  0  0  0  0  0
  137.9258   68.9756  220.4402 H   0  0  0  0  0  0  0  0  0  0  0  0
  138.2618   67.8262  222.6239 H   0  0  0  0  0  0  0  0  0  0  0  0
  138.9017   68.4106  227.6542 H   0  0  0  0  0  0  0  0  0  0  0  0
  140.4966   67.7977  227.1045 H   0  0  0  0  0  0  0  0  0  0  0  0
  139.8668   69.9481  229.0082 H   0  0  0  0  0  0  0  0  0  0  0  0
  141.3894   69.1074  228.7748 H   0  0  0  0  0  0  0  0  0  0  0  0
  141.0800   71.6944  227.9553 H   0  0  0  0  0  0  0  0  0  0  0  0
  142.0593   70.6378  226.9823 H   0  0  0  0  0  0  0  0  0  0  0  0
  139.0350   71.2706  226.7032 H   0  0  0  0  0  0  0  0  0  0  0  0
  140.2351   71.3891  225.4299 H   0  0  0  0  0  0  0  0  0  0  0  0
  140.1849   71.3303  224.1906 H   0  0  0  0  0  0  0  0  0  0  0  0
  137.8451   76.0269  223.1275 H   0  0  0  0  0  0  0  0  0  0  0  0
  138.5948   78.3835  222.8488 H   0  0  0  0  0  0  0  0  0  0  0  0
  140.6730   79.3192  219.5996 H   0  0  0  0  0  0  0  0  0  0  0  0
  141.4856   81.6782  219.4526 H   0  0  0  0  0  0  0  0  0  0  0  0
  142.1833   82.8981  221.4959 H   0  0  0  0  0  0  0  0  0  0  0  0
  142.0759   81.7842  223.7353 H   0  0  0  0  0  0  0  0  0  0  0  0
  141.2648   79.4511  223.8350 H   0  0  0  0  0  0  0  0  0  0  0  0
  142.2291   77.0340  221.0244 H   0  0  0  0  0  0  0  0  0  0  0  0
  1  2  2  0
  2  3  1  0
  3  4  1  0
  4  5  1  0
  5  6  2  0
  6  7  1  0
  7  8  2  0
  8  9  1  0
  9 10  1  0
 10 11  2  0
 10 12  1  0
 12 13  1  0
 13 14  1  0
 14 15  1  0
 15 16  1  0
  9 17  2  0
  4 18  2  0
 18 19  1  0
 19 20  2  0
 20 21  1  0
 21 22  2  0
 22 23  1  0
 23 24  2  0
 24 25  1  0
 25 26  2  0
 26 27  1  0
 27 28  2  0
 22 29  1  0
 29 30  2  0
 30  2  1  0
 17  5  1  0
 30 19  1  0
 16 12  1  0
 28 23  1  0
  3 31  1  0
  3 32  1  0
  6 33  1  0
  7 34  1  0
  8 35  1  0
 13 36  1  0
 13 37  1  0
 14 38  1  0
 14 39  1  0
 15 40  1  0
 15 41  1  0
 16 42  1  0
 16 43  1  0
 17 44  1  0
 20 45  1  0
 21 46  1  0
 24 47  1  0
 25 48  1  0
 26 49  1  0
 27 50  1  0
 28 51  1  0
 29 52  1  0
M  END
>  <smiles>  (4) 
O=C1CC(c2cccc(C(=O)N3CCCC3)c2)=Nc2ccc(-c3ccccc3)cc21

>  <score_type>  (4) 
oracle

>  <origin>  (4) 
autodockgpu

>  <m_score__min__energy>  (4) 
-9.2899999999999991

>  <m_primary>  (4) 
energy

>  <rmsd>  (4) 
6.7629554651084485

>  <m_score__min__rmsd>  (4) 
6.7629554651084485

>  <meeko>  (4) 
{"free_energy": -9.14, "intermolecular_energy": -10.03, "internal_energy": -0.89, "cluster_size": 50, "cluster_id": 1, "rank_in_cluster": 41}

>  <energy>  (4) 
-9.28

>  <cluster_rmsd>  (4) 
0.05

>  <cluster>  (4) 
1

$$$$

     RDKit          3D

 52 56  0  0  0  0  0  0  0  0999 V2000
  142.9890   75.2090  220.1860 O   0  0  0  0  0  0  0  0  0  0  0  0
  141.9670   74.8510  220.8420 C   0  0  0  0  0  0  0  0  0  0  0  0
  141.7080   73.4090  220.9550 C   0  0  0  0  0  0  0  0  0  0  0  0
  140.4840   73.1280  221.7470 C   0  0  0  0  0  0  0  0  0  0  0  0
  140.1210   71.7100  221.9320 C   0  0  0  0  0  0  0  0  0  0  0  0
  139.9800   70.8460  220.8680 C   0  0  0  0  0  0  0  0  0  0  0  0
  139.6410   69.5170  221.0050 C   0  0  0  0  0  0  0  0  0  0  0  0
  139.4350   69.0270  222.2770 C   0  0  0  0  0  0  0  0  0  0  0  0
  139.5650   69.8550  223.3740 C   0  0  0  0  0  0  0  0  0  0  0  0
  139.3300   69.2570  224.6820 C   0  0  0  0  0  0  0  0  0  0  0  0
  138.8110   68.1060  224.7720 O   0  0  0  0  0  0  0  0  0  0  0  0
  139.6550   69.9000  225.9030 N   0  0  0  0  0  0  0  0  0  0  0  0
  139.4410   69.3450  227.2160 C   0  0  0  0  0  0  0  0  0  0  0  0
  140.2290   70.1260  228.2150 C   0  0  0  0  0  0  0  0  0  0  0  0
  141.1340   70.9850  227.3630 C   0  0  0  0  0  0  0  0  0  0  0  0
  140.2550   71.2090  226.1330 C   0  0  0  0  0  0  0  0  0  0  0  0
  139.9050   71.1850  223.2030 C   0  0  0  0  0  0  0  0  0  0  0  0
  139.7510   74.0420  222.2640 N   0  0  0  0  0  0  0  0  0  0  0  0
  140.0080   75.4360  222.1500 C   0  0  0  0  0  0  0  0  0  0  0  0
  139.2060   76.3990  222.7130 C   0  0  0  0  0  0  0  0  0  0  0  0
  139.5270   77.7530  222.5550 C   0  0  0  0  0  0  0  0  0  0  0  0
  140.6380   78.1540  221.8410 C   0  0  0  0  0  0  0  0  0  0  0  0
  140.9930   79.5640  221.6630 C   0  0  0  0  0  0  0  0  0  0  0  0
  141.0740   80.1570  220.4170 C   0  0  0  0  0  0  0  0  0  0  0  0
  141.4180   81.5060  220.3400 C   0  0  0  0  0  0  0  0  0  0  0  0
  141.6760   82.2420  221.4930 C   0  0  0  0  0  0  0  0  0  0  0  0
  141.5960   81.6530  222.7440 C   0  0  0  0  0  0  0  0  0  0  0  0
  141.2530   80.3200  222.7820 C   0  0  0  0  0  0  0  0  0  0  0  0
  141.4380   77.1820  221.2790 C   0  0  0  0  0  0  0  0  0  0  0  0
  141.1100   75.8610  221.4430 C   0  0  0  0  0  0  0  0  0  0  0  0
  141.5829   72.9898  219.9458 H   0  0  0  0  0  0  0  0  0  0  0  0
  142.5625   72.9481  221.4720 H   0  0  0  0  0  0  0  0  0  0  0  0
  140.1471   71.2382  219.8540 H   0  0  0  0  0  0  0  0  0  0  0  0
  139.5378   68.8659  220.1244 H   0  0  0  0  0  0  0  0  0  0  0  0
  139.1654   67.9700  222.4187 H   0  0  0  0  0  0  0  0  0  0  0  0
  138.3716   69.3988  227.4681 H   0  0  0  0  0  0  0  0  0  0  0  0
  139.7659   68.2942  227.2298 H   0  0  0  0  0  0  0  0  0  0  0  0
  139.5681   70.7482  228.8363 H   0  0  0  0  0  0  0  0  0  0  0  0
  140.7844   69.4852  228.9157 H   0  0  0  0  0  0  0  0  0  0  0  0
  141.3777   71.9340  227.8631 H   0  0  0  0  0  0  0  0  0  0  0  0
  142.1123   70.5324  227.1436 H   0  0  0  0  0  0  0  0  0  0  0  0
  139.4827   71.9661  226.3338 H   0  0  0  0  0  0  0  0  0  0  0  0
  140.8184   71.5815  225.2648 H   0  0  0  0  0  0  0  0  0  0  0  0
  140.0060   71.8366  224.0835 H   0  0  0  0  0  0  0  0  0  0  0  0
  138.3138   76.1072  223.2865 H   0  0  0  0  0  0  0  0  0  0  0  0
  138.8780   78.5152  223.0109 H   0  0  0  0  0  0  0  0  0  0  0  0
  140.8712   79.5765  219.5049 H   0  0  0  0  0  0  0  0  0  0  0  0
  141.4863   81.9943  219.3567 H   0  0  0  0  0  0  0  0  0  0  0  0
  141.9468   83.3049  221.4095 H   0  0  0  0  0  0  0  0  0  0  0  0
  141.7968   82.2228  223.6632 H   0  0  0  0  0  0  0  0  0  0  0  0
  141.1829   79.8312  223.7649 H   0  0  0  0  0  0  0  0  0  0  0  0
  142.3322   77.4641  220.7037 H   0  0  0  0  0  0  0  0  0  0  0  0
  1  2  2  0
  2  3  1  0
  3  4  1  0
  4  5  1  0
  5  6  2  0
  6  7  1  0
  7  8  2  0
  8  9  1  0
  9 10  1  0
 10 11  2  0
 10 12  1  0
 12 13  1  0
 13 14  1  0
 14 15  1  0
 15 16  1  0
  9 17  2  0
  4 18  2  0
 18 19  1  0
 19 20  2  0
 20 21  1  0
 21 22  2  0
 22 23  1  0
 23 24  2  0
 24 25  1  0
 25 26  2  0
 26 27  1  0
 27 28  2  0
 22 29  1  0
 29 30  2  0
 30  2  1  0
 17  5  1  0
 30 19  1  0
 16 12  1  0
 28 23  1  0
  3 31  1  0
  3 32  1  0
  6 33  1  0
  7 34  1  0
  8 35  1  0
 13 36  1  0
 13 37  1  0
 14 38  1  0
 14 39  1  0
 15 40  1  0
 15 41  1  0
 16 42  1  0
 16 43  1  0
 17 44  1  0
 20 45  1  0
 21 46  1  0
 24 47  1  0
 25 48  1  0
 26 49  1  0
 27 50  1  0
 28 51  1  0
 29 52  1  0
M  END
>  <smiles>  (5) 
O=C1CC(c2cccc(C(=O)N3CCCC3)c2)=Nc2ccc(-c3ccccc3)cc21

>  <score_type>  (5) 
oracle

>  <origin>  (5) 
autodockgpu

>  <m_score__min__energy>  (5) 
-9.2899999999999991

>  <m_primary>  (5) 
energy

>  <rmsd>  (5) 
6.844559913596974

>  <m_score__min__rmsd>  (5) 
6.844559913596974

>  <meeko>  (5) 
{"free_energy": -9.05, "intermolecular_energy": -9.95, "internal_energy": -0.88, "cluster_size": 50, "cluster_id": 1, "rank_in_cluster": 44}

>  <energy>  (5) 
-9.28

>  <cluster_rmsd>  (5) 
0.04

>  <cluster>  (5) 
1

$$$$

     RDKit          3D

 52 56  0  0  0  0  0  0  0  0999 V2000
  142.5680   73.1240  220.7050 O   0  0  0  0  0  0  0  0  0  0  0  0
  141.4270   73.3190  221.2160 C   0  0  0  0  0  0  0  0  0  0  0  0
  140.8020   72.1930  221.9220 C   0  0  0  0  0  0  0  0  0  0  0  0
  139.4710   72.5560  222.4710 C   0  0  0  0  0  0  0  0  0  0  0  0
  138.7430   71.5030  223.2060 C   0  0  0  0  0  0  0  0  0  0  0  0
  137.3690   71.4070  223.1790 C   0  0  0  0  0  0  0  0  0  0  0  0
  136.6590   70.4370  223.8530 C   0  0  0  0  0  0  0  0  0  0  0  0
  137.3640   69.5130  224.5930 C   0  0  0  0  0  0  0  0  0  0  0  0
  138.7430   69.5680  224.6500 C   0  0  0  0  0  0  0  0  0  0  0  0
  139.4110   68.5520  225.4540 C   0  0  0  0  0  0  0  0  0  0  0  0
  139.5810   67.3860  224.9930 O   0  0  0  0  0  0  0  0  0  0  0  0
  139.9000   68.7910  226.7630 N   0  0  0  0  0  0  0  0  0  0  0  0
  140.5660   67.8180  227.5910 C   0  0  0  0  0  0  0  0  0  0  0  0
  141.2520   68.5170  228.7180 C   0  0  0  0  0  0  0  0  0  0  0  0
  141.1800   69.9750  228.3300 C   0  0  0  0  0  0  0  0  0  0  0  0
  139.8600   70.0110  227.5610 C   0  0  0  0  0  0  0  0  0  0  0  0
  139.4260   70.5550  223.9620 C   0  0  0  0  0  0  0  0  0  0  0  0
  138.9430   73.7150  222.3380 N   0  0  0  0  0  0  0  0  0  0  0  0
  139.5530   74.8000  221.6530 C   0  0  0  0  0  0  0  0  0  0  0  0
  138.9670   76.0350  221.5220 C   0  0  0  0  0  0  0  0  0  0  0  0
  139.6350   77.0550  220.8300 C   0  0  0  0  0  0  0  0  0  0  0  0
  140.8790   76.8520  220.2690 C   0  0  0  0  0  0  0  0  0  0  0  0
  141.5950   77.9030  219.5420 C   0  0  0  0  0  0  0  0  0  0  0  0
  142.3220   77.6490  218.3950 C   0  0  0  0  0  0  0  0  0  0  0  0
  142.9730   78.7090  217.7660 C   0  0  0  0  0  0  0  0  0  0  0  0
  142.8940   80.0000  218.2830 C   0  0  0  0  0  0  0  0  0  0  0  0
  142.1670   80.2610  219.4320 C   0  0  0  0  0  0  0  0  0  0  0  0
  141.5370   79.1890  220.0260 C   0  0  0  0  0  0  0  0  0  0  0  0
  141.4610   75.6100  220.4050 C   0  0  0  0  0  0  0  0  0  0  0  0
  140.7950   74.6240  221.0840 C   0  0  0  0  0  0  0  0  0  0  0  0
  140.6808   71.3554  221.2193 H   0  0  0  0  0  0  0  0  0  0  0  0
  141.4536   71.9129  222.7628 H   0  0  0  0  0  0  0  0  0  0  0  0
  136.8078   72.1450  222.5870 H   0  0  0  0  0  0  0  0  0  0  0  0
  135.5608   70.4015  223.8016 H   0  0  0  0  0  0  0  0  0  0  0  0
  136.8253   68.7266  225.1419 H   0  0  0  0  0  0  0  0  0  0  0  0
  139.8266   67.1099  227.9933 H   0  0  0  0  0  0  0  0  0  0  0  0
  141.3073   67.2692  226.9916 H   0  0  0  0  0  0  0  0  0  0  0  0
  140.7280   68.3374  229.6684 H   0  0  0  0  0  0  0  0  0  0  0  0
  142.2832   68.1669  228.8729 H   0  0  0  0  0  0  0  0  0  0  0  0
  141.1489   70.6270  229.2154 H   0  0  0  0  0  0  0  0  0  0  0  0
  142.0474   70.3335  227.7563 H   0  0  0  0  0  0  0  0  0  0  0  0
  139.0027   70.0026  228.2502 H   0  0  0  0  0  0  0  0  0  0  0  0
  139.7429   70.9191  226.9514 H   0  0  0  0  0  0  0  0  0  0  0  0
  140.5242   70.5910  224.0133 H   0  0  0  0  0  0  0  0  0  0  0  0
  137.9754   76.2236  221.9592 H   0  0  0  0  0  0  0  0  0  0  0  0
  139.1560   78.0404  220.7320 H   0  0  0  0  0  0  0  0  0  0  0  0
  142.3859   76.6299  217.9860 H   0  0  0  0  0  0  0  0  0  0  0  0
  143.5555   78.5240  216.8514 H   0  0  0  0  0  0  0  0  0  0  0  0
  143.4158   80.8225  217.7719 H   0  0  0  0  0  0  0  0  0  0  0  0
  142.0957   81.2757  219.8508 H   0  0  0  0  0  0  0  0  0  0  0  0
  140.9538   79.3725  220.9404 H   0  0  0  0  0  0  0  0  0  0  0  0
  142.4525   75.4120  219.9717 H   0  0  0  0  0  0  0  0  0  0  0  0
  1  2  2  0
  2  3  1  0
  3  4  1  0
  4  5  1  0
  5  6  2  0
  6  7  1  0
  7  8  2  0
  8  9  1  0
  9 10  1  0
 10 11  2  0
 10 12  1  0
 12 13  1  0
 13 14  1  0
 14 15  1  0
 15 16  1  0
  9 17  2  0
  4 18  2  0
 18 19  1  0
 19 20  2  0
 20 21  1  0
 21 22  2  0
 22 23  1  0
 23 24  2  0
 24 25  1  0
 25 26  2  0
 26 27  1  0
 27 28  2  0
 22 29  1  0
 29 30  2  0
 30  2  1  0
 17  5  1  0
 30 19  1  0
 16 12  1  0
 28 23  1  0
  3 31  1  0
  3 32  1  0
  6 33  1  0
  7 34  1  0
  8 35  1  0
 13 36  1  0
 13 37  1  0
 14 38  1  0
 14 39  1  0
 15 40  1  0
 15 41  1  0
 16 42  1  0
 16 43  1  0
 17 44  1  0
 20 45  1  0
 21 46  1  0
 24 47  1  0
 25 48  1  0
 26 49  1  0
 27 50  1  0
 28 51  1  0
 29 52  1  0
M  END
>  <smiles>  (6) 
O=C1CC(c2cccc(C(=O)N3CCCC3)c2)=Nc2ccc(-c3ccccc3)cc21

>  <score_type>  (6) 
oracle

>  <origin>  (6) 
autodockgpu

>  <m_score__min__energy>  (6) 
-9.2899999999999991

>  <m_primary>  (6) 
energy

>  <rmsd>  (6) 
6.878504216145857

>  <m_score__min__rmsd>  (6) 
6.878504216145857

>  <meeko>  (6) 
{"free_energy": -8.25, "intermolecular_energy": -9.14, "internal_energy": -1.02, "cluster_size": 50, "cluster_id": 1, "rank_in_cluster": 49}

>  <energy>  (6) 
-9.28

>  <cluster_rmsd>  (6) 
0.01

>  <cluster>  (6) 
1

$$$$

     RDKit          3D

 52 56  0  0  0  0  0  0  0  0999 V2000
  142.9050   75.1340  220.2630 O   0  0  0  0  0  0  0  0  0  0  0  0
  141.8730   74.7860  220.9080 C   0  0  0  0  0  0  0  0  0  0  0  0
  141.6100   73.3470  221.0360 C   0  0  0  0  0  0  0  0  0  0  0  0
  140.3740   73.0780  221.8140 C   0  0  0  0  0  0  0  0  0  0  0  0
  140.0050   71.6630  222.0110 C   0  0  0  0  0  0  0  0  0  0  0  0
  139.8150   70.8010  220.9520 C   0  0  0  0  0  0  0  0  0  0  0  0
  139.4710   69.4750  221.1020 C   0  0  0  0  0  0  0  0  0  0  0  0
  139.3090   68.9860  222.3800 C   0  0  0  0  0  0  0  0  0  0  0  0
  139.4890   69.8120  223.4720 C   0  0  0  0  0  0  0  0  0  0  0  0
  139.2990   69.2140  224.7880 C   0  0  0  0  0  0  0  0  0  0  0  0
  138.8320   68.0430  224.8940 O   0  0  0  0  0  0  0  0  0  0  0  0
  139.6120   69.8800  225.9990 N   0  0  0  0  0  0  0  0  0  0  0  0
  139.4420   69.3270  227.3190 C   0  0  0  0  0  0  0  0  0  0  0  0
  140.2090   70.1500  228.3010 C   0  0  0  0  0  0  0  0  0  0  0  0
  141.0620   71.0410  227.4290 C   0  0  0  0  0  0  0  0  0  0  0  0
  140.1570   71.2170  226.2110 C   0  0  0  0  0  0  0  0  0  0  0  0
  139.8340   71.1390  223.2890 C   0  0  0  0  0  0  0  0  0  0  0  0
  139.6350   74.0000  222.3080 N   0  0  0  0  0  0  0  0  0  0  0  0
  139.8960   75.3910  222.1800 C   0  0  0  0  0  0  0  0  0  0  0  0
  139.0880   76.3630  222.7180 C   0  0  0  0  0  0  0  0  0  0  0  0
  139.4140   77.7150  222.5480 C   0  0  0  0  0  0  0  0  0  0  0  0
  140.5360   78.1040  221.8460 C   0  0  0  0  0  0  0  0  0  0  0  0
  140.8950   79.5110  221.6550 C   0  0  0  0  0  0  0  0  0  0  0  0
  141.1000   80.3750  222.7140 C   0  0  0  0  0  0  0  0  0  0  0  0
  141.4400   81.7000  222.4410 C   0  0  0  0  0  0  0  0  0  0  0  0
  141.5700   82.1450  221.1280 C   0  0  0  0  0  0  0  0  0  0  0  0
  141.3650   81.2850  220.0630 C   0  0  0  0  0  0  0  0  0  0  0  0
  141.0320   79.9840  220.3700 C   0  0  0  0  0  0  0  0  0  0  0  0
  141.3420   77.1240  221.3080 C   0  0  0  0  0  0  0  0  0  0  0  0
  141.0090   75.8060  221.4840 C   0  0  0  0  0  0  0  0  0  0  0  0
  141.4987   72.9148  220.0306 H   0  0  0  0  0  0  0  0  0  0  0  0
  142.4562   72.8916  221.5714 H   0  0  0  0  0  0  0  0  0  0  0  0
  139.9450   71.1927  219.9324 H   0  0  0  0  0  0  0  0  0  0  0  0
  139.3297   68.8250  220.2259 H   0  0  0  0  0  0  0  0  0  0  0  0
  139.0347   67.9315  222.5313 H   0  0  0  0  0  0  0  0  0  0  0  0
  138.3750   69.3355  227.5864 H   0  0  0  0  0  0  0  0  0  0  0  0
  139.8137   68.2918  227.3357 H   0  0  0  0  0  0  0  0  0  0  0  0
  139.5303   70.7473  228.9276 H   0  0  0  0  0  0  0  0  0  0  0  0
  140.8022   69.5402  228.9983 H   0  0  0  0  0  0  0  0  0  0  0  0
  141.2710   72.0036  227.9185 H   0  0  0  0  0  0  0  0  0  0  0  0
  142.0556   70.6295  227.1979 H   0  0  0  0  0  0  0  0  0  0  0  0
  139.3549   71.9408  226.4178 H   0  0  0  0  0  0  0  0  0  0  0  0
  140.6908   71.6077  225.3321 H   0  0  0  0  0  0  0  0  0  0  0  0
  139.9751   71.7888  224.1653 H   0  0  0  0  0  0  0  0  0  0  0  0
  138.1865   76.0803  223.2814 H   0  0  0  0  0  0  0  0  0  0  0  0
  138.7600   78.4842  222.9845 H   0  0  0  0  0  0  0  0  0  0  0  0
  140.9971   80.0247  223.7517 H   0  0  0  0  0  0  0  0  0  0  0  0
  141.6072   82.4010  223.2720 H   0  0  0  0  0  0  0  0  0  0  0  0
  141.8392   83.1939  220.9346 H   0  0  0  0  0  0  0  0  0  0  0  0
  141.4633   81.6242  219.0212 H   0  0  0  0  0  0  0  0  0  0  0  0
  140.8659   79.2822  219.5394 H   0  0  0  0  0  0  0  0  0  0  0  0
  142.2449   77.3972  220.7422 H   0  0  0  0  0  0  0  0  0  0  0  0
  1  2  2  0
  2  3  1  0
  3  4  1  0
  4  5  1  0
  5  6  2  0
  6  7  1  0
  7  8  2  0
  8  9  1  0
  9 10  1  0
 10 11  2  0
 10 12  1  0
 12 13  1  0
 13 14  1  0
 14 15  1  0
 15 16  1  0
  9 17  2  0
  4 18  2  0
 18 19  1  0
 19 20  2  0
 20 21  1  0
 21 22  2  0
 22 23  1  0
 23 24  2  0
 24 25  1  0
 25 26  2  0
 26 27  1  0
 27 28  2  0
 22 29  1  0
 29 30  2  0
 30  2  1  0
 17  5  1  0
 30 19  1  0
 16 12  1  0
 28 23  1  0
  3 31  1  0
  3 32  1  0
  6 33  1  0
  7 34  1  0
  8 35  1  0
 13 36  1  0
 13 37  1  0
 14 38  1  0
 14 39  1  0
 15 40  1  0
 15 41  1  0
 16 42  1  0
 16 43  1  0
 17 44  1  0
 20 45  1  0
 21 46  1  0
 24 47  1  0
 25 48  1  0
 26 49  1  0
 27 50  1  0
 28 51  1  0
 29 52  1  0
M  END
>  <smiles>  (7) 
O=C1CC(c2cccc(C(=O)N3CCCC3)c2)=Nc2ccc(-c3ccccc3)cc21

>  <score_type>  (7) 
oracle

>  <origin>  (7) 
autodockgpu

>  <m_score__min__energy>  (7) 
-9.2899999999999991

>  <m_primary>  (7) 
energy

>  <rmsd>  (7) 
6.82968611672367

>  <m_score__min__rmsd>  (7) 
6.82968611672367

>  <meeko>  (7) 
{"free_energy": -9.03, "intermolecular_energy": -9.93, "internal_energy": -0.87, "cluster_size": 50, "cluster_id": 1, "rank_in_cluster": 45}

>  <energy>  (7) 
-9.28

>  <cluster_rmsd>  (7) 
0.03

>  <cluster>  (7) 
1

$$$$

     RDKit          3D

 52 56  0  0  0  0  0  0  0  0999 V2000
  142.9140   74.8970  220.4900 O   0  0  0  0  0  0  0  0  0  0  0  0
  141.8300   74.5980  221.0720 C   0  0  0  0  0  0  0  0  0  0  0  0
  141.5030   73.1720  221.2000 C   0  0  0  0  0  0  0  0  0  0  0  0
  140.2100   72.9620  221.9000 C   0  0  0  0  0  0  0  0  0  0  0  0
  139.7750   71.5650  222.0900 C   0  0  0  0  0  0  0  0  0  0  0  0
  139.3080   70.7950  221.0470 C   0  0  0  0  0  0  0  0  0  0  0  0
  138.8940   69.4880  221.1900 C   0  0  0  0  0  0  0  0  0  0  0  0
  138.9500   68.9230  222.4460 C   0  0  0  0  0  0  0  0  0  0  0  0
  139.4110   69.6560  223.5220 C   0  0  0  0  0  0  0  0  0  0  0  0
  139.4390   68.9820  224.8140 C   0  0  0  0  0  0  0  0  0  0  0  0
  139.1960   67.7420  224.8910 O   0  0  0  0  0  0  0  0  0  0  0  0
  139.7300   69.6450  226.0330 N   0  0  0  0  0  0  0  0  0  0  0  0
  139.7690   69.0180  227.3300 C   0  0  0  0  0  0  0  0  0  0  0  0
  140.4590   69.9250  228.2950 C   0  0  0  0  0  0  0  0  0  0  0  0
  141.0670   70.9890  227.4110 C   0  0  0  0  0  0  0  0  0  0  0  0
  140.0470   71.0480  226.2750 C   0  0  0  0  0  0  0  0  0  0  0  0
  139.8190   70.9660  223.3450 C   0  0  0  0  0  0  0  0  0  0  0  0
  139.4780   73.9190  222.3340 N   0  0  0  0  0  0  0  0  0  0  0  0
  139.8000   75.2970  222.2060 C   0  0  0  0  0  0  0  0  0  0  0  0
  138.9990   76.3070  222.6790 C   0  0  0  0  0  0  0  0  0  0  0  0
  139.3870   77.6420  222.5140 C   0  0  0  0  0  0  0  0  0  0  0  0
  140.5670   77.9780  221.8800 C   0  0  0  0  0  0  0  0  0  0  0  0
  140.9920   79.3670  221.6960 C   0  0  0  0  0  0  0  0  0  0  0  0
  141.0300   79.9740  220.4540 C   0  0  0  0  0  0  0  0  0  0  0  0
  141.4490   81.3010  220.3700 C   0  0  0  0  0  0  0  0  0  0  0  0
  141.8220   82.0040  221.5130 C   0  0  0  0  0  0  0  0  0  0  0  0
  141.7850   81.4020  222.7600 C   0  0  0  0  0  0  0  0  0  0  0  0
  141.3670   80.0900  222.8050 C   0  0  0  0  0  0  0  0  0  0  0  0
  141.3660   76.9600  221.4080 C   0  0  0  0  0  0  0  0  0  0  0  0
  140.9720   75.6590  221.5780 C   0  0  0  0  0  0  0  0  0  0  0  0
  141.4393   72.7299  220.1948 H   0  0  0  0  0  0  0  0  0  0  0  0
  142.2947   72.6922  221.7942 H   0  0  0  0  0  0  0  0  0  0  0  0
  139.2631   71.2480  220.0456 H   0  0  0  0  0  0  0  0  0  0  0  0
  138.5294   68.9124  220.3265 H   0  0  0  0  0  0  0  0  0  0  0  0
  138.6256   67.8821  222.5922 H   0  0  0  0  0  0  0  0  0  0  0  0
  138.7428   68.8251  227.6761 H   0  0  0  0  0  0  0  0  0  0  0  0
  140.3157   68.0658  227.2632 H   0  0  0  0  0  0  0  0  0  0  0  0
  139.7408   70.3654  229.0022 H   0  0  0  0  0  0  0  0  0  0  0  0
  141.2060   69.4039  228.9117 H   0  0  0  0  0  0  0  0  0  0  0  0
  141.1435   71.9532  227.9348 H   0  0  0  0  0  0  0  0  0  0  0  0
  142.0948   70.7722  227.0846 H   0  0  0  0  0  0  0  0  0  0  0  0
  139.1502   71.6074  226.5797 H   0  0  0  0  0  0  0  0  0  0  0  0
  140.4288   71.5627  225.3809 H   0  0  0  0  0  0  0  0  0  0  0  0
  140.1832   71.5420  224.2084 H   0  0  0  0  0  0  0  0  0  0  0  0
  138.0533   76.0674  223.1871 H   0  0  0  0  0  0  0  0  0  0  0  0
  138.7369   78.4418  222.8983 H   0  0  0  0  0  0  0  0  0  0  0  0
  140.7354   79.4206  219.5501 H   0  0  0  0  0  0  0  0  0  0  0  0
  141.4854   81.7986  219.3896 H   0  0  0  0  0  0  0  0  0  0  0  0
  142.1500   83.0502  221.4244 H   0  0  0  0  0  0  0  0  0  0  0  0
  142.0756   81.9457  223.6710 H   0  0  0  0  0  0  0  0  0  0  0  0
  141.3310   79.5913  223.7848 H   0  0  0  0  0  0  0  0  0  0  0  0
  142.3133   77.1900  220.8984 H   0  0  0  0  0  0  0  0  0  0  0  0
  1  2  2  0
  2  3  1  0
  3  4  1  0
  4  5  1  0
  5  6  2  0
  6  7  1  0
  7  8  2  0
  8  9  1  0
  9 10  1  0
 10 11  2  0
 10 12  1  0
 12 13  1  0
 13 14  1  0
 14 15  1  0
 15 16  1  0
  9 17  2  0
  4 18  2  0
 18 19  1  0
 19 20  2  0
 20 21  1  0
 21 22  2  0
 22 23  1  0
 23 24  2  0
 24 25  1  0
 25 26  2  0
 26 27  1  0
 27 28  2  0
 22 29  1  0
 29 30  2  0
 30  2  1  0
 17  5  1  0
 30 19  1  0
 16 12  1  0
 28 23  1  0
  3 31  1  0
  3 32  1  0
  6 33  1  0
  7 34  1  0
  8 35  1  0
 13 36  1  0
 13 37  1  0
 14 38  1  0
 14 39  1  0
 15 40  1  0
 15 41  1  0
 16 42  1  0
 16 43  1  0
 17 44  1  0
 20 45  1  0
 21 46  1  0
 24 47  1  0
 25 48  1  0
 26 49  1  0
 27 50  1  0
 28 51  1  0
 29 52  1  0
M  END
>  <smiles>  (8) 
O=C1CC(c2cccc(C(=O)N3CCCC3)c2)=Nc2ccc(-c3ccccc3)cc21

>  <score_type>  (8) 
oracle

>  <origin>  (8) 
autodockgpu

>  <m_score__min__energy>  (8) 
-9.2899999999999991

>  <m_primary>  (8) 
energy

>  <rmsd>  (8) 
6.802481618611855

>  <m_score__min__rmsd>  (8) 
6.802481618611855

>  <meeko>  (8) 
{"free_energy": -9.27, "intermolecular_energy": -10.16, "internal_energy": -0.87, "cluster_size": 50, "cluster_id": 1, "rank_in_cluster": 16}

>  <energy>  (8) 
-9.28

>  <cluster_rmsd>  (8) 
0.04

>  <cluster>  (8) 
1

$$$$

     RDKit          3D

 52 56  0  0  0  0  0  0  0  0999 V2000
  142.9780   74.8880  220.4350 O   0  0  0  0  0  0  0  0  0  0  0  0
  141.9090   74.5730  221.0340 C   0  0  0  0  0  0  0  0  0  0  0  0
  141.6020   73.1430  221.1600 C   0  0  0  0  0  0  0  0  0  0  0  0
  140.3250   72.9140  221.8830 C   0  0  0  0  0  0  0  0  0  0  0  0
  139.9100   71.5100  222.0730 C   0  0  0  0  0  0  0  0  0  0  0  0
  139.5170   70.7130  221.0190 C   0  0  0  0  0  0  0  0  0  0  0  0
  139.1240   69.4000  221.1630 C   0  0  0  0  0  0  0  0  0  0  0  0
  139.1240   68.8560  222.4290 C   0  0  0  0  0  0  0  0  0  0  0  0
  139.5090   69.6160  223.5160 C   0  0  0  0  0  0  0  0  0  0  0  0
  139.4810   68.9640  224.8190 C   0  0  0  0  0  0  0  0  0  0  0  0
  139.2050   67.7320  224.9080 O   0  0  0  0  0  0  0  0  0  0  0  0
  139.7520   69.6400  226.0350 N   0  0  0  0  0  0  0  0  0  0  0  0
  139.7370   69.0340  227.3420 C   0  0  0  0  0  0  0  0  0  0  0  0
  140.4200   69.9400  228.3130 C   0  0  0  0  0  0  0  0  0  0  0  0
  141.0810   70.9740  227.4310 C   0  0  0  0  0  0  0  0  0  0  0  0
  140.0970   71.0380  226.2640 C   0  0  0  0  0  0  0  0  0  0  0  0
  139.8980   70.9320  223.3390 C   0  0  0  0  0  0  0  0  0  0  0  0
  139.5890   73.8590  222.3360 N   0  0  0  0  0  0  0  0  0  0  0  0
  139.8930   75.2410  222.2100 C   0  0  0  0  0  0  0  0  0  0  0  0
  139.0880   76.2380  222.7040 C   0  0  0  0  0  0  0  0  0  0  0  0
  139.4570   77.5800  222.5390 C   0  0  0  0  0  0  0  0  0  0  0  0
  140.6200   77.9330  221.8860 C   0  0  0  0  0  0  0  0  0  0  0  0
  141.0260   79.3280  221.7010 C   0  0  0  0  0  0  0  0  0  0  0  0
  141.0280   79.9440  220.4640 C   0  0  0  0  0  0  0  0  0  0  0  0
  141.4300   81.2760  220.3790 C   0  0  0  0  0  0  0  0  0  0  0  0
  141.8210   81.9750  221.5180 C   0  0  0  0  0  0  0  0  0  0  0  0
  141.8210   81.3650  222.7610 C   0  0  0  0  0  0  0  0  0  0  0  0
  141.4180   80.0480  222.8060 C   0  0  0  0  0  0  0  0  0  0  0  0
  141.4230   76.9270  221.3920 C   0  0  0  0  0  0  0  0  0  0  0  0
  141.0480   75.6210  221.5630 C   0  0  0  0  0  0  0  0  0  0  0  0
  141.5247   72.7055  220.1537 H   0  0  0  0  0  0  0  0  0  0  0  0
  142.4105   72.6695  221.7363 H   0  0  0  0  0  0  0  0  0  0  0  0
  139.5171   71.1485  220.0089 H   0  0  0  0  0  0  0  0  0  0  0  0
  138.8187   68.8026  220.2912 H   0  0  0  0  0  0  0  0  0  0  0  0
  138.8155   67.8102  222.5747 H   0  0  0  0  0  0  0  0  0  0  0  0
  138.6966   68.8716  227.6600 H   0  0  0  0  0  0  0  0  0  0  0  0
  140.2620   68.0680  227.3067 H   0  0  0  0  0  0  0  0  0  0  0  0
  139.6919   70.4097  228.9907 H   0  0  0  0  0  0  0  0  0  0  0  0
  141.1348   69.4111  228.9606 H   0  0  0  0  0  0  0  0  0  0  0  0
  141.1656   71.9449  227.9412 H   0  0  0  0  0  0  0  0  0  0  0  0
  142.1126   70.7272  227.1398 H   0  0  0  0  0  0  0  0  0  0  0  0
  139.2058   71.6244  226.5324 H   0  0  0  0  0  0  0  0  0  0  0  0
  140.5185   71.5275  225.3736 H   0  0  0  0  0  0  0  0  0  0  0  0
  140.2020   71.5297  224.2110 H   0  0  0  0  0  0  0  0  0  0  0  0
  138.1551   75.9837  223.2283 H   0  0  0  0  0  0  0  0  0  0  0  0
  138.8044   78.3699  222.9393 H   0  0  0  0  0  0  0  0  0  0  0  0
  140.7182   79.3936  219.5634 H   0  0  0  0  0  0  0  0  0  0  0  0
  141.4384   81.7804  219.4015 H   0  0  0  0  0  0  0  0  0  0  0  0
  142.1340   83.0258  221.4291 H   0  0  0  0  0  0  0  0  0  0  0  0
  142.1278   81.9055  223.6686 H   0  0  0  0  0  0  0  0  0  0  0  0
  141.4092   79.5425  223.7829 H   0  0  0  0  0  0  0  0  0  0  0  0
  142.3571   77.1713  220.8649 H   0  0  0  0  0  0  0  0  0  0  0  0
  1  2  2  0
  2  3  1  0
  3  4  1  0
  4  5  1  0
  5  6  2  0
  6  7  1  0
  7  8  2  0
  8  9  1  0
  9 10  1  0
 10 11  2  0
 10 12  1  0
 12 13  1  0
 13 14  1  0
 14 15  1  0
 15 16  1  0
  9 17  2  0
  4 18  2  0
 18 19  1  0
 19 20  2  0
 20 21  1  0
 21 22  2  0
 22 23  1  0
 23 24  2  0
 24 25  1  0
 25 26  2  0
 26 27  1  0
 27 28  2  0
 22 29  1  0
 29 30  2  0
 30  2  1  0
 17  5  1  0
 30 19  1  0
 16 12  1  0
 28 23  1  0
  3 31  1  0
  3 32  1  0
  6 33  1  0
  7 34  1  0
  8 35  1  0
 13 36  1  0
 13 37  1  0
 14 38  1  0
 14 39  1  0
 15 40  1  0
 15 41  1  0
 16 42  1  0
 16 43  1  0
 17 44  1  0
 20 45  1  0
 21 46  1  0
 24 47  1  0
 25 48  1  0
 26 49  1  0
 27 50  1  0
 28 51  1  0
 29 52  1  0
M  END
>  <smiles>  (9) 
O=C1CC(c2cccc(C(=O)N3CCCC3)c2)=Nc2ccc(-c3ccccc3)cc21

>  <score_type>  (9) 
oracle

>  <origin>  (9) 
autodockgpu

>  <m_score__min__energy>  (9) 
-9.2899999999999991

>  <m_primary>  (9) 
energy

>  <rmsd>  (9) 
6.8055884495067875

>  <m_score__min__rmsd>  (9) 
6.8055884495067875

>  <meeko>  (9) 
{"free_energy": -9.28, "intermolecular_energy": -10.17, "internal_energy": -0.86, "cluster_size": 50, "cluster_id": 1, "rank_in_cluster": 9}

>  <energy>  (9) 
-9.28

>  <cluster_rmsd>  (9) 
0.03

>  <cluster>  (9) 
1

$$$$

     RDKit          3D

 52 56  0  0  0  0  0  0  0  0999 V2000
  142.9000   74.8810  220.5370 O   0  0  0  0  0  0  0  0  0  0  0  0
  141.8100   74.5850  221.1090 C   0  0  0  0  0  0  0  0  0  0  0  0
  141.4800   73.1590  221.2360 C   0  0  0  0  0  0  0  0  0  0  0  0
  140.1810   72.9520  221.9240 C   0  0  0  0  0  0  0  0  0  0  0  0
  139.7420   71.5560  222.1130 C   0  0  0  0  0  0  0  0  0  0  0  0
  139.2570   70.7930  221.0720 C   0  0  0  0  0  0  0  0  0  0  0  0
  138.8390   69.4880  221.2140 C   0  0  0  0  0  0  0  0  0  0  0  0
  138.9110   68.9150  222.4660 C   0  0  0  0  0  0  0  0  0  0  0  0
  139.3900   69.6400  223.5390 C   0  0  0  0  0  0  0  0  0  0  0  0
  139.4340   68.9590  224.8270 C   0  0  0  0  0  0  0  0  0  0  0  0
  139.2030   67.7160  224.8980 O   0  0  0  0  0  0  0  0  0  0  0  0
  139.7290   69.6160  226.0470 N   0  0  0  0  0  0  0  0  0  0  0  0
  139.7840   68.9820  227.3400 C   0  0  0  0  0  0  0  0  0  0  0  0
  140.4720   69.8900  228.3050 C   0  0  0  0  0  0  0  0  0  0  0  0
  141.0640   70.9650  227.4230 C   0  0  0  0  0  0  0  0  0  0  0  0
  140.0350   71.0210  226.2960 C   0  0  0  0  0  0  0  0  0  0  0  0
  139.8010   70.9490  223.3640 C   0  0  0  0  0  0  0  0  0  0  0  0
  139.4450   73.9100  222.3500 N   0  0  0  0  0  0  0  0  0  0  0  0
  139.7700   75.2880  222.2220 C   0  0  0  0  0  0  0  0  0  0  0  0
  138.9650   76.2990  222.6860 C   0  0  0  0  0  0  0  0  0  0  0  0
  139.3570   77.6340  222.5210 C   0  0  0  0  0  0  0  0  0  0  0  0
  140.5420   77.9680  221.8990 C   0  0  0  0  0  0  0  0  0  0  0  0
  140.9710   79.3560  221.7160 C   0  0  0  0  0  0  0  0  0  0  0  0
  140.9640   79.9790  220.4820 C   0  0  0  0  0  0  0  0  0  0  0  0
  141.3900   81.3040  220.3990 C   0  0  0  0  0  0  0  0  0  0  0  0
  141.8140   81.9880  221.5350 C   0  0  0  0  0  0  0  0  0  0  0  0
  141.8230   81.3700  222.7740 C   0  0  0  0  0  0  0  0  0  0  0  0
  141.3960   80.0600  222.8180 C   0  0  0  0  0  0  0  0  0  0  0  0
  141.3450   76.9470  221.4360 C   0  0  0  0  0  0  0  0  0  0  0  0
  140.9480   75.6470  221.6050 C   0  0  0  0  0  0  0  0  0  0  0  0
  141.4250   72.7155  220.2308 H   0  0  0  0  0  0  0  0  0  0  0  0
  142.2656   72.6789  221.8380 H   0  0  0  0  0  0  0  0  0  0  0  0
  139.2008   71.2513  220.0736 H   0  0  0  0  0  0  0  0  0  0  0  0
  138.4585   68.9192  220.3528 H   0  0  0  0  0  0  0  0  0  0  0  0
  138.5850   67.8744  222.6108 H   0  0  0  0  0  0  0  0  0  0  0  0
  138.7624   68.7769  227.6926 H   0  0  0  0  0  0  0  0  0  0  0  0
  140.3397   68.0358  227.2635 H   0  0  0  0  0  0  0  0  0  0  0  0
  139.7545   70.3196  229.0196 H   0  0  0  0  0  0  0  0  0  0  0  0
  141.2283   69.3724  228.9134 H   0  0  0  0  0  0  0  0  0  0  0  0
  141.1357   71.9268  227.9520 H   0  0  0  0  0  0  0  0  0  0  0  0
  142.0914   70.7599  227.0876 H   0  0  0  0  0  0  0  0  0  0  0  0
  139.1354   71.5698  226.6114 H   0  0  0  0  0  0  0  0  0  0  0  0
  140.4051   71.5447  225.4023 H   0  0  0  0  0  0  0  0  0  0  0  0
  140.1798   71.5183  224.2257 H   0  0  0  0  0  0  0  0  0  0  0  0
  138.0145   76.0614  223.1861 H   0  0  0  0  0  0  0  0  0  0  0  0
  138.7038   78.4354  222.8967 H   0  0  0  0  0  0  0  0  0  0  0  0
  140.6290   79.4401  219.5834 H   0  0  0  0  0  0  0  0  0  0  0  0
  141.3911   81.8148  219.4248 H   0  0  0  0  0  0  0  0  0  0  0  0
  142.1462   83.0330  221.4471 H   0  0  0  0  0  0  0  0  0  0  0  0
  142.1549   81.8989  223.6796 H   0  0  0  0  0  0  0  0  0  0  0  0
  141.3952   79.5480  223.7916 H   0  0  0  0  0  0  0  0  0  0  0  0
  142.2973   77.1749  220.9347 H   0  0  0  0  0  0  0  0  0  0  0  0
  1  2  2  0
  2  3  1  0
  3  4  1  0
  4  5  1  0
  5  6  2  0
  6  7  1  0
  7  8  2  0
  8  9  1  0
  9 10  1  0
 10 11  2  0
 10 12  1  0
 12 13  1  0
 13 14  1  0
 14 15  1  0
 15 16  1  0
  9 17  2  0
  4 18  2  0
 18 19  1  0
 19 20  2  0
 20 21  1  0
 21 22  2  0
 22 23  1  0
 23 24  2  0
 24 25  1  0
 25 26  2  0
 26 27  1  0
 27 28  2  0
 22 29  1  0
 29 30  2  0
 30  2  1  0
 17  5  1  0
 30 19  1  0
 16 12  1  0
 28 23  1  0
  3 31  1  0
  3 32  1  0
  6 33  1  0
  7 34  1  0
  8 35  1  0
 13 36  1  0
 13 37  1  0
 14 38  1  0
 14 39  1  0
 15 40  1  0
 15 41  1  0
 16 42  1  0
 16 43  1  0
 17 44  1  0
 20 45  1  0
 21 46  1  0
 24 47  1  0
 25 48  1  0
 26 49  1  0
 27 50  1  0
 28 51  1  0
 29 52  1  0
M  END
>  <smiles>  (10) 
O=C1CC(c2cccc(C(=O)N3CCCC3)c2)=Nc2ccc(-c3ccccc3)cc21

>  <score_type>  (10) 
oracle

>  <origin>  (10) 
autodockgpu

>  <m_score__min__energy>  (10) 
-9.2899999999999991

>  <m_primary>  (10) 
energy

>  <rmsd>  (10) 
6.796686019943503

>  <m_score__min__rmsd>  (10) 
6.796686019943503

>  <meeko>  (10) 
{"free_energy": -9.26, "intermolecular_energy": -10.15, "internal_energy": -0.86, "cluster_size": 50, "cluster_id": 1, "rank_in_cluster": 20}

>  <energy>  (10) 
-9.28

>  <cluster_rmsd>  (10) 
0.03

>  <cluster>  (10) 
1

$$$$

     RDKit          3D

 52 56  0  0  0  0  0  0  0  0999 V2000
  142.9280   74.9180  220.3710 O   0  0  0  0  0  0  0  0  0  0  0  0
  141.8750   74.5950  220.9940 C   0  0  0  0  0  0  0  0  0  0  0  0
  141.5820   73.1620  221.1290 C   0  0  0  0  0  0  0  0  0  0  0  0
  140.3230   72.9240  221.8790 C   0  0  0  0  0  0  0  0  0  0  0  0
  139.9240   71.5180  222.0810 C   0  0  0  0  0  0  0  0  0  0  0  0
  139.5600   70.7010  221.0310 C   0  0  0  0  0  0  0  0  0  0  0  0
  139.1830   69.3850  221.1850 C   0  0  0  0  0  0  0  0  0  0  0  0
  139.1690   68.8580  222.4590 C   0  0  0  0  0  0  0  0  0  0  0  0
  139.5250   69.6370  223.5420 C   0  0  0  0  0  0  0  0  0  0  0  0
  139.4840   69.0020  224.8520 C   0  0  0  0  0  0  0  0  0  0  0  0
  139.2000   67.7720  224.9550 O   0  0  0  0  0  0  0  0  0  0  0  0
  139.7500   69.6910  226.0620 N   0  0  0  0  0  0  0  0  0  0  0  0
  139.7210   69.1020  227.3770 C   0  0  0  0  0  0  0  0  0  0  0  0
  140.4020   70.0170  228.3410 C   0  0  0  0  0  0  0  0  0  0  0  0
  141.0760   71.0360  227.4510 C   0  0  0  0  0  0  0  0  0  0  0  0
  140.1010   71.0910  226.2760 C   0  0  0  0  0  0  0  0  0  0  0  0
  139.8990   70.9560  223.3540 C   0  0  0  0  0  0  0  0  0  0  0  0
  139.5890   73.8640  222.3460 N   0  0  0  0  0  0  0  0  0  0  0  0
  139.8780   75.2490  222.2100 C   0  0  0  0  0  0  0  0  0  0  0  0
  139.0750   76.2400  222.7190 C   0  0  0  0  0  0  0  0  0  0  0  0
  139.4290   77.5840  222.5430 C   0  0  0  0  0  0  0  0  0  0  0  0
  140.5750   77.9460  221.8650 C   0  0  0  0  0  0  0  0  0  0  0  0
  140.9650   79.3440  221.6690 C   0  0  0  0  0  0  0  0  0  0  0  0
  140.9560   79.9510  220.4270 C   0  0  0  0  0  0  0  0  0  0  0  0
  141.3430   81.2870  220.3320 C   0  0  0  0  0  0  0  0  0  0  0  0
  141.7300   81.9980  221.4650 C   0  0  0  0  0  0  0  0  0  0  0  0
  141.7410   81.3970  222.7120 C   0  0  0  0  0  0  0  0  0  0  0  0
  141.3530   80.0760  222.7680 C   0  0  0  0  0  0  0  0  0  0  0  0
  141.3760   76.9460  221.3570 C   0  0  0  0  0  0  0  0  0  0  0  0
  141.0150   75.6370  221.5380 C   0  0  0  0  0  0  0  0  0  0  0  0
  141.4869   72.7221  220.1253 H   0  0  0  0  0  0  0  0  0  0  0  0
  142.4063   72.6961  221.6889 H   0  0  0  0  0  0  0  0  0  0  0  0
  139.5714   71.1233  220.0153 H   0  0  0  0  0  0  0  0  0  0  0  0
  138.9011   68.7720  220.3162 H   0  0  0  0  0  0  0  0  0  0  0  0
  138.8723   67.8101  222.6136 H   0  0  0  0  0  0  0  0  0  0  0  0
  138.6772   68.9500  227.6889 H   0  0  0  0  0  0  0  0  0  0  0  0
  140.2401   68.1323  227.3587 H   0  0  0  0  0  0  0  0  0  0  0  0
  139.6715   70.4996  229.0069 H   0  0  0  0  0  0  0  0  0  0  0  0
  141.1090   69.4924  229.0005 H   0  0  0  0  0  0  0  0  0  0  0  0
  141.1626   72.0127  227.9495 H   0  0  0  0  0  0  0  0  0  0  0  0
  142.1083   70.7795  227.1707 H   0  0  0  0  0  0  0  0  0  0  0  0
  139.2111   71.6854  226.5304 H   0  0  0  0  0  0  0  0  0  0  0  0
  140.5315   71.5672  225.3827 H   0  0  0  0  0  0  0  0  0  0  0  0
  140.1805   71.5689  224.2230 H   0  0  0  0  0  0  0  0  0  0  0  0
  138.1557   75.9790  223.2638 H   0  0  0  0  0  0  0  0  0  0  0  0
  138.7781   78.3692  222.9550 H   0  0  0  0  0  0  0  0  0  0  0  0
  140.6495   79.3909  219.5313 H   0  0  0  0  0  0  0  0  0  0  0  0
  141.3426   81.7850  219.3512 H   0  0  0  0  0  0  0  0  0  0  0  0
  142.0311   83.0515  221.3678 H   0  0  0  0  0  0  0  0  0  0  0  0
  142.0448   81.9474  223.6146 H   0  0  0  0  0  0  0  0  0  0  0  0
  141.3534   79.5773  223.7485 H   0  0  0  0  0  0  0  0  0  0  0  0
  142.2973   77.1969  220.8109 H   0  0  0  0  0  0  0  0  0  0  0  0
  1  2  2  0
  2  3  1  0
  3  4  1  0
  4  5  1  0
  5  6  2  0
  6  7  1  0
  7  8  2  0
  8  9  1  0
  9 10  1  0
 10 11  2  0
 10 12  1  0
 12 13  1  0
 13 14  1  0
 14 15  1  0
 15 16  1  0
  9 17  2  0
  4 18  2  0
 18 19  1  0
 19 20  2  0
 20 21  1  0
 21 22  2  0
 22 23  1  0
 23 24  2  0
 24 25  1  0
 25 26  2  0
 26 27  1  0
 27 28  2  0
 22 29  1  0
 29 30  2  0
 30  2  1  0
 17  5  1  0
 30 19  1  0
 16 12  1  0
 28 23  1  0
  3 31  1  0
  3 32  1  0
  6 33  1  0
  7 34  1  0
  8 35  1  0
 13 36  1  0
 13 37  1  0
 14 38  1  0
 14 39  1  0
 15 40  1  0
 15 41  1  0
 16 42  1  0
 16 43  1  0
 17 44  1  0
 20 45  1  0
 21 46  1  0
 24 47  1  0
 25 48  1  0
 26 49  1  0
 27 50  1  0
 28 51  1  0
 29 52  1  0
M  END
>  <smiles>  (11) 
O=C1CC(c2cccc(C(=O)N3CCCC3)c2)=Nc2ccc(-c3ccccc3)cc21

>  <score_type>  (11) 
oracle

>  <origin>  (11) 
autodockgpu

>  <m_score__min__energy>  (11) 
-9.2899999999999991

>  <m_primary>  (11) 
energy

>  <rmsd>  (11) 
6.816666270440282

>  <m_score__min__rmsd>  (11) 
6.816666270440282

>  <meeko>  (11) 
{"free_energy": -9.28, "intermolecular_energy": -10.17, "internal_energy": -0.86, "cluster_size": 50, "cluster_id": 1, "rank_in_cluster": 8}

>  <energy>  (11) 
-9.28

>  <cluster_rmsd>  (11) 
0.1

>  <cluster>  (11) 
1

$$$$

     RDKit          3D

 52 56  0  0  0  0  0  0  0  0999 V2000
  142.7730   74.7020  220.6700 O   0  0  0  0  0  0  0  0  0  0  0  0
  141.6550   74.4360  221.1990 C   0  0  0  0  0  0  0  0  0  0  0  0
  141.2830   73.0200  221.3170 C   0  0  0  0  0  0  0  0  0  0  0  0
  139.9520   72.8500  221.9540 C   0  0  0  0  0  0  0  0  0  0  0  0
  139.4700   71.4660  222.1280 C   0  0  0  0  0  0  0  0  0  0  0  0
  138.8010   70.7920  221.1290 C   0  0  0  0  0  0  0  0  0  0  0  0
  138.3380   69.5010  221.2590 C   0  0  0  0  0  0  0  0  0  0  0  0
  138.5560   68.8490  222.4540 C   0  0  0  0  0  0  0  0  0  0  0  0
  139.2210   69.4840  223.4840 C   0  0  0  0  0  0  0  0  0  0  0  0
  139.4110   68.7230  224.7130 C   0  0  0  0  0  0  0  0  0  0  0  0
  139.2790   67.4650  224.7090 O   0  0  0  0  0  0  0  0  0  0  0  0
  139.7440   69.3190  225.9550 N   0  0  0  0  0  0  0  0  0  0  0  0
  139.9420   68.6060  227.1910 C   0  0  0  0  0  0  0  0  0  0  0  0
  140.6300   69.4990  228.1710 C   0  0  0  0  0  0  0  0  0  0  0  0
  141.0730   70.6740  227.3310 C   0  0  0  0  0  0  0  0  0  0  0  0
  139.9620   70.7240  226.2830 C   0  0  0  0  0  0  0  0  0  0  0  0
  139.6740   70.7810  223.3220 C   0  0  0  0  0  0  0  0  0  0  0  0
  139.2260   73.8280  222.3480 N   0  0  0  0  0  0  0  0  0  0  0  0
  139.5920   75.1960  222.2300 C   0  0  0  0  0  0  0  0  0  0  0  0
  138.7970   76.2300  222.6600 C   0  0  0  0  0  0  0  0  0  0  0  0
  139.2290   77.5530  222.5090 C   0  0  0  0  0  0  0  0  0  0  0  0
  140.4470   77.8540  221.9330 C   0  0  0  0  0  0  0  0  0  0  0  0
  140.9190   79.2300  221.7640 C   0  0  0  0  0  0  0  0  0  0  0  0
  141.4150   79.9790  222.8140 C   0  0  0  0  0  0  0  0  0  0  0  0
  141.8430   81.2820  222.5640 C   0  0  0  0  0  0  0  0  0  0  0  0
  141.7720   81.8200  221.2810 C   0  0  0  0  0  0  0  0  0  0  0  0
  141.2760   81.0750  220.2250 C   0  0  0  0  0  0  0  0  0  0  0  0
  140.8620   79.7920  220.5100 C   0  0  0  0  0  0  0  0  0  0  0  0
  141.2400   76.8110  221.5030 C   0  0  0  0  0  0  0  0  0  0  0  0
  140.8020   75.5230  221.6590 C   0  0  0  0  0  0  0  0  0  0  0  0
  141.2561   72.5741  220.3118 H   0  0  0  0  0  0  0  0  0  0  0  0
  142.0313   72.5218  221.9509 H   0  0  0  0  0  0  0  0  0  0  0  0
  138.6273   71.3133  220.1761 H   0  0  0  0  0  0  0  0  0  0  0  0
  137.8091   69.0042  220.4323 H   0  0  0  0  0  0  0  0  0  0  0  0
  138.1983   67.8174  222.5876 H   0  0  0  0  0  0  0  0  0  0  0  0
  138.9676   68.2966  227.5969 H   0  0  0  0  0  0  0  0  0  0  0  0
  140.5600   67.7147  227.0075 H   0  0  0  0  0  0  0  0  0  0  0  0
  139.9373   69.8210  228.9625 H   0  0  0  0  0  0  0  0  0  0  0  0
  141.4655   69.0036  228.6873 H   0  0  0  0  0  0  0  0  0  0  0  0
  141.1116   71.6007  227.9223 H   0  0  0  0  0  0  0  0  0  0  0  0
  142.0852   70.5739  226.9121 H   0  0  0  0  0  0  0  0  0  0  0  0
  139.0497   71.1777  226.6977 H   0  0  0  0  0  0  0  0  0  0  0  0
  140.2253   71.3341  225.4064 H   0  0  0  0  0  0  0  0  0  0  0  0
  140.2029   71.2779  224.1487 H   0  0  0  0  0  0  0  0  0  0  0  0
  137.8216   76.0188  223.1227 H   0  0  0  0  0  0  0  0  0  0  0  0
  138.5827   78.3721  222.8575 H   0  0  0  0  0  0  0  0  0  0  0  0
  141.4710   79.5553  223.8276 H   0  0  0  0  0  0  0  0  0  0  0  0
  142.2410   81.8917  223.3885 H   0  0  0  0  0  0  0  0  0  0  0  0
  142.1146   82.8503  221.1047 H   0  0  0  0  0  0  0  0  0  0  0  0
  141.2153   81.4875  219.2071 H   0  0  0  0  0  0  0  0  0  0  0  0
  140.4626   79.1817  219.6866 H   0  0  0  0  0  0  0  0  0  0  0  0
  142.2166   77.0120  221.0384 H   0  0  0  0  0  0  0  0  0  0  0  0
  1  2  2  0
  2  3  1  0
  3  4  1  0
  4  5  1  0
  5  6  2  0
  6  7  1  0
  7  8  2  0
  8  9  1  0
  9 10  1  0
 10 11  2  0
 10 12  1  0
 12 13  1  0
 13 14  1  0
 14 15  1  0
 15 16  1  0
  9 17  2  0
  4 18  2  0
 18 19  1  0
 19 20  2  0
 20 21  1  0
 21 22  2  0
 22 23  1  0
 23 24  2  0
 24 25  1  0
 25 26  2  0
 26 27  1  0
 27 28  2  0
 22 29  1  0
 29 30  2  0
 30  2  1  0
 17  5  1  0
 30 19  1  0
 16 12  1  0
 28 23  1  0
  3 31  1  0
  3 32  1  0
  6 33  1  0
  7 34  1  0
  8 35  1  0
 13 36  1  0
 13 37  1  0
 14 38  1  0
 14 39  1  0
 15 40  1  0
 15 41  1  0
 16 42  1  0
 16 43  1  0
 17 44  1  0
 20 45  1  0
 21 46  1  0
 24 47  1  0
 25 48  1  0
 26 49  1  0
 27 50  1  0
 28 51  1  0
 29 52  1  0
M  END
>  <smiles>  (12) 
O=C1CC(c2cccc(C(=O)N3CCCC3)c2)=Nc2ccc(-c3ccccc3)cc21

>  <score_type>  (12) 
oracle

>  <origin>  (12) 
autodockgpu

>  <m_score__min__energy>  (12) 
-9.2899999999999991

>  <m_primary>  (12) 
energy

>  <rmsd>  (12) 
6.7573797263534345

>  <m_score__min__rmsd>  (12) 
6.7573797263534345

>  <meeko>  (12) 
{"free_energy": -9.02, "intermolecular_energy": -9.92, "internal_energy": -0.9, "cluster_size": 50, "cluster_id": 1, "rank_in_cluster": 46}

>  <energy>  (12) 
-9.27

>  <cluster_rmsd>  (12) 
0.02

>  <cluster>  (12) 
1

$$$$

     RDKit          3D

 52 56  0  0  0  0  0  0  0  0999 V2000
  142.9560   74.8660  220.4290 O   0  0  0  0  0  0  0  0  0  0  0  0
  141.8890   74.5550  221.0350 C   0  0  0  0  0  0  0  0  0  0  0  0
  141.5800   73.1250  221.1680 C   0  0  0  0  0  0  0  0  0  0  0  0
  140.3060   72.9000  221.8970 C   0  0  0  0  0  0  0  0  0  0  0  0
  139.8910   71.4980  222.0950 C   0  0  0  0  0  0  0  0  0  0  0  0
  139.4880   70.6980  221.0470 C   0  0  0  0  0  0  0  0  0  0  0  0
  139.0940   69.3860  221.1970 C   0  0  0  0  0  0  0  0  0  0  0  0
  139.1040   68.8460  222.4650 C   0  0  0  0  0  0  0  0  0  0  0  0
  139.5000   69.6080  223.5460 C   0  0  0  0  0  0  0  0  0  0  0  0
  139.4820   68.9600  224.8510 C   0  0  0  0  0  0  0  0  0  0  0  0
  139.2070   67.7280  224.9460 O   0  0  0  0  0  0  0  0  0  0  0  0
  139.7620   69.6390  226.0630 N   0  0  0  0  0  0  0  0  0  0  0  0
  139.7560   69.0370  227.3730 C   0  0  0  0  0  0  0  0  0  0  0  0
  140.4460   69.9460  228.3360 C   0  0  0  0  0  0  0  0  0  0  0  0
  141.1000   70.9780  227.4460 C   0  0  0  0  0  0  0  0  0  0  0  0
  140.1080   71.0380  226.2860 C   0  0  0  0  0  0  0  0  0  0  0  0
  139.8890   70.9230  223.3620 C   0  0  0  0  0  0  0  0  0  0  0  0
  139.5740   73.8480  222.3500 N   0  0  0  0  0  0  0  0  0  0  0  0
  139.8780   75.2290  222.2160 C   0  0  0  0  0  0  0  0  0  0  0  0
  139.0770   76.2290  222.7100 C   0  0  0  0  0  0  0  0  0  0  0  0
  139.4460   77.5690  222.5380 C   0  0  0  0  0  0  0  0  0  0  0  0
  140.6070   77.9190  221.8780 C   0  0  0  0  0  0  0  0  0  0  0  0
  141.0130   79.3130  221.6870 C   0  0  0  0  0  0  0  0  0  0  0  0
  141.0580   79.9090  220.4400 C   0  0  0  0  0  0  0  0  0  0  0  0
  141.4570   81.2420  220.3490 C   0  0  0  0  0  0  0  0  0  0  0  0
  141.8030   81.9610  221.4900 C   0  0  0  0  0  0  0  0  0  0  0  0
  141.7600   81.3700  222.7420 C   0  0  0  0  0  0  0  0  0  0  0  0
  141.3620   80.0520  222.7930 C   0  0  0  0  0  0  0  0  0  0  0  0
  141.4070   76.9100  221.3850 C   0  0  0  0  0  0  0  0  0  0  0  0
  141.0310   75.6050  221.5630 C   0  0  0  0  0  0  0  0  0  0  0  0
  141.4979   72.6839  220.1637 H   0  0  0  0  0  0  0  0  0  0  0  0
  142.3902   72.6529  221.7431 H   0  0  0  0  0  0  0  0  0  0  0  0
  139.4806   71.1307  220.0357 H   0  0  0  0  0  0  0  0  0  0  0  0
  138.7804   68.7868  220.3295 H   0  0  0  0  0  0  0  0  0  0  0  0
  138.7946   67.8014  222.6167 H   0  0  0  0  0  0  0  0  0  0  0  0
  138.7178   68.8760  227.6988 H   0  0  0  0  0  0  0  0  0  0  0  0
  140.2804   68.0707  227.3373 H   0  0  0  0  0  0  0  0  0  0  0  0
  139.7229   70.4173  229.0179 H   0  0  0  0  0  0  0  0  0  0  0  0
  141.1660   69.4192  228.9795 H   0  0  0  0  0  0  0  0  0  0  0  0
  141.1875   71.9504  227.9527 H   0  0  0  0  0  0  0  0  0  0  0  0
  142.1297   70.7309  227.1481 H   0  0  0  0  0  0  0  0  0  0  0  0
  139.2184   71.6246  226.5590 H   0  0  0  0  0  0  0  0  0  0  0  0
  140.5231   71.5251  225.3913 H   0  0  0  0  0  0  0  0  0  0  0  0
  140.2012   71.5225  224.2299 H   0  0  0  0  0  0  0  0  0  0  0  0
  138.1465   75.9778  223.2403 H   0  0  0  0  0  0  0  0  0  0  0  0
  138.7957   78.3609  222.9380 H   0  0  0  0  0  0  0  0  0  0  0  0
  140.7844   79.3427  219.5376 H   0  0  0  0  0  0  0  0  0  0  0  0
  141.4989   81.7311  219.3646 H   0  0  0  0  0  0  0  0  0  0  0  0
  142.1145   83.0118  221.3960 H   0  0  0  0  0  0  0  0  0  0  0  0
  142.0306   81.9262  223.6517 H   0  0  0  0  0  0  0  0  0  0  0  0
  141.3210   79.5617  223.7768 H   0  0  0  0  0  0  0  0  0  0  0  0
  142.3393   77.1510  220.8532 H   0  0  0  0  0  0  0  0  0  0  0  0
  1  2  2  0
  2  3  1  0
  3  4  1  0
  4  5  1  0
  5  6  2  0
  6  7  1  0
  7  8  2  0
  8  9  1  0
  9 10  1  0
 10 11  2  0
 10 12  1  0
 12 13  1  0
 13 14  1  0
 14 15  1  0
 15 16  1  0
  9 17  2  0
  4 18  2  0
 18 19  1  0
 19 20  2  0
 20 21  1  0
 21 22  2  0
 22 23  1  0
 23 24  2  0
 24 25  1  0
 25 26  2  0
 26 27  1  0
 27 28  2  0
 22 29  1  0
 29 30  2  0
 30  2  1  0
 17  5  1  0
 30 19  1  0
 16 12  1  0
 28 23  1  0
  3 31  1  0
  3 32  1  0
  6 33  1  0
  7 34  1  0
  8 35  1  0
 13 36  1  0
 13 37  1  0
 14 38  1  0
 14 39  1  0
 15 40  1  0
 15 41  1  0
 16 42  1  0
 16 43  1  0
 17 44  1  0
 20 45  1  0
 21 46  1  0
 24 47  1  0
 25 48  1  0
 26 49  1  0
 27 50  1  0
 28 51  1  0
 29 52  1  0
M  END
>  <smiles>  (13) 
O=C1CC(c2cccc(C(=O)N3CCCC3)c2)=Nc2ccc(-c3ccccc3)cc21

>  <score_type>  (13) 
oracle

>  <origin>  (13) 
autodockgpu

>  <m_score__min__energy>  (13) 
-9.2899999999999991

>  <m_primary>  (13) 
energy

>  <rmsd>  (13) 
6.807397472226795

>  <m_score__min__rmsd>  (13) 
6.807397472226795

>  <meeko>  (13) 
{"free_energy": -9.27, "intermolecular_energy": -10.16, "internal_energy": -0.86, "cluster_size": 50, "cluster_id": 1, "rank_in_cluster": 19}

>  <energy>  (13) 
-9.27

>  <cluster_rmsd>  (13) 
0.04

>  <cluster>  (13) 
1

$$$$

     RDKit          3D

 52 56  0  0  0  0  0  0  0  0999 V2000
  142.9600   74.9530  220.4420 O   0  0  0  0  0  0  0  0  0  0  0  0
  141.8950   74.6280  221.0420 C   0  0  0  0  0  0  0  0  0  0  0  0
  141.6000   73.1950  221.1670 C   0  0  0  0  0  0  0  0  0  0  0  0
  140.3250   72.9540  221.8900 C   0  0  0  0  0  0  0  0  0  0  0  0
  139.9220   71.5470  222.0790 C   0  0  0  0  0  0  0  0  0  0  0  0
  139.5530   70.7420  221.0230 C   0  0  0  0  0  0  0  0  0  0  0  0
  139.1710   69.4260  221.1650 C   0  0  0  0  0  0  0  0  0  0  0  0
  139.1600   68.8860  222.4320 C   0  0  0  0  0  0  0  0  0  0  0  0
  139.5220   69.6520  223.5220 C   0  0  0  0  0  0  0  0  0  0  0  0
  139.4840   69.0040  224.8260 C   0  0  0  0  0  0  0  0  0  0  0  0
  139.2020   67.7730  224.9170 O   0  0  0  0  0  0  0  0  0  0  0  0
  139.7500   69.6810  226.0430 N   0  0  0  0  0  0  0  0  0  0  0  0
  139.7240   69.0790  227.3510 C   0  0  0  0  0  0  0  0  0  0  0  0
  140.4050   69.9850  228.3240 C   0  0  0  0  0  0  0  0  0  0  0  0
  141.0760   71.0130  227.4440 C   0  0  0  0  0  0  0  0  0  0  0  0
  140.1000   71.0790  226.2700 C   0  0  0  0  0  0  0  0  0  0  0  0
  139.9000   70.9720  223.3460 C   0  0  0  0  0  0  0  0  0  0  0  0
  139.5830   73.8920  222.3460 N   0  0  0  0  0  0  0  0  0  0  0  0
  139.8740   75.2770  222.2210 C   0  0  0  0  0  0  0  0  0  0  0  0
  139.0620   76.2670  222.7180 C   0  0  0  0  0  0  0  0  0  0  0  0
  139.4190   77.6110  222.5540 C   0  0  0  0  0  0  0  0  0  0  0  0
  140.5790   77.9760  221.9000 C   0  0  0  0  0  0  0  0  0  0  0  0
  140.9720   79.3740  221.7170 C   0  0  0  0  0  0  0  0  0  0  0  0
  140.9660   79.9920  220.4810 C   0  0  0  0  0  0  0  0  0  0  0  0
  141.3560   81.3280  220.3970 C   0  0  0  0  0  0  0  0  0  0  0  0
  141.7450   82.0280  221.5370 C   0  0  0  0  0  0  0  0  0  0  0  0
  141.7530   81.4150  222.7780 C   0  0  0  0  0  0  0  0  0  0  0  0
  141.3620   80.0950  222.8220 C   0  0  0  0  0  0  0  0  0  0  0  0
  141.3890   76.9770  221.4040 C   0  0  0  0  0  0  0  0  0  0  0  0
  141.0250   75.6670  221.5730 C   0  0  0  0  0  0  0  0  0  0  0  0
  141.5264   72.7578  220.1603 H   0  0  0  0  0  0  0  0  0  0  0  0
  142.4126   72.7282  221.7431 H   0  0  0  0  0  0  0  0  0  0  0  0
  139.5641   71.1739  220.0114 H   0  0  0  0  0  0  0  0  0  0  0  0
  138.8829   68.8234  220.2910 H   0  0  0  0  0  0  0  0  0  0  0  0
  138.8608   67.8374  222.5764 H   0  0  0  0  0  0  0  0  0  0  0  0
  138.6809   68.9221  227.6628 H   0  0  0  0  0  0  0  0  0  0  0  0
  140.2449   68.1106  227.3218 H   0  0  0  0  0  0  0  0  0  0  0  0
  139.6747   70.4599  228.9957 H   0  0  0  0  0  0  0  0  0  0  0  0
  141.1133   69.4547  228.9776 H   0  0  0  0  0  0  0  0  0  0  0  0
  141.1618   71.9847  227.9523 H   0  0  0  0  0  0  0  0  0  0  0  0
  142.1082   70.7603  227.1600 H   0  0  0  0  0  0  0  0  0  0  0  0
  139.2099   71.6704  226.5308 H   0  0  0  0  0  0  0  0  0  0  0  0
  140.5294   71.5642  225.3811 H   0  0  0  0  0  0  0  0  0  0  0  0
  140.1870   71.5749  224.2201 H   0  0  0  0  0  0  0  0  0  0  0  0
  138.1324   76.0044  223.2442 H   0  0  0  0  0  0  0  0  0  0  0  0
  138.7597   78.3946  222.9557 H   0  0  0  0  0  0  0  0  0  0  0  0
  140.6593   79.4402  219.5802 H   0  0  0  0  0  0  0  0  0  0  0  0
  141.3566   81.8345  219.4206 H   0  0  0  0  0  0  0  0  0  0  0  0
  142.0497   83.0814  221.4498 H   0  0  0  0  0  0  0  0  0  0  0  0
  142.0572   81.9563  223.6860 H   0  0  0  0  0  0  0  0  0  0  0  0
  141.3615   79.5875  223.7979 H   0  0  0  0  0  0  0  0  0  0  0  0
  142.3206   77.2296  220.8765 H   0  0  0  0  0  0  0  0  0  0  0  0
  1  2  2  0
  2  3  1  0
  3  4  1  0
  4  5  1  0
  5  6  2  0
  6  7  1  0
  7  8  2  0
  8  9  1  0
  9 10  1  0
 10 11  2  0
 10 12  1  0
 12 13  1  0
 13 14  1  0
 14 15  1  0
 15 16  1  0
  9 17  2  0
  4 18  2  0
 18 19  1  0
 19 20  2  0
 20 21  1  0
 21 22  2  0
 22 23  1  0
 23 24  2  0
 24 25  1  0
 25 26  2  0
 26 27  1  0
 27 28  2  0
 22 29  1  0
 29 30  2  0
 30  2  1  0
 17  5  1  0
 30 19  1  0
 16 12  1  0
 28 23  1  0
  3 31  1  0
  3 32  1  0
  6 33  1  0
  7 34  1  0
  8 35  1  0
 13 36  1  0
 13 37  1  0
 14 38  1  0
 14 39  1  0
 15 40  1  0
 15 41  1  0
 16 42  1  0
 16 43  1  0
 17 44  1  0
 20 45  1  0
 21 46  1  0
 24 47  1  0
 25 48  1  0
 26 49  1  0
 27 50  1  0
 28 51  1  0
 29 52  1  0
M  END
>  <smiles>  (14) 
O=C1CC(c2cccc(C(=O)N3CCCC3)c2)=Nc2ccc(-c3ccccc3)cc21

>  <score_type>  (14) 
oracle

>  <origin>  (14) 
autodockgpu

>  <m_score__min__energy>  (14) 
-9.2899999999999991

>  <m_primary>  (14) 
energy

>  <rmsd>  (14) 
6.812207461588305

>  <m_score__min__rmsd>  (14) 
6.812207461588305

>  <meeko>  (14) 
{"free_energy": -9.28, "intermolecular_energy": -10.18, "internal_energy": -0.86, "cluster_size": 50, "cluster_id": 1, "rank_in_cluster": 5}

>  <energy>  (14) 
-9.27

>  <cluster_rmsd>  (14) 
0.03

>  <cluster>  (14) 
1

$$$$

     RDKit          3D

 52 56  0  0  0  0  0  0  0  0999 V2000
  142.9580   74.8880  220.4580 O   0  0  0  0  0  0  0  0  0  0  0  0
  141.8840   74.5830  221.0530 C   0  0  0  0  0  0  0  0  0  0  0  0
  141.5690   73.1540  221.1870 C   0  0  0  0  0  0  0  0  0  0  0  0
  140.2860   72.9370  221.9030 C   0  0  0  0  0  0  0  0  0  0  0  0
  139.8630   71.5370  222.1010 C   0  0  0  0  0  0  0  0  0  0  0  0
  139.4470   70.7420  221.0540 C   0  0  0  0  0  0  0  0  0  0  0  0
  139.0460   69.4330  221.2050 C   0  0  0  0  0  0  0  0  0  0  0  0
  139.0630   68.8890  222.4710 C   0  0  0  0  0  0  0  0  0  0  0  0
  139.4710   69.6460  223.5510 C   0  0  0  0  0  0  0  0  0  0  0  0
  139.4600   68.9950  224.8550 C   0  0  0  0  0  0  0  0  0  0  0  0
  139.1970   67.7600  224.9470 O   0  0  0  0  0  0  0  0  0  0  0  0
  139.7330   69.6740  226.0690 N   0  0  0  0  0  0  0  0  0  0  0  0
  139.7330   69.0690  227.3760 C   0  0  0  0  0  0  0  0  0  0  0  0
  140.4140   69.9830  228.3410 C   0  0  0  0  0  0  0  0  0  0  0  0
  141.0580   71.0230  227.4540 C   0  0  0  0  0  0  0  0  0  0  0  0
  140.0650   71.0760  226.2940 C   0  0  0  0  0  0  0  0  0  0  0  0
  139.8680   70.9590  223.3670 C   0  0  0  0  0  0  0  0  0  0  0  0
  139.5520   73.8890  222.3450 N   0  0  0  0  0  0  0  0  0  0  0  0
  139.8630   75.2690  222.2110 C   0  0  0  0  0  0  0  0  0  0  0  0
  139.0600   76.2730  222.6920 C   0  0  0  0  0  0  0  0  0  0  0  0
  139.4370   77.6110  222.5200 C   0  0  0  0  0  0  0  0  0  0  0  0
  140.6060   77.9550  221.8720 C   0  0  0  0  0  0  0  0  0  0  0  0
  141.0190   79.3470  221.6800 C   0  0  0  0  0  0  0  0  0  0  0  0
  141.4160   80.1550  222.7290 C   0  0  0  0  0  0  0  0  0  0  0  0
  141.7930   81.4690  222.4560 C   0  0  0  0  0  0  0  0  0  0  0  0
  141.7720   81.9600  221.1530 C   0  0  0  0  0  0  0  0  0  0  0  0
  141.3750   81.1550  220.0980 C   0  0  0  0  0  0  0  0  0  0  0  0
  141.0090   79.8630  220.4050 C   0  0  0  0  0  0  0  0  0  0  0  0
  141.4070   76.9410  221.3910 C   0  0  0  0  0  0  0  0  0  0  0  0
  141.0240   75.6380  221.5680 C   0  0  0  0  0  0  0  0  0  0  0  0
  141.4962   72.7098  220.1833 H   0  0  0  0  0  0  0  0  0  0  0  0
  142.3713   72.6803  221.7717 H   0  0  0  0  0  0  0  0  0  0  0  0
  139.4347   71.1767  220.0436 H   0  0  0  0  0  0  0  0  0  0  0  0
  138.7211   68.8381  220.3387 H   0  0  0  0  0  0  0  0  0  0  0  0
  138.7496   67.8454  222.6219 H   0  0  0  0  0  0  0  0  0  0  0  0
  138.6965   68.8967  227.7015 H   0  0  0  0  0  0  0  0  0  0  0  0
  140.2668   68.1080  227.3381 H   0  0  0  0  0  0  0  0  0  0  0  0
  139.6861   70.4458  229.0237 H   0  0  0  0  0  0  0  0  0  0  0  0
  141.1391   69.4618  228.9834 H   0  0  0  0  0  0  0  0  0  0  0  0
  141.1362   71.9950  227.9630 H   0  0  0  0  0  0  0  0  0  0  0  0
  142.0901   70.7868  227.1556 H   0  0  0  0  0  0  0  0  0  0  0  0
  139.1698   71.6534  226.5683 H   0  0  0  0  0  0  0  0  0  0  0  0
  140.4747   71.5691  225.4001 H   0  0  0  0  0  0  0  0  0  0  0  0
  140.1920   71.5541  224.2336 H   0  0  0  0  0  0  0  0  0  0  0  0
  138.1221   76.0273  223.2116 H   0  0  0  0  0  0  0  0  0  0  0  0
  138.7857   78.4067  222.9108 H   0  0  0  0  0  0  0  0  0  0  0  0
  141.4341   79.7687  223.7588 H   0  0  0  0  0  0  0  0  0  0  0  0
  142.1107   82.1256  223.2793 H   0  0  0  0  0  0  0  0  0  0  0  0
  142.0744   82.9997  220.9592 H   0  0  0  0  0  0  0  0  0  0  0  0
  141.3530   81.5297  219.0640 H   0  0  0  0  0  0  0  0  0  0  0  0
  140.6902   79.2057  219.5827 H   0  0  0  0  0  0  0  0  0  0  0  0
  142.3462   77.1767  220.8692 H   0  0  0  0  0  0  0  0  0  0  0  0
  1  2  2  0
  2  3  1  0
  3  4  1  0
  4  5  1  0
  5  6  2  0
  6  7  1  0
  7  8  2  0
  8  9  1  0
  9 10  1  0
 10 11  2  0
 10 12  1  0
 12 13  1  0
 13 14  1  0
 14 15  1  0
 15 16  1  0
  9 17  2  0
  4 18  2  0
 18 19  1  0
 19 20  2  0
 20 21  1  0
 21 22  2  0
 22 23  1  0
 23 24  2  0
 24 25  1  0
 25 26  2  0
 26 27  1  0
 27 28  2  0
 22 29  1  0
 29 30  2  0
 30  2  1  0
 17  5  1  0
 30 19  1  0
 16 12  1  0
 28 23  1  0
  3 31  1  0
  3 32  1  0
  6 33  1  0
  7 34  1  0
  8 35  1  0
 13 36  1  0
 13 37  1  0
 14 38  1  0
 14 39  1  0
 15 40  1  0
 15 41  1  0
 16 42  1  0
 16 43  1  0
 17 44  1  0
 20 45  1  0
 21 46  1  0
 24 47  1  0
 25 48  1  0
 26 49  1  0
 27 50  1  0
 28 51  1  0
 29 52  1  0
M  END
>  <smiles>  (15) 
O=C1CC(c2cccc(C(=O)N3CCCC3)c2)=Nc2ccc(-c3ccccc3)cc21

>  <score_type>  (15) 
oracle

>  <origin>  (15) 
autodockgpu

>  <m_score__min__energy>  (15) 
-9.2899999999999991

>  <m_primary>  (15) 
energy

>  <rmsd>  (15) 
6.8071508340825435

>  <m_score__min__rmsd>  (15) 
6.8071508340825435

>  <meeko>  (15) 
{"free_energy": -9.2, "intermolecular_energy": -10.09, "internal_energy": -0.87, "cluster_size": 50, "cluster_id": 1, "rank_in_cluster": 26}

>  <energy>  (15) 
-9.27

>  <cluster_rmsd>  (15) 
0.06

>  <cluster>  (15) 
1

$$$$

     RDKit          3D

 52 56  0  0  0  0  0  0  0  0999 V2000
  142.9860   74.9370  220.4200 O   0  0  0  0  0  0  0  0  0  0  0  0
  141.9210   74.6170  221.0250 C   0  0  0  0  0  0  0  0  0  0  0  0
  141.6200   73.1850  221.1500 C   0  0  0  0  0  0  0  0  0  0  0  0
  140.3480   72.9500  221.8790 C   0  0  0  0  0  0  0  0  0  0  0  0
  139.9380   71.5450  222.0680 C   0  0  0  0  0  0  0  0  0  0  0  0
  139.5660   70.7410  221.0120 C   0  0  0  0  0  0  0  0  0  0  0  0
  139.1790   69.4260  221.1550 C   0  0  0  0  0  0  0  0  0  0  0  0
  139.1640   68.8870  222.4230 C   0  0  0  0  0  0  0  0  0  0  0  0
  139.5300   69.6530  223.5120 C   0  0  0  0  0  0  0  0  0  0  0  0
  139.4870   69.0050  224.8170 C   0  0  0  0  0  0  0  0  0  0  0  0
  139.2020   67.7750  224.9080 O   0  0  0  0  0  0  0  0  0  0  0  0
  139.7540   69.6830  226.0330 N   0  0  0  0  0  0  0  0  0  0  0  0
  139.7250   69.0810  227.3420 C   0  0  0  0  0  0  0  0  0  0  0  0
  140.4070   69.9860  228.3150 C   0  0  0  0  0  0  0  0  0  0  0  0
  141.0820   71.0120  227.4350 C   0  0  0  0  0  0  0  0  0  0  0  0
  140.1070   71.0800  226.2600 C   0  0  0  0  0  0  0  0  0  0  0  0
  139.9130   70.9710  223.3360 C   0  0  0  0  0  0  0  0  0  0  0  0
  139.6110   73.8910  222.3380 N   0  0  0  0  0  0  0  0  0  0  0  0
  139.9090   75.2750  222.2130 C   0  0  0  0  0  0  0  0  0  0  0  0
  139.1040   76.2680  222.7140 C   0  0  0  0  0  0  0  0  0  0  0  0
  139.4670   77.6110  222.5500 C   0  0  0  0  0  0  0  0  0  0  0  0
  140.6250   77.9700  221.8910 C   0  0  0  0  0  0  0  0  0  0  0  0
  141.0250   79.3670  221.7080 C   0  0  0  0  0  0  0  0  0  0  0  0
  141.0260   79.9830  220.4700 C   0  0  0  0  0  0  0  0  0  0  0  0
  141.4210   81.3170  220.3870 C   0  0  0  0  0  0  0  0  0  0  0  0
  141.8080   82.0180  221.5260 C   0  0  0  0  0  0  0  0  0  0  0  0
  141.8100   81.4070  222.7690 C   0  0  0  0  0  0  0  0  0  0  0  0
  141.4130   80.0880  222.8130 C   0  0  0  0  0  0  0  0  0  0  0  0
  141.4290   76.9680  221.3910 C   0  0  0  0  0  0  0  0  0  0  0  0
  141.0590   75.6600  221.5610 C   0  0  0  0  0  0  0  0  0  0  0  0
  141.5391   72.7491  220.1433 H   0  0  0  0  0  0  0  0  0  0  0  0
  142.4333   72.7135  221.7211 H   0  0  0  0  0  0  0  0  0  0  0  0
  139.5787   71.1724  220.0002 H   0  0  0  0  0  0  0  0  0  0  0  0
  138.8901   68.8235  220.2812 H   0  0  0  0  0  0  0  0  0  0  0  0
  138.8587   67.8403  222.5686 H   0  0  0  0  0  0  0  0  0  0  0  0
  138.6812   68.9266  227.6527 H   0  0  0  0  0  0  0  0  0  0  0  0
  140.2434   68.1112  227.3139 H   0  0  0  0  0  0  0  0  0  0  0  0
  139.6770   70.4632  228.9853 H   0  0  0  0  0  0  0  0  0  0  0  0
  141.1132   69.4544  228.9698 H   0  0  0  0  0  0  0  0  0  0  0  0
  141.1701   71.9837  227.9429 H   0  0  0  0  0  0  0  0  0  0  0  0
  142.1138   70.7564  227.1522 H   0  0  0  0  0  0  0  0  0  0  0  0
  139.2180   71.6735  226.5199 H   0  0  0  0  0  0  0  0  0  0  0  0
  140.5382   71.5640  225.3713 H   0  0  0  0  0  0  0  0  0  0  0  0
  140.2016   71.5734  224.2100 H   0  0  0  0  0  0  0  0  0  0  0  0
  138.1752   76.0093  223.2435 H   0  0  0  0  0  0  0  0  0  0  0  0
  138.8139   78.3976  222.9559 H   0  0  0  0  0  0  0  0  0  0  0  0
  140.7211   79.4311  219.5686 H   0  0  0  0  0  0  0  0  0  0  0  0
  141.4271   81.8221  219.4098 H   0  0  0  0  0  0  0  0  0  0  0  0
  142.1160   83.0703  221.4376 H   0  0  0  0  0  0  0  0  0  0  0  0
  142.1138   81.9483  223.6771 H   0  0  0  0  0  0  0  0  0  0  0  0
  141.4060   79.5820  223.7897 H   0  0  0  0  0  0  0  0  0  0  0  0
  142.3597   77.2166  220.8600 H   0  0  0  0  0  0  0  0  0  0  0  0
  1  2  2  0
  2  3  1  0
  3  4  1  0
  4  5  1  0
  5  6  2  0
  6  7  1  0
  7  8  2  0
  8  9  1  0
  9 10  1  0
 10 11  2  0
 10 12  1  0
 12 13  1  0
 13 14  1  0
 14 15  1  0
 15 16  1  0
  9 17  2  0
  4 18  2  0
 18 19  1  0
 19 20  2  0
 20 21  1  0
 21 22  2  0
 22 23  1  0
 23 24  2  0
 24 25  1  0
 25 26  2  0
 26 27  1  0
 27 28  2  0
 22 29  1  0
 29 30  2  0
 30  2  1  0
 17  5  1  0
 30 19  1  0
 16 12  1  0
 28 23  1  0
  3 31  1  0
  3 32  1  0
  6 33  1  0
  7 34  1  0
  8 35  1  0
 13 36  1  0
 13 37  1  0
 14 38  1  0
 14 39  1  0
 15 40  1  0
 15 41  1  0
 16 42  1  0
 16 43  1  0
 17 44  1  0
 20 45  1  0
 21 46  1  0
 24 47  1  0
 25 48  1  0
 26 49  1  0
 27 50  1  0
 28 51  1  0
 29 52  1  0
M  END
>  <smiles>  (16) 
O=C1CC(c2cccc(C(=O)N3CCCC3)c2)=Nc2ccc(-c3ccccc3)cc21

>  <score_type>  (16) 
oracle

>  <origin>  (16) 
autodockgpu

>  <m_score__min__energy>  (16) 
-9.2899999999999991

>  <m_primary>  (16) 
energy

>  <rmsd>  (16) 
6.81323570149312

>  <m_score__min__rmsd>  (16) 
6.81323570149312

>  <meeko>  (16) 
{"free_energy": -9.28, "intermolecular_energy": -10.17, "internal_energy": -0.86, "cluster_size": 50, "cluster_id": 1, "rank_in_cluster": 7}

>  <energy>  (16) 
-9.27

>  <cluster_rmsd>  (16) 
0.12

>  <cluster>  (16) 
1

$$$$

     RDKit          3D

 52 56  0  0  0  0  0  0  0  0999 V2000
  142.9520   74.9120  220.4710 O   0  0  0  0  0  0  0  0  0  0  0  0
  141.8700   74.6110  221.0560 C   0  0  0  0  0  0  0  0  0  0  0  0
  141.5470   73.1840  221.1870 C   0  0  0  0  0  0  0  0  0  0  0  0
  140.2560   72.9730  221.8900 C   0  0  0  0  0  0  0  0  0  0  0  0
  139.8250   71.5750  222.0840 C   0  0  0  0  0  0  0  0  0  0  0  0
  139.3790   70.7940  221.0390 C   0  0  0  0  0  0  0  0  0  0  0  0
  138.9690   69.4870  221.1860 C   0  0  0  0  0  0  0  0  0  0  0  0
  139.0080   68.9310  222.4470 C   0  0  0  0  0  0  0  0  0  0  0  0
  139.4480   69.6740  223.5250 C   0  0  0  0  0  0  0  0  0  0  0  0
  139.4580   69.0100  224.8220 C   0  0  0  0  0  0  0  0  0  0  0  0
  139.2060   67.7730  224.9060 O   0  0  0  0  0  0  0  0  0  0  0  0
  139.7420   69.6800  226.0380 N   0  0  0  0  0  0  0  0  0  0  0  0
  139.7650   69.0630  227.3400 C   0  0  0  0  0  0  0  0  0  0  0  0
  140.4510   69.9730  228.3050 C   0  0  0  0  0  0  0  0  0  0  0  0
  141.0750   71.0260  227.4190 C   0  0  0  0  0  0  0  0  0  0  0  0
  140.0670   71.0820  226.2730 C   0  0  0  0  0  0  0  0  0  0  0  0
  139.8520   70.9850  223.3440 C   0  0  0  0  0  0  0  0  0  0  0  0
  139.5230   73.9280  222.3250 N   0  0  0  0  0  0  0  0  0  0  0  0
  139.8410   75.3070  222.1930 C   0  0  0  0  0  0  0  0  0  0  0  0
  139.0380   76.3150  222.6670 C   0  0  0  0  0  0  0  0  0  0  0  0
  139.4220   77.6510  222.4980 C   0  0  0  0  0  0  0  0  0  0  0  0
  140.6000   77.9890  221.8620 C   0  0  0  0  0  0  0  0  0  0  0  0
  141.0210   79.3790  221.6740 C   0  0  0  0  0  0  0  0  0  0  0  0
  141.3860   80.1940  222.7290 C   0  0  0  0  0  0  0  0  0  0  0  0
  141.7740   81.5050  222.4600 C   0  0  0  0  0  0  0  0  0  0  0  0
  141.7940   81.9880  221.1530 C   0  0  0  0  0  0  0  0  0  0  0  0
  141.4300   81.1770  220.0920 C   0  0  0  0  0  0  0  0  0  0  0  0
  141.0520   79.8870  220.3960 C   0  0  0  0  0  0  0  0  0  0  0  0
  141.4000   76.9720  221.3890 C   0  0  0  0  0  0  0  0  0  0  0  0
  141.0100   75.6700  221.5620 C   0  0  0  0  0  0  0  0  0  0  0  0
  141.4823   72.7399  220.1827 H   0  0  0  0  0  0  0  0  0  0  0  0
  142.3412   72.7067  221.7799 H   0  0  0  0  0  0  0  0  0  0  0  0
  139.3489   71.2386  220.0333 H   0  0  0  0  0  0  0  0  0  0  0  0
  138.6202   68.9033  220.3213 H   0  0  0  0  0  0  0  0  0  0  0  0
  138.6868   67.8895  222.5955 H   0  0  0  0  0  0  0  0  0  0  0  0
  138.7344   68.8788  227.6776 H   0  0  0  0  0  0  0  0  0  0  0  0
  140.3070   68.1073  227.2855 H   0  0  0  0  0  0  0  0  0  0  0  0
  139.7285   70.4236  229.0013 H   0  0  0  0  0  0  0  0  0  0  0  0
  141.1882   69.4519  228.9335 H   0  0  0  0  0  0  0  0  0  0  0  0
  141.1524   71.9939  227.9359 H   0  0  0  0  0  0  0  0  0  0  0  0
  142.1048   70.8003  227.1049 H   0  0  0  0  0  0  0  0  0  0  0  0
  139.1712   71.6499  226.5645 H   0  0  0  0  0  0  0  0  0  0  0  0
  140.4619   71.5864  225.3788 H   0  0  0  0  0  0  0  0  0  0  0  0
  140.1996   71.5693  224.2087 H   0  0  0  0  0  0  0  0  0  0  0  0
  138.0947   76.0734  223.1786 H   0  0  0  0  0  0  0  0  0  0  0  0
  138.7699   78.4499  222.8809 H   0  0  0  0  0  0  0  0  0  0  0  0
  141.3705   79.8148  223.7615 H   0  0  0  0  0  0  0  0  0  0  0  0
  142.0678   82.1661  223.2886 H   0  0  0  0  0  0  0  0  0  0  0  0
  142.1028   83.0264  220.9622 H   0  0  0  0  0  0  0  0  0  0  0  0
  141.4418   81.5447  219.0553 H   0  0  0  0  0  0  0  0  0  0  0  0
  140.7579   79.2249  219.5683 H   0  0  0  0  0  0  0  0  0  0  0  0
  142.3451   77.2036  220.8761 H   0  0  0  0  0  0  0  0  0  0  0  0
  1  2  2  0
  2  3  1  0
  3  4  1  0
  4  5  1  0
  5  6  2  0
  6  7  1  0
  7  8  2  0
  8  9  1  0
  9 10  1  0
 10 11  2  0
 10 12  1  0
 12 13  1  0
 13 14  1  0
 14 15  1  0
 15 16  1  0
  9 17  2  0
  4 18  2  0
 18 19  1  0
 19 20  2  0
 20 21  1  0
 21 22  2  0
 22 23  1  0
 23 24  2  0
 24 25  1  0
 25 26  2  0
 26 27  1  0
 27 28  2  0
 22 29  1  0
 29 30  2  0
 30  2  1  0
 17  5  1  0
 30 19  1  0
 16 12  1  0
 28 23  1  0
  3 31  1  0
  3 32  1  0
  6 33  1  0
  7 34  1  0
  8 35  1  0
 13 36  1  0
 13 37  1  0
 14 38  1  0
 14 39  1  0
 15 40  1  0
 15 41  1  0
 16 42  1  0
 16 43  1  0
 17 44  1  0
 20 45  1  0
 21 46  1  0
 24 47  1  0
 25 48  1  0
 26 49  1  0
 27 50  1  0
 28 51  1  0
 29 52  1  0
M  END
>  <smiles>  (17) 
O=C1CC(c2cccc(C(=O)N3CCCC3)c2)=Nc2ccc(-c3ccccc3)cc21

>  <score_type>  (17) 
oracle

>  <origin>  (17) 
autodockgpu

>  <m_score__min__energy>  (17) 
-9.2899999999999991

>  <m_primary>  (17) 
energy

>  <rmsd>  (17) 
6.809459151163436

>  <m_score__min__rmsd>  (17) 
6.809459151163436

>  <meeko>  (17) 
{"free_energy": -9.18, "intermolecular_energy": -10.07, "internal_energy": -0.87, "cluster_size": 50, "cluster_id": 1, "rank_in_cluster": 36}

>  <energy>  (17) 
-9.27

>  <cluster_rmsd>  (17) 
0.03

>  <cluster>  (17) 
1

$$$$

     RDKit          3D

 52 56  0  0  0  0  0  0  0  0999 V2000
  142.9120   74.9110  220.3120 O   0  0  0  0  0  0  0  0  0  0  0  0
  141.8680   74.5940  220.9530 C   0  0  0  0  0  0  0  0  0  0  0  0
  141.5710   73.1620  221.0940 C   0  0  0  0  0  0  0  0  0  0  0  0
  140.3230   72.9300  221.8650 C   0  0  0  0  0  0  0  0  0  0  0  0
  139.9210   71.5260  222.0750 C   0  0  0  0  0  0  0  0  0  0  0  0
  139.5580   70.7040  221.0290 C   0  0  0  0  0  0  0  0  0  0  0  0
  139.1770   69.3900  221.1910 C   0  0  0  0  0  0  0  0  0  0  0  0
  139.1600   68.8700  222.4670 C   0  0  0  0  0  0  0  0  0  0  0  0
  139.5150   69.6550  223.5460 C   0  0  0  0  0  0  0  0  0  0  0  0
  139.4700   69.0280  224.8600 C   0  0  0  0  0  0  0  0  0  0  0  0
  139.1810   67.8000  224.9700 O   0  0  0  0  0  0  0  0  0  0  0  0
  139.7380   69.7230  226.0660 N   0  0  0  0  0  0  0  0  0  0  0  0
  139.7050   69.1420  227.3840 C   0  0  0  0  0  0  0  0  0  0  0  0
  140.3890   70.0600  228.3440 C   0  0  0  0  0  0  0  0  0  0  0  0
  141.0680   71.0700  227.4490 C   0  0  0  0  0  0  0  0  0  0  0  0
  140.0940   71.1220  226.2720 C   0  0  0  0  0  0  0  0  0  0  0  0
  139.8920   70.9720  223.3510 C   0  0  0  0  0  0  0  0  0  0  0  0
  139.6010   73.8740  222.3440 N   0  0  0  0  0  0  0  0  0  0  0  0
  139.8950   75.2570  222.2020 C   0  0  0  0  0  0  0  0  0  0  0  0
  139.1050   76.2530  222.7240 C   0  0  0  0  0  0  0  0  0  0  0  0
  139.4630   77.5950  222.5410 C   0  0  0  0  0  0  0  0  0  0  0  0
  140.5990   77.9510  221.8440 C   0  0  0  0  0  0  0  0  0  0  0  0
  140.9920   79.3470  221.6410 C   0  0  0  0  0  0  0  0  0  0  0  0
  141.0370   80.2640  222.6740 C   0  0  0  0  0  0  0  0  0  0  0  0
  141.4220   81.5740  222.3910 C   0  0  0  0  0  0  0  0  0  0  0  0
  141.7550   81.9530  221.0930 C   0  0  0  0  0  0  0  0  0  0  0  0
  141.7120   81.0400  220.0540 C   0  0  0  0  0  0  0  0  0  0  0  0
  141.3270   79.7550  220.3710 C   0  0  0  0  0  0  0  0  0  0  0  0
  141.3860   76.9470  221.3230 C   0  0  0  0  0  0  0  0  0  0  0  0
  141.0230   75.6390  221.5110 C   0  0  0  0  0  0  0  0  0  0  0  0
  141.4576   72.7218  220.0923 H   0  0  0  0  0  0  0  0  0  0  0  0
  142.4024   72.6930  221.6407 H   0  0  0  0  0  0  0  0  0  0  0  0
  139.5735   71.1197  220.0107 H   0  0  0  0  0  0  0  0  0  0  0  0
  138.8941   68.7729  220.3255 H   0  0  0  0  0  0  0  0  0  0  0  0
  138.8619   67.8233  222.6269 H   0  0  0  0  0  0  0  0  0  0  0  0
  138.6602   68.9963  227.6956 H   0  0  0  0  0  0  0  0  0  0  0  0
  140.2201   68.1701  227.3720 H   0  0  0  0  0  0  0  0  0  0  0  0
  139.6598   70.5498  229.0061 H   0  0  0  0  0  0  0  0  0  0  0  0
  141.0928   69.5364  229.0077 H   0  0  0  0  0  0  0  0  0  0  0  0
  141.1583   72.0494  227.9416 H   0  0  0  0  0  0  0  0  0  0  0  0
  142.0995   70.8074  227.1714 H   0  0  0  0  0  0  0  0  0  0  0  0
  139.2062   71.7214  226.5220 H   0  0  0  0  0  0  0  0  0  0  0  0
  140.5272   71.5913  225.3764 H   0  0  0  0  0  0  0  0  0  0  0  0
  140.1727   71.5896  224.2169 H   0  0  0  0  0  0  0  0  0  0  0  0
  138.1936   75.9971  223.2842 H   0  0  0  0  0  0  0  0  0  0  0  0
  138.8230   78.3837  222.9632 H   0  0  0  0  0  0  0  0  0  0  0  0
  140.7741   79.9662  223.6998 H   0  0  0  0  0  0  0  0  0  0  0  0
  141.4631   82.3161  223.2019 H   0  0  0  0  0  0  0  0  0  0  0  0
  142.0561   82.9915  220.8910 H   0  0  0  0  0  0  0  0  0  0  0  0
  141.9726   81.3261  219.0243 H   0  0  0  0  0  0  0  0  0  0  0  0
  141.2852   79.0123  219.5607 H   0  0  0  0  0  0  0  0  0  0  0  0
  142.2986   77.1936  220.7605 H   0  0  0  0  0  0  0  0  0  0  0  0
  1  2  2  0
  2  3  1  0
  3  4  1  0
  4  5  1  0
  5  6  2  0
  6  7  1  0
  7  8  2  0
  8  9  1  0
  9 10  1  0
 10 11  2  0
 10 12  1  0
 12 13  1  0
 13 14  1  0
 14 15  1  0
 15 16  1  0
  9 17  2  0
  4 18  2  0
 18 19  1  0
 19 20  2  0
 20 21  1  0
 21 22  2  0
 22 23  1  0
 23 24  2  0
 24 25  1  0
 25 26  2  0
 26 27  1  0
 27 28  2  0
 22 29  1  0
 29 30  2  0
 30  2  1  0
 17  5  1  0
 30 19  1  0
 16 12  1  0
 28 23  1  0
  3 31  1  0
  3 32  1  0
  6 33  1  0
  7 34  1  0
  8 35  1  0
 13 36  1  0
 13 37  1  0
 14 38  1  0
 14 39  1  0
 15 40  1  0
 15 41  1  0
 16 42  1  0
 16 43  1  0
 17 44  1  0
 20 45  1  0
 21 46  1  0
 24 47  1  0
 25 48  1  0
 26 49  1  0
 27 50  1  0
 28 51  1  0
 29 52  1  0
M  END
>  <smiles>  (18) 
O=C1CC(c2cccc(C(=O)N3CCCC3)c2)=Nc2ccc(-c3ccccc3)cc21

>  <score_type>  (18) 
oracle

>  <origin>  (18) 
autodockgpu

>  <m_score__min__energy>  (18) 
-9.2899999999999991

>  <m_primary>  (18) 
energy

>  <rmsd>  (18) 
6.8217467578461335

>  <m_score__min__rmsd>  (18) 
6.8217467578461335

>  <meeko>  (18) 
{"free_energy": -9.15, "intermolecular_energy": -10.04, "internal_energy": -0.86, "cluster_size": 50, "cluster_id": 1, "rank_in_cluster": 39}

>  <energy>  (18) 
-9.27

>  <cluster_rmsd>  (18) 
0.05

>  <cluster>  (18) 
1

$$$$

     RDKit          3D

 52 56  0  0  0  0  0  0  0  0999 V2000
  142.9460   74.9630  220.4740 O   0  0  0  0  0  0  0  0  0  0  0  0
  141.8750   74.6360  221.0640 C   0  0  0  0  0  0  0  0  0  0  0  0
  141.5810   73.2020  221.1840 C   0  0  0  0  0  0  0  0  0  0  0  0
  140.3010   72.9570  221.8950 C   0  0  0  0  0  0  0  0  0  0  0  0
  139.8990   71.5500  222.0790 C   0  0  0  0  0  0  0  0  0  0  0  0
  139.5270   70.7500  221.0190 C   0  0  0  0  0  0  0  0  0  0  0  0
  139.1460   69.4330  221.1560 C   0  0  0  0  0  0  0  0  0  0  0  0
  139.1380   68.8860  222.4210 C   0  0  0  0  0  0  0  0  0  0  0  0
  139.5020   69.6480  223.5140 C   0  0  0  0  0  0  0  0  0  0  0  0
  139.4660   68.9940  224.8150 C   0  0  0  0  0  0  0  0  0  0  0  0
  139.1880   67.7620  224.9000 O   0  0  0  0  0  0  0  0  0  0  0  0
  139.7320   69.6660  226.0340 N   0  0  0  0  0  0  0  0  0  0  0  0
  139.7080   69.0580  227.3400 C   0  0  0  0  0  0  0  0  0  0  0  0
  140.3870   69.9610  228.3160 C   0  0  0  0  0  0  0  0  0  0  0  0
  141.0540   70.9960  227.4400 C   0  0  0  0  0  0  0  0  0  0  0  0
  140.0770   71.0640  226.2680 C   0  0  0  0  0  0  0  0  0  0  0  0
  139.8790   70.9690  223.3430 C   0  0  0  0  0  0  0  0  0  0  0  0
  139.5520   73.8940  222.3460 N   0  0  0  0  0  0  0  0  0  0  0  0
  139.8430   75.2800  222.2250 C   0  0  0  0  0  0  0  0  0  0  0  0
  139.0240   76.2670  222.7160 C   0  0  0  0  0  0  0  0  0  0  0  0
  139.3800   77.6120  222.5570 C   0  0  0  0  0  0  0  0  0  0  0  0
  140.5450   77.9800  221.9150 C   0  0  0  0  0  0  0  0  0  0  0  0
  140.9380   79.3800  221.7370 C   0  0  0  0  0  0  0  0  0  0  0  0
  140.5840   80.1140  220.6210 C   0  0  0  0  0  0  0  0  0  0  0  0
  141.0010   81.4420  220.5340 C   0  0  0  0  0  0  0  0  0  0  0  0
  141.7590   82.0180  221.5500 C   0  0  0  0  0  0  0  0  0  0  0  0
  142.1160   81.2880  222.6710 C   0  0  0  0  0  0  0  0  0  0  0  0
  141.6870   79.9790  222.7230 C   0  0  0  0  0  0  0  0  0  0  0  0
  141.3620   76.9830  221.4250 C   0  0  0  0  0  0  0  0  0  0  0  0
  140.9990   75.6730  221.5890 C   0  0  0  0  0  0  0  0  0  0  0  0
  141.5169   72.7665  220.1759 H   0  0  0  0  0  0  0  0  0  0  0  0
  142.3893   72.7359  221.7666 H   0  0  0  0  0  0  0  0  0  0  0  0
  139.5349   71.1870  220.0096 H   0  0  0  0  0  0  0  0  0  0  0  0
  138.8561   68.8345  220.2798 H   0  0  0  0  0  0  0  0  0  0  0  0
  138.8400   67.8364  222.5610 H   0  0  0  0  0  0  0  0  0  0  0  0
  138.6654   68.8973  227.6516 H   0  0  0  0  0  0  0  0  0  0  0  0
  140.2311   68.0909  227.3064 H   0  0  0  0  0  0  0  0  0  0  0  0
  139.6560   70.4302  228.9909 H   0  0  0  0  0  0  0  0  0  0  0  0
  141.0978   69.4298  228.9660 H   0  0  0  0  0  0  0  0  0  0  0  0
  141.1370   71.9656  227.9528 H   0  0  0  0  0  0  0  0  0  0  0  0
  142.0869   70.7484  227.1539 H   0  0  0  0  0  0  0  0  0  0  0  0
  139.1849   71.6506  226.5327 H   0  0  0  0  0  0  0  0  0  0  0  0
  140.5037   71.5553  225.3811 H   0  0  0  0  0  0  0  0  0  0  0  0
  140.1670   71.5681  224.2194 H   0  0  0  0  0  0  0  0  0  0  0  0
  138.0902   76.0016  223.2332 H   0  0  0  0  0  0  0  0  0  0  0  0
  138.7153   78.3938  222.9532 H   0  0  0  0  0  0  0  0  0  0  0  0
  139.9854   79.6600  219.8175 H   0  0  0  0  0  0  0  0  0  0  0  0
  140.7280   82.0411  219.6528 H   0  0  0  0  0  0  0  0  0  0  0  0
  142.0784   83.0668  221.4609 H   0  0  0  0  0  0  0  0  0  0  0  0
  142.7133   81.7314  223.4813 H   0  0  0  0  0  0  0  0  0  0  0  0
  141.9593   79.3789  223.6038 H   0  0  0  0  0  0  0  0  0  0  0  0
  142.2980   77.2381  220.9065 H   0  0  0  0  0  0  0  0  0  0  0  0
  1  2  2  0
  2  3  1  0
  3  4  1  0
  4  5  1  0
  5  6  2  0
  6  7  1  0
  7  8  2  0
  8  9  1  0
  9 10  1  0
 10 11  2  0
 10 12  1  0
 12 13  1  0
 13 14  1  0
 14 15  1  0
 15 16  1  0
  9 17  2  0
  4 18  2  0
 18 19  1  0
 19 20  2  0
 20 21  1  0
 21 22  2  0
 22 23  1  0
 23 24  2  0
 24 25  1  0
 25 26  2  0
 26 27  1  0
 27 28  2  0
 22 29  1  0
 29 30  2  0
 30  2  1  0
 17  5  1  0
 30 19  1  0
 16 12  1  0
 28 23  1  0
  3 31  1  0
  3 32  1  0
  6 33  1  0
  7 34  1  0
  8 35  1  0
 13 36  1  0
 13 37  1  0
 14 38  1  0
 14 39  1  0
 15 40  1  0
 15 41  1  0
 16 42  1  0
 16 43  1  0
 17 44  1  0
 20 45  1  0
 21 46  1  0
 24 47  1  0
 25 48  1  0
 26 49  1  0
 27 50  1  0
 28 51  1  0
 29 52  1  0
M  END
>  <smiles>  (19) 
O=C1CC(c2cccc(C(=O)N3CCCC3)c2)=Nc2ccc(-c3ccccc3)cc21

>  <score_type>  (19) 
oracle

>  <origin>  (19) 
autodockgpu

>  <m_score__min__energy>  (19) 
-9.2899999999999991

>  <m_primary>  (19) 
energy

>  <rmsd>  (19) 
6.806167618338339

>  <m_score__min__rmsd>  (19) 
6.806167618338339

>  <meeko>  (19) 
{"free_energy": -9.23, "intermolecular_energy": -10.13, "internal_energy": -0.86, "cluster_size": 50, "cluster_id": 1, "rank_in_cluster": 23}

>  <energy>  (19) 
-9.27

>  <cluster_rmsd>  (19) 
0.05

>  <cluster>  (19) 
1

$$$$

     RDKit          3D

 52 56  0  0  0  0  0  0  0  0999 V2000
  142.9840   74.9060  220.4450 O   0  0  0  0  0  0  0  0  0  0  0  0
  141.9150   74.5900  221.0450 C   0  0  0  0  0  0  0  0  0  0  0  0
  141.6110   73.1590  221.1750 C   0  0  0  0  0  0  0  0  0  0  0  0
  140.3350   72.9290  221.8970 C   0  0  0  0  0  0  0  0  0  0  0  0
  139.9230   71.5250  222.0910 C   0  0  0  0  0  0  0  0  0  0  0  0
  139.5440   70.7210  221.0380 C   0  0  0  0  0  0  0  0  0  0  0  0
  139.1540   69.4070  221.1840 C   0  0  0  0  0  0  0  0  0  0  0  0
  139.1440   68.8700  222.4530 C   0  0  0  0  0  0  0  0  0  0  0  0
  139.5150   69.6370  223.5400 C   0  0  0  0  0  0  0  0  0  0  0  0
  139.4760   68.9920  224.8460 C   0  0  0  0  0  0  0  0  0  0  0  0
  139.1910   67.7620  224.9400 O   0  0  0  0  0  0  0  0  0  0  0  0
  139.7450   69.6720  226.0600 N   0  0  0  0  0  0  0  0  0  0  0  0
  139.7190   69.0730  227.3700 C   0  0  0  0  0  0  0  0  0  0  0  0
  140.4040   69.9790  228.3400 C   0  0  0  0  0  0  0  0  0  0  0  0
  141.0760   71.0040  227.4560 C   0  0  0  0  0  0  0  0  0  0  0  0
  140.0990   71.0690  226.2840 C   0  0  0  0  0  0  0  0  0  0  0  0
  139.9000   70.9540  223.3590 C   0  0  0  0  0  0  0  0  0  0  0  0
  139.5970   73.8730  222.3480 N   0  0  0  0  0  0  0  0  0  0  0  0
  139.8970   75.2560  222.2180 C   0  0  0  0  0  0  0  0  0  0  0  0
  139.0890   76.2530  222.7100 C   0  0  0  0  0  0  0  0  0  0  0  0
  139.4550   77.5940  222.5420 C   0  0  0  0  0  0  0  0  0  0  0  0
  140.6180   77.9490  221.8880 C   0  0  0  0  0  0  0  0  0  0  0  0
  141.0200   79.3450  221.7000 C   0  0  0  0  0  0  0  0  0  0  0  0
  141.4530   80.1400  222.7450 C   0  0  0  0  0  0  0  0  0  0  0  0
  141.8160   81.4590  222.4770 C   0  0  0  0  0  0  0  0  0  0  0  0
  141.7460   81.9670  221.1820 C   0  0  0  0  0  0  0  0  0  0  0  0
  141.3130   81.1760  220.1310 C   0  0  0  0  0  0  0  0  0  0  0  0
  140.9620   79.8780  220.4340 C   0  0  0  0  0  0  0  0  0  0  0  0
  141.4230   76.9440  221.3970 C   0  0  0  0  0  0  0  0  0  0  0  0
  141.0510   75.6370  221.5710 C   0  0  0  0  0  0  0  0  0  0  0  0
  141.5356   72.7185  220.1699 H   0  0  0  0  0  0  0  0  0  0  0  0
  142.4201   72.6892  221.7534 H   0  0  0  0  0  0  0  0  0  0  0  0
  139.5532   71.1513  220.0257 H   0  0  0  0  0  0  0  0  0  0  0  0
  138.8592   68.8042  220.3124 H   0  0  0  0  0  0  0  0  0  0  0  0
  138.8385   67.8237  222.6012 H   0  0  0  0  0  0  0  0  0  0  0  0
  138.6758   68.9200  227.6836 H   0  0  0  0  0  0  0  0  0  0  0  0
  140.2370   68.1030  227.3423 H   0  0  0  0  0  0  0  0  0  0  0  0
  139.6762   70.4570  229.0122 H   0  0  0  0  0  0  0  0  0  0  0  0
  141.1122   69.4484  228.9934 H   0  0  0  0  0  0  0  0  0  0  0  0
  141.1645   71.9768  227.9618 H   0  0  0  0  0  0  0  0  0  0  0  0
  142.1073   70.7486  227.1711 H   0  0  0  0  0  0  0  0  0  0  0  0
  139.2107   71.6631  226.5448 H   0  0  0  0  0  0  0  0  0  0  0  0
  140.5287   71.5509  225.3934 H   0  0  0  0  0  0  0  0  0  0  0  0
  140.1921   71.5580  224.2307 H   0  0  0  0  0  0  0  0  0  0  0  0
  138.1565   75.9979  223.2348 H   0  0  0  0  0  0  0  0  0  0  0  0
  138.8006   78.3833  222.9405 H   0  0  0  0  0  0  0  0  0  0  0  0
  141.5100   79.7395  223.7679 H   0  0  0  0  0  0  0  0  0  0  0  0
  142.1614   82.1056  223.2971 H   0  0  0  0  0  0  0  0  0  0  0  0
  142.0385   83.0102  220.9916 H   0  0  0  0  0  0  0  0  0  0  0  0
  141.2521   81.5649  219.1038 H   0  0  0  0  0  0  0  0  0  0  0  0
  140.6152   79.2307  219.6150 H   0  0  0  0  0  0  0  0  0  0  0  0
  142.3567   77.1892  220.8697 H   0  0  0  0  0  0  0  0  0  0  0  0
  1  2  2  0
  2  3  1  0
  3  4  1  0
  4  5  1  0
  5  6  2  0
  6  7  1  0
  7  8  2  0
  8  9  1  0
  9 10  1  0
 10 11  2  0
 10 12  1  0
 12 13  1  0
 13 14  1  0
 14 15  1  0
 15 16  1  0
  9 17  2  0
  4 18  2  0
 18 19  1  0
 19 20  2  0
 20 21  1  0
 21 22  2  0
 22 23  1  0
 23 24  2  0
 24 25  1  0
 25 26  2  0
 26 27  1  0
 27 28  2  0
 22 29  1  0
 29 30  2  0
 30  2  1  0
 17  5  1  0
 30 19  1  0
 16 12  1  0
 28 23  1  0
  3 31  1  0
  3 32  1  0
  6 33  1  0
  7 34  1  0
  8 35  1  0
 13 36  1  0
 13 37  1  0
 14 38  1  0
 14 39  1  0
 15 40  1  0
 15 41  1  0
 16 42  1  0
 16 43  1  0
 17 44  1  0
 20 45  1  0
 21 46  1  0
 24 47  1  0
 25 48  1  0
 26 49  1  0
 27 50  1  0
 28 51  1  0
 29 52  1  0
M  END
>  <smiles>  (20) 
O=C1CC(c2cccc(C(=O)N3CCCC3)c2)=Nc2ccc(-c3ccccc3)cc21

>  <score_type>  (20) 
oracle

>  <origin>  (20) 
autodockgpu

>  <m_score__min__energy>  (20) 
-9.2899999999999991

>  <m_primary>  (20) 
energy

>  <rmsd>  (20) 
6.808328626972179

>  <m_score__min__rmsd>  (20) 
6.808328626972179

>  <meeko>  (20) 
{"free_energy": -9.19, "intermolecular_energy": -10.09, "internal_energy": -0.86, "cluster_size": 50, "cluster_id": 1, "rank_in_cluster": 29}

>  <energy>  (20) 
-9.26

>  <cluster_rmsd>  (20) 
0.14

>  <cluster>  (20) 
1

$$$$

     RDKit          3D

 52 56  0  0  0  0  0  0  0  0999 V2000
  142.9480   74.9170  220.3960 O   0  0  0  0  0  0  0  0  0  0  0  0
  141.8880   74.5950  221.0080 C   0  0  0  0  0  0  0  0  0  0  0  0
  141.5910   73.1630  221.1370 C   0  0  0  0  0  0  0  0  0  0  0  0
  140.3240   72.9260  221.8750 C   0  0  0  0  0  0  0  0  0  0  0  0
  139.9190   71.5210  222.0690 C   0  0  0  0  0  0  0  0  0  0  0  0
  139.5510   70.7110  221.0150 C   0  0  0  0  0  0  0  0  0  0  0  0
  139.1680   69.3960  221.1630 C   0  0  0  0  0  0  0  0  0  0  0  0
  139.1530   68.8620  222.4330 C   0  0  0  0  0  0  0  0  0  0  0  0
  139.5130   69.6330  223.5200 C   0  0  0  0  0  0  0  0  0  0  0  0
  139.4700   68.9910  224.8270 C   0  0  0  0  0  0  0  0  0  0  0  0
  139.1810   67.7630  224.9240 O   0  0  0  0  0  0  0  0  0  0  0  0
  139.7410   69.6730  226.0400 N   0  0  0  0  0  0  0  0  0  0  0  0
  139.7110   69.0770  227.3520 C   0  0  0  0  0  0  0  0  0  0  0  0
  140.3970   69.9830  228.3200 C   0  0  0  0  0  0  0  0  0  0  0  0
  141.0740   71.0030  227.4360 C   0  0  0  0  0  0  0  0  0  0  0  0
  140.0980   71.0690  226.2620 C   0  0  0  0  0  0  0  0  0  0  0  0
  139.8920   70.9520  223.3390 C   0  0  0  0  0  0  0  0  0  0  0  0
  139.5880   73.8670  222.3370 N   0  0  0  0  0  0  0  0  0  0  0  0
  139.8820   75.2510  222.2080 C   0  0  0  0  0  0  0  0  0  0  0  0
  139.0780   76.2440  222.7120 C   0  0  0  0  0  0  0  0  0  0  0  0
  139.4370   77.5870  222.5430 C   0  0  0  0  0  0  0  0  0  0  0  0
  140.5910   77.9480  221.8770 C   0  0  0  0  0  0  0  0  0  0  0  0
  140.9860   79.3450  221.6880 C   0  0  0  0  0  0  0  0  0  0  0  0
  140.9440   79.9690  220.4550 C   0  0  0  0  0  0  0  0  0  0  0  0
  141.3390   81.3030  220.3670 C   0  0  0  0  0  0  0  0  0  0  0  0
  141.7670   81.9960  221.4960 C   0  0  0  0  0  0  0  0  0  0  0  0
  141.8110   81.3760  222.7340 C   0  0  0  0  0  0  0  0  0  0  0  0
  141.4140   80.0580  222.7840 C   0  0  0  0  0  0  0  0  0  0  0  0
  141.3930   76.9460  221.3730 C   0  0  0  0  0  0  0  0  0  0  0  0
  141.0270   75.6380  221.5470 C   0  0  0  0  0  0  0  0  0  0  0  0
  141.5044   72.7255  220.1315 H   0  0  0  0  0  0  0  0  0  0  0  0
  142.4091   72.6941  221.7035 H   0  0  0  0  0  0  0  0  0  0  0  0
  139.5640   71.1381  220.0014 H   0  0  0  0  0  0  0  0  0  0  0  0
  138.8821   68.7891  220.2913 H   0  0  0  0  0  0  0  0  0  0  0  0
  138.8522   67.8144  222.5817 H   0  0  0  0  0  0  0  0  0  0  0  0
  138.6669   68.9281  227.6644 H   0  0  0  0  0  0  0  0  0  0  0  0
  140.2258   68.1052  227.3277 H   0  0  0  0  0  0  0  0  0  0  0  0
  139.6695   70.4652  228.9895 H   0  0  0  0  0  0  0  0  0  0  0  0
  141.1023   69.4514  228.9757 H   0  0  0  0  0  0  0  0  0  0  0  0
  141.1654   71.9765  227.9400 H   0  0  0  0  0  0  0  0  0  0  0  0
  142.1049   70.7435  227.1533 H   0  0  0  0  0  0  0  0  0  0  0  0
  139.2109   71.6657  226.5208 H   0  0  0  0  0  0  0  0  0  0  0  0
  140.5298   71.5485  225.3712 H   0  0  0  0  0  0  0  0  0  0  0  0
  140.1759   71.5591  224.2113 H   0  0  0  0  0  0  0  0  0  0  0  0
  138.1530   75.9846  223.2479 H   0  0  0  0  0  0  0  0  0  0  0  0
  138.7840   78.3728  222.9506 H   0  0  0  0  0  0  0  0  0  0  0  0
  140.6057   79.4239  219.5615 H   0  0  0  0  0  0  0  0  0  0  0  0
  141.3122   81.8144  219.3935 H   0  0  0  0  0  0  0  0  0  0  0  0
  142.0739   83.0483  221.4039 H   0  0  0  0  0  0  0  0  0  0  0  0
  142.1471   81.9109  223.6345 H   0  0  0  0  0  0  0  0  0  0  0  0
  141.4407   79.5456  223.7570 H   0  0  0  0  0  0  0  0  0  0  0  0
  142.3197   77.1954  220.8353 H   0  0  0  0  0  0  0  0  0  0  0  0
  1  2  2  0
  2  3  1  0
  3  4  1  0
  4  5  1  0
  5  6  2  0
  6  7  1  0
  7  8  2  0
  8  9  1  0
  9 10  1  0
 10 11  2  0
 10 12  1  0
 12 13  1  0
 13 14  1  0
 14 15  1  0
 15 16  1  0
  9 17  2  0
  4 18  2  0
 18 19  1  0
 19 20  2  0
 20 21  1  0
 21 22  2  0
 22 23  1  0
 23 24  2  0
 24 25  1  0
 25 26  2  0
 26 27  1  0
 27 28  2  0
 22 29  1  0
 29 30  2  0
 30  2  1  0
 17  5  1  0
 30 19  1  0
 16 12  1  0
 28 23  1  0
  3 31  1  0
  3 32  1  0
  6 33  1  0
  7 34  1  0
  8 35  1  0
 13 36  1  0
 13 37  1  0
 14 38  1  0
 14 39  1  0
 15 40  1  0
 15 41  1  0
 16 42  1  0
 16 43  1  0
 17 44  1  0
 20 45  1  0
 21 46  1  0
 24 47  1  0
 25 48  1  0
 26 49  1  0
 27 50  1  0
 28 51  1  0
 29 52  1  0
M  END
>  <smiles>  (21) 
O=C1CC(c2cccc(C(=O)N3CCCC3)c2)=Nc2ccc(-c3ccccc3)cc21

>  <score_type>  (21) 
oracle

>  <origin>  (21) 
autodockgpu

>  <m_score__min__energy>  (21) 
-9.2899999999999991

>  <m_primary>  (21) 
energy

>  <rmsd>  (21) 
6.810650180807482

>  <m_score__min__rmsd>  (21) 
6.810650180807482

>  <meeko>  (21) 
{"free_energy": -9.28, "intermolecular_energy": -10.17, "internal_energy": -0.86, "cluster_size": 50, "cluster_id": 1, "rank_in_cluster": 10}

>  <energy>  (21) 
-9.25

>  <cluster_rmsd>  (21) 
0.1

>  <cluster>  (21) 
1

$$$$

     RDKit          3D

 52 56  0  0  0  0  0  0  0  0999 V2000
  142.9710   74.9130  220.4080 O   0  0  0  0  0  0  0  0  0  0  0  0
  141.9090   74.5940  221.0190 C   0  0  0  0  0  0  0  0  0  0  0  0
  141.6090   73.1620  221.1480 C   0  0  0  0  0  0  0  0  0  0  0  0
  140.3400   72.9280  221.8830 C   0  0  0  0  0  0  0  0  0  0  0  0
  139.9330   71.5230  222.0780 C   0  0  0  0  0  0  0  0  0  0  0  0
  139.5630   70.7150  221.0240 C   0  0  0  0  0  0  0  0  0  0  0  0
  139.1770   69.4000  221.1710 C   0  0  0  0  0  0  0  0  0  0  0  0
  139.1620   68.8660  222.4410 C   0  0  0  0  0  0  0  0  0  0  0  0
  139.5250   69.6360  223.5280 C   0  0  0  0  0  0  0  0  0  0  0  0
  139.4810   68.9930  224.8350 C   0  0  0  0  0  0  0  0  0  0  0  0
  139.1980   67.7640  224.9310 O   0  0  0  0  0  0  0  0  0  0  0  0
  139.7460   69.6760  226.0490 N   0  0  0  0  0  0  0  0  0  0  0  0
  139.7160   69.0800  227.3600 C   0  0  0  0  0  0  0  0  0  0  0  0
  140.3950   69.9890  228.3310 C   0  0  0  0  0  0  0  0  0  0  0  0
  141.0700   71.0120  227.4470 C   0  0  0  0  0  0  0  0  0  0  0  0
  140.0970   71.0740  226.2710 C   0  0  0  0  0  0  0  0  0  0  0  0
  139.9060   70.9540  223.3470 C   0  0  0  0  0  0  0  0  0  0  0  0
  139.6060   73.8700  222.3440 N   0  0  0  0  0  0  0  0  0  0  0  0
  139.9020   75.2540  222.2150 C   0  0  0  0  0  0  0  0  0  0  0  0
  139.0980   76.2480  222.7170 C   0  0  0  0  0  0  0  0  0  0  0  0
  139.4600   77.5900  222.5480 C   0  0  0  0  0  0  0  0  0  0  0  0
  140.6160   77.9490  221.8840 C   0  0  0  0  0  0  0  0  0  0  0  0
  141.0140   79.3460  221.6950 C   0  0  0  0  0  0  0  0  0  0  0  0
  141.0130   79.9570  220.4560 C   0  0  0  0  0  0  0  0  0  0  0  0
  141.4070   81.2920  220.3680 C   0  0  0  0  0  0  0  0  0  0  0  0
  141.7940   81.9960  221.5050 C   0  0  0  0  0  0  0  0  0  0  0  0
  141.7970   81.3890  222.7490 C   0  0  0  0  0  0  0  0  0  0  0  0
  141.4020   80.0700  222.7980 C   0  0  0  0  0  0  0  0  0  0  0  0
  141.4170   76.9460  221.3820 C   0  0  0  0  0  0  0  0  0  0  0  0
  141.0490   75.6380  221.5560 C   0  0  0  0  0  0  0  0  0  0  0  0
  141.5239   72.7241  220.1425 H   0  0  0  0  0  0  0  0  0  0  0  0
  142.4249   72.6918  221.7165 H   0  0  0  0  0  0  0  0  0  0  0  0
  139.5766   71.1430  220.0108 H   0  0  0  0  0  0  0  0  0  0  0  0
  138.8891   68.7941  220.2992 H   0  0  0  0  0  0  0  0  0  0  0  0
  138.8588   67.8192  222.5899 H   0  0  0  0  0  0  0  0  0  0  0  0
  138.6718   68.9255  227.6696 H   0  0  0  0  0  0  0  0  0  0  0  0
  140.2364   68.1112  227.3363 H   0  0  0  0  0  0  0  0  0  0  0  0
  139.6634   70.4681  228.9983 H   0  0  0  0  0  0  0  0  0  0  0  0
  141.1003   69.4611  228.9897 H   0  0  0  0  0  0  0  0  0  0  0  0
  141.1565   71.9860  227.9507 H   0  0  0  0  0  0  0  0  0  0  0  0
  142.1024   70.7561  227.1665 H   0  0  0  0  0  0  0  0  0  0  0  0
  139.2070   71.6674  226.5273 H   0  0  0  0  0  0  0  0  0  0  0  0
  140.5289   71.5550  225.3810 H   0  0  0  0  0  0  0  0  0  0  0  0
  140.1916   71.5604  224.2192 H   0  0  0  0  0  0  0  0  0  0  0  0
  138.1714   75.9903  223.2508 H   0  0  0  0  0  0  0  0  0  0  0  0
  138.8077   78.3772  222.9540 H   0  0  0  0  0  0  0  0  0  0  0  0
  140.7076   79.4017  219.5569 H   0  0  0  0  0  0  0  0  0  0  0  0
  141.4120   81.7942  219.3894 H   0  0  0  0  0  0  0  0  0  0  0  0
  142.1014   83.0482  221.4136 H   0  0  0  0  0  0  0  0  0  0  0  0
  142.1003   81.9337  223.6552 H   0  0  0  0  0  0  0  0  0  0  0  0
  141.3966   79.5668  223.7761 H   0  0  0  0  0  0  0  0  0  0  0  0
  142.3448   77.1940  220.8457 H   0  0  0  0  0  0  0  0  0  0  0  0
  1  2  2  0
  2  3  1  0
  3  4  1  0
  4  5  1  0
  5  6  2  0
  6  7  1  0
  7  8  2  0
  8  9  1  0
  9 10  1  0
 10 11  2  0
 10 12  1  0
 12 13  1  0
 13 14  1  0
 14 15  1  0
 15 16  1  0
  9 17  2  0
  4 18  2  0
 18 19  1  0
 19 20  2  0
 20 21  1  0
 21 22  2  0
 22 23  1  0
 23 24  2  0
 24 25  1  0
 25 26  2  0
 26 27  1  0
 27 28  2  0
 22 29  1  0
 29 30  2  0
 30  2  1  0
 17  5  1  0
 30 19  1  0
 16 12  1  0
 28 23  1  0
  3 31  1  0
  3 32  1  0
  6 33  1  0
  7 34  1  0
  8 35  1  0
 13 36  1  0
 13 37  1  0
 14 38  1  0
 14 39  1  0
 15 40  1  0
 15 41  1  0
 16 42  1  0
 16 43  1  0
 17 44  1  0
 20 45  1  0
 21 46  1  0
 24 47  1  0
 25 48  1  0
 26 49  1  0
 27 50  1  0
 28 51  1  0
 29 52  1  0
M  END
>  <smiles>  (22) 
O=C1CC(c2cccc(C(=O)N3CCCC3)c2)=Nc2ccc(-c3ccccc3)cc21

>  <score_type>  (22) 
oracle

>  <origin>  (22) 
autodockgpu

>  <m_score__min__energy>  (22) 
-9.2899999999999991

>  <m_primary>  (22) 
energy

>  <rmsd>  (22) 
6.811254516849659

>  <m_score__min__rmsd>  (22) 
6.811254516849659

>  <meeko>  (22) 
{"free_energy": -9.29, "intermolecular_energy": -10.18, "internal_energy": -0.86, "cluster_size": 50, "cluster_id": 1, "rank_in_cluster": 1}

>  <energy>  (22) 
-9.24

>  <cluster_rmsd>  (22) 
0.14

>  <cluster>  (22) 
1

$$$$

     RDKit          3D

 52 56  0  0  0  0  0  0  0  0999 V2000
  142.9240   75.0540  220.3210 O   0  0  0  0  0  0  0  0  0  0  0  0
  141.8800   74.7210  220.9540 C   0  0  0  0  0  0  0  0  0  0  0  0
  141.5970   73.2860  221.0830 C   0  0  0  0  0  0  0  0  0  0  0  0
  140.3470   73.0350  221.8450 C   0  0  0  0  0  0  0  0  0  0  0  0
  139.9580   71.6250  222.0420 C   0  0  0  0  0  0  0  0  0  0  0  0
  139.7010   70.7820  220.9830 C   0  0  0  0  0  0  0  0  0  0  0  0
  139.3360   69.4610  221.1320 C   0  0  0  0  0  0  0  0  0  0  0  0
  139.2230   68.9580  222.4100 C   0  0  0  0  0  0  0  0  0  0  0  0
  139.4710   69.7650  223.5030 C   0  0  0  0  0  0  0  0  0  0  0  0
  139.3300   69.1540  224.8180 C   0  0  0  0  0  0  0  0  0  0  0  0
  138.9040   67.9670  224.9260 O   0  0  0  0  0  0  0  0  0  0  0  0
  139.6480   69.8230  226.0270 N   0  0  0  0  0  0  0  0  0  0  0  0
  139.5250   69.2570  227.3460 C   0  0  0  0  0  0  0  0  0  0  0  0
  140.2860   70.0980  228.3160 C   0  0  0  0  0  0  0  0  0  0  0  0
  141.0910   71.0220  227.4320 C   0  0  0  0  0  0  0  0  0  0  0  0
  140.1530   71.1750  226.2350 C   0  0  0  0  0  0  0  0  0  0  0  0
  139.8350   71.0870  223.3200 C   0  0  0  0  0  0  0  0  0  0  0  0
  139.6140   73.9680  222.3280 N   0  0  0  0  0  0  0  0  0  0  0  0
  139.8940   75.3550  222.1990 C   0  0  0  0  0  0  0  0  0  0  0  0
  139.0920   76.3380  222.7240 C   0  0  0  0  0  0  0  0  0  0  0  0
  139.4370   77.6850  222.5540 C   0  0  0  0  0  0  0  0  0  0  0  0
  140.5730   78.0580  221.8650 C   0  0  0  0  0  0  0  0  0  0  0  0
  140.9520   79.4600  221.6750 C   0  0  0  0  0  0  0  0  0  0  0  0
  141.2010   80.3120  222.7340 C   0  0  0  0  0  0  0  0  0  0  0  0
  141.5570   81.6330  222.4620 C   0  0  0  0  0  0  0  0  0  0  0  0
  141.6600   82.0860  221.1490 C   0  0  0  0  0  0  0  0  0  0  0  0
  141.4120   81.2370  220.0840 C   0  0  0  0  0  0  0  0  0  0  0  0
  141.0630   79.9400  220.3910 C   0  0  0  0  0  0  0  0  0  0  0  0
  141.3730   77.0660  221.3400 C   0  0  0  0  0  0  0  0  0  0  0  0
  141.0210   75.7540  221.5160 C   0  0  0  0  0  0  0  0  0  0  0  0
  141.4939   72.8519  220.0775 H   0  0  0  0  0  0  0  0  0  0  0  0
  142.4300   72.8219  221.6314 H   0  0  0  0  0  0  0  0  0  0  0  0
  139.7920   71.1848  219.9635 H   0  0  0  0  0  0  0  0  0  0  0  0
  139.1404   68.8262  220.2552 H   0  0  0  0  0  0  0  0  0  0  0  0
  138.9336   67.9075  222.5605 H   0  0  0  0  0  0  0  0  0  0  0  0
  138.4644   69.2293  227.6366 H   0  0  0  0  0  0  0  0  0  0  0  0
  139.9301   68.2343  227.3476 H   0  0  0  0  0  0  0  0  0  0  0  0
  139.6022   70.6691  228.9612 H   0  0  0  0  0  0  0  0  0  0  0  0
  140.9138   69.5033  228.9959 H   0  0  0  0  0  0  0  0  0  0  0  0
  141.2792   71.9880  227.9233 H   0  0  0  0  0  0  0  0  0  0  0  0
  142.0925   70.6454  227.1769 H   0  0  0  0  0  0  0  0  0  0  0  0
  139.3325   71.8708  226.4642 H   0  0  0  0  0  0  0  0  0  0  0  0
  140.6537   71.5880  225.3469 H   0  0  0  0  0  0  0  0  0  0  0  0
  140.0300   71.7221  224.1967 H   0  0  0  0  0  0  0  0  0  0  0  0
  138.1802   76.0683  223.2771 H   0  0  0  0  0  0  0  0  0  0  0  0
  138.7871   78.4637  222.9797 H   0  0  0  0  0  0  0  0  0  0  0  0
  141.1201   79.9554  223.7714 H   0  0  0  0  0  0  0  0  0  0  0  0
  141.7586   82.3244  223.2935 H   0  0  0  0  0  0  0  0  0  0  0  0
  141.9420   83.1315  220.9558 H   0  0  0  0  0  0  0  0  0  0  0  0
  141.4899   81.5815  219.0423 H   0  0  0  0  0  0  0  0  0  0  0  0
  140.8613   79.2477  219.5603 H   0  0  0  0  0  0  0  0  0  0  0  0
  142.2862   77.3257  220.7845 H   0  0  0  0  0  0  0  0  0  0  0  0
  1  2  2  0
  2  3  1  0
  3  4  1  0
  4  5  1  0
  5  6  2  0
  6  7  1  0
  7  8  2  0
  8  9  1  0
  9 10  1  0
 10 11  2  0
 10 12  1  0
 12 13  1  0
 13 14  1  0
 14 15  1  0
 15 16  1  0
  9 17  2  0
  4 18  2  0
 18 19  1  0
 19 20  2  0
 20 21  1  0
 21 22  2  0
 22 23  1  0
 23 24  2  0
 24 25  1  0
 25 26  2  0
 26 27  1  0
 27 28  2  0
 22 29  1  0
 29 30  2  0
 30  2  1  0
 17  5  1  0
 30 19  1  0
 16 12  1  0
 28 23  1  0
  3 31  1  0
  3 32  1  0
  6 33  1  0
  7 34  1  0
  8 35  1  0
 13 36  1  0
 13 37  1  0
 14 38  1  0
 14 39  1  0
 15 40  1  0
 15 41  1  0
 16 42  1  0
 16 43  1  0
 17 44  1  0
 20 45  1  0
 21 46  1  0
 24 47  1  0
 25 48  1  0
 26 49  1  0
 27 50  1  0
 28 51  1  0
 29 52  1  0
M  END
>  <smiles>  (23) 
O=C1CC(c2cccc(C(=O)N3CCCC3)c2)=Nc2ccc(-c3ccccc3)cc21

>  <score_type>  (23) 
oracle

>  <origin>  (23) 
autodockgpu

>  <m_score__min__energy>  (23) 
-9.2899999999999991

>  <m_primary>  (23) 
energy

>  <rmsd>  (23) 
6.820795998368305

>  <m_score__min__rmsd>  (23) 
6.820795998368305

>  <meeko>  (23) 
{"free_energy": -9.09, "intermolecular_energy": -9.98, "internal_energy": -0.86, "cluster_size": 50, "cluster_id": 1, "rank_in_cluster": 43}

>  <energy>  (23) 
-9.23

>  <cluster_rmsd>  (23) 
0.16

>  <cluster>  (23) 
1

$$$$

     RDKit          3D

 52 56  0  0  0  0  0  0  0  0999 V2000
  142.8220   75.2660  220.2100 O   0  0  0  0  0  0  0  0  0  0  0  0
  141.7970   74.9550  220.8860 C   0  0  0  0  0  0  0  0  0  0  0  0
  141.5170   73.5240  221.0650 C   0  0  0  0  0  0  0  0  0  0  0  0
  140.2920   73.2990  221.8740 C   0  0  0  0  0  0  0  0  0  0  0  0
  139.9070   71.8970  222.1240 C   0  0  0  0  0  0  0  0  0  0  0  0
  139.9270   70.9430  221.1300 C   0  0  0  0  0  0  0  0  0  0  0  0
  139.5740   69.6260  221.3300 C   0  0  0  0  0  0  0  0  0  0  0  0
  139.1810   69.2430  222.5940 C   0  0  0  0  0  0  0  0  0  0  0  0
  139.1450   70.1630  223.6230 C   0  0  0  0  0  0  0  0  0  0  0  0
  138.7180   69.6760  224.9280 C   0  0  0  0  0  0  0  0  0  0  0  0
  137.4850   69.5750  225.1980 O   0  0  0  0  0  0  0  0  0  0  0  0
  139.6210   69.2930  225.9510 N   0  0  0  0  0  0  0  0  0  0  0  0
  139.2420   68.8050  227.2530 C   0  0  0  0  0  0  0  0  0  0  0  0
  140.4250   68.1660  227.9030 C   0  0  0  0  0  0  0  0  0  0  0  0
  141.4340   68.0610  226.7830 C   0  0  0  0  0  0  0  0  0  0  0  0
  141.0800   69.2930  225.9510 C   0  0  0  0  0  0  0  0  0  0  0  0
  139.5050   71.4790  223.3890 C   0  0  0  0  0  0  0  0  0  0  0  0
  139.5750   74.2470  222.3510 N   0  0  0  0  0  0  0  0  0  0  0  0
  139.8520   75.6290  222.1720 C   0  0  0  0  0  0  0  0  0  0  0  0
  139.0690   76.6300  222.6930 C   0  0  0  0  0  0  0  0  0  0  0  0
  139.4100   77.9700  222.4730 C   0  0  0  0  0  0  0  0  0  0  0  0
  140.5240   78.3200  221.7380 C   0  0  0  0  0  0  0  0  0  0  0  0
  140.9000   79.7150  221.4940 C   0  0  0  0  0  0  0  0  0  0  0  0
  141.0600   80.2290  220.2210 C   0  0  0  0  0  0  0  0  0  0  0  0
  141.4200   81.5690  220.0810 C   0  0  0  0  0  0  0  0  0  0  0  0
  141.6130   82.3750  221.2000 C   0  0  0  0  0  0  0  0  0  0  0  0
  141.4530   81.8660  222.4780 C   0  0  0  0  0  0  0  0  0  0  0  0
  141.0980   80.5380  222.5780 C   0  0  0  0  0  0  0  0  0  0  0  0
  141.3060   77.3110  221.2180 C   0  0  0  0  0  0  0  0  0  0  0  0
  140.9580   76.0050  221.4430 C   0  0  0  0  0  0  0  0  0  0  0  0
  141.3808   73.0614  220.0763 H   0  0  0  0  0  0  0  0  0  0  0  0
  142.3668   73.0733  221.5985 H   0  0  0  0  0  0  0  0  0  0  0  0
  140.2420   71.2494  220.1216 H   0  0  0  0  0  0  0  0  0  0  0  0
  139.6051   68.9007  220.5036 H   0  0  0  0  0  0  0  0  0  0  0  0
  138.8943   68.1982  222.7844 H   0  0  0  0  0  0  0  0  0  0  0  0
  138.8908   69.6437  227.8721 H   0  0  0  0  0  0  0  0  0  0  0  0
  138.4340   68.0658  227.1491 H   0  0  0  0  0  0  0  0  0  0  0  0
  140.8100   68.7931  228.7206 H   0  0  0  0  0  0  0  0  0  0  0  0
  140.1885   67.1924  228.3571 H   0  0  0  0  0  0  0  0  0  0  0  0
  142.4651   68.1132  227.1627 H   0  0  0  0  0  0  0  0  0  0  0  0
  141.3950   67.1130  226.2265 H   0  0  0  0  0  0  0  0  0  0  0  0
  141.4736   70.2087  226.4164 H   0  0  0  0  0  0  0  0  0  0  0  0
  141.5095   69.2655  224.9387 H   0  0  0  0  0  0  0  0  0  0  0  0
  139.4729   72.2048  224.2149 H   0  0  0  0  0  0  0  0  0  0  0  0
  138.1748   76.3791  223.2825 H   0  0  0  0  0  0  0  0  0  0  0  0
  138.7749   78.7623  222.8960 H   0  0  0  0  0  0  0  0  0  0  0  0
  140.9065   79.5939  219.3361 H   0  0  0  0  0  0  0  0  0  0  0  0
  141.5530   81.9941  219.0752 H   0  0  0  0  0  0  0  0  0  0  0  0
  141.8962   83.4296  221.0672 H   0  0  0  0  0  0  0  0  0  0  0  0
  141.6021   82.4916  223.3704 H   0  0  0  0  0  0  0  0  0  0  0  0
  140.9653   80.1115  223.5833 H   0  0  0  0  0  0  0  0  0  0  0  0
  142.2020   77.5523  220.6273 H   0  0  0  0  0  0  0  0  0  0  0  0
  1  2  2  0
  2  3  1  0
  3  4  1  0
  4  5  1  0
  5  6  2  0
  6  7  1  0
  7  8  2  0
  8  9  1  0
  9 10  1  0
 10 11  2  0
 10 12  1  0
 12 13  1  0
 13 14  1  0
 14 15  1  0
 15 16  1  0
  9 17  2  0
  4 18  2  0
 18 19  1  0
 19 20  2  0
 20 21  1  0
 21 22  2  0
 22 23  1  0
 23 24  2  0
 24 25  1  0
 25 26  2  0
 26 27  1  0
 27 28  2  0
 22 29  1  0
 29 30  2  0
 30  2  1  0
 17  5  1  0
 30 19  1  0
 16 12  1  0
 28 23  1  0
  3 31  1  0
  3 32  1  0
  6 33  1  0
  7 34  1  0
  8 35  1  0
 13 36  1  0
 13 37  1  0
 14 38  1  0
 14 39  1  0
 15 40  1  0
 15 41  1  0
 16 42  1  0
 16 43  1  0
 17 44  1  0
 20 45  1  0
 21 46  1  0
 24 47  1  0
 25 48  1  0
 26 49  1  0
 27 50  1  0
 28 51  1  0
 29 52  1  0
M  END
>  <smiles>  (24) 
O=C1CC(c2cccc(C(=O)N3CCCC3)c2)=Nc2ccc(-c3ccccc3)cc21

>  <score_type>  (24) 
oracle

>  <origin>  (24) 
autodockgpu

>  <m_score__min__energy>  (24) 
-9.2899999999999991

>  <m_primary>  (24) 
energy

>  <rmsd>  (24) 
6.983473981769615

>  <m_score__min__rmsd>  (24) 
6.983473981769615

>  <meeko>  (24) 
{"free_energy": -8.37, "intermolecular_energy": -9.26, "internal_energy": -1.0, "cluster_size": 50, "cluster_id": 1, "rank_in_cluster": 48}

>  <energy>  (24) 
-9.23

>  <cluster_rmsd>  (24) 
0.16

>  <cluster>  (24) 
1

$$$$

     RDKit          3D

 52 56  0  0  0  0  0  0  0  0999 V2000
  142.5760   73.2620  220.7820 O   0  0  0  0  0  0  0  0  0  0  0  0
  141.4200   73.4310  221.2700 C   0  0  0  0  0  0  0  0  0  0  0  0
  140.8010   72.2860  221.9510 C   0  0  0  0  0  0  0  0  0  0  0  0
  139.4520   72.6190  222.4740 C   0  0  0  0  0  0  0  0  0  0  0  0
  138.7290   71.5450  223.1820 C   0  0  0  0  0  0  0  0  0  0  0  0
  137.3560   71.4310  223.1340 C   0  0  0  0  0  0  0  0  0  0  0  0
  136.6500   70.4410  223.7830 C   0  0  0  0  0  0  0  0  0  0  0  0
  137.3570   69.5160  224.5200 C   0  0  0  0  0  0  0  0  0  0  0  0
  138.7340   69.5890  224.5980 C   0  0  0  0  0  0  0  0  0  0  0  0
  139.4040   68.5710  225.3970 C   0  0  0  0  0  0  0  0  0  0  0  0
  139.5800   67.4080  224.9290 O   0  0  0  0  0  0  0  0  0  0  0  0
  139.8890   68.8030  226.7090 N   0  0  0  0  0  0  0  0  0  0  0  0
  140.5570   67.8270  227.5320 C   0  0  0  0  0  0  0  0  0  0  0  0
  141.2360   68.5210  228.6660 C   0  0  0  0  0  0  0  0  0  0  0  0
  141.1590   69.9820  228.2870 C   0  0  0  0  0  0  0  0  0  0  0  0
  139.8410   70.0170  227.5160 C   0  0  0  0  0  0  0  0  0  0  0  0
  139.4130   70.5960  223.9350 C   0  0  0  0  0  0  0  0  0  0  0  0
  138.9060   73.7690  222.3410 N   0  0  0  0  0  0  0  0  0  0  0  0
  139.5110   74.8720  221.6800 C   0  0  0  0  0  0  0  0  0  0  0  0
  138.9050   76.0980  221.5480 C   0  0  0  0  0  0  0  0  0  0  0  0
  139.5680   77.1360  220.8820 C   0  0  0  0  0  0  0  0  0  0  0  0
  140.8280   76.9620  220.3460 C   0  0  0  0  0  0  0  0  0  0  0  0
  141.5390   78.0330  219.6460 C   0  0  0  0  0  0  0  0  0  0  0  0
  141.5180   79.3460  220.0780 C   0  0  0  0  0  0  0  0  0  0  0  0
  142.2240   80.3030  219.3500 C   0  0  0  0  0  0  0  0  0  0  0  0
  142.9370   79.9450  218.2090 C   0  0  0  0  0  0  0  0  0  0  0  0
  142.9620   78.6320  217.7700 C   0  0  0  0  0  0  0  0  0  0  0  0
  142.2530   77.7140  218.5140 C   0  0  0  0  0  0  0  0  0  0  0  0
  141.4300   75.7300  220.4820 C   0  0  0  0  0  0  0  0  0  0  0  0
  140.7670   74.7250  221.1370 C   0  0  0  0  0  0  0  0  0  0  0  0
  140.7108   71.4536  221.2376 H   0  0  0  0  0  0  0  0  0  0  0  0
  141.4392   72.0090  222.8030 H   0  0  0  0  0  0  0  0  0  0  0  0
  136.7931   72.1706  222.5456 H   0  0  0  0  0  0  0  0  0  0  0  0
  135.5533   70.3908  223.7145 H   0  0  0  0  0  0  0  0  0  0  0  0
  136.8213   68.7144  225.0496 H   0  0  0  0  0  0  0  0  0  0  0  0
  139.8197   67.1125  227.9268 H   0  0  0  0  0  0  0  0  0  0  0  0
  141.3027   67.2860  226.9310 H   0  0  0  0  0  0  0  0  0  0  0  0
  140.7094   68.3329  229.6133 H   0  0  0  0  0  0  0  0  0  0  0  0
  142.2681   68.1742  228.8225 H   0  0  0  0  0  0  0  0  0  0  0  0
  141.1234   70.6282  229.1764 H   0  0  0  0  0  0  0  0  0  0  0  0
  142.0261   70.3479  227.7175 H   0  0  0  0  0  0  0  0  0  0  0  0
  138.9824   69.9990  228.2033 H   0  0  0  0  0  0  0  0  0  0  0  0
  139.7204   70.9290  226.9129 H   0  0  0  0  0  0  0  0  0  0  0  0
  140.5096   70.6469  224.0043 H   0  0  0  0  0  0  0  0  0  0  0  0
  137.9006   76.2638  221.9649 H   0  0  0  0  0  0  0  0  0  0  0  0
  139.0729   78.1134  220.7836 H   0  0  0  0  0  0  0  0  0  0  0  0
  140.9549   79.6305  220.9791 H   0  0  0  0  0  0  0  0  0  0  0  0
  142.2176   81.3521  219.6807 H   0  0  0  0  0  0  0  0  0  0  0  0
  143.4876   80.7152  217.6490 H   0  0  0  0  0  0  0  0  0  0  0  0
  143.5212   78.3358  216.8702 H   0  0  0  0  0  0  0  0  0  0  0  0
  142.2582   76.6648  218.1836 H   0  0  0  0  0  0  0  0  0  0  0  0
  142.4341   75.5546  220.0684 H   0  0  0  0  0  0  0  0  0  0  0  0
  1  2  2  0
  2  3  1  0
  3  4  1  0
  4  5  1  0
  5  6  2  0
  6  7  1  0
  7  8  2  0
  8  9  1  0
  9 10  1  0
 10 11  2  0
 10 12  1  0
 12 13  1  0
 13 14  1  0
 14 15  1  0
 15 16  1  0
  9 17  2  0
  4 18  2  0
 18 19  1  0
 19 20  2  0
 20 21  1  0
 21 22  2  0
 22 23  1  0
 23 24  2  0
 24 25  1  0
 25 26  2  0
 26 27  1  0
 27 28  2  0
 22 29  1  0
 29 30  2  0
 30  2  1  0
 17  5  1  0
 30 19  1  0
 16 12  1  0
 28 23  1  0
  3 31  1  0
  3 32  1  0
  6 33  1  0
  7 34  1  0
  8 35  1  0
 13 36  1  0
 13 37  1  0
 14 38  1  0
 14 39  1  0
 15 40  1  0
 15 41  1  0
 16 42  1  0
 16 43  1  0
 17 44  1  0
 20 45  1  0
 21 46  1  0
 24 47  1  0
 25 48  1  0
 26 49  1  0
 27 50  1  0
 28 51  1  0
 29 52  1  0
M  END
>  <smiles>  (25) 
O=C1CC(c2cccc(C(=O)N3CCCC3)c2)=Nc2ccc(-c3ccccc3)cc21

>  <score_type>  (25) 
oracle

>  <origin>  (25) 
autodockgpu

>  <m_score__min__energy>  (25) 
-9.2899999999999991

>  <m_primary>  (25) 
energy

>  <rmsd>  (25) 
6.865982610692319

>  <m_score__min__rmsd>  (25) 
6.865982610692319

>  <meeko>  (25) 
{"free_energy": -8.22, "intermolecular_energy": -9.11, "internal_energy": -1.02, "cluster_size": 50, "cluster_id": 1, "rank_in_cluster": 50}

>  <energy>  (25) 
-9.22

>  <cluster_rmsd>  (25) 
0.1

>  <cluster>  (25) 
1

$$$$

     RDKit          3D

 52 56  0  0  0  0  0  0  0  0999 V2000
  142.9700   74.9220  220.4580 O   0  0  0  0  0  0  0  0  0  0  0  0
  141.8970   74.6120  221.0530 C   0  0  0  0  0  0  0  0  0  0  0  0
  141.5840   73.1830  221.1800 C   0  0  0  0  0  0  0  0  0  0  0  0
  140.3020   72.9600  221.8960 C   0  0  0  0  0  0  0  0  0  0  0  0
  139.8810   71.5580  222.0870 C   0  0  0  0  0  0  0  0  0  0  0  0
  139.4800   70.7640  221.0350 C   0  0  0  0  0  0  0  0  0  0  0  0
  139.0810   69.4530  221.1790 C   0  0  0  0  0  0  0  0  0  0  0  0
  139.0850   68.9080  222.4450 C   0  0  0  0  0  0  0  0  0  0  0  0
  139.4790   69.6640  223.5300 C   0  0  0  0  0  0  0  0  0  0  0  0
  139.4530   69.0110  224.8330 C   0  0  0  0  0  0  0  0  0  0  0  0
  139.1770   67.7790  224.9220 O   0  0  0  0  0  0  0  0  0  0  0  0
  139.7280   69.6860  226.0490 N   0  0  0  0  0  0  0  0  0  0  0  0
  139.7160   69.0790  227.3560 C   0  0  0  0  0  0  0  0  0  0  0  0
  140.4020   69.9840  228.3250 C   0  0  0  0  0  0  0  0  0  0  0  0
  141.0620   71.0180  227.4430 C   0  0  0  0  0  0  0  0  0  0  0  0
  140.0750   71.0840  226.2780 C   0  0  0  0  0  0  0  0  0  0  0  0
  139.8730   70.9790  223.3530 C   0  0  0  0  0  0  0  0  0  0  0  0
  139.5680   73.9080  222.3440 N   0  0  0  0  0  0  0  0  0  0  0  0
  139.8770   75.2890  222.2170 C   0  0  0  0  0  0  0  0  0  0  0  0
  139.0730   76.2900  222.7040 C   0  0  0  0  0  0  0  0  0  0  0  0
  139.4470   77.6300  222.5390 C   0  0  0  0  0  0  0  0  0  0  0  0
  140.6150   77.9780  221.8910 C   0  0  0  0  0  0  0  0  0  0  0  0
  141.0260   79.3720  221.7060 C   0  0  0  0  0  0  0  0  0  0  0  0
  141.0400   79.9840  220.4670 C   0  0  0  0  0  0  0  0  0  0  0  0
  141.4460   81.3150  220.3820 C   0  0  0  0  0  0  0  0  0  0  0  0
  141.8310   82.0160  221.5220 C   0  0  0  0  0  0  0  0  0  0  0  0
  141.8200   81.4080  222.7660 C   0  0  0  0  0  0  0  0  0  0  0  0
  141.4130   80.0930  222.8120 C   0  0  0  0  0  0  0  0  0  0  0  0
  141.4170   76.9680  221.4040 C   0  0  0  0  0  0  0  0  0  0  0  0
  141.0360   75.6640  221.5750 C   0  0  0  0  0  0  0  0  0  0  0  0
  141.5109   72.7439  220.1741 H   0  0  0  0  0  0  0  0  0  0  0  0
  142.3874   72.7077  221.7619 H   0  0  0  0  0  0  0  0  0  0  0  0
  139.4782   71.2003  220.0252 H   0  0  0  0  0  0  0  0  0  0  0  0
  138.7681   68.8582  220.3082 H   0  0  0  0  0  0  0  0  0  0  0  0
  138.7721   67.8636  222.5914 H   0  0  0  0  0  0  0  0  0  0  0  0
  138.6763   68.9171  227.6767 H   0  0  0  0  0  0  0  0  0  0  0  0
  140.2401   68.1126  227.3190 H   0  0  0  0  0  0  0  0  0  0  0  0
  139.6758   70.4539  229.0046 H   0  0  0  0  0  0  0  0  0  0  0  0
  141.1182   69.4540  228.9701 H   0  0  0  0  0  0  0  0  0  0  0  0
  141.1486   71.9882  227.9540 H   0  0  0  0  0  0  0  0  0  0  0  0
  142.0928   70.7707  227.1493 H   0  0  0  0  0  0  0  0  0  0  0  0
  139.1851   71.6711  226.5489 H   0  0  0  0  0  0  0  0  0  0  0  0
  140.4947   71.5737  225.3869 H   0  0  0  0  0  0  0  0  0  0  0  0
  140.1839   71.5744  224.2241 H   0  0  0  0  0  0  0  0  0  0  0  0
  138.1361   76.0399  223.2232 H   0  0  0  0  0  0  0  0  0  0  0  0
  138.7951   78.4227  222.9348 H   0  0  0  0  0  0  0  0  0  0  0  0
  140.7367   79.4317  219.5654 H   0  0  0  0  0  0  0  0  0  0  0  0
  141.4624   81.8171  219.4034 H   0  0  0  0  0  0  0  0  0  0  0  0
  142.1477   83.0657  221.4332 H   0  0  0  0  0  0  0  0  0  0  0  0
  142.1221   81.9496  223.6745 H   0  0  0  0  0  0  0  0  0  0  0  0
  141.3964   79.5899  223.7901 H   0  0  0  0  0  0  0  0  0  0  0  0
  142.3553   77.2077  220.8823 H   0  0  0  0  0  0  0  0  0  0  0  0
  1  2  2  0
  2  3  1  0
  3  4  1  0
  4  5  1  0
  5  6  2  0
  6  7  1  0
  7  8  2  0
  8  9  1  0
  9 10  1  0
 10 11  2  0
 10 12  1  0
 12 13  1  0
 13 14  1  0
 14 15  1  0
 15 16  1  0
  9 17  2  0
  4 18  2  0
 18 19  1  0
 19 20  2  0
 20 21  1  0
 21 22  2  0
 22 23  1  0
 23 24  2  0
 24 25  1  0
 25 26  2  0
 26 27  1  0
 27 28  2  0
 22 29  1  0
 29 30  2  0
 30  2  1  0
 17  5  1  0
 30 19  1  0
 16 12  1  0
 28 23  1  0
  3 31  1  0
  3 32  1  0
  6 33  1  0
  7 34  1  0
  8 35  1  0
 13 36  1  0
 13 37  1  0
 14 38  1  0
 14 39  1  0
 15 40  1  0
 15 41  1  0
 16 42  1  0
 16 43  1  0
 17 44  1  0
 20 45  1  0
 21 46  1  0
 24 47  1  0
 25 48  1  0
 26 49  1  0
 27 50  1  0
 28 51  1  0
 29 52  1  0
M  END
>  <smiles>  (26) 
O=C1CC(c2cccc(C(=O)N3CCCC3)c2)=Nc2ccc(-c3ccccc3)cc21

>  <score_type>  (26) 
oracle

>  <origin>  (26) 
autodockgpu

>  <m_score__min__energy>  (26) 
-9.2899999999999991

>  <m_primary>  (26) 
energy

>  <rmsd>  (26) 
6.807862743013557

>  <m_score__min__rmsd>  (26) 
6.807862743013557

>  <meeko>  (26) 
{"free_energy": -9.28, "intermolecular_energy": -10.18, "internal_energy": -0.86, "cluster_size": 50, "cluster_id": 1, "rank_in_cluster": 4}

>  <energy>  (26) 
-9.2

>  <cluster_rmsd>  (26) 
0.12

>  <cluster>  (26) 
1

$$$$

     RDKit          3D

 52 56  0  0  0  0  0  0  0  0999 V2000
  142.8190   74.8460  220.6070 O   0  0  0  0  0  0  0  0  0  0  0  0
  141.7150   74.5640  221.1580 C   0  0  0  0  0  0  0  0  0  0  0  0
  141.3650   73.1430  221.2790 C   0  0  0  0  0  0  0  0  0  0  0  0
  140.0500   72.9530  221.9420 C   0  0  0  0  0  0  0  0  0  0  0  0
  139.5900   71.5620  222.1220 C   0  0  0  0  0  0  0  0  0  0  0  0
  139.0210   70.8400  221.0950 C   0  0  0  0  0  0  0  0  0  0  0  0
  138.5810   69.5410  221.2300 C   0  0  0  0  0  0  0  0  0  0  0  0
  138.7190   68.9320  222.4590 C   0  0  0  0  0  0  0  0  0  0  0  0
  139.2820   69.6160  223.5180 C   0  0  0  0  0  0  0  0  0  0  0  0
  139.3910   68.8990  224.7820 C   0  0  0  0  0  0  0  0  0  0  0  0
  139.1940   67.6490  224.8240 O   0  0  0  0  0  0  0  0  0  0  0  0
  139.7140   69.5280  226.0100 N   0  0  0  0  0  0  0  0  0  0  0  0
  139.8320   68.8580  227.2800 C   0  0  0  0  0  0  0  0  0  0  0  0
  140.5330   69.7550  228.2470 C   0  0  0  0  0  0  0  0  0  0  0  0
  141.0640   70.8710  227.3770 C   0  0  0  0  0  0  0  0  0  0  0  0
  139.9930   70.9320  226.2900 C   0  0  0  0  0  0  0  0  0  0  0  0
  139.7140   70.9200  223.3500 C   0  0  0  0  0  0  0  0  0  0  0  0
  139.3190   73.9200  222.3530 N   0  0  0  0  0  0  0  0  0  0  0  0
  139.6640   75.2930  222.2320 C   0  0  0  0  0  0  0  0  0  0  0  0
  138.8630   76.3150  222.6800 C   0  0  0  0  0  0  0  0  0  0  0  0
  139.2750   77.6450  222.5240 C   0  0  0  0  0  0  0  0  0  0  0  0
  140.4760   77.9630  221.9240 C   0  0  0  0  0  0  0  0  0  0  0  0
  140.9260   79.3460  221.7490 C   0  0  0  0  0  0  0  0  0  0  0  0
  140.9460   79.9700  220.5160 C   0  0  0  0  0  0  0  0  0  0  0  0
  141.3900   81.2900  220.4410 C   0  0  0  0  0  0  0  0  0  0  0  0
  141.8060   81.9670  221.5850 C   0  0  0  0  0  0  0  0  0  0  0  0
  141.7890   81.3470  222.8230 C   0  0  0  0  0  0  0  0  0  0  0  0
  141.3440   80.0430  222.8590 C   0  0  0  0  0  0  0  0  0  0  0  0
  141.2750   76.9320  221.4760 C   0  0  0  0  0  0  0  0  0  0  0  0
  140.8570   75.6370  221.6370 C   0  0  0  0  0  0  0  0  0  0  0  0
  141.3239   72.6996  220.2732 H   0  0  0  0  0  0  0  0  0  0  0  0
  142.1327   72.6533  221.8961 H   0  0  0  0  0  0  0  0  0  0  0  0
  138.9122   71.3269  220.1147 H   0  0  0  0  0  0  0  0  0  0  0  0
  138.1322   69.0050  220.3807 H   0  0  0  0  0  0  0  0  0  0  0  0
  138.3786   67.8951  222.5968 H   0  0  0  0  0  0  0  0  0  0  0  0
  138.8294   68.6166  227.6629 H   0  0  0  0  0  0  0  0  0  0  0  0
  140.4074   67.9289  227.1549 H   0  0  0  0  0  0  0  0  0  0  0  0
  139.8324   70.1440  229.0005 H   0  0  0  0  0  0  0  0  0  0  0  0
  141.3244   69.2397  228.8110 H   0  0  0  0  0  0  0  0  0  0  0  0
  141.1301   71.8185  227.9319 H   0  0  0  0  0  0  0  0  0  0  0  0
  142.0833   70.7037  226.9988 H   0  0  0  0  0  0  0  0  0  0  0  0
  139.0919   71.4472  226.6540 H   0  0  0  0  0  0  0  0  0  0  0  0
  140.3166   71.4910  225.3996 H   0  0  0  0  0  0  0  0  0  0  0  0
  140.1618   71.4565  224.1995 H   0  0  0  0  0  0  0  0  0  0  0  0
  137.8995   76.0896  223.1605 H   0  0  0  0  0  0  0  0  0  0  0  0
  138.6257   78.4547  222.8885 H   0  0  0  0  0  0  0  0  0  0  0  0
  140.6183   79.4362  219.6118 H   0  0  0  0  0  0  0  0  0  0  0  0
  141.4119   81.8021  219.4677 H   0  0  0  0  0  0  0  0  0  0  0  0
  142.1526   83.0078  221.5039 H   0  0  0  0  0  0  0  0  0  0  0  0
  142.1150   81.8701  223.7341 H   0  0  0  0  0  0  0  0  0  0  0  0
  141.3218   79.5298  223.8317 H   0  0  0  0  0  0  0  0  0  0  0  0
  142.2397   77.1474  220.9935 H   0  0  0  0  0  0  0  0  0  0  0  0
  1  2  2  0
  2  3  1  0
  3  4  1  0
  4  5  1  0
  5  6  2  0
  6  7  1  0
  7  8  2  0
  8  9  1  0
  9 10  1  0
 10 11  2  0
 10 12  1  0
 12 13  1  0
 13 14  1  0
 14 15  1  0
 15 16  1  0
  9 17  2  0
  4 18  2  0
 18 19  1  0
 19 20  2  0
 20 21  1  0
 21 22  2  0
 22 23  1  0
 23 24  2  0
 24 25  1  0
 25 26  2  0
 26 27  1  0
 27 28  2  0
 22 29  1  0
 29 30  2  0
 30  2  1  0
 17  5  1  0
 30 19  1  0
 16 12  1  0
 28 23  1  0
  3 31  1  0
  3 32  1  0
  6 33  1  0
  7 34  1  0
  8 35  1  0
 13 36  1  0
 13 37  1  0
 14 38  1  0
 14 39  1  0
 15 40  1  0
 15 41  1  0
 16 42  1  0
 16 43  1  0
 17 44  1  0
 20 45  1  0
 21 46  1  0
 24 47  1  0
 25 48  1  0
 26 49  1  0
 27 50  1  0
 28 51  1  0
 29 52  1  0
M  END
>  <smiles>  (27) 
O=C1CC(c2cccc(C(=O)N3CCCC3)c2)=Nc2ccc(-c3ccccc3)cc21

>  <score_type>  (27) 
oracle

>  <origin>  (27) 
autodockgpu

>  <m_score__min__energy>  (27) 
-9.2899999999999991

>  <m_primary>  (27) 
energy

>  <rmsd>  (27) 
6.780633020648381

>  <m_score__min__rmsd>  (27) 
6.780633020648381

>  <meeko>  (27) 
{"free_energy": -9.2, "intermolecular_energy": -10.09, "internal_energy": -0.87, "cluster_size": 50, "cluster_id": 1, "rank_in_cluster": 27}

>  <energy>  (27) 
-9.2

>  <cluster_rmsd>  (27) 
0.26

>  <cluster>  (27) 
1

$$$$

     RDKit          3D

 52 56  0  0  0  0  0  0  0  0999 V2000
  142.7980   74.8340  220.6530 O   0  0  0  0  0  0  0  0  0  0  0  0
  141.6880   74.5550  221.1920 C   0  0  0  0  0  0  0  0  0  0  0  0
  141.3330   73.1350  221.3110 C   0  0  0  0  0  0  0  0  0  0  0  0
  140.0100   72.9480  221.9600 C   0  0  0  0  0  0  0  0  0  0  0  0
  139.5450   71.5590  222.1360 C   0  0  0  0  0  0  0  0  0  0  0  0
  138.9500   70.8500  221.1150 C   0  0  0  0  0  0  0  0  0  0  0  0
  138.5040   69.5530  221.2470 C   0  0  0  0  0  0  0  0  0  0  0  0
  138.6640   68.9320  222.4660 C   0  0  0  0  0  0  0  0  0  0  0  0
  139.2550   69.6010  223.5190 C   0  0  0  0  0  0  0  0  0  0  0  0
  139.3860   68.8710  224.7740 C   0  0  0  0  0  0  0  0  0  0  0  0
  139.2030   67.6190  224.8040 O   0  0  0  0  0  0  0  0  0  0  0  0
  139.7170   69.4900  226.0050 N   0  0  0  0  0  0  0  0  0  0  0  0
  139.8580   68.8070  227.2660 C   0  0  0  0  0  0  0  0  0  0  0  0
  140.5610   69.7000  228.2340 C   0  0  0  0  0  0  0  0  0  0  0  0
  141.0700   70.8310  227.3710 C   0  0  0  0  0  0  0  0  0  0  0  0
  139.9860   70.8930  226.2970 C   0  0  0  0  0  0  0  0  0  0  0  0
  139.6910   70.9040  223.3550 C   0  0  0  0  0  0  0  0  0  0  0  0
  139.2770   73.9180  222.3620 N   0  0  0  0  0  0  0  0  0  0  0  0
  139.6260   75.2900  222.2430 C   0  0  0  0  0  0  0  0  0  0  0  0
  138.8230   76.3140  222.6820 C   0  0  0  0  0  0  0  0  0  0  0  0
  139.2390   77.6430  222.5280 C   0  0  0  0  0  0  0  0  0  0  0  0
  140.4480   77.9580  221.9410 C   0  0  0  0  0  0  0  0  0  0  0  0
  140.9030   79.3390  221.7700 C   0  0  0  0  0  0  0  0  0  0  0  0
  140.9370   79.9620  220.5370 C   0  0  0  0  0  0  0  0  0  0  0  0
  141.3850   81.2810  220.4650 C   0  0  0  0  0  0  0  0  0  0  0  0
  141.7910   81.9580  221.6130 C   0  0  0  0  0  0  0  0  0  0  0  0
  141.7590   81.3390  222.8510 C   0  0  0  0  0  0  0  0  0  0  0  0
  141.3110   80.0370  222.8830 C   0  0  0  0  0  0  0  0  0  0  0  0
  141.2490   76.9250  221.5030 C   0  0  0  0  0  0  0  0  0  0  0  0
  140.8270   75.6310  221.6610 C   0  0  0  0  0  0  0  0  0  0  0  0
  141.3019   72.6906  220.3053 H   0  0  0  0  0  0  0  0  0  0  0  0
  142.0927   72.6447  221.9375 H   0  0  0  0  0  0  0  0  0  0  0  0
  138.8243   71.3466  220.1416 H   0  0  0  0  0  0  0  0  0  0  0  0
  138.0334   69.0282  220.4025 H   0  0  0  0  0  0  0  0  0  0  0  0
  138.3187   67.8964  222.6013 H   0  0  0  0  0  0  0  0  0  0  0  0
  138.8629   68.5505  227.6584 H   0  0  0  0  0  0  0  0  0  0  0  0
  140.4418   67.8857  227.1232 H   0  0  0  0  0  0  0  0  0  0  0  0
  139.8655   70.0732  229.0001 H   0  0  0  0  0  0  0  0  0  0  0  0
  141.3645   69.1866  228.7824 H   0  0  0  0  0  0  0  0  0  0  0  0
  141.1326   71.7728  227.9359 H   0  0  0  0  0  0  0  0  0  0  0  0
  142.0865   70.6787  226.9793 H   0  0  0  0  0  0  0  0  0  0  0  0
  139.0843   71.3957  226.6768 H   0  0  0  0  0  0  0  0  0  0  0  0
  140.2942   71.4644  225.4090 H   0  0  0  0  0  0  0  0  0  0  0  0
  140.1596   71.4294  224.2002 H   0  0  0  0  0  0  0  0  0  0  0  0
  137.8547   76.0911  223.1538 H   0  0  0  0  0  0  0  0  0  0  0  0
  138.5868   78.4545  222.8832 H   0  0  0  0  0  0  0  0  0  0  0  0
  140.6170   79.4282  219.6300 H   0  0  0  0  0  0  0  0  0  0  0  0
  141.4181   81.7921  219.4915 H   0  0  0  0  0  0  0  0  0  0  0  0
  142.1415   82.9977  221.5348 H   0  0  0  0  0  0  0  0  0  0  0  0
  142.0762   81.8620  223.7653 H   0  0  0  0  0  0  0  0  0  0  0  0
  141.2775   79.5250  223.8560 H   0  0  0  0  0  0  0  0  0  0  0  0
  142.2192   77.1379  221.0304 H   0  0  0  0  0  0  0  0  0  0  0  0
  1  2  2  0
  2  3  1  0
  3  4  1  0
  4  5  1  0
  5  6  2  0
  6  7  1  0
  7  8  2  0
  8  9  1  0
  9 10  1  0
 10 11  2  0
 10 12  1  0
 12 13  1  0
 13 14  1  0
 14 15  1  0
 15 16  1  0
  9 17  2  0
  4 18  2  0
 18 19  1  0
 19 20  2  0
 20 21  1  0
 21 22  2  0
 22 23  1  0
 23 24  2  0
 24 25  1  0
 25 26  2  0
 26 27  1  0
 27 28  2  0
 22 29  1  0
 29 30  2  0
 30  2  1  0
 17  5  1  0
 30 19  1  0
 16 12  1  0
 28 23  1  0
  3 31  1  0
  3 32  1  0
  6 33  1  0
  7 34  1  0
  8 35  1  0
 13 36  1  0
 13 37  1  0
 14 38  1  0
 14 39  1  0
 15 40  1  0
 15 41  1  0
 16 42  1  0
 16 43  1  0
 17 44  1  0
 20 45  1  0
 21 46  1  0
 24 47  1  0
 25 48  1  0
 26 49  1  0
 27 50  1  0
 28 51  1  0
 29 52  1  0
M  END
>  <smiles>  (28) 
O=C1CC(c2cccc(C(=O)N3CCCC3)c2)=Nc2ccc(-c3ccccc3)cc21

>  <score_type>  (28) 
oracle

>  <origin>  (28) 
autodockgpu

>  <m_score__min__energy>  (28) 
-9.2899999999999991

>  <m_primary>  (28) 
energy

>  <rmsd>  (28) 
6.774250433755615

>  <m_score__min__rmsd>  (28) 
6.774250433755615

>  <meeko>  (28) 
{"free_energy": -9.17, "intermolecular_energy": -10.06, "internal_energy": -0.88, "cluster_size": 50, "cluster_id": 1, "rank_in_cluster": 38}

>  <energy>  (28) 
-9.19

>  <cluster_rmsd>  (28) 
0.1

>  <cluster>  (28) 
1

$$$$

     RDKit          3D

 52 56  0  0  0  0  0  0  0  0999 V2000
  142.9810   74.9390  220.4620 O   0  0  0  0  0  0  0  0  0  0  0  0
  141.9080   74.6260  221.0560 C   0  0  0  0  0  0  0  0  0  0  0  0
  141.5980   73.1950  221.1810 C   0  0  0  0  0  0  0  0  0  0  0  0
  140.3170   72.9680  221.8970 C   0  0  0  0  0  0  0  0  0  0  0  0
  139.8990   71.5650  222.0850 C   0  0  0  0  0  0  0  0  0  0  0  0
  139.5050   70.7700  221.0310 C   0  0  0  0  0  0  0  0  0  0  0  0
  139.1090   69.4580  221.1730 C   0  0  0  0  0  0  0  0  0  0  0  0
  139.1090   68.9120  222.4390 C   0  0  0  0  0  0  0  0  0  0  0  0
  139.4970   69.6700  223.5260 C   0  0  0  0  0  0  0  0  0  0  0  0
  139.4680   69.0160  224.8280 C   0  0  0  0  0  0  0  0  0  0  0  0
  139.1990   67.7820  224.9150 O   0  0  0  0  0  0  0  0  0  0  0  0
  139.7320   69.6920  226.0460 N   0  0  0  0  0  0  0  0  0  0  0  0
  139.7160   69.0840  227.3530 C   0  0  0  0  0  0  0  0  0  0  0  0
  140.3910   69.9930  228.3260 C   0  0  0  0  0  0  0  0  0  0  0  0
  141.0490   71.0320  227.4480 C   0  0  0  0  0  0  0  0  0  0  0  0
  140.0690   71.0920  226.2780 C   0  0  0  0  0  0  0  0  0  0  0  0
  139.8880   70.9850  223.3500 C   0  0  0  0  0  0  0  0  0  0  0  0
  139.5800   73.9140  222.3450 N   0  0  0  0  0  0  0  0  0  0  0  0
  139.8860   75.2960  222.2200 C   0  0  0  0  0  0  0  0  0  0  0  0
  139.0790   76.2950  222.7080 C   0  0  0  0  0  0  0  0  0  0  0  0
  139.4510   77.6350  222.5450 C   0  0  0  0  0  0  0  0  0  0  0  0
  140.6180   77.9870  221.8980 C   0  0  0  0  0  0  0  0  0  0  0  0
  141.0260   79.3820  221.7150 C   0  0  0  0  0  0  0  0  0  0  0  0
  141.4580   80.1730  222.7630 C   0  0  0  0  0  0  0  0  0  0  0  0
  141.8280   81.4910  222.4990 C   0  0  0  0  0  0  0  0  0  0  0  0
  141.7630   82.0030  221.2060 C   0  0  0  0  0  0  0  0  0  0  0  0
  141.3310   81.2160  220.1520 C   0  0  0  0  0  0  0  0  0  0  0  0
  140.9740   79.9190  220.4500 C   0  0  0  0  0  0  0  0  0  0  0  0
  141.4230   76.9800  221.4100 C   0  0  0  0  0  0  0  0  0  0  0  0
  141.0450   75.6740  221.5790 C   0  0  0  0  0  0  0  0  0  0  0  0
  141.5256   72.7573  220.1744 H   0  0  0  0  0  0  0  0  0  0  0  0
  142.4027   72.7206  221.7619 H   0  0  0  0  0  0  0  0  0  0  0  0
  139.5067   71.2064  220.0213 H   0  0  0  0  0  0  0  0  0  0  0  0
  138.8014   68.8627  220.3006 H   0  0  0  0  0  0  0  0  0  0  0  0
  138.7982   67.8668  222.5839 H   0  0  0  0  0  0  0  0  0  0  0  0
  138.6755   68.9157  227.6677 H   0  0  0  0  0  0  0  0  0  0  0  0
  140.2458   68.1206  227.3187 H   0  0  0  0  0  0  0  0  0  0  0  0
  139.6582   70.4578  229.0020 H   0  0  0  0  0  0  0  0  0  0  0  0
  141.1073   69.4672  228.9745 H   0  0  0  0  0  0  0  0  0  0  0  0
  141.1261   72.0026  227.9599 H   0  0  0  0  0  0  0  0  0  0  0  0
  142.0831   70.7917  227.1600 H   0  0  0  0  0  0  0  0  0  0  0  0
  139.1738   71.6733  226.5440 H   0  0  0  0  0  0  0  0  0  0  0  0
  140.4910   71.5846  225.3896 H   0  0  0  0  0  0  0  0  0  0  0  0
  140.1946   71.5808  224.2223 H   0  0  0  0  0  0  0  0  0  0  0  0
  138.1420   76.0426  223.2260 H   0  0  0  0  0  0  0  0  0  0  0  0
  138.7976   78.4258  222.9421 H   0  0  0  0  0  0  0  0  0  0  0  0
  141.5088   79.7704  223.7854 H   0  0  0  0  0  0  0  0  0  0  0  0
  142.1752   82.1336  223.3215 H   0  0  0  0  0  0  0  0  0  0  0  0
  142.0586   83.0460  221.0194 H   0  0  0  0  0  0  0  0  0  0  0  0
  141.2754   81.6076  219.1255 H   0  0  0  0  0  0  0  0  0  0  0  0
  140.6271   79.2755  219.6281 H   0  0  0  0  0  0  0  0  0  0  0  0
  142.3610   77.2230  220.8893 H   0  0  0  0  0  0  0  0  0  0  0  0
  1  2  2  0
  2  3  1  0
  3  4  1  0
  4  5  1  0
  5  6  2  0
  6  7  1  0
  7  8  2  0
  8  9  1  0
  9 10  1  0
 10 11  2  0
 10 12  1  0
 12 13  1  0
 13 14  1  0
 14 15  1  0
 15 16  1  0
  9 17  2  0
  4 18  2  0
 18 19  1  0
 19 20  2  0
 20 21  1  0
 21 22  2  0
 22 23  1  0
 23 24  2  0
 24 25  1  0
 25 26  2  0
 26 27  1  0
 27 28  2  0
 22 29  1  0
 29 30  2  0
 30  2  1  0
 17  5  1  0
 30 19  1  0
 16 12  1  0
 28 23  1  0
  3 31  1  0
  3 32  1  0
  6 33  1  0
  7 34  1  0
  8 35  1  0
 13 36  1  0
 13 37  1  0
 14 38  1  0
 14 39  1  0
 15 40  1  0
 15 41  1  0
 16 42  1  0
 16 43  1  0
 17 44  1  0
 20 45  1  0
 21 46  1  0
 24 47  1  0
 25 48  1  0
 26 49  1  0
 27 50  1  0
 28 51  1  0
 29 52  1  0
M  END
>  <smiles>  (29) 
O=C1CC(c2cccc(C(=O)N3CCCC3)c2)=Nc2ccc(-c3ccccc3)cc21

>  <score_type>  (29) 
oracle

>  <origin>  (29) 
autodockgpu

>  <m_score__min__energy>  (29) 
-9.2899999999999991

>  <m_primary>  (29) 
energy

>  <rmsd>  (29) 
6.809945319620563

>  <m_score__min__rmsd>  (29) 
6.809945319620563

>  <meeko>  (29) 
{"free_energy": -9.19, "intermolecular_energy": -10.09, "internal_energy": -0.86, "cluster_size": 50, "cluster_id": 1, "rank_in_cluster": 28}

>  <energy>  (29) 
-9.19

>  <cluster_rmsd>  (29) 
0.1

>  <cluster>  (29) 
1

$$$$

     RDKit          3D

 52 56  0  0  0  0  0  0  0  0999 V2000
  142.9760   74.9040  220.3690 O   0  0  0  0  0  0  0  0  0  0  0  0
  141.9190   74.5870  220.9890 C   0  0  0  0  0  0  0  0  0  0  0  0
  141.6190   73.1560  221.1240 C   0  0  0  0  0  0  0  0  0  0  0  0
  140.3560   72.9240  221.8710 C   0  0  0  0  0  0  0  0  0  0  0  0
  139.9490   71.5200  222.0720 C   0  0  0  0  0  0  0  0  0  0  0  0
  139.5870   70.7040  221.0210 C   0  0  0  0  0  0  0  0  0  0  0  0
  139.2020   69.3900  221.1750 C   0  0  0  0  0  0  0  0  0  0  0  0
  139.1790   68.8640  222.4480 C   0  0  0  0  0  0  0  0  0  0  0  0
  139.5320   69.6430  223.5330 C   0  0  0  0  0  0  0  0  0  0  0  0
  139.4810   69.0090  224.8440 C   0  0  0  0  0  0  0  0  0  0  0  0
  139.1860   67.7830  224.9470 O   0  0  0  0  0  0  0  0  0  0  0  0
  139.7480   69.6980  226.0540 N   0  0  0  0  0  0  0  0  0  0  0  0
  139.7090   69.1100  227.3690 C   0  0  0  0  0  0  0  0  0  0  0  0
  140.3950   70.0200  228.3350 C   0  0  0  0  0  0  0  0  0  0  0  0
  141.0800   71.0320  227.4460 C   0  0  0  0  0  0  0  0  0  0  0  0
  140.1110   71.0940  226.2670 C   0  0  0  0  0  0  0  0  0  0  0  0
  139.9140   70.9600  223.3450 C   0  0  0  0  0  0  0  0  0  0  0  0
  139.6260   73.8680  222.3350 N   0  0  0  0  0  0  0  0  0  0  0  0
  139.9220   75.2510  222.2000 C   0  0  0  0  0  0  0  0  0  0  0  0
  139.1230   76.2470  222.7060 C   0  0  0  0  0  0  0  0  0  0  0  0
  139.4850   77.5890  222.5310 C   0  0  0  0  0  0  0  0  0  0  0  0
  140.6350   77.9450  221.8560 C   0  0  0  0  0  0  0  0  0  0  0  0
  141.0330   79.3410  221.6610 C   0  0  0  0  0  0  0  0  0  0  0  0
  141.0180   79.9510  220.4210 C   0  0  0  0  0  0  0  0  0  0  0  0
  141.4130   81.2850  220.3260 C   0  0  0  0  0  0  0  0  0  0  0  0
  141.8150   81.9900  221.4570 C   0  0  0  0  0  0  0  0  0  0  0  0
  141.8320   81.3850  222.7020 C   0  0  0  0  0  0  0  0  0  0  0  0
  141.4350   80.0660  222.7580 C   0  0  0  0  0  0  0  0  0  0  0  0
  141.4320   76.9400  221.3500 C   0  0  0  0  0  0  0  0  0  0  0  0
  141.0640   75.6330  221.5310 C   0  0  0  0  0  0  0  0  0  0  0  0
  141.5247   72.7160  220.1203 H   0  0  0  0  0  0  0  0  0  0  0  0
  142.4395   72.6867  221.6866 H   0  0  0  0  0  0  0  0  0  0  0  0
  139.6067   71.1248  220.0048 H   0  0  0  0  0  0  0  0  0  0  0  0
  138.9207   68.7779  220.3054 H   0  0  0  0  0  0  0  0  0  0  0  0
  138.8777   67.8173  222.6015 H   0  0  0  0  0  0  0  0  0  0  0  0
  138.6628   68.9675  227.6773 H   0  0  0  0  0  0  0  0  0  0  0  0
  140.2193   68.1356  227.3532 H   0  0  0  0  0  0  0  0  0  0  0  0
  139.6667   70.5094  228.9983 H   0  0  0  0  0  0  0  0  0  0  0  0
  141.0953   69.4901  228.9974 H   0  0  0  0  0  0  0  0  0  0  0  0
  141.1726   72.0086  227.9436 H   0  0  0  0  0  0  0  0  0  0  0  0
  142.1111   70.7661  227.1699 H   0  0  0  0  0  0  0  0  0  0  0  0
  139.2256   71.6972  226.5165 H   0  0  0  0  0  0  0  0  0  0  0  0
  140.5498   71.5645  225.3748 H   0  0  0  0  0  0  0  0  0  0  0  0
  140.1939   71.5727  224.2146 H   0  0  0  0  0  0  0  0  0  0  0  0
  138.2004   75.9914  223.2477 H   0  0  0  0  0  0  0  0  0  0  0  0
  138.8373   78.3777  222.9413 H   0  0  0  0  0  0  0  0  0  0  0  0
  140.7007   79.3951  219.5264 H   0  0  0  0  0  0  0  0  0  0  0  0
  141.4068   81.7857  219.3466 H   0  0  0  0  0  0  0  0  0  0  0  0
  142.1232   83.0415  221.3602 H   0  0  0  0  0  0  0  0  0  0  0  0
  142.1472   81.9307  223.6036 H   0  0  0  0  0  0  0  0  0  0  0  0
  141.4401   79.5645  223.7370 H   0  0  0  0  0  0  0  0  0  0  0  0
  142.3557   77.1858  220.8055 H   0  0  0  0  0  0  0  0  0  0  0  0
  1  2  2  0
  2  3  1  0
  3  4  1  0
  4  5  1  0
  5  6  2  0
  6  7  1  0
  7  8  2  0
  8  9  1  0
  9 10  1  0
 10 11  2  0
 10 12  1  0
 12 13  1  0
 13 14  1  0
 14 15  1  0
 15 16  1  0
  9 17  2  0
  4 18  2  0
 18 19  1  0
 19 20  2  0
 20 21  1  0
 21 22  2  0
 22 23  1  0
 23 24  2  0
 24 25  1  0
 25 26  2  0
 26 27  1  0
 27 28  2  0
 22 29  1  0
 29 30  2  0
 30  2  1  0
 17  5  1  0
 30 19  1  0
 16 12  1  0
 28 23  1  0
  3 31  1  0
  3 32  1  0
  6 33  1  0
  7 34  1  0
  8 35  1  0
 13 36  1  0
 13 37  1  0
 14 38  1  0
 14 39  1  0
 15 40  1  0
 15 41  1  0
 16 42  1  0
 16 43  1  0
 17 44  1  0
 20 45  1  0
 21 46  1  0
 24 47  1  0
 25 48  1  0
 26 49  1  0
 27 50  1  0
 28 51  1  0
 29 52  1  0
M  END
>  <smiles>  (30) 
O=C1CC(c2cccc(C(=O)N3CCCC3)c2)=Nc2ccc(-c3ccccc3)cc21

>  <score_type>  (30) 
oracle

>  <origin>  (30) 
autodockgpu

>  <m_score__min__energy>  (30) 
-9.2899999999999991

>  <m_primary>  (30) 
energy

>  <rmsd>  (30) 
6.815854192235926

>  <m_score__min__rmsd>  (30) 
6.815854192235926

>  <meeko>  (30) 
{"free_energy": -9.27, "intermolecular_energy": -10.17, "internal_energy": -0.86, "cluster_size": 50, "cluster_id": 1, "rank_in_cluster": 14}

>  <energy>  (30) 
-9.19

>  <cluster_rmsd>  (30) 
0.1

>  <cluster>  (30) 
1

$$$$

     RDKit          3D

 52 56  0  0  0  0  0  0  0  0999 V2000
  142.9590   74.9100  220.4850 O   0  0  0  0  0  0  0  0  0  0  0  0
  141.8810   74.6010  221.0730 C   0  0  0  0  0  0  0  0  0  0  0  0
  141.5670   73.1720  221.2010 C   0  0  0  0  0  0  0  0  0  0  0  0
  140.2810   72.9500  221.9090 C   0  0  0  0  0  0  0  0  0  0  0  0
  139.8580   71.5500  222.1000 C   0  0  0  0  0  0  0  0  0  0  0  0
  139.4500   70.7580  221.0480 C   0  0  0  0  0  0  0  0  0  0  0  0
  139.0490   69.4470  221.1920 C   0  0  0  0  0  0  0  0  0  0  0  0
  139.0590   68.8990  222.4570 C   0  0  0  0  0  0  0  0  0  0  0  0
  139.4610   69.6540  223.5420 C   0  0  0  0  0  0  0  0  0  0  0  0
  139.4430   68.9980  224.8430 C   0  0  0  0  0  0  0  0  0  0  0  0
  139.1810   67.7630  224.9300 O   0  0  0  0  0  0  0  0  0  0  0  0
  139.7080   69.6740  226.0600 N   0  0  0  0  0  0  0  0  0  0  0  0
  139.7010   69.0650  227.3660 C   0  0  0  0  0  0  0  0  0  0  0  0
  140.3750   69.9770  228.3380 C   0  0  0  0  0  0  0  0  0  0  0  0
  141.0230   71.0200  227.4580 C   0  0  0  0  0  0  0  0  0  0  0  0
  140.0370   71.0760  226.2920 C   0  0  0  0  0  0  0  0  0  0  0  0
  139.8570   70.9680  223.3640 C   0  0  0  0  0  0  0  0  0  0  0  0
  139.5430   73.9000  222.3490 N   0  0  0  0  0  0  0  0  0  0  0  0
  139.8530   75.2810  222.2210 C   0  0  0  0  0  0  0  0  0  0  0  0
  139.0460   76.2830  222.7010 C   0  0  0  0  0  0  0  0  0  0  0  0
  139.4220   77.6220  222.5350 C   0  0  0  0  0  0  0  0  0  0  0  0
  140.5940   77.9690  221.8950 C   0  0  0  0  0  0  0  0  0  0  0  0
  141.0070   79.3620  221.7100 C   0  0  0  0  0  0  0  0  0  0  0  0
  141.0080   79.9780  220.4720 C   0  0  0  0  0  0  0  0  0  0  0  0
  141.4160   81.3080  220.3870 C   0  0  0  0  0  0  0  0  0  0  0  0
  141.8160   82.0050  221.5250 C   0  0  0  0  0  0  0  0  0  0  0  0
  141.8170   81.3930  222.7670 C   0  0  0  0  0  0  0  0  0  0  0  0
  141.4070   80.0780  222.8130 C   0  0  0  0  0  0  0  0  0  0  0  0
  141.3990   76.9580  221.4150 C   0  0  0  0  0  0  0  0  0  0  0  0
  141.0170   75.6540  221.5860 C   0  0  0  0  0  0  0  0  0  0  0  0
  141.5004   72.7309  220.1955 H   0  0  0  0  0  0  0  0  0  0  0  0
  142.3667   72.6981  221.7892 H   0  0  0  0  0  0  0  0  0  0  0  0
  139.4441   71.1959  220.0390 H   0  0  0  0  0  0  0  0  0  0  0  0
  138.7299   68.8546  220.3218 H   0  0  0  0  0  0  0  0  0  0  0  0
  138.7452   67.8549  222.6033 H   0  0  0  0  0  0  0  0  0  0  0  0
  138.6628   68.8904  227.6847 H   0  0  0  0  0  0  0  0  0  0  0  0
  140.2365   68.1049  227.3284 H   0  0  0  0  0  0  0  0  0  0  0  0
  139.6424   70.4370  229.0175 H   0  0  0  0  0  0  0  0  0  0  0  0
  141.0967   69.4549  228.9834 H   0  0  0  0  0  0  0  0  0  0  0  0
  141.0973   71.9905  227.9704 H   0  0  0  0  0  0  0  0  0  0  0  0
  142.0569   70.7853  227.1649 H   0  0  0  0  0  0  0  0  0  0  0  0
  139.1394   71.6514  226.5628 H   0  0  0  0  0  0  0  0  0  0  0  0
  140.4516   71.5727  225.4024 H   0  0  0  0  0  0  0  0  0  0  0  0
  140.1755   71.5609  224.2341 H   0  0  0  0  0  0  0  0  0  0  0  0
  138.1058   76.0345  223.2151 H   0  0  0  0  0  0  0  0  0  0  0  0
  138.7674   78.4157  222.9241 H   0  0  0  0  0  0  0  0  0  0  0  0
  140.6930   79.4293  219.5722 H   0  0  0  0  0  0  0  0  0  0  0  0
  141.4223   81.8133  219.4099 H   0  0  0  0  0  0  0  0  0  0  0  0
  142.1348   83.0540  221.4358 H   0  0  0  0  0  0  0  0  0  0  0  0
  142.1302   81.9308  223.6740 H   0  0  0  0  0  0  0  0  0  0  0  0
  141.3994   79.5718  223.7896 H   0  0  0  0  0  0  0  0  0  0  0  0
  142.3406   77.1968  220.8988 H   0  0  0  0  0  0  0  0  0  0  0  0
  1  2  2  0
  2  3  1  0
  3  4  1  0
  4  5  1  0
  5  6  2  0
  6  7  1  0
  7  8  2  0
  8  9  1  0
  9 10  1  0
 10 11  2  0
 10 12  1  0
 12 13  1  0
 13 14  1  0
 14 15  1  0
 15 16  1  0
  9 17  2  0
  4 18  2  0
 18 19  1  0
 19 20  2  0
 20 21  1  0
 21 22  2  0
 22 23  1  0
 23 24  2  0
 24 25  1  0
 25 26  2  0
 26 27  1  0
 27 28  2  0
 22 29  1  0
 29 30  2  0
 30  2  1  0
 17  5  1  0
 30 19  1  0
 16 12  1  0
 28 23  1  0
  3 31  1  0
  3 32  1  0
  6 33  1  0
  7 34  1  0
  8 35  1  0
 13 36  1  0
 13 37  1  0
 14 38  1  0
 14 39  1  0
 15 40  1  0
 15 41  1  0
 16 42  1  0
 16 43  1  0
 17 44  1  0
 20 45  1  0
 21 46  1  0
 24 47  1  0
 25 48  1  0
 26 49  1  0
 27 50  1  0
 28 51  1  0
 29 52  1  0
M  END
>  <smiles>  (31) 
O=C1CC(c2cccc(C(=O)N3CCCC3)c2)=Nc2ccc(-c3ccccc3)cc21

>  <score_type>  (31) 
oracle

>  <origin>  (31) 
autodockgpu

>  <m_score__min__energy>  (31) 
-9.2899999999999991

>  <m_primary>  (31) 
energy

>  <rmsd>  (31) 
6.802459271883414

>  <m_score__min__rmsd>  (31) 
6.802459271883414

>  <meeko>  (31) 
{"free_energy": -9.27, "intermolecular_energy": -10.17, "internal_energy": -0.87, "cluster_size": 50, "cluster_id": 1, "rank_in_cluster": 15}

>  <energy>  (31) 
-9.19

>  <cluster_rmsd>  (31) 
0.24

>  <cluster>  (31) 
1

$$$$

     RDKit          3D

 52 56  0  0  0  0  0  0  0  0999 V2000
  142.9600   74.9240  220.4000 O   0  0  0  0  0  0  0  0  0  0  0  0
  141.9010   74.6020  221.0140 C   0  0  0  0  0  0  0  0  0  0  0  0
  141.6040   73.1690  221.1410 C   0  0  0  0  0  0  0  0  0  0  0  0
  140.3380   72.9310  221.8790 C   0  0  0  0  0  0  0  0  0  0  0  0
  139.9330   71.5250  222.0730 C   0  0  0  0  0  0  0  0  0  0  0  0
  139.5690   70.7160  221.0180 C   0  0  0  0  0  0  0  0  0  0  0  0
  139.1860   69.4000  221.1650 C   0  0  0  0  0  0  0  0  0  0  0  0
  139.1690   68.8660  222.4350 C   0  0  0  0  0  0  0  0  0  0  0  0
  139.5260   69.6370  223.5230 C   0  0  0  0  0  0  0  0  0  0  0  0
  139.4810   68.9950  224.8300 C   0  0  0  0  0  0  0  0  0  0  0  0
  139.1960   67.7650  224.9250 O   0  0  0  0  0  0  0  0  0  0  0  0
  139.7460   69.6770  226.0440 N   0  0  0  0  0  0  0  0  0  0  0  0
  139.7130   69.0800  227.3550 C   0  0  0  0  0  0  0  0  0  0  0  0
  140.3930   69.9890  228.3260 C   0  0  0  0  0  0  0  0  0  0  0  0
  141.0700   71.0120  227.4430 C   0  0  0  0  0  0  0  0  0  0  0  0
  140.0980   71.0750  226.2660 C   0  0  0  0  0  0  0  0  0  0  0  0
  139.9050   70.9560  223.3420 C   0  0  0  0  0  0  0  0  0  0  0  0
  139.6020   73.8710  222.3440 N   0  0  0  0  0  0  0  0  0  0  0  0
  139.8960   75.2560  222.2160 C   0  0  0  0  0  0  0  0  0  0  0  0
  139.0910   76.2470  222.7220 C   0  0  0  0  0  0  0  0  0  0  0  0
  139.4500   77.5910  222.5540 C   0  0  0  0  0  0  0  0  0  0  0  0
  140.6030   77.9530  221.8870 C   0  0  0  0  0  0  0  0  0  0  0  0
  140.9970   79.3500  221.7000 C   0  0  0  0  0  0  0  0  0  0  0  0
  140.9910   79.9640  220.4610 C   0  0  0  0  0  0  0  0  0  0  0  0
  141.3820   81.3000  220.3740 C   0  0  0  0  0  0  0  0  0  0  0  0
  141.7720   82.0030  221.5110 C   0  0  0  0  0  0  0  0  0  0  0  0
  141.7810   81.3940  222.7540 C   0  0  0  0  0  0  0  0  0  0  0  0
  141.3880   80.0740  222.8020 C   0  0  0  0  0  0  0  0  0  0  0  0
  141.4050   76.9520  221.3820 C   0  0  0  0  0  0  0  0  0  0  0  0
  141.0400   75.6430  221.5550 C   0  0  0  0  0  0  0  0  0  0  0  0
  141.5168   72.7330  220.1349 H   0  0  0  0  0  0  0  0  0  0  0  0
  142.4224   72.6993  221.7063 H   0  0  0  0  0  0  0  0  0  0  0  0
  139.5850   71.1434  220.0046 H   0  0  0  0  0  0  0  0  0  0  0  0
  138.9019   68.7931  220.2927 H   0  0  0  0  0  0  0  0  0  0  0  0
  138.8689   67.8181  222.5830 H   0  0  0  0  0  0  0  0  0  0  0  0
  138.6682   68.9274  227.6635 H   0  0  0  0  0  0  0  0  0  0  0  0
  140.2307   68.1097  227.3323 H   0  0  0  0  0  0  0  0  0  0  0  0
  139.6616   70.4688  228.9930 H   0  0  0  0  0  0  0  0  0  0  0  0
  141.0978   69.4600  228.9843 H   0  0  0  0  0  0  0  0  0  0  0  0
  141.1567   71.9858  227.9471 H   0  0  0  0  0  0  0  0  0  0  0  0
  142.1025   70.7555  227.1635 H   0  0  0  0  0  0  0  0  0  0  0  0
  139.2083   71.6693  226.5215 H   0  0  0  0  0  0  0  0  0  0  0  0
  140.5310   71.5556  225.3763 H   0  0  0  0  0  0  0  0  0  0  0  0
  140.1882   71.5631  224.2145 H   0  0  0  0  0  0  0  0  0  0  0  0
  138.1665   75.9863  223.2580 H   0  0  0  0  0  0  0  0  0  0  0  0
  138.7975   78.3763  222.9634 H   0  0  0  0  0  0  0  0  0  0  0  0
  140.6839   79.4097  219.5618 H   0  0  0  0  0  0  0  0  0  0  0  0
  141.3823   81.8040  219.3962 H   0  0  0  0  0  0  0  0  0  0  0  0
  142.0769   83.0560  221.4202 H   0  0  0  0  0  0  0  0  0  0  0  0
  142.0872   81.9376  223.6600 H   0  0  0  0  0  0  0  0  0  0  0  0
  141.3870   79.5696  223.7795 H   0  0  0  0  0  0  0  0  0  0  0  0
  142.3312   77.2025  220.8441 H   0  0  0  0  0  0  0  0  0  0  0  0
  1  2  2  0
  2  3  1  0
  3  4  1  0
  4  5  1  0
  5  6  2  0
  6  7  1  0
  7  8  2  0
  8  9  1  0
  9 10  1  0
 10 11  2  0
 10 12  1  0
 12 13  1  0
 13 14  1  0
 14 15  1  0
 15 16  1  0
  9 17  2  0
  4 18  2  0
 18 19  1  0
 19 20  2  0
 20 21  1  0
 21 22  2  0
 22 23  1  0
 23 24  2  0
 24 25  1  0
 25 26  2  0
 26 27  1  0
 27 28  2  0
 22 29  1  0
 29 30  2  0
 30  2  1  0
 17  5  1  0
 30 19  1  0
 16 12  1  0
 28 23  1  0
  3 31  1  0
  3 32  1  0
  6 33  1  0
  7 34  1  0
  8 35  1  0
 13 36  1  0
 13 37  1  0
 14 38  1  0
 14 39  1  0
 15 40  1  0
 15 41  1  0
 16 42  1  0
 16 43  1  0
 17 44  1  0
 20 45  1  0
 21 46  1  0
 24 47  1  0
 25 48  1  0
 26 49  1  0
 27 50  1  0
 28 51  1  0
 29 52  1  0
M  END
>  <smiles>  (32) 
O=C1CC(c2cccc(C(=O)N3CCCC3)c2)=Nc2ccc(-c3ccccc3)cc21

>  <score_type>  (32) 
oracle

>  <origin>  (32) 
autodockgpu

>  <m_score__min__energy>  (32) 
-9.2899999999999991

>  <m_primary>  (32) 
energy

>  <rmsd>  (32) 
6.812176599718556

>  <m_score__min__rmsd>  (32) 
6.812176599718556

>  <meeko>  (32) 
{"free_energy": -9.28, "intermolecular_energy": -10.17, "internal_energy": -0.86, "cluster_size": 50, "cluster_id": 1, "rank_in_cluster": 6}

>  <energy>  (32) 
-9.18

>  <cluster_rmsd>  (32) 
0.12

>  <cluster>  (32) 
1

$$$$

     RDKit          3D

 52 56  0  0  0  0  0  0  0  0999 V2000
  142.9750   74.9040  220.4080 O   0  0  0  0  0  0  0  0  0  0  0  0
  141.9110   74.5890  221.0160 C   0  0  0  0  0  0  0  0  0  0  0  0
  141.6030   73.1590  221.1430 C   0  0  0  0  0  0  0  0  0  0  0  0
  140.3320   72.9300  221.8770 C   0  0  0  0  0  0  0  0  0  0  0  0
  139.9180   71.5270  222.0690 C   0  0  0  0  0  0  0  0  0  0  0  0
  139.5340   70.7250  221.0150 C   0  0  0  0  0  0  0  0  0  0  0  0
  139.1410   69.4120  221.1600 C   0  0  0  0  0  0  0  0  0  0  0  0
  139.1330   68.8730  222.4280 C   0  0  0  0  0  0  0  0  0  0  0  0
  139.5090   69.6370  223.5150 C   0  0  0  0  0  0  0  0  0  0  0  0
  139.4720   68.9900  224.8200 C   0  0  0  0  0  0  0  0  0  0  0  0
  139.1880   67.7600  224.9130 O   0  0  0  0  0  0  0  0  0  0  0  0
  139.7440   69.6670  226.0350 N   0  0  0  0  0  0  0  0  0  0  0  0
  139.7200   69.0660  227.3450 C   0  0  0  0  0  0  0  0  0  0  0  0
  140.4060   69.9710  228.3150 C   0  0  0  0  0  0  0  0  0  0  0  0
  141.0770   70.9970  227.4310 C   0  0  0  0  0  0  0  0  0  0  0  0
  140.0980   71.0640  226.2610 C   0  0  0  0  0  0  0  0  0  0  0  0
  139.8980   70.9530  223.3360 C   0  0  0  0  0  0  0  0  0  0  0  0
  139.6020   73.8750  222.3380 N   0  0  0  0  0  0  0  0  0  0  0  0
  139.9050   75.2580  222.2100 C   0  0  0  0  0  0  0  0  0  0  0  0
  139.1060   76.2550  222.7130 C   0  0  0  0  0  0  0  0  0  0  0  0
  139.4750   77.5960  222.5460 C   0  0  0  0  0  0  0  0  0  0  0  0
  140.6330   77.9490  221.8830 C   0  0  0  0  0  0  0  0  0  0  0  0
  141.0370   79.3440  221.6970 C   0  0  0  0  0  0  0  0  0  0  0  0
  141.4470   80.1450  222.7470 C   0  0  0  0  0  0  0  0  0  0  0  0
  141.8150   81.4630  222.4790 C   0  0  0  0  0  0  0  0  0  0  0  0
  141.7720   81.9650  221.1810 C   0  0  0  0  0  0  0  0  0  0  0  0
  141.3630   81.1680  220.1250 C   0  0  0  0  0  0  0  0  0  0  0  0
  141.0070   79.8710  220.4270 C   0  0  0  0  0  0  0  0  0  0  0  0
  141.4300   76.9430  221.3820 C   0  0  0  0  0  0  0  0  0  0  0  0
  141.0550   75.6370  221.5540 C   0  0  0  0  0  0  0  0  0  0  0  0
  141.5163   72.7230  220.1368 H   0  0  0  0  0  0  0  0  0  0  0  0
  142.4159   72.6840  221.7118 H   0  0  0  0  0  0  0  0  0  0  0  0
  139.5418   71.1568  220.0033 H   0  0  0  0  0  0  0  0  0  0  0  0
  138.8422   68.8114  220.2882 H   0  0  0  0  0  0  0  0  0  0  0  0
  138.8251   67.8273  222.5753 H   0  0  0  0  0  0  0  0  0  0  0  0
  138.6773   68.9123  227.6599 H   0  0  0  0  0  0  0  0  0  0  0  0
  140.2383   68.0962  227.3154 H   0  0  0  0  0  0  0  0  0  0  0  0
  139.6789   70.4483  228.9885 H   0  0  0  0  0  0  0  0  0  0  0  0
  141.1149   69.4398  228.9671 H   0  0  0  0  0  0  0  0  0  0  0  0
  141.1669   71.9691  227.9379 H   0  0  0  0  0  0  0  0  0  0  0  0
  142.1077   70.7415  227.1439 H   0  0  0  0  0  0  0  0  0  0  0  0
  139.2100   71.6573  226.5245 H   0  0  0  0  0  0  0  0  0  0  0  0
  140.5259   71.5477  225.3706 H   0  0  0  0  0  0  0  0  0  0  0  0
  140.1956   71.5537  224.2081 H   0  0  0  0  0  0  0  0  0  0  0  0
  138.1779   76.0012  223.2461 H   0  0  0  0  0  0  0  0  0  0  0  0
  138.8268   78.3862  222.9528 H   0  0  0  0  0  0  0  0  0  0  0  0
  141.4822   79.7503  223.7732 H   0  0  0  0  0  0  0  0  0  0  0  0
  142.1432   82.1139  223.3028 H   0  0  0  0  0  0  0  0  0  0  0  0
  142.0666   83.0078  220.9920 H   0  0  0  0  0  0  0  0  0  0  0  0
  141.3241   81.5515  219.0947 H   0  0  0  0  0  0  0  0  0  0  0  0
  140.6796   79.2191  219.6037 H   0  0  0  0  0  0  0  0  0  0  0  0
  142.3603   77.1868  220.8480 H   0  0  0  0  0  0  0  0  0  0  0  0
  1  2  2  0
  2  3  1  0
  3  4  1  0
  4  5  1  0
  5  6  2  0
  6  7  1  0
  7  8  2  0
  8  9  1  0
  9 10  1  0
 10 11  2  0
 10 12  1  0
 12 13  1  0
 13 14  1  0
 14 15  1  0
 15 16  1  0
  9 17  2  0
  4 18  2  0
 18 19  1  0
 19 20  2  0
 20 21  1  0
 21 22  2  0
 22 23  1  0
 23 24  2  0
 24 25  1  0
 25 26  2  0
 26 27  1  0
 27 28  2  0
 22 29  1  0
 29 30  2  0
 30  2  1  0
 17  5  1  0
 30 19  1  0
 16 12  1  0
 28 23  1  0
  3 31  1  0
  3 32  1  0
  6 33  1  0
  7 34  1  0
  8 35  1  0
 13 36  1  0
 13 37  1  0
 14 38  1  0
 14 39  1  0
 15 40  1  0
 15 41  1  0
 16 42  1  0
 16 43  1  0
 17 44  1  0
 20 45  1  0
 21 46  1  0
 24 47  1  0
 25 48  1  0
 26 49  1  0
 27 50  1  0
 28 51  1  0
 29 52  1  0
M  END
>  <smiles>  (33) 
O=C1CC(c2cccc(C(=O)N3CCCC3)c2)=Nc2ccc(-c3ccccc3)cc21

>  <score_type>  (33) 
oracle

>  <origin>  (33) 
autodockgpu

>  <m_score__min__energy>  (33) 
-9.2899999999999991

>  <m_primary>  (33) 
energy

>  <rmsd>  (33) 
6.809501731581559

>  <m_score__min__rmsd>  (33) 
6.809501731581559

>  <meeko>  (33) 
{"free_energy": -9.19, "intermolecular_energy": -10.09, "internal_energy": -0.86, "cluster_size": 50, "cluster_id": 1, "rank_in_cluster": 30}

>  <energy>  (33) 
-9.18

>  <cluster_rmsd>  (33) 
0.1

>  <cluster>  (33) 
1

$$$$

     RDKit          3D

 52 56  0  0  0  0  0  0  0  0999 V2000
  142.9640   74.9160  220.2750 O   0  0  0  0  0  0  0  0  0  0  0  0
  141.9200   74.5970  220.9150 C   0  0  0  0  0  0  0  0  0  0  0  0
  141.6220   73.1650  221.0490 C   0  0  0  0  0  0  0  0  0  0  0  0
  140.3750   72.9300  221.8200 C   0  0  0  0  0  0  0  0  0  0  0  0
  139.9710   71.5250  222.0220 C   0  0  0  0  0  0  0  0  0  0  0  0
  139.6220   70.7050  220.9710 C   0  0  0  0  0  0  0  0  0  0  0  0
  139.2400   69.3900  221.1250 C   0  0  0  0  0  0  0  0  0  0  0  0
  139.2070   68.8680  222.4000 C   0  0  0  0  0  0  0  0  0  0  0  0
  139.5470   69.6510  223.4850 C   0  0  0  0  0  0  0  0  0  0  0  0
  139.4850   69.0220  224.7980 C   0  0  0  0  0  0  0  0  0  0  0  0
  139.1800   67.7980  224.9030 O   0  0  0  0  0  0  0  0  0  0  0  0
  139.7550   69.7110  226.0070 N   0  0  0  0  0  0  0  0  0  0  0  0
  139.7060   69.1280  227.3230 C   0  0  0  0  0  0  0  0  0  0  0  0
  140.3960   70.0340  228.2890 C   0  0  0  0  0  0  0  0  0  0  0  0
  141.0940   71.0370  227.4000 C   0  0  0  0  0  0  0  0  0  0  0  0
  140.1290   71.1050  226.2180 C   0  0  0  0  0  0  0  0  0  0  0  0
  139.9260   70.9690  223.2970 C   0  0  0  0  0  0  0  0  0  0  0  0
  139.6550   73.8720  222.3050 N   0  0  0  0  0  0  0  0  0  0  0  0
  139.9500   75.2560  222.1710 C   0  0  0  0  0  0  0  0  0  0  0  0
  139.1630   76.2490  222.6990 C   0  0  0  0  0  0  0  0  0  0  0  0
  139.5220   77.5920  222.5240 C   0  0  0  0  0  0  0  0  0  0  0  0
  140.6580   77.9510  221.8270 C   0  0  0  0  0  0  0  0  0  0  0  0
  141.0520   79.3470  221.6320 C   0  0  0  0  0  0  0  0  0  0  0  0
  141.4740   80.1520  222.6730 C   0  0  0  0  0  0  0  0  0  0  0  0
  141.8310   81.4720  222.3970 C   0  0  0  0  0  0  0  0  0  0  0  0
  141.7640   81.9700  221.0980 C   0  0  0  0  0  0  0  0  0  0  0  0
  141.3420   81.1690  220.0510 C   0  0  0  0  0  0  0  0  0  0  0  0
  140.9970   79.8710  220.3610 C   0  0  0  0  0  0  0  0  0  0  0  0
  141.4430   76.9480  221.3000 C   0  0  0  0  0  0  0  0  0  0  0  0
  141.0770   75.6400  221.4800 C   0  0  0  0  0  0  0  0  0  0  0  0
  141.5071   72.7300  220.0452 H   0  0  0  0  0  0  0  0  0  0  0  0
  142.4536   72.6926  221.5924 H   0  0  0  0  0  0  0  0  0  0  0  0
  139.6498   71.1228  219.9538 H   0  0  0  0  0  0  0  0  0  0  0  0
  138.9690   68.7742  220.2547 H   0  0  0  0  0  0  0  0  0  0  0  0
  138.9078   67.8207  222.5542 H   0  0  0  0  0  0  0  0  0  0  0  0
  138.6573   68.9958  227.6277 H   0  0  0  0  0  0  0  0  0  0  0  0
  140.2081   68.1493  227.3119 H   0  0  0  0  0  0  0  0  0  0  0  0
  139.6694   70.5320  228.9479 H   0  0  0  0  0  0  0  0  0  0  0  0
  141.0885   69.4996  228.9559 H   0  0  0  0  0  0  0  0  0  0  0  0
  141.1945   72.0140  227.8954 H   0  0  0  0  0  0  0  0  0  0  0  0
  142.1234   70.7608  227.1280 H   0  0  0  0  0  0  0  0  0  0  0  0
  139.2480   71.7161  226.4637 H   0  0  0  0  0  0  0  0  0  0  0  0
  140.5742   71.5702  225.3261 H   0  0  0  0  0  0  0  0  0  0  0  0
  140.1953   71.5854  224.1674 H   0  0  0  0  0  0  0  0  0  0  0  0
  138.2519   75.9908  223.2586 H   0  0  0  0  0  0  0  0  0  0  0  0
  138.8835   78.3788  222.9522 H   0  0  0  0  0  0  0  0  0  0  0  0
  141.5274   79.7596  223.6992 H   0  0  0  0  0  0  0  0  0  0  0  0
  142.1690   82.1265  223.2140 H   0  0  0  0  0  0  0  0  0  0  0  0
  142.0503   83.0138  220.9015 H   0  0  0  0  0  0  0  0  0  0  0  0
  141.2847   81.5501  219.0207 H   0  0  0  0  0  0  0  0  0  0  0  0
  140.6580   79.2160  219.5448 H   0  0  0  0  0  0  0  0  0  0  0  0
  142.3563   77.1958  220.7392 H   0  0  0  0  0  0  0  0  0  0  0  0
  1  2  2  0
  2  3  1  0
  3  4  1  0
  4  5  1  0
  5  6  2  0
  6  7  1  0
  7  8  2  0
  8  9  1  0
  9 10  1  0
 10 11  2  0
 10 12  1  0
 12 13  1  0
 13 14  1  0
 14 15  1  0
 15 16  1  0
  9 17  2  0
  4 18  2  0
 18 19  1  0
 19 20  2  0
 20 21  1  0
 21 22  2  0
 22 23  1  0
 23 24  2  0
 24 25  1  0
 25 26  2  0
 26 27  1  0
 27 28  2  0
 22 29  1  0
 29 30  2  0
 30  2  1  0
 17  5  1  0
 30 19  1  0
 16 12  1  0
 28 23  1  0
  3 31  1  0
  3 32  1  0
  6 33  1  0
  7 34  1  0
  8 35  1  0
 13 36  1  0
 13 37  1  0
 14 38  1  0
 14 39  1  0
 15 40  1  0
 15 41  1  0
 16 42  1  0
 16 43  1  0
 17 44  1  0
 20 45  1  0
 21 46  1  0
 24 47  1  0
 25 48  1  0
 26 49  1  0
 27 50  1  0
 28 51  1  0
 29 52  1  0
M  END
>  <smiles>  (34) 
O=C1CC(c2cccc(C(=O)N3CCCC3)c2)=Nc2ccc(-c3ccccc3)cc21

>  <score_type>  (34) 
oracle

>  <origin>  (34) 
autodockgpu

>  <m_score__min__energy>  (34) 
-9.2899999999999991

>  <m_primary>  (34) 
energy

>  <rmsd>  (34) 
6.82299897493598

>  <m_score__min__rmsd>  (34) 
6.82299897493598

>  <meeko>  (34) 
{"free_energy": -9.15, "intermolecular_energy": -10.04, "internal_energy": -0.86, "cluster_size": 50, "cluster_id": 1, "rank_in_cluster": 40}

>  <energy>  (34) 
-9.18

>  <cluster_rmsd>  (34) 
0.11

>  <cluster>  (34) 
1

$$$$

     RDKit          3D

 52 56  0  0  0  0  0  0  0  0999 V2000
  142.8350   74.8440  220.6050 O   0  0  0  0  0  0  0  0  0  0  0  0
  141.7320   74.5550  221.1530 C   0  0  0  0  0  0  0  0  0  0  0  0
  141.3920   73.1310  221.2760 C   0  0  0  0  0  0  0  0  0  0  0  0
  140.0760   72.9330  221.9350 C   0  0  0  0  0  0  0  0  0  0  0  0
  139.6260   71.5390  222.1170 C   0  0  0  0  0  0  0  0  0  0  0  0
  139.0720   70.8080  221.0880 C   0  0  0  0  0  0  0  0  0  0  0  0
  138.6410   69.5060  221.2240 C   0  0  0  0  0  0  0  0  0  0  0  0
  138.7730   68.9040  222.4560 C   0  0  0  0  0  0  0  0  0  0  0  0
  139.3220   69.5960  223.5170 C   0  0  0  0  0  0  0  0  0  0  0  0
  139.4260   68.8840  224.7850 C   0  0  0  0  0  0  0  0  0  0  0  0
  139.2340   67.6340  224.8310 O   0  0  0  0  0  0  0  0  0  0  0  0
  139.7390   69.5200  226.0130 N   0  0  0  0  0  0  0  0  0  0  0  0
  139.8530   68.8560  227.2860 C   0  0  0  0  0  0  0  0  0  0  0  0
  140.5440   69.7590  228.2530 C   0  0  0  0  0  0  0  0  0  0  0  0
  141.0760   70.8730  227.3820 C   0  0  0  0  0  0  0  0  0  0  0  0
  140.0120   70.9260  226.2880 C   0  0  0  0  0  0  0  0  0  0  0  0
  139.7450   70.9030  223.3480 C   0  0  0  0  0  0  0  0  0  0  0  0
  139.3370   73.8950  222.3430 N   0  0  0  0  0  0  0  0  0  0  0  0
  139.6720   75.2710  222.2200 C   0  0  0  0  0  0  0  0  0  0  0  0
  138.8620   76.2870  222.6640 C   0  0  0  0  0  0  0  0  0  0  0  0
  139.2650   77.6200  222.5060 C   0  0  0  0  0  0  0  0  0  0  0  0
  140.4650   77.9460  221.9090 C   0  0  0  0  0  0  0  0  0  0  0  0
  140.9060   79.3320  221.7330 C   0  0  0  0  0  0  0  0  0  0  0  0
  140.9340   79.9510  220.4970 C   0  0  0  0  0  0  0  0  0  0  0  0
  141.3680   81.2730  220.4210 C   0  0  0  0  0  0  0  0  0  0  0  0
  141.7650   81.9590  221.5660 C   0  0  0  0  0  0  0  0  0  0  0  0
  141.7390   81.3450  222.8070 C   0  0  0  0  0  0  0  0  0  0  0  0
  141.3050   80.0380  222.8440 C   0  0  0  0  0  0  0  0  0  0  0  0
  141.2730   76.9210  221.4650 C   0  0  0  0  0  0  0  0  0  0  0  0
  140.8650   75.6230  221.6280 C   0  0  0  0  0  0  0  0  0  0  0  0
  141.3576   72.6851  220.2710 H   0  0  0  0  0  0  0  0  0  0  0  0
  142.1612   72.6483  221.8967 H   0  0  0  0  0  0  0  0  0  0  0  0
  138.9683   71.2901  220.1047 H   0  0  0  0  0  0  0  0  0  0  0  0
  138.2041   68.9630  220.3730 H   0  0  0  0  0  0  0  0  0  0  0  0
  138.4388   67.8653  222.5953 H   0  0  0  0  0  0  0  0  0  0  0  0
  138.8494   68.6116  227.6642 H   0  0  0  0  0  0  0  0  0  0  0  0
  140.4336   67.9292  227.1676 H   0  0  0  0  0  0  0  0  0  0  0  0
  139.8372   70.1485  229.0005 H   0  0  0  0  0  0  0  0  0  0  0  0
  141.3338   69.2491  228.8242 H   0  0  0  0  0  0  0  0  0  0  0  0
  141.1352   71.8229  227.9335 H   0  0  0  0  0  0  0  0  0  0  0  0
  142.0982   70.7077  227.0108 H   0  0  0  0  0  0  0  0  0  0  0  0
  139.1071   71.4403  226.6437 H   0  0  0  0  0  0  0  0  0  0  0  0
  140.3396   71.4819  225.3971 H   0  0  0  0  0  0  0  0  0  0  0  0
  140.1813   71.4462  224.1992 H   0  0  0  0  0  0  0  0  0  0  0  0
  137.8991   76.0552  223.1426 H   0  0  0  0  0  0  0  0  0  0  0  0
  138.6086   78.4256  222.8667 H   0  0  0  0  0  0  0  0  0  0  0  0
  140.6200   79.4107  219.5917 H   0  0  0  0  0  0  0  0  0  0  0  0
  141.3973   81.7805  219.4455 H   0  0  0  0  0  0  0  0  0  0  0  0
  142.1037   83.0023  221.4836 H   0  0  0  0  0  0  0  0  0  0  0  0
  142.0499   81.8753  223.7192 H   0  0  0  0  0  0  0  0  0  0  0  0
  141.2758   79.5294  223.8189 H   0  0  0  0  0  0  0  0  0  0  0  0
  142.2370   77.1432  220.9840 H   0  0  0  0  0  0  0  0  0  0  0  0
  1  2  2  0
  2  3  1  0
  3  4  1  0
  4  5  1  0
  5  6  2  0
  6  7  1  0
  7  8  2  0
  8  9  1  0
  9 10  1  0
 10 11  2  0
 10 12  1  0
 12 13  1  0
 13 14  1  0
 14 15  1  0
 15 16  1  0
  9 17  2  0
  4 18  2  0
 18 19  1  0
 19 20  2  0
 20 21  1  0
 21 22  2  0
 22 23  1  0
 23 24  2  0
 24 25  1  0
 25 26  2  0
 26 27  1  0
 27 28  2  0
 22 29  1  0
 29 30  2  0
 30  2  1  0
 17  5  1  0
 30 19  1  0
 16 12  1  0
 28 23  1  0
  3 31  1  0
  3 32  1  0
  6 33  1  0
  7 34  1  0
  8 35  1  0
 13 36  1  0
 13 37  1  0
 14 38  1  0
 14 39  1  0
 15 40  1  0
 15 41  1  0
 16 42  1  0
 16 43  1  0
 17 44  1  0
 20 45  1  0
 21 46  1  0
 24 47  1  0
 25 48  1  0
 26 49  1  0
 27 50  1  0
 28 51  1  0
 29 52  1  0
M  END
>  <smiles>  (35) 
O=C1CC(c2cccc(C(=O)N3CCCC3)c2)=Nc2ccc(-c3ccccc3)cc21

>  <score_type>  (35) 
oracle

>  <origin>  (35) 
autodockgpu

>  <m_score__min__energy>  (35) 
-9.2899999999999991

>  <m_primary>  (35) 
energy

>  <rmsd>  (35) 
6.783468186679777

>  <m_score__min__rmsd>  (35) 
6.783468186679777

>  <meeko>  (35) 
{"free_energy": -9.19, "intermolecular_energy": -10.08, "internal_energy": -0.87, "cluster_size": 50, "cluster_id": 1, "rank_in_cluster": 31}

>  <energy>  (35) 
-9.18

>  <cluster_rmsd>  (35) 
0.11

>  <cluster>  (35) 
1

$$$$

     RDKit          3D

 52 56  0  0  0  0  0  0  0  0999 V2000
  142.9320   74.9010  220.5070 O   0  0  0  0  0  0  0  0  0  0  0  0
  141.8510   74.6010  221.0920 C   0  0  0  0  0  0  0  0  0  0  0  0
  141.5260   73.1750  221.2220 C   0  0  0  0  0  0  0  0  0  0  0  0
  140.2360   72.9630  221.9260 C   0  0  0  0  0  0  0  0  0  0  0  0
  139.8030   71.5660  222.1180 C   0  0  0  0  0  0  0  0  0  0  0  0
  139.3420   70.7920  221.0750 C   0  0  0  0  0  0  0  0  0  0  0  0
  138.9300   69.4850  221.2200 C   0  0  0  0  0  0  0  0  0  0  0  0
  138.9830   68.9220  222.4770 C   0  0  0  0  0  0  0  0  0  0  0  0
  139.4380   69.6590  223.5530 C   0  0  0  0  0  0  0  0  0  0  0  0
  139.4620   68.9880  224.8470 C   0  0  0  0  0  0  0  0  0  0  0  0
  139.2190   67.7480  224.9260 O   0  0  0  0  0  0  0  0  0  0  0  0
  139.7500   69.6530  226.0650 N   0  0  0  0  0  0  0  0  0  0  0  0
  139.7860   69.0290  227.3630 C   0  0  0  0  0  0  0  0  0  0  0  0
  140.4730   69.9390  228.3280 C   0  0  0  0  0  0  0  0  0  0  0  0
  141.0840   71.0010  227.4430 C   0  0  0  0  0  0  0  0  0  0  0  0
  140.0660   71.0570  226.3040 C   0  0  0  0  0  0  0  0  0  0  0  0
  139.8430   70.9690  223.3750 C   0  0  0  0  0  0  0  0  0  0  0  0
  139.5040   73.9190  222.3630 N   0  0  0  0  0  0  0  0  0  0  0  0
  139.8240   75.2970  222.2340 C   0  0  0  0  0  0  0  0  0  0  0  0
  139.0230   76.3060  222.7100 C   0  0  0  0  0  0  0  0  0  0  0  0
  139.4090   77.6420  222.5430 C   0  0  0  0  0  0  0  0  0  0  0  0
  140.5860   77.9800  221.9060 C   0  0  0  0  0  0  0  0  0  0  0  0
  141.0090   79.3690  221.7200 C   0  0  0  0  0  0  0  0  0  0  0  0
  141.0320   79.9790  220.4800 C   0  0  0  0  0  0  0  0  0  0  0  0
  141.4490   81.3070  220.3940 C   0  0  0  0  0  0  0  0  0  0  0  0
  141.8370   82.0060  221.5340 C   0  0  0  0  0  0  0  0  0  0  0  0
  141.8160   81.4010  222.7790 C   0  0  0  0  0  0  0  0  0  0  0  0
  141.3980   80.0890  222.8260 C   0  0  0  0  0  0  0  0  0  0  0  0
  141.3850   76.9620  221.4300 C   0  0  0  0  0  0  0  0  0  0  0  0
  140.9930   75.6610  221.6020 C   0  0  0  0  0  0  0  0  0  0  0  0
  141.4597   72.7323  220.2172 H   0  0  0  0  0  0  0  0  0  0  0  0
  142.3202   72.6970  221.8143 H   0  0  0  0  0  0  0  0  0  0  0  0
  139.3007   71.2421  220.0721 H   0  0  0  0  0  0  0  0  0  0  0  0
  138.5688   68.9071  220.3565 H   0  0  0  0  0  0  0  0  0  0  0  0
  138.6613   67.8804  222.6240 H   0  0  0  0  0  0  0  0  0  0  0  0
  138.7591   68.8361  227.7068 H   0  0  0  0  0  0  0  0  0  0  0  0
  140.3335   68.0770  227.2997 H   0  0  0  0  0  0  0  0  0  0  0  0
  139.7524   70.3812  229.0317 H   0  0  0  0  0  0  0  0  0  0  0  0
  141.2181   69.4196  228.9485 H   0  0  0  0  0  0  0  0  0  0  0  0
  141.1594   71.9665  227.9646 H   0  0  0  0  0  0  0  0  0  0  0  0
  142.1127   70.7835  227.1199 H   0  0  0  0  0  0  0  0  0  0  0  0
  139.1684   71.6169  226.6053 H   0  0  0  0  0  0  0  0  0  0  0  0
  140.4495   71.5696  225.4095 H   0  0  0  0  0  0  0  0  0  0  0  0
  140.2019   71.5477  224.2389 H   0  0  0  0  0  0  0  0  0  0  0  0
  138.0795   76.0652  223.2218 H   0  0  0  0  0  0  0  0  0  0  0  0
  138.7587   78.4410  222.9287 H   0  0  0  0  0  0  0  0  0  0  0  0
  140.7272   79.4276  219.5783 H   0  0  0  0  0  0  0  0  0  0  0  0
  141.4716   81.8077  219.4148 H   0  0  0  0  0  0  0  0  0  0  0  0
  142.1644   83.0523  221.4442 H   0  0  0  0  0  0  0  0  0  0  0  0
  142.1187   81.9421  223.6876 H   0  0  0  0  0  0  0  0  0  0  0  0
  141.3739   79.5879  223.8049 H   0  0  0  0  0  0  0  0  0  0  0  0
  142.3298   77.1930  220.9162 H   0  0  0  0  0  0  0  0  0  0  0  0
  1  2  2  0
  2  3  1  0
  3  4  1  0
  4  5  1  0
  5  6  2  0
  6  7  1  0
  7  8  2  0
  8  9  1  0
  9 10  1  0
 10 11  2  0
 10 12  1  0
 12 13  1  0
 13 14  1  0
 14 15  1  0
 15 16  1  0
  9 17  2  0
  4 18  2  0
 18 19  1  0
 19 20  2  0
 20 21  1  0
 21 22  2  0
 22 23  1  0
 23 24  2  0
 24 25  1  0
 25 26  2  0
 26 27  1  0
 27 28  2  0
 22 29  1  0
 29 30  2  0
 30  2  1  0
 17  5  1  0
 30 19  1  0
 16 12  1  0
 28 23  1  0
  3 31  1  0
  3 32  1  0
  6 33  1  0
  7 34  1  0
  8 35  1  0
 13 36  1  0
 13 37  1  0
 14 38  1  0
 14 39  1  0
 15 40  1  0
 15 41  1  0
 16 42  1  0
 16 43  1  0
 17 44  1  0
 20 45  1  0
 21 46  1  0
 24 47  1  0
 25 48  1  0
 26 49  1  0
 27 50  1  0
 28 51  1  0
 29 52  1  0
M  END
>  <smiles>  (36) 
O=C1CC(c2cccc(C(=O)N3CCCC3)c2)=Nc2ccc(-c3ccccc3)cc21

>  <score_type>  (36) 
oracle

>  <origin>  (36) 
autodockgpu

>  <m_score__min__energy>  (36) 
-9.2899999999999991

>  <m_primary>  (36) 
energy

>  <rmsd>  (36) 
6.806522449933056

>  <m_score__min__rmsd>  (36) 
6.806522449933056

>  <meeko>  (36) 
{"free_energy": -9.25, "intermolecular_energy": -10.14, "internal_energy": -0.87, "cluster_size": 50, "cluster_id": 1, "rank_in_cluster": 21}

>  <energy>  (36) 
-9.18

>  <cluster_rmsd>  (36) 
0.14

>  <cluster>  (36) 
1

$$$$

     RDKit          3D

 52 56  0  0  0  0  0  0  0  0999 V2000
  142.9580   74.9350  220.4470 O   0  0  0  0  0  0  0  0  0  0  0  0
  141.8880   74.6170  221.0440 C   0  0  0  0  0  0  0  0  0  0  0  0
  141.5840   73.1850  221.1680 C   0  0  0  0  0  0  0  0  0  0  0  0
  140.3060   72.9520  221.8870 C   0  0  0  0  0  0  0  0  0  0  0  0
  139.8940   71.5480  222.0750 C   0  0  0  0  0  0  0  0  0  0  0  0
  139.5060   70.7510  221.0200 C   0  0  0  0  0  0  0  0  0  0  0  0
  139.1160   69.4370  221.1610 C   0  0  0  0  0  0  0  0  0  0  0  0
  139.1140   68.8920  222.4260 C   0  0  0  0  0  0  0  0  0  0  0  0
  139.4940   69.6510  223.5150 C   0  0  0  0  0  0  0  0  0  0  0  0
  139.4640   68.9980  224.8170 C   0  0  0  0  0  0  0  0  0  0  0  0
  139.1830   67.7670  224.9050 O   0  0  0  0  0  0  0  0  0  0  0  0
  139.7390   69.6710  226.0340 N   0  0  0  0  0  0  0  0  0  0  0  0
  139.7220   69.0640  227.3410 C   0  0  0  0  0  0  0  0  0  0  0  0
  140.4100   69.9660  228.3120 C   0  0  0  0  0  0  0  0  0  0  0  0
  141.0750   70.9980  227.4310 C   0  0  0  0  0  0  0  0  0  0  0  0
  140.0910   71.0680  226.2640 C   0  0  0  0  0  0  0  0  0  0  0  0
  139.8800   70.9680  223.3400 C   0  0  0  0  0  0  0  0  0  0  0  0
  139.5670   73.8950  222.3400 N   0  0  0  0  0  0  0  0  0  0  0  0
  139.8680   75.2790  222.2160 C   0  0  0  0  0  0  0  0  0  0  0  0
  139.0600   76.2730  222.7100 C   0  0  0  0  0  0  0  0  0  0  0  0
  139.4260   77.6160  222.5470 C   0  0  0  0  0  0  0  0  0  0  0  0
  140.5900   77.9730  221.8970 C   0  0  0  0  0  0  0  0  0  0  0  0
  140.9920   79.3690  221.7150 C   0  0  0  0  0  0  0  0  0  0  0  0
  140.9900   79.9880  220.4790 C   0  0  0  0  0  0  0  0  0  0  0  0
  141.3890   81.3210  220.3970 C   0  0  0  0  0  0  0  0  0  0  0  0
  141.7830   82.0180  221.5360 C   0  0  0  0  0  0  0  0  0  0  0  0
  141.7870   81.4040  222.7780 C   0  0  0  0  0  0  0  0  0  0  0  0
  141.3870   80.0860  222.8200 C   0  0  0  0  0  0  0  0  0  0  0  0
  141.3960   76.9690  221.4040 C   0  0  0  0  0  0  0  0  0  0  0  0
  141.0230   75.6620  221.5720 C   0  0  0  0  0  0  0  0  0  0  0  0
  141.5106   72.7483  220.1611 H   0  0  0  0  0  0  0  0  0  0  0  0
  142.3921   72.7131  221.7462 H   0  0  0  0  0  0  0  0  0  0  0  0
  139.5077   71.1875  220.0103 H   0  0  0  0  0  0  0  0  0  0  0  0
  138.8147   68.8399  220.2877 H   0  0  0  0  0  0  0  0  0  0  0  0
  138.8077   67.8453  222.5696 H   0  0  0  0  0  0  0  0  0  0  0  0
  138.6810   68.9064  227.6596 H   0  0  0  0  0  0  0  0  0  0  0  0
  140.2423   68.0955  227.3047 H   0  0  0  0  0  0  0  0  0  0  0  0
  139.6846   70.4382  228.9908 H   0  0  0  0  0  0  0  0  0  0  0  0
  141.1231   69.4331  228.9581 H   0  0  0  0  0  0  0  0  0  0  0  0
  141.1640   71.9678  227.9424 H   0  0  0  0  0  0  0  0  0  0  0  0
  142.1054   70.7468  227.1391 H   0  0  0  0  0  0  0  0  0  0  0  0
  139.2028   71.6585  226.5330 H   0  0  0  0  0  0  0  0  0  0  0  0
  140.5146   71.5562  225.3739 H   0  0  0  0  0  0  0  0  0  0  0  0
  140.1802   71.5654  224.2135 H   0  0  0  0  0  0  0  0  0  0  0  0
  138.1270   76.0158  223.2328 H   0  0  0  0  0  0  0  0  0  0  0  0
  138.7704   78.4038  222.9464 H   0  0  0  0  0  0  0  0  0  0  0  0
  140.6795   79.4392  219.5776 H   0  0  0  0  0  0  0  0  0  0  0  0
  141.3926   81.8282  219.4209 H   0  0  0  0  0  0  0  0  0  0  0  0
  142.0950   83.0692  221.4487 H   0  0  0  0  0  0  0  0  0  0  0  0
  142.0946   81.9425  223.6865 H   0  0  0  0  0  0  0  0  0  0  0  0
  141.3834   79.5772  223.7953 H   0  0  0  0  0  0  0  0  0  0  0  0
  142.3311   77.2157  220.8799 H   0  0  0  0  0  0  0  0  0  0  0  0
  1  2  2  0
  2  3  1  0
  3  4  1  0
  4  5  1  0
  5  6  2  0
  6  7  1  0
  7  8  2  0
  8  9  1  0
  9 10  1  0
 10 11  2  0
 10 12  1  0
 12 13  1  0
 13 14  1  0
 14 15  1  0
 15 16  1  0
  9 17  2  0
  4 18  2  0
 18 19  1  0
 19 20  2  0
 20 21  1  0
 21 22  2  0
 22 23  1  0
 23 24  2  0
 24 25  1  0
 25 26  2  0
 26 27  1  0
 27 28  2  0
 22 29  1  0
 29 30  2  0
 30  2  1  0
 17  5  1  0
 30 19  1  0
 16 12  1  0
 28 23  1  0
  3 31  1  0
  3 32  1  0
  6 33  1  0
  7 34  1  0
  8 35  1  0
 13 36  1  0
 13 37  1  0
 14 38  1  0
 14 39  1  0
 15 40  1  0
 15 41  1  0
 16 42  1  0
 16 43  1  0
 17 44  1  0
 20 45  1  0
 21 46  1  0
 24 47  1  0
 25 48  1  0
 26 49  1  0
 27 50  1  0
 28 51  1  0
 29 52  1  0
M  END
>  <smiles>  (37) 
O=C1CC(c2cccc(C(=O)N3CCCC3)c2)=Nc2ccc(-c3ccccc3)cc21

>  <score_type>  (37) 
oracle

>  <origin>  (37) 
autodockgpu

>  <m_score__min__energy>  (37) 
-9.2899999999999991

>  <m_primary>  (37) 
energy

>  <rmsd>  (37) 
6.808137636135122

>  <m_score__min__rmsd>  (37) 
6.808137636135122

>  <meeko>  (37) 
{"free_energy": -9.29, "intermolecular_energy": -10.18, "internal_energy": -0.86, "cluster_size": 50, "cluster_id": 1, "rank_in_cluster": 2}

>  <energy>  (37) 
-9.17

>  <cluster_rmsd>  (37) 
0.13

>  <cluster>  (37) 
1

$$$$

     RDKit          3D

 52 56  0  0  0  0  0  0  0  0999 V2000
  142.9750   74.9550  220.4800 O   0  0  0  0  0  0  0  0  0  0  0  0
  141.9040   74.6280  221.0700 C   0  0  0  0  0  0  0  0  0  0  0  0
  141.6100   73.1940  221.1910 C   0  0  0  0  0  0  0  0  0  0  0  0
  140.3290   72.9500  221.9020 C   0  0  0  0  0  0  0  0  0  0  0  0
  139.9270   71.5430  222.0860 C   0  0  0  0  0  0  0  0  0  0  0  0
  139.5680   70.7390  221.0250 C   0  0  0  0  0  0  0  0  0  0  0  0
  139.1880   69.4210  221.1630 C   0  0  0  0  0  0  0  0  0  0  0  0
  139.1660   68.8800  222.4300 C   0  0  0  0  0  0  0  0  0  0  0  0
  139.5180   69.6460  223.5240 C   0  0  0  0  0  0  0  0  0  0  0  0
  139.4690   68.9960  224.8270 C   0  0  0  0  0  0  0  0  0  0  0  0
  139.1790   67.7670  224.9150 O   0  0  0  0  0  0  0  0  0  0  0  0
  139.7350   69.6710  226.0450 N   0  0  0  0  0  0  0  0  0  0  0  0
  139.6990   69.0670  227.3530 C   0  0  0  0  0  0  0  0  0  0  0  0
  140.3810   69.9670  228.3300 C   0  0  0  0  0  0  0  0  0  0  0  0
  141.0630   70.9920  227.4540 C   0  0  0  0  0  0  0  0  0  0  0  0
  140.0930   71.0660  226.2760 C   0  0  0  0  0  0  0  0  0  0  0  0
  139.8950   70.9670  223.3520 C   0  0  0  0  0  0  0  0  0  0  0  0
  139.5800   73.8870  222.3500 N   0  0  0  0  0  0  0  0  0  0  0  0
  139.8700   75.2730  222.2290 C   0  0  0  0  0  0  0  0  0  0  0  0
  139.0510   76.2610  222.7180 C   0  0  0  0  0  0  0  0  0  0  0  0
  139.4070   77.6060  222.5590 C   0  0  0  0  0  0  0  0  0  0  0  0
  140.5730   77.9730  221.9160 C   0  0  0  0  0  0  0  0  0  0  0  0
  140.9650   79.3730  221.7380 C   0  0  0  0  0  0  0  0  0  0  0  0
  140.9280   80.0030  220.5090 C   0  0  0  0  0  0  0  0  0  0  0  0
  141.3200   81.3390  220.4300 C   0  0  0  0  0  0  0  0  0  0  0  0
  141.7400   82.0260  221.5660 C   0  0  0  0  0  0  0  0  0  0  0  0
  141.7790   81.4000  222.8000 C   0  0  0  0  0  0  0  0  0  0  0  0
  141.3860   80.0800  222.8400 C   0  0  0  0  0  0  0  0  0  0  0  0
  141.3900   76.9760  221.4280 C   0  0  0  0  0  0  0  0  0  0  0  0
  141.0270   75.6660  221.5930 C   0  0  0  0  0  0  0  0  0  0  0  0
  141.5463   72.7577  220.1833 H   0  0  0  0  0  0  0  0  0  0  0  0
  142.4180   72.7281  221.7741 H   0  0  0  0  0  0  0  0  0  0  0  0
  139.5857   71.1725  220.0142 H   0  0  0  0  0  0  0  0  0  0  0  0
  138.9101   68.8180  220.2860 H   0  0  0  0  0  0  0  0  0  0  0  0
  138.8661   67.8311  222.5711 H   0  0  0  0  0  0  0  0  0  0  0  0
  138.6534   68.9164  227.6597 H   0  0  0  0  0  0  0  0  0  0  0  0
  140.2138   68.0953  227.3249 H   0  0  0  0  0  0  0  0  0  0  0  0
  139.6506   70.4458  228.9988 H   0  0  0  0  0  0  0  0  0  0  0  0
  141.0827   69.4314  228.9863 H   0  0  0  0  0  0  0  0  0  0  0  0
  141.1530   71.9625  227.9639 H   0  0  0  0  0  0  0  0  0  0  0  0
  142.0948   70.7328  227.1743 H   0  0  0  0  0  0  0  0  0  0  0  0
  139.2056   71.6627  226.5337 H   0  0  0  0  0  0  0  0  0  0  0  0
  140.5296   71.5498  225.3898 H   0  0  0  0  0  0  0  0  0  0  0  0
  140.1733   71.5699  224.2290 H   0  0  0  0  0  0  0  0  0  0  0  0
  138.1163   75.9961  223.2340 H   0  0  0  0  0  0  0  0  0  0  0  0
  138.7428   78.3882  222.9553 H   0  0  0  0  0  0  0  0  0  0  0  0
  140.5960   79.4617  219.6108 H   0  0  0  0  0  0  0  0  0  0  0  0
  141.2972   81.8559  219.4593 H   0  0  0  0  0  0  0  0  0  0  0  0
  142.0447   83.0796  221.4817 H   0  0  0  0  0  0  0  0  0  0  0  0
  142.1080   81.9310  223.7054 H   0  0  0  0  0  0  0  0  0  0  0  0
  141.4104   79.5615  223.8098 H   0  0  0  0  0  0  0  0  0  0  0  0
  142.3264   77.2306  220.9100 H   0  0  0  0  0  0  0  0  0  0  0  0
  1  2  2  0
  2  3  1  0
  3  4  1  0
  4  5  1  0
  5  6  2  0
  6  7  1  0
  7  8  2  0
  8  9  1  0
  9 10  1  0
 10 11  2  0
 10 12  1  0
 12 13  1  0
 13 14  1  0
 14 15  1  0
 15 16  1  0
  9 17  2  0
  4 18  2  0
 18 19  1  0
 19 20  2  0
 20 21  1  0
 21 22  2  0
 22 23  1  0
 23 24  2  0
 24 25  1  0
 25 26  2  0
 26 27  1  0
 27 28  2  0
 22 29  1  0
 29 30  2  0
 30  2  1  0
 17  5  1  0
 30 19  1  0
 16 12  1  0
 28 23  1  0
  3 31  1  0
  3 32  1  0
  6 33  1  0
  7 34  1  0
  8 35  1  0
 13 36  1  0
 13 37  1  0
 14 38  1  0
 14 39  1  0
 15 40  1  0
 15 41  1  0
 16 42  1  0
 16 43  1  0
 17 44  1  0
 20 45  1  0
 21 46  1  0
 24 47  1  0
 25 48  1  0
 26 49  1  0
 27 50  1  0
 28 51  1  0
 29 52  1  0
M  END
>  <smiles>  (38) 
O=C1CC(c2cccc(C(=O)N3CCCC3)c2)=Nc2ccc(-c3ccccc3)cc21

>  <score_type>  (38) 
oracle

>  <origin>  (38) 
autodockgpu

>  <m_score__min__energy>  (38) 
-9.2899999999999991

>  <m_primary>  (38) 
energy

>  <rmsd>  (38) 
6.805864393424358

>  <m_score__min__rmsd>  (38) 
6.805864393424358

>  <meeko>  (38) 
{"free_energy": -9.27, "intermolecular_energy": -10.16, "internal_energy": -0.86, "cluster_size": 50, "cluster_id": 1, "rank_in_cluster": 18}

>  <energy>  (38) 
-9.17

>  <cluster_rmsd>  (38) 
0.3

>  <cluster>  (38) 
1

$$$$

     RDKit          3D

 52 56  0  0  0  0  0  0  0  0999 V2000
  142.9580   74.9410  220.4470 O   0  0  0  0  0  0  0  0  0  0  0  0
  141.8880   74.6250  221.0440 C   0  0  0  0  0  0  0  0  0  0  0  0
  141.5810   73.1940  221.1670 C   0  0  0  0  0  0  0  0  0  0  0  0
  140.3030   72.9620  221.8860 C   0  0  0  0  0  0  0  0  0  0  0  0
  139.8880   71.5590  222.0730 C   0  0  0  0  0  0  0  0  0  0  0  0
  139.4960   70.7630  221.0180 C   0  0  0  0  0  0  0  0  0  0  0  0
  139.1030   69.4500  221.1590 C   0  0  0  0  0  0  0  0  0  0  0  0
  139.1040   68.9030  222.4240 C   0  0  0  0  0  0  0  0  0  0  0  0
  139.4900   69.6610  223.5120 C   0  0  0  0  0  0  0  0  0  0  0  0
  139.4630   69.0060  224.8140 C   0  0  0  0  0  0  0  0  0  0  0  0
  139.1840   67.7750  224.9010 O   0  0  0  0  0  0  0  0  0  0  0  0
  139.7390   69.6780  226.0310 N   0  0  0  0  0  0  0  0  0  0  0  0
  139.7250   69.0690  227.3370 C   0  0  0  0  0  0  0  0  0  0  0  0
  140.4130   69.9720  228.3080 C   0  0  0  0  0  0  0  0  0  0  0  0
  141.0750   71.0050  227.4270 C   0  0  0  0  0  0  0  0  0  0  0  0
  140.0890   71.0750  226.2620 C   0  0  0  0  0  0  0  0  0  0  0  0
  139.8780   70.9770  223.3380 C   0  0  0  0  0  0  0  0  0  0  0  0
  139.5650   73.9060  222.3380 N   0  0  0  0  0  0  0  0  0  0  0  0
  139.8680   75.2890  222.2140 C   0  0  0  0  0  0  0  0  0  0  0  0
  139.0610   76.2850  222.7080 C   0  0  0  0  0  0  0  0  0  0  0  0
  139.4290   77.6270  222.5450 C   0  0  0  0  0  0  0  0  0  0  0  0
  140.5940   77.9820  221.8960 C   0  0  0  0  0  0  0  0  0  0  0  0
  140.9980   79.3780  221.7140 C   0  0  0  0  0  0  0  0  0  0  0  0
  141.0170   79.9910  220.4750 C   0  0  0  0  0  0  0  0  0  0  0  0
  141.4170   81.3240  220.3930 C   0  0  0  0  0  0  0  0  0  0  0  0
  141.7890   82.0270  221.5360 C   0  0  0  0  0  0  0  0  0  0  0  0
  141.7720   81.4190  222.7800 C   0  0  0  0  0  0  0  0  0  0  0  0
  141.3720   80.1010  222.8230 C   0  0  0  0  0  0  0  0  0  0  0  0
  141.3980   76.9780  221.4030 C   0  0  0  0  0  0  0  0  0  0  0  0
  141.0240   75.6710  221.5710 C   0  0  0  0  0  0  0  0  0  0  0  0
  141.5065   72.7584  220.1597 H   0  0  0  0  0  0  0  0  0  0  0  0
  142.3883   72.7205  221.7450 H   0  0  0  0  0  0  0  0  0  0  0  0
  139.4970   71.1999  220.0085 H   0  0  0  0  0  0  0  0  0  0  0  0
  138.7969   68.8548  220.2861 H   0  0  0  0  0  0  0  0  0  0  0  0
  138.7957   67.8569  222.5679 H   0  0  0  0  0  0  0  0  0  0  0  0
  138.6848   68.9089  227.6570 H   0  0  0  0  0  0  0  0  0  0  0  0
  140.2468   68.1014  227.2989 H   0  0  0  0  0  0  0  0  0  0  0  0
  139.6877   70.4428  228.9879 H   0  0  0  0  0  0  0  0  0  0  0  0
  141.1277   69.4400  228.9530 H   0  0  0  0  0  0  0  0  0  0  0  0
  141.1639   71.9745  227.9390 H   0  0  0  0  0  0  0  0  0  0  0  0
  142.1051   70.7551  227.1330 H   0  0  0  0  0  0  0  0  0  0  0  0
  139.2003   71.6638  226.5333 H   0  0  0  0  0  0  0  0  0  0  0  0
  140.5102   71.5651  225.3718 H   0  0  0  0  0  0  0  0  0  0  0  0
  140.1830   71.5724  224.2112 H   0  0  0  0  0  0  0  0  0  0  0  0
  138.1275   76.0293  223.2306 H   0  0  0  0  0  0  0  0  0  0  0  0
  138.7742   78.4159  222.9436 H   0  0  0  0  0  0  0  0  0  0  0  0
  140.7222   79.4376  219.5712 H   0  0  0  0  0  0  0  0  0  0  0  0
  141.4390   81.8260  219.4145 H   0  0  0  0  0  0  0  0  0  0  0  0
  142.1003   83.0785  221.4496 H   0  0  0  0  0  0  0  0  0  0  0  0
  142.0640   81.9624  223.6908 H   0  0  0  0  0  0  0  0  0  0  0  0
  141.3505   79.5978  223.8009 H   0  0  0  0  0  0  0  0  0  0  0  0
  142.3331   77.2239  220.8785 H   0  0  0  0  0  0  0  0  0  0  0  0
  1  2  2  0
  2  3  1  0
  3  4  1  0
  4  5  1  0
  5  6  2  0
  6  7  1  0
  7  8  2  0
  8  9  1  0
  9 10  1  0
 10 11  2  0
 10 12  1  0
 12 13  1  0
 13 14  1  0
 14 15  1  0
 15 16  1  0
  9 17  2  0
  4 18  2  0
 18 19  1  0
 19 20  2  0
 20 21  1  0
 21 22  2  0
 22 23  1  0
 23 24  2  0
 24 25  1  0
 25 26  2  0
 26 27  1  0
 27 28  2  0
 22 29  1  0
 29 30  2  0
 30  2  1  0
 17  5  1  0
 30 19  1  0
 16 12  1  0
 28 23  1  0
  3 31  1  0
  3 32  1  0
  6 33  1  0
  7 34  1  0
  8 35  1  0
 13 36  1  0
 13 37  1  0
 14 38  1  0
 14 39  1  0
 15 40  1  0
 15 41  1  0
 16 42  1  0
 16 43  1  0
 17 44  1  0
 20 45  1  0
 21 46  1  0
 24 47  1  0
 25 48  1  0
 26 49  1  0
 27 50  1  0
 28 51  1  0
 29 52  1  0
M  END
>  <smiles>  (39) 
O=C1CC(c2cccc(C(=O)N3CCCC3)c2)=Nc2ccc(-c3ccccc3)cc21

>  <score_type>  (39) 
oracle

>  <origin>  (39) 
autodockgpu

>  <m_score__min__energy>  (39) 
-9.2899999999999991

>  <m_primary>  (39) 
energy

>  <rmsd>  (39) 
6.809560644235952

>  <m_score__min__rmsd>  (39) 
6.809560644235952

>  <meeko>  (39) 
{"free_energy": -9.28, "intermolecular_energy": -10.18, "internal_energy": -0.86, "cluster_size": 50, "cluster_id": 1, "rank_in_cluster": 3}

>  <energy>  (39) 
-9.15

>  <cluster_rmsd>  (39) 
0.19

>  <cluster>  (39) 
1

$$$$

     RDKit          3D

 52 56  0  0  0  0  0  0  0  0999 V2000
  142.9260   74.8980  220.4950 O   0  0  0  0  0  0  0  0  0  0  0  0
  141.8460   74.5960  221.0800 C   0  0  0  0  0  0  0  0  0  0  0  0
  141.5240   73.1690  221.2100 C   0  0  0  0  0  0  0  0  0  0  0  0
  140.2340   72.9550  221.9140 C   0  0  0  0  0  0  0  0  0  0  0  0
  139.8040   71.5560  222.1060 C   0  0  0  0  0  0  0  0  0  0  0  0
  139.3560   70.7770  221.0610 C   0  0  0  0  0  0  0  0  0  0  0  0
  138.9480   69.4690  221.2060 C   0  0  0  0  0  0  0  0  0  0  0  0
  138.9900   68.9110  222.4650 C   0  0  0  0  0  0  0  0  0  0  0  0
  139.4310   69.6520  223.5440 C   0  0  0  0  0  0  0  0  0  0  0  0
  139.4450   68.9860  224.8400 C   0  0  0  0  0  0  0  0  0  0  0  0
  139.1970   67.7480  224.9210 O   0  0  0  0  0  0  0  0  0  0  0  0
  139.7290   69.6540  226.0570 N   0  0  0  0  0  0  0  0  0  0  0  0
  139.7540   69.0350  227.3580 C   0  0  0  0  0  0  0  0  0  0  0  0
  140.4390   69.9450  228.3240 C   0  0  0  0  0  0  0  0  0  0  0  0
  141.0590   71.0010  227.4390 C   0  0  0  0  0  0  0  0  0  0  0  0
  140.0490   71.0570  226.2940 C   0  0  0  0  0  0  0  0  0  0  0  0
  139.8340   70.9640  223.3650 C   0  0  0  0  0  0  0  0  0  0  0  0
  139.5000   73.9090  222.3510 N   0  0  0  0  0  0  0  0  0  0  0  0
  139.8180   75.2880  222.2210 C   0  0  0  0  0  0  0  0  0  0  0  0
  139.0140   76.2950  222.6970 C   0  0  0  0  0  0  0  0  0  0  0  0
  139.3970   77.6320  222.5300 C   0  0  0  0  0  0  0  0  0  0  0  0
  140.5730   77.9720  221.8930 C   0  0  0  0  0  0  0  0  0  0  0  0
  140.9940   79.3620  221.7070 C   0  0  0  0  0  0  0  0  0  0  0  0
  141.0090   79.9740  220.4670 C   0  0  0  0  0  0  0  0  0  0  0  0
  141.4240   81.3020  220.3810 C   0  0  0  0  0  0  0  0  0  0  0  0
  141.8160   82.0010  221.5200 C   0  0  0  0  0  0  0  0  0  0  0  0
  141.8030   81.3930  222.7650 C   0  0  0  0  0  0  0  0  0  0  0  0
  141.3870   80.0810  222.8110 C   0  0  0  0  0  0  0  0  0  0  0  0
  141.3750   76.9560  221.4170 C   0  0  0  0  0  0  0  0  0  0  0  0
  140.9850   75.6540  221.5900 C   0  0  0  0  0  0  0  0  0  0  0  0
  141.4587   72.7261  220.2052 H   0  0  0  0  0  0  0  0  0  0  0  0
  142.3191   72.6924  221.8022 H   0  0  0  0  0  0  0  0  0  0  0  0
  139.3224   71.2239  220.0564 H   0  0  0  0  0  0  0  0  0  0  0  0
  138.5985   68.8865  220.3408 H   0  0  0  0  0  0  0  0  0  0  0  0
  138.6703   67.8688  222.6118 H   0  0  0  0  0  0  0  0  0  0  0  0
  138.7240   68.8483  227.6960 H   0  0  0  0  0  0  0  0  0  0  0  0
  140.2977   68.0804  227.3017 H   0  0  0  0  0  0  0  0  0  0  0  0
  139.7162   70.3925  229.0221 H   0  0  0  0  0  0  0  0  0  0  0  0
  141.1783   69.4247  228.9507 H   0  0  0  0  0  0  0  0  0  0  0  0
  141.1349   71.9681  227.9576 H   0  0  0  0  0  0  0  0  0  0  0  0
  142.0888   70.7782  227.1229 H   0  0  0  0  0  0  0  0  0  0  0  0
  139.1516   71.6212  226.5879 H   0  0  0  0  0  0  0  0  0  0  0  0
  140.4404   71.5652  225.4004 H   0  0  0  0  0  0  0  0  0  0  0  0
  140.1829   71.5469  224.2301 H   0  0  0  0  0  0  0  0  0  0  0  0
  138.0710   76.0518  223.2085 H   0  0  0  0  0  0  0  0  0  0  0  0
  138.7451   78.4296  222.9157 H   0  0  0  0  0  0  0  0  0  0  0  0
  140.6995   79.4237  219.5662 H   0  0  0  0  0  0  0  0  0  0  0  0
  141.4421   81.8036  219.4022 H   0  0  0  0  0  0  0  0  0  0  0  0
  142.1398   83.0484  221.4302 H   0  0  0  0  0  0  0  0  0  0  0  0
  142.1102   81.9324  223.6731 H   0  0  0  0  0  0  0  0  0  0  0  0
  141.3680   79.5784  223.7893 H   0  0  0  0  0  0  0  0  0  0  0  0
  142.3193   77.1889  220.9031 H   0  0  0  0  0  0  0  0  0  0  0  0
  1  2  2  0
  2  3  1  0
  3  4  1  0
  4  5  1  0
  5  6  2  0
  6  7  1  0
  7  8  2  0
  8  9  1  0
  9 10  1  0
 10 11  2  0
 10 12  1  0
 12 13  1  0
 13 14  1  0
 14 15  1  0
 15 16  1  0
  9 17  2  0
  4 18  2  0
 18 19  1  0
 19 20  2  0
 20 21  1  0
 21 22  2  0
 22 23  1  0
 23 24  2  0
 24 25  1  0
 25 26  2  0
 26 27  1  0
 27 28  2  0
 22 29  1  0
 29 30  2  0
 30  2  1  0
 17  5  1  0
 30 19  1  0
 16 12  1  0
 28 23  1  0
  3 31  1  0
  3 32  1  0
  6 33  1  0
  7 34  1  0
  8 35  1  0
 13 36  1  0
 13 37  1  0
 14 38  1  0
 14 39  1  0
 15 40  1  0
 15 41  1  0
 16 42  1  0
 16 43  1  0
 17 44  1  0
 20 45  1  0
 21 46  1  0
 24 47  1  0
 25 48  1  0
 26 49  1  0
 27 50  1  0
 28 51  1  0
 29 52  1  0
M  END
>  <smiles>  (40) 
O=C1CC(c2cccc(C(=O)N3CCCC3)c2)=Nc2ccc(-c3ccccc3)cc21

>  <score_type>  (40) 
oracle

>  <origin>  (40) 
autodockgpu

>  <m_score__min__energy>  (40) 
-9.2899999999999991

>  <m_primary>  (40) 
energy

>  <rmsd>  (40) 
6.803385766450809

>  <m_score__min__rmsd>  (40) 
6.803385766450809

>  <meeko>  (40) 
{"free_energy": -9.28, "intermolecular_energy": -10.17, "internal_energy": -0.87, "cluster_size": 50, "cluster_id": 1, "rank_in_cluster": 11}

>  <energy>  (40) 
-9.15

>  <cluster_rmsd>  (40) 
0.14

>  <cluster>  (40) 
1

$$$$

     RDKit          3D

 52 56  0  0  0  0  0  0  0  0999 V2000
  142.9690   74.8780  220.3590 O   0  0  0  0  0  0  0  0  0  0  0  0
  141.9110   74.5670  220.9800 C   0  0  0  0  0  0  0  0  0  0  0  0
  141.6020   73.1370  221.1150 C   0  0  0  0  0  0  0  0  0  0  0  0
  140.3390   72.9130  221.8620 C   0  0  0  0  0  0  0  0  0  0  0  0
  139.9240   71.5110  222.0640 C   0  0  0  0  0  0  0  0  0  0  0  0
  139.5400   70.7030  221.0150 C   0  0  0  0  0  0  0  0  0  0  0  0
  139.1470   69.3910  221.1690 C   0  0  0  0  0  0  0  0  0  0  0  0
  139.1390   68.8600  222.4400 C   0  0  0  0  0  0  0  0  0  0  0  0
  139.5160   69.6310  223.5220 C   0  0  0  0  0  0  0  0  0  0  0  0
  139.4790   68.9910  224.8310 C   0  0  0  0  0  0  0  0  0  0  0  0
  139.1970   67.7620  224.9310 O   0  0  0  0  0  0  0  0  0  0  0  0
  139.7490   69.6770  226.0420 N   0  0  0  0  0  0  0  0  0  0  0  0
  139.7250   69.0840  227.3550 C   0  0  0  0  0  0  0  0  0  0  0  0
  140.4090   69.9970  228.3200 C   0  0  0  0  0  0  0  0  0  0  0  0
  141.0790   71.0180  227.4300 C   0  0  0  0  0  0  0  0  0  0  0  0
  140.1000   71.0760  226.2590 C   0  0  0  0  0  0  0  0  0  0  0  0
  139.9050   70.9450  223.3350 C   0  0  0  0  0  0  0  0  0  0  0  0
  139.6150   73.8610  222.3280 N   0  0  0  0  0  0  0  0  0  0  0  0
  139.9190   75.2420  222.1930 C   0  0  0  0  0  0  0  0  0  0  0  0
  139.1270   76.2430  222.7000 C   0  0  0  0  0  0  0  0  0  0  0  0
  139.4960   77.5830  222.5260 C   0  0  0  0  0  0  0  0  0  0  0  0
  140.6480   77.9320  221.8490 C   0  0  0  0  0  0  0  0  0  0  0  0
  141.0530   79.3260  221.6550 C   0  0  0  0  0  0  0  0  0  0  0  0
  141.4560   80.1350  222.7000 C   0  0  0  0  0  0  0  0  0  0  0  0
  141.8250   81.4510  222.4240 C   0  0  0  0  0  0  0  0  0  0  0  0
  141.7890   81.9420  221.1220 C   0  0  0  0  0  0  0  0  0  0  0  0
  141.3870   81.1360  220.0700 C   0  0  0  0  0  0  0  0  0  0  0  0
  141.0290   79.8420  220.3800 C   0  0  0  0  0  0  0  0  0  0  0  0
  141.4380   76.9230  221.3430 C   0  0  0  0  0  0  0  0  0  0  0  0
  141.0630   75.6180  221.5230 C   0  0  0  0  0  0  0  0  0  0  0  0
  141.5045   72.6977  220.1113 H   0  0  0  0  0  0  0  0  0  0  0  0
  142.4199   72.6625  221.6771 H   0  0  0  0  0  0  0  0  0  0  0  0
  139.5477   71.1283  220.0006 H   0  0  0  0  0  0  0  0  0  0  0  0
  138.8481   68.7848  220.3012 H   0  0  0  0  0  0  0  0  0  0  0  0
  138.8305   67.8155  222.5941 H   0  0  0  0  0  0  0  0  0  0  0  0
  138.6824   68.9302  227.6701 H   0  0  0  0  0  0  0  0  0  0  0  0
  140.2448   68.1148  227.3319 H   0  0  0  0  0  0  0  0  0  0  0  0
  139.6806   70.4776  228.9896 H   0  0  0  0  0  0  0  0  0  0  0  0
  141.1182   69.4713  228.9762 H   0  0  0  0  0  0  0  0  0  0  0  0
  141.1674   71.9935  227.9306 H   0  0  0  0  0  0  0  0  0  0  0  0
  142.1102   70.7621  227.1450 H   0  0  0  0  0  0  0  0  0  0  0  0
  139.2108   71.6692  226.5185 H   0  0  0  0  0  0  0  0  0  0  0  0
  140.5271   71.5551  225.3656 H   0  0  0  0  0  0  0  0  0  0  0  0
  140.2035   71.5510  224.2031 H   0  0  0  0  0  0  0  0  0  0  0  0
  138.2034   75.9925  223.2424 H   0  0  0  0  0  0  0  0  0  0  0  0
  138.8537   78.3753  222.9379 H   0  0  0  0  0  0  0  0  0  0  0  0
  141.4852   79.7485  223.7295 H   0  0  0  0  0  0  0  0  0  0  0  0
  142.1482   82.1086  223.2444 H   0  0  0  0  0  0  0  0  0  0  0  0
  142.0836   82.9836  220.9262 H   0  0  0  0  0  0  0  0  0  0  0  0
  141.3550   81.5109  219.0364 H   0  0  0  0  0  0  0  0  0  0  0  0
  140.7053   79.1835  219.5605 H   0  0  0  0  0  0  0  0  0  0  0  0
  142.3630   77.1637  220.7985 H   0  0  0  0  0  0  0  0  0  0  0  0
  1  2  2  0
  2  3  1  0
  3  4  1  0
  4  5  1  0
  5  6  2  0
  6  7  1  0
  7  8  2  0
  8  9  1  0
  9 10  1  0
 10 11  2  0
 10 12  1  0
 12 13  1  0
 13 14  1  0
 14 15  1  0
 15 16  1  0
  9 17  2  0
  4 18  2  0
 18 19  1  0
 19 20  2  0
 20 21  1  0
 21 22  2  0
 22 23  1  0
 23 24  2  0
 24 25  1  0
 25 26  2  0
 26 27  1  0
 27 28  2  0
 22 29  1  0
 29 30  2  0
 30  2  1  0
 17  5  1  0
 30 19  1  0
 16 12  1  0
 28 23  1  0
  3 31  1  0
  3 32  1  0
  6 33  1  0
  7 34  1  0
  8 35  1  0
 13 36  1  0
 13 37  1  0
 14 38  1  0
 14 39  1  0
 15 40  1  0
 15 41  1  0
 16 42  1  0
 16 43  1  0
 17 44  1  0
 20 45  1  0
 21 46  1  0
 24 47  1  0
 25 48  1  0
 26 49  1  0
 27 50  1  0
 28 51  1  0
 29 52  1  0
M  END
>  <smiles>  (41) 
O=C1CC(c2cccc(C(=O)N3CCCC3)c2)=Nc2ccc(-c3ccccc3)cc21

>  <score_type>  (41) 
oracle

>  <origin>  (41) 
autodockgpu

>  <m_score__min__energy>  (41) 
-9.2899999999999991

>  <m_primary>  (41) 
energy

>  <rmsd>  (41) 
6.813597784086341

>  <m_score__min__rmsd>  (41) 
6.813597784086341

>  <meeko>  (41) 
{"free_energy": -9.18, "intermolecular_energy": -10.08, "internal_energy": -0.86, "cluster_size": 50, "cluster_id": 1, "rank_in_cluster": 32}

>  <energy>  (41) 
-9.14

>  <cluster_rmsd>  (41) 
0.35

>  <cluster>  (41) 
1

$$$$

     RDKit          3D

 52 56  0  0  0  0  0  0  0  0999 V2000
  142.9590   74.9440  220.4450 O   0  0  0  0  0  0  0  0  0  0  0  0
  141.8920   74.6230  221.0450 C   0  0  0  0  0  0  0  0  0  0  0  0
  141.5950   73.1900  221.1750 C   0  0  0  0  0  0  0  0  0  0  0  0
  140.3200   72.9540  221.8980 C   0  0  0  0  0  0  0  0  0  0  0  0
  139.9160   71.5480  222.0930 C   0  0  0  0  0  0  0  0  0  0  0  0
  139.5440   70.7400  221.0400 C   0  0  0  0  0  0  0  0  0  0  0  0
  139.1610   69.4240  221.1870 C   0  0  0  0  0  0  0  0  0  0  0  0
  139.1510   68.8890  222.4570 C   0  0  0  0  0  0  0  0  0  0  0  0
  139.5160   69.6590  223.5430 C   0  0  0  0  0  0  0  0  0  0  0  0
  139.4780   69.0160  224.8500 C   0  0  0  0  0  0  0  0  0  0  0  0
  139.2020   67.7840  224.9450 O   0  0  0  0  0  0  0  0  0  0  0  0
  139.7380   69.7000  226.0640 N   0  0  0  0  0  0  0  0  0  0  0  0
  139.7130   69.1020  227.3750 C   0  0  0  0  0  0  0  0  0  0  0  0
  140.3870   70.0160  228.3450 C   0  0  0  0  0  0  0  0  0  0  0  0
  141.0540   71.0440  227.4620 C   0  0  0  0  0  0  0  0  0  0  0  0
  140.0800   71.1000  226.2870 C   0  0  0  0  0  0  0  0  0  0  0  0
  139.8940   70.9780  223.3620 C   0  0  0  0  0  0  0  0  0  0  0  0
  139.5770   73.8940  222.3480 N   0  0  0  0  0  0  0  0  0  0  0  0
  139.8690   75.2790  222.2170 C   0  0  0  0  0  0  0  0  0  0  0  0
  139.0560   76.2710  222.7070 C   0  0  0  0  0  0  0  0  0  0  0  0
  139.4150   77.6150  222.5380 C   0  0  0  0  0  0  0  0  0  0  0  0
  140.5760   77.9760  221.8840 C   0  0  0  0  0  0  0  0  0  0  0  0
  140.9700   79.3730  221.6960 C   0  0  0  0  0  0  0  0  0  0  0  0
  140.9630   79.9860  220.4570 C   0  0  0  0  0  0  0  0  0  0  0  0
  141.3550   81.3210  220.3680 C   0  0  0  0  0  0  0  0  0  0  0  0
  141.7450   82.0260  221.5040 C   0  0  0  0  0  0  0  0  0  0  0  0
  141.7550   81.4170  222.7480 C   0  0  0  0  0  0  0  0  0  0  0  0
  141.3620   80.0970  222.7970 C   0  0  0  0  0  0  0  0  0  0  0  0
  141.3870   76.9740  221.3950 C   0  0  0  0  0  0  0  0  0  0  0  0
  141.0210   75.6650  221.5690 C   0  0  0  0  0  0  0  0  0  0  0  0
  141.5211   72.7492  220.1699 H   0  0  0  0  0  0  0  0  0  0  0  0
  142.4067   72.7239  221.7528 H   0  0  0  0  0  0  0  0  0  0  0  0
  139.5533   71.1688  220.0270 H   0  0  0  0  0  0  0  0  0  0  0  0
  138.8716   68.8183  220.3156 H   0  0  0  0  0  0  0  0  0  0  0  0
  138.8502   67.8415  222.6063 H   0  0  0  0  0  0  0  0  0  0  0  0
  138.6703   68.9402  227.6857 H   0  0  0  0  0  0  0  0  0  0  0  0
  140.2391   68.1363  227.3506 H   0  0  0  0  0  0  0  0  0  0  0  0
  139.6527   70.4897  229.0132 H   0  0  0  0  0  0  0  0  0  0  0  0
  141.0971   69.4925  229.0021 H   0  0  0  0  0  0  0  0  0  0  0  0
  141.1339   72.0182  227.9665 H   0  0  0  0  0  0  0  0  0  0  0  0
  142.0880   70.7957  227.1807 H   0  0  0  0  0  0  0  0  0  0  0  0
  139.1862   71.6873  226.5444 H   0  0  0  0  0  0  0  0  0  0  0  0
  140.5083   71.5843  225.3971 H   0  0  0  0  0  0  0  0  0  0  0  0
  140.1811   71.5843  224.2338 H   0  0  0  0  0  0  0  0  0  0  0  0
  138.1245   76.0112  223.2313 H   0  0  0  0  0  0  0  0  0  0  0  0
  138.7562   78.4009  222.9358 H   0  0  0  0  0  0  0  0  0  0  0  0
  140.6541   79.4313  219.5587 H   0  0  0  0  0  0  0  0  0  0  0  0
  141.3563   81.8232  219.3893 H   0  0  0  0  0  0  0  0  0  0  0  0
  142.0488   83.0792  221.4122 H   0  0  0  0  0  0  0  0  0  0  0  0
  142.0620   81.9609  223.6535 H   0  0  0  0  0  0  0  0  0  0  0  0
  141.3620   79.5930  223.7747 H   0  0  0  0  0  0  0  0  0  0  0  0
  142.3205   77.2234  220.8693 H   0  0  0  0  0  0  0  0  0  0  0  0
  1  2  2  0
  2  3  1  0
  3  4  1  0
  4  5  1  0
  5  6  2  0
  6  7  1  0
  7  8  2  0
  8  9  1  0
  9 10  1  0
 10 11  2  0
 10 12  1  0
 12 13  1  0
 13 14  1  0
 14 15  1  0
 15 16  1  0
  9 17  2  0
  4 18  2  0
 18 19  1  0
 19 20  2  0
 20 21  1  0
 21 22  2  0
 22 23  1  0
 23 24  2  0
 24 25  1  0
 25 26  2  0
 26 27  1  0
 27 28  2  0
 22 29  1  0
 29 30  2  0
 30  2  1  0
 17  5  1  0
 30 19  1  0
 16 12  1  0
 28 23  1  0
  3 31  1  0
  3 32  1  0
  6 33  1  0
  7 34  1  0
  8 35  1  0
 13 36  1  0
 13 37  1  0
 14 38  1  0
 14 39  1  0
 15 40  1  0
 15 41  1  0
 16 42  1  0
 16 43  1  0
 17 44  1  0
 20 45  1  0
 21 46  1  0
 24 47  1  0
 25 48  1  0
 26 49  1  0
 27 50  1  0
 28 51  1  0
 29 52  1  0
M  END
>  <smiles>  (42) 
O=C1CC(c2cccc(C(=O)N3CCCC3)c2)=Nc2ccc(-c3ccccc3)cc21

>  <score_type>  (42) 
oracle

>  <origin>  (42) 
autodockgpu

>  <m_score__min__energy>  (42) 
-9.2899999999999991

>  <m_primary>  (42) 
energy

>  <rmsd>  (42) 
6.812927373540915

>  <m_score__min__rmsd>  (42) 
6.812927373540915

>  <meeko>  (42) 
{"free_energy": -9.27, "intermolecular_energy": -10.17, "internal_energy": -0.86, "cluster_size": 50, "cluster_id": 1, "rank_in_cluster": 13}

>  <energy>  (42) 
-9.12

>  <cluster_rmsd>  (42) 
0.4

>  <cluster>  (42) 
1

$$$$

     RDKit          3D

 52 56  0  0  0  0  0  0  0  0999 V2000
  142.9970   74.9390  220.4660 O   0  0  0  0  0  0  0  0  0  0  0  0
  141.9270   74.6150  221.0590 C   0  0  0  0  0  0  0  0  0  0  0  0
  141.6310   73.1820  221.1840 C   0  0  0  0  0  0  0  0  0  0  0  0
  140.3510   72.9420  221.8970 C   0  0  0  0  0  0  0  0  0  0  0  0
  139.9460   71.5360  222.0860 C   0  0  0  0  0  0  0  0  0  0  0  0
  139.5860   70.7290  221.0280 C   0  0  0  0  0  0  0  0  0  0  0  0
  139.2030   69.4130  221.1690 C   0  0  0  0  0  0  0  0  0  0  0  0
  139.1810   68.8750  222.4380 C   0  0  0  0  0  0  0  0  0  0  0  0
  139.5340   69.6440  223.5290 C   0  0  0  0  0  0  0  0  0  0  0  0
  139.4840   68.9990  224.8340 C   0  0  0  0  0  0  0  0  0  0  0  0
  139.1920   67.7700  224.9260 O   0  0  0  0  0  0  0  0  0  0  0  0
  139.7490   69.6760  226.0510 N   0  0  0  0  0  0  0  0  0  0  0  0
  139.7120   69.0770  227.3600 C   0  0  0  0  0  0  0  0  0  0  0  0
  140.3950   69.9790  228.3350 C   0  0  0  0  0  0  0  0  0  0  0  0
  141.0770   71.0010  227.4560 C   0  0  0  0  0  0  0  0  0  0  0  0
  140.1080   71.0720  226.2770 C   0  0  0  0  0  0  0  0  0  0  0  0
  139.9130   70.9640  223.3540 C   0  0  0  0  0  0  0  0  0  0  0  0
  139.6040   73.8820  222.3450 N   0  0  0  0  0  0  0  0  0  0  0  0
  139.8960   75.2660  222.2200 C   0  0  0  0  0  0  0  0  0  0  0  0
  139.0800   76.2570  222.7070 C   0  0  0  0  0  0  0  0  0  0  0  0
  139.4390   77.6010  222.5440 C   0  0  0  0  0  0  0  0  0  0  0  0
  140.6030   77.9640  221.8990 C   0  0  0  0  0  0  0  0  0  0  0  0
  140.9980   79.3630  221.7160 C   0  0  0  0  0  0  0  0  0  0  0  0
  140.6130   80.1060  220.6160 C   0  0  0  0  0  0  0  0  0  0  0  0
  141.0350   81.4320  220.5230 C   0  0  0  0  0  0  0  0  0  0  0  0
  141.8280   81.9980  221.5170 C   0  0  0  0  0  0  0  0  0  0  0  0
  142.2170   81.2590  222.6220 C   0  0  0  0  0  0  0  0  0  0  0  0
  141.7820   79.9530  222.6800 C   0  0  0  0  0  0  0  0  0  0  0  0
  141.4180   76.9650  221.4120 C   0  0  0  0  0  0  0  0  0  0  0  0
  141.0530   75.6550  221.5800 C   0  0  0  0  0  0  0  0  0  0  0  0
  141.5653   72.7432  220.1775 H   0  0  0  0  0  0  0  0  0  0  0  0
  142.4390   72.7162  221.7672 H   0  0  0  0  0  0  0  0  0  0  0  0
  139.6056   71.1592  220.0158 H   0  0  0  0  0  0  0  0  0  0  0  0
  138.9227   68.8087  220.2936 H   0  0  0  0  0  0  0  0  0  0  0  0
  138.8804   67.8267  222.5823 H   0  0  0  0  0  0  0  0  0  0  0  0
  138.6661   68.9288  227.6669 H   0  0  0  0  0  0  0  0  0  0  0  0
  140.2259   68.1047  227.3350 H   0  0  0  0  0  0  0  0  0  0  0  0
  139.6652   70.4599  229.0029 H   0  0  0  0  0  0  0  0  0  0  0  0
  141.0965   69.4447  228.9926 H   0  0  0  0  0  0  0  0  0  0  0  0
  141.1669   71.9730  227.9630 H   0  0  0  0  0  0  0  0  0  0  0  0
  142.1087   70.7404  227.1774 H   0  0  0  0  0  0  0  0  0  0  0  0
  139.2209   71.6704  226.5319 H   0  0  0  0  0  0  0  0  0  0  0  0
  140.5455   71.5524  225.3894 H   0  0  0  0  0  0  0  0  0  0  0  0
  140.1919   71.5689  224.2294 H   0  0  0  0  0  0  0  0  0  0  0  0
  138.1453   75.9957  223.2247 H   0  0  0  0  0  0  0  0  0  0  0  0
  138.7771   78.3855  222.9397 H   0  0  0  0  0  0  0  0  0  0  0  0
  139.9862   79.6603  219.8295 H   0  0  0  0  0  0  0  0  0  0  0  0
  140.7377   82.0375  219.6541 H   0  0  0  0  0  0  0  0  0  0  0  0
  142.1499   83.0457  221.4238 H   0  0  0  0  0  0  0  0  0  0  0  0
  142.8431   81.6939  223.4150 H   0  0  0  0  0  0  0  0  0  0  0  0
  142.0791   79.3465  223.5482 H   0  0  0  0  0  0  0  0  0  0  0  0
  142.3542   77.2173  220.8925 H   0  0  0  0  0  0  0  0  0  0  0  0
  1  2  2  0
  2  3  1  0
  3  4  1  0
  4  5  1  0
  5  6  2  0
  6  7  1  0
  7  8  2  0
  8  9  1  0
  9 10  1  0
 10 11  2  0
 10 12  1  0
 12 13  1  0
 13 14  1  0
 14 15  1  0
 15 16  1  0
  9 17  2  0
  4 18  2  0
 18 19  1  0
 19 20  2  0
 20 21  1  0
 21 22  2  0
 22 23  1  0
 23 24  2  0
 24 25  1  0
 25 26  2  0
 26 27  1  0
 27 28  2  0
 22 29  1  0
 29 30  2  0
 30  2  1  0
 17  5  1  0
 30 19  1  0
 16 12  1  0
 28 23  1  0
  3 31  1  0
  3 32  1  0
  6 33  1  0
  7 34  1  0
  8 35  1  0
 13 36  1  0
 13 37  1  0
 14 38  1  0
 14 39  1  0
 15 40  1  0
 15 41  1  0
 16 42  1  0
 16 43  1  0
 17 44  1  0
 20 45  1  0
 21 46  1  0
 24 47  1  0
 25 48  1  0
 26 49  1  0
 27 50  1  0
 28 51  1  0
 29 52  1  0
M  END
>  <smiles>  (43) 
O=C1CC(c2cccc(C(=O)N3CCCC3)c2)=Nc2ccc(-c3ccccc3)cc21

>  <score_type>  (43) 
oracle

>  <origin>  (43) 
autodockgpu

>  <m_score__min__energy>  (43) 
-9.2899999999999991

>  <m_primary>  (43) 
energy

>  <rmsd>  (43) 
6.80871823245397

>  <m_score__min__rmsd>  (43) 
6.80871823245397

>  <meeko>  (43) 
{"free_energy": -9.23, "intermolecular_energy": -10.12, "internal_energy": -0.86, "cluster_size": 50, "cluster_id": 1, "rank_in_cluster": 24}

>  <energy>  (43) 
-9.09

>  <cluster_rmsd>  (43) 
0.2

>  <cluster>  (43) 
1

$$$$

     RDKit          3D

 52 56  0  0  0  0  0  0  0  0999 V2000
  142.9510   74.9100  220.3400 O   0  0  0  0  0  0  0  0  0  0  0  0
  141.9010   74.5920  220.9710 C   0  0  0  0  0  0  0  0  0  0  0  0
  141.6000   73.1600  221.1030 C   0  0  0  0  0  0  0  0  0  0  0  0
  140.3460   72.9270  221.8640 C   0  0  0  0  0  0  0  0  0  0  0  0
  139.9390   71.5230  222.0640 C   0  0  0  0  0  0  0  0  0  0  0  0
  139.5720   70.7100  221.0130 C   0  0  0  0  0  0  0  0  0  0  0  0
  139.1870   69.3960  221.1650 C   0  0  0  0  0  0  0  0  0  0  0  0
  139.1690   68.8670  222.4370 C   0  0  0  0  0  0  0  0  0  0  0  0
  139.5280   69.6430  223.5220 C   0  0  0  0  0  0  0  0  0  0  0  0
  139.4820   69.0060  224.8320 C   0  0  0  0  0  0  0  0  0  0  0  0
  139.1960   67.7770  224.9320 O   0  0  0  0  0  0  0  0  0  0  0  0
  139.7460   69.6930  226.0430 N   0  0  0  0  0  0  0  0  0  0  0  0
  139.7130   69.1030  227.3570 C   0  0  0  0  0  0  0  0  0  0  0  0
  140.3930   70.0150  228.3240 C   0  0  0  0  0  0  0  0  0  0  0  0
  141.0700   71.0330  227.4370 C   0  0  0  0  0  0  0  0  0  0  0  0
  140.0990   71.0920  226.2590 C   0  0  0  0  0  0  0  0  0  0  0  0
  139.9100   70.9600  223.3360 C   0  0  0  0  0  0  0  0  0  0  0  0
  139.6230   73.8700  222.3420 N   0  0  0  0  0  0  0  0  0  0  0  0
  139.9210   75.2540  222.2090 C   0  0  0  0  0  0  0  0  0  0  0  0
  139.1300   76.2480  222.7300 C   0  0  0  0  0  0  0  0  0  0  0  0
  139.4920   77.5900  222.5570 C   0  0  0  0  0  0  0  0  0  0  0  0
  140.6340   77.9480  221.8700 C   0  0  0  0  0  0  0  0  0  0  0  0
  141.0310   79.3440  221.6760 C   0  0  0  0  0  0  0  0  0  0  0  0
  141.0230   79.9530  220.4360 C   0  0  0  0  0  0  0  0  0  0  0  0
  141.4170   81.2870  220.3430 C   0  0  0  0  0  0  0  0  0  0  0  0
  141.8120   81.9940  221.4760 C   0  0  0  0  0  0  0  0  0  0  0  0
  141.8230   81.3890  222.7210 C   0  0  0  0  0  0  0  0  0  0  0  0
  141.4270   80.0700  222.7750 C   0  0  0  0  0  0  0  0  0  0  0  0
  141.4230   76.9440  221.3490 C   0  0  0  0  0  0  0  0  0  0  0  0
  141.0540   75.6360  221.5280 C   0  0  0  0  0  0  0  0  0  0  0  0
  141.4928   72.7248  220.0985 H   0  0  0  0  0  0  0  0  0  0  0  0
  142.4265   72.6866  221.6533 H   0  0  0  0  0  0  0  0  0  0  0  0
  139.5874   71.1334  219.9979 H   0  0  0  0  0  0  0  0  0  0  0  0
  138.9019   68.7862  220.2950 H   0  0  0  0  0  0  0  0  0  0  0  0
  138.8669   67.8203  222.5895 H   0  0  0  0  0  0  0  0  0  0  0  0
  138.6681   68.9525  227.6662 H   0  0  0  0  0  0  0  0  0  0  0  0
  140.2308   68.1327  227.3386 H   0  0  0  0  0  0  0  0  0  0  0  0
  139.6618   70.4980  228.9889 H   0  0  0  0  0  0  0  0  0  0  0  0
  141.0973   69.4885  228.9849 H   0  0  0  0  0  0  0  0  0  0  0  0
  141.1571   72.0089  227.9370 H   0  0  0  0  0  0  0  0  0  0  0  0
  142.1023   70.7742  227.1588 H   0  0  0  0  0  0  0  0  0  0  0  0
  139.2096   71.6882  226.5112 H   0  0  0  0  0  0  0  0  0  0  0  0
  140.5329   71.5685  225.3676 H   0  0  0  0  0  0  0  0  0  0  0  0
  140.1947   71.5702  224.2058 H   0  0  0  0  0  0  0  0  0  0  0  0
  138.2139   75.9910  223.2821 H   0  0  0  0  0  0  0  0  0  0  0  0
  138.8504   78.3776  222.9790 H   0  0  0  0  0  0  0  0  0  0  0  0
  140.7119   79.3963  219.5397 H   0  0  0  0  0  0  0  0  0  0  0  0
  141.4159   81.7870  219.3632 H   0  0  0  0  0  0  0  0  0  0  0  0
  142.1190   83.0460  221.3804 H   0  0  0  0  0  0  0  0  0  0  0  0
  142.1330   81.9350  223.6242 H   0  0  0  0  0  0  0  0  0  0  0  0
  141.4277   79.5687  223.7541 H   0  0  0  0  0  0  0  0  0  0  0  0
  142.3405   77.1907  220.7946 H   0  0  0  0  0  0  0  0  0  0  0  0
  1  2  2  0
  2  3  1  0
  3  4  1  0
  4  5  1  0
  5  6  2  0
  6  7  1  0
  7  8  2  0
  8  9  1  0
  9 10  1  0
 10 11  2  0
 10 12  1  0
 12 13  1  0
 13 14  1  0
 14 15  1  0
 15 16  1  0
  9 17  2  0
  4 18  2  0
 18 19  1  0
 19 20  2  0
 20 21  1  0
 21 22  2  0
 22 23  1  0
 23 24  2  0
 24 25  1  0
 25 26  2  0
 26 27  1  0
 27 28  2  0
 22 29  1  0
 29 30  2  0
 30  2  1  0
 17  5  1  0
 30 19  1  0
 16 12  1  0
 28 23  1  0
  3 31  1  0
  3 32  1  0
  6 33  1  0
  7 34  1  0
  8 35  1  0
 13 36  1  0
 13 37  1  0
 14 38  1  0
 14 39  1  0
 15 40  1  0
 15 41  1  0
 16 42  1  0
 16 43  1  0
 17 44  1  0
 20 45  1  0
 21 46  1  0
 24 47  1  0
 25 48  1  0
 26 49  1  0
 27 50  1  0
 28 51  1  0
 29 52  1  0
M  END
>  <smiles>  (44) 
O=C1CC(c2cccc(C(=O)N3CCCC3)c2)=Nc2ccc(-c3ccccc3)cc21

>  <score_type>  (44) 
oracle

>  <origin>  (44) 
autodockgpu

>  <m_score__min__energy>  (44) 
-9.2899999999999991

>  <m_primary>  (44) 
energy

>  <rmsd>  (44) 
6.81752952190187

>  <m_score__min__rmsd>  (44) 
6.81752952190187

>  <meeko>  (44) 
{"free_energy": -9.27, "intermolecular_energy": -10.16, "internal_energy": -0.86, "cluster_size": 50, "cluster_id": 1, "rank_in_cluster": 17}

>  <energy>  (44) 
-9.05

>  <cluster_rmsd>  (44) 
0.31

>  <cluster>  (44) 
1

$$$$

     RDKit          3D

 52 56  0  0  0  0  0  0  0  0999 V2000
  142.8890   75.2430  220.1920 O   0  0  0  0  0  0  0  0  0  0  0  0
  141.8690   74.8890  220.8530 C   0  0  0  0  0  0  0  0  0  0  0  0
  141.6110   73.4490  220.9770 C   0  0  0  0  0  0  0  0  0  0  0  0
  140.3900   73.1730  221.7750 C   0  0  0  0  0  0  0  0  0  0  0  0
  140.0270   71.7560  221.9710 C   0  0  0  0  0  0  0  0  0  0  0  0
  139.8510   70.8920  220.9120 C   0  0  0  0  0  0  0  0  0  0  0  0
  139.5130   69.5640  221.0600 C   0  0  0  0  0  0  0  0  0  0  0  0
  139.3430   69.0750  222.3370 C   0  0  0  0  0  0  0  0  0  0  0  0
  139.5090   69.9030  223.4300 C   0  0  0  0  0  0  0  0  0  0  0  0
  139.3100   69.3060  224.7440 C   0  0  0  0  0  0  0  0  0  0  0  0
  138.8270   68.1410  224.8480 O   0  0  0  0  0  0  0  0  0  0  0  0
  139.6350   69.9650  225.9570 N   0  0  0  0  0  0  0  0  0  0  0  0
  139.4560   69.4120  227.2750 C   0  0  0  0  0  0  0  0  0  0  0  0
  140.2360   70.2220  228.2580 C   0  0  0  0  0  0  0  0  0  0  0  0
  141.1020   71.1020  227.3880 C   0  0  0  0  0  0  0  0  0  0  0  0
  140.1990   71.2930  226.1700 C   0  0  0  0  0  0  0  0  0  0  0  0
  139.8480   71.2320  223.2470 C   0  0  0  0  0  0  0  0  0  0  0  0
  139.6580   74.0910  222.2870 N   0  0  0  0  0  0  0  0  0  0  0  0
  139.9130   75.4830  222.1620 C   0  0  0  0  0  0  0  0  0  0  0  0
  139.1130   76.4500  222.7200 C   0  0  0  0  0  0  0  0  0  0  0  0
  139.4330   77.8030  222.5520 C   0  0  0  0  0  0  0  0  0  0  0  0
  140.5420   78.1990  221.8320 C   0  0  0  0  0  0  0  0  0  0  0  0
  140.8950   79.6080  221.6430 C   0  0  0  0  0  0  0  0  0  0  0  0
  141.1120   80.4680  222.7030 C   0  0  0  0  0  0  0  0  0  0  0  0
  141.4440   81.7940  222.4320 C   0  0  0  0  0  0  0  0  0  0  0  0
  141.5560   82.2460  221.1190 C   0  0  0  0  0  0  0  0  0  0  0  0
  141.3400   81.3890  220.0530 C   0  0  0  0  0  0  0  0  0  0  0  0
  141.0130   80.0860  220.3590 C   0  0  0  0  0  0  0  0  0  0  0  0
  141.3400   77.2230  221.2750 C   0  0  0  0  0  0  0  0  0  0  0  0
  141.0130   75.9040  221.4500 C   0  0  0  0  0  0  0  0  0  0  0  0
  141.4826   73.0226  219.9712 H   0  0  0  0  0  0  0  0  0  0  0  0
  142.4674   72.9921  221.4945 H   0  0  0  0  0  0  0  0  0  0  0  0
  139.9877   71.2835  219.8931 H   0  0  0  0  0  0  0  0  0  0  0  0
  139.3826   68.9127  220.1832 H   0  0  0  0  0  0  0  0  0  0  0  0
  139.0735   68.0191  222.4868 H   0  0  0  0  0  0  0  0  0  0  0  0
  138.3893   69.4365  227.5424 H   0  0  0  0  0  0  0  0  0  0  0  0
  139.8108   68.3709  227.2901 H   0  0  0  0  0  0  0  0  0  0  0  0
  139.5665   70.8281  228.8860 H   0  0  0  0  0  0  0  0  0  0  0  0
  140.8206   69.6019  228.9535 H   0  0  0  0  0  0  0  0  0  0  0  0
  141.3249   72.0607  227.8792 H   0  0  0  0  0  0  0  0  0  0  0  0
  142.0897   70.6769  227.1563 H   0  0  0  0  0  0  0  0  0  0  0  0
  139.4076   72.0282  226.3779 H   0  0  0  0  0  0  0  0  0  0  0  0
  140.7380   71.6771  225.2914 H   0  0  0  0  0  0  0  0  0  0  0  0
  139.9779   71.8838  224.1236 H   0  0  0  0  0  0  0  0  0  0  0  0
  138.2224   76.1622  223.2979 H   0  0  0  0  0  0  0  0  0  0  0  0
  138.7852   78.5682  223.0045 H   0  0  0  0  0  0  0  0  0  0  0  0
  141.0243   80.1127  223.7403 H   0  0  0  0  0  0  0  0  0  0  0  0
  141.6196   82.4916  223.2642 H   0  0  0  0  0  0  0  0  0  0  0  0
  141.8193   83.2966  220.9267 H   0  0  0  0  0  0  0  0  0  0  0  0
  141.4254   81.7322  219.0114 H   0  0  0  0  0  0  0  0  0  0  0  0
  140.8360   79.3875  219.5279 H   0  0  0  0  0  0  0  0  0  0  0  0
  142.2322   77.5007  220.6946 H   0  0  0  0  0  0  0  0  0  0  0  0
  1  2  2  0
  2  3  1  0
  3  4  1  0
  4  5  1  0
  5  6  2  0
  6  7  1  0
  7  8  2  0
  8  9  1  0
  9 10  1  0
 10 11  2  0
 10 12  1  0
 12 13  1  0
 13 14  1  0
 14 15  1  0
 15 16  1  0
  9 17  2  0
  4 18  2  0
 18 19  1  0
 19 20  2  0
 20 21  1  0
 21 22  2  0
 22 23  1  0
 23 24  2  0
 24 25  1  0
 25 26  2  0
 26 27  1  0
 27 28  2  0
 22 29  1  0
 29 30  2  0
 30  2  1  0
 17  5  1  0
 30 19  1  0
 16 12  1  0
 28 23  1  0
  3 31  1  0
  3 32  1  0
  6 33  1  0
  7 34  1  0
  8 35  1  0
 13 36  1  0
 13 37  1  0
 14 38  1  0
 14 39  1  0
 15 40  1  0
 15 41  1  0
 16 42  1  0
 16 43  1  0
 17 44  1  0
 20 45  1  0
 21 46  1  0
 24 47  1  0
 25 48  1  0
 26 49  1  0
 27 50  1  0
 28 51  1  0
 29 52  1  0
M  END
>  <smiles>  (45) 
O=C1CC(c2cccc(C(=O)N3CCCC3)c2)=Nc2ccc(-c3ccccc3)cc21

>  <score_type>  (45) 
oracle

>  <origin>  (45) 
autodockgpu

>  <m_score__min__energy>  (45) 
-9.2899999999999991

>  <m_primary>  (45) 
energy

>  <rmsd>  (45) 
6.854861986190991

>  <m_score__min__rmsd>  (45) 
6.854861986190991

>  <meeko>  (45) 
{"free_energy": -9.02, "intermolecular_energy": -9.91, "internal_energy": -0.87, "cluster_size": 50, "cluster_id": 1, "rank_in_cluster": 47}

>  <energy>  (45) 
-9.03

>  <cluster_rmsd>  (45) 
0.27

>  <cluster>  (45) 
1

$$$$

     RDKit          3D

 52 56  0  0  0  0  0  0  0  0999 V2000
  142.8860   74.9120  220.4860 O   0  0  0  0  0  0  0  0  0  0  0  0
  141.8040   74.6110  221.0700 C   0  0  0  0  0  0  0  0  0  0  0  0
  141.4780   73.1850  221.1940 C   0  0  0  0  0  0  0  0  0  0  0  0
  140.1870   72.9730  221.8980 C   0  0  0  0  0  0  0  0  0  0  0  0
  139.7520   71.5750  222.0850 C   0  0  0  0  0  0  0  0  0  0  0  0
  139.2700   70.8130  221.0430 C   0  0  0  0  0  0  0  0  0  0  0  0
  138.8550   69.5060  221.1830 C   0  0  0  0  0  0  0  0  0  0  0  0
  138.9290   68.9310  222.4330 C   0  0  0  0  0  0  0  0  0  0  0  0
  139.4050   69.6560  223.5080 C   0  0  0  0  0  0  0  0  0  0  0  0
  139.4510   68.9730  224.7950 C   0  0  0  0  0  0  0  0  0  0  0  0
  139.2200   67.7300  224.8640 O   0  0  0  0  0  0  0  0  0  0  0  0
  139.7460   69.6290  226.0160 N   0  0  0  0  0  0  0  0  0  0  0  0
  139.8020   68.9930  227.3080 C   0  0  0  0  0  0  0  0  0  0  0  0
  140.4920   69.8990  228.2730 C   0  0  0  0  0  0  0  0  0  0  0  0
  141.0820   70.9760  227.3930 C   0  0  0  0  0  0  0  0  0  0  0  0
  140.0520   71.0330  226.2660 C   0  0  0  0  0  0  0  0  0  0  0  0
  139.8130   70.9660  223.3350 C   0  0  0  0  0  0  0  0  0  0  0  0
  139.4570   73.9280  222.3390 N   0  0  0  0  0  0  0  0  0  0  0  0
  139.7800   75.3060  222.2150 C   0  0  0  0  0  0  0  0  0  0  0  0
  138.9800   76.3140  222.6960 C   0  0  0  0  0  0  0  0  0  0  0  0
  139.3680   77.6500  222.5340 C   0  0  0  0  0  0  0  0  0  0  0  0
  140.5450   77.9880  221.8980 C   0  0  0  0  0  0  0  0  0  0  0  0
  140.9700   79.3780  221.7170 C   0  0  0  0  0  0  0  0  0  0  0  0
  141.0640   79.9700  220.4720 C   0  0  0  0  0  0  0  0  0  0  0  0
  141.4780   81.2990  220.3920 C   0  0  0  0  0  0  0  0  0  0  0  0
  141.7910   82.0180  221.5420 C   0  0  0  0  0  0  0  0  0  0  0  0
  141.7000   81.4300  222.7930 C   0  0  0  0  0  0  0  0  0  0  0  0
  141.2880   80.1160  222.8340 C   0  0  0  0  0  0  0  0  0  0  0  0
  141.3420   76.9710  221.4180 C   0  0  0  0  0  0  0  0  0  0  0  0
  140.9480   75.6700  221.5840 C   0  0  0  0  0  0  0  0  0  0  0  0
  141.4108   72.7464  220.1875 H   0  0  0  0  0  0  0  0  0  0  0  0
  142.2719   72.7029  221.7834 H   0  0  0  0  0  0  0  0  0  0  0  0
  139.2133   71.2727  220.0453 H   0  0  0  0  0  0  0  0  0  0  0  0
  138.4754   68.9379  220.3209 H   0  0  0  0  0  0  0  0  0  0  0  0
  138.6072   67.8888  222.5756 H   0  0  0  0  0  0  0  0  0  0  0  0
  138.7807   68.7884  227.6616 H   0  0  0  0  0  0  0  0  0  0  0  0
  140.3566   68.0463  227.2295 H   0  0  0  0  0  0  0  0  0  0  0  0
  139.7760   70.3268  228.9902 H   0  0  0  0  0  0  0  0  0  0  0  0
  141.2499   69.3800  228.8781 H   0  0  0  0  0  0  0  0  0  0  0  0
  141.1528   71.9368  227.9238 H   0  0  0  0  0  0  0  0  0  0  0  0
  142.1094   70.7727  227.0567 H   0  0  0  0  0  0  0  0  0  0  0  0
  139.1525   71.5816  226.5823 H   0  0  0  0  0  0  0  0  0  0  0  0
  140.4218   71.5575  225.3726 H   0  0  0  0  0  0  0  0  0  0  0  0
  140.1910   71.5346  224.1974 H   0  0  0  0  0  0  0  0  0  0  0  0
  138.0366   76.0723  223.2074 H   0  0  0  0  0  0  0  0  0  0  0  0
  138.7192   78.4486  222.9229 H   0  0  0  0  0  0  0  0  0  0  0  0
  140.8170   79.4038  219.5618 H   0  0  0  0  0  0  0  0  0  0  0  0
  141.5582   81.7850  219.4085 H   0  0  0  0  0  0  0  0  0  0  0  0
  142.1146   83.0658  221.4564 H   0  0  0  0  0  0  0  0  0  0  0  0
  141.9451   81.9858  223.7101 H   0  0  0  0  0  0  0  0  0  0  0  0
  141.2086   79.6284  223.8168 H   0  0  0  0  0  0  0  0  0  0  0  0
  142.2873   77.2026  220.9055 H   0  0  0  0  0  0  0  0  0  0  0  0
  1  2  2  0
  2  3  1  0
  3  4  1  0
  4  5  1  0
  5  6  2  0
  6  7  1  0
  7  8  2  0
  8  9  1  0
  9 10  1  0
 10 11  2  0
 10 12  1  0
 12 13  1  0
 13 14  1  0
 14 15  1  0
 15 16  1  0
  9 17  2  0
  4 18  2  0
 18 19  1  0
 19 20  2  0
 20 21  1  0
 21 22  2  0
 22 23  1  0
 23 24  2  0
 24 25  1  0
 25 26  2  0
 26 27  1  0
 27 28  2  0
 22 29  1  0
 29 30  2  0
 30  2  1  0
 17  5  1  0
 30 19  1  0
 16 12  1  0
 28 23  1  0
  3 31  1  0
  3 32  1  0
  6 33  1  0
  7 34  1  0
  8 35  1  0
 13 36  1  0
 13 37  1  0
 14 38  1  0
 14 39  1  0
 15 40  1  0
 15 41  1  0
 16 42  1  0
 16 43  1  0
 17 44  1  0
 20 45  1  0
 21 46  1  0
 24 47  1  0
 25 48  1  0
 26 49  1  0
 27 50  1  0
 28 51  1  0
 29 52  1  0
M  END
>  <smiles>  (46) 
O=C1CC(c2cccc(C(=O)N3CCCC3)c2)=Nc2ccc(-c3ccccc3)cc21

>  <score_type>  (46) 
oracle

>  <origin>  (46) 
autodockgpu

>  <m_score__min__energy>  (46) 
-9.2899999999999991

>  <m_primary>  (46) 
energy

>  <rmsd>  (46) 
6.804320561668543

>  <m_score__min__rmsd>  (46) 
6.804320561668543

>  <meeko>  (46) 
{"free_energy": -9.24, "intermolecular_energy": -10.14, "internal_energy": -0.87, "cluster_size": 50, "cluster_id": 1, "rank_in_cluster": 22}

>  <energy>  (46) 
-9.02

>  <cluster_rmsd>  (46) 
0.4

>  <cluster>  (46) 
1

$$$$

     RDKit          3D

 52 56  0  0  0  0  0  0  0  0999 V2000
  142.7610   74.7670  220.6910 O   0  0  0  0  0  0  0  0  0  0  0  0
  141.6420   74.4970  221.2160 C   0  0  0  0  0  0  0  0  0  0  0  0
  141.2690   73.0800  221.3200 C   0  0  0  0  0  0  0  0  0  0  0  0
  139.9370   72.9040  221.9520 C   0  0  0  0  0  0  0  0  0  0  0  0
  139.4540   71.5190  222.1140 C   0  0  0  0  0  0  0  0  0  0  0  0
  138.7880   70.8530  221.1070 C   0  0  0  0  0  0  0  0  0  0  0  0
  138.3250   69.5610  221.2260 C   0  0  0  0  0  0  0  0  0  0  0  0
  138.5400   68.8990  222.4160 C   0  0  0  0  0  0  0  0  0  0  0  0
  139.2030   69.5250  223.4530 C   0  0  0  0  0  0  0  0  0  0  0  0
  139.3890   68.7540  224.6760 C   0  0  0  0  0  0  0  0  0  0  0  0
  139.2560   67.4960  224.6610 O   0  0  0  0  0  0  0  0  0  0  0  0
  139.7220   69.3400  225.9230 N   0  0  0  0  0  0  0  0  0  0  0  0
  139.9160   68.6160  227.1540 C   0  0  0  0  0  0  0  0  0  0  0  0
  140.6050   69.5000  228.1410 C   0  0  0  0  0  0  0  0  0  0  0  0
  141.0510   70.6810  227.3120 C   0  0  0  0  0  0  0  0  0  0  0  0
  139.9420   70.7410  226.2630 C   0  0  0  0  0  0  0  0  0  0  0  0
  139.6560   70.8240  223.3030 C   0  0  0  0  0  0  0  0  0  0  0  0
  139.2100   73.8790  222.3530 N   0  0  0  0  0  0  0  0  0  0  0  0
  139.5770   75.2480  222.2480 C   0  0  0  0  0  0  0  0  0  0  0  0
  138.7800   76.2780  222.6850 C   0  0  0  0  0  0  0  0  0  0  0  0
  139.2130   77.6020  222.5450 C   0  0  0  0  0  0  0  0  0  0  0  0
  140.4320   77.9080  221.9740 C   0  0  0  0  0  0  0  0  0  0  0  0
  140.9040   79.2850  221.8180 C   0  0  0  0  0  0  0  0  0  0  0  0
  140.9630   79.9150  220.5890 C   0  0  0  0  0  0  0  0  0  0  0  0
  141.4270   81.2290  220.5320 C   0  0  0  0  0  0  0  0  0  0  0  0
  141.8230   81.8950  221.6890 C   0  0  0  0  0  0  0  0  0  0  0  0
  141.7660   81.2690  222.9230 C   0  0  0  0  0  0  0  0  0  0  0  0
  141.3030   79.9720  222.9410 C   0  0  0  0  0  0  0  0  0  0  0  0
  141.2260   76.8690  221.5380 C   0  0  0  0  0  0  0  0  0  0  0  0
  140.7880   75.5790  221.6820 C   0  0  0  0  0  0  0  0  0  0  0  0
  141.2443   72.6436  220.3106 H   0  0  0  0  0  0  0  0  0  0  0  0
  142.0156   72.5760  221.9513 H   0  0  0  0  0  0  0  0  0  0  0  0
  138.6172   71.3817  220.1576 H   0  0  0  0  0  0  0  0  0  0  0  0
  137.7980   69.0709  220.3941 H   0  0  0  0  0  0  0  0  0  0  0  0
  138.1814   67.8665  222.5401 H   0  0  0  0  0  0  0  0  0  0  0  0
  138.9402   68.3062  227.5562 H   0  0  0  0  0  0  0  0  0  0  0  0
  140.5312   67.7239  226.9648 H   0  0  0  0  0  0  0  0  0  0  0  0
  139.9123   69.8168  228.9346 H   0  0  0  0  0  0  0  0  0  0  0  0
  141.4395   68.9987  228.6531 H   0  0  0  0  0  0  0  0  0  0  0  0
  141.0898   71.6027  227.9111 H   0  0  0  0  0  0  0  0  0  0  0  0
  142.0638   70.5832  226.8940 H   0  0  0  0  0  0  0  0  0  0  0  0
  139.0298   71.1927  226.6800 H   0  0  0  0  0  0  0  0  0  0  0  0
  140.2080   71.3576  225.3918 H   0  0  0  0  0  0  0  0  0  0  0  0
  140.1830   71.3141  224.1349 H   0  0  0  0  0  0  0  0  0  0  0  0
  137.8037   76.0630  223.1439 H   0  0  0  0  0  0  0  0  0  0  0  0
  138.5661   78.4184  222.8986 H   0  0  0  0  0  0  0  0  0  0  0  0
  140.6502   79.3904  219.6742 H   0  0  0  0  0  0  0  0  0  0  0  0
  141.4808   81.7451  219.5621 H   0  0  0  0  0  0  0  0  0  0  0  0
  142.1856   82.9313  221.6220 H   0  0  0  0  0  0  0  0  0  0  0  0
  142.0758   81.7831  223.8448 H   0  0  0  0  0  0  0  0  0  0  0  0
  141.2491   79.4550  223.9104 H   0  0  0  0  0  0  0  0  0  0  0  0
  142.2039   77.0741  221.0779 H   0  0  0  0  0  0  0  0  0  0  0  0
  1  2  2  0
  2  3  1  0
  3  4  1  0
  4  5  1  0
  5  6  2  0
  6  7  1  0
  7  8  2  0
  8  9  1  0
  9 10  1  0
 10 11  2  0
 10 12  1  0
 12 13  1  0
 13 14  1  0
 14 15  1  0
 15 16  1  0
  9 17  2  0
  4 18  2  0
 18 19  1  0
 19 20  2  0
 20 21  1  0
 21 22  2  0
 22 23  1  0
 23 24  2  0
 24 25  1  0
 25 26  2  0
 26 27  1  0
 27 28  2  0
 22 29  1  0
 29 30  2  0
 30  2  1  0
 17  5  1  0
 30 19  1  0
 16 12  1  0
 28 23  1  0
  3 31  1  0
  3 32  1  0
  6 33  1  0
  7 34  1  0
  8 35  1  0
 13 36  1  0
 13 37  1  0
 14 38  1  0
 14 39  1  0
 15 40  1  0
 15 41  1  0
 16 42  1  0
 16 43  1  0
 17 44  1  0
 20 45  1  0
 21 46  1  0
 24 47  1  0
 25 48  1  0
 26 49  1  0
 27 50  1  0
 28 51  1  0
 29 52  1  0
M  END
>  <smiles>  (47) 
O=C1CC(c2cccc(C(=O)N3CCCC3)c2)=Nc2ccc(-c3ccccc3)cc21

>  <score_type>  (47) 
oracle

>  <origin>  (47) 
autodockgpu

>  <m_score__min__energy>  (47) 
-9.2899999999999991

>  <m_primary>  (47) 
energy

>  <rmsd>  (47) 
6.75575766454511

>  <m_score__min__rmsd>  (47) 
6.75575766454511

>  <meeko>  (47) 
{"free_energy": -9.12, "intermolecular_energy": -10.02, "internal_energy": -0.89, "cluster_size": 50, "cluster_id": 1, "rank_in_cluster": 42}

>  <energy>  (47) 
-9.02

>  <cluster_rmsd>  (47) 
0.34

>  <cluster>  (47) 
1

$$$$

     RDKit          3D

 52 56  0  0  0  0  0  0  0  0999 V2000
  142.9810   74.9190  220.4000 O   0  0  0  0  0  0  0  0  0  0  0  0
  141.9200   74.5990  221.0110 C   0  0  0  0  0  0  0  0  0  0  0  0
  141.6220   73.1670  221.1410 C   0  0  0  0  0  0  0  0  0  0  0  0
  140.3550   72.9310  221.8770 C   0  0  0  0  0  0  0  0  0  0  0  0
  139.9490   71.5260  222.0730 C   0  0  0  0  0  0  0  0  0  0  0  0
  139.5840   70.7150  221.0200 C   0  0  0  0  0  0  0  0  0  0  0  0
  139.2010   69.4000  221.1680 C   0  0  0  0  0  0  0  0  0  0  0  0
  139.1830   68.8670  222.4390 C   0  0  0  0  0  0  0  0  0  0  0  0
  139.5400   69.6410  223.5260 C   0  0  0  0  0  0  0  0  0  0  0  0
  139.4940   69.0000  224.8340 C   0  0  0  0  0  0  0  0  0  0  0  0
  139.2110   67.7710  224.9310 O   0  0  0  0  0  0  0  0  0  0  0  0
  139.7550   69.6850  226.0470 N   0  0  0  0  0  0  0  0  0  0  0  0
  139.7220   69.0910  227.3590 C   0  0  0  0  0  0  0  0  0  0  0  0
  140.3990   70.0020  228.3300 C   0  0  0  0  0  0  0  0  0  0  0  0
  141.0750   71.0250  227.4460 C   0  0  0  0  0  0  0  0  0  0  0  0
  140.1050   71.0840  226.2680 C   0  0  0  0  0  0  0  0  0  0  0  0
  139.9200   70.9590  223.3430 C   0  0  0  0  0  0  0  0  0  0  0  0
  139.6190   73.8730  222.3380 N   0  0  0  0  0  0  0  0  0  0  0  0
  139.9130   75.2570  222.2070 C   0  0  0  0  0  0  0  0  0  0  0  0
  139.1080   76.2500  222.7090 C   0  0  0  0  0  0  0  0  0  0  0  0
  139.4680   77.5930  222.5390 C   0  0  0  0  0  0  0  0  0  0  0  0
  140.6220   77.9520  221.8740 C   0  0  0  0  0  0  0  0  0  0  0  0
  141.0180   79.3500  221.6840 C   0  0  0  0  0  0  0  0  0  0  0  0
  141.4740   80.1400  222.7220 C   0  0  0  0  0  0  0  0  0  0  0  0
  141.8290   81.4610  222.4530 C   0  0  0  0  0  0  0  0  0  0  0  0
  141.7270   81.9760  221.1630 C   0  0  0  0  0  0  0  0  0  0  0  0
  141.2710   81.1900  220.1180 C   0  0  0  0  0  0  0  0  0  0  0  0
  140.9290   79.8900  220.4220 C   0  0  0  0  0  0  0  0  0  0  0  0
  141.4250   76.9500  221.3720 C   0  0  0  0  0  0  0  0  0  0  0  0
  141.0590   75.6420  221.5480 C   0  0  0  0  0  0  0  0  0  0  0  0
  141.5365   72.7287  220.1357 H   0  0  0  0  0  0  0  0  0  0  0  0
  142.4391   72.6985  221.7091 H   0  0  0  0  0  0  0  0  0  0  0  0
  139.5994   71.1411  220.0060 H   0  0  0  0  0  0  0  0  0  0  0  0
  138.9174   68.7923  220.2961 H   0  0  0  0  0  0  0  0  0  0  0  0
  138.8827   67.8194  222.5885 H   0  0  0  0  0  0  0  0  0  0  0  0
  138.6772   68.9370  227.6666 H   0  0  0  0  0  0  0  0  0  0  0  0
  140.2423   68.1220  227.3382 H   0  0  0  0  0  0  0  0  0  0  0  0
  139.6660   70.4812  228.9956 H   0  0  0  0  0  0  0  0  0  0  0  0
  141.1038   69.4753  228.9901 H   0  0  0  0  0  0  0  0  0  0  0  0
  141.1590   71.9999  227.9486 H   0  0  0  0  0  0  0  0  0  0  0  0
  142.1084   70.7702  227.1683 H   0  0  0  0  0  0  0  0  0  0  0  0
  139.2140   71.6773  226.5213 H   0  0  0  0  0  0  0  0  0  0  0  0
  140.5390   71.5636  225.3783 H   0  0  0  0  0  0  0  0  0  0  0  0
  140.2033   71.5673  224.2146 H   0  0  0  0  0  0  0  0  0  0  0  0
  138.1822   75.9912  223.2436 H   0  0  0  0  0  0  0  0  0  0  0  0
  138.8153   78.3797  222.9453 H   0  0  0  0  0  0  0  0  0  0  0  0
  141.5553   79.7342  223.7412 H   0  0  0  0  0  0  0  0  0  0  0  0
  142.1935   82.1034  223.2682 H   0  0  0  0  0  0  0  0  0  0  0  0
  142.0125   83.0209  220.9717 H   0  0  0  0  0  0  0  0  0  0  0  0
  141.1858   81.5843  219.0946 H   0  0  0  0  0  0  0  0  0  0  0  0
  140.5636   79.2467  219.6080 H   0  0  0  0  0  0  0  0  0  0  0  0
  142.3519   77.1990  220.8346 H   0  0  0  0  0  0  0  0  0  0  0  0
  1  2  2  0
  2  3  1  0
  3  4  1  0
  4  5  1  0
  5  6  2  0
  6  7  1  0
  7  8  2  0
  8  9  1  0
  9 10  1  0
 10 11  2  0
 10 12  1  0
 12 13  1  0
 13 14  1  0
 14 15  1  0
 15 16  1  0
  9 17  2  0
  4 18  2  0
 18 19  1  0
 19 20  2  0
 20 21  1  0
 21 22  2  0
 22 23  1  0
 23 24  2  0
 24 25  1  0
 25 26  2  0
 26 27  1  0
 27 28  2  0
 22 29  1  0
 29 30  2  0
 30  2  1  0
 17  5  1  0
 30 19  1  0
 16 12  1  0
 28 23  1  0
  3 31  1  0
  3 32  1  0
  6 33  1  0
  7 34  1  0
  8 35  1  0
 13 36  1  0
 13 37  1  0
 14 38  1  0
 14 39  1  0
 15 40  1  0
 15 41  1  0
 16 42  1  0
 16 43  1  0
 17 44  1  0
 20 45  1  0
 21 46  1  0
 24 47  1  0
 25 48  1  0
 26 49  1  0
 27 50  1  0
 28 51  1  0
 29 52  1  0
M  END
>  <smiles>  (48) 
O=C1CC(c2cccc(C(=O)N3CCCC3)c2)=Nc2ccc(-c3ccccc3)cc21

>  <score_type>  (48) 
oracle

>  <origin>  (48) 
autodockgpu

>  <m_score__min__energy>  (48) 
-9.2899999999999991

>  <m_primary>  (48) 
energy

>  <rmsd>  (48) 
6.814577882332233

>  <m_score__min__rmsd>  (48) 
6.814577882332233

>  <meeko>  (48) 
{"free_energy": -9.18, "intermolecular_energy": -10.07, "internal_energy": -0.86, "cluster_size": 50, "cluster_id": 1, "rank_in_cluster": 35}

>  <energy>  (48) 
-8.37

>  <cluster_rmsd>  (48) 
0.87

>  <cluster>  (48) 
1

$$$$

     RDKit          3D

 52 56  0  0  0  0  0  0  0  0999 V2000
  142.9400   74.8920  220.2500 O   0  0  0  0  0  0  0  0  0  0  0  0
  141.9070   74.5700  220.9060 C   0  0  0  0  0  0  0  0  0  0  0  0
  141.6180   73.1370  221.0500 C   0  0  0  0  0  0  0  0  0  0  0  0
  140.3820   72.8990  221.8390 C   0  0  0  0  0  0  0  0  0  0  0  0
  139.9890   71.4930  222.0530 C   0  0  0  0  0  0  0  0  0  0  0  0
  139.6630   70.6560  221.0070 C   0  0  0  0  0  0  0  0  0  0  0  0
  139.2910   69.3400  221.1720 C   0  0  0  0  0  0  0  0  0  0  0  0
  139.2440   68.8340  222.4530 C   0  0  0  0  0  0  0  0  0  0  0  0
  139.5620   69.6340  223.5330 C   0  0  0  0  0  0  0  0  0  0  0  0
  139.4870   69.0200  224.8530 C   0  0  0  0  0  0  0  0  0  0  0  0
  139.1790   67.7980  224.9700 O   0  0  0  0  0  0  0  0  0  0  0  0
  139.7460   69.7240  226.0560 N   0  0  0  0  0  0  0  0  0  0  0  0
  139.6840   69.1560  227.3790 C   0  0  0  0  0  0  0  0  0  0  0  0
  140.3660   70.0730  228.3400 C   0  0  0  0  0  0  0  0  0  0  0  0
  141.0720   71.0650  227.4460 C   0  0  0  0  0  0  0  0  0  0  0  0
  140.1190   71.1190  226.2540 C   0  0  0  0  0  0  0  0  0  0  0  0
  139.9310   70.9520  223.3340 C   0  0  0  0  0  0  0  0  0  0  0  0
  139.6650   73.8400  222.3290 N   0  0  0  0  0  0  0  0  0  0  0  0
  139.9500   75.2240  222.1850 C   0  0  0  0  0  0  0  0  0  0  0  0
  139.1650   76.2160  222.7200 C   0  0  0  0  0  0  0  0  0  0  0  0
  139.5150   77.5600  222.5340 C   0  0  0  0  0  0  0  0  0  0  0  0
  140.6390   77.9210  221.8200 C   0  0  0  0  0  0  0  0  0  0  0  0
  141.0230   79.3190  221.6120 C   0  0  0  0  0  0  0  0  0  0  0  0
  141.1430   79.8770  220.3540 C   0  0  0  0  0  0  0  0  0  0  0  0
  141.5140   81.2170  220.2480 C   0  0  0  0  0  0  0  0  0  0  0  0
  141.7600   81.9800  221.3870 C   0  0  0  0  0  0  0  0  0  0  0  0
  141.6420   81.4260  222.6510 C   0  0  0  0  0  0  0  0  0  0  0  0
  141.2740   80.1000  222.7170 C   0  0  0  0  0  0  0  0  0  0  0  0
  141.4220   76.9200  221.2860 C   0  0  0  0  0  0  0  0  0  0  0  0
  141.0660   75.6110  221.4780 C   0  0  0  0  0  0  0  0  0  0  0  0
  141.4919   72.6971  220.0497 H   0  0  0  0  0  0  0  0  0  0  0  0
  142.4591   72.6710  221.5842 H   0  0  0  0  0  0  0  0  0  0  0  0
  139.7021   71.0612  219.9851 H   0  0  0  0  0  0  0  0  0  0  0  0
  139.0386   68.7108  220.3058 H   0  0  0  0  0  0  0  0  0  0  0  0
  138.9514   67.7863  222.6164 H   0  0  0  0  0  0  0  0  0  0  0  0
  138.6325   69.0283  227.6756 H   0  0  0  0  0  0  0  0  0  0  0  0
  140.1848   68.1766  227.3843 H   0  0  0  0  0  0  0  0  0  0  0  0
  139.6340   70.5790  228.9866 H   0  0  0  0  0  0  0  0  0  0  0  0
  141.0526   69.5461  229.0190 H   0  0  0  0  0  0  0  0  0  0  0  0
  141.1677   72.0478  227.9307 H   0  0  0  0  0  0  0  0  0  0  0  0
  142.1039   70.7855  227.1872 H   0  0  0  0  0  0  0  0  0  0  0  0
  139.2361   71.7337  226.4835 H   0  0  0  0  0  0  0  0  0  0  0  0
  140.5736   71.5728  225.3610 H   0  0  0  0  0  0  0  0  0  0  0  0
  140.1822   71.5815  224.2004 H   0  0  0  0  0  0  0  0  0  0  0  0
  138.2631   75.9558  223.2935 H   0  0  0  0  0  0  0  0  0  0  0  0
  138.8787   78.3457  222.9674 H   0  0  0  0  0  0  0  0  0  0  0  0
  140.9496   79.2759  219.4533 H   0  0  0  0  0  0  0  0  0  0  0  0
  141.6135   81.6767  219.2536 H   0  0  0  0  0  0  0  0  0  0  0  0
  142.0515   83.0354  221.2814 H   0  0  0  0  0  0  0  0  0  0  0  0
  141.8330   82.0167  223.5590 H   0  0  0  0  0  0  0  0  0  0  0  0
  141.1751   79.6387  223.7107 H   0  0  0  0  0  0  0  0  0  0  0  0
  142.3253   77.1702  220.7104 H   0  0  0  0  0  0  0  0  0  0  0  0
  1  2  2  0
  2  3  1  0
  3  4  1  0
  4  5  1  0
  5  6  2  0
  6  7  1  0
  7  8  2  0
  8  9  1  0
  9 10  1  0
 10 11  2  0
 10 12  1  0
 12 13  1  0
 13 14  1  0
 14 15  1  0
 15 16  1  0
  9 17  2  0
  4 18  2  0
 18 19  1  0
 19 20  2  0
 20 21  1  0
 21 22  2  0
 22 23  1  0
 23 24  2  0
 24 25  1  0
 25 26  2  0
 26 27  1  0
 27 28  2  0
 22 29  1  0
 29 30  2  0
 30  2  1  0
 17  5  1  0
 30 19  1  0
 16 12  1  0
 28 23  1  0
  3 31  1  0
  3 32  1  0
  6 33  1  0
  7 34  1  0
  8 35  1  0
 13 36  1  0
 13 37  1  0
 14 38  1  0
 14 39  1  0
 15 40  1  0
 15 41  1  0
 16 42  1  0
 16 43  1  0
 17 44  1  0
 20 45  1  0
 21 46  1  0
 24 47  1  0
 25 48  1  0
 26 49  1  0
 27 50  1  0
 28 51  1  0
 29 52  1  0
M  END
>  <smiles>  (49) 
O=C1CC(c2cccc(C(=O)N3CCCC3)c2)=Nc2ccc(-c3ccccc3)cc21

>  <score_type>  (49) 
oracle

>  <origin>  (49) 
autodockgpu

>  <m_score__min__energy>  (49) 
-9.2899999999999991

>  <m_primary>  (49) 
energy

>  <rmsd>  (49) 
6.824207380528666

>  <m_score__min__rmsd>  (49) 
6.824207380528666

>  <meeko>  (49) 
{"free_energy": -9.22, "intermolecular_energy": -10.11, "internal_energy": -0.86, "cluster_size": 50, "cluster_id": 1, "rank_in_cluster": 25}

>  <energy>  (49) 
-8.25

>  <cluster_rmsd>  (49) 
1.72

>  <cluster>  (49) 
1

$$$$

     RDKit          3D

 52 56  0  0  0  0  0  0  0  0999 V2000
  142.9810   74.9090  220.4210 O   0  0  0  0  0  0  0  0  0  0  0  0
  141.9170   74.5900  221.0280 C   0  0  0  0  0  0  0  0  0  0  0  0
  141.6150   73.1590  221.1560 C   0  0  0  0  0  0  0  0  0  0  0  0
  140.3430   72.9250  221.8860 C   0  0  0  0  0  0  0  0  0  0  0  0
  139.9340   71.5210  222.0790 C   0  0  0  0  0  0  0  0  0  0  0  0
  139.5690   70.7120  221.0240 C   0  0  0  0  0  0  0  0  0  0  0  0
  139.1820   69.3980  221.1700 C   0  0  0  0  0  0  0  0  0  0  0  0
  139.1610   68.8630  222.4400 C   0  0  0  0  0  0  0  0  0  0  0  0
  139.5190   69.6340  223.5280 C   0  0  0  0  0  0  0  0  0  0  0  0
  139.4690   68.9920  224.8350 C   0  0  0  0  0  0  0  0  0  0  0  0
  139.1790   67.7630  224.9300 O   0  0  0  0  0  0  0  0  0  0  0  0
  139.7340   69.6730  226.0500 N   0  0  0  0  0  0  0  0  0  0  0  0
  139.6980   69.0770  227.3610 C   0  0  0  0  0  0  0  0  0  0  0  0
  140.3790   69.9830  228.3330 C   0  0  0  0  0  0  0  0  0  0  0  0
  141.0610   71.0030  227.4510 C   0  0  0  0  0  0  0  0  0  0  0  0
  140.0910   71.0690  226.2730 C   0  0  0  0  0  0  0  0  0  0  0  0
  139.9020   70.9510  223.3490 C   0  0  0  0  0  0  0  0  0  0  0  0
  139.6080   73.8680  222.3440 N   0  0  0  0  0  0  0  0  0  0  0  0
  139.9050   75.2510  222.2160 C   0  0  0  0  0  0  0  0  0  0  0  0
  139.1000   76.2460  222.7150 C   0  0  0  0  0  0  0  0  0  0  0  0
  139.4640   77.5880  222.5480 C   0  0  0  0  0  0  0  0  0  0  0  0
  140.6220   77.9460  221.8880 C   0  0  0  0  0  0  0  0  0  0  0  0
  141.0210   79.3420  221.7010 C   0  0  0  0  0  0  0  0  0  0  0  0
  141.4570   80.1360  222.7450 C   0  0  0  0  0  0  0  0  0  0  0  0
  141.8180   81.4560  222.4780 C   0  0  0  0  0  0  0  0  0  0  0  0
  141.7400   81.9670  221.1850 C   0  0  0  0  0  0  0  0  0  0  0  0
  141.3040   81.1770  220.1340 C   0  0  0  0  0  0  0  0  0  0  0  0
  140.9560   79.8780  220.4360 C   0  0  0  0  0  0  0  0  0  0  0  0
  141.4250   76.9420  221.3890 C   0  0  0  0  0  0  0  0  0  0  0  0
  141.0550   75.6350  221.5620 C   0  0  0  0  0  0  0  0  0  0  0  0
  141.5336   72.7213  220.1501 H   0  0  0  0  0  0  0  0  0  0  0  0
  142.4282   72.6886  221.7283 H   0  0  0  0  0  0  0  0  0  0  0  0
  139.5878   71.1390  220.0104 H   0  0  0  0  0  0  0  0  0  0  0  0
  138.8976   68.7924  220.2969 H   0  0  0  0  0  0  0  0  0  0  0  0
  138.8574   67.8161  222.5876 H   0  0  0  0  0  0  0  0  0  0  0  0
  138.6524   68.9275  227.6682 H   0  0  0  0  0  0  0  0  0  0  0  0
  140.2135   68.1055  227.3388 H   0  0  0  0  0  0  0  0  0  0  0  0
  139.6481   70.4655  228.9985 H   0  0  0  0  0  0  0  0  0  0  0  0
  141.0805   69.4517  228.9930 H   0  0  0  0  0  0  0  0  0  0  0  0
  141.1506   71.9766  227.9550 H   0  0  0  0  0  0  0  0  0  0  0  0
  142.0930   70.7428  227.1731 H   0  0  0  0  0  0  0  0  0  0  0  0
  139.2031   71.6665  226.5273 H   0  0  0  0  0  0  0  0  0  0  0  0
  140.5274   71.5478  225.3840 H   0  0  0  0  0  0  0  0  0  0  0  0
  140.1853   71.5567  224.2224 H   0  0  0  0  0  0  0  0  0  0  0  0
  138.1709   75.9891  223.2449 H   0  0  0  0  0  0  0  0  0  0  0  0
  138.8113   78.3756  222.9526 H   0  0  0  0  0  0  0  0  0  0  0  0
  141.5180   79.7341  223.7671 H   0  0  0  0  0  0  0  0  0  0  0  0
  142.1682   82.1007  223.2976 H   0  0  0  0  0  0  0  0  0  0  0  0
  142.0284   83.0115  220.9957 H   0  0  0  0  0  0  0  0  0  0  0  0
  141.2386   81.5676  219.1078 H   0  0  0  0  0  0  0  0  0  0  0  0
  140.6057   79.2321  219.6174 H   0  0  0  0  0  0  0  0  0  0  0  0
  142.3552   77.1891  220.8564 H   0  0  0  0  0  0  0  0  0  0  0  0
  1  2  2  0
  2  3  1  0
  3  4  1  0
  4  5  1  0
  5  6  2  0
  6  7  1  0
  7  8  2  0
  8  9  1  0
  9 10  1  0
 10 11  2  0
 10 12  1  0
 12 13  1  0
 13 14  1  0
 14 15  1  0
 15 16  1  0
  9 17  2  0
  4 18  2  0
 18 19  1  0
 19 20  2  0
 20 21  1  0
 21 22  2  0
 22 23  1  0
 23 24  2  0
 24 25  1  0
 25 26  2  0
 26 27  1  0
 27 28  2  0
 22 29  1  0
 29 30  2  0
 30  2  1  0
 17  5  1  0
 30 19  1  0
 16 12  1  0
 28 23  1  0
  3 31  1  0
  3 32  1  0
  6 33  1  0
  7 34  1  0
  8 35  1  0
 13 36  1  0
 13 37  1  0
 14 38  1  0
 14 39  1  0
 15 40  1  0
 15 41  1  0
 16 42  1  0
 16 43  1  0
 17 44  1  0
 20 45  1  0
 21 46  1  0
 24 47  1  0
 25 48  1  0
 26 49  1  0
 27 50  1  0
 28 51  1  0
 29 52  1  0
M  END
>  <smiles>  (50) 
O=C1CC(c2cccc(C(=O)N3CCCC3)c2)=Nc2ccc(-c3ccccc3)cc21

>  <score_type>  (50) 
oracle

>  <origin>  (50) 
autodockgpu

>  <m_score__min__energy>  (50) 
-9.2899999999999991

>  <m_primary>  (50) 
energy

>  <rmsd>  (50) 
6.807851816841337

>  <m_score__min__rmsd>  (50) 
6.807851816841337

>  <meeko>  (50) 
{"free_energy": -9.18, "intermolecular_energy": -10.08, "internal_energy": -0.86, "cluster_size": 50, "cluster_id": 1, "rank_in_cluster": 33}

>  <energy>  (50) 
-8.22

>  <cluster_rmsd>  (50) 
1.71

>  <cluster>  (50) 
1

$$$$
