
     RDKit          3D

 47 50  0  0  0  0  0  0  0  0999 V2000
  141.0580   72.2800  221.4240 O   0  0  0  0  0  0  0  0  0  0  0  0
  140.1650   72.4900  222.3040 C   0  0  0  0  0  0  0  0  0  0  0  0
  139.2920   73.6010  222.1960 N   0  0  0  0  0  0  0  0  0  0  0  0
  139.4470   74.4830  221.0630 C   0  0  0  0  0  0  0  0  0  0  0  0
  140.5400   75.4390  221.3830 C   0  0  0  0  0  0  0  0  0  0  0  0
  140.4550   76.2910  222.3070 O   0  0  0  0  0  0  0  0  0  0  0  0
  141.7420   75.4070  220.6280 N   0  0  0  0  0  0  0  0  0  0  0  0
  142.0950   76.2540  219.5020 C   0  0  0  0  0  0  0  0  0  0  0  0
  142.8120   75.2440  218.6230 C   0  0  0  0  0  0  0  0  0  0  0  0
  143.7660   74.6440  219.6610 C   0  0  2  0  0  0  0  0  0  0  0  0
  144.4230   73.4230  219.2050 C   0  0  0  0  0  0  0  0  0  0  0  0
  144.1010   72.2300  219.8460 C   0  0  0  0  0  0  0  0  0  0  0  0
  144.6740   71.0340  219.4800 C   0  0  0  0  0  0  0  0  0  0  0  0
  145.5860   71.0220  218.4550 C   0  0  0  0  0  0  0  0  0  0  0  0
  145.8960   72.1730  217.8370 N   0  0  0  0  0  0  0  0  0  0  0  0
  145.3310   73.3610  218.1960 C   0  0  0  0  0  0  0  0  0  0  0  0
  142.8760   74.4940  220.8470 C   0  0  0  0  0  0  0  0  0  0  0  0
  140.0390   71.5680  223.4420 C   0  0  0  0  0  0  0  0  0  0  0  0
  139.3620   70.3750  223.2820 C   0  0  0  0  0  0  0  0  0  0  0  0
  139.2790   69.5500  224.3920 C   0  0  0  0  0  0  0  0  0  0  0  0
  139.8320   69.8800  225.6010 C   0  0  0  0  0  0  0  0  0  0  0  0
  139.7630   69.0750  226.7210 C   0  0  0  0  0  0  0  0  0  0  0  0
  140.3530   69.5000  227.8900 C   0  0  0  0  0  0  0  0  0  0  0  0
  140.3090   68.7310  229.0290 F   0  0  0  0  0  0  0  0  0  0  0  0
  141.0190   70.7010  228.0030 C   0  0  0  0  0  0  0  0  0  0  0  0
  141.0900   71.5110  226.8800 C   0  0  0  0  0  0  0  0  0  0  0  0
  140.4980   71.0800  225.7140 C   0  0  0  0  0  0  0  0  0  0  0  0
  140.5790   71.8800  224.6380 N   0  0  0  0  0  0  0  0  0  0  0  0
  138.5760   73.7260  222.9450 H   0  0  0  0  0  0  0  0  0  0  0  0
  139.7086   73.9005  220.1673 H   0  0  0  0  0  0  0  0  0  0  0  0
  138.5093   75.0218  220.8621 H   0  0  0  0  0  0  0  0  0  0  0  0
  141.2035   76.6657  219.0063 H   0  0  0  0  0  0  0  0  0  0  0  0
  142.6872   77.1441  219.7610 H   0  0  0  0  0  0  0  0  0  0  0  0
  142.1218   74.4908  218.2153 H   0  0  0  0  0  0  0  0  0  0  0  0
  143.2948   75.6604  217.7266 H   0  0  0  0  0  0  0  0  0  0  0  0
  144.6450   75.2671  219.8827 H   0  0  0  0  0  0  0  0  0  0  0  0
  143.3690   72.2439  220.6669 H   0  0  0  0  0  0  0  0  0  0  0  0
  144.4054   70.1029  220.0004 H   0  0  0  0  0  0  0  0  0  0  0  0
  146.0584   70.0790  218.1427 H   0  0  0  0  0  0  0  0  0  0  0  0
  145.6137   74.2804  217.6623 H   0  0  0  0  0  0  0  0  0  0  0  0
  142.5200   73.4563  220.9277 H   0  0  0  0  0  0  0  0  0  0  0  0
  143.4080   74.7323  221.7799 H   0  0  0  0  0  0  0  0  0  0  0  0
  138.9103   70.0932  222.3194 H   0  0  0  0  0  0  0  0  0  0  0  0
  138.7476   68.5914  224.2986 H   0  0  0  0  0  0  0  0  0  0  0  0
  139.2432   68.1064  226.6796 H   0  0  0  0  0  0  0  0  0  0  0  0
  141.4796   71.0073  228.9538 H   0  0  0  0  0  0  0  0  0  0  0  0
  141.6095   72.4798  226.9198 H   0  0  0  0  0  0  0  0  0  0  0  0
  1  2  2  0
  2  3  1  0
  3  4  1  0
  4  5  1  0
  5  6  2  0
  5  7  1  0
  7  8  1  0
  8  9  1  0
  9 10  1  0
 10 11  1  0
 11 12  2  0
 12 13  1  0
 13 14  2  0
 14 15  1  0
 15 16  2  0
 10 17  1  0
  2 18  1  0
 18 19  2  0
 19 20  1  0
 20 21  2  0
 21 22  1  0
 22 23  2  0
 23 24  1  0
 23 25  1  0
 25 26  2  0
 26 27  1  0
 27 28  2  0
 17  7  1  0
 28 18  1  0
 16 11  1  0
 27 21  1  0
  3 29  1  0
  4 30  1  0
  4 31  1  0
  8 32  1  0
  8 33  1  0
  9 34  1  0
  9 35  1  0
 10 36  1  1
 12 37  1  0
 13 38  1  0
 14 39  1  0
 16 40  1  0
 17 41  1  0
 17 42  1  0
 19 43  1  0
 20 44  1  0
 22 45  1  0
 25 46  1  0
 26 47  1  0
M  END
>  <smiles>  (1) 
O=C(NCC(=O)N1CC[C@H](c2cccnc2)C1)c1ccc2cc(F)ccc2n1

>  <score_type>  (1) 
oracle

>  <origin>  (1) 
autodockgpu

>  <m_score__min__energy>  (1) 
-8.6600000000000001

>  <m_primary>  (1) 
energy

>  <rmsd>  (1) 
2.3644598298252224

>  <m_score__min__rmsd>  (1) 
2.3644598298252224

>  <meeko>  (1) 
{"free_energy": -7.97, "intermolecular_energy": -9.46, "internal_energy": -1.33, "cluster_size": 9, "cluster_id": 2, "rank_in_cluster": 7}

>  <energy>  (1) 
-8.66

>  <cluster_rmsd>  (1) 
0.0

>  <cluster>  (1) 
1

$$$$

     RDKit          3D

 47 50  0  0  0  0  0  0  0  0999 V2000
  139.2650   71.3720  221.1440 O   0  0  0  0  0  0  0  0  0  0  0  0
  139.4350   71.8930  222.2910 C   0  0  0  0  0  0  0  0  0  0  0  0
  139.4450   73.3010  222.4500 N   0  0  0  0  0  0  0  0  0  0  0  0
  139.2590   74.1220  221.2760 C   0  0  0  0  0  0  0  0  0  0  0  0
  138.8360   75.4710  221.7330 C   0  0  0  0  0  0  0  0  0  0  0  0
  137.8070   75.6650  222.4340 O   0  0  0  0  0  0  0  0  0  0  0  0
  139.6100   76.6060  221.3760 N   0  0  0  0  0  0  0  0  0  0  0  0
  140.6270   76.6880  220.3420 C   0  0  0  0  0  0  0  0  0  0  0  0
  141.6370   77.5880  221.0330 C   0  0  0  0  0  0  0  0  0  0  0  0
  140.6990   78.7080  221.4920 C   0  0  2  0  0  0  0  0  0  0  0  0
  141.3150   79.6220  222.4500 C   0  0  0  0  0  0  0  0  0  0  0  0
  142.7030   79.6220  222.5520 C   0  0  0  0  0  0  0  0  0  0  0  0
  143.3640   80.4510  223.4290 C   0  0  0  0  0  0  0  0  0  0  0  0
  142.6310   81.2980  224.2210 C   0  0  0  0  0  0  0  0  0  0  0  0
  141.2920   81.2980  224.1210 N   0  0  0  0  0  0  0  0  0  0  0  0
  140.6320   80.4780  223.2540 C   0  0  0  0  0  0  0  0  0  0  0  0
  139.5250   77.9390  221.9970 C   0  0  0  0  0  0  0  0  0  0  0  0
  139.6210   71.0230  223.4610 C   0  0  0  0  0  0  0  0  0  0  0  0
  139.2730   69.6890  223.3820 C   0  0  0  0  0  0  0  0  0  0  0  0
  139.4730   68.9230  224.5180 C   0  0  0  0  0  0  0  0  0  0  0  0
  139.9900   69.4390  225.6770 C   0  0  0  0  0  0  0  0  0  0  0  0
  140.2000   68.6960  226.8220 C   0  0  0  0  0  0  0  0  0  0  0  0
  140.7250   69.3120  227.9360 C   0  0  0  0  0  0  0  0  0  0  0  0
  140.9490   68.6120  229.0960 F   0  0  0  0  0  0  0  0  0  0  0  0
  141.0580   70.6490  227.9680 C   0  0  0  0  0  0  0  0  0  0  0  0
  140.8490   71.3980  226.8200 C   0  0  0  0  0  0  0  0  0  0  0  0
  140.3240   70.7750  225.7100 C   0  0  0  0  0  0  0  0  0  0  0  0
  140.1300   71.5190  224.6080 N   0  0  0  0  0  0  0  0  0  0  0  0
  139.5880   73.6760  223.4130 H   0  0  0  0  0  0  0  0  0  0  0  0
  140.2029   74.1947  220.7159 H   0  0  0  0  0  0  0  0  0  0  0  0
  138.4983   73.6825  220.6140 H   0  0  0  0  0  0  0  0  0  0  0  0
  141.0526   75.7007  220.1093 H   0  0  0  0  0  0  0  0  0  0  0  0
  140.2689   77.0562  219.3693 H   0  0  0  0  0  0  0  0  0  0  0  0
  142.1226   77.0848  221.8821 H   0  0  0  0  0  0  0  0  0  0  0  0
  142.4833   77.9104  220.4086 H   0  0  0  0  0  0  0  0  0  0  0  0
  140.4169   79.4166  220.6993 H   0  0  0  0  0  0  0  0  0  0  0  0
  143.2869   78.9415  221.9149 H   0  0  0  0  0  0  0  0  0  0  0  0
  144.4620   80.4348  223.4940 H   0  0  0  0  0  0  0  0  0  0  0  0
  143.1351   81.9704  224.9308 H   0  0  0  0  0  0  0  0  0  0  0  0
  139.5336   80.5100  223.2051 H   0  0  0  0  0  0  0  0  0  0  0  0
  139.5681   77.8528  223.0928 H   0  0  0  0  0  0  0  0  0  0  0  0
  138.5787   78.4397  221.7444 H   0  0  0  0  0  0  0  0  0  0  0  0
  138.8568   69.2556  222.4606 H   0  0  0  0  0  0  0  0  0  0  0  0
  139.2058   67.8563  224.4887 H   0  0  0  0  0  0  0  0  0  0  0  0
  139.9508   67.6248  226.8438 H   0  0  0  0  0  0  0  0  0  0  0  0
  141.4765   71.1076  228.8760 H   0  0  0  0  0  0  0  0  0  0  0  0
  141.0978   72.4692  226.7965 H   0  0  0  0  0  0  0  0  0  0  0  0
  1  2  2  0
  2  3  1  0
  3  4  1  0
  4  5  1  0
  5  6  2  0
  5  7  1  0
  7  8  1  0
  8  9  1  0
  9 10  1  0
 10 11  1  0
 11 12  2  0
 12 13  1  0
 13 14  2  0
 14 15  1  0
 15 16  2  0
 10 17  1  0
  2 18  1  0
 18 19  2  0
 19 20  1  0
 20 21  2  0
 21 22  1  0
 22 23  2  0
 23 24  1  0
 23 25  1  0
 25 26  2  0
 26 27  1  0
 27 28  2  0
 17  7  1  0
 28 18  1  0
 16 11  1  0
 27 21  1  0
  3 29  1  0
  4 30  1  0
  4 31  1  0
  8 32  1  0
  8 33  1  0
  9 34  1  0
  9 35  1  0
 10 36  1  6
 12 37  1  0
 13 38  1  0
 14 39  1  0
 16 40  1  0
 17 41  1  0
 17 42  1  0
 19 43  1  0
 20 44  1  0
 22 45  1  0
 25 46  1  0
 26 47  1  0
M  END
>  <smiles>  (2) 
O=C(NCC(=O)N1CC[C@H](c2cccnc2)C1)c1ccc2cc(F)ccc2n1

>  <score_type>  (2) 
oracle

>  <origin>  (2) 
autodockgpu

>  <m_score__min__energy>  (2) 
-8.6600000000000001

>  <m_primary>  (2) 
energy

>  <rmsd>  (2) 
2.545153708737245

>  <m_score__min__rmsd>  (2) 
2.545153708737245

>  <meeko>  (2) 
{"free_energy": -8.2, "intermolecular_energy": -9.69, "internal_energy": -1.25, "cluster_size": 39, "cluster_id": 1, "rank_in_cluster": 28}

>  <energy>  (2) 
-8.64

>  <cluster_rmsd>  (2) 
1.51

>  <cluster>  (2) 
1

$$$$

     RDKit          3D

 47 50  0  0  0  0  0  0  0  0999 V2000
  139.8170   71.1180  221.0950 O   0  0  0  0  0  0  0  0  0  0  0  0
  139.6620   71.6310  222.2480 C   0  0  0  0  0  0  0  0  0  0  0  0
  139.4620   73.0250  222.3980 N   0  0  0  0  0  0  0  0  0  0  0  0
  139.4410   73.8430  221.2070 C   0  0  0  0  0  0  0  0  0  0  0  0
  140.6860   74.6550  221.1980 C   0  0  0  0  0  0  0  0  0  0  0  0
  141.8340   74.1490  221.3160 O   0  0  0  0  0  0  0  0  0  0  0  0
  140.6020   76.0650  221.0520 N   0  0  0  0  0  0  0  0  0  0  0  0
  140.6450   76.8260  219.8160 C   0  0  0  0  0  0  0  0  0  0  0  0
  141.4590   78.0260  220.2690 C   0  0  0  0  0  0  0  0  0  0  0  0
  140.6880   78.3820  221.5440 C   0  0  2  0  0  0  0  0  0  0  0  0
  141.3870   79.3430  222.3930 C   0  0  0  0  0  0  0  0  0  0  0  0
  140.6300   80.3240  223.0270 C   0  0  0  0  0  0  0  0  0  0  0  0
  141.2090   81.2690  223.8430 C   0  0  0  0  0  0  0  0  0  0  0  0
  142.5670   81.2380  224.0340 C   0  0  0  0  0  0  0  0  0  0  0  0
  143.2960   80.2900  223.4220 N   0  0  0  0  0  0  0  0  0  0  0  0
  142.7280   79.3520  222.6120 C   0  0  0  0  0  0  0  0  0  0  0  0
  140.4540   77.0380  222.1470 C   0  0  0  0  0  0  0  0  0  0  0  0
  139.6880   70.7630  223.4350 C   0  0  0  0  0  0  0  0  0  0  0  0
  139.1690   69.4860  223.3580 C   0  0  0  0  0  0  0  0  0  0  0  0
  139.2250   68.7190  224.5100 C   0  0  0  0  0  0  0  0  0  0  0  0
  139.7640   69.1820  225.6820 C   0  0  0  0  0  0  0  0  0  0  0  0
  139.8310   68.4380  226.8420 C   0  0  0  0  0  0  0  0  0  0  0  0
  140.3930   68.9980  227.9680 C   0  0  0  0  0  0  0  0  0  0  0  0
  140.4800   68.2930  229.1450 F   0  0  0  0  0  0  0  0  0  0  0  0
  140.8990   70.2790  227.9960 C   0  0  0  0  0  0  0  0  0  0  0  0
  140.8330   71.0290  226.8330 C   0  0  0  0  0  0  0  0  0  0  0  0
  140.2700   70.4630  225.7110 C   0  0  0  0  0  0  0  0  0  0  0  0
  140.2160   71.2070  224.5930 N   0  0  0  0  0  0  0  0  0  0  0  0
  139.3390   73.3930  223.3660 H   0  0  0  0  0  0  0  0  0  0  0  0
  139.4039   73.2032  220.3130 H   0  0  0  0  0  0  0  0  0  0  0  0
  138.5546   74.4944  221.2011 H   0  0  0  0  0  0  0  0  0  0  0  0
  141.1506   76.2703  219.0125 H   0  0  0  0  0  0  0  0  0  0  0  0
  139.6610   77.0698  219.3892 H   0  0  0  0  0  0  0  0  0  0  0  0
  142.5041   77.7570  220.4822 H   0  0  0  0  0  0  0  0  0  0  0  0
  141.5491   78.8378  219.5322 H   0  0  0  0  0  0  0  0  0  0  0  0
  139.7471   78.9243  221.3691 H   0  0  0  0  0  0  0  0  0  0  0  0
  139.5412   80.3445  222.8719 H   0  0  0  0  0  0  0  0  0  0  0  0
  140.5928   82.0366  224.3340 H   0  0  0  0  0  0  0  0  0  0  0  0
  143.0541   81.9818  224.6817 H   0  0  0  0  0  0  0  0  0  0  0  0
  143.3626   78.5937  222.1302 H   0  0  0  0  0  0  0  0  0  0  0  0
  141.1945   76.8398  222.9359 H   0  0  0  0  0  0  0  0  0  0  0  0
  139.4575   76.9737  222.6083 H   0  0  0  0  0  0  0  0  0  0  0  0
  138.7321   69.0964  222.4267 H   0  0  0  0  0  0  0  0  0  0  0  0
  138.8203   67.6965  224.4831 H   0  0  0  0  0  0  0  0  0  0  0  0
  139.4403   67.4100  226.8673 H   0  0  0  0  0  0  0  0  0  0  0  0
  141.3418   70.6937  228.9136 H   0  0  0  0  0  0  0  0  0  0  0  0
  141.2230   72.0572  226.8064 H   0  0  0  0  0  0  0  0  0  0  0  0
  1  2  2  0
  2  3  1  0
  3  4  1  0
  4  5  1  0
  5  6  2  0
  5  7  1  0
  7  8  1  0
  8  9  1  0
  9 10  1  0
 10 11  1  0
 11 12  2  0
 12 13  1  0
 13 14  2  0
 14 15  1  0
 15 16  2  0
 10 17  1  0
  2 18  1  0
 18 19  2  0
 19 20  1  0
 20 21  2  0
 21 22  1  0
 22 23  2  0
 23 24  1  0
 23 25  1  0
 25 26  2  0
 26 27  1  0
 27 28  2  0
 17  7  1  0
 28 18  1  0
 16 11  1  0
 27 21  1  0
  3 29  1  0
  4 30  1  0
  4 31  1  0
  8 32  1  0
  8 33  1  0
  9 34  1  0
  9 35  1  0
 10 36  1  6
 12 37  1  0
 13 38  1  0
 14 39  1  0
 16 40  1  0
 17 41  1  0
 17 42  1  0
 19 43  1  0
 20 44  1  0
 22 45  1  0
 25 46  1  0
 26 47  1  0
M  END
>  <smiles>  (3) 
O=C(NCC(=O)N1CC[C@H](c2cccnc2)C1)c1ccc2cc(F)ccc2n1

>  <score_type>  (3) 
oracle

>  <origin>  (3) 
autodockgpu

>  <m_score__min__energy>  (3) 
-8.6600000000000001

>  <m_primary>  (3) 
energy

>  <rmsd>  (3) 
2.36738142678463

>  <m_score__min__rmsd>  (3) 
2.36738142678463

>  <meeko>  (3) 
{"free_energy": -8.43, "intermolecular_energy": -9.93, "internal_energy": -1.13, "cluster_size": 39, "cluster_id": 1, "rank_in_cluster": 15}

>  <energy>  (3) 
-8.64

>  <cluster_rmsd>  (3) 
0.08

>  <cluster>  (3) 
1

$$$$

     RDKit          3D

 47 50  0  0  0  0  0  0  0  0999 V2000
  138.7330   70.7810  221.7590 O   0  0  0  0  0  0  0  0  0  0  0  0
  139.1600   71.6150  222.6180 C   0  0  0  0  0  0  0  0  0  0  0  0
  139.1350   73.0050  222.3480 N   0  0  0  0  0  0  0  0  0  0  0  0
  138.6150   73.4450  221.0750 C   0  0  0  0  0  0  0  0  0  0  0  0
  138.3290   74.8990  221.1830 C   0  0  0  0  0  0  0  0  0  0  0  0
  137.2150   75.3520  221.5610 O   0  0  0  0  0  0  0  0  0  0  0  0
  139.3400   75.8380  220.8500 N   0  0  0  0  0  0  0  0  0  0  0  0
  140.5150   75.6110  220.0260 C   0  0  0  0  0  0  0  0  0  0  0  0
  141.5380   76.4380  220.7870 C   0  0  0  0  0  0  0  0  0  0  0  0
  140.7480   77.7430  220.9260 C   0  0  2  0  0  0  0  0  0  0  0  0
  141.3460   78.6830  221.8710 C   0  0  0  0  0  0  0  0  0  0  0  0
  141.2860   78.3720  223.2260 C   0  0  0  0  0  0  0  0  0  0  0  0
  141.8240   79.2030  224.1830 C   0  0  0  0  0  0  0  0  0  0  0  0
  142.4330   80.3650  223.7850 C   0  0  0  0  0  0  0  0  0  0  0  0
  142.4910   80.6640  222.4770 N   0  0  0  0  0  0  0  0  0  0  0  0
  141.9600   79.8440  221.5240 C   0  0  0  0  0  0  0  0  0  0  0  0
  139.3890   77.2450  221.2840 C   0  0  0  0  0  0  0  0  0  0  0  0
  139.6820   71.1280  223.9030 C   0  0  0  0  0  0  0  0  0  0  0  0
  140.6020   71.8880  224.5990 C   0  0  0  0  0  0  0  0  0  0  0  0
  141.0550   71.3740  225.8020 C   0  0  0  0  0  0  0  0  0  0  0  0
  140.6270   70.1720  226.3010 C   0  0  0  0  0  0  0  0  0  0  0  0
  141.0620   69.6390  227.4970 C   0  0  0  0  0  0  0  0  0  0  0  0
  140.5700   68.4210  227.9090 C   0  0  0  0  0  0  0  0  0  0  0  0
  140.9760   67.8530  229.0930 F   0  0  0  0  0  0  0  0  0  0  0  0
  139.6510   67.6970  227.1800 C   0  0  0  0  0  0  0  0  0  0  0  0
  139.2120   68.2300  225.9780 C   0  0  0  0  0  0  0  0  0  0  0  0
  139.7090   69.4490  225.5730 C   0  0  0  0  0  0  0  0  0  0  0  0
  139.2690   69.9470  224.4050 N   0  0  0  0  0  0  0  0  0  0  0  0
  139.4970   73.6470  223.0880 H   0  0  0  0  0  0  0  0  0  0  0  0
  139.3590   73.2671  220.2845 H   0  0  0  0  0  0  0  0  0  0  0  0
  137.7003   72.8900  220.8194 H   0  0  0  0  0  0  0  0  0  0  0  0
  140.7922   74.5469  219.9953 H   0  0  0  0  0  0  0  0  0  0  0  0
  140.3964   75.8829  218.9667 H   0  0  0  0  0  0  0  0  0  0  0  0
  141.7778   75.9964  221.7655 H   0  0  0  0  0  0  0  0  0  0  0  0
  142.5206   76.5328  220.3017 H   0  0  0  0  0  0  0  0  0  0  0  0
  140.7325   78.3623  220.0170 H   0  0  0  0  0  0  0  0  0  0  0  0
  140.7963   77.4386  223.5406 H   0  0  0  0  0  0  0  0  0  0  0  0
  141.7661   78.9389  225.2493 H   0  0  0  0  0  0  0  0  0  0  0  0
  142.8701   81.0461  224.5301 H   0  0  0  0  0  0  0  0  0  0  0  0
  142.0300   80.1263  220.4632 H   0  0  0  0  0  0  0  0  0  0  0  0
  139.2311   77.3148  222.3704 H   0  0  0  0  0  0  0  0  0  0  0  0
  138.6025   77.8419  220.7991 H   0  0  0  0  0  0  0  0  0  0  0  0
  140.9578   72.8557  224.2155 H   0  0  0  0  0  0  0  0  0  0  0  0
  141.7885   71.9544  226.3809 H   0  0  0  0  0  0  0  0  0  0  0  0
  141.7935   70.1811  228.1143 H   0  0  0  0  0  0  0  0  0  0  0  0
  139.2779   66.7271  227.5406 H   0  0  0  0  0  0  0  0  0  0  0  0
  138.4805   67.6896  225.3593 H   0  0  0  0  0  0  0  0  0  0  0  0
  1  2  2  0
  2  3  1  0
  3  4  1  0
  4  5  1  0
  5  6  2  0
  5  7  1  0
  7  8  1  0
  8  9  1  0
  9 10  1  0
 10 11  1  0
 11 12  2  0
 12 13  1  0
 13 14  2  0
 14 15  1  0
 15 16  2  0
 10 17  1  0
  2 18  1  0
 18 19  2  0
 19 20  1  0
 20 21  2  0
 21 22  1  0
 22 23  2  0
 23 24  1  0
 23 25  1  0
 25 26  2  0
 26 27  1  0
 27 28  2  0
 17  7  1  0
 28 18  1  0
 16 11  1  0
 27 21  1  0
  3 29  1  0
  4 30  1  0
  4 31  1  0
  8 32  1  0
  8 33  1  0
  9 34  1  0
  9 35  1  0
 10 36  1  6
 12 37  1  0
 13 38  1  0
 14 39  1  0
 16 40  1  0
 17 41  1  0
 17 42  1  0
 19 43  1  0
 20 44  1  0
 22 45  1  0
 25 46  1  0
 26 47  1  0
M  END
>  <smiles>  (4) 
O=C(NCC(=O)N1CC[C@H](c2cccnc2)C1)c1ccc2cc(F)ccc2n1

>  <score_type>  (4) 
oracle

>  <origin>  (4) 
autodockgpu

>  <m_score__min__energy>  (4) 
-8.6600000000000001

>  <m_primary>  (4) 
energy

>  <rmsd>  (4) 
3.10120307398289

>  <m_score__min__rmsd>  (4) 
3.10120307398289

>  <meeko>  (4) 
{"free_energy": -7.97, "intermolecular_energy": -9.46, "internal_energy": -0.98, "cluster_size": 39, "cluster_id": 1, "rank_in_cluster": 37}

>  <energy>  (4) 
-8.63

>  <cluster_rmsd>  (4) 
0.11

>  <cluster>  (4) 
1

$$$$

     RDKit          3D

 47 50  0  0  0  0  0  0  0  0999 V2000
  138.5710   76.2670  220.1820 O   0  0  0  0  0  0  0  0  0  0  0  0
  138.8100   76.2770  221.4310 C   0  0  0  0  0  0  0  0  0  0  0  0
  138.6240   75.1090  222.2100 N   0  0  0  0  0  0  0  0  0  0  0  0
  138.1550   73.9130  221.5480 C   0  0  0  0  0  0  0  0  0  0  0  0
  139.3050   72.9780  221.4420 C   0  0  0  0  0  0  0  0  0  0  0  0
  140.1970   73.0880  220.5590 O   0  0  0  0  0  0  0  0  0  0  0  0
  139.4220   71.9050  222.3640 N   0  0  0  0  0  0  0  0  0  0  0  0
  138.5100   70.7870  222.5350 C   0  0  0  0  0  0  0  0  0  0  0  0
  138.5490   70.6390  224.0460 C   0  0  0  0  0  0  0  0  0  0  0  0
  140.0660   70.6310  224.2560 C   0  0  2  0  0  0  0  0  0  0  0  0
  140.4580   70.7830  225.6540 C   0  0  0  0  0  0  0  0  0  0  0  0
  140.1500   69.7490  226.5340 C   0  0  0  0  0  0  0  0  0  0  0  0
  140.4830   69.8120  227.8680 C   0  0  0  0  0  0  0  0  0  0  0  0
  141.1340   70.9240  228.3380 C   0  0  0  0  0  0  0  0  0  0  0  0
  141.4310   71.9210  227.4880 N   0  0  0  0  0  0  0  0  0  0  0  0
  141.1040   71.8640  226.1650 C   0  0  0  0  0  0  0  0  0  0  0  0
  140.5110   71.7200  223.3390 C   0  0  0  0  0  0  0  0  0  0  0  0
  139.2860   77.5130  222.0670 C   0  0  0  0  0  0  0  0  0  0  0  0
  138.3720   78.4180  222.5700 C   0  0  0  0  0  0  0  0  0  0  0  0
  138.8840   79.5630  223.1570 C   0  0  0  0  0  0  0  0  0  0  0  0
  140.2290   79.8090  223.2480 C   0  0  0  0  0  0  0  0  0  0  0  0
  140.7630   80.9420  223.8290 C   0  0  0  0  0  0  0  0  0  0  0  0
  142.1310   81.0940  223.8690 C   0  0  0  0  0  0  0  0  0  0  0  0
  142.7070   82.2050  224.4370 F   0  0  0  0  0  0  0  0  0  0  0  0
  143.0060   80.1620  223.3540 C   0  0  0  0  0  0  0  0  0  0  0  0
  142.4720   79.0240  222.7700 C   0  0  0  0  0  0  0  0  0  0  0  0
  141.1030   78.8790  222.7330 C   0  0  0  0  0  0  0  0  0  0  0  0
  140.6070   77.7680  222.1630 N   0  0  0  0  0  0  0  0  0  0  0  0
  138.8360   75.1710  223.2300 H   0  0  0  0  0  0  0  0  0  0  0  0
  137.3485   73.4505  222.1360 H   0  0  0  0  0  0  0  0  0  0  0  0
  137.7594   74.1536  220.5502 H   0  0  0  0  0  0  0  0  0  0  0  0
  137.4987   71.0271  222.1749 H   0  0  0  0  0  0  0  0  0  0  0  0
  138.7809   69.8799  221.9748 H   0  0  0  0  0  0  0  0  0  0  0  0
  138.0681   71.4876  224.5546 H   0  0  0  0  0  0  0  0  0  0  0  0
  138.0148   69.7647  224.4463 H   0  0  0  0  0  0  0  0  0  0  0  0
  140.5502   69.6717  224.0209 H   0  0  0  0  0  0  0  0  0  0  0  0
  139.6272   68.8591  226.1535 H   0  0  0  0  0  0  0  0  0  0  0  0
  140.2310   68.9836  228.5465 H   0  0  0  0  0  0  0  0  0  0  0  0
  141.4101   70.9987  229.4002 H   0  0  0  0  0  0  0  0  0  0  0  0
  141.3663   72.7030  225.5037 H   0  0  0  0  0  0  0  0  0  0  0  0
  140.6797   72.6490  223.9034 H   0  0  0  0  0  0  0  0  0  0  0  0
  141.4571   71.4632  222.8402 H   0  0  0  0  0  0  0  0  0  0  0  0
  137.2887   78.2378  222.5073 H   0  0  0  0  0  0  0  0  0  0  0  0
  138.1828   80.3049  223.5667 H   0  0  0  0  0  0  0  0  0  0  0  0
  140.1041   81.7133  224.2544 H   0  0  0  0  0  0  0  0  0  0  0  0
  144.0939   80.3164  223.4048 H   0  0  0  0  0  0  0  0  0  0  0  0
  143.1292   78.2514  222.3442 H   0  0  0  0  0  0  0  0  0  0  0  0
  1  2  2  0
  2  3  1  0
  3  4  1  0
  4  5  1  0
  5  6  2  0
  5  7  1  0
  7  8  1  0
  8  9  1  0
  9 10  1  0
 10 11  1  0
 11 12  2  0
 12 13  1  0
 13 14  2  0
 14 15  1  0
 15 16  2  0
 10 17  1  0
  2 18  1  0
 18 19  2  0
 19 20  1  0
 20 21  2  0
 21 22  1  0
 22 23  2  0
 23 24  1  0
 23 25  1  0
 25 26  2  0
 26 27  1  0
 27 28  2  0
 17  7  1  0
 28 18  1  0
 16 11  1  0
 27 21  1  0
  3 29  1  0
  4 30  1  0
  4 31  1  0
  8 32  1  0
  8 33  1  0
  9 34  1  0
  9 35  1  0
 10 36  1  6
 12 37  1  0
 13 38  1  0
 14 39  1  0
 16 40  1  0
 17 41  1  0
 17 42  1  0
 19 43  1  0
 20 44  1  0
 22 45  1  0
 25 46  1  0
 26 47  1  0
M  END
>  <smiles>  (5) 
O=C(NCC(=O)N1CC[C@H](c2cccnc2)C1)c1ccc2cc(F)ccc2n1

>  <score_type>  (5) 
oracle

>  <origin>  (5) 
autodockgpu

>  <m_score__min__energy>  (5) 
-8.6600000000000001

>  <m_primary>  (5) 
energy

>  <rmsd>  (5) 
8.568541717664154

>  <m_score__min__rmsd>  (5) 
8.568541717664154

>  <meeko>  (5) 
{"free_energy": -8.18, "intermolecular_energy": -9.67, "internal_energy": -0.98, "cluster_size": 2, "cluster_id": 3, "rank_in_cluster": 1}

>  <energy>  (5) 
-8.61

>  <cluster_rmsd>  (5) 
1.44

>  <cluster>  (5) 
1

$$$$

     RDKit          3D

 47 50  0  0  0  0  0  0  0  0999 V2000
  139.8300   71.9270  221.5770 O   0  0  0  0  0  0  0  0  0  0  0  0
  139.0460   71.8910  222.5770 C   0  0  0  0  0  0  0  0  0  0  0  0
  137.9030   72.7250  222.6290 N   0  0  0  0  0  0  0  0  0  0  0  0
  137.6560   73.6150  221.5170 C   0  0  0  0  0  0  0  0  0  0  0  0
  137.8650   75.0050  221.9990 C   0  0  0  0  0  0  0  0  0  0  0  0
  137.0660   75.5870  222.7790 O   0  0  0  0  0  0  0  0  0  0  0  0
  139.0110   75.7280  221.5730 N   0  0  0  0  0  0  0  0  0  0  0  0
  140.1890   75.1990  220.9090 C   0  0  0  0  0  0  0  0  0  0  0  0
  141.2690   76.0350  221.5750 C   0  0  0  0  0  0  0  0  0  0  0  0
  140.6540   77.4260  221.3920 C   0  0  2  0  0  0  0  0  0  0  0  0
  141.3180   78.4600  222.1800 C   0  0  0  0  0  0  0  0  0  0  0  0
  141.8290   79.5670  221.5070 C   0  0  0  0  0  0  0  0  0  0  0  0
  142.4700   80.5860  222.1740 C   0  0  0  0  0  0  0  0  0  0  0  0
  142.6050   80.5050  223.5360 C   0  0  0  0  0  0  0  0  0  0  0  0
  142.1110   79.4380  224.1850 N   0  0  0  0  0  0  0  0  0  0  0  0
  141.4750   78.4250  223.5290 C   0  0  0  0  0  0  0  0  0  0  0  0
  139.2230   77.1780  221.7270 C   0  0  0  0  0  0  0  0  0  0  0  0
  139.3320   70.9710  223.6880 C   0  0  0  0  0  0  0  0  0  0  0  0
  139.0210   69.6310  223.5620 C   0  0  0  0  0  0  0  0  0  0  0  0
  139.3150   68.8180  224.6440 C   0  0  0  0  0  0  0  0  0  0  0  0
  139.8870   69.2950  225.7940 C   0  0  0  0  0  0  0  0  0  0  0  0
  140.1900   68.5040  226.8840 C   0  0  0  0  0  0  0  0  0  0  0  0
  140.7640   69.0820  227.9940 C   0  0  0  0  0  0  0  0  0  0  0  0
  141.0820   68.3340  229.1020 F   0  0  0  0  0  0  0  0  0  0  0  0
  141.0570   70.4270  228.0740 C   0  0  0  0  0  0  0  0  0  0  0  0
  140.7540   71.2230  226.9810 C   0  0  0  0  0  0  0  0  0  0  0  0
  140.1800   70.6370  225.8740 C   0  0  0  0  0  0  0  0  0  0  0  0
  139.8940   71.4270  224.8250 N   0  0  0  0  0  0  0  0  0  0  0  0
  137.2920   72.6550  223.4720 H   0  0  0  0  0  0  0  0  0  0  0  0
  138.3547   73.3934  220.6968 H   0  0  0  0  0  0  0  0  0  0  0  0
  136.6306   73.4869  221.1401 H   0  0  0  0  0  0  0  0  0  0  0  0
  140.3226   74.1257  221.1095 H   0  0  0  0  0  0  0  0  0  0  0  0
  140.1677   75.2614  219.8110 H   0  0  0  0  0  0  0  0  0  0  0  0
  141.3925   75.7766  222.6371 H   0  0  0  0  0  0  0  0  0  0  0  0
  142.2810   75.9106  221.1623 H   0  0  0  0  0  0  0  0  0  0  0  0
  140.7726   77.8444  220.3816 H   0  0  0  0  0  0  0  0  0  0  0  0
  141.7174   79.6285  220.4144 H   0  0  0  0  0  0  0  0  0  0  0  0
  142.8675   81.4513  221.6234 H   0  0  0  0  0  0  0  0  0  0  0  0
  143.1132   81.3066  224.0920 H   0  0  0  0  0  0  0  0  0  0  0  0
  141.0845   77.5693  224.0993 H   0  0  0  0  0  0  0  0  0  0  0  0
  139.0146   77.4862  222.7622 H   0  0  0  0  0  0  0  0  0  0  0  0
  138.5521   77.7534  221.0721 H   0  0  0  0  0  0  0  0  0  0  0  0
  138.5621   69.2291  222.6466 H   0  0  0  0  0  0  0  0  0  0  0  0
  139.0797   67.7455  224.5774 H   0  0  0  0  0  0  0  0  0  0  0  0
  139.9755   67.4253  226.8660 H   0  0  0  0  0  0  0  0  0  0  0  0
  141.5169   70.8547  228.9771 H   0  0  0  0  0  0  0  0  0  0  0  0
  140.9676   72.3019  226.9968 H   0  0  0  0  0  0  0  0  0  0  0  0
  1  2  2  0
  2  3  1  0
  3  4  1  0
  4  5  1  0
  5  6  2  0
  5  7  1  0
  7  8  1  0
  8  9  1  0
  9 10  1  0
 10 11  1  0
 11 12  2  0
 12 13  1  0
 13 14  2  0
 14 15  1  0
 15 16  2  0
 10 17  1  0
  2 18  1  0
 18 19  2  0
 19 20  1  0
 20 21  2  0
 21 22  1  0
 22 23  2  0
 23 24  1  0
 23 25  1  0
 25 26  2  0
 26 27  1  0
 27 28  2  0
 17  7  1  0
 28 18  1  0
 16 11  1  0
 27 21  1  0
  3 29  1  0
  4 30  1  0
  4 31  1  0
  8 32  1  0
  8 33  1  0
  9 34  1  0
  9 35  1  0
 10 36  1  6
 12 37  1  0
 13 38  1  0
 14 39  1  0
 16 40  1  0
 17 41  1  0
 17 42  1  0
 19 43  1  0
 20 44  1  0
 22 45  1  0
 25 46  1  0
 26 47  1  0
M  END
>  <smiles>  (6) 
O=C(NCC(=O)N1CC[C@H](c2cccnc2)C1)c1ccc2cc(F)ccc2n1

>  <score_type>  (6) 
oracle

>  <origin>  (6) 
autodockgpu

>  <m_score__min__energy>  (6) 
-8.6600000000000001

>  <m_primary>  (6) 
energy

>  <rmsd>  (6) 
2.4471357257940203

>  <m_score__min__rmsd>  (6) 
2.4471357257940203

>  <meeko>  (6) 
{"free_energy": -8.17, "intermolecular_energy": -9.66, "internal_energy": -1.16, "cluster_size": 39, "cluster_id": 1, "rank_in_cluster": 31}

>  <energy>  (6) 
-8.61

>  <cluster_rmsd>  (6) 
0.49

>  <cluster>  (6) 
1

$$$$

     RDKit          3D

 47 50  0  0  0  0  0  0  0  0999 V2000
  138.8530   71.1500  221.1860 O   0  0  0  0  0  0  0  0  0  0  0  0
  139.1490   71.7300  222.2780 C   0  0  0  0  0  0  0  0  0  0  0  0
  139.1830   73.1440  222.3590 N   0  0  0  0  0  0  0  0  0  0  0  0
  138.8740   73.9030  221.1700 C   0  0  0  0  0  0  0  0  0  0  0  0
  140.1450   74.1220  220.4320 C   0  0  0  0  0  0  0  0  0  0  0  0
  140.8330   73.1780  219.9590 O   0  0  0  0  0  0  0  0  0  0  0  0
  140.6260   75.4440  220.2410 N   0  0  0  0  0  0  0  0  0  0  0  0
  141.6030   75.8930  219.2650 C   0  0  0  0  0  0  0  0  0  0  0  0
  142.3600   76.9150  220.0950 C   0  0  0  0  0  0  0  0  0  0  0  0
  141.1760   77.7130  220.6470 C   0  0  2  0  0  0  0  0  0  0  0  0
  141.5450   78.6220  221.7290 C   0  0  0  0  0  0  0  0  0  0  0  0
  141.1990   78.2630  223.0290 C   0  0  0  0  0  0  0  0  0  0  0  0
  141.5080   79.0620  224.1060 C   0  0  0  0  0  0  0  0  0  0  0  0
  142.1740   80.2410  223.8880 C   0  0  0  0  0  0  0  0  0  0  0  0
  142.5080   80.5860  222.6340 N   0  0  0  0  0  0  0  0  0  0  0  0
  142.2040   79.7980  221.5620 C   0  0  0  0  0  0  0  0  0  0  0  0
  140.2170   76.6310  221.0120 C   0  0  0  0  0  0  0  0  0  0  0  0
  139.4570   70.9220  223.4670 C   0  0  0  0  0  0  0  0  0  0  0  0
  139.2080   69.5630  223.4510 C   0  0  0  0  0  0  0  0  0  0  0  0
  139.5210   68.8580  224.6020 C   0  0  0  0  0  0  0  0  0  0  0  0
  140.0520   69.4560  225.7150 C   0  0  0  0  0  0  0  0  0  0  0  0
  140.3720   68.7750  226.8720 C   0  0  0  0  0  0  0  0  0  0  0  0
  140.9010   69.4700  227.9360 C   0  0  0  0  0  0  0  0  0  0  0  0
  141.2340   68.8330  229.1070 F   0  0  0  0  0  0  0  0  0  0  0  0
  141.1330   70.8280  227.9050 C   0  0  0  0  0  0  0  0  0  0  0  0
  140.8120   71.5150  226.7440 C   0  0  0  0  0  0  0  0  0  0  0  0
  140.2830   70.8130  225.6840 C   0  0  0  0  0  0  0  0  0  0  0  0
  139.9800   71.4970  224.5680 N   0  0  0  0  0  0  0  0  0  0  0  0
  139.4310   73.5690  223.2790 H   0  0  0  0  0  0  0  0  0  0  0  0
  138.1670   73.3425  220.5407 H   0  0  0  0  0  0  0  0  0  0  0  0
  138.4117   74.8651  221.4359 H   0  0  0  0  0  0  0  0  0  0  0  0
  142.2561   75.0719  218.9346 H   0  0  0  0  0  0  0  0  0  0  0  0
  141.1757   76.2830  218.3294 H   0  0  0  0  0  0  0  0  0  0  0  0
  142.9456   76.4411  220.8965 H   0  0  0  0  0  0  0  0  0  0  0  0
  143.1086   77.5047  219.5456 H   0  0  0  0  0  0  0  0  0  0  0  0
  140.7385   78.4264  219.9331 H   0  0  0  0  0  0  0  0  0  0  0  0
  140.6650   77.3165  223.1995 H   0  0  0  0  0  0  0  0  0  0  0  0
  141.2254   78.7600  225.1253 H   0  0  0  0  0  0  0  0  0  0  0  0
  142.4320   80.8975  224.7321 H   0  0  0  0  0  0  0  0  0  0  0  0
  142.4960   80.1189  220.5512 H   0  0  0  0  0  0  0  0  0  0  0  0
  140.2698   76.4222  222.0907 H   0  0  0  0  0  0  0  0  0  0  0  0
  139.1803   76.9198  220.7845 H   0  0  0  0  0  0  0  0  0  0  0  0
  138.7820   69.0650  222.5675 H   0  0  0  0  0  0  0  0  0  0  0  0
  139.3357   67.7739  224.6234 H   0  0  0  0  0  0  0  0  0  0  0  0
  140.2063   67.6899  226.9431 H   0  0  0  0  0  0  0  0  0  0  0  0
  141.5594   71.3506  228.7739 H   0  0  0  0  0  0  0  0  0  0  0  0
  140.9768   72.6001  226.6712 H   0  0  0  0  0  0  0  0  0  0  0  0
  1  2  2  0
  2  3  1  0
  3  4  1  0
  4  5  1  0
  5  6  2  0
  5  7  1  0
  7  8  1  0
  8  9  1  0
  9 10  1  0
 10 11  1  0
 11 12  2  0
 12 13  1  0
 13 14  2  0
 14 15  1  0
 15 16  2  0
 10 17  1  0
  2 18  1  0
 18 19  2  0
 19 20  1  0
 20 21  2  0
 21 22  1  0
 22 23  2  0
 23 24  1  0
 23 25  1  0
 25 26  2  0
 26 27  1  0
 27 28  2  0
 17  7  1  0
 28 18  1  0
 16 11  1  0
 27 21  1  0
  3 29  1  0
  4 30  1  0
  4 31  1  0
  8 32  1  0
  8 33  1  0
  9 34  1  0
  9 35  1  0
 10 36  1  6
 12 37  1  0
 13 38  1  0
 14 39  1  0
 16 40  1  0
 17 41  1  0
 17 42  1  0
 19 43  1  0
 20 44  1  0
 22 45  1  0
 25 46  1  0
 26 47  1  0
M  END
>  <smiles>  (7) 
O=C(NCC(=O)N1CC[C@H](c2cccnc2)C1)c1ccc2cc(F)ccc2n1

>  <score_type>  (7) 
oracle

>  <origin>  (7) 
autodockgpu

>  <m_score__min__energy>  (7) 
-8.6600000000000001

>  <m_primary>  (7) 
energy

>  <rmsd>  (7) 
2.024723796552814

>  <m_score__min__rmsd>  (7) 
2.024723796552814

>  <meeko>  (7) 
{"free_energy": -7.85, "intermolecular_energy": -9.34, "internal_energy": -1.28, "cluster_size": 39, "cluster_id": 1, "rank_in_cluster": 39}

>  <energy>  (7) 
-8.59

>  <cluster_rmsd>  (7) 
0.49

>  <cluster>  (7) 
1

$$$$

     RDKit          3D

 47 50  0  0  0  0  0  0  0  0999 V2000
  140.6500   71.4080  221.7000 O   0  0  0  0  0  0  0  0  0  0  0  0
  139.8630   71.6510  222.6690 C   0  0  0  0  0  0  0  0  0  0  0  0
  139.0220   72.7900  222.6480 N   0  0  0  0  0  0  0  0  0  0  0  0
  139.0840   73.6640  221.5000 C   0  0  0  0  0  0  0  0  0  0  0  0
  140.3330   74.4620  221.6090 C   0  0  0  0  0  0  0  0  0  0  0  0
  141.4400   73.9590  221.9380 O   0  0  0  0  0  0  0  0  0  0  0  0
  140.3000   75.8550  221.3360 N   0  0  0  0  0  0  0  0  0  0  0  0
  140.4180   76.5010  220.0400 C   0  0  0  0  0  0  0  0  0  0  0  0
  141.2510   77.7130  220.4210 C   0  0  0  0  0  0  0  0  0  0  0  0
  140.4410   78.2030  221.6250 C   0  0  2  0  0  0  0  0  0  0  0  0
  141.1350   79.2160  222.4160 C   0  0  0  0  0  0  0  0  0  0  0  0
  140.9800   80.5500  222.0470 C   0  0  0  0  0  0  0  0  0  0  0  0
  141.6000   81.5660  222.7370 C   0  0  0  0  0  0  0  0  0  0  0  0
  142.3880   81.2530  223.8150 C   0  0  0  0  0  0  0  0  0  0  0  0
  142.5350   79.9660  224.1700 N   0  0  0  0  0  0  0  0  0  0  0  0
  141.9240   78.9540  223.4890 C   0  0  0  0  0  0  0  0  0  0  0  0
  140.1390   76.9260  222.3340 C   0  0  0  0  0  0  0  0  0  0  0  0
  139.8290   70.7360  223.8190 C   0  0  0  0  0  0  0  0  0  0  0  0
  139.2060   69.5090  223.6970 C   0  0  0  0  0  0  0  0  0  0  0  0
  139.2080   68.6940  224.8170 C   0  0  0  0  0  0  0  0  0  0  0  0
  139.7930   69.0630  226.0000 C   0  0  0  0  0  0  0  0  0  0  0  0
  139.8090   68.2690  227.1280 C   0  0  0  0  0  0  0  0  0  0  0  0
  140.4240   68.7340  228.2690 C   0  0  0  0  0  0  0  0  0  0  0  0
  140.4640   67.9770  229.4150 F   0  0  0  0  0  0  0  0  0  0  0  0
  141.0340   69.9680  228.3430 C   0  0  0  0  0  0  0  0  0  0  0  0
  141.0200   70.7680  227.2120 C   0  0  0  0  0  0  0  0  0  0  0  0
  140.4030   70.2960  226.0750 C   0  0  0  0  0  0  0  0  0  0  0  0
  140.4010   71.0870  224.9890 N   0  0  0  0  0  0  0  0  0  0  0  0
  138.3950   72.9420  223.4680 H   0  0  0  0  0  0  0  0  0  0  0  0
  139.0992   73.0682  220.5755 H   0  0  0  0  0  0  0  0  0  0  0  0
  138.2051   74.3248  221.4699 H   0  0  0  0  0  0  0  0  0  0  0  0
  140.9380   75.8615  219.3115 H   0  0  0  0  0  0  0  0  0  0  0  0
  139.4607   76.7334  219.5505 H   0  0  0  0  0  0  0  0  0  0  0  0
  142.2774   77.4344  220.7021 H   0  0  0  0  0  0  0  0  0  0  0  0
  141.3969   78.4531  219.6204 H   0  0  0  0  0  0  0  0  0  0  0  0
  139.5260   78.7539  221.3615 H   0  0  0  0  0  0  0  0  0  0  0  0
  140.3463   80.7974  221.1826 H   0  0  0  0  0  0  0  0  0  0  0  0
  141.4658   82.6134  222.4288 H   0  0  0  0  0  0  0  0  0  0  0  0
  142.8942   82.0475  224.3828 H   0  0  0  0  0  0  0  0  0  0  0  0
  142.0725   77.9134  223.8133 H   0  0  0  0  0  0  0  0  0  0  0  0
  140.8400   76.7781  223.1687 H   0  0  0  0  0  0  0  0  0  0  0  0
  139.1232   76.9319  222.7559 H   0  0  0  0  0  0  0  0  0  0  0  0
  138.7313   69.1944  222.7559 H   0  0  0  0  0  0  0  0  0  0  0  0
  138.7200   67.7102  224.7543 H   0  0  0  0  0  0  0  0  0  0  0  0
  139.3360   67.2760  227.1162 H   0  0  0  0  0  0  0  0  0  0  0  0
  141.5169   70.3070  229.2714 H   0  0  0  0  0  0  0  0  0  0  0  0
  141.4927   71.7612  227.2221 H   0  0  0  0  0  0  0  0  0  0  0  0
  1  2  2  0
  2  3  1  0
  3  4  1  0
  4  5  1  0
  5  6  2  0
  5  7  1  0
  7  8  1  0
  8  9  1  0
  9 10  1  0
 10 11  1  0
 11 12  2  0
 12 13  1  0
 13 14  2  0
 14 15  1  0
 15 16  2  0
 10 17  1  0
  2 18  1  0
 18 19  2  0
 19 20  1  0
 20 21  2  0
 21 22  1  0
 22 23  2  0
 23 24  1  0
 23 25  1  0
 25 26  2  0
 26 27  1  0
 27 28  2  0
 17  7  1  0
 28 18  1  0
 16 11  1  0
 27 21  1  0
  3 29  1  0
  4 30  1  0
  4 31  1  0
  8 32  1  0
  8 33  1  0
  9 34  1  0
  9 35  1  0
 10 36  1  6
 12 37  1  0
 13 38  1  0
 14 39  1  0
 16 40  1  0
 17 41  1  0
 17 42  1  0
 19 43  1  0
 20 44  1  0
 22 45  1  0
 25 46  1  0
 26 47  1  0
M  END
>  <smiles>  (8) 
O=C(NCC(=O)N1CC[C@H](c2cccnc2)C1)c1ccc2cc(F)ccc2n1

>  <score_type>  (8) 
oracle

>  <origin>  (8) 
autodockgpu

>  <m_score__min__energy>  (8) 
-8.6600000000000001

>  <m_primary>  (8) 
energy

>  <rmsd>  (8) 
2.3954447267190457

>  <m_score__min__rmsd>  (8) 
2.3954447267190457

>  <meeko>  (8) 
{"free_energy": -8.61, "intermolecular_energy": -10.1, "internal_energy": -0.94, "cluster_size": 39, "cluster_id": 1, "rank_in_cluster": 5}

>  <energy>  (8) 
-8.57

>  <cluster_rmsd>  (8) 
0.5

>  <cluster>  (8) 
1

$$$$

     RDKit          3D

 47 50  0  0  0  0  0  0  0  0999 V2000
  140.4530   71.9110  221.0470 O   0  0  0  0  0  0  0  0  0  0  0  0
  139.8620   72.2750  222.1120 C   0  0  0  0  0  0  0  0  0  0  0  0
  139.1540   73.5010  222.1620 N   0  0  0  0  0  0  0  0  0  0  0  0
  139.1250   74.3210  220.9730 C   0  0  0  0  0  0  0  0  0  0  0  0
  139.9940   75.5010  221.2190 C   0  0  0  0  0  0  0  0  0  0  0  0
  139.5680   76.5700  221.7320 O   0  0  0  0  0  0  0  0  0  0  0  0
  141.3690   75.4440  220.8680 N   0  0  0  0  0  0  0  0  0  0  0  0
  142.1240   76.4250  220.1070 C   0  0  0  0  0  0  0  0  0  0  0  0
  143.0090   75.5020  219.2880 C   0  0  0  0  0  0  0  0  0  0  0  0
  143.5350   74.6010  220.4090 C   0  0  2  0  0  0  0  0  0  0  0  0
  144.2140   73.4040  219.9200 C   0  0  0  0  0  0  0  0  0  0  0  0
  143.6390   72.1680  220.2000 C   0  0  0  0  0  0  0  0  0  0  0  0
  144.2130   70.9910  219.7760 C   0  0  0  0  0  0  0  0  0  0  0  0
  145.3820   71.0430  219.0600 C   0  0  0  0  0  0  0  0  0  0  0  0
  145.9350   72.2370  218.7900 N   0  0  0  0  0  0  0  0  0  0  0  0
  145.3700   73.4060  219.2070 C   0  0  0  0  0  0  0  0  0  0  0  0
  142.3040   74.3610  221.2150 C   0  0  0  0  0  0  0  0  0  0  0  0
  139.9150   71.4110  223.3010 C   0  0  0  0  0  0  0  0  0  0  0  0
  139.4830   70.1030  223.2130 C   0  0  0  0  0  0  0  0  0  0  0  0
  139.5590   69.3410  224.3680 C   0  0  0  0  0  0  0  0  0  0  0  0
  140.0370   69.8390  225.5520 C   0  0  0  0  0  0  0  0  0  0  0  0
  140.1230   69.1000  226.7150 C   0  0  0  0  0  0  0  0  0  0  0  0
  140.6180   69.6960  227.8530 C   0  0  0  0  0  0  0  0  0  0  0  0
  140.7210   68.9990  229.0330 F   0  0  0  0  0  0  0  0  0  0  0  0
  141.0390   71.0080  227.8930 C   0  0  0  0  0  0  0  0  0  0  0  0
  140.9530   71.7520  226.7260 C   0  0  0  0  0  0  0  0  0  0  0  0
  140.4570   71.1500  225.5910 C   0  0  0  0  0  0  0  0  0  0  0  0
  140.3830   71.8890  224.4720 N   0  0  0  0  0  0  0  0  0  0  0  0
  138.6870   73.7510  223.0600 H   0  0  0  0  0  0  0  0  0  0  0  0
  139.5042   73.7487  220.1135 H   0  0  0  0  0  0  0  0  0  0  0  0
  138.0963   74.6392  220.7485 H   0  0  0  0  0  0  0  0  0  0  0  0
  141.4702   77.0365  219.4677 H   0  0  0  0  0  0  0  0  0  0  0  0
  142.6648   77.1654  220.7147 H   0  0  0  0  0  0  0  0  0  0  0  0
  142.4326   74.9354  218.5418 H   0  0  0  0  0  0  0  0  0  0  0  0
  143.7820   76.0038  218.6875 H   0  0  0  0  0  0  0  0  0  0  0  0
  144.3397   75.0492  221.0103 H   0  0  0  0  0  0  0  0  0  0  0  0
  142.7019   72.1307  220.7748 H   0  0  0  0  0  0  0  0  0  0  0  0
  143.7420   70.0243  220.0075 H   0  0  0  0  0  0  0  0  0  0  0  0
  145.8615   70.1167  218.7107 H   0  0  0  0  0  0  0  0  0  0  0  0
  145.8563   74.3620  218.9630 H   0  0  0  0  0  0  0  0  0  0  0  0
  141.8668   73.3839  220.9618 H   0  0  0  0  0  0  0  0  0  0  0  0
  142.5254   74.3521  222.2924 H   0  0  0  0  0  0  0  0  0  0  0  0
  139.0970   69.6855  222.2713 H   0  0  0  0  0  0  0  0  0  0  0  0
  139.2222   68.2944  224.3331 H   0  0  0  0  0  0  0  0  0  0  0  0
  139.8002   68.0486  226.7321 H   0  0  0  0  0  0  0  0  0  0  0  0
  141.4306   71.4505  228.8208 H   0  0  0  0  0  0  0  0  0  0  0  0
  141.2750   72.8036  226.7071 H   0  0  0  0  0  0  0  0  0  0  0  0
  1  2  2  0
  2  3  1  0
  3  4  1  0
  4  5  1  0
  5  6  2  0
  5  7  1  0
  7  8  1  0
  8  9  1  0
  9 10  1  0
 10 11  1  0
 11 12  2  0
 12 13  1  0
 13 14  2  0
 14 15  1  0
 15 16  2  0
 10 17  1  0
  2 18  1  0
 18 19  2  0
 19 20  1  0
 20 21  2  0
 21 22  1  0
 22 23  2  0
 23 24  1  0
 23 25  1  0
 25 26  2  0
 26 27  1  0
 27 28  2  0
 17  7  1  0
 28 18  1  0
 16 11  1  0
 27 21  1  0
  3 29  1  0
  4 30  1  0
  4 31  1  0
  8 32  1  0
  8 33  1  0
  9 34  1  0
  9 35  1  0
 10 36  1  1
 12 37  1  0
 13 38  1  0
 14 39  1  0
 16 40  1  0
 17 41  1  0
 17 42  1  0
 19 43  1  0
 20 44  1  0
 22 45  1  0
 25 46  1  0
 26 47  1  0
M  END
>  <smiles>  (9) 
O=C(NCC(=O)N1CC[C@H](c2cccnc2)C1)c1ccc2cc(F)ccc2n1

>  <score_type>  (9) 
oracle

>  <origin>  (9) 
autodockgpu

>  <m_score__min__energy>  (9) 
-8.6600000000000001

>  <m_primary>  (9) 
energy

>  <rmsd>  (9) 
2.313840440575109

>  <m_score__min__rmsd>  (9) 
2.313840440575109

>  <meeko>  (9) 
{"free_energy": -7.9, "intermolecular_energy": -9.39, "internal_energy": -1.49, "cluster_size": 9, "cluster_id": 2, "rank_in_cluster": 8}

>  <energy>  (9) 
-8.54

>  <cluster_rmsd>  (9) 
1.5

>  <cluster>  (9) 
1

$$$$

     RDKit          3D

 47 50  0  0  0  0  0  0  0  0999 V2000
  140.3760   71.1620  221.0950 O   0  0  0  0  0  0  0  0  0  0  0  0
  139.9040   71.6580  222.1670 C   0  0  0  0  0  0  0  0  0  0  0  0
  139.4290   72.9920  222.1970 N   0  0  0  0  0  0  0  0  0  0  0  0
  139.4960   73.7690  220.9820 C   0  0  0  0  0  0  0  0  0  0  0  0
  140.6480   74.7000  221.1060 C   0  0  0  0  0  0  0  0  0  0  0  0
  141.8360   74.3050  221.2480 O   0  0  0  0  0  0  0  0  0  0  0  0
  140.4230   76.1020  221.0650 N   0  0  0  0  0  0  0  0  0  0  0  0
  140.1950   76.9220  219.8890 C   0  0  0  0  0  0  0  0  0  0  0  0
  140.9690   78.1690  220.2790 C   0  0  0  0  0  0  0  0  0  0  0  0
  140.3950   78.3890  221.6820 C   0  0  2  0  0  0  0  0  0  0  0  0
  141.1420   79.3690  222.4660 C   0  0  0  0  0  0  0  0  0  0  0  0
  141.0690   80.7050  222.0820 C   0  0  0  0  0  0  0  0  0  0  0  0
  141.7430   81.6910  222.7650 C   0  0  0  0  0  0  0  0  0  0  0  0
  142.5040   81.3450  223.8520 C   0  0  0  0  0  0  0  0  0  0  0  0
  142.5740   80.0550  224.2220 N   0  0  0  0  0  0  0  0  0  0  0  0
  141.9080   79.0730  223.5480 C   0  0  0  0  0  0  0  0  0  0  0  0
  140.3780   77.0020  222.2290 C   0  0  0  0  0  0  0  0  0  0  0  0
  139.8530   70.8340  223.3840 C   0  0  0  0  0  0  0  0  0  0  0  0
  139.2400   69.5970  223.3450 C   0  0  0  0  0  0  0  0  0  0  0  0
  139.2260   68.8700  224.5240 C   0  0  0  0  0  0  0  0  0  0  0  0
  139.7840   69.3340  225.6860 C   0  0  0  0  0  0  0  0  0  0  0  0
  139.7830   68.6290  226.8720 C   0  0  0  0  0  0  0  0  0  0  0  0
  140.3720   69.1850  227.9850 C   0  0  0  0  0  0  0  0  0  0  0  0
  140.3940   68.5190  229.1870 F   0  0  0  0  0  0  0  0  0  0  0  0
  140.9730   70.4260  227.9760 C   0  0  0  0  0  0  0  0  0  0  0  0
  140.9760   71.1370  226.7860 C   0  0  0  0  0  0  0  0  0  0  0  0
  140.3850   70.5730  225.6770 C   0  0  0  0  0  0  0  0  0  0  0  0
  140.3990   71.2790  224.5330 N   0  0  0  0  0  0  0  0  0  0  0  0
  139.0520   73.3490  223.1030 H   0  0  0  0  0  0  0  0  0  0  0  0
  139.6432   73.1032  220.1188 H   0  0  0  0  0  0  0  0  0  0  0  0
  138.5616   74.3292  220.8300 H   0  0  0  0  0  0  0  0  0  0  0  0
  140.6045   76.4553  218.9809 H   0  0  0  0  0  0  0  0  0  0  0  0
  139.1366   77.0931  219.6431 H   0  0  0  0  0  0  0  0  0  0  0  0
  142.0539   77.9889  220.3023 H   0  0  0  0  0  0  0  0  0  0  0  0
  140.8659   79.0205  219.5904 H   0  0  0  0  0  0  0  0  0  0  0  0
  139.3959   78.8491  221.6960 H   0  0  0  0  0  0  0  0  0  0  0  0
  140.4568   80.9794  221.2103 H   0  0  0  0  0  0  0  0  0  0  0  0
  141.6725   82.7408  222.4440 H   0  0  0  0  0  0  0  0  0  0  0  0
  143.0514   82.1152  224.4152 H   0  0  0  0  0  0  0  0  0  0  0  0
  141.9925   78.0293  223.8849 H   0  0  0  0  0  0  0  0  0  0  0  0
  141.2534   76.8355  222.8740 H   0  0  0  0  0  0  0  0  0  0  0  0
  139.4813   76.8227  222.8404 H   0  0  0  0  0  0  0  0  0  0  0  0
  138.7849   69.2079  222.4223 H   0  0  0  0  0  0  0  0  0  0  0  0
  138.7473   67.8796  224.5274 H   0  0  0  0  0  0  0  0  0  0  0  0
  139.3170   67.6342  226.9275 H   0  0  0  0  0  0  0  0  0  0  0  0
  141.4356   70.8389  228.8846 H   0  0  0  0  0  0  0  0  0  0  0  0
  141.4412   72.1321  226.7285 H   0  0  0  0  0  0  0  0  0  0  0  0
  1  2  2  0
  2  3  1  0
  3  4  1  0
  4  5  1  0
  5  6  2  0
  5  7  1  0
  7  8  1  0
  8  9  1  0
  9 10  1  0
 10 11  1  0
 11 12  2  0
 12 13  1  0
 13 14  2  0
 14 15  1  0
 15 16  2  0
 10 17  1  0
  2 18  1  0
 18 19  2  0
 19 20  1  0
 20 21  2  0
 21 22  1  0
 22 23  2  0
 23 24  1  0
 23 25  1  0
 25 26  2  0
 26 27  1  0
 27 28  2  0
 17  7  1  0
 28 18  1  0
 16 11  1  0
 27 21  1  0
  3 29  1  0
  4 30  1  0
  4 31  1  0
  8 32  1  0
  8 33  1  0
  9 34  1  0
  9 35  1  0
 10 36  1  6
 12 37  1  0
 13 38  1  0
 14 39  1  0
 16 40  1  0
 17 41  1  0
 17 42  1  0
 19 43  1  0
 20 44  1  0
 22 45  1  0
 25 46  1  0
 26 47  1  0
M  END
>  <smiles>  (10) 
O=C(NCC(=O)N1CC[C@H](c2cccnc2)C1)c1ccc2cc(F)ccc2n1

>  <score_type>  (10) 
oracle

>  <origin>  (10) 
autodockgpu

>  <m_score__min__energy>  (10) 
-8.6600000000000001

>  <m_primary>  (10) 
energy

>  <rmsd>  (10) 
2.417431677151752

>  <m_score__min__rmsd>  (10) 
2.417431677151752

>  <meeko>  (10) 
{"free_energy": -8.3, "intermolecular_energy": -9.79, "internal_energy": -1.05, "cluster_size": 39, "cluster_id": 1, "rank_in_cluster": 20}

>  <energy>  (10) 
-8.53

>  <cluster_rmsd>  (10) 
1.63

>  <cluster>  (10) 
1

$$$$

     RDKit          3D

 47 50  0  0  0  0  0  0  0  0999 V2000
  140.8990   73.2880  222.4250 O   0  0  0  0  0  0  0  0  0  0  0  0
  139.8150   72.6760  222.6840 C   0  0  0  0  0  0  0  0  0  0  0  0
  138.6200   73.0010  221.9970 N   0  0  0  0  0  0  0  0  0  0  0  0
  138.6690   74.0440  220.9980 C   0  0  0  0  0  0  0  0  0  0  0  0
  138.5770   75.3480  221.7040 C   0  0  0  0  0  0  0  0  0  0  0  0
  137.7800   75.5560  222.6580 O   0  0  0  0  0  0  0  0  0  0  0  0
  139.4150   76.4230  221.3040 N   0  0  0  0  0  0  0  0  0  0  0  0
  140.4780   76.3880  220.3140 C   0  0  0  0  0  0  0  0  0  0  0  0
  141.4960   77.2930  220.9840 C   0  0  0  0  0  0  0  0  0  0  0  0
  140.5890   78.4810  221.3220 C   0  0  2  0  0  0  0  0  0  0  0  0
  141.2040   79.4360  222.2400 C   0  0  0  0  0  0  0  0  0  0  0  0
  142.5860   79.3870  222.4020 C   0  0  0  0  0  0  0  0  0  0  0  0
  143.2450   80.2490  223.2490 C   0  0  0  0  0  0  0  0  0  0  0  0
  142.5170   81.1790  223.9460 C   0  0  0  0  0  0  0  0  0  0  0  0
  141.1840   81.2260  223.7880 N   0  0  0  0  0  0  0  0  0  0  0  0
  140.5260   80.3730  222.9510 C   0  0  0  0  0  0  0  0  0  0  0  0
  139.3630   77.7990  221.8260 C   0  0  0  0  0  0  0  0  0  0  0  0
  139.8070   71.6210  223.7080 C   0  0  0  0  0  0  0  0  0  0  0  0
  139.1850   70.4170  223.4410 C   0  0  0  0  0  0  0  0  0  0  0  0
  139.2120   69.4640  224.4460 C   0  0  0  0  0  0  0  0  0  0  0  0
  139.8200   69.6800  225.6540 C   0  0  0  0  0  0  0  0  0  0  0  0
  139.8620   68.7470  226.6700 C   0  0  0  0  0  0  0  0  0  0  0  0
  140.4990   69.0650  227.8490 C   0  0  0  0  0  0  0  0  0  0  0  0
  140.5640   68.1660  228.8870 F   0  0  0  0  0  0  0  0  0  0  0  0
  141.1070   70.2810  228.0690 C   0  0  0  0  0  0  0  0  0  0  0  0
  141.0670   71.2210  227.0510 C   0  0  0  0  0  0  0  0  0  0  0  0
  140.4280   70.8960  225.8750 C   0  0  0  0  0  0  0  0  0  0  0  0
  140.4020   71.8210  224.9010 N   0  0  0  0  0  0  0  0  0  0  0  0
  137.7590   72.4680  222.2480 H   0  0  0  0  0  0  0  0  0  0  0  0
  139.6156   73.9853  220.4408 H   0  0  0  0  0  0  0  0  0  0  0  0
  137.8405   73.9329  220.2830 H   0  0  0  0  0  0  0  0  0  0  0  0
  140.8690   75.3698  220.1714 H   0  0  0  0  0  0  0  0  0  0  0  0
  140.1780   76.6991  219.3024 H   0  0  0  0  0  0  0  0  0  0  0  0
  141.9238   76.8327  221.8868 H   0  0  0  0  0  0  0  0  0  0  0  0
  142.3805   77.5354  220.3766 H   0  0  0  0  0  0  0  0  0  0  0  0
  140.3714   79.1420  220.4701 H   0  0  0  0  0  0  0  0  0  0  0  0
  143.1657   78.6407  221.8390 H   0  0  0  0  0  0  0  0  0  0  0  0
  144.3374   80.1928  223.3649 H   0  0  0  0  0  0  0  0  0  0  0  0
  143.0201   81.8800  224.6282 H   0  0  0  0  0  0  0  0  0  0  0  0
  139.4329   80.4453  222.8510 H   0  0  0  0  0  0  0  0  0  0  0  0
  139.3566   77.7897  222.9259 H   0  0  0  0  0  0  0  0  0  0  0  0
  138.4510   78.3186  221.4969 H   0  0  0  0  0  0  0  0  0  0  0  0
  138.6919   70.2242  222.4768 H   0  0  0  0  0  0  0  0  0  0  0  0
  138.7252   68.4941  224.2664 H   0  0  0  0  0  0  0  0  0  0  0  0
  139.3922   67.7609  226.5397 H   0  0  0  0  0  0  0  0  0  0  0  0
  141.6089   70.4996  229.0231 H   0  0  0  0  0  0  0  0  0  0  0  0
  141.5365   72.2074  227.1799 H   0  0  0  0  0  0  0  0  0  0  0  0
  1  2  2  0
  2  3  1  0
  3  4  1  0
  4  5  1  0
  5  6  2  0
  5  7  1  0
  7  8  1  0
  8  9  1  0
  9 10  1  0
 10 11  1  0
 11 12  2  0
 12 13  1  0
 13 14  2  0
 14 15  1  0
 15 16  2  0
 10 17  1  0
  2 18  1  0
 18 19  2  0
 19 20  1  0
 20 21  2  0
 21 22  1  0
 22 23  2  0
 23 24  1  0
 23 25  1  0
 25 26  2  0
 26 27  1  0
 27 28  2  0
 17  7  1  0
 28 18  1  0
 16 11  1  0
 27 21  1  0
  3 29  1  0
  4 30  1  0
  4 31  1  0
  8 32  1  0
  8 33  1  0
  9 34  1  0
  9 35  1  0
 10 36  1  6
 12 37  1  0
 13 38  1  0
 14 39  1  0
 16 40  1  0
 17 41  1  0
 17 42  1  0
 19 43  1  0
 20 44  1  0
 22 45  1  0
 25 46  1  0
 26 47  1  0
M  END
>  <smiles>  (11) 
O=C(NCC(=O)N1CC[C@H](c2cccnc2)C1)c1ccc2cc(F)ccc2n1

>  <score_type>  (11) 
oracle

>  <origin>  (11) 
autodockgpu

>  <m_score__min__energy>  (11) 
-8.6600000000000001

>  <m_primary>  (11) 
energy

>  <rmsd>  (11) 
2.544551818258621

>  <m_score__min__rmsd>  (11) 
2.544551818258621

>  <meeko>  (11) 
{"free_energy": -8.24, "intermolecular_energy": -9.73, "internal_energy": -1.11, "cluster_size": 39, "cluster_id": 1, "rank_in_cluster": 23}

>  <energy>  (11) 
-8.49

>  <cluster_rmsd>  (11) 
1.51

>  <cluster>  (11) 
1

$$$$

     RDKit          3D

 47 50  0  0  0  0  0  0  0  0999 V2000
  141.3370   71.9870  221.6520 O   0  0  0  0  0  0  0  0  0  0  0  0
  140.4020   72.1850  222.4900 C   0  0  0  0  0  0  0  0  0  0  0  0
  139.5320   73.2940  222.3530 N   0  0  0  0  0  0  0  0  0  0  0  0
  139.7390   74.1900  221.2390 C   0  0  0  0  0  0  0  0  0  0  0  0
  139.1840   75.5150  221.6180 C   0  0  0  0  0  0  0  0  0  0  0  0
  138.1190   75.6480  222.2790 O   0  0  0  0  0  0  0  0  0  0  0  0
  139.8660   76.6990  221.2280 N   0  0  0  0  0  0  0  0  0  0  0  0
  140.8410   76.8400  220.1620 C   0  0  0  0  0  0  0  0  0  0  0  0
  141.8080   77.8140  220.8120 C   0  0  0  0  0  0  0  0  0  0  0  0
  140.8100   78.8710  221.2960 C   0  0  2  0  0  0  0  0  0  0  0  0
  141.3920   79.8340  222.2270 C   0  0  0  0  0  0  0  0  0  0  0  0
  142.1720   79.3420  223.2700 C   0  0  0  0  0  0  0  0  0  0  0  0
  142.7560   80.1800  224.1920 C   0  0  0  0  0  0  0  0  0  0  0  0
  142.5630   81.5330  224.0750 C   0  0  0  0  0  0  0  0  0  0  0  0
  141.8120   82.0060  223.0670 N   0  0  0  0  0  0  0  0  0  0  0  0
  141.2300   81.1800  222.1510 C   0  0  0  0  0  0  0  0  0  0  0  0
  139.7090   78.0270  221.8440 C   0  0  0  0  0  0  0  0  0  0  0  0
  140.2250   71.2500  223.6110 C   0  0  0  0  0  0  0  0  0  0  0  0
  139.5840   70.0450  223.3990 C   0  0  0  0  0  0  0  0  0  0  0  0
  139.4490   69.2080  224.4950 C   0  0  0  0  0  0  0  0  0  0  0  0
  139.9200   69.5370  225.7390 C   0  0  0  0  0  0  0  0  0  0  0  0
  139.7980   68.7200  226.8450 C   0  0  0  0  0  0  0  0  0  0  0  0
  140.3060   69.1450  228.0520 C   0  0  0  0  0  0  0  0  0  0  0  0
  140.2070   68.3650  229.1800 F   0  0  0  0  0  0  0  0  0  0  0  0
  140.9400   70.3580  228.2160 C   0  0  0  0  0  0  0  0  0  0  0  0
  141.0640   71.1800  227.1060 C   0  0  0  0  0  0  0  0  0  0  0  0
  140.5530   70.7490  225.9020 C   0  0  0  0  0  0  0  0  0  0  0  0
  140.6840   71.5610  224.8400 N   0  0  0  0  0  0  0  0  0  0  0  0
  138.7810   73.4100  223.0690 H   0  0  0  0  0  0  0  0  0  0  0  0
  140.8143   74.2810  221.0258 H   0  0  0  0  0  0  0  0  0  0  0  0
  139.2399   73.8062  220.3370 H   0  0  0  0  0  0  0  0  0  0  0  0
  141.3260   75.8819  219.9237 H   0  0  0  0  0  0  0  0  0  0  0  0
  140.4275   77.1729  219.1986 H   0  0  0  0  0  0  0  0  0  0  0  0
  142.3559   77.3533  221.6472 H   0  0  0  0  0  0  0  0  0  0  0  0
  142.6080   78.1890  220.1567 H   0  0  0  0  0  0  0  0  0  0  0  0
  140.4539   79.5521  220.5091 H   0  0  0  0  0  0  0  0  0  0  0  0
  142.3252   78.2564  223.3592 H   0  0  0  0  0  0  0  0  0  0  0  0
  143.3678   79.7715  225.0098 H   0  0  0  0  0  0  0  0  0  0  0  0
  143.0188   82.2238  224.7996 H   0  0  0  0  0  0  0  0  0  0  0  0
  140.6221   81.6093  221.3410 H   0  0  0  0  0  0  0  0  0  0  0  0
  139.7937   77.9525  222.9382 H   0  0  0  0  0  0  0  0  0  0  0  0
  138.7225   78.4592  221.6204 H   0  0  0  0  0  0  0  0  0  0  0  0
  139.1992   69.7634  222.4077 H   0  0  0  0  0  0  0  0  0  0  0  0
  138.9433   68.2404  224.3610 H   0  0  0  0  0  0  0  0  0  0  0  0
  139.3013   67.7420  226.7630 H   0  0  0  0  0  0  0  0  0  0  0  0
  141.3349   70.6641  229.1960 H   0  0  0  0  0  0  0  0  0  0  0  0
  141.5612   72.1580  227.1858 H   0  0  0  0  0  0  0  0  0  0  0  0
  1  2  2  0
  2  3  1  0
  3  4  1  0
  4  5  1  0
  5  6  2  0
  5  7  1  0
  7  8  1  0
  8  9  1  0
  9 10  1  0
 10 11  1  0
 11 12  2  0
 12 13  1  0
 13 14  2  0
 14 15  1  0
 15 16  2  0
 10 17  1  0
  2 18  1  0
 18 19  2  0
 19 20  1  0
 20 21  2  0
 21 22  1  0
 22 23  2  0
 23 24  1  0
 23 25  1  0
 25 26  2  0
 26 27  1  0
 27 28  2  0
 17  7  1  0
 28 18  1  0
 16 11  1  0
 27 21  1  0
  3 29  1  0
  4 30  1  0
  4 31  1  0
  8 32  1  0
  8 33  1  0
  9 34  1  0
  9 35  1  0
 10 36  1  6
 12 37  1  0
 13 38  1  0
 14 39  1  0
 16 40  1  0
 17 41  1  0
 17 42  1  0
 19 43  1  0
 20 44  1  0
 22 45  1  0
 25 46  1  0
 26 47  1  0
M  END
>  <smiles>  (12) 
O=C(NCC(=O)N1CC[C@H](c2cccnc2)C1)c1ccc2cc(F)ccc2n1

>  <score_type>  (12) 
oracle

>  <origin>  (12) 
autodockgpu

>  <m_score__min__energy>  (12) 
-8.6600000000000001

>  <m_primary>  (12) 
energy

>  <rmsd>  (12) 
2.6175902663517983

>  <m_score__min__rmsd>  (12) 
2.6175902663517983

>  <meeko>  (12) 
{"free_energy": -8.49, "intermolecular_energy": -9.99, "internal_energy": -1.25, "cluster_size": 39, "cluster_id": 1, "rank_in_cluster": 11}

>  <energy>  (12) 
-8.49

>  <cluster_rmsd>  (12) 
1.53

>  <cluster>  (12) 
1

$$$$

     RDKit          3D

 47 50  0  0  0  0  0  0  0  0999 V2000
  141.2780   71.8730  221.7790 O   0  0  0  0  0  0  0  0  0  0  0  0
  140.2970   72.0470  222.5700 C   0  0  0  0  0  0  0  0  0  0  0  0
  139.3680   73.0930  222.3480 N   0  0  0  0  0  0  0  0  0  0  0  0
  139.5680   73.9520  221.2040 C   0  0  0  0  0  0  0  0  0  0  0  0
  140.5580   74.9910  221.5880 C   0  0  0  0  0  0  0  0  0  0  0  0
  141.7890   74.8870  221.3430 O   0  0  0  0  0  0  0  0  0  0  0  0
  140.1200   76.1610  222.2640 N   0  0  0  0  0  0  0  0  0  0  0  0
  138.7630   76.4880  222.6670 C   0  0  0  0  0  0  0  0  0  0  0  0
  138.7520   77.9800  222.3820 C   0  0  0  0  0  0  0  0  0  0  0  0
  140.0470   78.3790  223.0950 C   0  0  2  0  0  0  0  0  0  0  0  0
  140.4910   79.7330  222.7750 C   0  0  0  0  0  0  0  0  0  0  0  0
  141.8610   79.9730  222.7130 C   0  0  0  0  0  0  0  0  0  0  0  0
  142.3630   81.2200  222.4180 C   0  0  0  0  0  0  0  0  0  0  0  0
  141.4880   82.2480  222.1790 C   0  0  0  0  0  0  0  0  0  0  0  0
  140.1660   82.0150  222.2380 N   0  0  0  0  0  0  0  0  0  0  0  0
  139.6630   80.7810  222.5300 C   0  0  0  0  0  0  0  0  0  0  0  0
  140.9740   77.2830  222.6890 C   0  0  0  0  0  0  0  0  0  0  0  0
  140.1290   71.1510  223.7230 C   0  0  0  0  0  0  0  0  0  0  0  0
  139.4460   69.9610  223.5680 C   0  0  0  0  0  0  0  0  0  0  0  0
  139.3220   69.1610  224.6920 C   0  0  0  0  0  0  0  0  0  0  0  0
  139.8430   69.5110  225.9100 C   0  0  0  0  0  0  0  0  0  0  0  0
  139.7330   68.7320  227.0440 C   0  0  0  0  0  0  0  0  0  0  0  0
  140.2920   69.1760  228.2210 C   0  0  0  0  0  0  0  0  0  0  0  0
  140.2070   68.4330  229.3740 F   0  0  0  0  0  0  0  0  0  0  0  0
  140.9660   70.3730  228.3280 C   0  0  0  0  0  0  0  0  0  0  0  0
  141.0780   71.1590  227.1910 C   0  0  0  0  0  0  0  0  0  0  0  0
  140.5160   70.7080  226.0170 C   0  0  0  0  0  0  0  0  0  0  0  0
  140.6370   71.4840  224.9270 N   0  0  0  0  0  0  0  0  0  0  0  0
  138.5810   73.1910  223.0260 H   0  0  0  0  0  0  0  0  0  0  0  0
  139.9509   73.3645  220.3565 H   0  0  0  0  0  0  0  0  0  0  0  0
  138.6186   74.4174  220.9005 H   0  0  0  0  0  0  0  0  0  0  0  0
  138.0175   75.9518  222.0615 H   0  0  0  0  0  0  0  0  0  0  0  0
  138.5093   76.2133  223.7015 H   0  0  0  0  0  0  0  0  0  0  0  0
  138.7943   78.1927  221.3036 H   0  0  0  0  0  0  0  0  0  0  0  0
  137.8496   78.5148  222.7131 H   0  0  0  0  0  0  0  0  0  0  0  0
  139.9559   78.4569  224.1885 H   0  0  0  0  0  0  0  0  0  0  0  0
  142.5596   79.1452  222.9046 H   0  0  0  0  0  0  0  0  0  0  0  0
  143.4491   81.3892  222.3747 H   0  0  0  0  0  0  0  0  0  0  0  0
  141.8646   83.2538  221.9412 H   0  0  0  0  0  0  0  0  0  0  0  0
  138.5736   80.6332  222.5674 H   0  0  0  0  0  0  0  0  0  0  0  0
  141.6132   77.6126  221.8567 H   0  0  0  0  0  0  0  0  0  0  0  0
  141.6377   76.9914  223.5163 H   0  0  0  0  0  0  0  0  0  0  0  0
  139.0207   69.6626  222.5984 H   0  0  0  0  0  0  0  0  0  0  0  0
  138.7834   68.2060  224.6032 H   0  0  0  0  0  0  0  0  0  0  0  0
  139.2049   67.7678  227.0077 H   0  0  0  0  0  0  0  0  0  0  0  0
  141.4016   70.6951  229.2854 H   0  0  0  0  0  0  0  0  0  0  0  0
  141.6053   72.1237  227.2259 H   0  0  0  0  0  0  0  0  0  0  0  0
  1  2  2  0
  2  3  1  0
  3  4  1  0
  4  5  1  0
  5  6  2  0
  5  7  1  0
  7  8  1  0
  8  9  1  0
  9 10  1  0
 10 11  1  0
 11 12  2  0
 12 13  1  0
 13 14  2  0
 14 15  1  0
 15 16  2  0
 10 17  1  0
  2 18  1  0
 18 19  2  0
 19 20  1  0
 20 21  2  0
 21 22  1  0
 22 23  2  0
 23 24  1  0
 23 25  1  0
 25 26  2  0
 26 27  1  0
 27 28  2  0
 17  7  1  0
 28 18  1  0
 16 11  1  0
 27 21  1  0
  3 29  1  0
  4 30  1  0
  4 31  1  0
  8 32  1  0
  8 33  1  0
  9 34  1  0
  9 35  1  0
 10 36  1  1
 12 37  1  0
 13 38  1  0
 14 39  1  0
 16 40  1  0
 17 41  1  0
 17 42  1  0
 19 43  1  0
 20 44  1  0
 22 45  1  0
 25 46  1  0
 26 47  1  0
M  END
>  <smiles>  (13) 
O=C(NCC(=O)N1CC[C@H](c2cccnc2)C1)c1ccc2cc(F)ccc2n1

>  <score_type>  (13) 
oracle

>  <origin>  (13) 
autodockgpu

>  <m_score__min__energy>  (13) 
-8.6600000000000001

>  <m_primary>  (13) 
energy

>  <rmsd>  (13) 
3.218866184966318

>  <m_score__min__rmsd>  (13) 
3.218866184966318

>  <meeko>  (13) 
{"free_energy": -8.22, "intermolecular_energy": -9.71, "internal_energy": -1.02, "cluster_size": 39, "cluster_id": 1, "rank_in_cluster": 25}

>  <energy>  (13) 
-8.47

>  <cluster_rmsd>  (13) 
1.51

>  <cluster>  (13) 
1

$$$$

     RDKit          3D

 47 50  0  0  0  0  0  0  0  0999 V2000
  141.2660   72.3040  221.5890 O   0  0  0  0  0  0  0  0  0  0  0  0
  140.2970   72.4280  222.4030 C   0  0  0  0  0  0  0  0  0  0  0  0
  139.3440   73.4620  222.2390 N   0  0  0  0  0  0  0  0  0  0  0  0
  139.5030   74.3670  221.1250 C   0  0  0  0  0  0  0  0  0  0  0  0
  140.4270   75.4490  221.5530 C   0  0  0  0  0  0  0  0  0  0  0  0
  140.1730   76.2280  222.5100 O   0  0  0  0  0  0  0  0  0  0  0  0
  141.6570   75.6330  220.8670 N   0  0  0  0  0  0  0  0  0  0  0  0
  142.0560   76.7780  220.0670 C   0  0  0  0  0  0  0  0  0  0  0  0
  142.8030   76.0740  218.9470 C   0  0  0  0  0  0  0  0  0  0  0  0
  143.7150   75.1720  219.7850 C   0  0  2  0  0  0  0  0  0  0  0  0
  144.3850   74.1390  219.0010 C   0  0  0  0  0  0  0  0  0  0  0  0
  143.9980   73.9730  217.6740 C   0  0  0  0  0  0  0  0  0  0  0  0
  144.5780   73.0220  216.8660 C   0  0  0  0  0  0  0  0  0  0  0  0
  145.5620   72.2200  217.3850 C   0  0  0  0  0  0  0  0  0  0  0  0
  145.9350   72.3820  218.6650 N   0  0  0  0  0  0  0  0  0  0  0  0
  145.3640   73.3220  219.4710 C   0  0  0  0  0  0  0  0  0  0  0  0
  142.7790   74.6790  220.8370 C   0  0  0  0  0  0  0  0  0  0  0  0
  140.1700   71.4860  223.5250 C   0  0  0  0  0  0  0  0  0  0  0  0
  139.5680   70.2590  223.3210 C   0  0  0  0  0  0  0  0  0  0  0  0
  139.4790   69.4170  224.4170 C   0  0  0  0  0  0  0  0  0  0  0  0
  139.9570   69.7610  225.6540 C   0  0  0  0  0  0  0  0  0  0  0  0
  139.8800   68.9390  226.7610 C   0  0  0  0  0  0  0  0  0  0  0  0
  140.3910   69.3800  227.9610 C   0  0  0  0  0  0  0  0  0  0  0  0
  140.3360   68.5960  229.0880 F   0  0  0  0  0  0  0  0  0  0  0  0
  140.9840   70.6140  228.1170 C   0  0  0  0  0  0  0  0  0  0  0  0
  141.0620   71.4420  227.0070 C   0  0  0  0  0  0  0  0  0  0  0  0
  140.5490   70.9940  225.8100 C   0  0  0  0  0  0  0  0  0  0  0  0
  140.6360   71.8110  224.7470 N   0  0  0  0  0  0  0  0  0  0  0  0
  138.5690   73.5180  222.9350 H   0  0  0  0  0  0  0  0  0  0  0  0
  139.9273   73.8304  220.2636 H   0  0  0  0  0  0  0  0  0  0  0  0
  138.5308   74.7854  220.8256 H   0  0  0  0  0  0  0  0  0  0  0  0
  141.1857   77.3348  219.6895 H   0  0  0  0  0  0  0  0  0  0  0  0
  142.6410   77.5374  220.6066 H   0  0  0  0  0  0  0  0  0  0  0  0
  142.1265   75.4913  218.3045 H   0  0  0  0  0  0  0  0  0  0  0  0
  143.3208   76.7371  218.2383 H   0  0  0  0  0  0  0  0  0  0  0  0
  144.5866   75.6850  220.2175 H   0  0  0  0  0  0  0  0  0  0  0  0
  143.2087   74.6183  217.2610 H   0  0  0  0  0  0  0  0  0  0  0  0
  144.2574   72.9069  215.8201 H   0  0  0  0  0  0  0  0  0  0  0  0
  146.0407   71.4521  216.7595 H   0  0  0  0  0  0  0  0  0  0  0  0
  145.6997   73.4202  220.5139 H   0  0  0  0  0  0  0  0  0  0  0  0
  142.4167   73.6717  220.5837 H   0  0  0  0  0  0  0  0  0  0  0  0
  143.2753   74.6122  221.8164 H   0  0  0  0  0  0  0  0  0  0  0  0
  139.1781   69.9651  222.3353 H   0  0  0  0  0  0  0  0  0  0  0  0
  139.0055   68.4324  224.2892 H   0  0  0  0  0  0  0  0  0  0  0  0
  139.4163   67.9444  226.6850 H   0  0  0  0  0  0  0  0  0  0  0  0
  141.3830   70.9325  229.0914 H   0  0  0  0  0  0  0  0  0  0  0  0
  141.5246   72.4372  227.0813 H   0  0  0  0  0  0  0  0  0  0  0  0
  1  2  2  0
  2  3  1  0
  3  4  1  0
  4  5  1  0
  5  6  2  0
  5  7  1  0
  7  8  1  0
  8  9  1  0
  9 10  1  0
 10 11  1  0
 11 12  2  0
 12 13  1  0
 13 14  2  0
 14 15  1  0
 15 16  2  0
 10 17  1  0
  2 18  1  0
 18 19  2  0
 19 20  1  0
 20 21  2  0
 21 22  1  0
 22 23  2  0
 23 24  1  0
 23 25  1  0
 25 26  2  0
 26 27  1  0
 27 28  2  0
 17  7  1  0
 28 18  1  0
 16 11  1  0
 27 21  1  0
  3 29  1  0
  4 30  1  0
  4 31  1  0
  8 32  1  0
  8 33  1  0
  9 34  1  0
  9 35  1  0
 10 36  1  1
 12 37  1  0
 13 38  1  0
 14 39  1  0
 16 40  1  0
 17 41  1  0
 17 42  1  0
 19 43  1  0
 20 44  1  0
 22 45  1  0
 25 46  1  0
 26 47  1  0
M  END
>  <smiles>  (14) 
O=C(NCC(=O)N1CC[C@H](c2cccnc2)C1)c1ccc2cc(F)ccc2n1

>  <score_type>  (14) 
oracle

>  <origin>  (14) 
autodockgpu

>  <m_score__min__energy>  (14) 
-8.6600000000000001

>  <m_primary>  (14) 
energy

>  <rmsd>  (14) 
2.2673109596262644

>  <m_score__min__rmsd>  (14) 
2.2673109596262644

>  <meeko>  (14) 
{"free_energy": -8.13, "intermolecular_energy": -9.62, "internal_energy": -1.2, "cluster_size": 9, "cluster_id": 2, "rank_in_cluster": 6}

>  <energy>  (14) 
-8.44

>  <cluster_rmsd>  (14) 
1.45

>  <cluster>  (14) 
1

$$$$

     RDKit          3D

 47 50  0  0  0  0  0  0  0  0999 V2000
  138.0000   71.9280  222.2490 O   0  0  0  0  0  0  0  0  0  0  0  0
  139.1650   71.8060  222.7430 C   0  0  0  0  0  0  0  0  0  0  0  0
  140.2480   72.5650  222.2350 N   0  0  0  0  0  0  0  0  0  0  0  0
  139.9900   73.4770  221.1450 C   0  0  0  0  0  0  0  0  0  0  0  0
  140.9320   74.6180  221.2810 C   0  0  0  0  0  0  0  0  0  0  0  0
  142.1830   74.4860  221.2080 O   0  0  0  0  0  0  0  0  0  0  0  0
  140.4220   75.9250  221.5040 N   0  0  0  0  0  0  0  0  0  0  0  0
  139.5440   76.6870  220.6320 C   0  0  0  0  0  0  0  0  0  0  0  0
  140.1300   78.0770  220.8140 C   0  0  0  0  0  0  0  0  0  0  0  0
  140.1810   78.1280  222.3440 C   0  0  2  0  0  0  0  0  0  0  0  0
  140.9680   79.2440  222.8600 C   0  0  0  0  0  0  0  0  0  0  0  0
  142.3510   79.1900  222.7130 C   0  0  0  0  0  0  0  0  0  0  0  0
  143.1660   80.2000  223.1710 C   0  0  0  0  0  0  0  0  0  0  0  0
  142.5970   81.2850  223.7870 C   0  0  0  0  0  0  0  0  0  0  0  0
  141.2620   81.3360  223.9270 N   0  0  0  0  0  0  0  0  0  0  0  0
  140.4490   80.3380  223.4750 C   0  0  0  0  0  0  0  0  0  0  0  0
  140.6920   76.7680  222.6810 C   0  0  0  0  0  0  0  0  0  0  0  0
  139.3870   70.8670  223.8530 C   0  0  0  0  0  0  0  0  0  0  0  0
  138.9850   69.5520  223.7240 C   0  0  0  0  0  0  0  0  0  0  0  0
  139.2220   68.7170  224.8040 C   0  0  0  0  0  0  0  0  0  0  0  0
  139.8240   69.1520  225.9560 C   0  0  0  0  0  0  0  0  0  0  0  0
  140.0720   68.3400  227.0450 C   0  0  0  0  0  0  0  0  0  0  0  0
  140.6830   68.8760  228.1560 C   0  0  0  0  0  0  0  0  0  0  0  0
  140.9480   68.1060  229.2630 F   0  0  0  0  0  0  0  0  0  0  0  0
  141.0670   70.1970  228.2390 C   0  0  0  0  0  0  0  0  0  0  0  0
  140.8200   71.0140  227.1470 C   0  0  0  0  0  0  0  0  0  0  0  0
  140.2080   70.4720  226.0390 C   0  0  0  0  0  0  0  0  0  0  0  0
  139.9780   71.2810  224.9910 N   0  0  0  0  0  0  0  0  0  0  0  0
  141.1830   72.4270  222.6770 H   0  0  0  0  0  0  0  0  0  0  0  0
  140.1536   72.9682  220.1836 H   0  0  0  0  0  0  0  0  0  0  0  0
  138.9487   73.8302  221.1752 H   0  0  0  0  0  0  0  0  0  0  0  0
  139.6127   76.3489  219.5875 H   0  0  0  0  0  0  0  0  0  0  0  0
  138.4725   76.6024  220.8659 H   0  0  0  0  0  0  0  0  0  0  0  0
  141.1312   78.1626  220.3665 H   0  0  0  0  0  0  0  0  0  0  0  0
  139.5652   78.8908  220.3358 H   0  0  0  0  0  0  0  0  0  0  0  0
  139.2124   78.3343  222.8228 H   0  0  0  0  0  0  0  0  0  0  0  0
  142.8040   78.3182  222.2183 H   0  0  0  0  0  0  0  0  0  0  0  0
  144.2570   80.1379  223.0449 H   0  0  0  0  0  0  0  0  0  0  0  0
  143.2270   82.1048  224.1625 H   0  0  0  0  0  0  0  0  0  0  0  0
  139.3605   80.4204  223.6103 H   0  0  0  0  0  0  0  0  0  0  0  0
  141.7726   76.8058  222.8833 H   0  0  0  0  0  0  0  0  0  0  0  0
  140.2034   76.3677  223.5816 H   0  0  0  0  0  0  0  0  0  0  0  0
  138.4998   69.1850  222.8075 H   0  0  0  0  0  0  0  0  0  0  0  0
  138.9148   67.6631  224.7341 H   0  0  0  0  0  0  0  0  0  0  0  0
  139.7850   67.2783  227.0250 H   0  0  0  0  0  0  0  0  0  0  0  0
  141.5541   70.5905  229.1433 H   0  0  0  0  0  0  0  0  0  0  0  0
  141.1075   72.0756  227.1651 H   0  0  0  0  0  0  0  0  0  0  0  0
  1  2  2  0
  2  3  1  0
  3  4  1  0
  4  5  1  0
  5  6  2  0
  5  7  1  0
  7  8  1  0
  8  9  1  0
  9 10  1  0
 10 11  1  0
 11 12  2  0
 12 13  1  0
 13 14  2  0
 14 15  1  0
 15 16  2  0
 10 17  1  0
  2 18  1  0
 18 19  2  0
 19 20  1  0
 20 21  2  0
 21 22  1  0
 22 23  2  0
 23 24  1  0
 23 25  1  0
 25 26  2  0
 26 27  1  0
 27 28  2  0
 17  7  1  0
 28 18  1  0
 16 11  1  0
 27 21  1  0
  3 29  1  0
  4 30  1  0
  4 31  1  0
  8 32  1  0
  8 33  1  0
  9 34  1  0
  9 35  1  0
 10 36  1  1
 12 37  1  0
 13 38  1  0
 14 39  1  0
 16 40  1  0
 17 41  1  0
 17 42  1  0
 19 43  1  0
 20 44  1  0
 22 45  1  0
 25 46  1  0
 26 47  1  0
M  END
>  <smiles>  (15) 
O=C(NCC(=O)N1CC[C@H](c2cccnc2)C1)c1ccc2cc(F)ccc2n1

>  <score_type>  (15) 
oracle

>  <origin>  (15) 
autodockgpu

>  <m_score__min__energy>  (15) 
-8.6600000000000001

>  <m_primary>  (15) 
energy

>  <rmsd>  (15) 
2.7398210736812514

>  <m_score__min__rmsd>  (15) 
2.7398210736812514

>  <meeko>  (15) 
{"free_energy": -8.01, "intermolecular_energy": -9.5, "internal_energy": -1.16, "cluster_size": 39, "cluster_id": 1, "rank_in_cluster": 35}

>  <energy>  (15) 
-8.43

>  <cluster_rmsd>  (15) 
1.43

>  <cluster>  (15) 
1

$$$$

     RDKit          3D

 47 50  0  0  0  0  0  0  0  0999 V2000
  139.9320   73.7540  222.6940 O   0  0  0  0  0  0  0  0  0  0  0  0
  140.2060   72.5320  222.4760 C   0  0  0  0  0  0  0  0  0  0  0  0
  140.5800   72.0960  221.1810 N   0  0  0  0  0  0  0  0  0  0  0  0
  140.6410   73.0760  220.1210 C   0  0  0  0  0  0  0  0  0  0  0  0
  141.7960   73.9680  220.4000 C   0  0  0  0  0  0  0  0  0  0  0  0
  142.9190   73.5380  220.7750 O   0  0  0  0  0  0  0  0  0  0  0  0
  141.6500   75.3720  220.2430 N   0  0  0  0  0  0  0  0  0  0  0  0
  142.0280   76.1730  219.0920 C   0  0  0  0  0  0  0  0  0  0  0  0
  142.5520   77.4150  219.7930 C   0  0  0  0  0  0  0  0  0  0  0  0
  141.3850   77.6720  220.7510 C   0  0  2  0  0  0  0  0  0  0  0  0
  141.6920   78.6540  221.7860 C   0  0  0  0  0  0  0  0  0  0  0  0
  141.4730   78.2940  223.1130 C   0  0  0  0  0  0  0  0  0  0  0  0
  141.7350   79.1600  224.1500 C   0  0  0  0  0  0  0  0  0  0  0  0
  142.2240   80.4090  223.8640 C   0  0  0  0  0  0  0  0  0  0  0  0
  142.4350   80.7550  222.5840 N   0  0  0  0  0  0  0  0  0  0  0  0
  142.1770   79.9010  221.5520 C   0  0  0  0  0  0  0  0  0  0  0  0
  141.0770   76.2960  221.2370 C   0  0  0  0  0  0  0  0  0  0  0  0
  140.1330   71.5650  223.5810 C   0  0  0  0  0  0  0  0  0  0  0  0
  139.5820   70.3180  223.3620 C   0  0  0  0  0  0  0  0  0  0  0  0
  139.5420   69.4540  224.4430 C   0  0  0  0  0  0  0  0  0  0  0  0
  140.0210   69.7950  225.6810 C   0  0  0  0  0  0  0  0  0  0  0  0
  139.9930   68.9520  226.7730 C   0  0  0  0  0  0  0  0  0  0  0  0
  140.5000   69.3930  227.9750 C   0  0  0  0  0  0  0  0  0  0  0  0
  140.4930   68.5870  229.0880 F   0  0  0  0  0  0  0  0  0  0  0  0
  141.0420   70.6480  228.1460 C   0  0  0  0  0  0  0  0  0  0  0  0
  141.0710   71.4980  227.0510 C   0  0  0  0  0  0  0  0  0  0  0  0
  140.5620   71.0500  225.8520 C   0  0  0  0  0  0  0  0  0  0  0  0
  140.6000   71.8890  224.8040 N   0  0  0  0  0  0  0  0  0  0  0  0
  140.7950   71.0820  221.0570 H   0  0  0  0  0  0  0  0  0  0  0  0
  140.7808   72.5731  219.1527 H   0  0  0  0  0  0  0  0  0  0  0  0
  139.7071   73.6556  220.0764 H   0  0  0  0  0  0  0  0  0  0  0  0
  142.8092   75.6827  218.4926 H   0  0  0  0  0  0  0  0  0  0  0  0
  141.2186   76.3561  218.3700 H   0  0  0  0  0  0  0  0  0  0  0  0
  143.4903   77.2175  220.3321 H   0  0  0  0  0  0  0  0  0  0  0  0
  142.8091   78.2547  219.1305 H   0  0  0  0  0  0  0  0  0  0  0  0
  140.5108   78.1486  220.2835 H   0  0  0  0  0  0  0  0  0  0  0  0
  141.0804   77.2915  223.3384 H   0  0  0  0  0  0  0  0  0  0  0  0
  141.5551   78.8553  225.1915 H   0  0  0  0  0  0  0  0  0  0  0  0
  142.4411   81.1199  224.6749 H   0  0  0  0  0  0  0  0  0  0  0  0
  142.3640   80.2261  220.5179 H   0  0  0  0  0  0  0  0  0  0  0  0
  141.5354   76.1281  222.2227 H   0  0  0  0  0  0  0  0  0  0  0  0
  139.9934   76.1432  221.3489 H   0  0  0  0  0  0  0  0  0  0  0  0
  139.1933   70.0250  222.3756 H   0  0  0  0  0  0  0  0  0  0  0  0
  139.1081   68.4530  224.3025 H   0  0  0  0  0  0  0  0  0  0  0  0
  139.5709   67.9401  226.6845 H   0  0  0  0  0  0  0  0  0  0  0  0
  141.4395   70.9659  229.1212 H   0  0  0  0  0  0  0  0  0  0  0  0
  141.4923   72.5104  227.1380 H   0  0  0  0  0  0  0  0  0  0  0  0
  1  2  2  0
  2  3  1  0
  3  4  1  0
  4  5  1  0
  5  6  2  0
  5  7  1  0
  7  8  1  0
  8  9  1  0
  9 10  1  0
 10 11  1  0
 11 12  2  0
 12 13  1  0
 13 14  2  0
 14 15  1  0
 15 16  2  0
 10 17  1  0
  2 18  1  0
 18 19  2  0
 19 20  1  0
 20 21  2  0
 21 22  1  0
 22 23  2  0
 23 24  1  0
 23 25  1  0
 25 26  2  0
 26 27  1  0
 27 28  2  0
 17  7  1  0
 28 18  1  0
 16 11  1  0
 27 21  1  0
  3 29  1  0
  4 30  1  0
  4 31  1  0
  8 32  1  0
  8 33  1  0
  9 34  1  0
  9 35  1  0
 10 36  1  6
 12 37  1  0
 13 38  1  0
 14 39  1  0
 16 40  1  0
 17 41  1  0
 17 42  1  0
 19 43  1  0
 20 44  1  0
 22 45  1  0
 25 46  1  0
 26 47  1  0
M  END
>  <smiles>  (16) 
O=C(NCC(=O)N1CC[C@H](c2cccnc2)C1)c1ccc2cc(F)ccc2n1

>  <score_type>  (16) 
oracle

>  <origin>  (16) 
autodockgpu

>  <m_score__min__energy>  (16) 
-8.6600000000000001

>  <m_primary>  (16) 
energy

>  <rmsd>  (16) 
2.493777702335868

>  <m_score__min__rmsd>  (16) 
2.493777702335868

>  <meeko>  (16) 
{"free_energy": -8.57, "intermolecular_energy": -10.06, "internal_energy": -1.12, "cluster_size": 39, "cluster_id": 1, "rank_in_cluster": 8}

>  <energy>  (16) 
-8.42

>  <cluster_rmsd>  (16) 
0.84

>  <cluster>  (16) 
1

$$$$

     RDKit          3D

 47 50  0  0  0  0  0  0  0  0999 V2000
  141.4490   72.0370  221.7400 O   0  0  0  0  0  0  0  0  0  0  0  0
  140.4670   72.2160  222.5280 C   0  0  0  0  0  0  0  0  0  0  0  0
  139.5800   73.3040  222.3400 N   0  0  0  0  0  0  0  0  0  0  0  0
  139.8230   74.2000  221.2340 C   0  0  0  0  0  0  0  0  0  0  0  0
  139.2070   75.5100  221.5720 C   0  0  0  0  0  0  0  0  0  0  0  0
  138.0910   75.6130  222.1470 O   0  0  0  0  0  0  0  0  0  0  0  0
  139.8890   76.7110  221.2410 N   0  0  0  0  0  0  0  0  0  0  0  0
  140.8610   76.9070  220.1800 C   0  0  0  0  0  0  0  0  0  0  0  0
  141.8310   77.8460  220.8770 C   0  0  0  0  0  0  0  0  0  0  0  0
  140.8350   78.8770  221.4170 C   0  0  2  0  0  0  0  0  0  0  0  0
  141.4210   79.7900  222.3940 C   0  0  0  0  0  0  0  0  0  0  0  0
  142.7940   79.7180  222.6130 C   0  0  0  0  0  0  0  0  0  0  0  0
  143.4260   80.5410  223.5170 C   0  0  0  0  0  0  0  0  0  0  0  0
  142.6790   81.4540  224.2170 C   0  0  0  0  0  0  0  0  0  0  0  0
  141.3550   81.5230  224.0050 N   0  0  0  0  0  0  0  0  0  0  0  0
  140.7230   80.7090  223.1100 C   0  0  0  0  0  0  0  0  0  0  0  0
  139.7350   78.0070  221.9250 C   0  0  0  0  0  0  0  0  0  0  0  0
  140.2540   71.2810  223.6420 C   0  0  0  0  0  0  0  0  0  0  0  0
  139.5540   70.1100  223.4260 C   0  0  0  0  0  0  0  0  0  0  0  0
  139.3880   69.2710  224.5150 C   0  0  0  0  0  0  0  0  0  0  0  0
  139.8840   69.5670  225.7580 C   0  0  0  0  0  0  0  0  0  0  0  0
  139.7320   68.7470  226.8590 C   0  0  0  0  0  0  0  0  0  0  0  0
  140.2690   69.1370  228.0650 C   0  0  0  0  0  0  0  0  0  0  0  0
  140.1420   68.3530  229.1870 F   0  0  0  0  0  0  0  0  0  0  0  0
  140.9620   70.3170  228.2330 C   0  0  0  0  0  0  0  0  0  0  0  0
  141.1160   71.1420  227.1300 C   0  0  0  0  0  0  0  0  0  0  0  0
  140.5760   70.7450  225.9260 C   0  0  0  0  0  0  0  0  0  0  0  0
  140.7370   71.5590  224.8690 N   0  0  0  0  0  0  0  0  0  0  0  0
  138.7910   73.4040  223.0150 H   0  0  0  0  0  0  0  0  0  0  0  0
  140.9055   74.3228  221.0818 H   0  0  0  0  0  0  0  0  0  0  0  0
  139.3881   73.7965  220.3077 H   0  0  0  0  0  0  0  0  0  0  0  0
  141.3447   75.9624  219.8905 H   0  0  0  0  0  0  0  0  0  0  0  0
  140.4445   77.2896  219.2365 H   0  0  0  0  0  0  0  0  0  0  0  0
  142.3806   77.3426  221.6860 H   0  0  0  0  0  0  0  0  0  0  0  0
  142.6297   78.2536  220.2399 H   0  0  0  0  0  0  0  0  0  0  0  0
  140.4765   79.5972  220.6668 H   0  0  0  0  0  0  0  0  0  0  0  0
  143.3889   78.9845  222.0490 H   0  0  0  0  0  0  0  0  0  0  0  0
  144.5120   80.4679  223.6756 H   0  0  0  0  0  0  0  0  0  0  0  0
  143.1602   82.1234  224.9452 H   0  0  0  0  0  0  0  0  0  0  0  0
  139.6360   80.7984  222.9670 H   0  0  0  0  0  0  0  0  0  0  0  0
  139.8233   77.8768  223.0137 H   0  0  0  0  0  0  0  0  0  0  0  0
  138.7481   78.4507  221.7271 H   0  0  0  0  0  0  0  0  0  0  0  0
  139.1477   69.8560  222.4358 H   0  0  0  0  0  0  0  0  0  0  0  0
  138.8361   68.3295  224.3771 H   0  0  0  0  0  0  0  0  0  0  0  0
  139.1887   67.7944  226.7732 H   0  0  0  0  0  0  0  0  0  0  0  0
  141.3797   70.5950  229.2119 H   0  0  0  0  0  0  0  0  0  0  0  0
  141.6587   72.0951  227.2141 H   0  0  0  0  0  0  0  0  0  0  0  0
  1  2  2  0
  2  3  1  0
  3  4  1  0
  4  5  1  0
  5  6  2  0
  5  7  1  0
  7  8  1  0
  8  9  1  0
  9 10  1  0
 10 11  1  0
 11 12  2  0
 12 13  1  0
 13 14  2  0
 14 15  1  0
 15 16  2  0
 10 17  1  0
  2 18  1  0
 18 19  2  0
 19 20  1  0
 20 21  2  0
 21 22  1  0
 22 23  2  0
 23 24  1  0
 23 25  1  0
 25 26  2  0
 26 27  1  0
 27 28  2  0
 17  7  1  0
 28 18  1  0
 16 11  1  0
 27 21  1  0
  3 29  1  0
  4 30  1  0
  4 31  1  0
  8 32  1  0
  8 33  1  0
  9 34  1  0
  9 35  1  0
 10 36  1  6
 12 37  1  0
 13 38  1  0
 14 39  1  0
 16 40  1  0
 17 41  1  0
 17 42  1  0
 19 43  1  0
 20 44  1  0
 22 45  1  0
 25 46  1  0
 26 47  1  0
M  END
>  <smiles>  (17) 
O=C(NCC(=O)N1CC[C@H](c2cccnc2)C1)c1ccc2cc(F)ccc2n1

>  <score_type>  (17) 
oracle

>  <origin>  (17) 
autodockgpu

>  <m_score__min__energy>  (17) 
-8.6600000000000001

>  <m_primary>  (17) 
energy

>  <rmsd>  (17) 
2.6709983835618103

>  <m_score__min__rmsd>  (17) 
2.6709983835618103

>  <meeko>  (17) 
{"free_energy": -8.54, "intermolecular_energy": -10.04, "internal_energy": -1.22, "cluster_size": 39, "cluster_id": 1, "rank_in_cluster": 9}

>  <energy>  (17) 
-8.35

>  <cluster_rmsd>  (17) 
1.49

>  <cluster>  (17) 
1

$$$$

     RDKit          3D

 47 50  0  0  0  0  0  0  0  0999 V2000
  138.9280   71.1880  221.4480 O   0  0  0  0  0  0  0  0  0  0  0  0
  139.3220   71.6480  222.5660 C   0  0  0  0  0  0  0  0  0  0  0  0
  139.6020   73.0280  222.7200 N   0  0  0  0  0  0  0  0  0  0  0  0
  139.4280   73.8920  221.5760 C   0  0  0  0  0  0  0  0  0  0  0  0
  140.6990   74.6350  221.3760 C   0  0  0  0  0  0  0  0  0  0  0  0
  141.8300   74.0810  221.4170 O   0  0  0  0  0  0  0  0  0  0  0  0
  140.6620   76.0330  221.1280 N   0  0  0  0  0  0  0  0  0  0  0  0
  140.9280   76.7110  219.8710 C   0  0  0  0  0  0  0  0  0  0  0  0
  141.6680   77.9360  220.3800 C   0  0  0  0  0  0  0  0  0  0  0  0
  140.6950   78.3770  221.4780 C   0  0  2  0  0  0  0  0  0  0  0  0
  141.2510   79.3890  222.3710 C   0  0  0  0  0  0  0  0  0  0  0  0
  142.6280   79.3950  222.5730 C   0  0  0  0  0  0  0  0  0  0  0  0
  143.2330   80.3140  223.4000 C   0  0  0  0  0  0  0  0  0  0  0  0
  142.4550   81.2460  224.0380 C   0  0  0  0  0  0  0  0  0  0  0  0
  141.1260   81.2400  223.8420 N   0  0  0  0  0  0  0  0  0  0  0  0
  140.5210   80.3310  223.0240 C   0  0  0  0  0  0  0  0  0  0  0  0
  140.3400   77.0770  222.1160 C   0  0  0  0  0  0  0  0  0  0  0  0
  139.4860   70.7360  223.7070 C   0  0  0  0  0  0  0  0  0  0  0  0
  139.0370   69.4340  223.6100 C   0  0  0  0  0  0  0  0  0  0  0  0
  139.2210   68.6250  224.7190 C   0  0  0  0  0  0  0  0  0  0  0  0
  139.8180   69.0710  225.8690 C   0  0  0  0  0  0  0  0  0  0  0  0
  140.0140   68.2840  226.9860 C   0  0  0  0  0  0  0  0  0  0  0  0
  140.6250   68.8300  228.0930 C   0  0  0  0  0  0  0  0  0  0  0  0
  140.8390   68.0840  229.2270 F   0  0  0  0  0  0  0  0  0  0  0  0
  141.0580   70.1370  228.1440 C   0  0  0  0  0  0  0  0  0  0  0  0
  140.8630   70.9300  227.0230 C   0  0  0  0  0  0  0  0  0  0  0  0
  140.2510   70.3770  225.9200 C   0  0  0  0  0  0  0  0  0  0  0  0
  140.0720   71.1620  224.8440 N   0  0  0  0  0  0  0  0  0  0  0  0
  139.9210   73.3530  223.6590 H   0  0  0  0  0  0  0  0  0  0  0  0
  139.2006   73.2909  220.6833 H   0  0  0  0  0  0  0  0  0  0  0  0
  138.5947   74.5904  221.7429 H   0  0  0  0  0  0  0  0  0  0  0  0
  141.5569   76.1024  219.2046 H   0  0  0  0  0  0  0  0  0  0  0  0
  140.0358   76.9285  219.2654 H   0  0  0  0  0  0  0  0  0  0  0  0
  142.6572   77.6789  220.7866 H   0  0  0  0  0  0  0  0  0  0  0  0
  141.8938   78.6977  219.6193 H   0  0  0  0  0  0  0  0  0  0  0  0
  139.8063   78.9099  221.1091 H   0  0  0  0  0  0  0  0  0  0  0  0
  143.2485   78.6464  222.0587 H   0  0  0  0  0  0  0  0  0  0  0  0
  144.3231   80.3011  223.5469 H   0  0  0  0  0  0  0  0  0  0  0  0
  142.9148   81.9912  224.7038 H   0  0  0  0  0  0  0  0  0  0  0  0
  139.4294   80.3610  222.8915 H   0  0  0  0  0  0  0  0  0  0  0  0
  140.9291   76.9288  223.0331 H   0  0  0  0  0  0  0  0  0  0  0  0
  139.2776   77.0465  222.3996 H   0  0  0  0  0  0  0  0  0  0  0  0
  138.5560   69.0571  222.6954 H   0  0  0  0  0  0  0  0  0  0  0  0
  138.8738   67.5822  224.6749 H   0  0  0  0  0  0  0  0  0  0  0  0
  139.6863   67.2340  226.9919 H   0  0  0  0  0  0  0  0  0  0  0  0
  141.5432   70.5390  229.0457 H   0  0  0  0  0  0  0  0  0  0  0  0
  141.1907   71.9800  227.0150 H   0  0  0  0  0  0  0  0  0  0  0  0
  1  2  2  0
  2  3  1  0
  3  4  1  0
  4  5  1  0
  5  6  2  0
  5  7  1  0
  7  8  1  0
  8  9  1  0
  9 10  1  0
 10 11  1  0
 11 12  2  0
 12 13  1  0
 13 14  2  0
 14 15  1  0
 15 16  2  0
 10 17  1  0
  2 18  1  0
 18 19  2  0
 19 20  1  0
 20 21  2  0
 21 22  1  0
 22 23  2  0
 23 24  1  0
 23 25  1  0
 25 26  2  0
 26 27  1  0
 27 28  2  0
 17  7  1  0
 28 18  1  0
 16 11  1  0
 27 21  1  0
  3 29  1  0
  4 30  1  0
  4 31  1  0
  8 32  1  0
  8 33  1  0
  9 34  1  0
  9 35  1  0
 10 36  1  6
 12 37  1  0
 13 38  1  0
 14 39  1  0
 16 40  1  0
 17 41  1  0
 17 42  1  0
 19 43  1  0
 20 44  1  0
 22 45  1  0
 25 46  1  0
 26 47  1  0
M  END
>  <smiles>  (18) 
O=C(NCC(=O)N1CC[C@H](c2cccnc2)C1)c1ccc2cc(F)ccc2n1

>  <score_type>  (18) 
oracle

>  <origin>  (18) 
autodockgpu

>  <m_score__min__energy>  (18) 
-8.6600000000000001

>  <m_primary>  (18) 
energy

>  <rmsd>  (18) 
2.3799299562884695

>  <m_score__min__rmsd>  (18) 
2.3799299562884695

>  <meeko>  (18) 
{"free_energy": -8.44, "intermolecular_energy": -9.93, "internal_energy": -1.26, "cluster_size": 39, "cluster_id": 1, "rank_in_cluster": 14}

>  <energy>  (18) 
-8.33

>  <cluster_rmsd>  (18) 
1.31

>  <cluster>  (18) 
1

$$$$

     RDKit          3D

 47 50  0  0  0  0  0  0  0  0999 V2000
  138.9720   70.6240  221.5210 O   0  0  0  0  0  0  0  0  0  0  0  0
  139.3370   71.1450  222.6220 C   0  0  0  0  0  0  0  0  0  0  0  0
  139.5790   72.5370  222.7170 N   0  0  0  0  0  0  0  0  0  0  0  0
  139.4010   73.3440  221.5320 C   0  0  0  0  0  0  0  0  0  0  0  0
  140.6960   74.0140  221.2450 C   0  0  0  0  0  0  0  0  0  0  0  0
  141.7960   73.4000  221.2280 O   0  0  0  0  0  0  0  0  0  0  0  0
  140.7180   75.4080  220.9770 N   0  0  0  0  0  0  0  0  0  0  0  0
  140.9960   76.0550  219.7060 C   0  0  0  0  0  0  0  0  0  0  0  0
  141.7990   77.2520  220.1860 C   0  0  0  0  0  0  0  0  0  0  0  0
  140.8640   77.7530  221.2910 C   0  0  2  0  0  0  0  0  0  0  0  0
  141.4790   78.7510  222.1610 C   0  0  0  0  0  0  0  0  0  0  0  0
  141.9760   79.9110  221.5730 C   0  0  0  0  0  0  0  0  0  0  0  0
  142.5710   80.9020  222.3190 C   0  0  0  0  0  0  0  0  0  0  0  0
  142.6750   80.7380  223.6770 C   0  0  0  0  0  0  0  0  0  0  0  0
  142.1940   79.6190  224.2440 N   0  0  0  0  0  0  0  0  0  0  0  0
  141.6040   78.6340  223.5080 C   0  0  0  0  0  0  0  0  0  0  0  0
  140.4600   76.4800  221.9540 C   0  0  0  0  0  0  0  0  0  0  0  0
  139.5070   70.2890  223.8060 C   0  0  0  0  0  0  0  0  0  0  0  0
  139.0660   68.9810  223.7710 C   0  0  0  0  0  0  0  0  0  0  0  0
  139.2560   68.2270  224.9180 C   0  0  0  0  0  0  0  0  0  0  0  0
  139.8500   68.7320  226.0440 C   0  0  0  0  0  0  0  0  0  0  0  0
  140.0510   68.0010  227.1980 C   0  0  0  0  0  0  0  0  0  0  0  0
  140.6580   68.6030  228.2770 C   0  0  0  0  0  0  0  0  0  0  0  0
  140.8780   67.9140  229.4460 F   0  0  0  0  0  0  0  0  0  0  0  0
  141.0830   69.9140  228.2650 C   0  0  0  0  0  0  0  0  0  0  0  0
  140.8830   70.6510  227.1080 C   0  0  0  0  0  0  0  0  0  0  0  0
  140.2750   70.0420  226.0320 C   0  0  0  0  0  0  0  0  0  0  0  0
  140.0910   70.7730  224.9200 N   0  0  0  0  0  0  0  0  0  0  0  0
  139.8760   72.9120  223.6440 H   0  0  0  0  0  0  0  0  0  0  0  0
  139.1129   72.7059  220.6836 H   0  0  0  0  0  0  0  0  0  0  0  0
  138.6071   74.0892  221.6882 H   0  0  0  0  0  0  0  0  0  0  0  0
  141.5863   75.4086  219.0399 H   0  0  0  0  0  0  0  0  0  0  0  0
  140.1058   76.3046  219.1099 H   0  0  0  0  0  0  0  0  0  0  0  0
  142.7814   76.9555  220.5822 H   0  0  0  0  0  0  0  0  0  0  0  0
  142.0480   77.9916  219.4107 H   0  0  0  0  0  0  0  0  0  0  0  0
  139.9952   78.3208  220.9265 H   0  0  0  0  0  0  0  0  0  0  0  0
  141.8907   80.0384  220.4837 H   0  0  0  0  0  0  0  0  0  0  0  0
  142.9570   81.8110  221.8345 H   0  0  0  0  0  0  0  0  0  0  0  0
  143.1476   81.5151  224.2957 H   0  0  0  0  0  0  0  0  0  0  0  0
  141.2245   77.7330  224.0122 H   0  0  0  0  0  0  0  0  0  0  0  0
  141.0563   76.3181  222.8641 H   0  0  0  0  0  0  0  0  0  0  0  0
  139.4020   76.5026  222.2543 H   0  0  0  0  0  0  0  0  0  0  0  0
  138.5869   68.5579  222.8757 H   0  0  0  0  0  0  0  0  0  0  0  0
  138.9161   67.1809  224.9244 H   0  0  0  0  0  0  0  0  0  0  0  0
  139.7300   66.9504  227.2545 H   0  0  0  0  0  0  0  0  0  0  0  0
  141.5659   70.3617  229.1461 H   0  0  0  0  0  0  0  0  0  0  0  0
  141.2035   71.7017  227.0501 H   0  0  0  0  0  0  0  0  0  0  0  0
  1  2  2  0
  2  3  1  0
  3  4  1  0
  4  5  1  0
  5  6  2  0
  5  7  1  0
  7  8  1  0
  8  9  1  0
  9 10  1  0
 10 11  1  0
 11 12  2  0
 12 13  1  0
 13 14  2  0
 14 15  1  0
 15 16  2  0
 10 17  1  0
  2 18  1  0
 18 19  2  0
 19 20  1  0
 20 21  2  0
 21 22  1  0
 22 23  2  0
 23 24  1  0
 23 25  1  0
 25 26  2  0
 26 27  1  0
 27 28  2  0
 17  7  1  0
 28 18  1  0
 16 11  1  0
 27 21  1  0
  3 29  1  0
  4 30  1  0
  4 31  1  0
  8 32  1  0
  8 33  1  0
  9 34  1  0
  9 35  1  0
 10 36  1  6
 12 37  1  0
 13 38  1  0
 14 39  1  0
 16 40  1  0
 17 41  1  0
 17 42  1  0
 19 43  1  0
 20 44  1  0
 22 45  1  0
 25 46  1  0
 26 47  1  0
M  END
>  <smiles>  (19) 
O=C(NCC(=O)N1CC[C@H](c2cccnc2)C1)c1ccc2cc(F)ccc2n1

>  <score_type>  (19) 
oracle

>  <origin>  (19) 
autodockgpu

>  <m_score__min__energy>  (19) 
-8.6600000000000001

>  <m_primary>  (19) 
energy

>  <rmsd>  (19) 
2.2529589820124123

>  <m_score__min__rmsd>  (19) 
2.2529589820124123

>  <meeko>  (19) 
{"free_energy": -8.33, "intermolecular_energy": -9.82, "internal_energy": -1.25, "cluster_size": 39, "cluster_id": 1, "rank_in_cluster": 18}

>  <energy>  (19) 
-8.31

>  <cluster_rmsd>  (19) 
1.92

>  <cluster>  (19) 
1

$$$$

     RDKit          3D

 47 50  0  0  0  0  0  0  0  0999 V2000
  139.9330   73.7130  222.5880 O   0  0  0  0  0  0  0  0  0  0  0  0
  140.2710   72.4990  222.4180 C   0  0  0  0  0  0  0  0  0  0  0  0
  140.7430   72.0510  221.1600 N   0  0  0  0  0  0  0  0  0  0  0  0
  140.8280   73.0090  220.0820 C   0  0  0  0  0  0  0  0  0  0  0  0
  141.8690   74.0050  220.4460 C   0  0  0  0  0  0  0  0  0  0  0  0
  143.0230   73.6780  220.8340 O   0  0  0  0  0  0  0  0  0  0  0  0
  141.5730   75.3910  220.3620 N   0  0  0  0  0  0  0  0  0  0  0  0
  141.7210   76.2530  219.2030 C   0  0  0  0  0  0  0  0  0  0  0  0
  142.2120   77.5230  219.8760 C   0  0  0  0  0  0  0  0  0  0  0  0
  141.1610   77.6400  220.9840 C   0  0  2  0  0  0  0  0  0  0  0  0
  141.5070   78.6220  222.0080 C   0  0  0  0  0  0  0  0  0  0  0  0
  141.9010   79.8900  221.5890 C   0  0  0  0  0  0  0  0  0  0  0  0
  142.2440   80.8740  222.4880 C   0  0  0  0  0  0  0  0  0  0  0  0
  142.1950   80.5940  223.8290 C   0  0  0  0  0  0  0  0  0  0  0  0
  141.8140   79.3700  224.2330 N   0  0  0  0  0  0  0  0  0  0  0  0
  141.4720   78.3910  223.3460 C   0  0  0  0  0  0  0  0  0  0  0  0
  141.0500   76.2290  221.4540 C   0  0  0  0  0  0  0  0  0  0  0  0
  140.1700   71.5550  223.5400 C   0  0  0  0  0  0  0  0  0  0  0  0
  139.5890   70.3180  223.3410 C   0  0  0  0  0  0  0  0  0  0  0  0
  139.5250   69.4740  224.4380 C   0  0  0  0  0  0  0  0  0  0  0  0
  140.0060   69.8270  225.6720 C   0  0  0  0  0  0  0  0  0  0  0  0
  139.9540   69.0040  226.7790 C   0  0  0  0  0  0  0  0  0  0  0  0
  140.4670   69.4550  227.9750 C   0  0  0  0  0  0  0  0  0  0  0  0
  140.4360   68.6700  229.1030 F   0  0  0  0  0  0  0  0  0  0  0  0
  141.0380   70.7000  228.1250 C   0  0  0  0  0  0  0  0  0  0  0  0
  141.0920   71.5280  227.0150 C   0  0  0  0  0  0  0  0  0  0  0  0
  140.5770   71.0710  225.8230 C   0  0  0  0  0  0  0  0  0  0  0  0
  140.6400   71.8890  224.7590 N   0  0  0  0  0  0  0  0  0  0  0  0
  141.0080   71.0450  221.0740 H   0  0  0  0  0  0  0  0  0  0  0  0
  141.1073   72.4989  219.1483 H   0  0  0  0  0  0  0  0  0  0  0  0
  139.8577   73.5037  219.9278 H   0  0  0  0  0  0  0  0  0  0  0  0
  142.4604   75.8564  218.4917 H   0  0  0  0  0  0  0  0  0  0  0  0
  140.8107   76.3732  218.5972 H   0  0  0  0  0  0  0  0  0  0  0  0
  143.2272   77.4062  220.2832 H   0  0  0  0  0  0  0  0  0  0  0  0
  142.2997   78.3997  219.2174 H   0  0  0  0  0  0  0  0  0  0  0  0
  140.1922   78.0396  220.6496 H   0  0  0  0  0  0  0  0  0  0  0  0
  141.9391   80.1109  220.5121 H   0  0  0  0  0  0  0  0  0  0  0  0
  142.5526   81.8694  222.1360 H   0  0  0  0  0  0  0  0  0  0  0  0
  142.4649   81.3635  224.5672 H   0  0  0  0  0  0  0  0  0  0  0  0
  141.1643   77.4030  223.7190 H   0  0  0  0  0  0  0  0  0  0  0  0
  141.6467   76.0828  222.3664 H   0  0  0  0  0  0  0  0  0  0  0  0
  140.0095   75.9677  221.6972 H   0  0  0  0  0  0  0  0  0  0  0  0
  139.1959   70.0172  222.3587 H   0  0  0  0  0  0  0  0  0  0  0  0
  139.0697   68.4804  224.3135 H   0  0  0  0  0  0  0  0  0  0  0  0
  139.5085   68.0008  226.7069 H   0  0  0  0  0  0  0  0  0  0  0  0
  141.4387   71.0267  229.0960 H   0  0  0  0  0  0  0  0  0  0  0  0
  141.5378   72.5311  227.0851 H   0  0  0  0  0  0  0  0  0  0  0  0
  1  2  2  0
  2  3  1  0
  3  4  1  0
  4  5  1  0
  5  6  2  0
  5  7  1  0
  7  8  1  0
  8  9  1  0
  9 10  1  0
 10 11  1  0
 11 12  2  0
 12 13  1  0
 13 14  2  0
 14 15  1  0
 15 16  2  0
 10 17  1  0
  2 18  1  0
 18 19  2  0
 19 20  1  0
 20 21  2  0
 21 22  1  0
 22 23  2  0
 23 24  1  0
 23 25  1  0
 25 26  2  0
 26 27  1  0
 27 28  2  0
 17  7  1  0
 28 18  1  0
 16 11  1  0
 27 21  1  0
  3 29  1  0
  4 30  1  0
  4 31  1  0
  8 32  1  0
  8 33  1  0
  9 34  1  0
  9 35  1  0
 10 36  1  6
 12 37  1  0
 13 38  1  0
 14 39  1  0
 16 40  1  0
 17 41  1  0
 17 42  1  0
 19 43  1  0
 20 44  1  0
 22 45  1  0
 25 46  1  0
 26 47  1  0
M  END
>  <smiles>  (20) 
O=C(NCC(=O)N1CC[C@H](c2cccnc2)C1)c1ccc2cc(F)ccc2n1

>  <score_type>  (20) 
oracle

>  <origin>  (20) 
autodockgpu

>  <m_score__min__energy>  (20) 
-8.6600000000000001

>  <m_primary>  (20) 
energy

>  <rmsd>  (20) 
2.5463756971401708

>  <m_score__min__rmsd>  (20) 
2.5463756971401708

>  <meeko>  (20) 
{"free_energy": -8.66, "intermolecular_energy": -10.15, "internal_energy": -1.09, "cluster_size": 39, "cluster_id": 1, "rank_in_cluster": 1}

>  <energy>  (20) 
-8.3

>  <cluster_rmsd>  (20) 
1.34

>  <cluster>  (20) 
1

$$$$

     RDKit          3D

 47 50  0  0  0  0  0  0  0  0999 V2000
  140.2670   71.7020  221.7810 O   0  0  0  0  0  0  0  0  0  0  0  0
  139.4120   71.7240  222.7210 C   0  0  0  0  0  0  0  0  0  0  0  0
  138.3270   72.6350  222.6880 N   0  0  0  0  0  0  0  0  0  0  0  0
  138.2230   73.5320  221.5620 C   0  0  0  0  0  0  0  0  0  0  0  0
  139.3800   74.4630  221.6200 C   0  0  0  0  0  0  0  0  0  0  0  0
  139.5530   75.2820  222.5610 O   0  0  0  0  0  0  0  0  0  0  0  0
  140.3450   74.4470  220.5780 N   0  0  0  0  0  0  0  0  0  0  0  0
  140.1340   74.0780  219.1890 C   0  0  0  0  0  0  0  0  0  0  0  0
  141.4330   73.3420  218.9080 C   0  0  0  0  0  0  0  0  0  0  0  0
  142.4260   74.3770  219.4460 C   0  0  2  0  0  0  0  0  0  0  0  0
  143.7830   73.8570  219.5860 C   0  0  0  0  0  0  0  0  0  0  0  0
  144.3430   73.8290  220.8610 C   0  0  0  0  0  0  0  0  0  0  0  0
  145.6170   73.3560  221.0800 C   0  0  0  0  0  0  0  0  0  0  0  0
  146.3490   72.9020  220.0130 C   0  0  0  0  0  0  0  0  0  0  0  0
  145.8080   72.9290  218.7840 N   0  0  0  0  0  0  0  0  0  0  0  0
  144.5460   73.3960  218.5610 C   0  0  0  0  0  0  0  0  0  0  0  0
  141.7660   74.8080  220.7120 C   0  0  0  0  0  0  0  0  0  0  0  0
  139.5530   70.7940  223.8510 C   0  0  0  0  0  0  0  0  0  0  0  0
  139.0820   69.5010  223.7320 C   0  0  0  0  0  0  0  0  0  0  0  0
  139.2460   68.6740  224.8310 C   0  0  0  0  0  0  0  0  0  0  0  0
  139.8420   69.0940  225.9910 C   0  0  0  0  0  0  0  0  0  0  0  0
  140.0170   68.2890  227.0990 C   0  0  0  0  0  0  0  0  0  0  0  0
  140.6290   68.8100  228.2180 C   0  0  0  0  0  0  0  0  0  0  0  0
  140.8230   68.0450  229.3430 F   0  0  0  0  0  0  0  0  0  0  0  0
  141.0830   70.1090  228.2890 C   0  0  0  0  0  0  0  0  0  0  0  0
  140.9090   70.9200  227.1780 C   0  0  0  0  0  0  0  0  0  0  0  0
  140.2960   70.3920  226.0630 C   0  0  0  0  0  0  0  0  0  0  0  0
  140.1380   71.1950  224.9970 N   0  0  0  0  0  0  0  0  0  0  0  0
  137.6530   72.6110  223.4850 H   0  0  0  0  0  0  0  0  0  0  0  0
  138.2490   72.9596  220.6230 H   0  0  0  0  0  0  0  0  0  0  0  0
  137.2760   74.0903  221.5994 H   0  0  0  0  0  0  0  0  0  0  0  0
  139.2594   73.4215  219.0699 H   0  0  0  0  0  0  0  0  0  0  0  0
  139.9249   74.9207  218.5136 H   0  0  0  0  0  0  0  0  0  0  0  0
  141.4933   72.3905  219.4566 H   0  0  0  0  0  0  0  0  0  0  0  0
  141.5868   73.0434  217.8606 H   0  0  0  0  0  0  0  0  0  0  0  0
  142.6099   75.2242  218.7690 H   0  0  0  0  0  0  0  0  0  0  0  0
  143.7524   74.1940  221.7142 H   0  0  0  0  0  0  0  0  0  0  0  0
  146.0412   73.3424  222.0948 H   0  0  0  0  0  0  0  0  0  0  0  0
  147.3695   72.5194  220.1622 H   0  0  0  0  0  0  0  0  0  0  0  0
  144.1410   73.3994  217.5383 H   0  0  0  0  0  0  0  0  0  0  0  0
  142.2125   74.2865  221.5715 H   0  0  0  0  0  0  0  0  0  0  0  0
  141.8910   75.8876  220.8818 H   0  0  0  0  0  0  0  0  0  0  0  0
  138.6001   69.1453  222.8093 H   0  0  0  0  0  0  0  0  0  0  0  0
  138.8828   67.6375  224.7699 H   0  0  0  0  0  0  0  0  0  0  0  0
  139.6720   67.2445  227.0884 H   0  0  0  0  0  0  0  0  0  0  0  0
  141.5686   70.4909  229.1992 H   0  0  0  0  0  0  0  0  0  0  0  0
  141.2537   71.9646  227.1867 H   0  0  0  0  0  0  0  0  0  0  0  0
  1  2  2  0
  2  3  1  0
  3  4  1  0
  4  5  1  0
  5  6  2  0
  5  7  1  0
  7  8  1  0
  8  9  1  0
  9 10  1  0
 10 11  1  0
 11 12  2  0
 12 13  1  0
 13 14  2  0
 14 15  1  0
 15 16  2  0
 10 17  1  0
  2 18  1  0
 18 19  2  0
 19 20  1  0
 20 21  2  0
 21 22  1  0
 22 23  2  0
 23 24  1  0
 23 25  1  0
 25 26  2  0
 26 27  1  0
 27 28  2  0
 17  7  1  0
 28 18  1  0
 16 11  1  0
 27 21  1  0
  3 29  1  0
  4 30  1  0
  4 31  1  0
  8 32  1  0
  8 33  1  0
  9 34  1  0
  9 35  1  0
 10 36  1  6
 12 37  1  0
 13 38  1  0
 14 39  1  0
 16 40  1  0
 17 41  1  0
 17 42  1  0
 19 43  1  0
 20 44  1  0
 22 45  1  0
 25 46  1  0
 26 47  1  0
M  END
>  <smiles>  (21) 
O=C(NCC(=O)N1CC[C@H](c2cccnc2)C1)c1ccc2cc(F)ccc2n1

>  <score_type>  (21) 
oracle

>  <origin>  (21) 
autodockgpu

>  <m_score__min__energy>  (21) 
-8.6600000000000001

>  <m_primary>  (21) 
energy

>  <rmsd>  (21) 
2.245319680543155

>  <m_score__min__rmsd>  (21) 
2.245319680543155

>  <meeko>  (21) 
{"free_energy": -8.28, "intermolecular_energy": -9.77, "internal_energy": -1.25, "cluster_size": 9, "cluster_id": 2, "rank_in_cluster": 2}

>  <energy>  (21) 
-8.28

>  <cluster_rmsd>  (21) 
1.26

>  <cluster>  (21) 
1

$$$$

     RDKit          3D

 47 50  0  0  0  0  0  0  0  0999 V2000
  141.0240   73.0520  222.3210 O   0  0  0  0  0  0  0  0  0  0  0  0
  139.9270   72.5640  222.7400 C   0  0  0  0  0  0  0  0  0  0  0  0
  138.6910   73.0000  222.2030 N   0  0  0  0  0  0  0  0  0  0  0  0
  138.7130   74.0110  221.1710 C   0  0  0  0  0  0  0  0  0  0  0  0
  138.5690   75.3330  221.8340 C   0  0  0  0  0  0  0  0  0  0  0  0
  137.7440   75.5480  222.7620 O   0  0  0  0  0  0  0  0  0  0  0  0
  139.3870   76.4170  221.4190 N   0  0  0  0  0  0  0  0  0  0  0  0
  140.3800   76.4150  220.3590 C   0  0  0  0  0  0  0  0  0  0  0  0
  141.4490   77.2880  220.9930 C   0  0  0  0  0  0  0  0  0  0  0  0
  140.5770   78.4670  221.4360 C   0  0  2  0  0  0  0  0  0  0  0  0
  141.2590   79.3820  222.3460 C   0  0  0  0  0  0  0  0  0  0  0  0
  141.1820   80.7460  222.0790 C   0  0  0  0  0  0  0  0  0  0  0  0
  141.7970   81.6770  222.8850 C   0  0  0  0  0  0  0  0  0  0  0  0
  142.5020   81.2440  223.9790 C   0  0  0  0  0  0  0  0  0  0  0  0
  142.5760   79.9280  224.2360 N   0  0  0  0  0  0  0  0  0  0  0  0
  141.9680   79.0010  223.4400 C   0  0  0  0  0  0  0  0  0  0  0  0
  139.3810   77.7730  221.9950 C   0  0  0  0  0  0  0  0  0  0  0  0
  139.9460   71.5360  223.7910 C   0  0  0  0  0  0  0  0  0  0  0  0
  139.4630   70.2720  223.5180 C   0  0  0  0  0  0  0  0  0  0  0  0
  139.5100   69.3490  224.5500 C   0  0  0  0  0  0  0  0  0  0  0  0
  140.0070   69.6520  225.7910 C   0  0  0  0  0  0  0  0  0  0  0  0
  140.0650   68.7500  226.8340 C   0  0  0  0  0  0  0  0  0  0  0  0
  140.5830   69.1550  228.0440 C   0  0  0  0  0  0  0  0  0  0  0  0
  140.6590   68.2910  229.1100 F   0  0  0  0  0  0  0  0  0  0  0  0
  141.0550   70.4300  228.2700 C   0  0  0  0  0  0  0  0  0  0  0  0
  140.9980   71.3380  227.2230 C   0  0  0  0  0  0  0  0  0  0  0  0
  140.4780   70.9250  226.0170 C   0  0  0  0  0  0  0  0  0  0  0  0
  140.4330   71.8210  225.0160 N   0  0  0  0  0  0  0  0  0  0  0  0
  137.8200   72.5660  222.5810 H   0  0  0  0  0  0  0  0  0  0  0  0
  139.6662   73.9677  220.6237 H   0  0  0  0  0  0  0  0  0  0  0  0
  137.8958   73.8479  220.4529 H   0  0  0  0  0  0  0  0  0  0  0  0
  140.7522   75.4010  220.1509 H   0  0  0  0  0  0  0  0  0  0  0  0
  140.0148   76.7671  219.3830 H   0  0  0  0  0  0  0  0  0  0  0  0
  141.9326   76.7908  221.8468 H   0  0  0  0  0  0  0  0  0  0  0  0
  142.2928   77.5483  220.3370 H   0  0  0  0  0  0  0  0  0  0  0  0
  140.3090   79.1615  220.6262 H   0  0  0  0  0  0  0  0  0  0  0  0
  140.6149   81.0888  221.2010 H   0  0  0  0  0  0  0  0  0  0  0  0
  141.7243   82.7504  222.6556 H   0  0  0  0  0  0  0  0  0  0  0  0
  143.0019   81.9677  224.6395 H   0  0  0  0  0  0  0  0  0  0  0  0
  142.0532   77.9326  223.6874 H   0  0  0  0  0  0  0  0  0  0  0  0
  139.4476   77.7219  223.0918 H   0  0  0  0  0  0  0  0  0  0  0  0
  138.4534   78.3099  221.7474 H   0  0  0  0  0  0  0  0  0  0  0  0
  139.0601   70.0102  222.5285 H   0  0  0  0  0  0  0  0  0  0  0  0
  139.1333   68.3320  224.3661 H   0  0  0  0  0  0  0  0  0  0  0  0
  139.7019   67.7203  226.7004 H   0  0  0  0  0  0  0  0  0  0  0  0
  141.4639   70.7184  229.2496 H   0  0  0  0  0  0  0  0  0  0  0  0
  141.3612   72.3680  227.3537 H   0  0  0  0  0  0  0  0  0  0  0  0
  1  2  2  0
  2  3  1  0
  3  4  1  0
  4  5  1  0
  5  6  2  0
  5  7  1  0
  7  8  1  0
  8  9  1  0
  9 10  1  0
 10 11  1  0
 11 12  2  0
 12 13  1  0
 13 14  2  0
 14 15  1  0
 15 16  2  0
 10 17  1  0
  2 18  1  0
 18 19  2  0
 19 20  1  0
 20 21  2  0
 21 22  1  0
 22 23  2  0
 23 24  1  0
 23 25  1  0
 25 26  2  0
 26 27  1  0
 27 28  2  0
 17  7  1  0
 28 18  1  0
 16 11  1  0
 27 21  1  0
  3 29  1  0
  4 30  1  0
  4 31  1  0
  8 32  1  0
  8 33  1  0
  9 34  1  0
  9 35  1  0
 10 36  1  6
 12 37  1  0
 13 38  1  0
 14 39  1  0
 16 40  1  0
 17 41  1  0
 17 42  1  0
 19 43  1  0
 20 44  1  0
 22 45  1  0
 25 46  1  0
 26 47  1  0
M  END
>  <smiles>  (22) 
O=C(NCC(=O)N1CC[C@H](c2cccnc2)C1)c1ccc2cc(F)ccc2n1

>  <score_type>  (22) 
oracle

>  <origin>  (22) 
autodockgpu

>  <m_score__min__energy>  (22) 
-8.6600000000000001

>  <m_primary>  (22) 
energy

>  <rmsd>  (22) 
2.573514916150894

>  <m_score__min__rmsd>  (22) 
2.573514916150894

>  <meeko>  (22) 
{"free_energy": -8.35, "intermolecular_energy": -9.84, "internal_energy": -1.1, "cluster_size": 39, "cluster_id": 1, "rank_in_cluster": 17}

>  <energy>  (22) 
-8.27

>  <cluster_rmsd>  (22) 
1.42

>  <cluster>  (22) 
1

$$$$

     RDKit          3D

 47 50  0  0  0  0  0  0  0  0999 V2000
  139.8060   73.6800  222.4800 O   0  0  0  0  0  0  0  0  0  0  0  0
  140.2400   72.4900  222.3630 C   0  0  0  0  0  0  0  0  0  0  0  0
  140.8380   72.0550  221.1550 N   0  0  0  0  0  0  0  0  0  0  0  0
  140.9380   72.9980  220.0650 C   0  0  0  0  0  0  0  0  0  0  0  0
  141.9510   74.0170  220.4430 C   0  0  0  0  0  0  0  0  0  0  0  0
  143.1070   73.7170  220.8430 O   0  0  0  0  0  0  0  0  0  0  0  0
  141.6240   75.3960  220.3560 N   0  0  0  0  0  0  0  0  0  0  0  0
  141.7420   76.2580  219.1930 C   0  0  0  0  0  0  0  0  0  0  0  0
  142.2120   77.5400  219.8570 C   0  0  0  0  0  0  0  0  0  0  0  0
  141.1690   77.6380  220.9750 C   0  0  2  0  0  0  0  0  0  0  0  0
  141.5020   78.6310  221.9920 C   0  0  0  0  0  0  0  0  0  0  0  0
  141.8800   79.9010  221.5640 C   0  0  0  0  0  0  0  0  0  0  0  0
  142.2110   80.8950  222.4570 C   0  0  0  0  0  0  0  0  0  0  0  0
  142.1660   80.6230  223.8000 C   0  0  0  0  0  0  0  0  0  0  0  0
  141.8000   79.3980  224.2110 N   0  0  0  0  0  0  0  0  0  0  0  0
  141.4710   78.4080  223.3310 C   0  0  0  0  0  0  0  0  0  0  0  0
  141.0930   76.2270  221.4510 C   0  0  0  0  0  0  0  0  0  0  0  0
  140.1200   71.5610  223.4970 C   0  0  0  0  0  0  0  0  0  0  0  0
  139.5080   70.3370  223.3140 C   0  0  0  0  0  0  0  0  0  0  0  0
  139.4270   69.5080  224.4200 C   0  0  0  0  0  0  0  0  0  0  0  0
  139.9220   69.8620  225.6480 C   0  0  0  0  0  0  0  0  0  0  0  0
  139.8540   69.0530  226.7640 C   0  0  0  0  0  0  0  0  0  0  0  0
  140.3830   69.5030  227.9530 C   0  0  0  0  0  0  0  0  0  0  0  0
  140.3370   68.7320  229.0890 F   0  0  0  0  0  0  0  0  0  0  0  0
  140.9860   70.7350  228.0880 C   0  0  0  0  0  0  0  0  0  0  0  0
  141.0560   71.5490  226.9680 C   0  0  0  0  0  0  0  0  0  0  0  0
  140.5250   71.0920  225.7830 C   0  0  0  0  0  0  0  0  0  0  0  0
  140.6040   71.8970  224.7090 N   0  0  0  0  0  0  0  0  0  0  0  0
  141.1780   71.0700  221.1130 H   0  0  0  0  0  0  0  0  0  0  0  0
  141.2526   72.4788  219.1477 H   0  0  0  0  0  0  0  0  0  0  0  0
  139.9644   73.4735  219.8754 H   0  0  0  0  0  0  0  0  0  0  0  0
  142.4827   75.8753  218.4755 H   0  0  0  0  0  0  0  0  0  0  0  0
  140.8233   76.3569  218.5962 H   0  0  0  0  0  0  0  0  0  0  0  0
  143.2333   77.4463  220.2547 H   0  0  0  0  0  0  0  0  0  0  0  0
  142.2746   78.4162  219.1949 H   0  0  0  0  0  0  0  0  0  0  0  0
  140.1888   78.0151  220.6480 H   0  0  0  0  0  0  0  0  0  0  0  0
  141.9150   80.1153  220.4856 H   0  0  0  0  0  0  0  0  0  0  0  0
  142.5070   81.8920  222.0986 H   0  0  0  0  0  0  0  0  0  0  0  0
  142.4270   81.4002  224.5334 H   0  0  0  0  0  0  0  0  0  0  0  0
  141.1774   77.4183  223.7108 H   0  0  0  0  0  0  0  0  0  0  0  0
  141.7014   76.0970  222.3582 H   0  0  0  0  0  0  0  0  0  0  0  0
  140.0608   75.9442  221.7053 H   0  0  0  0  0  0  0  0  0  0  0  0
  139.1041   70.0349  222.3364 H   0  0  0  0  0  0  0  0  0  0  0  0
  138.9457   68.5252  224.3085 H   0  0  0  0  0  0  0  0  0  0  0  0
  139.3829   68.0608  226.7044 H   0  0  0  0  0  0  0  0  0  0  0  0
  141.3986   71.0620  229.0538 H   0  0  0  0  0  0  0  0  0  0  0  0
  141.5270   72.5414  227.0251 H   0  0  0  0  0  0  0  0  0  0  0  0
  1  2  2  0
  2  3  1  0
  3  4  1  0
  4  5  1  0
  5  6  2  0
  5  7  1  0
  7  8  1  0
  8  9  1  0
  9 10  1  0
 10 11  1  0
 11 12  2  0
 12 13  1  0
 13 14  2  0
 14 15  1  0
 15 16  2  0
 10 17  1  0
  2 18  1  0
 18 19  2  0
 19 20  1  0
 20 21  2  0
 21 22  1  0
 22 23  2  0
 23 24  1  0
 23 25  1  0
 25 26  2  0
 26 27  1  0
 27 28  2  0
 17  7  1  0
 28 18  1  0
 16 11  1  0
 27 21  1  0
  3 29  1  0
  4 30  1  0
  4 31  1  0
  8 32  1  0
  8 33  1  0
  9 34  1  0
  9 35  1  0
 10 36  1  6
 12 37  1  0
 13 38  1  0
 14 39  1  0
 16 40  1  0
 17 41  1  0
 17 42  1  0
 19 43  1  0
 20 44  1  0
 22 45  1  0
 25 46  1  0
 26 47  1  0
M  END
>  <smiles>  (23) 
O=C(NCC(=O)N1CC[C@H](c2cccnc2)C1)c1ccc2cc(F)ccc2n1

>  <score_type>  (23) 
oracle

>  <origin>  (23) 
autodockgpu

>  <m_score__min__energy>  (23) 
-8.6600000000000001

>  <m_primary>  (23) 
energy

>  <rmsd>  (23) 
2.5631040125924915

>  <m_score__min__rmsd>  (23) 
2.5631040125924915

>  <meeko>  (23) 
{"free_energy": -8.64, "intermolecular_energy": -10.13, "internal_energy": -1.11, "cluster_size": 39, "cluster_id": 1, "rank_in_cluster": 3}

>  <energy>  (23) 
-8.24

>  <cluster_rmsd>  (23) 
1.55

>  <cluster>  (23) 
1

$$$$

     RDKit          3D

 47 50  0  0  0  0  0  0  0  0999 V2000
  141.3880   72.1160  221.8520 O   0  0  0  0  0  0  0  0  0  0  0  0
  140.3760   72.2060  222.6180 C   0  0  0  0  0  0  0  0  0  0  0  0
  139.4080   73.2200  222.4180 N   0  0  0  0  0  0  0  0  0  0  0  0
  139.6030   74.1450  221.3260 C   0  0  0  0  0  0  0  0  0  0  0  0
  139.1200   75.4780  221.7730 C   0  0  0  0  0  0  0  0  0  0  0  0
  138.1230   75.6260  222.5290 O   0  0  0  0  0  0  0  0  0  0  0  0
  139.7970   76.6490  221.3410 N   0  0  0  0  0  0  0  0  0  0  0  0
  140.7550   76.7620  220.2550 C   0  0  0  0  0  0  0  0  0  0  0  0
  141.7330   77.7510  220.8640 C   0  0  0  0  0  0  0  0  0  0  0  0
  140.7440   78.8210  221.3360 C   0  0  2  0  0  0  0  0  0  0  0  0
  141.3420   79.8070  222.2320 C   0  0  0  0  0  0  0  0  0  0  0  0
  142.1020   79.3410  223.3010 C   0  0  0  0  0  0  0  0  0  0  0  0
  142.6990   80.2020  224.1930 C   0  0  0  0  0  0  0  0  0  0  0  0
  142.5400   81.5530  224.0190 C   0  0  0  0  0  0  0  0  0  0  0  0
  141.8070   82.0020  222.9870 N   0  0  0  0  0  0  0  0  0  0  0  0
  141.2120   81.1530  222.1000 C   0  0  0  0  0  0  0  0  0  0  0  0
  139.6510   77.9940  221.9240 C   0  0  0  0  0  0  0  0  0  0  0  0
  140.2140   71.2450  223.7180 C   0  0  0  0  0  0  0  0  0  0  0  0
  139.5860   70.0370  223.4820 C   0  0  0  0  0  0  0  0  0  0  0  0
  139.4640   69.1760  224.5590 C   0  0  0  0  0  0  0  0  0  0  0  0
  139.9350   69.4830  225.8090 C   0  0  0  0  0  0  0  0  0  0  0  0
  139.8270   68.6410  226.8970 C   0  0  0  0  0  0  0  0  0  0  0  0
  140.3340   69.0450  228.1120 C   0  0  0  0  0  0  0  0  0  0  0  0
  140.2480   68.2400  229.2220 F   0  0  0  0  0  0  0  0  0  0  0  0
  140.9540   70.2610  228.3000 C   0  0  0  0  0  0  0  0  0  0  0  0
  141.0650   71.1090  227.2080 C   0  0  0  0  0  0  0  0  0  0  0  0
  140.5550   70.6980  225.9970 C   0  0  0  0  0  0  0  0  0  0  0  0
  140.6730   71.5340  224.9520 N   0  0  0  0  0  0  0  0  0  0  0  0
  138.5970   73.2480  223.0740 H   0  0  0  0  0  0  0  0  0  0  0  0
  140.6708   74.2004  221.0678 H   0  0  0  0  0  0  0  0  0  0  0  0
  139.0495   73.8128  220.4354 H   0  0  0  0  0  0  0  0  0  0  0  0
  141.2354   75.7976  220.0331 H   0  0  0  0  0  0  0  0  0  0  0  0
  140.3259   77.0708  219.2904 H   0  0  0  0  0  0  0  0  0  0  0  0
  142.2937   77.3114  221.7021 H   0  0  0  0  0  0  0  0  0  0  0  0
  142.5229   78.1078  220.1867 H   0  0  0  0  0  0  0  0  0  0  0  0
  140.3758   79.4811  220.5368 H   0  0  0  0  0  0  0  0  0  0  0  0
  142.2286   78.2567  223.4362 H   0  0  0  0  0  0  0  0  0  0  0  0
  143.2943   79.8129  225.0322 H   0  0  0  0  0  0  0  0  0  0  0  0
  143.0082   82.2619  224.7178 H   0  0  0  0  0  0  0  0  0  0  0  0
  140.6202   81.5630  221.2684 H   0  0  0  0  0  0  0  0  0  0  0  0
  139.7531   77.9488  223.0183 H   0  0  0  0  0  0  0  0  0  0  0  0
  138.6615   78.4216  221.7048 H   0  0  0  0  0  0  0  0  0  0  0  0
  139.2014   69.7722  222.4860 H   0  0  0  0  0  0  0  0  0  0  0  0
  138.9689   68.2058  224.4054 H   0  0  0  0  0  0  0  0  0  0  0  0
  139.3418   67.6591  226.7950 H   0  0  0  0  0  0  0  0  0  0  0  0
  141.3486   70.5502  229.2852 H   0  0  0  0  0  0  0  0  0  0  0  0
  141.5510   72.0908  227.3076 H   0  0  0  0  0  0  0  0  0  0  0  0
  1  2  2  0
  2  3  1  0
  3  4  1  0
  4  5  1  0
  5  6  2  0
  5  7  1  0
  7  8  1  0
  8  9  1  0
  9 10  1  0
 10 11  1  0
 11 12  2  0
 12 13  1  0
 13 14  2  0
 14 15  1  0
 15 16  2  0
 10 17  1  0
  2 18  1  0
 18 19  2  0
 19 20  1  0
 20 21  2  0
 21 22  1  0
 22 23  2  0
 23 24  1  0
 23 25  1  0
 25 26  2  0
 26 27  1  0
 27 28  2  0
 17  7  1  0
 28 18  1  0
 16 11  1  0
 27 21  1  0
  3 29  1  0
  4 30  1  0
  4 31  1  0
  8 32  1  0
  8 33  1  0
  9 34  1  0
  9 35  1  0
 10 36  1  6
 12 37  1  0
 13 38  1  0
 14 39  1  0
 16 40  1  0
 17 41  1  0
 17 42  1  0
 19 43  1  0
 20 44  1  0
 22 45  1  0
 25 46  1  0
 26 47  1  0
M  END
>  <smiles>  (24) 
O=C(NCC(=O)N1CC[C@H](c2cccnc2)C1)c1ccc2cc(F)ccc2n1

>  <score_type>  (24) 
oracle

>  <origin>  (24) 
autodockgpu

>  <m_score__min__energy>  (24) 
-8.6600000000000001

>  <m_primary>  (24) 
energy

>  <rmsd>  (24) 
2.6216551367234615

>  <m_score__min__rmsd>  (24) 
2.6216551367234615

>  <meeko>  (24) 
{"free_energy": -8.49, "intermolecular_energy": -9.98, "internal_energy": -1.23, "cluster_size": 39, "cluster_id": 1, "rank_in_cluster": 12}

>  <energy>  (24) 
-8.23

>  <cluster_rmsd>  (24) 
1.27

>  <cluster>  (24) 
1

$$$$

     RDKit          3D

 47 50  0  0  0  0  0  0  0  0999 V2000
  140.7250   72.2620  221.5860 O   0  0  0  0  0  0  0  0  0  0  0  0
  139.7870   72.2340  222.4430 C   0  0  0  0  0  0  0  0  0  0  0  0
  138.6740   73.1020  222.3240 N   0  0  0  0  0  0  0  0  0  0  0  0
  138.6380   74.0170  221.2070 C   0  0  0  0  0  0  0  0  0  0  0  0
  139.6520   75.0740  221.4580 C   0  0  0  0  0  0  0  0  0  0  0  0
  139.5750   75.8810  222.4230 O   0  0  0  0  0  0  0  0  0  0  0  0
  140.7650   75.2000  220.5840 N   0  0  0  0  0  0  0  0  0  0  0  0
  140.7380   75.4900  219.1610 C   0  0  0  0  0  0  0  0  0  0  0  0
  141.8640   74.5900  218.6840 C   0  0  0  0  0  0  0  0  0  0  0  0
  142.9490   74.9950  219.6870 C   0  0  2  0  0  0  0  0  0  0  0  0
  144.1020   74.0990  219.6850 C   0  0  0  0  0  0  0  0  0  0  0  0
  144.7860   73.9140  220.8840 C   0  0  0  0  0  0  0  0  0  0  0  0
  145.8840   73.0890  220.9690 C   0  0  0  0  0  0  0  0  0  0  0  0
  146.3100   72.4330  219.8420 C   0  0  0  0  0  0  0  0  0  0  0  0
  145.6490   72.6110  218.6870 N   0  0  0  0  0  0  0  0  0  0  0  0
  144.5600   73.4290  218.5960 C   0  0  0  0  0  0  0  0  0  0  0  0
  142.1800   75.0550  220.9640 C   0  0  0  0  0  0  0  0  0  0  0  0
  139.8600   71.2880  223.5660 C   0  0  0  0  0  0  0  0  0  0  0  0
  139.4320   69.9870  223.3920 C   0  0  0  0  0  0  0  0  0  0  0  0
  139.5280   69.1450  224.4880 C   0  0  0  0  0  0  0  0  0  0  0  0
  140.0200   69.5600  225.6980 C   0  0  0  0  0  0  0  0  0  0  0  0
  140.1260   68.7400  226.8040 C   0  0  0  0  0  0  0  0  0  0  0  0
  140.6350   69.2560  227.9750 C   0  0  0  0  0  0  0  0  0  0  0  0
  140.7580   68.4770  229.1000 F   0  0  0  0  0  0  0  0  0  0  0  0
  141.0510   70.5630  228.1010 C   0  0  0  0  0  0  0  0  0  0  0  0
  140.9460   71.3890  226.9930 C   0  0  0  0  0  0  0  0  0  0  0  0
  140.4360   70.8660  225.8250 C   0  0  0  0  0  0  0  0  0  0  0  0
  140.3430   71.6830  224.7620 N   0  0  0  0  0  0  0  0  0  0  0  0
  137.9320   73.0380  223.0550 H   0  0  0  0  0  0  0  0  0  0  0  0
  138.8768   73.4818  220.2761 H   0  0  0  0  0  0  0  0  0  0  0  0
  137.6365   74.4599  221.1030 H   0  0  0  0  0  0  0  0  0  0  0  0
  139.7750   75.2138  218.7068 H   0  0  0  0  0  0  0  0  0  0  0  0
  140.8554   76.5530  218.9037 H   0  0  0  0  0  0  0  0  0  0  0  0
  141.6027   73.5249  218.7691 H   0  0  0  0  0  0  0  0  0  0  0  0
  142.1383   74.7026  217.6247 H   0  0  0  0  0  0  0  0  0  0  0  0
  143.4440   75.9505  219.4590 H   0  0  0  0  0  0  0  0  0  0  0  0
  144.4398   74.4406  221.7856 H   0  0  0  0  0  0  0  0  0  0  0  0
  146.4117   72.9576  221.9252 H   0  0  0  0  0  0  0  0  0  0  0  0
  147.1848   71.7675  219.8842 H   0  0  0  0  0  0  0  0  0  0  0  0
  144.0476   73.5469  217.6298 H   0  0  0  0  0  0  0  0  0  0  0  0
  142.3270   74.1305  221.5416 H   0  0  0  0  0  0  0  0  0  0  0  0
  142.5139   75.8923  221.5944 H   0  0  0  0  0  0  0  0  0  0  0  0
  139.0336   69.6356  222.4288 H   0  0  0  0  0  0  0  0  0  0  0  0
  139.1960   68.1016  224.3829 H   0  0  0  0  0  0  0  0  0  0  0  0
  139.8080   67.6883  226.7504 H   0  0  0  0  0  0  0  0  0  0  0  0
  141.4544   70.9399  229.0524 H   0  0  0  0  0  0  0  0  0  0  0  0
  141.2635   72.4409  227.0452 H   0  0  0  0  0  0  0  0  0  0  0  0
  1  2  2  0
  2  3  1  0
  3  4  1  0
  4  5  1  0
  5  6  2  0
  5  7  1  0
  7  8  1  0
  8  9  1  0
  9 10  1  0
 10 11  1  0
 11 12  2  0
 12 13  1  0
 13 14  2  0
 14 15  1  0
 15 16  2  0
 10 17  1  0
  2 18  1  0
 18 19  2  0
 19 20  1  0
 20 21  2  0
 21 22  1  0
 22 23  2  0
 23 24  1  0
 23 25  1  0
 25 26  2  0
 26 27  1  0
 27 28  2  0
 17  7  1  0
 28 18  1  0
 16 11  1  0
 27 21  1  0
  3 29  1  0
  4 30  1  0
  4 31  1  0
  8 32  1  0
  8 33  1  0
  9 34  1  0
  9 35  1  0
 10 36  1  6
 12 37  1  0
 13 38  1  0
 14 39  1  0
 16 40  1  0
 17 41  1  0
 17 42  1  0
 19 43  1  0
 20 44  1  0
 22 45  1  0
 25 46  1  0
 26 47  1  0
M  END
>  <smiles>  (25) 
O=C(NCC(=O)N1CC[C@H](c2cccnc2)C1)c1ccc2cc(F)ccc2n1

>  <score_type>  (25) 
oracle

>  <origin>  (25) 
autodockgpu

>  <m_score__min__energy>  (25) 
-8.6600000000000001

>  <m_primary>  (25) 
energy

>  <rmsd>  (25) 
2.1379444558036926

>  <m_score__min__rmsd>  (25) 
2.1379444558036926

>  <meeko>  (25) 
{"free_energy": -8.27, "intermolecular_energy": -9.76, "internal_energy": -1.3, "cluster_size": 9, "cluster_id": 2, "rank_in_cluster": 3}

>  <energy>  (25) 
-8.22

>  <cluster_rmsd>  (25) 
1.78

>  <cluster>  (25) 
1

$$$$

     RDKit          3D

 47 50  0  0  0  0  0  0  0  0999 V2000
  139.7150   75.6390  220.0830 O   0  0  0  0  0  0  0  0  0  0  0  0
  139.4860   75.7570  221.3280 C   0  0  0  0  0  0  0  0  0  0  0  0
  138.9680   74.6690  222.0730 N   0  0  0  0  0  0  0  0  0  0  0  0
  138.7070   73.4290  221.3790 C   0  0  0  0  0  0  0  0  0  0  0  0
  138.0700   72.4970  222.3460 C   0  0  0  0  0  0  0  0  0  0  0  0
  136.8760   72.6190  222.7270 O   0  0  0  0  0  0  0  0  0  0  0  0
  138.8230   71.4160  222.8770 N   0  0  0  0  0  0  0  0  0  0  0  0
  138.7260   70.0140  222.5110 C   0  0  0  0  0  0  0  0  0  0  0  0
  138.9080   69.3690  223.8740 C   0  0  0  0  0  0  0  0  0  0  0  0
  140.1620   70.1170  224.3370 C   0  0  2  0  0  0  0  0  0  0  0  0
  140.4540   69.9330  225.7560 C   0  0  0  0  0  0  0  0  0  0  0  0
  140.4350   68.6360  226.2630 C   0  0  0  0  0  0  0  0  0  0  0  0
  140.6980   68.3740  227.5880 C   0  0  0  0  0  0  0  0  0  0  0  0
  140.9870   69.4200  228.4270 C   0  0  0  0  0  0  0  0  0  0  0  0
  141.0060   70.6700  227.9370 N   0  0  0  0  0  0  0  0  0  0  0  0
  140.7460   70.9360  226.6240 C   0  0  0  0  0  0  0  0  0  0  0  0
  139.8600   71.5160  223.9170 C   0  0  0  0  0  0  0  0  0  0  0  0
  139.7650   77.0350  221.9980 C   0  0  0  0  0  0  0  0  0  0  0  0
  138.7280   77.7470  222.5690 C   0  0  0  0  0  0  0  0  0  0  0  0
  139.0560   78.9430  223.1850 C   0  0  0  0  0  0  0  0  0  0  0  0
  140.3400   79.4200  223.2380 C   0  0  0  0  0  0  0  0  0  0  0  0
  140.6920   80.6080  223.8460 C   0  0  0  0  0  0  0  0  0  0  0  0
  142.0120   80.9980  223.8440 C   0  0  0  0  0  0  0  0  0  0  0  0
  142.4080   82.1730  224.4370 F   0  0  0  0  0  0  0  0  0  0  0  0
  143.0140   80.2530  223.2610 C   0  0  0  0  0  0  0  0  0  0  0  0
  142.6640   79.0590  222.6500 C   0  0  0  0  0  0  0  0  0  0  0  0
  141.3410   78.6760  222.6550 C   0  0  0  0  0  0  0  0  0  0  0  0
  141.0230   77.5150  222.0580 N   0  0  0  0  0  0  0  0  0  0  0  0
  138.7980   74.8190  223.0920 H   0  0  0  0  0  0  0  0  0  0  0  0
  138.0303   73.6094  220.5308 H   0  0  0  0  0  0  0  0  0  0  0  0
  139.6422   73.0007  220.9892 H   0  0  0  0  0  0  0  0  0  0  0  0
  137.7456   69.7736  222.0739 H   0  0  0  0  0  0  0  0  0  0  0  0
  139.4438   69.6857  221.7449 H   0  0  0  0  0  0  0  0  0  0  0  0
  138.0495   69.5568  224.5356 H   0  0  0  0  0  0  0  0  0  0  0  0
  138.9906   68.2721  223.8676 H   0  0  0  0  0  0  0  0  0  0  0  0
  141.0989   69.7477  223.8945 H   0  0  0  0  0  0  0  0  0  0  0  0
  140.2038   67.7996  225.5869 H   0  0  0  0  0  0  0  0  0  0  0  0
  140.6768   67.3421  227.9684 H   0  0  0  0  0  0  0  0  0  0  0  0
  141.2010   69.2367  229.4903 H   0  0  0  0  0  0  0  0  0  0  0  0
  140.7733   71.9752  226.2643 H   0  0  0  0  0  0  0  0  0  0  0  0
  139.4878   72.0993  224.7722 H   0  0  0  0  0  0  0  0  0  0  0  0
  140.7592   72.0250  223.5398 H   0  0  0  0  0  0  0  0  0  0  0  0
  137.6911   77.3813  222.5359 H   0  0  0  0  0  0  0  0  0  0  0  0
  138.2537   79.5342  223.6506 H   0  0  0  0  0  0  0  0  0  0  0  0
  139.9269   81.2356  224.3263 H   0  0  0  0  0  0  0  0  0  0  0  0
  144.0593   80.5952  223.2799 H   0  0  0  0  0  0  0  0  0  0  0  0
  143.4281   78.4296  222.1704 H   0  0  0  0  0  0  0  0  0  0  0  0
  1  2  2  0
  2  3  1  0
  3  4  1  0
  4  5  1  0
  5  6  2  0
  5  7  1  0
  7  8  1  0
  8  9  1  0
  9 10  1  0
 10 11  1  0
 11 12  2  0
 12 13  1  0
 13 14  2  0
 14 15  1  0
 15 16  2  0
 10 17  1  0
  2 18  1  0
 18 19  2  0
 19 20  1  0
 20 21  2  0
 21 22  1  0
 22 23  2  0
 23 24  1  0
 23 25  1  0
 25 26  2  0
 26 27  1  0
 27 28  2  0
 17  7  1  0
 28 18  1  0
 16 11  1  0
 27 21  1  0
  3 29  1  0
  4 30  1  0
  4 31  1  0
  8 32  1  0
  8 33  1  0
  9 34  1  0
  9 35  1  0
 10 36  1  6
 12 37  1  0
 13 38  1  0
 14 39  1  0
 16 40  1  0
 17 41  1  0
 17 42  1  0
 19 43  1  0
 20 44  1  0
 22 45  1  0
 25 46  1  0
 26 47  1  0
M  END
>  <smiles>  (26) 
O=C(NCC(=O)N1CC[C@H](c2cccnc2)C1)c1ccc2cc(F)ccc2n1

>  <score_type>  (26) 
oracle

>  <origin>  (26) 
autodockgpu

>  <m_score__min__energy>  (26) 
-8.6600000000000001

>  <m_primary>  (26) 
energy

>  <rmsd>  (26) 
8.61000186367915

>  <m_score__min__rmsd>  (26) 
8.61000186367915

>  <meeko>  (26) 
{"free_energy": -8.04, "intermolecular_energy": -9.53, "internal_energy": -0.96, "cluster_size": 2, "cluster_id": 3, "rank_in_cluster": 2}

>  <energy>  (26) 
-8.21

>  <cluster_rmsd>  (26) 
1.82

>  <cluster>  (26) 
1

$$$$

     RDKit          3D

 47 50  0  0  0  0  0  0  0  0999 V2000
  140.8810   73.0650  222.2700 O   0  0  0  0  0  0  0  0  0  0  0  0
  139.8110   72.5990  222.7750 C   0  0  0  0  0  0  0  0  0  0  0  0
  138.5460   73.0700  222.3460 N   0  0  0  0  0  0  0  0  0  0  0  0
  138.5070   74.0900  221.3240 C   0  0  0  0  0  0  0  0  0  0  0  0
  138.4840   75.4100  222.0060 C   0  0  0  0  0  0  0  0  0  0  0  0
  137.7250   75.6640  222.9790 O   0  0  0  0  0  0  0  0  0  0  0  0
  139.3470   76.4450  221.5580 N   0  0  0  0  0  0  0  0  0  0  0  0
  140.4030   76.3420  220.5660 C   0  0  0  0  0  0  0  0  0  0  0  0
  141.4480   77.2470  221.1940 C   0  0  0  0  0  0  0  0  0  0  0  0
  140.5740   78.4710  221.4880 C   0  0  2  0  0  0  0  0  0  0  0  0
  141.2190   79.4450  222.3630 C   0  0  0  0  0  0  0  0  0  0  0  0
  142.6050   79.3990  222.4820 C   0  0  0  0  0  0  0  0  0  0  0  0
  143.2910   80.2800  223.2870 C   0  0  0  0  0  0  0  0  0  0  0  0
  142.5870   81.2260  223.9860 C   0  0  0  0  0  0  0  0  0  0  0  0
  141.2500   81.2710  223.8700 N   0  0  0  0  0  0  0  0  0  0  0  0
  140.5640   80.4000  223.0740 C   0  0  0  0  0  0  0  0  0  0  0  0
  139.3340   77.8420  222.0250 C   0  0  0  0  0  0  0  0  0  0  0  0
  139.8930   71.5620  223.8140 C   0  0  0  0  0  0  0  0  0  0  0  0
  139.4740   70.2770  223.5290 C   0  0  0  0  0  0  0  0  0  0  0  0
  139.5770   69.3460  224.5490 C   0  0  0  0  0  0  0  0  0  0  0  0
  140.0690   69.6590  225.7890 C   0  0  0  0  0  0  0  0  0  0  0  0
  140.1820   68.7490  226.8210 C   0  0  0  0  0  0  0  0  0  0  0  0
  140.6890   69.1660  228.0310 C   0  0  0  0  0  0  0  0  0  0  0  0
  140.8190   68.2950  229.0860 F   0  0  0  0  0  0  0  0  0  0  0  0
  141.0960   70.4610  228.2690 C   0  0  0  0  0  0  0  0  0  0  0  0
  140.9840   71.3770  227.2350 C   0  0  0  0  0  0  0  0  0  0  0  0
  140.4750   70.9530  226.0270 C   0  0  0  0  0  0  0  0  0  0  0  0
  140.3750   71.8560  225.0380 N   0  0  0  0  0  0  0  0  0  0  0  0
  137.7000   72.6530  222.7930 H   0  0  0  0  0  0  0  0  0  0  0  0
  139.3986   74.0140  220.6843 H   0  0  0  0  0  0  0  0  0  0  0  0
  137.6163   73.9675  220.6903 H   0  0  0  0  0  0  0  0  0  0  0  0
  140.7668   75.3090  220.4635 H   0  0  0  0  0  0  0  0  0  0  0  0
  140.1056   76.6193  219.5439 H   0  0  0  0  0  0  0  0  0  0  0  0
  141.8691   76.8126  222.1127 H   0  0  0  0  0  0  0  0  0  0  0  0
  142.3347   77.4417  220.5729 H   0  0  0  0  0  0  0  0  0  0  0  0
  140.3682   79.1028  220.6113 H   0  0  0  0  0  0  0  0  0  0  0  0
  143.1664   78.6393  221.9184 H   0  0  0  0  0  0  0  0  0  0  0  0
  144.3867   80.2258  223.3681 H   0  0  0  0  0  0  0  0  0  0  0  0
  143.1124   81.9414  224.6357 H   0  0  0  0  0  0  0  0  0  0  0  0
  139.4684   80.4719  223.0073 H   0  0  0  0  0  0  0  0  0  0  0  0
  139.3341   77.8766  223.1244 H   0  0  0  0  0  0  0  0  0  0  0  0
  138.4338   78.3718  221.6801 H   0  0  0  0  0  0  0  0  0  0  0  0
  139.0775   70.0062  222.5393 H   0  0  0  0  0  0  0  0  0  0  0  0
  139.2506   68.3134  224.3560 H   0  0  0  0  0  0  0  0  0  0  0  0
  139.8708   67.7037  226.6782 H   0  0  0  0  0  0  0  0  0  0  0  0
  141.4972   70.7583  229.2491 H   0  0  0  0  0  0  0  0  0  0  0  0
  141.2955   72.4225  227.3761 H   0  0  0  0  0  0  0  0  0  0  0  0
  1  2  2  0
  2  3  1  0
  3  4  1  0
  4  5  1  0
  5  6  2  0
  5  7  1  0
  7  8  1  0
  8  9  1  0
  9 10  1  0
 10 11  1  0
 11 12  2  0
 12 13  1  0
 13 14  2  0
 14 15  1  0
 15 16  2  0
 10 17  1  0
  2 18  1  0
 18 19  2  0
 19 20  1  0
 20 21  2  0
 21 22  1  0
 22 23  2  0
 23 24  1  0
 23 25  1  0
 25 26  2  0
 26 27  1  0
 27 28  2  0
 17  7  1  0
 28 18  1  0
 16 11  1  0
 27 21  1  0
  3 29  1  0
  4 30  1  0
  4 31  1  0
  8 32  1  0
  8 33  1  0
  9 34  1  0
  9 35  1  0
 10 36  1  6
 12 37  1  0
 13 38  1  0
 14 39  1  0
 16 40  1  0
 17 41  1  0
 17 42  1  0
 19 43  1  0
 20 44  1  0
 22 45  1  0
 25 46  1  0
 26 47  1  0
M  END
>  <smiles>  (27) 
O=C(NCC(=O)N1CC[C@H](c2cccnc2)C1)c1ccc2cc(F)ccc2n1

>  <score_type>  (27) 
oracle

>  <origin>  (27) 
autodockgpu

>  <m_score__min__energy>  (27) 
-8.6600000000000001

>  <m_primary>  (27) 
energy

>  <rmsd>  (27) 
2.6134526497093034

>  <m_score__min__rmsd>  (27) 
2.6134526497093034

>  <meeko>  (27) 
{"free_energy": -8.53, "intermolecular_energy": -10.02, "internal_energy": -1.11, "cluster_size": 39, "cluster_id": 1, "rank_in_cluster": 10}

>  <energy>  (27) 
-8.2

>  <cluster_rmsd>  (27) 
1.22

>  <cluster>  (27) 
1

$$$$

     RDKit          3D

 47 50  0  0  0  0  0  0  0  0999 V2000
  139.5920   73.6640  222.3950 O   0  0  0  0  0  0  0  0  0  0  0  0
  140.2350   72.5700  222.3210 C   0  0  0  0  0  0  0  0  0  0  0  0
  141.0370   72.2790  221.1900 N   0  0  0  0  0  0  0  0  0  0  0  0
  141.1030   73.2580  220.1300 C   0  0  0  0  0  0  0  0  0  0  0  0
  141.7670   74.4700  220.6770 C   0  0  0  0  0  0  0  0  0  0  0  0
  143.0110   74.5470  220.8560 O   0  0  0  0  0  0  0  0  0  0  0  0
  140.9830   75.6030  221.0220 N   0  0  0  0  0  0  0  0  0  0  0  0
  139.9360   76.2230  220.2280 C   0  0  0  0  0  0  0  0  0  0  0  0
  140.1990   77.6870  220.5350 C   0  0  0  0  0  0  0  0  0  0  0  0
  140.2750   77.6100  222.0630 C   0  0  2  0  0  0  0  0  0  0  0  0
  140.8030   78.8250  222.6780 C   0  0  0  0  0  0  0  0  0  0  0  0
  142.1820   79.0150  222.6650 C   0  0  0  0  0  0  0  0  0  0  0  0
  142.7630   80.1310  223.2230 C   0  0  0  0  0  0  0  0  0  0  0  0
  141.9590   81.0780  223.8050 C   0  0  0  0  0  0  0  0  0  0  0  0
  140.6280   80.8930  223.8160 N   0  0  0  0  0  0  0  0  0  0  0  0
  140.0470   79.7890  223.2650 C   0  0  0  0  0  0  0  0  0  0  0  0
  141.0850   76.3760  222.2710 C   0  0  0  0  0  0  0  0  0  0  0  0
  140.1420   71.5990  223.4210 C   0  0  0  0  0  0  0  0  0  0  0  0
  139.5600   70.3670  223.1970 C   0  0  0  0  0  0  0  0  0  0  0  0
  139.5040   69.4970  224.2740 C   0  0  0  0  0  0  0  0  0  0  0  0
  139.9930   69.8210  225.5120 C   0  0  0  0  0  0  0  0  0  0  0  0
  139.9490   68.9730  226.6000 C   0  0  0  0  0  0  0  0  0  0  0  0
  140.4690   69.3950  227.8030 C   0  0  0  0  0  0  0  0  0  0  0  0
  140.4460   68.5840  228.9120 F   0  0  0  0  0  0  0  0  0  0  0  0
  141.0410   70.6360  227.9790 C   0  0  0  0  0  0  0  0  0  0  0  0
  141.0870   71.4910  226.8880 C   0  0  0  0  0  0  0  0  0  0  0  0
  140.5640   71.0610  225.6890 C   0  0  0  0  0  0  0  0  0  0  0  0
  140.6200   71.9050  224.6440 N   0  0  0  0  0  0  0  0  0  0  0  0
  141.5440   71.3670  221.1800 H   0  0  0  0  0  0  0  0  0  0  0  0
  141.6863   72.8591  219.2870 H   0  0  0  0  0  0  0  0  0  0  0  0
  140.0938   73.5017  219.7664 H   0  0  0  0  0  0  0  0  0  0  0  0
  140.0531   76.0038  219.1564 H   0  0  0  0  0  0  0  0  0  0  0  0
  138.9169   75.8787  220.4578 H   0  0  0  0  0  0  0  0  0  0  0  0
  141.1440   78.0364  220.0934 H   0  0  0  0  0  0  0  0  0  0  0  0
  139.4546   78.3920  220.1363 H   0  0  0  0  0  0  0  0  0  0  0  0
  139.2970   77.5479  222.5626 H   0  0  0  0  0  0  0  0  0  0  0  0
  142.8236   78.2539  222.1969 H   0  0  0  0  0  0  0  0  0  0  0  0
  143.8550   80.2615  223.2026 H   0  0  0  0  0  0  0  0  0  0  0  0
  142.3990   81.9789  224.2577 H   0  0  0  0  0  0  0  0  0  0  0  0
  138.9531   79.6778  223.2963 H   0  0  0  0  0  0  0  0  0  0  0  0
  142.1341   76.6379  222.4729 H   0  0  0  0  0  0  0  0  0  0  0  0
  140.7199   75.7969  223.1320 H   0  0  0  0  0  0  0  0  0  0  0  0
  139.1599   70.0895  222.2106 H   0  0  0  0  0  0  0  0  0  0  0  0
  139.0485   68.5063  224.1291 H   0  0  0  0  0  0  0  0  0  0  0  0
  139.5036   67.9715  226.5071 H   0  0  0  0  0  0  0  0  0  0  0  0
  141.4486   70.9393  228.9547 H   0  0  0  0  0  0  0  0  0  0  0  0
  141.5324   72.4927  226.9787 H   0  0  0  0  0  0  0  0  0  0  0  0
  1  2  2  0
  2  3  1  0
  3  4  1  0
  4  5  1  0
  5  6  2  0
  5  7  1  0
  7  8  1  0
  8  9  1  0
  9 10  1  0
 10 11  1  0
 11 12  2  0
 12 13  1  0
 13 14  2  0
 14 15  1  0
 15 16  2  0
 10 17  1  0
  2 18  1  0
 18 19  2  0
 19 20  1  0
 20 21  2  0
 21 22  1  0
 22 23  2  0
 23 24  1  0
 23 25  1  0
 25 26  2  0
 26 27  1  0
 27 28  2  0
 17  7  1  0
 28 18  1  0
 16 11  1  0
 27 21  1  0
  3 29  1  0
  4 30  1  0
  4 31  1  0
  8 32  1  0
  8 33  1  0
  9 34  1  0
  9 35  1  0
 10 36  1  1
 12 37  1  0
 13 38  1  0
 14 39  1  0
 16 40  1  0
 17 41  1  0
 17 42  1  0
 19 43  1  0
 20 44  1  0
 22 45  1  0
 25 46  1  0
 26 47  1  0
M  END
>  <smiles>  (28) 
O=C(NCC(=O)N1CC[C@H](c2cccnc2)C1)c1ccc2cc(F)ccc2n1

>  <score_type>  (28) 
oracle

>  <origin>  (28) 
autodockgpu

>  <m_score__min__energy>  (28) 
-8.6600000000000001

>  <m_primary>  (28) 
energy

>  <rmsd>  (28) 
2.853341190266189

>  <m_score__min__rmsd>  (28) 
2.853341190266189

>  <meeko>  (28) 
{"free_energy": -8.42, "intermolecular_energy": -9.91, "internal_energy": -1.13, "cluster_size": 39, "cluster_id": 1, "rank_in_cluster": 16}

>  <energy>  (28) 
-8.2

>  <cluster_rmsd>  (28) 
1.61

>  <cluster>  (28) 
1

$$$$

     RDKit          3D

 47 50  0  0  0  0  0  0  0  0999 V2000
  139.9170   73.6890  222.5400 O   0  0  0  0  0  0  0  0  0  0  0  0
  140.2850   72.4820  222.3870 C   0  0  0  0  0  0  0  0  0  0  0  0
  140.8000   72.0360  221.1450 N   0  0  0  0  0  0  0  0  0  0  0  0
  140.8920   72.9880  220.0630 C   0  0  0  0  0  0  0  0  0  0  0  0
  141.9290   73.9880  220.4310 C   0  0  0  0  0  0  0  0  0  0  0  0
  143.0690   73.6660  220.8600 O   0  0  0  0  0  0  0  0  0  0  0  0
  141.6430   75.3730  220.3010 N   0  0  0  0  0  0  0  0  0  0  0  0
  141.7930   76.1940  219.1120 C   0  0  0  0  0  0  0  0  0  0  0  0
  142.2980   77.4820  219.7400 C   0  0  0  0  0  0  0  0  0  0  0  0
  141.2540   77.6450  220.8480 C   0  0  2  0  0  0  0  0  0  0  0  0
  141.6130   78.6590  221.8360 C   0  0  0  0  0  0  0  0  0  0  0  0
  141.5130   78.3210  223.1830 C   0  0  0  0  0  0  0  0  0  0  0  0
  141.8310   79.2160  224.1790 C   0  0  0  0  0  0  0  0  0  0  0  0
  142.2580   80.4720  223.8300 C   0  0  0  0  0  0  0  0  0  0  0  0
  142.3550   80.7970  222.5300 N   0  0  0  0  0  0  0  0  0  0  0  0
  142.0410   79.9130  221.5390 C   0  0  0  0  0  0  0  0  0  0  0  0
  141.1340   76.2520  221.3670 C   0  0  0  0  0  0  0  0  0  0  0  0
  140.1750   71.5430  223.5130 C   0  0  0  0  0  0  0  0  0  0  0  0
  139.5850   70.3100  223.3190 C   0  0  0  0  0  0  0  0  0  0  0  0
  139.5120   69.4720  224.4190 C   0  0  0  0  0  0  0  0  0  0  0  0
  139.9950   69.8260  225.6520 C   0  0  0  0  0  0  0  0  0  0  0  0
  139.9350   69.0080  226.7620 C   0  0  0  0  0  0  0  0  0  0  0  0
  140.4490   69.4600  227.9570 C   0  0  0  0  0  0  0  0  0  0  0  0
  140.4100   68.6800  229.0880 F   0  0  0  0  0  0  0  0  0  0  0  0
  141.0310   70.7010  228.1030 C   0  0  0  0  0  0  0  0  0  0  0  0
  141.0930   71.5240  226.9900 C   0  0  0  0  0  0  0  0  0  0  0  0
  140.5750   71.0650  225.7980 C   0  0  0  0  0  0  0  0  0  0  0  0
  140.6460   71.8790  224.7310 N   0  0  0  0  0  0  0  0  0  0  0  0
  141.0880   71.0350  221.0740 H   0  0  0  0  0  0  0  0  0  0  0  0
  141.1798   72.4736  219.1343 H   0  0  0  0  0  0  0  0  0  0  0  0
  139.9222   73.4801  219.8979 H   0  0  0  0  0  0  0  0  0  0  0  0
  142.5258   75.7672  218.4114 H   0  0  0  0  0  0  0  0  0  0  0  0
  140.8812   76.3014  218.5061 H   0  0  0  0  0  0  0  0  0  0  0  0
  143.3142   77.3703  220.1461 H   0  0  0  0  0  0  0  0  0  0  0  0
  142.3896   78.3354  219.0520 H   0  0  0  0  0  0  0  0  0  0  0  0
  140.2866   78.0403  220.5046 H   0  0  0  0  0  0  0  0  0  0  0  0
  141.1709   77.3124  223.4583 H   0  0  0  0  0  0  0  0  0  0  0  0
  141.7442   78.9289  225.2373 H   0  0  0  0  0  0  0  0  0  0  0  0
  142.5184   81.2059  224.6069 H   0  0  0  0  0  0  0  0  0  0  0  0
  142.1357   80.2199  220.4869 H   0  0  0  0  0  0  0  0  0  0  0  0
  141.7353   76.1319  222.2803 H   0  0  0  0  0  0  0  0  0  0  0  0
  140.0930   76.0081  221.6257 H   0  0  0  0  0  0  0  0  0  0  0  0
  139.1916   70.0076  222.3373 H   0  0  0  0  0  0  0  0  0  0  0  0
  139.0476   68.4822  224.2984 H   0  0  0  0  0  0  0  0  0  0  0  0
  139.4824   68.0078  226.6930 H   0  0  0  0  0  0  0  0  0  0  0  0
  141.4338   71.0278  229.0730 H   0  0  0  0  0  0  0  0  0  0  0  0
  141.5466   72.5239  227.0564 H   0  0  0  0  0  0  0  0  0  0  0  0
  1  2  2  0
  2  3  1  0
  3  4  1  0
  4  5  1  0
  5  6  2  0
  5  7  1  0
  7  8  1  0
  8  9  1  0
  9 10  1  0
 10 11  1  0
 11 12  2  0
 12 13  1  0
 13 14  2  0
 14 15  1  0
 15 16  2  0
 10 17  1  0
  2 18  1  0
 18 19  2  0
 19 20  1  0
 20 21  2  0
 21 22  1  0
 22 23  2  0
 23 24  1  0
 23 25  1  0
 25 26  2  0
 26 27  1  0
 27 28  2  0
 17  7  1  0
 28 18  1  0
 16 11  1  0
 27 21  1  0
  3 29  1  0
  4 30  1  0
  4 31  1  0
  8 32  1  0
  8 33  1  0
  9 34  1  0
  9 35  1  0
 10 36  1  6
 12 37  1  0
 13 38  1  0
 14 39  1  0
 16 40  1  0
 17 41  1  0
 17 42  1  0
 19 43  1  0
 20 44  1  0
 22 45  1  0
 25 46  1  0
 26 47  1  0
M  END
>  <smiles>  (29) 
O=C(NCC(=O)N1CC[C@H](c2cccnc2)C1)c1ccc2cc(F)ccc2n1

>  <score_type>  (29) 
oracle

>  <origin>  (29) 
autodockgpu

>  <m_score__min__energy>  (29) 
-8.6600000000000001

>  <m_primary>  (29) 
energy

>  <rmsd>  (29) 
2.5406667952190483

>  <m_score__min__rmsd>  (29) 
2.5406667952190483

>  <meeko>  (29) 
{"free_energy": -8.61, "intermolecular_energy": -10.1, "internal_energy": -1.11, "cluster_size": 39, "cluster_id": 1, "rank_in_cluster": 6}

>  <energy>  (29) 
-8.18

>  <cluster_rmsd>  (29) 
1.78

>  <cluster>  (29) 
1

$$$$

     RDKit          3D

 47 50  0  0  0  0  0  0  0  0999 V2000
  139.3760   71.5840  221.4280 O   0  0  0  0  0  0  0  0  0  0  0  0
  138.7920   71.7190  222.5490 C   0  0  0  0  0  0  0  0  0  0  0  0
  137.7750   72.6900  222.7210 N   0  0  0  0  0  0  0  0  0  0  0  0
  137.4230   73.5180  221.5910 C   0  0  0  0  0  0  0  0  0  0  0  0
  137.6650   74.9330  221.9780 C   0  0  0  0  0  0  0  0  0  0  0  0
  136.8320   75.6150  222.6320 O   0  0  0  0  0  0  0  0  0  0  0  0
  138.8820   75.5630  221.6040 N   0  0  0  0  0  0  0  0  0  0  0  0
  140.1020   74.9200  221.1500 C   0  0  0  0  0  0  0  0  0  0  0  0
  141.1370   75.7990  221.8310 C   0  0  0  0  0  0  0  0  0  0  0  0
  140.6090   77.1740  221.4130 C   0  0  2  0  0  0  0  0  0  0  0  0
  141.2260   78.2770  222.1450 C   0  0  0  0  0  0  0  0  0  0  0  0
  141.6350   79.3930  221.4190 C   0  0  0  0  0  0  0  0  0  0  0  0
  142.2260   80.4750  222.0300 C   0  0  0  0  0  0  0  0  0  0  0  0
  142.4140   80.4500  223.3880 C   0  0  0  0  0  0  0  0  0  0  0  0
  142.0180   79.3730  224.0870 N   0  0  0  0  0  0  0  0  0  0  0  0
  141.4320   78.2970  223.4870 C   0  0  0  0  0  0  0  0  0  0  0  0
  139.1390   77.0130  221.6080 C   0  0  0  0  0  0  0  0  0  0  0  0
  139.1780   70.8560  223.6750 C   0  0  0  0  0  0  0  0  0  0  0  0
  138.9610   69.4940  223.5960 C   0  0  0  0  0  0  0  0  0  0  0  0
  139.3470   68.7360  224.6890 C   0  0  0  0  0  0  0  0  0  0  0  0
  139.9180   69.2870  225.8060 C   0  0  0  0  0  0  0  0  0  0  0  0
  140.3120   68.5530  226.9070 C   0  0  0  0  0  0  0  0  0  0  0  0
  140.8770   69.2030  227.9810 C   0  0  0  0  0  0  0  0  0  0  0  0
  141.2830   68.5130  229.0980 F   0  0  0  0  0  0  0  0  0  0  0  0
  141.0750   70.5670  228.0140 C   0  0  0  0  0  0  0  0  0  0  0  0
  140.6810   71.3070  226.9100 C   0  0  0  0  0  0  0  0  0  0  0  0
  140.1160   70.6490  225.8390 C   0  0  0  0  0  0  0  0  0  0  0  0
  139.7420   71.3850  224.7790 N   0  0  0  0  0  0  0  0  0  0  0  0
  137.3270   72.7580  223.6610 H   0  0  0  0  0  0  0  0  0  0  0  0
  138.0466   73.2543  220.7241 H   0  0  0  0  0  0  0  0  0  0  0  0
  136.3688   73.3677  221.3154 H   0  0  0  0  0  0  0  0  0  0  0  0
  140.1646   73.8765  221.4924 H   0  0  0  0  0  0  0  0  0  0  0  0
  140.2060   74.8457  220.0574 H   0  0  0  0  0  0  0  0  0  0  0  0
  141.1302   75.6709  222.9235 H   0  0  0  0  0  0  0  0  0  0  0  0
  142.1820   75.5936  221.5558 H   0  0  0  0  0  0  0  0  0  0  0  0
  140.8580   77.4602  220.3805 H   0  0  0  0  0  0  0  0  0  0  0  0
  141.4817   79.4098  220.3299 H   0  0  0  0  0  0  0  0  0  0  0  0
  142.5427   81.3465  221.4382 H   0  0  0  0  0  0  0  0  0  0  0  0
  142.8841   81.3027  223.8998 H   0  0  0  0  0  0  0  0  0  0  0  0
  141.1228   77.4357  224.0974 H   0  0  0  0  0  0  0  0  0  0  0  0
  138.8310   77.4525  222.5682 H   0  0  0  0  0  0  0  0  0  0  0  0
  138.5707   77.5237  220.8166 H   0  0  0  0  0  0  0  0  0  0  0  0
  138.5037   69.0337  222.7078 H   0  0  0  0  0  0  0  0  0  0  0  0
  139.1888   67.6478  224.6591 H   0  0  0  0  0  0  0  0  0  0  0  0
  140.1760   67.4616  226.9258 H   0  0  0  0  0  0  0  0  0  0  0  0
  141.5313   71.0529  228.8890 H   0  0  0  0  0  0  0  0  0  0  0  0
  140.8167   72.3984  226.8892 H   0  0  0  0  0  0  0  0  0  0  0  0
  1  2  2  0
  2  3  1  0
  3  4  1  0
  4  5  1  0
  5  6  2  0
  5  7  1  0
  7  8  1  0
  8  9  1  0
  9 10  1  0
 10 11  1  0
 11 12  2  0
 12 13  1  0
 13 14  2  0
 14 15  1  0
 15 16  2  0
 10 17  1  0
  2 18  1  0
 18 19  2  0
 19 20  1  0
 20 21  2  0
 21 22  1  0
 22 23  2  0
 23 24  1  0
 23 25  1  0
 25 26  2  0
 26 27  1  0
 27 28  2  0
 17  7  1  0
 28 18  1  0
 16 11  1  0
 27 21  1  0
  3 29  1  0
  4 30  1  0
  4 31  1  0
  8 32  1  0
  8 33  1  0
  9 34  1  0
  9 35  1  0
 10 36  1  6
 12 37  1  0
 13 38  1  0
 14 39  1  0
 16 40  1  0
 17 41  1  0
 17 42  1  0
 19 43  1  0
 20 44  1  0
 22 45  1  0
 25 46  1  0
 26 47  1  0
M  END
>  <smiles>  (30) 
O=C(NCC(=O)N1CC[C@H](c2cccnc2)C1)c1ccc2cc(F)ccc2n1

>  <score_type>  (30) 
oracle

>  <origin>  (30) 
autodockgpu

>  <m_score__min__energy>  (30) 
-8.6600000000000001

>  <m_primary>  (30) 
energy

>  <rmsd>  (30) 
2.479262006483203

>  <m_score__min__rmsd>  (30) 
2.479262006483203

>  <meeko>  (30) 
{"free_energy": -8.08, "intermolecular_energy": -9.57, "internal_energy": -1.19, "cluster_size": 39, "cluster_id": 1, "rank_in_cluster": 34}

>  <energy>  (30) 
-8.17

>  <cluster_rmsd>  (30) 
1.89

>  <cluster>  (30) 
1

$$$$

     RDKit          3D

 47 50  0  0  0  0  0  0  0  0999 V2000
  140.8880   71.7890  221.1570 O   0  0  0  0  0  0  0  0  0  0  0  0
  140.3060   72.2550  222.1870 C   0  0  0  0  0  0  0  0  0  0  0  0
  139.8420   73.5930  222.2120 N   0  0  0  0  0  0  0  0  0  0  0  0
  140.0500   74.4090  221.0380 C   0  0  0  0  0  0  0  0  0  0  0  0
  138.8790   75.3140  220.9060 C   0  0  0  0  0  0  0  0  0  0  0  0
  137.9260   75.0880  220.1140 O   0  0  0  0  0  0  0  0  0  0  0  0
  138.8100   76.4910  221.6980 N   0  0  0  0  0  0  0  0  0  0  0  0
  137.7300   77.4620  221.7390 C   0  0  0  0  0  0  0  0  0  0  0  0
  138.5310   78.7460  221.8660 C   0  0  0  0  0  0  0  0  0  0  0  0
  139.4580   78.3490  223.0190 C   0  0  2  0  0  0  0  0  0  0  0  0
  140.5670   79.2780  223.2150 C   0  0  0  0  0  0  0  0  0  0  0  0
  141.8500   78.8360  222.9040 C   0  0  0  0  0  0  0  0  0  0  0  0
  142.9510   79.6470  223.0600 C   0  0  0  0  0  0  0  0  0  0  0  0
  142.7750   80.9220  223.5350 C   0  0  0  0  0  0  0  0  0  0  0  0
  141.5360   81.3470  223.8350 N   0  0  0  0  0  0  0  0  0  0  0  0
  140.4410   80.5470  223.6820 C   0  0  0  0  0  0  0  0  0  0  0  0
  139.8400   76.9580  222.6420 C   0  0  0  0  0  0  0  0  0  0  0  0
  140.1130   71.3910  223.3620 C   0  0  0  0  0  0  0  0  0  0  0  0
  139.5020   70.1620  223.2120 C   0  0  0  0  0  0  0  0  0  0  0  0
  139.3510   69.3960  224.3560 C   0  0  0  0  0  0  0  0  0  0  0  0
  139.7780   69.8160  225.5880 C   0  0  0  0  0  0  0  0  0  0  0  0
  139.6390   69.0710  226.7420 C   0  0  0  0  0  0  0  0  0  0  0  0
  140.1020   69.5850  227.9330 C   0  0  0  0  0  0  0  0  0  0  0  0
  139.9840   68.8780  229.1060 F   0  0  0  0  0  0  0  0  0  0  0  0
  140.7070   70.8190  228.0340 C   0  0  0  0  0  0  0  0  0  0  0  0
  140.8480   71.5690  226.8770 C   0  0  0  0  0  0  0  0  0  0  0  0
  140.3820   71.0490  225.6900 C   0  0  0  0  0  0  0  0  0  0  0  0
  140.5290   71.7920  224.5800 N   0  0  0  0  0  0  0  0  0  0  0  0
  139.3710   73.9240  223.0820 H   0  0  0  0  0  0  0  0  0  0  0  0
  140.9704   75.0007  221.1509 H   0  0  0  0  0  0  0  0  0  0  0  0
  140.1533   73.7782  220.1428 H   0  0  0  0  0  0  0  0  0  0  0  0
  137.1308   77.4447  220.8167 H   0  0  0  0  0  0  0  0  0  0  0  0
  136.9905   77.2976  222.5366 H   0  0  0  0  0  0  0  0  0  0  0  0
  139.0919   78.9729  220.9474 H   0  0  0  0  0  0  0  0  0  0  0  0
  137.9359   79.6557  222.0341 H   0  0  0  0  0  0  0  0  0  0  0  0
  138.9894   78.3917  224.0133 H   0  0  0  0  0  0  0  0  0  0  0  0
  141.9872   77.8129  222.5241 H   0  0  0  0  0  0  0  0  0  0  0  0
  143.9563   79.2787  222.8078 H   0  0  0  0  0  0  0  0  0  0  0  0
  143.6391   81.5894  223.6689 H   0  0  0  0  0  0  0  0  0  0  0  0
  139.4444   80.9347  223.9400 H   0  0  0  0  0  0  0  0  0  0  0  0
  140.8293   76.9512  222.1611 H   0  0  0  0  0  0  0  0  0  0  0  0
  139.9000   76.3052  223.5253 H   0  0  0  0  0  0  0  0  0  0  0  0
  139.1519   69.8082  222.2310 H   0  0  0  0  0  0  0  0  0  0  0  0
  138.8689   68.4109  224.2719 H   0  0  0  0  0  0  0  0  0  0  0  0
  139.1644   68.0792  226.7107 H   0  0  0  0  0  0  0  0  0  0  0  0
  141.0667   71.1969  229.0024 H   0  0  0  0  0  0  0  0  0  0  0  0
  141.3231   72.5607  226.9063 H   0  0  0  0  0  0  0  0  0  0  0  0
  1  2  2  0
  2  3  1  0
  3  4  1  0
  4  5  1  0
  5  6  2  0
  5  7  1  0
  7  8  1  0
  8  9  1  0
  9 10  1  0
 10 11  1  0
 11 12  2  0
 12 13  1  0
 13 14  2  0
 14 15  1  0
 15 16  2  0
 10 17  1  0
  2 18  1  0
 18 19  2  0
 19 20  1  0
 20 21  2  0
 21 22  1  0
 22 23  2  0
 23 24  1  0
 23 25  1  0
 25 26  2  0
 26 27  1  0
 27 28  2  0
 17  7  1  0
 28 18  1  0
 16 11  1  0
 27 21  1  0
  3 29  1  0
  4 30  1  0
  4 31  1  0
  8 32  1  0
  8 33  1  0
  9 34  1  0
  9 35  1  0
 10 36  1  1
 12 37  1  0
 13 38  1  0
 14 39  1  0
 16 40  1  0
 17 41  1  0
 17 42  1  0
 19 43  1  0
 20 44  1  0
 22 45  1  0
 25 46  1  0
 26 47  1  0
M  END
>  <smiles>  (31) 
O=C(NCC(=O)N1CC[C@H](c2cccnc2)C1)c1ccc2cc(F)ccc2n1

>  <score_type>  (31) 
oracle

>  <origin>  (31) 
autodockgpu

>  <m_score__min__energy>  (31) 
-8.6600000000000001

>  <m_primary>  (31) 
energy

>  <rmsd>  (31) 
3.2438544002092224

>  <m_score__min__rmsd>  (31) 
3.2438544002092224

>  <meeko>  (31) 
{"free_energy": -8.17, "intermolecular_energy": -9.67, "internal_energy": -1.08, "cluster_size": 39, "cluster_id": 1, "rank_in_cluster": 30}

>  <energy>  (31) 
-8.17

>  <cluster_rmsd>  (31) 
1.78

>  <cluster>  (31) 
1

$$$$

     RDKit          3D

 47 50  0  0  0  0  0  0  0  0999 V2000
  137.9970   71.1800  221.6200 O   0  0  0  0  0  0  0  0  0  0  0  0
  138.6860   71.6730  222.5690 C   0  0  0  0  0  0  0  0  0  0  0  0
  139.0690   73.0370  222.5500 N   0  0  0  0  0  0  0  0  0  0  0  0
  138.6570   73.8460  221.4260 C   0  0  0  0  0  0  0  0  0  0  0  0
  138.4710   75.2360  221.9180 C   0  0  0  0  0  0  0  0  0  0  0  0
  137.5610   75.5600  222.7270 O   0  0  0  0  0  0  0  0  0  0  0  0
  139.3450   76.2610  221.4680 N   0  0  0  0  0  0  0  0  0  0  0  0
  140.4060   76.1430  220.4820 C   0  0  0  0  0  0  0  0  0  0  0  0
  141.4550   77.0430  221.1110 C   0  0  0  0  0  0  0  0  0  0  0  0
  140.5900   78.2760  221.3910 C   0  0  2  0  0  0  0  0  0  0  0  0
  141.2380   79.2510  222.2640 C   0  0  0  0  0  0  0  0  0  0  0  0
  140.4250   80.1210  222.9860 C   0  0  0  0  0  0  0  0  0  0  0  0
  140.9540   81.0700  223.8300 C   0  0  0  0  0  0  0  0  0  0  0  0
  142.3170   81.1570  223.9610 C   0  0  0  0  0  0  0  0  0  0  0  0
  143.1000   80.3170  223.2640 N   0  0  0  0  0  0  0  0  0  0  0  0
  142.5810   79.3740  222.4260 C   0  0  0  0  0  0  0  0  0  0  0  0
  139.3410   77.6610  221.9250 C   0  0  0  0  0  0  0  0  0  0  0  0
  139.0840   70.8160  223.6950 C   0  0  0  0  0  0  0  0  0  0  0  0
  138.8620   69.4550  223.6280 C   0  0  0  0  0  0  0  0  0  0  0  0
  139.2610   68.7030  224.7210 C   0  0  0  0  0  0  0  0  0  0  0  0
  139.8490   69.2590  225.8270 C   0  0  0  0  0  0  0  0  0  0  0  0
  140.2550   68.5310  226.9270 C   0  0  0  0  0  0  0  0  0  0  0  0
  140.8370   69.1870  227.9890 C   0  0  0  0  0  0  0  0  0  0  0  0
  141.2560   68.5030  229.1050 F   0  0  0  0  0  0  0  0  0  0  0  0
  141.0390   70.5500  228.0100 C   0  0  0  0  0  0  0  0  0  0  0  0
  140.6320   71.2840  226.9070 C   0  0  0  0  0  0  0  0  0  0  0  0
  140.0510   70.6210  225.8480 C   0  0  0  0  0  0  0  0  0  0  0  0
  139.6640   71.3510  224.7880 N   0  0  0  0  0  0  0  0  0  0  0  0
  139.6330   73.3900  223.3540 H   0  0  0  0  0  0  0  0  0  0  0  0
  139.4311   73.8249  220.6447 H   0  0  0  0  0  0  0  0  0  0  0  0
  137.7217   73.4603  220.9942 H   0  0  0  0  0  0  0  0  0  0  0  0
  140.7616   75.1063  220.3876 H   0  0  0  0  0  0  0  0  0  0  0  0
  140.1168   76.4165  219.4565 H   0  0  0  0  0  0  0  0  0  0  0  0
  141.8663   76.6110  222.0353 H   0  0  0  0  0  0  0  0  0  0  0  0
  142.3475   77.2258  220.4946 H   0  0  0  0  0  0  0  0  0  0  0  0
  140.3951   78.9033  220.5087 H   0  0  0  0  0  0  0  0  0  0  0  0
  139.3327   80.0477  222.8788 H   0  0  0  0  0  0  0  0  0  0  0  0
  140.2945   81.7484  224.3910 H   0  0  0  0  0  0  0  0  0  0  0  0
  142.7641   81.9070  224.6300 H   0  0  0  0  0  0  0  0  0  0  0  0
  143.2583   78.7051  221.8748 H   0  0  0  0  0  0  0  0  0  0  0  0
  139.3347   77.7034  223.0242 H   0  0  0  0  0  0  0  0  0  0  0  0
  138.4474   78.1959  221.5709 H   0  0  0  0  0  0  0  0  0  0  0  0
  138.3911   68.9902  222.7493 H   0  0  0  0  0  0  0  0  0  0  0  0
  139.0992   67.6152  224.7002 H   0  0  0  0  0  0  0  0  0  0  0  0
  140.1155   67.4402  226.9552 H   0  0  0  0  0  0  0  0  0  0  0  0
  141.5087   71.0403  228.8754 H   0  0  0  0  0  0  0  0  0  0  0  0
  140.7702   72.3749  226.8776 H   0  0  0  0  0  0  0  0  0  0  0  0
  1  2  2  0
  2  3  1  0
  3  4  1  0
  4  5  1  0
  5  6  2  0
  5  7  1  0
  7  8  1  0
  8  9  1  0
  9 10  1  0
 10 11  1  0
 11 12  2  0
 12 13  1  0
 13 14  2  0
 14 15  1  0
 15 16  2  0
 10 17  1  0
  2 18  1  0
 18 19  2  0
 19 20  1  0
 20 21  2  0
 21 22  1  0
 22 23  2  0
 23 24  1  0
 23 25  1  0
 25 26  2  0
 26 27  1  0
 27 28  2  0
 17  7  1  0
 28 18  1  0
 16 11  1  0
 27 21  1  0
  3 29  1  0
  4 30  1  0
  4 31  1  0
  8 32  1  0
  8 33  1  0
  9 34  1  0
  9 35  1  0
 10 36  1  6
 12 37  1  0
 13 38  1  0
 14 39  1  0
 16 40  1  0
 17 41  1  0
 17 42  1  0
 19 43  1  0
 20 44  1  0
 22 45  1  0
 25 46  1  0
 26 47  1  0
M  END
>  <smiles>  (32) 
O=C(NCC(=O)N1CC[C@H](c2cccnc2)C1)c1ccc2cc(F)ccc2n1

>  <score_type>  (32) 
oracle

>  <origin>  (32) 
autodockgpu

>  <m_score__min__energy>  (32) 
-8.6600000000000001

>  <m_primary>  (32) 
energy

>  <rmsd>  (32) 
2.440666250813007

>  <m_score__min__rmsd>  (32) 
2.440666250813007

>  <meeko>  (32) 
{"free_energy": -7.88, "intermolecular_energy": -9.37, "internal_energy": -1.26, "cluster_size": 39, "cluster_id": 1, "rank_in_cluster": 38}

>  <energy>  (32) 
-8.16

>  <cluster_rmsd>  (32) 
1.95

>  <cluster>  (32) 
1

$$$$

     RDKit          3D

 47 50  0  0  0  0  0  0  0  0999 V2000
  138.8860   71.1140  221.4270 O   0  0  0  0  0  0  0  0  0  0  0  0
  139.3060   71.5760  222.5350 C   0  0  0  0  0  0  0  0  0  0  0  0
  139.5900   72.9560  222.6800 N   0  0  0  0  0  0  0  0  0  0  0  0
  139.3900   73.8190  221.5390 C   0  0  0  0  0  0  0  0  0  0  0  0
  140.7200   74.3410  221.1310 C   0  0  0  0  0  0  0  0  0  0  0  0
  141.7410   73.6090  221.0280 O   0  0  0  0  0  0  0  0  0  0  0  0
  140.8710   75.7230  220.8410 N   0  0  0  0  0  0  0  0  0  0  0  0
  141.4820   76.3130  219.6630 C   0  0  0  0  0  0  0  0  0  0  0  0
  142.1960   77.4940  220.2950 C   0  0  0  0  0  0  0  0  0  0  0  0
  141.0420   78.0700  221.1220 C   0  0  2  0  0  0  0  0  0  0  0  0
  141.4690   79.0750  222.0910 C   0  0  0  0  0  0  0  0  0  0  0  0
  141.4220   80.4120  221.7070 C   0  0  0  0  0  0  0  0  0  0  0  0
  141.8070   81.4230  222.5580 C   0  0  0  0  0  0  0  0  0  0  0  0
  142.2470   81.0990  223.8160 C   0  0  0  0  0  0  0  0  0  0  0  0
  142.2910   79.8080  224.1860 N   0  0  0  0  0  0  0  0  0  0  0  0
  141.9110   78.8020  223.3460 C   0  0  0  0  0  0  0  0  0  0  0  0
  140.4300   76.8370  221.6970 C   0  0  0  0  0  0  0  0  0  0  0  0
  139.4960   70.6650  223.6730 C   0  0  0  0  0  0  0  0  0  0  0  0
  139.0700   69.3550  223.5770 C   0  0  0  0  0  0  0  0  0  0  0  0
  139.2790   68.5480  224.6830 C   0  0  0  0  0  0  0  0  0  0  0  0
  139.8760   69.0040  225.8290 C   0  0  0  0  0  0  0  0  0  0  0  0
  140.0950   68.2190  226.9440 C   0  0  0  0  0  0  0  0  0  0  0  0
  140.7040   68.7750  228.0470 C   0  0  0  0  0  0  0  0  0  0  0  0
  140.9410   68.0310  229.1780 F   0  0  0  0  0  0  0  0  0  0  0  0
  141.1130   70.0900  228.0960 C   0  0  0  0  0  0  0  0  0  0  0  0
  140.8940   70.8800  226.9780 C   0  0  0  0  0  0  0  0  0  0  0  0
  140.2840   70.3170  225.8790 C   0  0  0  0  0  0  0  0  0  0  0  0
  140.0830   71.1010  224.8060 N   0  0  0  0  0  0  0  0  0  0  0  0
  139.9310   73.2830  223.6110 H   0  0  0  0  0  0  0  0  0  0  0  0
  138.9410   73.2493  220.7121 H   0  0  0  0  0  0  0  0  0  0  0  0
  138.7124   74.6468  221.7952 H   0  0  0  0  0  0  0  0  0  0  0  0
  142.1876   75.6211  219.1799 H   0  0  0  0  0  0  0  0  0  0  0  0
  140.7777   76.5751  218.8597 H   0  0  0  0  0  0  0  0  0  0  0  0
  143.0364   77.1748  220.9289 H   0  0  0  0  0  0  0  0  0  0  0  0
  142.6614   78.1951  219.5865 H   0  0  0  0  0  0  0  0  0  0  0  0
  140.3162   78.6571  220.5402 H   0  0  0  0  0  0  0  0  0  0  0  0
  141.0680   80.6673  220.6973 H   0  0  0  0  0  0  0  0  0  0  0  0
  141.7626   82.4734  222.2345 H   0  0  0  0  0  0  0  0  0  0  0  0
  142.5607   81.8882  224.5151 H   0  0  0  0  0  0  0  0  0  0  0  0
  141.9632   77.7582  223.6891 H   0  0  0  0  0  0  0  0  0  0  0  0
  140.7768   76.6849  222.7298 H   0  0  0  0  0  0  0  0  0  0  0  0
  139.3328   76.9101  221.7269 H   0  0  0  0  0  0  0  0  0  0  0  0
  138.5879   68.9709  222.6659 H   0  0  0  0  0  0  0  0  0  0  0  0
  138.9525   67.4985  224.6397 H   0  0  0  0  0  0  0  0  0  0  0  0
  139.7869   67.1631  226.9510 H   0  0  0  0  0  0  0  0  0  0  0  0
  141.5981   70.5000  228.9941 H   0  0  0  0  0  0  0  0  0  0  0  0
  141.2015   71.9361  226.9689 H   0  0  0  0  0  0  0  0  0  0  0  0
  1  2  2  0
  2  3  1  0
  3  4  1  0
  4  5  1  0
  5  6  2  0
  5  7  1  0
  7  8  1  0
  8  9  1  0
  9 10  1  0
 10 11  1  0
 11 12  2  0
 12 13  1  0
 13 14  2  0
 14 15  1  0
 15 16  2  0
 10 17  1  0
  2 18  1  0
 18 19  2  0
 19 20  1  0
 20 21  2  0
 21 22  1  0
 22 23  2  0
 23 24  1  0
 23 25  1  0
 25 26  2  0
 26 27  1  0
 27 28  2  0
 17  7  1  0
 28 18  1  0
 16 11  1  0
 27 21  1  0
  3 29  1  0
  4 30  1  0
  4 31  1  0
  8 32  1  0
  8 33  1  0
  9 34  1  0
  9 35  1  0
 10 36  1  6
 12 37  1  0
 13 38  1  0
 14 39  1  0
 16 40  1  0
 17 41  1  0
 17 42  1  0
 19 43  1  0
 20 44  1  0
 22 45  1  0
 25 46  1  0
 26 47  1  0
M  END
>  <smiles>  (33) 
O=C(NCC(=O)N1CC[C@H](c2cccnc2)C1)c1ccc2cc(F)ccc2n1

>  <score_type>  (33) 
oracle

>  <origin>  (33) 
autodockgpu

>  <m_score__min__energy>  (33) 
-8.6600000000000001

>  <m_primary>  (33) 
energy

>  <rmsd>  (33) 
2.241481550688297

>  <m_score__min__rmsd>  (33) 
2.241481550688297

>  <meeko>  (33) 
{"free_energy": -8.23, "intermolecular_energy": -9.73, "internal_energy": -1.26, "cluster_size": 39, "cluster_id": 1, "rank_in_cluster": 24}

>  <energy>  (33) 
-8.14

>  <cluster_rmsd>  (33) 
1.3

>  <cluster>  (33) 
1

$$$$

     RDKit          3D

 47 50  0  0  0  0  0  0  0  0999 V2000
  141.4240   72.2100  221.5700 O   0  0  0  0  0  0  0  0  0  0  0  0
  140.4460   72.4240  222.3550 C   0  0  0  0  0  0  0  0  0  0  0  0
  139.5750   73.5200  222.1400 N   0  0  0  0  0  0  0  0  0  0  0  0
  139.8290   74.3820  221.0090 C   0  0  0  0  0  0  0  0  0  0  0  0
  138.7050   75.3510  220.9210 C   0  0  0  0  0  0  0  0  0  0  0  0
  137.7400   75.2090  220.1230 O   0  0  0  0  0  0  0  0  0  0  0  0
  138.6980   76.4940  221.7630 N   0  0  0  0  0  0  0  0  0  0  0  0
  137.6150   77.4460  221.9450 C   0  0  0  0  0  0  0  0  0  0  0  0
  138.4090   78.7360  222.0490 C   0  0  0  0  0  0  0  0  0  0  0  0
  139.4460   78.3080  223.0920 C   0  0  2  0  0  0  0  0  0  0  0  0
  140.5580   79.2450  223.2210 C   0  0  0  0  0  0  0  0  0  0  0  0
  141.8460   78.7640  223.0020 C   0  0  0  0  0  0  0  0  0  0  0  0
  142.9500   79.5790  223.1040 C   0  0  0  0  0  0  0  0  0  0  0  0
  142.7710   80.9000  223.4300 C   0  0  0  0  0  0  0  0  0  0  0  0
  141.5280   81.3630  223.6400 N   0  0  0  0  0  0  0  0  0  0  0  0
  140.4310   80.5590  223.5410 C   0  0  0  0  0  0  0  0  0  0  0  0
  139.8070   76.9390  222.6240 C   0  0  0  0  0  0  0  0  0  0  0  0
  140.2220   71.5230  223.4950 C   0  0  0  0  0  0  0  0  0  0  0  0
  139.5200   70.3480  223.3080 C   0  0  0  0  0  0  0  0  0  0  0  0
  139.3430   69.5430  224.4210 C   0  0  0  0  0  0  0  0  0  0  0  0
  139.8300   69.8730  225.6580 C   0  0  0  0  0  0  0  0  0  0  0  0
  139.6670   69.0870  226.7810 C   0  0  0  0  0  0  0  0  0  0  0  0
  140.1960   69.5110  227.9800 C   0  0  0  0  0  0  0  0  0  0  0  0
  140.0580   68.7610  229.1230 F   0  0  0  0  0  0  0  0  0  0  0  0
  140.8910   70.6930  228.1180 C   0  0  0  0  0  0  0  0  0  0  0  0
  141.0560   71.4850  226.9920 C   0  0  0  0  0  0  0  0  0  0  0  0
  140.5240   71.0540  225.7970 C   0  0  0  0  0  0  0  0  0  0  0  0
  140.6960   71.8360  224.7170 N   0  0  0  0  0  0  0  0  0  0  0  0
  138.7890   73.6500  222.8130 H   0  0  0  0  0  0  0  0  0  0  0  0
  140.7776   74.9200  221.1530 H   0  0  0  0  0  0  0  0  0  0  0  0
  139.9043   73.7926  220.0833 H   0  0  0  0  0  0  0  0  0  0  0  0
  136.9317   77.4561  221.0830 H   0  0  0  0  0  0  0  0  0  0  0  0
  136.9560   77.2385  222.8010 H   0  0  0  0  0  0  0  0  0  0  0  0
  138.8774   79.0083  221.0917 H   0  0  0  0  0  0  0  0  0  0  0  0
  137.8217   79.6287  222.3101 H   0  0  0  0  0  0  0  0  0  0  0  0
  139.0729   78.3044  224.1268 H   0  0  0  0  0  0  0  0  0  0  0  0
  141.9848   77.7046  222.7405 H   0  0  0  0  0  0  0  0  0  0  0  0
  143.9591   79.1784  222.9272 H   0  0  0  0  0  0  0  0  0  0  0  0
  143.6368   81.5727  223.5184 H   0  0  0  0  0  0  0  0  0  0  0  0
  139.4310   80.9797  223.7225 H   0  0  0  0  0  0  0  0  0  0  0  0
  140.7463   76.9667  222.0522 H   0  0  0  0  0  0  0  0  0  0  0  0
  139.9581   76.2527  223.4702 H   0  0  0  0  0  0  0  0  0  0  0  0
  139.1209   70.0654  222.3227 H   0  0  0  0  0  0  0  0  0  0  0  0
  138.7885   68.5998  224.3069 H   0  0  0  0  0  0  0  0  0  0  0  0
  139.1214   68.1338  226.7191 H   0  0  0  0  0  0  0  0  0  0  0  0
  141.3022   70.9987  229.0914 H   0  0  0  0  0  0  0  0  0  0  0  0
  141.6010   72.4386  227.0519 H   0  0  0  0  0  0  0  0  0  0  0  0
  1  2  2  0
  2  3  1  0
  3  4  1  0
  4  5  1  0
  5  6  2  0
  5  7  1  0
  7  8  1  0
  8  9  1  0
  9 10  1  0
 10 11  1  0
 11 12  2  0
 12 13  1  0
 13 14  2  0
 14 15  1  0
 15 16  2  0
 10 17  1  0
  2 18  1  0
 18 19  2  0
 19 20  1  0
 20 21  2  0
 21 22  1  0
 22 23  2  0
 23 24  1  0
 23 25  1  0
 25 26  2  0
 26 27  1  0
 27 28  2  0
 17  7  1  0
 28 18  1  0
 16 11  1  0
 27 21  1  0
  3 29  1  0
  4 30  1  0
  4 31  1  0
  8 32  1  0
  8 33  1  0
  9 34  1  0
  9 35  1  0
 10 36  1  1
 12 37  1  0
 13 38  1  0
 14 39  1  0
 16 40  1  0
 17 41  1  0
 17 42  1  0
 19 43  1  0
 20 44  1  0
 22 45  1  0
 25 46  1  0
 26 47  1  0
M  END
>  <smiles>  (34) 
O=C(NCC(=O)N1CC[C@H](c2cccnc2)C1)c1ccc2cc(F)ccc2n1

>  <score_type>  (34) 
oracle

>  <origin>  (34) 
autodockgpu

>  <m_score__min__energy>  (34) 
-8.6600000000000001

>  <m_primary>  (34) 
energy

>  <rmsd>  (34) 
3.3038542280647465

>  <m_score__min__rmsd>  (34) 
3.3038542280647465

>  <meeko>  (34) 
{"free_energy": -8.31, "intermolecular_energy": -9.8, "internal_energy": -1.01, "cluster_size": 39, "cluster_id": 1, "rank_in_cluster": 19}

>  <energy>  (34) 
-8.08

>  <cluster_rmsd>  (34) 
1.89

>  <cluster>  (34) 
1

$$$$

     RDKit          3D

 47 50  0  0  0  0  0  0  0  0999 V2000
  139.8530   73.6690  222.4380 O   0  0  0  0  0  0  0  0  0  0  0  0
  140.3000   72.4830  222.3370 C   0  0  0  0  0  0  0  0  0  0  0  0
  140.9220   72.0450  221.1420 N   0  0  0  0  0  0  0  0  0  0  0  0
  141.0300   72.9800  220.0470 C   0  0  0  0  0  0  0  0  0  0  0  0
  142.0180   74.0190  220.4380 C   0  0  0  0  0  0  0  0  0  0  0  0
  143.1780   73.7430  220.8430 O   0  0  0  0  0  0  0  0  0  0  0  0
  141.6590   75.3910  220.3610 N   0  0  0  0  0  0  0  0  0  0  0  0
  141.7230   76.2530  219.1930 C   0  0  0  0  0  0  0  0  0  0  0  0
  142.1860   77.5460  219.8410 C   0  0  0  0  0  0  0  0  0  0  0  0
  141.1770   77.6240  220.9910 C   0  0  2  0  0  0  0  0  0  0  0  0
  141.5220   78.6260  221.9960 C   0  0  0  0  0  0  0  0  0  0  0  0
  141.9530   79.8730  221.5530 C   0  0  0  0  0  0  0  0  0  0  0  0
  142.2980   80.8730  222.4330 C   0  0  0  0  0  0  0  0  0  0  0  0
  142.2130   80.6300  223.7800 C   0  0  0  0  0  0  0  0  0  0  0  0
  141.7960   79.4260  224.2070 N   0  0  0  0  0  0  0  0  0  0  0  0
  141.4530   78.4310  223.3390 C   0  0  0  0  0  0  0  0  0  0  0  0
  141.1460   76.2130  221.4700 C   0  0  0  0  0  0  0  0  0  0  0  0
  140.1710   71.5610  223.4750 C   0  0  0  0  0  0  0  0  0  0  0  0
  139.5530   70.3390  223.2970 C   0  0  0  0  0  0  0  0  0  0  0  0
  139.4630   69.5160  224.4080 C   0  0  0  0  0  0  0  0  0  0  0  0
  139.9550   69.8750  225.6350 C   0  0  0  0  0  0  0  0  0  0  0  0
  139.8790   69.0730  226.7560 C   0  0  0  0  0  0  0  0  0  0  0  0
  140.4050   69.5280  227.9440 C   0  0  0  0  0  0  0  0  0  0  0  0
  140.3500   68.7630  229.0850 F   0  0  0  0  0  0  0  0  0  0  0  0
  141.0140   70.7570  228.0750 C   0  0  0  0  0  0  0  0  0  0  0  0
  141.0930   71.5650  226.9510 C   0  0  0  0  0  0  0  0  0  0  0  0
  140.5640   71.1030  225.7660 C   0  0  0  0  0  0  0  0  0  0  0  0
  140.6510   71.9010  224.6880 N   0  0  0  0  0  0  0  0  0  0  0  0
  141.2720   71.0620  221.1130 H   0  0  0  0  0  0  0  0  0  0  0  0
  141.3729   72.4586  219.1412 H   0  0  0  0  0  0  0  0  0  0  0  0
  140.0530   73.4377  219.8325 H   0  0  0  0  0  0  0  0  0  0  0  0
  142.4493   75.8846  218.4536 H   0  0  0  0  0  0  0  0  0  0  0  0
  140.7847   76.3312  218.6242 H   0  0  0  0  0  0  0  0  0  0  0  0
  143.2210   77.4747  220.2066 H   0  0  0  0  0  0  0  0  0  0  0  0
  142.2089   78.4222  219.1764 H   0  0  0  0  0  0  0  0  0  0  0  0
  140.1789   77.9798  220.6955 H   0  0  0  0  0  0  0  0  0  0  0  0
  142.0196   80.0641  220.4718 H   0  0  0  0  0  0  0  0  0  0  0  0
  142.6366   81.8516  222.0620 H   0  0  0  0  0  0  0  0  0  0  0  0
  142.4835   81.4129  224.5038 H   0  0  0  0  0  0  0  0  0  0  0  0
  141.1167   77.4597  223.7308 H   0  0  0  0  0  0  0  0  0  0  0  0
  141.7854   76.0975  222.3576 H   0  0  0  0  0  0  0  0  0  0  0  0
  140.1283   75.9093  221.7565 H   0  0  0  0  0  0  0  0  0  0  0  0
  139.1512   70.0335  222.3196 H   0  0  0  0  0  0  0  0  0  0  0  0
  138.9770   68.5351  224.3004 H   0  0  0  0  0  0  0  0  0  0  0  0
  139.4039   68.0824  226.7006 H   0  0  0  0  0  0  0  0  0  0  0  0
  141.4246   71.0867  229.0408 H   0  0  0  0  0  0  0  0  0  0  0  0
  141.5687   72.5554  227.0045 H   0  0  0  0  0  0  0  0  0  0  0  0
  1  2  2  0
  2  3  1  0
  3  4  1  0
  4  5  1  0
  5  6  2  0
  5  7  1  0
  7  8  1  0
  8  9  1  0
  9 10  1  0
 10 11  1  0
 11 12  2  0
 12 13  1  0
 13 14  2  0
 14 15  1  0
 15 16  2  0
 10 17  1  0
  2 18  1  0
 18 19  2  0
 19 20  1  0
 20 21  2  0
 21 22  1  0
 22 23  2  0
 23 24  1  0
 23 25  1  0
 25 26  2  0
 26 27  1  0
 27 28  2  0
 17  7  1  0
 28 18  1  0
 16 11  1  0
 27 21  1  0
  3 29  1  0
  4 30  1  0
  4 31  1  0
  8 32  1  0
  8 33  1  0
  9 34  1  0
  9 35  1  0
 10 36  1  6
 12 37  1  0
 13 38  1  0
 14 39  1  0
 16 40  1  0
 17 41  1  0
 17 42  1  0
 19 43  1  0
 20 44  1  0
 22 45  1  0
 25 46  1  0
 26 47  1  0
M  END
>  <smiles>  (35) 
O=C(NCC(=O)N1CC[C@H](c2cccnc2)C1)c1ccc2cc(F)ccc2n1

>  <score_type>  (35) 
oracle

>  <origin>  (35) 
autodockgpu

>  <m_score__min__energy>  (35) 
-8.6600000000000001

>  <m_primary>  (35) 
energy

>  <rmsd>  (35) 
2.58974514771855

>  <m_score__min__rmsd>  (35) 
2.58974514771855

>  <meeko>  (35) 
{"free_energy": -8.63, "intermolecular_energy": -10.12, "internal_energy": -1.11, "cluster_size": 39, "cluster_id": 1, "rank_in_cluster": 4}

>  <energy>  (35) 
-8.01

>  <cluster_rmsd>  (35) 
1.33

>  <cluster>  (35) 
1

$$$$

     RDKit          3D

 47 50  0  0  0  0  0  0  0  0999 V2000
  139.9310   73.7380  222.6550 O   0  0  0  0  0  0  0  0  0  0  0  0
  140.2190   72.5160  222.4520 C   0  0  0  0  0  0  0  0  0  0  0  0
  140.6220   72.0730  221.1690 N   0  0  0  0  0  0  0  0  0  0  0  0
  140.6950   73.0440  220.1020 C   0  0  0  0  0  0  0  0  0  0  0  0
  141.8220   73.9640  220.4080 C   0  0  0  0  0  0  0  0  0  0  0  0
  142.9470   73.5600  220.8050 O   0  0  0  0  0  0  0  0  0  0  0  0
  141.6450   75.3640  220.2540 N   0  0  0  0  0  0  0  0  0  0  0  0
  141.9760   76.1700  219.0910 C   0  0  0  0  0  0  0  0  0  0  0  0
  142.4950   77.4240  219.7750 C   0  0  0  0  0  0  0  0  0  0  0  0
  141.3500   77.6600  220.7650 C   0  0  2  0  0  0  0  0  0  0  0  0
  141.6660   78.6500  221.7900 C   0  0  0  0  0  0  0  0  0  0  0  0
  141.4580   78.3000  223.1210 C   0  0  0  0  0  0  0  0  0  0  0  0
  141.7290   79.1740  224.1490 C   0  0  0  0  0  0  0  0  0  0  0  0
  142.2180   80.4200  223.8490 C   0  0  0  0  0  0  0  0  0  0  0  0
  142.4190   80.7570  222.5640 N   0  0  0  0  0  0  0  0  0  0  0  0
  142.1510   79.8940  221.5410 C   0  0  0  0  0  0  0  0  0  0  0  0
  141.0820   76.2790  221.2610 C   0  0  0  0  0  0  0  0  0  0  0  0
  140.1320   71.5580  223.5640 C   0  0  0  0  0  0  0  0  0  0  0  0
  139.5730   70.3130  223.3500 C   0  0  0  0  0  0  0  0  0  0  0  0
  139.5210   69.4570  224.4370 C   0  0  0  0  0  0  0  0  0  0  0  0
  139.9950   69.8040  225.6750 C   0  0  0  0  0  0  0  0  0  0  0  0
  139.9550   68.9680  226.7730 C   0  0  0  0  0  0  0  0  0  0  0  0
  140.4580   69.4140  227.9750 C   0  0  0  0  0  0  0  0  0  0  0  0
  140.4390   68.6160  229.0940 F   0  0  0  0  0  0  0  0  0  0  0  0
  141.0080   70.6670  228.1410 C   0  0  0  0  0  0  0  0  0  0  0  0
  141.0490   71.5080  227.0400 C   0  0  0  0  0  0  0  0  0  0  0  0
  140.5440   71.0550  225.8410 C   0  0  0  0  0  0  0  0  0  0  0  0
  140.5950   71.8870  224.7870 N   0  0  0  0  0  0  0  0  0  0  0  0
  140.8480   71.0600  221.0570 H   0  0  0  0  0  0  0  0  0  0  0  0
  140.8757   72.5353  219.1436 H   0  0  0  0  0  0  0  0  0  0  0  0
  139.7508   73.6027  220.0227 H   0  0  0  0  0  0  0  0  0  0  0  0
  142.7499   75.6934  218.4714 H   0  0  0  0  0  0  0  0  0  0  0  0
  141.1436   76.3358  218.3912 H   0  0  0  0  0  0  0  0  0  0  0  0
  143.4517   77.2463  220.2880 H   0  0  0  0  0  0  0  0  0  0  0  0
  142.7169   78.2671  219.1042 H   0  0  0  0  0  0  0  0  0  0  0  0
  140.4542   78.1188  220.3212 H   0  0  0  0  0  0  0  0  0  0  0  0
  141.0670   77.2993  223.3573 H   0  0  0  0  0  0  0  0  0  0  0  0
  141.5563   78.8782  225.1943 H   0  0  0  0  0  0  0  0  0  0  0  0
  142.4434   81.1364  224.6527 H   0  0  0  0  0  0  0  0  0  0  0  0
  142.3299   80.2098  220.5026 H   0  0  0  0  0  0  0  0  0  0  0  0
  141.5702   76.1220  222.2341 H   0  0  0  0  0  0  0  0  0  0  0  0
  140.0049   76.1059  221.4021 H   0  0  0  0  0  0  0  0  0  0  0  0
  139.1877   70.0160  222.3634 H   0  0  0  0  0  0  0  0  0  0  0  0
  139.0814   68.4579  224.3013 H   0  0  0  0  0  0  0  0  0  0  0  0
  139.5267   67.9583  226.6888 H   0  0  0  0  0  0  0  0  0  0  0  0
  141.4018   70.9892  229.1162 H   0  0  0  0  0  0  0  0  0  0  0  0
  141.4767   72.5181  227.1220 H   0  0  0  0  0  0  0  0  0  0  0  0
  1  2  2  0
  2  3  1  0
  3  4  1  0
  4  5  1  0
  5  6  2  0
  5  7  1  0
  7  8  1  0
  8  9  1  0
  9 10  1  0
 10 11  1  0
 11 12  2  0
 12 13  1  0
 13 14  2  0
 14 15  1  0
 15 16  2  0
 10 17  1  0
  2 18  1  0
 18 19  2  0
 19 20  1  0
 20 21  2  0
 21 22  1  0
 22 23  2  0
 23 24  1  0
 23 25  1  0
 25 26  2  0
 26 27  1  0
 27 28  2  0
 17  7  1  0
 28 18  1  0
 16 11  1  0
 27 21  1  0
  3 29  1  0
  4 30  1  0
  4 31  1  0
  8 32  1  0
  8 33  1  0
  9 34  1  0
  9 35  1  0
 10 36  1  6
 12 37  1  0
 13 38  1  0
 14 39  1  0
 16 40  1  0
 17 41  1  0
 17 42  1  0
 19 43  1  0
 20 44  1  0
 22 45  1  0
 25 46  1  0
 26 47  1  0
M  END
>  <smiles>  (36) 
O=C(NCC(=O)N1CC[C@H](c2cccnc2)C1)c1ccc2cc(F)ccc2n1

>  <score_type>  (36) 
oracle

>  <origin>  (36) 
autodockgpu

>  <m_score__min__energy>  (36) 
-8.6600000000000001

>  <m_primary>  (36) 
energy

>  <rmsd>  (36) 
2.499075442593124

>  <m_score__min__rmsd>  (36) 
2.499075442593124

>  <meeko>  (36) 
{"free_energy": -8.59, "intermolecular_energy": -10.08, "internal_energy": -1.12, "cluster_size": 39, "cluster_id": 1, "rank_in_cluster": 7}

>  <energy>  (36) 
-7.98

>  <cluster_rmsd>  (36) 
1.25

>  <cluster>  (36) 
1

$$$$

     RDKit          3D

 47 50  0  0  0  0  0  0  0  0999 V2000
  140.6730   71.4660  221.6890 O   0  0  0  0  0  0  0  0  0  0  0  0
  139.8770   71.7060  222.6520 C   0  0  0  0  0  0  0  0  0  0  0  0
  139.0280   72.8390  222.6210 N   0  0  0  0  0  0  0  0  0  0  0  0
  139.0930   73.7100  221.4700 C   0  0  0  0  0  0  0  0  0  0  0  0
  140.3310   74.5220  221.5900 C   0  0  0  0  0  0  0  0  0  0  0  0
  141.4480   74.0270  221.8990 O   0  0  0  0  0  0  0  0  0  0  0  0
  140.2780   75.9210  221.3500 N   0  0  0  0  0  0  0  0  0  0  0  0
  140.2700   76.5930  220.0620 C   0  0  0  0  0  0  0  0  0  0  0  0
  141.1410   77.7950  220.3840 C   0  0  0  0  0  0  0  0  0  0  0  0
  140.4550   78.2620  221.6710 C   0  0  2  0  0  0  0  0  0  0  0  0
  141.2270   79.2570  222.4100 C   0  0  0  0  0  0  0  0  0  0  0  0
  140.5300   80.2710  223.0620 C   0  0  0  0  0  0  0  0  0  0  0  0
  141.1800   81.2490  223.7800 C   0  0  0  0  0  0  0  0  0  0  0  0
  142.5500   81.2190  223.8530 C   0  0  0  0  0  0  0  0  0  0  0  0
  143.2210   80.2400  223.2240 N   0  0  0  0  0  0  0  0  0  0  0  0
  142.5810   79.2680  222.5110 C   0  0  0  0  0  0  0  0  0  0  0  0
  140.2180   76.9720  222.3800 C   0  0  0  0  0  0  0  0  0  0  0  0
  139.8410   70.7950  223.8060 C   0  0  0  0  0  0  0  0  0  0  0  0
  139.2210   69.5670  223.6860 C   0  0  0  0  0  0  0  0  0  0  0  0
  139.2220   68.7550  224.8080 C   0  0  0  0  0  0  0  0  0  0  0  0
  139.8020   69.1300  225.9920 C   0  0  0  0  0  0  0  0  0  0  0  0
  139.8160   68.3390  227.1230 C   0  0  0  0  0  0  0  0  0  0  0  0
  140.4270   68.8090  228.2640 C   0  0  0  0  0  0  0  0  0  0  0  0
  140.4650   68.0560  229.4130 F   0  0  0  0  0  0  0  0  0  0  0  0
  141.0350   70.0440  228.3360 C   0  0  0  0  0  0  0  0  0  0  0  0
  141.0220   70.8410  227.2010 C   0  0  0  0  0  0  0  0  0  0  0  0
  140.4090   70.3640  226.0640 C   0  0  0  0  0  0  0  0  0  0  0  0
  140.4090   71.1510  224.9750 N   0  0  0  0  0  0  0  0  0  0  0  0
  138.3940   72.9890  223.4370 H   0  0  0  0  0  0  0  0  0  0  0  0
  139.1252   73.1111  220.5479 H   0  0  0  0  0  0  0  0  0  0  0  0
  138.2071   74.3606  221.4276 H   0  0  0  0  0  0  0  0  0  0  0  0
  140.7132   75.9678  219.2729 H   0  0  0  0  0  0  0  0  0  0  0  0
  139.2701   76.8370  219.6738 H   0  0  0  0  0  0  0  0  0  0  0  0
  142.1888   77.5086  220.5575 H   0  0  0  0  0  0  0  0  0  0  0  0
  141.2107   78.5511  219.5881 H   0  0  0  0  0  0  0  0  0  0  0  0
  139.5210   78.8203  221.5097 H   0  0  0  0  0  0  0  0  0  0  0  0
  139.4318   80.2909  223.0017 H   0  0  0  0  0  0  0  0  0  0  0  0
  140.6105   82.0418  224.2871 H   0  0  0  0  0  0  0  0  0  0  0  0
  143.0931   81.9888  224.4208 H   0  0  0  0  0  0  0  0  0  0  0  0
  143.1693   78.4839  222.0120 H   0  0  0  0  0  0  0  0  0  0  0  0
  140.9956   76.8060  223.1401 H   0  0  0  0  0  0  0  0  0  0  0  0
  139.2476   76.9712  222.8979 H   0  0  0  0  0  0  0  0  0  0  0  0
  138.7490   69.2490  222.7447 H   0  0  0  0  0  0  0  0  0  0  0  0
  138.7377   67.7692  224.7465 H   0  0  0  0  0  0  0  0  0  0  0  0
  139.3447   67.3451  227.1130 H   0  0  0  0  0  0  0  0  0  0  0  0
  141.5154   70.3866  229.2644 H   0  0  0  0  0  0  0  0  0  0  0  0
  141.4925   71.8353  227.2090 H   0  0  0  0  0  0  0  0  0  0  0  0
  1  2  2  0
  2  3  1  0
  3  4  1  0
  4  5  1  0
  5  6  2  0
  5  7  1  0
  7  8  1  0
  8  9  1  0
  9 10  1  0
 10 11  1  0
 11 12  2  0
 12 13  1  0
 13 14  2  0
 14 15  1  0
 15 16  2  0
 10 17  1  0
  2 18  1  0
 18 19  2  0
 19 20  1  0
 20 21  2  0
 21 22  1  0
 22 23  2  0
 23 24  1  0
 23 25  1  0
 25 26  2  0
 26 27  1  0
 27 28  2  0
 17  7  1  0
 28 18  1  0
 16 11  1  0
 27 21  1  0
  3 29  1  0
  4 30  1  0
  4 31  1  0
  8 32  1  0
  8 33  1  0
  9 34  1  0
  9 35  1  0
 10 36  1  6
 12 37  1  0
 13 38  1  0
 14 39  1  0
 16 40  1  0
 17 41  1  0
 17 42  1  0
 19 43  1  0
 20 44  1  0
 22 45  1  0
 25 46  1  0
 26 47  1  0
M  END
>  <smiles>  (37) 
O=C(NCC(=O)N1CC[C@H](c2cccnc2)C1)c1ccc2cc(F)ccc2n1

>  <score_type>  (37) 
oracle

>  <origin>  (37) 
autodockgpu

>  <m_score__min__energy>  (37) 
-8.6600000000000001

>  <m_primary>  (37) 
energy

>  <rmsd>  (37) 
2.4199535811813044

>  <m_score__min__rmsd>  (37) 
2.4199535811813044

>  <meeko>  (37) 
{"free_energy": -8.64, "intermolecular_energy": -10.13, "internal_energy": -0.93, "cluster_size": 39, "cluster_id": 1, "rank_in_cluster": 2}

>  <energy>  (37) 
-7.97

>  <cluster_rmsd>  (37) 
1.78

>  <cluster>  (37) 
1

$$$$

     RDKit          3D

 47 50  0  0  0  0  0  0  0  0999 V2000
  138.7790   70.9530  221.5460 O   0  0  0  0  0  0  0  0  0  0  0  0
  139.2310   71.4290  222.6350 C   0  0  0  0  0  0  0  0  0  0  0  0
  139.5490   72.8050  222.7440 N   0  0  0  0  0  0  0  0  0  0  0  0
  139.3460   73.6470  221.5880 C   0  0  0  0  0  0  0  0  0  0  0  0
  140.6780   74.1420  221.1520 C   0  0  0  0  0  0  0  0  0  0  0  0
  141.6810   73.3890  221.0300 O   0  0  0  0  0  0  0  0  0  0  0  0
  140.8510   75.5200  220.8550 N   0  0  0  0  0  0  0  0  0  0  0  0
  141.4600   76.0940  219.6690 C   0  0  0  0  0  0  0  0  0  0  0  0
  142.2010   77.2660  220.2900 C   0  0  0  0  0  0  0  0  0  0  0  0
  141.0650   77.8640  221.1250 C   0  0  2  0  0  0  0  0  0  0  0  0
  141.5190   78.8650  222.0860 C   0  0  0  0  0  0  0  0  0  0  0  0
  141.7300   80.1620  221.6260 C   0  0  0  0  0  0  0  0  0  0  0  0
  142.1590   81.1660  222.4650 C   0  0  0  0  0  0  0  0  0  0  0  0
  142.3810   80.8760  223.7870 C   0  0  0  0  0  0  0  0  0  0  0  0
  142.1760   79.6240  224.2300 N   0  0  0  0  0  0  0  0  0  0  0  0
  141.7520   78.6260  223.4020 C   0  0  0  0  0  0  0  0  0  0  0  0
  140.4370   76.6450  221.7110 C   0  0  0  0  0  0  0  0  0  0  0  0
  139.4240   70.5390  223.7890 C   0  0  0  0  0  0  0  0  0  0  0  0
  139.0090   69.2240  223.7130 C   0  0  0  0  0  0  0  0  0  0  0  0
  139.2190   68.4370  224.8340 C   0  0  0  0  0  0  0  0  0  0  0  0
  139.8070   68.9170  225.9740 C   0  0  0  0  0  0  0  0  0  0  0  0
  140.0280   68.1530  227.1030 C   0  0  0  0  0  0  0  0  0  0  0  0
  140.6270   68.7320  228.1990 C   0  0  0  0  0  0  0  0  0  0  0  0
  140.8650   68.0090  229.3440 F   0  0  0  0  0  0  0  0  0  0  0  0
  141.0250   70.0510  228.2280 C   0  0  0  0  0  0  0  0  0  0  0  0
  140.8050   70.8210  227.0970 C   0  0  0  0  0  0  0  0  0  0  0  0
  140.2050   70.2350  226.0040 C   0  0  0  0  0  0  0  0  0  0  0  0
  140.0020   70.9980  224.9170 N   0  0  0  0  0  0  0  0  0  0  0  0
  139.9170   73.1440  223.6600 H   0  0  0  0  0  0  0  0  0  0  0  0
  138.8784   73.0667  220.7789 H   0  0  0  0  0  0  0  0  0  0  0  0
  138.6833   74.4894  221.8356 H   0  0  0  0  0  0  0  0  0  0  0  0
  142.1488   75.3880  219.1820 H   0  0  0  0  0  0  0  0  0  0  0  0
  140.7527   76.3648  218.8713 H   0  0  0  0  0  0  0  0  0  0  0  0
  143.0418   76.9349  220.9172 H   0  0  0  0  0  0  0  0  0  0  0  0
  142.6718   77.9563  219.5746 H   0  0  0  0  0  0  0  0  0  0  0  0
  140.3437   78.4605  220.5472 H   0  0  0  0  0  0  0  0  0  0  0  0
  141.5494   80.3905  220.5653 H   0  0  0  0  0  0  0  0  0  0  0  0
  142.3210   82.1841  222.0812 H   0  0  0  0  0  0  0  0  0  0  0  0
  142.7235   81.6605  224.4778 H   0  0  0  0  0  0  0  0  0  0  0  0
  141.5969   77.6146  223.8059 H   0  0  0  0  0  0  0  0  0  0  0  0
  140.7907   76.4911  222.7412 H   0  0  0  0  0  0  0  0  0  0  0  0
  139.3416   76.7373  221.7512 H   0  0  0  0  0  0  0  0  0  0  0  0
  138.5346   68.8207  222.8062 H   0  0  0  0  0  0  0  0  0  0  0  0
  138.9006   67.3844  224.8072 H   0  0  0  0  0  0  0  0  0  0  0  0
  139.7290   67.0947  227.1263 H   0  0  0  0  0  0  0  0  0  0  0  0
  141.5026   70.4795  229.1214 H   0  0  0  0  0  0  0  0  0  0  0  0
  141.1036   71.8794  227.0724 H   0  0  0  0  0  0  0  0  0  0  0  0
  1  2  2  0
  2  3  1  0
  3  4  1  0
  4  5  1  0
  5  6  2  0
  5  7  1  0
  7  8  1  0
  8  9  1  0
  9 10  1  0
 10 11  1  0
 11 12  2  0
 12 13  1  0
 13 14  2  0
 14 15  1  0
 15 16  2  0
 10 17  1  0
  2 18  1  0
 18 19  2  0
 19 20  1  0
 20 21  2  0
 21 22  1  0
 22 23  2  0
 23 24  1  0
 23 25  1  0
 25 26  2  0
 26 27  1  0
 27 28  2  0
 17  7  1  0
 28 18  1  0
 16 11  1  0
 27 21  1  0
  3 29  1  0
  4 30  1  0
  4 31  1  0
  8 32  1  0
  8 33  1  0
  9 34  1  0
  9 35  1  0
 10 36  1  6
 12 37  1  0
 13 38  1  0
 14 39  1  0
 16 40  1  0
 17 41  1  0
 17 42  1  0
 19 43  1  0
 20 44  1  0
 22 45  1  0
 25 46  1  0
 26 47  1  0
M  END
>  <smiles>  (38) 
O=C(NCC(=O)N1CC[C@H](c2cccnc2)C1)c1ccc2cc(F)ccc2n1

>  <score_type>  (38) 
oracle

>  <origin>  (38) 
autodockgpu

>  <m_score__min__energy>  (38) 
-8.6600000000000001

>  <m_primary>  (38) 
energy

>  <rmsd>  (38) 
2.2240711369073676

>  <m_score__min__rmsd>  (38) 
2.2240711369073676

>  <meeko>  (38) 
{"free_energy": -8.28, "intermolecular_energy": -9.77, "internal_energy": -1.26, "cluster_size": 39, "cluster_id": 1, "rank_in_cluster": 21}

>  <energy>  (38) 
-7.88

>  <cluster_rmsd>  (38) 
1.73

>  <cluster>  (38) 
1

$$$$

     RDKit          3D

 47 50  0  0  0  0  0  0  0  0999 V2000
  140.3960   72.0270  221.4780 O   0  0  0  0  0  0  0  0  0  0  0  0
  139.5240   72.0720  222.4020 C   0  0  0  0  0  0  0  0  0  0  0  0
  138.4650   73.0110  222.3500 N   0  0  0  0  0  0  0  0  0  0  0  0
  138.4060   73.9120  221.2230 C   0  0  0  0  0  0  0  0  0  0  0  0
  139.4830   74.9210  221.3960 C   0  0  0  0  0  0  0  0  0  0  0  0
  139.5060   75.7410  222.3530 O   0  0  0  0  0  0  0  0  0  0  0  0
  140.5440   74.9820  220.4550 N   0  0  0  0  0  0  0  0  0  0  0  0
  140.4380   74.9540  219.0060 C   0  0  0  0  0  0  0  0  0  0  0  0
  141.6520   74.1070  218.6650 C   0  0  0  0  0  0  0  0  0  0  0  0
  142.7080   74.8400  219.4980 C   0  0  2  0  0  0  0  0  0  0  0  0
  143.9630   74.1030  219.6190 C   0  0  0  0  0  0  0  0  0  0  0  0
  144.4310   73.8170  220.8990 C   0  0  0  0  0  0  0  0  0  0  0  0
  145.6050   73.1280  221.1020 C   0  0  0  0  0  0  0  0  0  0  0  0
  146.3280   72.7130  220.0130 C   0  0  0  0  0  0  0  0  0  0  0  0
  145.8750   72.9890  218.7780 N   0  0  0  0  0  0  0  0  0  0  0  0
  144.7120   73.6720  218.5710 C   0  0  0  0  0  0  0  0  0  0  0  0
  141.9780   75.0850  220.7750 C   0  0  0  0  0  0  0  0  0  0  0  0
  139.6190   71.1370  223.5330 C   0  0  0  0  0  0  0  0  0  0  0  0
  139.1420   69.8490  223.3950 C   0  0  0  0  0  0  0  0  0  0  0  0
  139.2610   69.0170  224.4960 C   0  0  0  0  0  0  0  0  0  0  0  0
  139.8210   69.4290  225.6770 C   0  0  0  0  0  0  0  0  0  0  0  0
  139.9510   68.6200  226.7870 C   0  0  0  0  0  0  0  0  0  0  0  0
  140.5290   69.1320  227.9280 C   0  0  0  0  0  0  0  0  0  0  0  0
  140.6780   68.3620  229.0560 F   0  0  0  0  0  0  0  0  0  0  0  0
  140.9920   70.4270  228.0180 C   0  0  0  0  0  0  0  0  0  0  0  0
  140.8620   71.2420  226.9050 C   0  0  0  0  0  0  0  0  0  0  0  0
  140.2830   70.7230  225.7680 C   0  0  0  0  0  0  0  0  0  0  0  0
  140.1680   71.5300  224.7000 N   0  0  0  0  0  0  0  0  0  0  0  0
  137.7760   73.0050  223.1340 H   0  0  0  0  0  0  0  0  0  0  0  0
  138.5620   73.3537  220.2882 H   0  0  0  0  0  0  0  0  0  0  0  0
  137.4226   74.4023  221.1721 H   0  0  0  0  0  0  0  0  0  0  0  0
  139.5031   74.4783  218.6748 H   0  0  0  0  0  0  0  0  0  0  0  0
  140.4154   75.9432  218.5254 H   0  0  0  0  0  0  0  0  0  0  0  0
  141.5276   73.0623  218.9860 H   0  0  0  0  0  0  0  0  0  0  0  0
  141.8775   74.0196  217.5919 H   0  0  0  0  0  0  0  0  0  0  0  0
  143.0727   75.7745  219.0468 H   0  0  0  0  0  0  0  0  0  0  0  0
  143.8476   74.1502  221.7700 H   0  0  0  0  0  0  0  0  0  0  0  0
  145.9578   72.9136  222.1216 H   0  0  0  0  0  0  0  0  0  0  0  0
  147.2691   72.1599  220.1489 H   0  0  0  0  0  0  0  0  0  0  0  0
  144.3771   73.8760  217.5433 H   0  0  0  0  0  0  0  0  0  0  0  0
  142.2566   74.3296  221.5245 H   0  0  0  0  0  0  0  0  0  0  0  0
  142.2251   76.0712  221.1950 H   0  0  0  0  0  0  0  0  0  0  0  0
  138.6889   69.5000  222.4554 H   0  0  0  0  0  0  0  0  0  0  0  0
  138.8911   67.9839  224.4193 H   0  0  0  0  0  0  0  0  0  0  0  0
  139.5974   67.5787  226.7613 H   0  0  0  0  0  0  0  0  0  0  0  0
  141.4506   70.8020  228.9449 H   0  0  0  0  0  0  0  0  0  0  0  0
  141.2145   72.2837  226.9289 H   0  0  0  0  0  0  0  0  0  0  0  0
  1  2  2  0
  2  3  1  0
  3  4  1  0
  4  5  1  0
  5  6  2  0
  5  7  1  0
  7  8  1  0
  8  9  1  0
  9 10  1  0
 10 11  1  0
 11 12  2  0
 12 13  1  0
 13 14  2  0
 14 15  1  0
 15 16  2  0
 10 17  1  0
  2 18  1  0
 18 19  2  0
 19 20  1  0
 20 21  2  0
 21 22  1  0
 22 23  2  0
 23 24  1  0
 23 25  1  0
 25 26  2  0
 26 27  1  0
 27 28  2  0
 17  7  1  0
 28 18  1  0
 16 11  1  0
 27 21  1  0
  3 29  1  0
  4 30  1  0
  4 31  1  0
  8 32  1  0
  8 33  1  0
  9 34  1  0
  9 35  1  0
 10 36  1  6
 12 37  1  0
 13 38  1  0
 14 39  1  0
 16 40  1  0
 17 41  1  0
 17 42  1  0
 19 43  1  0
 20 44  1  0
 22 45  1  0
 25 46  1  0
 26 47  1  0
M  END
>  <smiles>  (39) 
O=C(NCC(=O)N1CC[C@H](c2cccnc2)C1)c1ccc2cc(F)ccc2n1

>  <score_type>  (39) 
oracle

>  <origin>  (39) 
autodockgpu

>  <m_score__min__energy>  (39) 
-8.6600000000000001

>  <m_primary>  (39) 
energy

>  <rmsd>  (39) 
2.105687150778456

>  <m_score__min__rmsd>  (39) 
2.105687150778456

>  <meeko>  (39) 
{"free_energy": -8.24, "intermolecular_energy": -9.73, "internal_energy": -1.3, "cluster_size": 9, "cluster_id": 2, "rank_in_cluster": 4}

>  <energy>  (39) 
-7.85

>  <cluster_rmsd>  (39) 
1.39

>  <cluster>  (39) 
1

$$$$

     RDKit          3D

 47 50  0  0  0  0  0  0  0  0999 V2000
  141.4190   71.9790  221.7150 O   0  0  0  0  0  0  0  0  0  0  0  0
  140.4700   72.1930  222.5340 C   0  0  0  0  0  0  0  0  0  0  0  0
  139.6180   73.3130  222.3750 N   0  0  0  0  0  0  0  0  0  0  0  0
  139.8580   74.2010  221.2610 C   0  0  0  0  0  0  0  0  0  0  0  0
  139.2430   75.5130  221.5910 C   0  0  0  0  0  0  0  0  0  0  0  0
  138.1480   75.6210  222.2040 O   0  0  0  0  0  0  0  0  0  0  0  0
  139.9010   76.7120  221.2060 N   0  0  0  0  0  0  0  0  0  0  0  0
  140.8570   76.8830  220.1270 C   0  0  0  0  0  0  0  0  0  0  0  0
  141.8190   77.8630  220.7760 C   0  0  0  0  0  0  0  0  0  0  0  0
  140.8120   78.8980  221.2880 C   0  0  2  0  0  0  0  0  0  0  0  0
  141.3930   79.8570  222.2230 C   0  0  0  0  0  0  0  0  0  0  0  0
  142.1560   79.3610  223.2770 C   0  0  0  0  0  0  0  0  0  0  0  0
  142.7380   80.1960  224.2030 C   0  0  0  0  0  0  0  0  0  0  0  0
  142.5600   81.5510  224.0800 C   0  0  0  0  0  0  0  0  0  0  0  0
  141.8250   82.0280  223.0620 N   0  0  0  0  0  0  0  0  0  0  0  0
  141.2450   81.2050  222.1410 C   0  0  0  0  0  0  0  0  0  0  0  0
  139.7330   78.0300  221.8410 C   0  0  0  0  0  0  0  0  0  0  0  0
  140.2580   71.2650  223.6550 C   0  0  0  0  0  0  0  0  0  0  0  0
  139.5960   70.0730  223.4370 C   0  0  0  0  0  0  0  0  0  0  0  0
  139.4280   69.2430  224.5330 C   0  0  0  0  0  0  0  0  0  0  0  0
  139.8880   69.5660  225.7830 C   0  0  0  0  0  0  0  0  0  0  0  0
  139.7340   68.7560  226.8900 C   0  0  0  0  0  0  0  0  0  0  0  0
  140.2320   69.1740  228.1030 C   0  0  0  0  0  0  0  0  0  0  0  0
  140.1010   68.4000  229.2310 F   0  0  0  0  0  0  0  0  0  0  0  0
  140.8870   70.3750  228.2720 C   0  0  0  0  0  0  0  0  0  0  0  0
  141.0440   71.1910  227.1620 C   0  0  0  0  0  0  0  0  0  0  0  0
  140.5420   70.7660  225.9520 C   0  0  0  0  0  0  0  0  0  0  0  0
  140.7050   71.5710  224.8890 N   0  0  0  0  0  0  0  0  0  0  0  0
  138.8540   73.4420  223.0740 H   0  0  0  0  0  0  0  0  0  0  0  0
  140.9400   74.3227  221.1048 H   0  0  0  0  0  0  0  0  0  0  0  0
  139.4207   73.7906  220.3389 H   0  0  0  0  0  0  0  0  0  0  0  0
  141.3529   75.9360  219.8676 H   0  0  0  0  0  0  0  0  0  0  0  0
  140.4235   77.2227  219.1748 H   0  0  0  0  0  0  0  0  0  0  0  0
  142.3858   77.3998  221.5971 H   0  0  0  0  0  0  0  0  0  0  0  0
  142.6039   78.2585  220.1146 H   0  0  0  0  0  0  0  0  0  0  0  0
  140.4336   79.5835  220.5154 H   0  0  0  0  0  0  0  0  0  0  0  0
  142.2970   78.2742  223.3717 H   0  0  0  0  0  0  0  0  0  0  0  0
  143.3365   79.7838  225.0288 H   0  0  0  0  0  0  0  0  0  0  0  0
  143.0145   82.2395  224.8076 H   0  0  0  0  0  0  0  0  0  0  0  0
  140.6508   81.6379  221.3228 H   0  0  0  0  0  0  0  0  0  0  0  0
  139.8353   77.9432  222.9328 H   0  0  0  0  0  0  0  0  0  0  0  0
  138.7368   78.4494  221.6371 H   0  0  0  0  0  0  0  0  0  0  0  0
  139.2202   69.7960  222.4410 H   0  0  0  0  0  0  0  0  0  0  0  0
  138.9041   68.2857  224.3946 H   0  0  0  0  0  0  0  0  0  0  0  0
  139.2192   67.7877  226.8037 H   0  0  0  0  0  0  0  0  0  0  0  0
  141.2731   70.6767  229.2568 H   0  0  0  0  0  0  0  0  0  0  0  0
  141.5595   72.1591  227.2462 H   0  0  0  0  0  0  0  0  0  0  0  0
  1  2  2  0
  2  3  1  0
  3  4  1  0
  4  5  1  0
  5  6  2  0
  5  7  1  0
  7  8  1  0
  8  9  1  0
  9 10  1  0
 10 11  1  0
 11 12  2  0
 12 13  1  0
 13 14  2  0
 14 15  1  0
 15 16  2  0
 10 17  1  0
  2 18  1  0
 18 19  2  0
 19 20  1  0
 20 21  2  0
 21 22  1  0
 22 23  2  0
 23 24  1  0
 23 25  1  0
 25 26  2  0
 26 27  1  0
 27 28  2  0
 17  7  1  0
 28 18  1  0
 16 11  1  0
 27 21  1  0
  3 29  1  0
  4 30  1  0
  4 31  1  0
  8 32  1  0
  8 33  1  0
  9 34  1  0
  9 35  1  0
 10 36  1  6
 12 37  1  0
 13 38  1  0
 14 39  1  0
 16 40  1  0
 17 41  1  0
 17 42  1  0
 19 43  1  0
 20 44  1  0
 22 45  1  0
 25 46  1  0
 26 47  1  0
M  END
>  <smiles>  (40) 
O=C(NCC(=O)N1CC[C@H](c2cccnc2)C1)c1ccc2cc(F)ccc2n1

>  <score_type>  (40) 
oracle

>  <origin>  (40) 
autodockgpu

>  <m_score__min__energy>  (40) 
-8.6600000000000001

>  <m_primary>  (40) 
energy

>  <rmsd>  (40) 
2.637941467445597

>  <m_score__min__rmsd>  (40) 
2.637941467445597

>  <meeko>  (40) 
{"free_energy": -8.47, "intermolecular_energy": -9.96, "internal_energy": -1.25, "cluster_size": 39, "cluster_id": 1, "rank_in_cluster": 13}

>  <energy>  (40) 
-8.3

>  <cluster_rmsd>  (40) 
0.0

>  <cluster>  (40) 
2

$$$$

     RDKit          3D

 47 50  0  0  0  0  0  0  0  0999 V2000
  139.7980   71.7380  221.5270 O   0  0  0  0  0  0  0  0  0  0  0  0
  139.0380   71.7540  222.5470 C   0  0  0  0  0  0  0  0  0  0  0  0
  137.9430   72.6500  222.6180 N   0  0  0  0  0  0  0  0  0  0  0  0
  137.7180   73.5420  221.5040 C   0  0  0  0  0  0  0  0  0  0  0  0
  137.9190   74.9310  221.9920 C   0  0  0  0  0  0  0  0  0  0  0  0
  137.1170   75.5040  222.7770 O   0  0  0  0  0  0  0  0  0  0  0  0
  139.0590   75.6650  221.5670 N   0  0  0  0  0  0  0  0  0  0  0  0
  140.2430   75.1450  220.9060 C   0  0  0  0  0  0  0  0  0  0  0  0
  141.3130   75.9920  221.5720 C   0  0  0  0  0  0  0  0  0  0  0  0
  140.6860   77.3770  221.3860 C   0  0  2  0  0  0  0  0  0  0  0  0
  141.3390   78.4190  222.1740 C   0  0  0  0  0  0  0  0  0  0  0  0
  141.8350   79.5320  221.5010 C   0  0  0  0  0  0  0  0  0  0  0  0
  142.4650   80.5580  222.1680 C   0  0  0  0  0  0  0  0  0  0  0  0
  142.6040   80.4780  223.5300 C   0  0  0  0  0  0  0  0  0  0  0  0
  142.1250   79.4040  224.1780 N   0  0  0  0  0  0  0  0  0  0  0  0
  141.5000   78.3830  223.5230 C   0  0  0  0  0  0  0  0  0  0  0  0
  139.2570   77.1160  221.7200 C   0  0  0  0  0  0  0  0  0  0  0  0
  139.3010   70.8300  223.6600 C   0  0  0  0  0  0  0  0  0  0  0  0
  138.9240   69.5050  223.5500 C   0  0  0  0  0  0  0  0  0  0  0  0
  139.2000   68.6860  224.6330 C   0  0  0  0  0  0  0  0  0  0  0  0
  139.8160   69.1440  225.7680 C   0  0  0  0  0  0  0  0  0  0  0  0
  140.1020   68.3470  226.8590 C   0  0  0  0  0  0  0  0  0  0  0  0
  140.7240   68.9060  227.9530 C   0  0  0  0  0  0  0  0  0  0  0  0
  141.0270   68.1510  229.0610 F   0  0  0  0  0  0  0  0  0  0  0  0
  141.0820   70.2350  228.0170 C   0  0  0  0  0  0  0  0  0  0  0  0
  140.7960   71.0370  226.9230 C   0  0  0  0  0  0  0  0  0  0  0  0
  140.1740   70.4720  225.8320 C   0  0  0  0  0  0  0  0  0  0  0  0
  139.9060   71.2670  224.7820 N   0  0  0  0  0  0  0  0  0  0  0  0
  137.3510   72.6210  223.4760 H   0  0  0  0  0  0  0  0  0  0  0  0
  138.4319   73.3212  220.6967 H   0  0  0  0  0  0  0  0  0  0  0  0
  136.6996   73.4156  221.1079 H   0  0  0  0  0  0  0  0  0  0  0  0
  140.3860   74.0734  221.1091 H   0  0  0  0  0  0  0  0  0  0  0  0
  140.2232   75.2044  219.8078 H   0  0  0  0  0  0  0  0  0  0  0  0
  141.4370   75.7364  222.6347 H   0  0  0  0  0  0  0  0  0  0  0  0
  142.3267   75.8764  221.1609 H   0  0  0  0  0  0  0  0  0  0  0  0
  140.8028   77.7949  220.3752 H   0  0  0  0  0  0  0  0  0  0  0  0
  141.7206   79.5931  220.4087 H   0  0  0  0  0  0  0  0  0  0  0  0
  142.8509   81.4285  221.6172 H   0  0  0  0  0  0  0  0  0  0  0  0
  143.1029   81.2855  224.0859 H   0  0  0  0  0  0  0  0  0  0  0  0
  141.1224   77.5214  224.0931 H   0  0  0  0  0  0  0  0  0  0  0  0
  139.0448   77.4230  222.7548 H   0  0  0  0  0  0  0  0  0  0  0  0
  138.5813   77.6846  221.0642 H   0  0  0  0  0  0  0  0  0  0  0  0
  138.4289   69.1193  222.6466 H   0  0  0  0  0  0  0  0  0  0  0  0
  138.9130   67.6254  224.5794 H   0  0  0  0  0  0  0  0  0  0  0  0
  139.8364   67.2796  226.8541 H   0  0  0  0  0  0  0  0  0  0  0  0
  141.5790   70.6466  228.9079 H   0  0  0  0  0  0  0  0  0  0  0  0
  141.0609   72.1046  226.9263 H   0  0  0  0  0  0  0  0  0  0  0  0
  1  2  2  0
  2  3  1  0
  3  4  1  0
  4  5  1  0
  5  6  2  0
  5  7  1  0
  7  8  1  0
  8  9  1  0
  9 10  1  0
 10 11  1  0
 11 12  2  0
 12 13  1  0
 13 14  2  0
 14 15  1  0
 15 16  2  0
 10 17  1  0
  2 18  1  0
 18 19  2  0
 19 20  1  0
 20 21  2  0
 21 22  1  0
 22 23  2  0
 23 24  1  0
 23 25  1  0
 25 26  2  0
 26 27  1  0
 27 28  2  0
 17  7  1  0
 28 18  1  0
 16 11  1  0
 27 21  1  0
  3 29  1  0
  4 30  1  0
  4 31  1  0
  8 32  1  0
  8 33  1  0
  9 34  1  0
  9 35  1  0
 10 36  1  6
 12 37  1  0
 13 38  1  0
 14 39  1  0
 16 40  1  0
 17 41  1  0
 17 42  1  0
 19 43  1  0
 20 44  1  0
 22 45  1  0
 25 46  1  0
 26 47  1  0
M  END
>  <smiles>  (41) 
O=C(NCC(=O)N1CC[C@H](c2cccnc2)C1)c1ccc2cc(F)ccc2n1

>  <score_type>  (41) 
oracle

>  <origin>  (41) 
autodockgpu

>  <m_score__min__energy>  (41) 
-8.6600000000000001

>  <m_primary>  (41) 
energy

>  <rmsd>  (41) 
2.4271338305359733

>  <m_score__min__rmsd>  (41) 
2.4271338305359733

>  <meeko>  (41) 
{"free_energy": -8.18, "intermolecular_energy": -9.67, "internal_energy": -1.15, "cluster_size": 39, "cluster_id": 1, "rank_in_cluster": 29}

>  <energy>  (41) 
-8.28

>  <cluster_rmsd>  (41) 
0.32

>  <cluster>  (41) 
2

$$$$

     RDKit          3D

 47 50  0  0  0  0  0  0  0  0999 V2000
  137.9280   71.9200  223.0700 O   0  0  0  0  0  0  0  0  0  0  0  0
  139.1460   71.6460  223.3090 C   0  0  0  0  0  0  0  0  0  0  0  0
  140.1860   72.3150  222.6170 N   0  0  0  0  0  0  0  0  0  0  0  0
  139.8220   73.3120  221.6360 C   0  0  0  0  0  0  0  0  0  0  0  0
  141.0460   74.0900  221.3120 C   0  0  0  0  0  0  0  0  0  0  0  0
  142.1950   73.5760  221.2770 O   0  0  0  0  0  0  0  0  0  0  0  0
  140.9380   75.4770  221.0240 N   0  0  0  0  0  0  0  0  0  0  0  0
  141.2680   76.1450  219.7780 C   0  0  0  0  0  0  0  0  0  0  0  0
  141.8790   77.4280  220.3160 C   0  0  0  0  0  0  0  0  0  0  0  0
  140.7860   77.8240  221.3140 C   0  0  2  0  0  0  0  0  0  0  0  0
  141.1940   78.8900  222.2250 C   0  0  0  0  0  0  0  0  0  0  0  0
  142.5490   79.1980  222.3030 C   0  0  0  0  0  0  0  0  0  0  0  0
  143.0180   80.1880  223.1360 C   0  0  0  0  0  0  0  0  0  0  0  0
  142.1230   80.8860  223.9070 C   0  0  0  0  0  0  0  0  0  0  0  0
  140.8160   80.5880  223.8300 N   0  0  0  0  0  0  0  0  0  0  0  0
  140.3450   79.6080  223.0060 C   0  0  0  0  0  0  0  0  0  0  0  0
  140.4640   76.5160  221.9540 C   0  0  0  0  0  0  0  0  0  0  0  0
  139.4750   70.6250  224.3140 C   0  0  0  0  0  0  0  0  0  0  0  0
  139.1500   69.3040  224.0770 C   0  0  0  0  0  0  0  0  0  0  0  0
  139.4860   68.3910  225.0630 C   0  0  0  0  0  0  0  0  0  0  0  0
  140.1110   68.7560  226.2260 C   0  0  0  0  0  0  0  0  0  0  0  0
  140.4570   67.8660  227.2230 C   0  0  0  0  0  0  0  0  0  0  0  0
  141.0830   68.3360  228.3560 C   0  0  0  0  0  0  0  0  0  0  0  0
  141.4450   67.4850  229.3730 F   0  0  0  0  0  0  0  0  0  0  0  0
  141.3890   69.6660  228.5480 C   0  0  0  0  0  0  0  0  0  0  0  0
  141.0430   70.5620  227.5490 C   0  0  0  0  0  0  0  0  0  0  0  0
  140.4160   70.0850  226.4190 C   0  0  0  0  0  0  0  0  0  0  0  0
  140.0900   70.9710  225.4630 N   0  0  0  0  0  0  0  0  0  0  0  0
  141.1680   72.0520  222.8510 H   0  0  0  0  0  0  0  0  0  0  0  0
  139.4371   72.8230  220.7290 H   0  0  0  0  0  0  0  0  0  0  0  0
  139.0363   73.9734  222.0300 H   0  0  0  0  0  0  0  0  0  0  0  0
  141.9914   75.5666  219.1845 H   0  0  0  0  0  0  0  0  0  0  0  0
  140.4199   76.2892  219.0925 H   0  0  0  0  0  0  0  0  0  0  0  0
  142.8435   77.2471  220.8130 H   0  0  0  0  0  0  0  0  0  0  0  0
  142.1205   78.1874  219.5578 H   0  0  0  0  0  0  0  0  0  0  0  0
  139.8995   78.2868  220.8558 H   0  0  0  0  0  0  0  0  0  0  0  0
  143.2631   78.6359  221.6832 H   0  0  0  0  0  0  0  0  0  0  0  0
  144.0931   80.4161  223.1830 H   0  0  0  0  0  0  0  0  0  0  0  0
  142.4726   81.6816  224.5813 H   0  0  0  0  0  0  0  0  0  0  0  0
  139.2660   79.3968  222.9735 H   0  0  0  0  0  0  0  0  0  0  0  0
  140.9807   76.4270  222.9210 H   0  0  0  0  0  0  0  0  0  0  0  0
  139.3857   76.4190  222.1483 H   0  0  0  0  0  0  0  0  0  0  0  0
  138.6481   68.9916  223.1493 H   0  0  0  0  0  0  0  0  0  0  0  0
  139.2411   67.3302  224.9058 H   0  0  0  0  0  0  0  0  0  0  0  0
  140.2353   66.7941  227.1137 H   0  0  0  0  0  0  0  0  0  0  0  0
  141.8921   70.0057  229.4654 H   0  0  0  0  0  0  0  0  0  0  0  0
  141.2649   71.6340  227.6564 H   0  0  0  0  0  0  0  0  0  0  0  0
  1  2  2  0
  2  3  1  0
  3  4  1  0
  4  5  1  0
  5  6  2  0
  5  7  1  0
  7  8  1  0
  8  9  1  0
  9 10  1  0
 10 11  1  0
 11 12  2  0
 12 13  1  0
 13 14  2  0
 14 15  1  0
 15 16  2  0
 10 17  1  0
  2 18  1  0
 18 19  2  0
 19 20  1  0
 20 21  2  0
 21 22  1  0
 22 23  2  0
 23 24  1  0
 23 25  1  0
 25 26  2  0
 26 27  1  0
 27 28  2  0
 17  7  1  0
 28 18  1  0
 16 11  1  0
 27 21  1  0
  3 29  1  0
  4 30  1  0
  4 31  1  0
  8 32  1  0
  8 33  1  0
  9 34  1  0
  9 35  1  0
 10 36  1  6
 12 37  1  0
 13 38  1  0
 14 39  1  0
 16 40  1  0
 17 41  1  0
 17 42  1  0
 19 43  1  0
 20 44  1  0
 22 45  1  0
 25 46  1  0
 26 47  1  0
M  END
>  <smiles>  (42) 
O=C(NCC(=O)N1CC[C@H](c2cccnc2)C1)c1ccc2cc(F)ccc2n1

>  <score_type>  (42) 
oracle

>  <origin>  (42) 
autodockgpu

>  <m_score__min__energy>  (42) 
-8.6600000000000001

>  <m_primary>  (42) 
energy

>  <rmsd>  (42) 
2.4521249863863503

>  <m_score__min__rmsd>  (42) 
2.4521249863863503

>  <meeko>  (42) 
{"free_energy": -7.98, "intermolecular_energy": -9.47, "internal_energy": -1.29, "cluster_size": 39, "cluster_id": 1, "rank_in_cluster": 36}

>  <energy>  (42) 
-8.27

>  <cluster_rmsd>  (42) 
0.86

>  <cluster>  (42) 
2

$$$$

     RDKit          3D

 47 50  0  0  0  0  0  0  0  0999 V2000
  139.9000   72.1410  221.7550 O   0  0  0  0  0  0  0  0  0  0  0  0
  139.0480   72.0190  222.6920 C   0  0  0  0  0  0  0  0  0  0  0  0
  137.8590   72.7890  222.6910 N   0  0  0  0  0  0  0  0  0  0  0  0
  137.6440   73.7120  221.6010 C   0  0  0  0  0  0  0  0  0  0  0  0
  137.7440   75.0890  222.1510 C   0  0  0  0  0  0  0  0  0  0  0  0
  136.8470   75.6060  222.8690 O   0  0  0  0  0  0  0  0  0  0  0  0
  138.8920   75.8760  221.8660 N   0  0  0  0  0  0  0  0  0  0  0  0
  140.2320   75.4010  221.5700 C   0  0  0  0  0  0  0  0  0  0  0  0
  141.0540   76.4470  222.3030 C   0  0  0  0  0  0  0  0  0  0  0  0
  140.3840   77.7140  221.7620 C   0  0  2  0  0  0  0  0  0  0  0  0
  140.7580   78.9220  222.4910 C   0  0  0  0  0  0  0  0  0  0  0  0
  142.1060   79.2680  222.5310 C   0  0  0  0  0  0  0  0  0  0  0  0
  142.5440   80.3910  223.1970 C   0  0  0  0  0  0  0  0  0  0  0  0
  141.6260   81.1850  223.8340 C   0  0  0  0  0  0  0  0  0  0  0  0
  140.3250   80.8500  223.7940 N   0  0  0  0  0  0  0  0  0  0  0  0
  139.8850   79.7390  223.1360 C   0  0  0  0  0  0  0  0  0  0  0  0
  138.9400   77.3470  221.8190 C   0  0  0  0  0  0  0  0  0  0  0  0
  139.3040   71.0680  223.7830 C   0  0  0  0  0  0  0  0  0  0  0  0
  138.9350   69.7460  223.6360 C   0  0  0  0  0  0  0  0  0  0  0  0
  139.2040   68.9000  224.7000 C   0  0  0  0  0  0  0  0  0  0  0  0
  139.8050   69.3310  225.8530 C   0  0  0  0  0  0  0  0  0  0  0  0
  140.0840   68.5090  226.9260 C   0  0  0  0  0  0  0  0  0  0  0  0
  140.6910   69.0420  228.0410 C   0  0  0  0  0  0  0  0  0  0  0  0
  140.9860   68.2600  229.1320 F   0  0  0  0  0  0  0  0  0  0  0  0
  141.0410   70.3700  228.1420 C   0  0  0  0  0  0  0  0  0  0  0  0
  140.7630   71.1990  227.0660 C   0  0  0  0  0  0  0  0  0  0  0  0
  140.1550   70.6590  225.9550 C   0  0  0  0  0  0  0  0  0  0  0  0
  139.8950   71.4790  224.9230 N   0  0  0  0  0  0  0  0  0  0  0  0
  137.1940   72.6500  223.4820 H   0  0  0  0  0  0  0  0  0  0  0  0
  138.4096   73.5614  220.8256 H   0  0  0  0  0  0  0  0  0  0  0  0
  136.6558   73.5488  221.1462 H   0  0  0  0  0  0  0  0  0  0  0  0
  140.4048   74.3917  221.9717 H   0  0  0  0  0  0  0  0  0  0  0  0
  140.4607   75.3010  220.4987 H   0  0  0  0  0  0  0  0  0  0  0  0
  140.9495   76.3609  223.3946 H   0  0  0  0  0  0  0  0  0  0  0  0
  142.1408   76.3861  222.1444 H   0  0  0  0  0  0  0  0  0  0  0  0
  140.6977   77.9942  220.7456 H   0  0  0  0  0  0  0  0  0  0  0  0
  142.8394   78.6285  222.0179 H   0  0  0  0  0  0  0  0  0  0  0  0
  143.6137   80.6468  223.2175 H   0  0  0  0  0  0  0  0  0  0  0  0
  141.9509   82.0874  224.3726 H   0  0  0  0  0  0  0  0  0  0  0  0
  138.8109   79.5019  223.1276 H   0  0  0  0  0  0  0  0  0  0  0  0
  138.4735   77.7728  222.7196 H   0  0  0  0  0  0  0  0  0  0  0  0
  138.3921   77.7385  220.9492 H   0  0  0  0  0  0  0  0  0  0  0  0
  138.4506   69.3815  222.7181 H   0  0  0  0  0  0  0  0  0  0  0  0
  138.9236   67.8397  224.6153 H   0  0  0  0  0  0  0  0  0  0  0  0
  139.8245   67.4406  226.8908 H   0  0  0  0  0  0  0  0  0  0  0  0
  141.5262   70.7611  229.0484 H   0  0  0  0  0  0  0  0  0  0  0  0
  141.0231   72.2673  227.0993 H   0  0  0  0  0  0  0  0  0  0  0  0
  1  2  2  0
  2  3  1  0
  3  4  1  0
  4  5  1  0
  5  6  2  0
  5  7  1  0
  7  8  1  0
  8  9  1  0
  9 10  1  0
 10 11  1  0
 11 12  2  0
 12 13  1  0
 13 14  2  0
 14 15  1  0
 15 16  2  0
 10 17  1  0
  2 18  1  0
 18 19  2  0
 19 20  1  0
 20 21  2  0
 21 22  1  0
 22 23  2  0
 23 24  1  0
 23 25  1  0
 25 26  2  0
 26 27  1  0
 27 28  2  0
 17  7  1  0
 28 18  1  0
 16 11  1  0
 27 21  1  0
  3 29  1  0
  4 30  1  0
  4 31  1  0
  8 32  1  0
  8 33  1  0
  9 34  1  0
  9 35  1  0
 10 36  1  6
 12 37  1  0
 13 38  1  0
 14 39  1  0
 16 40  1  0
 17 41  1  0
 17 42  1  0
 19 43  1  0
 20 44  1  0
 22 45  1  0
 25 46  1  0
 26 47  1  0
M  END
>  <smiles>  (43) 
O=C(NCC(=O)N1CC[C@H](c2cccnc2)C1)c1ccc2cc(F)ccc2n1

>  <score_type>  (43) 
oracle

>  <origin>  (43) 
autodockgpu

>  <m_score__min__energy>  (43) 
-8.6600000000000001

>  <m_primary>  (43) 
energy

>  <rmsd>  (43) 
2.6643257275826184

>  <m_score__min__rmsd>  (43) 
2.6643257275826184

>  <meeko>  (43) 
{"free_energy": -8.16, "intermolecular_energy": -9.65, "internal_energy": -1.15, "cluster_size": 39, "cluster_id": 1, "rank_in_cluster": 32}

>  <energy>  (43) 
-8.24

>  <cluster_rmsd>  (43) 
0.71

>  <cluster>  (43) 
2

$$$$

     RDKit          3D

 47 50  0  0  0  0  0  0  0  0999 V2000
  138.7630   70.8200  221.6490 O   0  0  0  0  0  0  0  0  0  0  0  0
  139.2540   71.2830  222.7270 C   0  0  0  0  0  0  0  0  0  0  0  0
  139.6180   72.6490  222.8250 N   0  0  0  0  0  0  0  0  0  0  0  0
  139.4160   73.4940  221.6720 C   0  0  0  0  0  0  0  0  0  0  0  0
  140.6950   74.2000  221.4010 C   0  0  0  0  0  0  0  0  0  0  0  0
  141.8180   73.6310  221.4670 O   0  0  0  0  0  0  0  0  0  0  0  0
  140.6760   75.5760  221.0520 N   0  0  0  0  0  0  0  0  0  0  0  0
  140.9020   76.1540  219.7390 C   0  0  0  0  0  0  0  0  0  0  0  0
  141.6890   77.3940  220.1240 C   0  0  0  0  0  0  0  0  0  0  0  0
  140.7740   77.9370  221.2260 C   0  0  2  0  0  0  0  0  0  0  0  0
  141.3890   78.9990  222.0180 C   0  0  0  0  0  0  0  0  0  0  0  0
  141.6350   78.7490  223.3650 C   0  0  0  0  0  0  0  0  0  0  0  0
  142.2100   79.6940  224.1830 C   0  0  0  0  0  0  0  0  0  0  0  0
  142.5500   80.9120  223.6520 C   0  0  0  0  0  0  0  0  0  0  0  0
  142.3140   81.1520  222.3510 N   0  0  0  0  0  0  0  0  0  0  0  0
  141.7430   80.2190  221.5370 C   0  0  0  0  0  0  0  0  0  0  0  0
  140.4210   76.6960  221.9730 C   0  0  0  0  0  0  0  0  0  0  0  0
  139.4440   70.3900  223.8790 C   0  0  0  0  0  0  0  0  0  0  0  0
  139.0260   69.0760  223.8000 C   0  0  0  0  0  0  0  0  0  0  0  0
  139.2330   68.2860  224.9180 C   0  0  0  0  0  0  0  0  0  0  0  0
  139.8220   68.7610  226.0600 C   0  0  0  0  0  0  0  0  0  0  0  0
  140.0410   67.9940  227.1870 C   0  0  0  0  0  0  0  0  0  0  0  0
  140.6410   68.5690  228.2850 C   0  0  0  0  0  0  0  0  0  0  0  0
  140.8770   67.8430  229.4280 F   0  0  0  0  0  0  0  0  0  0  0  0
  141.0420   69.8870  228.3170 C   0  0  0  0  0  0  0  0  0  0  0  0
  140.8250   70.6600  227.1870 C   0  0  0  0  0  0  0  0  0  0  0  0
  140.2240   70.0780  226.0930 C   0  0  0  0  0  0  0  0  0  0  0  0
  140.0230   70.8450  225.0080 N   0  0  0  0  0  0  0  0  0  0  0  0
  140.0160   72.9770  223.7320 H   0  0  0  0  0  0  0  0  0  0  0  0
  139.1346   72.8812  220.8029 H   0  0  0  0  0  0  0  0  0  0  0  0
  138.6087   74.2171  221.8604 H   0  0  0  0  0  0  0  0  0  0  0  0
  141.4883   75.4832  219.0939 H   0  0  0  0  0  0  0  0  0  0  0  0
  139.9892   76.3488  219.1569 H   0  0  0  0  0  0  0  0  0  0  0  0
  142.6894   77.1435  220.5067 H   0  0  0  0  0  0  0  0  0  0  0  0
  141.8978   78.0924  219.3002 H   0  0  0  0  0  0  0  0  0  0  0  0
  139.8811   78.4622  220.8560 H   0  0  0  0  0  0  0  0  0  0  0  0
  141.3625   77.7702  223.7865 H   0  0  0  0  0  0  0  0  0  0  0  0
  142.3940   79.4763  225.2454 H   0  0  0  0  0  0  0  0  0  0  0  0
  143.0112   81.6846  224.2847 H   0  0  0  0  0  0  0  0  0  0  0  0
  141.5668   80.4572  220.4777 H   0  0  0  0  0  0  0  0  0  0  0  0
  141.0477   76.6007  222.8720 H   0  0  0  0  0  0  0  0  0  0  0  0
  139.3722   76.7120  222.3042 H   0  0  0  0  0  0  0  0  0  0  0  0
  138.5512   68.6761  222.8919 H   0  0  0  0  0  0  0  0  0  0  0  0
  138.9115   67.2345  224.8881 H   0  0  0  0  0  0  0  0  0  0  0  0
  139.7398   66.9363  227.2075 H   0  0  0  0  0  0  0  0  0  0  0  0
  141.5197   70.3126  229.2118 H   0  0  0  0  0  0  0  0  0  0  0  0
  141.1269   71.7175  227.1645 H   0  0  0  0  0  0  0  0  0  0  0  0
  1  2  2  0
  2  3  1  0
  3  4  1  0
  4  5  1  0
  5  6  2  0
  5  7  1  0
  7  8  1  0
  8  9  1  0
  9 10  1  0
 10 11  1  0
 11 12  2  0
 12 13  1  0
 13 14  2  0
 14 15  1  0
 15 16  2  0
 10 17  1  0
  2 18  1  0
 18 19  2  0
 19 20  1  0
 20 21  2  0
 21 22  1  0
 22 23  2  0
 23 24  1  0
 23 25  1  0
 25 26  2  0
 26 27  1  0
 27 28  2  0
 17  7  1  0
 28 18  1  0
 16 11  1  0
 27 21  1  0
  3 29  1  0
  4 30  1  0
  4 31  1  0
  8 32  1  0
  8 33  1  0
  9 34  1  0
  9 35  1  0
 10 36  1  6
 12 37  1  0
 13 38  1  0
 14 39  1  0
 16 40  1  0
 17 41  1  0
 17 42  1  0
 19 43  1  0
 20 44  1  0
 22 45  1  0
 25 46  1  0
 26 47  1  0
M  END
>  <smiles>  (44) 
O=C(NCC(=O)N1CC[C@H](c2cccnc2)C1)c1ccc2cc(F)ccc2n1

>  <score_type>  (44) 
oracle

>  <origin>  (44) 
autodockgpu

>  <m_score__min__energy>  (44) 
-8.6600000000000001

>  <m_primary>  (44) 
energy

>  <rmsd>  (44) 
2.2679811134338155

>  <m_score__min__rmsd>  (44) 
2.2679811134338155

>  <meeko>  (44) 
{"free_energy": -8.27, "intermolecular_energy": -9.76, "internal_energy": -1.28, "cluster_size": 39, "cluster_id": 1, "rank_in_cluster": 22}

>  <energy>  (44) 
-8.23

>  <cluster_rmsd>  (44) 
0.78

>  <cluster>  (44) 
2

$$$$

     RDKit          3D

 47 50  0  0  0  0  0  0  0  0999 V2000
  140.3240   70.7520  221.5250 O   0  0  0  0  0  0  0  0  0  0  0  0
  139.8430   71.4130  222.4980 C   0  0  0  0  0  0  0  0  0  0  0  0
  139.0470   72.5620  222.2670 N   0  0  0  0  0  0  0  0  0  0  0  0
  138.8020   72.9590  220.8990 C   0  0  0  0  0  0  0  0  0  0  0  0
  139.6520   74.1430  220.6140 C   0  0  0  0  0  0  0  0  0  0  0  0
  140.3410   74.2550  219.5650 O   0  0  0  0  0  0  0  0  0  0  0  0
  139.7070   75.2080  221.5520 N   0  0  0  0  0  0  0  0  0  0  0  0
  138.6070   75.7570  222.3250 C   0  0  0  0  0  0  0  0  0  0  0  0
  138.9660   77.2330  222.2900 C   0  0  0  0  0  0  0  0  0  0  0  0
  140.4350   77.1410  222.7130 C   0  0  2  0  0  0  0  0  0  0  0  0
  141.1750   78.3840  222.5090 C   0  0  0  0  0  0  0  0  0  0  0  0
  141.6450   79.0550  223.6340 C   0  0  0  0  0  0  0  0  0  0  0  0
  142.3500   80.2330  223.5310 C   0  0  0  0  0  0  0  0  0  0  0  0
  142.5930   80.7540  222.2860 C   0  0  0  0  0  0  0  0  0  0  0  0
  142.1390   80.1050  221.2010 N   0  0  0  0  0  0  0  0  0  0  0  0
  141.4390   78.9380  221.2980 C   0  0  0  0  0  0  0  0  0  0  0  0
  140.9120   75.9700  221.9230 C   0  0  0  0  0  0  0  0  0  0  0  0
  140.1160   70.9770  223.8750 C   0  0  0  0  0  0  0  0  0  0  0  0
  140.6510   71.8720  224.7810 C   0  0  0  0  0  0  0  0  0  0  0  0
  140.8850   71.4000  226.0620 C   0  0  0  0  0  0  0  0  0  0  0  0
  140.6070   70.1120  226.4370 C   0  0  0  0  0  0  0  0  0  0  0  0
  140.8290   69.6180  227.7070 C   0  0  0  0  0  0  0  0  0  0  0  0
  140.5150   68.3060  227.9820 C   0  0  0  0  0  0  0  0  0  0  0  0
  140.7200   67.7730  229.2320 F   0  0  0  0  0  0  0  0  0  0  0  0
  139.9810   67.4490  227.0450 C   0  0  0  0  0  0  0  0  0  0  0  0
  139.7560   67.9420  225.7690 C   0  0  0  0  0  0  0  0  0  0  0  0
  140.0730   69.2550  225.5010 C   0  0  0  0  0  0  0  0  0  0  0  0
  139.8460   69.7130  224.2580 N   0  0  0  0  0  0  0  0  0  0  0  0
  138.6770   73.0680  223.1010 H   0  0  0  0  0  0  0  0  0  0  0  0
  139.0644   72.1365  220.2174 H   0  0  0  0  0  0  0  0  0  0  0  0
  137.7394   73.2030  220.7528 H   0  0  0  0  0  0  0  0  0  0  0  0
  137.6357   75.5623  221.8469 H   0  0  0  0  0  0  0  0  0  0  0  0
  138.4942   75.3328  223.3336 H   0  0  0  0  0  0  0  0  0  0  0  0
  138.8543   77.6595  221.2822 H   0  0  0  0  0  0  0  0  0  0  0  0
  138.3371   77.8846  222.9144 H   0  0  0  0  0  0  0  0  0  0  0  0
  140.5866   76.9977  223.7930 H   0  0  0  0  0  0  0  0  0  0  0  0
  141.4482   78.6334  224.6308 H   0  0  0  0  0  0  0  0  0  0  0  0
  142.7125   80.7480  224.4328 H   0  0  0  0  0  0  0  0  0  0  0  0
  143.1540   81.6939  222.1769 H   0  0  0  0  0  0  0  0  0  0  0  0
  141.0841   78.4398  220.3837 H   0  0  0  0  0  0  0  0  0  0  0  0
  141.4421   76.3088  221.0207 H   0  0  0  0  0  0  0  0  0  0  0  0
  141.6141   75.3533  222.5034 H   0  0  0  0  0  0  0  0  0  0  0  0
  140.8803   72.9101  224.4986 H   0  0  0  0  0  0  0  0  0  0  0  0
  141.3111   72.0868  226.8081 H   0  0  0  0  0  0  0  0  0  0  0  0
  141.2517   70.2649  228.4898 H   0  0  0  0  0  0  0  0  0  0  0  0
  139.7408   66.4066  227.3011 H   0  0  0  0  0  0  0  0  0  0  0  0
  139.3323   67.2966  224.9855 H   0  0  0  0  0  0  0  0  0  0  0  0
  1  2  2  0
  2  3  1  0
  3  4  1  0
  4  5  1  0
  5  6  2  0
  5  7  1  0
  7  8  1  0
  8  9  1  0
  9 10  1  0
 10 11  1  0
 11 12  2  0
 12 13  1  0
 13 14  2  0
 14 15  1  0
 15 16  2  0
 10 17  1  0
  2 18  1  0
 18 19  2  0
 19 20  1  0
 20 21  2  0
 21 22  1  0
 22 23  2  0
 23 24  1  0
 23 25  1  0
 25 26  2  0
 26 27  1  0
 27 28  2  0
 17  7  1  0
 28 18  1  0
 16 11  1  0
 27 21  1  0
  3 29  1  0
  4 30  1  0
  4 31  1  0
  8 32  1  0
  8 33  1  0
  9 34  1  0
  9 35  1  0
 10 36  1  1
 12 37  1  0
 13 38  1  0
 14 39  1  0
 16 40  1  0
 17 41  1  0
 17 42  1  0
 19 43  1  0
 20 44  1  0
 22 45  1  0
 25 46  1  0
 26 47  1  0
M  END
>  <smiles>  (45) 
O=C(NCC(=O)N1CC[C@H](c2cccnc2)C1)c1ccc2cc(F)ccc2n1

>  <score_type>  (45) 
oracle

>  <origin>  (45) 
autodockgpu

>  <m_score__min__energy>  (45) 
-8.6600000000000001

>  <m_primary>  (45) 
energy

>  <rmsd>  (45) 
3.5982302368056964

>  <m_score__min__rmsd>  (45) 
3.5982302368056964

>  <meeko>  (45) 
{"free_energy": -8.21, "intermolecular_energy": -9.7, "internal_energy": -1.11, "cluster_size": 39, "cluster_id": 1, "rank_in_cluster": 26}

>  <energy>  (45) 
-8.13

>  <cluster_rmsd>  (45) 
1.31

>  <cluster>  (45) 
2

$$$$

     RDKit          3D

 47 50  0  0  0  0  0  0  0  0999 V2000
  140.8220   72.2650  221.9160 O   0  0  0  0  0  0  0  0  0  0  0  0
  139.7760   72.1370  222.6280 C   0  0  0  0  0  0  0  0  0  0  0  0
  138.6180   72.9050  222.3540 N   0  0  0  0  0  0  0  0  0  0  0  0
  138.6610   73.8350  221.2490 C   0  0  0  0  0  0  0  0  0  0  0  0
  139.6380   74.9000  221.5940 C   0  0  0  0  0  0  0  0  0  0  0  0
  139.5130   75.6420  222.6040 O   0  0  0  0  0  0  0  0  0  0  0  0
  140.7700   75.1080  220.7620 N   0  0  0  0  0  0  0  0  0  0  0  0
  140.7760   75.5480  219.3780 C   0  0  0  0  0  0  0  0  0  0  0  0
  141.9080   74.6940  218.8320 C   0  0  0  0  0  0  0  0  0  0  0  0
  142.9720   74.9820  219.8950 C   0  0  2  0  0  0  0  0  0  0  0  0
  144.1200   74.0830  219.8220 C   0  0  0  0  0  0  0  0  0  0  0  0
  144.8390   73.8480  220.9910 C   0  0  0  0  0  0  0  0  0  0  0  0
  145.9350   73.0150  221.0100 C   0  0  0  0  0  0  0  0  0  0  0  0
  146.3230   72.4020  219.8460 C   0  0  0  0  0  0  0  0  0  0  0  0
  145.6280   72.6290  218.7190 N   0  0  0  0  0  0  0  0  0  0  0  0
  144.5410   73.4540  218.6940 C   0  0  0  0  0  0  0  0  0  0  0  0
  142.1760   74.9130  221.1540 C   0  0  0  0  0  0  0  0  0  0  0  0
  139.7720   71.1800  223.7440 C   0  0  0  0  0  0  0  0  0  0  0  0
  139.1550   69.9540  223.5900 C   0  0  0  0  0  0  0  0  0  0  0  0
  139.1860   69.0980  224.6780 C   0  0  0  0  0  0  0  0  0  0  0  0
  139.7940   69.4270  225.8610 C   0  0  0  0  0  0  0  0  0  0  0  0
  139.8390   68.5910  226.9580 C   0  0  0  0  0  0  0  0  0  0  0  0
  140.4760   69.0180  228.1020 C   0  0  0  0  0  0  0  0  0  0  0  0
  140.5450   68.2190  229.2180 F   0  0  0  0  0  0  0  0  0  0  0  0
  141.0790   70.2530  228.2100 C   0  0  0  0  0  0  0  0  0  0  0  0
  141.0350   71.0940  227.1090 C   0  0  0  0  0  0  0  0  0  0  0  0
  140.3970   70.6600  225.9690 C   0  0  0  0  0  0  0  0  0  0  0  0
  140.3670   71.4910  224.9130 N   0  0  0  0  0  0  0  0  0  0  0  0
  137.7870   72.7610  222.9680 H   0  0  0  0  0  0  0  0  0  0  0  0
  138.9807   73.3152  220.3338 H   0  0  0  0  0  0  0  0  0  0  0  0
  137.6657   74.2679  221.0702 H   0  0  0  0  0  0  0  0  0  0  0  0
  139.8217   75.3294  218.8764 H   0  0  0  0  0  0  0  0  0  0  0  0
  140.9050   76.6314  219.2378 H   0  0  0  0  0  0  0  0  0  0  0  0
  141.6390   73.6279  218.7980 H   0  0  0  0  0  0  0  0  0  0  0  0
  142.2064   74.9158  217.7967 H   0  0  0  0  0  0  0  0  0  0  0  0
  143.4770   75.9525  219.7807 H   0  0  0  0  0  0  0  0  0  0  0  0
  144.5234   74.3403  221.9227 H   0  0  0  0  0  0  0  0  0  0  0  0
  146.4906   72.8438  221.9438 H   0  0  0  0  0  0  0  0  0  0  0  0
  147.1947   71.7311  219.8354 H   0  0  0  0  0  0  0  0  0  0  0  0
  143.9996   73.6114  217.7495 H   0  0  0  0  0  0  0  0  0  0  0  0
  142.3055   73.9317  221.6338 H   0  0  0  0  0  0  0  0  0  0  0  0
  142.5006   75.6768  221.8760 H   0  0  0  0  0  0  0  0  0  0  0  0
  138.6625   69.6711  222.6480 H   0  0  0  0  0  0  0  0  0  0  0  0
  138.7029   68.1138  224.5889 H   0  0  0  0  0  0  0  0  0  0  0  0
  139.3719   67.5959  226.9192 H   0  0  0  0  0  0  0  0  0  0  0  0
  141.5790   70.5612  229.1401 H   0  0  0  0  0  0  0  0  0  0  0  0
  141.5012   72.0896  227.1455 H   0  0  0  0  0  0  0  0  0  0  0  0
  1  2  2  0
  2  3  1  0
  3  4  1  0
  4  5  1  0
  5  6  2  0
  5  7  1  0
  7  8  1  0
  8  9  1  0
  9 10  1  0
 10 11  1  0
 11 12  2  0
 12 13  1  0
 13 14  2  0
 14 15  1  0
 15 16  2  0
 10 17  1  0
  2 18  1  0
 18 19  2  0
 19 20  1  0
 20 21  2  0
 21 22  1  0
 22 23  2  0
 23 24  1  0
 23 25  1  0
 25 26  2  0
 26 27  1  0
 27 28  2  0
 17  7  1  0
 28 18  1  0
 16 11  1  0
 27 21  1  0
  3 29  1  0
  4 30  1  0
  4 31  1  0
  8 32  1  0
  8 33  1  0
  9 34  1  0
  9 35  1  0
 10 36  1  6
 12 37  1  0
 13 38  1  0
 14 39  1  0
 16 40  1  0
 17 41  1  0
 17 42  1  0
 19 43  1  0
 20 44  1  0
 22 45  1  0
 25 46  1  0
 26 47  1  0
M  END
>  <smiles>  (46) 
O=C(NCC(=O)N1CC[C@H](c2cccnc2)C1)c1ccc2cc(F)ccc2n1

>  <score_type>  (46) 
oracle

>  <origin>  (46) 
autodockgpu

>  <m_score__min__energy>  (46) 
-8.6600000000000001

>  <m_primary>  (46) 
energy

>  <rmsd>  (46) 
2.1724553572214695

>  <m_score__min__rmsd>  (46) 
2.1724553572214695

>  <meeko>  (46) 
{"free_energy": -8.23, "intermolecular_energy": -9.72, "internal_energy": -1.24, "cluster_size": 9, "cluster_id": 2, "rank_in_cluster": 5}

>  <energy>  (46) 
-7.97

>  <cluster_rmsd>  (46) 
1.35

>  <cluster>  (46) 
2

$$$$

     RDKit          3D

 47 50  0  0  0  0  0  0  0  0999 V2000
  138.4890   70.2680  221.8230 O   0  0  0  0  0  0  0  0  0  0  0  0
  138.8280   70.8210  222.9170 C   0  0  0  0  0  0  0  0  0  0  0  0
  138.8040   72.2310  223.0510 N   0  0  0  0  0  0  0  0  0  0  0  0
  138.3870   73.0180  221.9130 C   0  0  0  0  0  0  0  0  0  0  0  0
  139.5260   73.8910  221.5290 C   0  0  0  0  0  0  0  0  0  0  0  0
  139.6740   75.0610  221.9740 O   0  0  0  0  0  0  0  0  0  0  0  0
  140.5040   73.4080  220.6190 N   0  0  0  0  0  0  0  0  0  0  0  0
  140.5160   72.1230  219.9410 C   0  0  0  0  0  0  0  0  0  0  0  0
  142.0010   71.8080  219.9920 C   0  0  0  0  0  0  0  0  0  0  0  0
  142.5550   73.1350  219.4630 C   0  0  2  0  0  0  0  0  0  0  0  0
  143.9960   73.2750  219.6490 C   0  0  0  0  0  0  0  0  0  0  0  0
  144.4470   73.8830  220.8160 C   0  0  0  0  0  0  0  0  0  0  0  0
  145.7890   74.0560  221.0700 C   0  0  0  0  0  0  0  0  0  0  0  0
  146.7010   73.6140  220.1450 C   0  0  0  0  0  0  0  0  0  0  0  0
  146.2640   73.0260  219.0190 N   0  0  0  0  0  0  0  0  0  0  0  0
  144.9360   72.8530  218.7630 C   0  0  0  0  0  0  0  0  0  0  0  0
  141.7110   74.1310  220.1850 C   0  0  0  0  0  0  0  0  0  0  0  0
  139.2460   69.9850  224.0520 C   0  0  0  0  0  0  0  0  0  0  0  0
  139.0590   68.6180  223.9980 C   0  0  0  0  0  0  0  0  0  0  0  0
  139.4740   67.8870  225.0980 C   0  0  0  0  0  0  0  0  0  0  0  0
  140.0450   68.4680  226.2000 C   0  0  0  0  0  0  0  0  0  0  0  0
  140.4680   67.7610  227.3080 C   0  0  0  0  0  0  0  0  0  0  0  0
  141.0300   68.4410  228.3640 C   0  0  0  0  0  0  0  0  0  0  0  0
  141.4630   67.7780  229.4870 F   0  0  0  0  0  0  0  0  0  0  0  0
  141.1970   69.8090  228.3730 C   0  0  0  0  0  0  0  0  0  0  0  0
  140.7740   70.5220  227.2620 C   0  0  0  0  0  0  0  0  0  0  0  0
  140.2120   69.8350  226.2090 C   0  0  0  0  0  0  0  0  0  0  0  0
  139.8100   70.5450  225.1420 N   0  0  0  0  0  0  0  0  0  0  0  0
  139.0910   72.6340  223.9700 H   0  0  0  0  0  0  0  0  0  0  0  0
  138.1230   72.3557  221.0754 H   0  0  0  0  0  0  0  0  0  0  0  0
  137.5039   73.6236  222.1648 H   0  0  0  0  0  0  0  0  0  0  0  0
  139.9211   71.3716  220.4809 H   0  0  0  0  0  0  0  0  0  0  0  0
  140.0794   72.1292  218.9314 H   0  0  0  0  0  0  0  0  0  0  0  0
  142.3420   71.5996  221.0168 H   0  0  0  0  0  0  0  0  0  0  0  0
  142.3109   70.9131  219.4324 H   0  0  0  0  0  0  0  0  0  0  0  0
  142.4866   73.2520  218.3714 H   0  0  0  0  0  0  0  0  0  0  0  0
  143.7122   74.2348  221.5552 H   0  0  0  0  0  0  0  0  0  0  0  0
  146.1245   74.5404  221.9989 H   0  0  0  0  0  0  0  0  0  0  0  0
  147.7791   73.7399  220.3237 H   0  0  0  0  0  0  0  0  0  0  0  0
  144.6217   72.3660  217.8281 H   0  0  0  0  0  0  0  0  0  0  0  0
  142.2516   74.5285  221.0566 H   0  0  0  0  0  0  0  0  0  0  0  0
  141.4568   74.9845  219.5393 H   0  0  0  0  0  0  0  0  0  0  0  0
  138.6021   68.1330  223.1228 H   0  0  0  0  0  0  0  0  0  0  0  0
  139.3399   66.7953  225.0870 H   0  0  0  0  0  0  0  0  0  0  0  0
  140.3571   66.6673  227.3461 H   0  0  0  0  0  0  0  0  0  0  0  0
  141.6518   70.3192  229.2349 H   0  0  0  0  0  0  0  0  0  0  0  0
  140.8851   71.6157  227.2222 H   0  0  0  0  0  0  0  0  0  0  0  0
  1  2  2  0
  2  3  1  0
  3  4  1  0
  4  5  1  0
  5  6  2  0
  5  7  1  0
  7  8  1  0
  8  9  1  0
  9 10  1  0
 10 11  1  0
 11 12  2  0
 12 13  1  0
 13 14  2  0
 14 15  1  0
 15 16  2  0
 10 17  1  0
  2 18  1  0
 18 19  2  0
 19 20  1  0
 20 21  2  0
 21 22  1  0
 22 23  2  0
 23 24  1  0
 23 25  1  0
 25 26  2  0
 26 27  1  0
 27 28  2  0
 17  7  1  0
 28 18  1  0
 16 11  1  0
 27 21  1  0
  3 29  1  0
  4 30  1  0
  4 31  1  0
  8 32  1  0
  8 33  1  0
  9 34  1  0
  9 35  1  0
 10 36  1  6
 12 37  1  0
 13 38  1  0
 14 39  1  0
 16 40  1  0
 17 41  1  0
 17 42  1  0
 19 43  1  0
 20 44  1  0
 22 45  1  0
 25 46  1  0
 26 47  1  0
M  END
>  <smiles>  (47) 
O=C(NCC(=O)N1CC[C@H](c2cccnc2)C1)c1ccc2cc(F)ccc2n1

>  <score_type>  (47) 
oracle

>  <origin>  (47) 
autodockgpu

>  <m_score__min__energy>  (47) 
-8.6600000000000001

>  <m_primary>  (47) 
energy

>  <rmsd>  (47) 
2.8032333365442885

>  <m_score__min__rmsd>  (47) 
2.8032333365442885

>  <meeko>  (47) 
{"free_energy": -7.86, "intermolecular_energy": -9.35, "internal_energy": -1.48, "cluster_size": 9, "cluster_id": 2, "rank_in_cluster": 9}

>  <energy>  (47) 
-7.9

>  <cluster_rmsd>  (47) 
1.32

>  <cluster>  (47) 
2

$$$$

     RDKit          3D

 47 50  0  0  0  0  0  0  0  0999 V2000
  139.1520   71.0720  221.1520 O   0  0  0  0  0  0  0  0  0  0  0  0
  139.3660   71.6200  222.2800 C   0  0  0  0  0  0  0  0  0  0  0  0
  139.4400   73.0290  222.3960 N   0  0  0  0  0  0  0  0  0  0  0  0
  139.2660   73.8230  221.2010 C   0  0  0  0  0  0  0  0  0  0  0  0
  140.6070   74.3120  220.7880 C   0  0  0  0  0  0  0  0  0  0  0  0
  141.5900   73.5460  220.6080 O   0  0  0  0  0  0  0  0  0  0  0  0
  140.8120   75.7020  220.5800 N   0  0  0  0  0  0  0  0  0  0  0  0
  141.4430   76.3380  219.4370 C   0  0  0  0  0  0  0  0  0  0  0  0
  142.2040   77.4500  220.1370 C   0  0  0  0  0  0  0  0  0  0  0  0
  141.0750   78.0200  221.0000 C   0  0  2  0  0  0  0  0  0  0  0  0
  141.5420   78.9470  222.0260 C   0  0  0  0  0  0  0  0  0  0  0  0
  141.7910   80.2640  221.6500 C   0  0  0  0  0  0  0  0  0  0  0  0
  142.2350   81.2020  222.5540 C   0  0  0  0  0  0  0  0  0  0  0  0
  142.4350   80.8260  223.8580 C   0  0  0  0  0  0  0  0  0  0  0  0
  142.1940   79.5550  224.2200 N   0  0  0  0  0  0  0  0  0  0  0  0
  141.7540   78.6200  223.3280 C   0  0  0  0  0  0  0  0  0  0  0  0
  140.4160   76.7800  221.5030 C   0  0  0  0  0  0  0  0  0  0  0  0
  139.5370   70.7770  223.4730 C   0  0  0  0  0  0  0  0  0  0  0  0
  139.1160   69.4620  223.4450 C   0  0  0  0  0  0  0  0  0  0  0  0
  139.3050   68.7210  224.6000 C   0  0  0  0  0  0  0  0  0  0  0  0
  139.8810   69.2450  225.7280 C   0  0  0  0  0  0  0  0  0  0  0  0
  140.0810   68.5270  226.8900 C   0  0  0  0  0  0  0  0  0  0  0  0
  140.6690   69.1470  227.9700 C   0  0  0  0  0  0  0  0  0  0  0  0
  140.8870   68.4710  229.1460 F   0  0  0  0  0  0  0  0  0  0  0  0
  141.0750   70.4640  227.9500 C   0  0  0  0  0  0  0  0  0  0  0  0
  140.8750   71.1870  226.7850 C   0  0  0  0  0  0  0  0  0  0  0  0
  140.2860   70.5600  225.7090 C   0  0  0  0  0  0  0  0  0  0  0  0
  140.1030   71.2790  224.5890 N   0  0  0  0  0  0  0  0  0  0  0  0
  139.6170   73.4270  223.3440 H   0  0  0  0  0  0  0  0  0  0  0  0
  138.8287   73.2069  220.4015 H   0  0  0  0  0  0  0  0  0  0  0  0
  138.5888   74.6682  221.3937 H   0  0  0  0  0  0  0  0  0  0  0  0
  142.1200   75.6498  218.9098 H   0  0  0  0  0  0  0  0  0  0  0  0
  140.7481   76.6754  218.6539 H   0  0  0  0  0  0  0  0  0  0  0  0
  143.0314   77.0601  220.7480 H   0  0  0  0  0  0  0  0  0  0  0  0
  142.6964   78.1735  219.4706 H   0  0  0  0  0  0  0  0  0  0  0  0
  140.3725   78.6687  220.4562 H   0  0  0  0  0  0  0  0  0  0  0  0
  141.6288   80.5626  220.6038 H   0  0  0  0  0  0  0  0  0  0  0  0
  142.4266   82.2374  222.2357 H   0  0  0  0  0  0  0  0  0  0  0  0
  142.7890   81.5575  224.5994 H   0  0  0  0  0  0  0  0  0  0  0  0
  141.5689   77.5900  223.6669 H   0  0  0  0  0  0  0  0  0  0  0  0
  140.7581   76.5533  222.5236 H   0  0  0  0  0  0  0  0  0  0  0  0
  139.3226   76.8939  221.5414 H   0  0  0  0  0  0  0  0  0  0  0  0
  138.6528   69.0240  222.5485 H   0  0  0  0  0  0  0  0  0  0  0  0
  138.9799   67.6702  224.6124 H   0  0  0  0  0  0  0  0  0  0  0  0
  139.7744   67.4724  226.9525 H   0  0  0  0  0  0  0  0  0  0  0  0
  141.5432   70.9266  228.8313 H   0  0  0  0  0  0  0  0  0  0  0  0
  141.1808   72.2417  226.7205 H   0  0  0  0  0  0  0  0  0  0  0  0
  1  2  2  0
  2  3  1  0
  3  4  1  0
  4  5  1  0
  5  6  2  0
  5  7  1  0
  7  8  1  0
  8  9  1  0
  9 10  1  0
 10 11  1  0
 11 12  2  0
 12 13  1  0
 13 14  2  0
 14 15  1  0
 15 16  2  0
 10 17  1  0
  2 18  1  0
 18 19  2  0
 19 20  1  0
 20 21  2  0
 21 22  1  0
 22 23  2  0
 23 24  1  0
 23 25  1  0
 25 26  2  0
 26 27  1  0
 27 28  2  0
 17  7  1  0
 28 18  1  0
 16 11  1  0
 27 21  1  0
  3 29  1  0
  4 30  1  0
  4 31  1  0
  8 32  1  0
  8 33  1  0
  9 34  1  0
  9 35  1  0
 10 36  1  6
 12 37  1  0
 13 38  1  0
 14 39  1  0
 16 40  1  0
 17 41  1  0
 17 42  1  0
 19 43  1  0
 20 44  1  0
 22 45  1  0
 25 46  1  0
 26 47  1  0
M  END
>  <smiles>  (48) 
O=C(NCC(=O)N1CC[C@H](c2cccnc2)C1)c1ccc2cc(F)ccc2n1

>  <score_type>  (48) 
oracle

>  <origin>  (48) 
autodockgpu

>  <m_score__min__energy>  (48) 
-8.6600000000000001

>  <m_primary>  (48) 
energy

>  <rmsd>  (48) 
2.1499555110416084

>  <m_score__min__rmsd>  (48) 
2.1499555110416084

>  <meeko>  (48) 
{"free_energy": -8.2, "intermolecular_energy": -9.7, "internal_energy": -1.23, "cluster_size": 39, "cluster_id": 1, "rank_in_cluster": 27}

>  <energy>  (48) 
-7.86

>  <cluster_rmsd>  (48) 
0.76

>  <cluster>  (48) 
2

$$$$

     RDKit          3D

 47 50  0  0  0  0  0  0  0  0999 V2000
  140.0170   71.2680  221.6380 O   0  0  0  0  0  0  0  0  0  0  0  0
  139.2970   71.4400  222.6720 C   0  0  0  0  0  0  0  0  0  0  0  0
  138.3410   72.4840  222.7210 N   0  0  0  0  0  0  0  0  0  0  0  0
  138.2090   73.3430  221.5670 C   0  0  0  0  0  0  0  0  0  0  0  0
  139.3940   74.2390  221.5350 C   0  0  0  0  0  0  0  0  0  0  0  0
  139.5930   75.1410  222.3930 O   0  0  0  0  0  0  0  0  0  0  0  0
  140.3560   74.0920  220.5020 N   0  0  0  0  0  0  0  0  0  0  0  0
  140.2100   73.3500  219.2620 C   0  0  0  0  0  0  0  0  0  0  0  0
  141.6040   72.7610  219.1370 C   0  0  0  0  0  0  0  0  0  0  0  0
  142.4320   74.0300  219.3590 C   0  0  2  0  0  0  0  0  0  0  0  0
  143.8500   73.7640  219.5830 C   0  0  0  0  0  0  0  0  0  0  0  0
  144.3800   74.0640  220.8350 C   0  0  0  0  0  0  0  0  0  0  0  0
  145.7060   73.8450  221.1300 C   0  0  0  0  0  0  0  0  0  0  0  0
  146.5230   73.3170  220.1620 C   0  0  0  0  0  0  0  0  0  0  0  0
  146.0100   73.0280  218.9550 N   0  0  0  0  0  0  0  0  0  0  0  0
  144.6960   73.2430  218.6570 C   0  0  0  0  0  0  0  0  0  0  0  0
  141.7090   74.6750  220.4930 C   0  0  0  0  0  0  0  0  0  0  0  0
  139.4620   70.5440  223.8260 C   0  0  0  0  0  0  0  0  0  0  0  0
  139.0180   69.2390  223.7450 C   0  0  0  0  0  0  0  0  0  0  0  0
  139.2030   68.4460  224.8660 C   0  0  0  0  0  0  0  0  0  0  0  0
  139.7940   68.9100  226.0110 C   0  0  0  0  0  0  0  0  0  0  0  0
  139.9900   68.1400  227.1400 C   0  0  0  0  0  0  0  0  0  0  0  0
  140.5940   68.7030  228.2410 C   0  0  0  0  0  0  0  0  0  0  0  0
  140.8090   67.9740  229.3860 F   0  0  0  0  0  0  0  0  0  0  0  0
  141.0220   70.0130  228.2750 C   0  0  0  0  0  0  0  0  0  0  0  0
  140.8270   70.7890  227.1440 C   0  0  0  0  0  0  0  0  0  0  0  0
  140.2210   70.2190  226.0460 C   0  0  0  0  0  0  0  0  0  0  0  0
  140.0420   70.9880  224.9590 N   0  0  0  0  0  0  0  0  0  0  0  0
  137.7760   72.5810  223.5930 H   0  0  0  0  0  0  0  0  0  0  0  0
  138.1728   72.7363  220.6501 H   0  0  0  0  0  0  0  0  0  0  0  0
  137.2817   73.9315  221.6279 H   0  0  0  0  0  0  0  0  0  0  0  0
  139.4423   72.5665  219.3438 H   0  0  0  0  0  0  0  0  0  0  0  0
  139.8833   73.9505  218.4002 H   0  0  0  0  0  0  0  0  0  0  0  0
  141.8001   72.0022  219.9088 H   0  0  0  0  0  0  0  0  0  0  0  0
  141.8056   72.2276  218.1963 H   0  0  0  0  0  0  0  0  0  0  0  0
  142.4939   74.6903  218.4814 H   0  0  0  0  0  0  0  0  0  0  0  0
  143.7218   74.4870  221.6082 H   0  0  0  0  0  0  0  0  0  0  0  0
  146.1047   74.0892  222.1257 H   0  0  0  0  0  0  0  0  0  0  0  0
  147.5868   73.1325  220.3725 H   0  0  0  0  0  0  0  0  0  0  0  0
  144.3175   72.9915  217.6553 H   0  0  0  0  0  0  0  0  0  0  0  0
  142.2221   74.4627  221.4425 H   0  0  0  0  0  0  0  0  0  0  0  0
  141.6738   75.7682  220.3762 H   0  0  0  0  0  0  0  0  0  0  0  0
  138.5405   68.8479  222.8345 H   0  0  0  0  0  0  0  0  0  0  0  0
  138.8612   67.4009  224.8350 H   0  0  0  0  0  0  0  0  0  0  0  0
  139.6671   67.0886  227.1593 H   0  0  0  0  0  0  0  0  0  0  0  0
  141.5034   70.4292  229.1722 H   0  0  0  0  0  0  0  0  0  0  0  0
  141.1499   71.8403  227.1231 H   0  0  0  0  0  0  0  0  0  0  0  0
  1  2  2  0
  2  3  1  0
  3  4  1  0
  4  5  1  0
  5  6  2  0
  5  7  1  0
  7  8  1  0
  8  9  1  0
  9 10  1  0
 10 11  1  0
 11 12  2  0
 12 13  1  0
 13 14  2  0
 14 15  1  0
 15 16  2  0
 10 17  1  0
  2 18  1  0
 18 19  2  0
 19 20  1  0
 20 21  2  0
 21 22  1  0
 22 23  2  0
 23 24  1  0
 23 25  1  0
 25 26  2  0
 26 27  1  0
 27 28  2  0
 17  7  1  0
 28 18  1  0
 16 11  1  0
 27 21  1  0
  3 29  1  0
  4 30  1  0
  4 31  1  0
  8 32  1  0
  8 33  1  0
  9 34  1  0
  9 35  1  0
 10 36  1  6
 12 37  1  0
 13 38  1  0
 14 39  1  0
 16 40  1  0
 17 41  1  0
 17 42  1  0
 19 43  1  0
 20 44  1  0
 22 45  1  0
 25 46  1  0
 26 47  1  0
M  END
>  <smiles>  (49) 
O=C(NCC(=O)N1CC[C@H](c2cccnc2)C1)c1ccc2cc(F)ccc2n1

>  <score_type>  (49) 
oracle

>  <origin>  (49) 
autodockgpu

>  <m_score__min__energy>  (49) 
-8.6600000000000001

>  <m_primary>  (49) 
energy

>  <rmsd>  (49) 
2.3759544690617957

>  <m_score__min__rmsd>  (49) 
2.3759544690617957

>  <meeko>  (49) 
{"free_energy": -8.3, "intermolecular_energy": -9.79, "internal_energy": -1.27, "cluster_size": 9, "cluster_id": 2, "rank_in_cluster": 1}

>  <energy>  (49) 
-8.18

>  <cluster_rmsd>  (49) 
0.0

>  <cluster>  (49) 
3

$$$$

     RDKit          3D

 47 50  0  0  0  0  0  0  0  0999 V2000
  137.8360   71.9230  222.5370 O   0  0  0  0  0  0  0  0  0  0  0  0
  139.0050   71.8550  223.0330 C   0  0  0  0  0  0  0  0  0  0  0  0
  140.0250   72.7350  222.5990 N   0  0  0  0  0  0  0  0  0  0  0  0
  139.7010   73.7070  221.5810 C   0  0  0  0  0  0  0  0  0  0  0  0
  140.9440   74.4590  221.2650 C   0  0  0  0  0  0  0  0  0  0  0  0
  142.0810   73.9160  221.2250 O   0  0  0  0  0  0  0  0  0  0  0  0
  140.8710   75.8510  220.9930 N   0  0  0  0  0  0  0  0  0  0  0  0
  141.2300   76.5260  219.7580 C   0  0  0  0  0  0  0  0  0  0  0  0
  141.8630   77.7880  220.3190 C   0  0  0  0  0  0  0  0  0  0  0  0
  140.7680   78.1970  221.3080 C   0  0  2  0  0  0  0  0  0  0  0  0
  141.1890   79.2430  222.2370 C   0  0  0  0  0  0  0  0  0  0  0  0
  142.5550   79.4420  222.4190 C   0  0  0  0  0  0  0  0  0  0  0  0
  143.0360   80.4060  223.2750 C   0  0  0  0  0  0  0  0  0  0  0  0
  142.1440   81.1870  223.9640 C   0  0  0  0  0  0  0  0  0  0  0  0
  140.8270   80.9940  223.7870 N   0  0  0  0  0  0  0  0  0  0  0  0
  140.3440   80.0400  222.9400 C   0  0  0  0  0  0  0  0  0  0  0  0
  140.4090   76.8890  221.9290 C   0  0  0  0  0  0  0  0  0  0  0  0
  139.2940   70.8510  224.0680 C   0  0  0  0  0  0  0  0  0  0  0  0
  138.8930   69.5430  223.8820 C   0  0  0  0  0  0  0  0  0  0  0  0
  139.1960   68.6460  224.8930 C   0  0  0  0  0  0  0  0  0  0  0  0
  139.8610   69.0150  226.0330 C   0  0  0  0  0  0  0  0  0  0  0  0
  140.1750   68.1400  227.0540 C   0  0  0  0  0  0  0  0  0  0  0  0
  140.8460   68.6120  228.1600 C   0  0  0  0  0  0  0  0  0  0  0  0
  141.1780   67.7770  229.2000 F   0  0  0  0  0  0  0  0  0  0  0  0
  141.2270   69.9290  228.3020 C   0  0  0  0  0  0  0  0  0  0  0  0
  140.9130   70.8090  227.2780 C   0  0  0  0  0  0  0  0  0  0  0  0
  140.2420   70.3300  226.1750 C   0  0  0  0  0  0  0  0  0  0  0  0
  139.9480   71.2000  225.1940 N   0  0  0  0  0  0  0  0  0  0  0  0
  140.9660   72.6370  223.0400 H   0  0  0  0  0  0  0  0  0  0  0  0
  139.3319   73.1967  220.6791 H   0  0  0  0  0  0  0  0  0  0  0  0
  138.9158   74.3907  221.9359 H   0  0  0  0  0  0  0  0  0  0  0  0
  141.9470   75.9386  219.1657 H   0  0  0  0  0  0  0  0  0  0  0  0
  140.3935   76.6971  219.0644 H   0  0  0  0  0  0  0  0  0  0  0  0
  142.8170   77.5792  220.8253 H   0  0  0  0  0  0  0  0  0  0  0  0
  142.1308   78.5507  219.5730 H   0  0  0  0  0  0  0  0  0  0  0  0
  139.8980   78.6852  220.8446 H   0  0  0  0  0  0  0  0  0  0  0  0
  143.2672   78.8130  221.8648 H   0  0  0  0  0  0  0  0  0  0  0  0
  144.1191   80.5479  223.4045 H   0  0  0  0  0  0  0  0  0  0  0  0
  142.5037   81.9638  224.6548 H   0  0  0  0  0  0  0  0  0  0  0  0
  139.2572   79.9150  222.8252 H   0  0  0  0  0  0  0  0  0  0  0  0
  140.9117   76.7773  222.9010 H   0  0  0  0  0  0  0  0  0  0  0  0
  139.3265   76.8139  222.1093 H   0  0  0  0  0  0  0  0  0  0  0  0
  138.3582   69.2281  222.9738 H   0  0  0  0  0  0  0  0  0  0  0  0
  138.8907   67.5957  224.7762 H   0  0  0  0  0  0  0  0  0  0  0  0
  139.8927   67.0791  226.9847 H   0  0  0  0  0  0  0  0  0  0  0  0
  141.7633   70.2709  229.1995 H   0  0  0  0  0  0  0  0  0  0  0  0
  141.1946   71.8702  227.3453 H   0  0  0  0  0  0  0  0  0  0  0  0
  1  2  2  0
  2  3  1  0
  3  4  1  0
  4  5  1  0
  5  6  2  0
  5  7  1  0
  7  8  1  0
  8  9  1  0
  9 10  1  0
 10 11  1  0
 11 12  2  0
 12 13  1  0
 13 14  2  0
 14 15  1  0
 15 16  2  0
 10 17  1  0
  2 18  1  0
 18 19  2  0
 19 20  1  0
 20 21  2  0
 21 22  1  0
 22 23  2  0
 23 24  1  0
 23 25  1  0
 25 26  2  0
 26 27  1  0
 27 28  2  0
 17  7  1  0
 28 18  1  0
 16 11  1  0
 27 21  1  0
  3 29  1  0
  4 30  1  0
  4 31  1  0
  8 32  1  0
  8 33  1  0
  9 34  1  0
  9 35  1  0
 10 36  1  6
 12 37  1  0
 13 38  1  0
 14 39  1  0
 16 40  1  0
 17 41  1  0
 17 42  1  0
 19 43  1  0
 20 44  1  0
 22 45  1  0
 25 46  1  0
 26 47  1  0
M  END
>  <smiles>  (50) 
O=C(NCC(=O)N1CC[C@H](c2cccnc2)C1)c1ccc2cc(F)ccc2n1

>  <score_type>  (50) 
oracle

>  <origin>  (50) 
autodockgpu

>  <m_score__min__energy>  (50) 
-8.6600000000000001

>  <m_primary>  (50) 
energy

>  <rmsd>  (50) 
2.4084028532903448

>  <m_score__min__rmsd>  (50) 
2.4084028532903448

>  <meeko>  (50) 
{"free_energy": -8.14, "intermolecular_energy": -9.63, "internal_energy": -1.3, "cluster_size": 39, "cluster_id": 1, "rank_in_cluster": 33}

>  <energy>  (50) 
-8.04

>  <cluster_rmsd>  (50) 
1.12

>  <cluster>  (50) 
3

$$$$
