
     RDKit          3D

 47 50  0  0  0  0  0  0  0  0999 V2000
  138.9300   75.1190  222.2020 O   0  0  0  0  0  0  0  0  0  0  0  0
  140.0750   75.6580  222.1460 C   0  0  0  0  0  0  0  0  0  0  0  0
  141.2400   74.9070  221.7540 N   0  0  0  0  0  0  0  0  0  0  0  0
  141.0920   73.4960  221.4170 C   0  0  0  0  0  0  0  0  0  0  0  0
  141.7980   73.1870  220.1740 C   0  0  0  0  0  0  0  0  0  0  0  0
  141.1010   72.6180  219.2540 O   0  0  0  0  0  0  0  0  0  0  0  0
  143.1430   73.4290  219.8510 N   0  0  0  0  0  0  0  0  0  0  0  0
  144.1320   72.3080  219.9620 C   0  0  0  0  0  0  0  0  0  0  0  0
  145.2820   73.0380  220.6210 C   0  0  0  0  0  0  0  0  0  0  0  0
  145.0260   74.5220  220.4710 C   0  0  0  0  0  0  0  0  0  0  0  0
  143.9280   74.5240  219.4270 C   0  0  2  0  0  0  0  0  0  0  0  0
  143.3610   75.8190  219.1680 C   0  0  0  0  0  0  0  0  0  0  0  0
  143.4530   76.3160  217.8500 C   0  0  0  0  0  0  0  0  0  0  0  0
  142.9200   77.5410  217.5100 C   0  0  0  0  0  0  0  0  0  0  0  0
  142.2780   78.3250  218.4440 C   0  0  0  0  0  0  0  0  0  0  0  0
  142.1990   77.8220  219.7260 C   0  0  0  0  0  0  0  0  0  0  0  0
  142.7260   76.6300  220.0250 N   0  0  0  0  0  0  0  0  0  0  0  0
  140.2390   77.0760  222.4810 C   0  0  0  0  0  0  0  0  0  0  0  0
  139.1220   77.8630  222.6490 C   0  0  0  0  0  0  0  0  0  0  0  0
  139.2210   79.2000  222.9650 C   0  0  0  0  0  0  0  0  0  0  0  0
  140.4670   79.7470  223.1120 C   0  0  0  0  0  0  0  0  0  0  0  0
  140.6180   81.0890  223.4290 C   0  0  0  0  0  0  0  0  0  0  0  0
  141.8670   81.6450  223.5780 C   0  0  0  0  0  0  0  0  0  0  0  0
  143.0090   80.8720  223.4130 C   0  0  0  0  0  0  0  0  0  0  0  0
  142.8440   79.5210  223.0930 C   0  0  0  0  0  0  0  0  0  0  0  0
  141.5960   78.9560  222.9430 C   0  0  0  0  0  0  0  0  0  0  0  0
  141.4460   77.6490  222.6330 N   0  0  0  0  0  0  0  0  0  0  0  0
  142.1460   75.4190  221.7300 H   0  0  0  0  0  0  0  0  0  0  0  0
  141.5083   72.8843  222.2309 H   0  0  0  0  0  0  0  0  0  0  0  0
  140.0231   73.2737  221.2825 H   0  0  0  0  0  0  0  0  0  0  0  0
  143.7530   71.4898  220.5920 H   0  0  0  0  0  0  0  0  0  0  0  0
  144.3806   71.8131  219.0116 H   0  0  0  0  0  0  0  0  0  0  0  0
  145.3339   72.7719  221.6871 H   0  0  0  0  0  0  0  0  0  0  0  0
  146.2368   72.7606  220.1506 H   0  0  0  0  0  0  0  0  0  0  0  0
  144.6853   74.9704  221.4159 H   0  0  0  0  0  0  0  0  0  0  0  0
  145.9144   75.1089  220.1947 H   0  0  0  0  0  0  0  0  0  0  0  0
  144.2202   74.3627  218.3789 H   0  0  0  0  0  0  0  0  0  0  0  0
  143.9592   75.7149  217.0803 H   0  0  0  0  0  0  0  0  0  0  0  0
  143.0088   77.8994  216.4738 H   0  0  0  0  0  0  0  0  0  0  0  0
  141.8498   79.3033  218.1803 H   0  0  0  0  0  0  0  0  0  0  0  0
  141.6973   78.4075  220.5105 H   0  0  0  0  0  0  0  0  0  0  0  0
  138.1256   77.4129  222.5279 H   0  0  0  0  0  0  0  0  0  0  0  0
  138.3183   79.8147  223.0964 H   0  0  0  0  0  0  0  0  0  0  0  0
  139.7255   81.7178  223.5632 H   0  0  0  0  0  0  0  0  0  0  0  0
  141.9624   82.7115  223.8301 H   0  0  0  0  0  0  0  0  0  0  0  0
  144.0117   81.3089  223.5304 H   0  0  0  0  0  0  0  0  0  0  0  0
  143.7356   78.8912  222.9571 H   0  0  0  0  0  0  0  0  0  0  0  0
  1  2  2  0
  2  3  1  0
  3  4  1  0
  4  5  1  0
  5  6  2  0
  5  7  1  0
  7  8  1  0
  8  9  1  0
  9 10  1  0
 10 11  1  0
 11 12  1  0
 12 13  2  0
 13 14  1  0
 14 15  2  0
 15 16  1  0
 16 17  2  0
  2 18  1  0
 18 19  2  0
 19 20  1  0
 20 21  2  0
 21 22  1  0
 22 23  2  0
 23 24  1  0
 24 25  2  0
 25 26  1  0
 26 27  2  0
 11  7  1  0
 17 12  1  0
 27 18  1  0
 26 21  1  0
  3 28  1  0
  4 29  1  0
  4 30  1  0
  8 31  1  0
  8 32  1  0
  9 33  1  0
  9 34  1  0
 10 35  1  0
 10 36  1  0
 11 37  1  6
 13 38  1  0
 14 39  1  0
 15 40  1  0
 16 41  1  0
 19 42  1  0
 20 43  1  0
 22 44  1  0
 23 45  1  0
 24 46  1  0
 25 47  1  0
M  END
>  <smiles>  (1) 
O=C(NCC(=O)N1CCCC1c1ccccn1)c1ccc2ccccc2n1

>  <score_type>  (1) 
oracle

>  <origin>  (1) 
autodockgpu

>  <m_score__min__energy>  (1) 
-8.9600000000000009

>  <m_primary>  (1) 
energy

>  <rmsd>  (1) 
7.367531141831351

>  <m_score__min__rmsd>  (1) 
7.367531141831351

>  <meeko>  (1) 
{"free_energy": -7.23, "intermolecular_energy": -8.72, "internal_energy": -2.9, "cluster_size": 18, "cluster_id": 5, "rank_in_cluster": 1}

>  <energy>  (1) 
-8.96

>  <cluster_rmsd>  (1) 
0.0

>  <cluster>  (1) 
1

$$$$

     RDKit          3D

 47 50  0  0  0  0  0  0  0  0999 V2000
  140.2110   71.3020  221.2930 O   0  0  0  0  0  0  0  0  0  0  0  0
  139.9920   71.9180  222.3770 C   0  0  0  0  0  0  0  0  0  0  0  0
  139.7260   73.3340  222.3970 N   0  0  0  0  0  0  0  0  0  0  0  0
  139.7120   74.0690  221.1390 C   0  0  0  0  0  0  0  0  0  0  0  0
  140.1320   75.4540  221.3470 C   0  0  0  0  0  0  0  0  0  0  0  0
  140.1670   75.8570  222.5690 O   0  0  0  0  0  0  0  0  0  0  0  0
  140.5020   76.4080  220.3850 N   0  0  0  0  0  0  0  0  0  0  0  0
  140.5620   76.0040  218.9430 C   0  0  0  0  0  0  0  0  0  0  0  0
  141.8560   76.6750  218.5370 C   0  0  0  0  0  0  0  0  0  0  0  0
  142.2000   77.6880  219.6070 C   0  0  0  0  0  0  0  0  0  0  0  0
  140.8910   77.7650  220.3660 C   0  0  2  0  0  0  0  0  0  0  0  0
  140.9460   78.5640  221.5600 C   0  0  0  0  0  0  0  0  0  0  0  0
  142.2000   79.1050  221.9200 C   0  0  0  0  0  0  0  0  0  0  0  0
  142.3400   79.8980  223.0390 C   0  0  0  0  0  0  0  0  0  0  0  0
  141.2620   80.1910  223.8460 C   0  0  0  0  0  0  0  0  0  0  0  0
  140.0470   79.6520  223.4780 C   0  0  0  0  0  0  0  0  0  0  0  0
  139.9430   78.8860  222.3860 N   0  0  0  0  0  0  0  0  0  0  0  0
  140.0020   71.1920  223.6510 C   0  0  0  0  0  0  0  0  0  0  0  0
  139.5260   69.9010  223.6960 C   0  0  0  0  0  0  0  0  0  0  0  0
  139.5140   69.1750  224.8670 C   0  0  0  0  0  0  0  0  0  0  0  0
  139.9900   69.7650  226.0070 C   0  0  0  0  0  0  0  0  0  0  0  0
  139.9980   69.0740  227.2100 C   0  0  0  0  0  0  0  0  0  0  0  0
  140.4740   69.6600  228.3590 C   0  0  0  0  0  0  0  0  0  0  0  0
  140.9600   70.9610  228.3400 C   0  0  0  0  0  0  0  0  0  0  0  0
  140.9460   71.6470  227.1210 C   0  0  0  0  0  0  0  0  0  0  0  0
  140.4710   71.0670  225.9650 C   0  0  0  0  0  0  0  0  0  0  0  0
  140.4610   71.7370  224.7920 N   0  0  0  0  0  0  0  0  0  0  0  0
  139.5550   73.7690  223.3270 H   0  0  0  0  0  0  0  0  0  0  0  0
  140.4001   73.5852  220.4301 H   0  0  0  0  0  0  0  0  0  0  0  0
  138.6877   74.0657  220.7379 H   0  0  0  0  0  0  0  0  0  0  0  0
  140.6145   74.9114  218.8268 H   0  0  0  0  0  0  0  0  0  0  0  0
  139.6841   76.2891  218.3446 H   0  0  0  0  0  0  0  0  0  0  0  0
  142.6580   75.9264  218.4572 H   0  0  0  0  0  0  0  0  0  0  0  0
  141.7464   77.1671  217.5594 H   0  0  0  0  0  0  0  0  0  0  0  0
  143.0192   77.3337  220.2499 H   0  0  0  0  0  0  0  0  0  0  0  0
  142.5558   78.6537  219.2187 H   0  0  0  0  0  0  0  0  0  0  0  0
  140.0778   78.3571  219.9209 H   0  0  0  0  0  0  0  0  0  0  0  0
  143.0804   78.8898  221.2966 H   0  0  0  0  0  0  0  0  0  0  0  0
  143.3303   80.3043  223.2924 H   0  0  0  0  0  0  0  0  0  0  0  0
  141.3655   80.8237  224.7398 H   0  0  0  0  0  0  0  0  0  0  0  0
  139.1545   79.8539  224.0884 H   0  0  0  0  0  0  0  0  0  0  0  0
  139.1457   69.4374  222.7738 H   0  0  0  0  0  0  0  0  0  0  0  0
  139.1305   68.1442  224.8855 H   0  0  0  0  0  0  0  0  0  0  0  0
  139.6180   68.0423  227.2450 H   0  0  0  0  0  0  0  0  0  0  0  0
  140.4699   69.0934  229.3018 H   0  0  0  0  0  0  0  0  0  0  0  0
  141.3438   71.4368  229.2545 H   0  0  0  0  0  0  0  0  0  0  0  0
  141.3250   72.6790  227.0843 H   0  0  0  0  0  0  0  0  0  0  0  0
  1  2  2  0
  2  3  1  0
  3  4  1  0
  4  5  1  0
  5  6  2  0
  5  7  1  0
  7  8  1  0
  8  9  1  0
  9 10  1  0
 10 11  1  0
 11 12  1  0
 12 13  2  0
 13 14  1  0
 14 15  2  0
 15 16  1  0
 16 17  2  0
  2 18  1  0
 18 19  2  0
 19 20  1  0
 20 21  2  0
 21 22  1  0
 22 23  2  0
 23 24  1  0
 24 25  2  0
 25 26  1  0
 26 27  2  0
 11  7  1  0
 17 12  1  0
 27 18  1  0
 26 21  1  0
  3 28  1  0
  4 29  1  0
  4 30  1  0
  8 31  1  0
  8 32  1  0
  9 33  1  0
  9 34  1  0
 10 35  1  0
 10 36  1  0
 11 37  1  6
 13 38  1  0
 14 39  1  0
 15 40  1  0
 16 41  1  0
 19 42  1  0
 20 43  1  0
 22 44  1  0
 23 45  1  0
 24 46  1  0
 25 47  1  0
M  END
>  <smiles>  (2) 
O=C(NCC(=O)N1CCCC1c1ccccn1)c1ccc2ccccc2n1

>  <score_type>  (2) 
oracle

>  <origin>  (2) 
autodockgpu

>  <m_score__min__energy>  (2) 
-8.9600000000000009

>  <m_primary>  (2) 
energy

>  <rmsd>  (2) 
1.9526319779920969

>  <m_score__min__rmsd>  (2) 
1.9526319779920969

>  <meeko>  (2) 
{"free_energy": -8.33, "intermolecular_energy": -9.82, "internal_energy": -1.8, "cluster_size": 15, "cluster_id": 1, "rank_in_cluster": 8}

>  <energy>  (2) 
-8.69

>  <cluster_rmsd>  (2) 
1.97

>  <cluster>  (2) 
1

$$$$

     RDKit          3D

 47 50  0  0  0  0  0  0  0  0999 V2000
  138.8930   75.0190  222.0280 O   0  0  0  0  0  0  0  0  0  0  0  0
  140.0440   75.5470  222.0090 C   0  0  0  0  0  0  0  0  0  0  0  0
  141.2090   74.7950  221.6170 N   0  0  0  0  0  0  0  0  0  0  0  0
  141.0530   73.3960  221.2370 C   0  0  0  0  0  0  0  0  0  0  0  0
  141.8770   73.0860  220.0690 C   0  0  0  0  0  0  0  0  0  0  0  0
  141.2890   72.4570  219.1130 O   0  0  0  0  0  0  0  0  0  0  0  0
  143.2320   73.3840  219.8530 N   0  0  0  0  0  0  0  0  0  0  0  0
  144.2550   72.3050  220.0440 C   0  0  0  0  0  0  0  0  0  0  0  0
  145.3180   73.0810  220.7910 C   0  0  0  0  0  0  0  0  0  0  0  0
  145.0140   74.5530  220.6180 C   0  0  0  0  0  0  0  0  0  0  0  0
  144.0020   74.5100  219.4910 C   0  0  2  0  0  0  0  0  0  0  0  0
  143.4040   75.7820  219.1860 C   0  0  0  0  0  0  0  0  0  0  0  0
  143.4880   76.2340  217.8510 C   0  0  0  0  0  0  0  0  0  0  0  0
  142.9250   77.4330  217.4670 C   0  0  0  0  0  0  0  0  0  0  0  0
  142.2620   78.2330  218.3730 C   0  0  0  0  0  0  0  0  0  0  0  0
  142.1920   77.7740  219.6710 C   0  0  0  0  0  0  0  0  0  0  0  0
  142.7470   76.6060  220.0130 N   0  0  0  0  0  0  0  0  0  0  0  0
  140.2150   76.9530  222.3880 C   0  0  0  0  0  0  0  0  0  0  0  0
  139.1030   77.7400  222.5810 C   0  0  0  0  0  0  0  0  0  0  0  0
  139.2100   79.0660  222.9390 C   0  0  0  0  0  0  0  0  0  0  0  0
  140.4590   79.6010  223.1020 C   0  0  0  0  0  0  0  0  0  0  0  0
  140.6170   80.9320  223.4610 C   0  0  0  0  0  0  0  0  0  0  0  0
  141.8690   81.4760  223.6280 C   0  0  0  0  0  0  0  0  0  0  0  0
  143.0060   80.7020  223.4390 C   0  0  0  0  0  0  0  0  0  0  0  0
  142.8340   79.3630  223.0770 C   0  0  0  0  0  0  0  0  0  0  0  0
  141.5830   78.8100  222.9080 C   0  0  0  0  0  0  0  0  0  0  0  0
  141.4260   77.5140  222.5580 N   0  0  0  0  0  0  0  0  0  0  0  0
  142.1200   75.2980  221.6260 H   0  0  0  0  0  0  0  0  0  0  0  0
  141.3612   72.7564  222.0772 H   0  0  0  0  0  0  0  0  0  0  0  0
  139.9979   73.2116  220.9863 H   0  0  0  0  0  0  0  0  0  0  0  0
  143.8615   71.4707  220.6433 H   0  0  0  0  0  0  0  0  0  0  0  0
  144.5986   71.8226  219.1171 H   0  0  0  0  0  0  0  0  0  0  0  0
  145.2957   72.8160  221.8584 H   0  0  0  0  0  0  0  0  0  0  0  0
  146.3179   72.8436  220.3987 H   0  0  0  0  0  0  0  0  0  0  0  0
  144.5821   74.9863  221.5322 H   0  0  0  0  0  0  0  0  0  0  0  0
  145.8963   75.1765  220.4110 H   0  0  0  0  0  0  0  0  0  0  0  0
  144.3823   74.3611  218.4696 H   0  0  0  0  0  0  0  0  0  0  0  0
  144.0116   75.6191  217.1042 H   0  0  0  0  0  0  0  0  0  0  0  0
  143.0065   77.7568  216.4189 H   0  0  0  0  0  0  0  0  0  0  0  0
  141.8108   79.1909  218.0748 H   0  0  0  0  0  0  0  0  0  0  0  0
  141.6743   78.3746  220.4335 H   0  0  0  0  0  0  0  0  0  0  0  0
  138.1041   77.2996  222.4461 H   0  0  0  0  0  0  0  0  0  0  0  0
  138.3110   79.6814  223.0905 H   0  0  0  0  0  0  0  0  0  0  0  0
  139.7278   81.5612  223.6142 H   0  0  0  0  0  0  0  0  0  0  0  0
  141.9704   82.5334  223.9138 H   0  0  0  0  0  0  0  0  0  0  0  0
  144.0111   81.1293  223.5701 H   0  0  0  0  0  0  0  0  0  0  0  0
  143.7222   78.7328  222.9226 H   0  0  0  0  0  0  0  0  0  0  0  0
  1  2  2  0
  2  3  1  0
  3  4  1  0
  4  5  1  0
  5  6  2  0
  5  7  1  0
  7  8  1  0
  8  9  1  0
  9 10  1  0
 10 11  1  0
 11 12  1  0
 12 13  2  0
 13 14  1  0
 14 15  2  0
 15 16  1  0
 16 17  2  0
  2 18  1  0
 18 19  2  0
 19 20  1  0
 20 21  2  0
 21 22  1  0
 22 23  2  0
 23 24  1  0
 24 25  2  0
 25 26  1  0
 26 27  2  0
 11  7  1  0
 17 12  1  0
 27 18  1  0
 26 21  1  0
  3 28  1  0
  4 29  1  0
  4 30  1  0
  8 31  1  0
  8 32  1  0
  9 33  1  0
  9 34  1  0
 10 35  1  0
 10 36  1  0
 11 37  1  6
 13 38  1  0
 14 39  1  0
 15 40  1  0
 16 41  1  0
 19 42  1  0
 20 43  1  0
 22 44  1  0
 23 45  1  0
 24 46  1  0
 25 47  1  0
M  END
>  <smiles>  (3) 
O=C(NCC(=O)N1CCCC1c1ccccn1)c1ccc2ccccc2n1

>  <score_type>  (3) 
oracle

>  <origin>  (3) 
autodockgpu

>  <m_score__min__energy>  (3) 
-8.9600000000000009

>  <m_primary>  (3) 
energy

>  <rmsd>  (3) 
7.3225260013453735

>  <m_score__min__rmsd>  (3) 
7.3225260013453735

>  <meeko>  (3) 
{"free_energy": -7.17, "intermolecular_energy": -8.66, "internal_energy": -2.93, "cluster_size": 18, "cluster_id": 5, "rank_in_cluster": 13}

>  <energy>  (3) 
-8.68

>  <cluster_rmsd>  (3) 
0.99

>  <cluster>  (3) 
1

$$$$

     RDKit          3D

 47 50  0  0  0  0  0  0  0  0999 V2000
  136.0320   70.3400  223.6400 O   0  0  0  0  0  0  0  0  0  0  0  0
  135.9950   71.5730  223.9280 C   0  0  0  0  0  0  0  0  0  0  0  0
  136.9150   72.5110  223.3370 N   0  0  0  0  0  0  0  0  0  0  0  0
  137.9080   72.0250  222.3870 C   0  0  0  0  0  0  0  0  0  0  0  0
  139.0960   71.5390  223.0880 C   0  0  0  0  0  0  0  0  0  0  0  0
  139.9890   72.4230  223.3670 O   0  0  0  0  0  0  0  0  0  0  0  0
  139.3930   70.2300  223.4980 N   0  0  0  0  0  0  0  0  0  0  0  0
  139.2140   69.1030  222.5250 C   0  0  0  0  0  0  0  0  0  0  0  0
  138.5530   68.0820  223.4260 C   0  0  0  0  0  0  0  0  0  0  0  0
  138.7660   68.5300  224.8560 C   0  0  0  0  0  0  0  0  0  0  0  0
  139.8370   69.5860  224.6730 C   0  0  2  0  0  0  0  0  0  0  0  0
  140.1590   70.3130  225.8710 C   0  0  0  0  0  0  0  0  0  0  0  0
  141.0760   71.3810  225.7550 C   0  0  0  0  0  0  0  0  0  0  0  0
  141.4260   72.1420  226.8500 C   0  0  0  0  0  0  0  0  0  0  0  0
  140.8950   71.8890  228.0960 C   0  0  0  0  0  0  0  0  0  0  0  0
  140.0020   70.8420  228.1880 C   0  0  0  0  0  0  0  0  0  0  0  0
  139.6810   70.1210  227.1080 N   0  0  0  0  0  0  0  0  0  0  0  0
  135.0010   72.0770  224.8810 C   0  0  0  0  0  0  0  0  0  0  0  0
  134.2070   71.1830  225.5630 C   0  0  0  0  0  0  0  0  0  0  0  0
  133.2580   71.6040  226.4690 C   0  0  0  0  0  0  0  0  0  0  0  0
  133.1120   72.9470  226.6860 C   0  0  0  0  0  0  0  0  0  0  0  0
  132.1700   73.4190  227.5880 C   0  0  0  0  0  0  0  0  0  0  0  0
  132.0170   74.7680  227.8120 C   0  0  0  0  0  0  0  0  0  0  0  0
  132.8060   75.6890  227.1350 C   0  0  0  0  0  0  0  0  0  0  0  0
  133.7510   75.2010  226.2290 C   0  0  0  0  0  0  0  0  0  0  0  0
  133.9110   73.8520  225.9990 C   0  0  0  0  0  0  0  0  0  0  0  0
  134.8270   73.3890  225.1210 N   0  0  0  0  0  0  0  0  0  0  0  0
  136.8210   73.5080  223.6220 H   0  0  0  0  0  0  0  0  0  0  0  0
  137.4738   71.2031  221.7988 H   0  0  0  0  0  0  0  0  0  0  0  0
  138.2008   72.8533  221.7250 H   0  0  0  0  0  0  0  0  0  0  0  0
  138.5637   69.3881  221.6849 H   0  0  0  0  0  0  0  0  0  0  0  0
  140.1383   68.7610  222.0364 H   0  0  0  0  0  0  0  0  0  0  0  0
  137.4766   68.0281  223.2059 H   0  0  0  0  0  0  0  0  0  0  0  0
  138.9872   67.0844  223.2642 H   0  0  0  0  0  0  0  0  0  0  0  0
  137.8479   68.9564  225.2865 H   0  0  0  0  0  0  0  0  0  0  0  0
  139.0416   67.7205  225.5480 H   0  0  0  0  0  0  0  0  0  0  0  0
  140.8702   69.2428  224.5155 H   0  0  0  0  0  0  0  0  0  0  0  0
  141.5185   71.6095  224.7742 H   0  0  0  0  0  0  0  0  0  0  0  0
  142.1430   72.9671  226.7266 H   0  0  0  0  0  0  0  0  0  0  0  0
  141.1697   72.4922  228.9739 H   0  0  0  0  0  0  0  0  0  0  0  0
  139.5489   70.5972  229.1600 H   0  0  0  0  0  0  0  0  0  0  0  0
  134.3332   70.1057  225.3802 H   0  0  0  0  0  0  0  0  0  0  0  0
  132.6316   70.8764  227.0059 H   0  0  0  0  0  0  0  0  0  0  0  0
  131.5356   72.7041  228.1325 H   0  0  0  0  0  0  0  0  0  0  0  0
  131.2641   75.1197  228.5327 H   0  0  0  0  0  0  0  0  0  0  0  0
  132.6904   76.7693  227.3068 H   0  0  0  0  0  0  0  0  0  0  0  0
  134.3858   75.9146  225.6834 H   0  0  0  0  0  0  0  0  0  0  0  0
  1  2  2  0
  2  3  1  0
  3  4  1  0
  4  5  1  0
  5  6  2  0
  5  7  1  0
  7  8  1  0
  8  9  1  0
  9 10  1  0
 10 11  1  0
 11 12  1  0
 12 13  2  0
 13 14  1  0
 14 15  2  0
 15 16  1  0
 16 17  2  0
  2 18  1  0
 18 19  2  0
 19 20  1  0
 20 21  2  0
 21 22  1  0
 22 23  2  0
 23 24  1  0
 24 25  2  0
 25 26  1  0
 26 27  2  0
 11  7  1  0
 17 12  1  0
 27 18  1  0
 26 21  1  0
  3 28  1  0
  4 29  1  0
  4 30  1  0
  8 31  1  0
  8 32  1  0
  9 33  1  0
  9 34  1  0
 10 35  1  0
 10 36  1  0
 11 37  1  6
 13 38  1  0
 14 39  1  0
 15 40  1  0
 16 41  1  0
 19 42  1  0
 20 43  1  0
 22 44  1  0
 23 45  1  0
 24 46  1  0
 25 47  1  0
M  END
>  <smiles>  (4) 
O=C(NCC(=O)N1CCCC1c1ccccn1)c1ccc2ccccc2n1

>  <score_type>  (4) 
oracle

>  <origin>  (4) 
autodockgpu

>  <m_score__min__energy>  (4) 
-8.9600000000000009

>  <m_primary>  (4) 
energy

>  <rmsd>  (4) 
8.260944321953263

>  <m_score__min__rmsd>  (4) 
8.260944321953263

>  <meeko>  (4) 
{"free_energy": -7.63, "intermolecular_energy": -9.12, "internal_energy": -1.86, "cluster_size": 1, "cluster_id": 4, "rank_in_cluster": 1}

>  <energy>  (4) 
-8.67

>  <cluster_rmsd>  (4) 
0.98

>  <cluster>  (4) 
1

$$$$

     RDKit          3D

 47 50  0  0  0  0  0  0  0  0999 V2000
  141.3740   71.9040  221.3250 O   0  0  0  0  0  0  0  0  0  0  0  0
  140.5680   72.3460  222.1970 C   0  0  0  0  0  0  0  0  0  0  0  0
  139.9050   73.6140  222.0320 N   0  0  0  0  0  0  0  0  0  0  0  0
  140.1710   74.4010  220.8340 C   0  0  0  0  0  0  0  0  0  0  0  0
  141.0610   75.5210  221.1420 C   0  0  0  0  0  0  0  0  0  0  0  0
  141.0120   75.9670  222.3480 O   0  0  0  0  0  0  0  0  0  0  0  0
  141.9640   76.1770  220.2910 N   0  0  0  0  0  0  0  0  0  0  0  0
  141.5930   77.5160  219.7280 C   0  0  0  0  0  0  0  0  0  0  0  0
  142.0480   77.3340  218.2970 C   0  0  0  0  0  0  0  0  0  0  0  0
  142.9600   76.1270  218.2580 C   0  0  0  0  0  0  0  0  0  0  0  0
  143.2360   75.9240  219.7340 C   0  0  2  0  0  0  0  0  0  0  0  0
  143.9830   74.7330  220.0360 C   0  0  0  0  0  0  0  0  0  0  0  0
  143.4800   73.5100  219.5410 C   0  0  0  0  0  0  0  0  0  0  0  0
  144.1430   72.3220  219.7680 C   0  0  0  0  0  0  0  0  0  0  0  0
  145.3190   72.2860  220.4870 C   0  0  0  0  0  0  0  0  0  0  0  0
  145.7920   73.4910  220.9610 C   0  0  0  0  0  0  0  0  0  0  0  0
  145.1270   74.6270  220.7240 N   0  0  0  0  0  0  0  0  0  0  0  0
  140.2900   71.5640  223.4060 C   0  0  0  0  0  0  0  0  0  0  0  0
  139.5810   70.3890  223.3010 C   0  0  0  0  0  0  0  0  0  0  0  0
  139.2930   69.6180  224.4060 C   0  0  0  0  0  0  0  0  0  0  0  0
  139.7290   70.0430  225.6320 C   0  0  0  0  0  0  0  0  0  0  0  0
  139.4640   69.3010  226.7730 C   0  0  0  0  0  0  0  0  0  0  0  0
  139.8990   69.7210  228.0080 C   0  0  0  0  0  0  0  0  0  0  0  0
  140.6170   70.9030  228.1390 C   0  0  0  0  0  0  0  0  0  0  0  0
  140.8770   71.6420  226.9820 C   0  0  0  0  0  0  0  0  0  0  0  0
  140.4450   71.2280  225.7410 C   0  0  0  0  0  0  0  0  0  0  0  0
  140.7010   71.9490  224.6270 N   0  0  0  0  0  0  0  0  0  0  0  0
  139.2560   73.9100  222.7910 H   0  0  0  0  0  0  0  0  0  0  0  0
  140.6460   73.7590  220.0775 H   0  0  0  0  0  0  0  0  0  0  0  0
  139.2193   74.7985  220.4516 H   0  0  0  0  0  0  0  0  0  0  0  0
  140.5104   77.7001  219.7919 H   0  0  0  0  0  0  0  0  0  0  0  0
  142.0366   78.3770  220.2494 H   0  0  0  0  0  0  0  0  0  0  0  0
  141.1779   77.1682  217.6448 H   0  0  0  0  0  0  0  0  0  0  0  0
  142.5777   78.2306  217.9426 H   0  0  0  0  0  0  0  0  0  0  0  0
  142.4559   75.2541  217.8177 H   0  0  0  0  0  0  0  0  0  0  0  0
  143.8620   76.2604  217.6426 H   0  0  0  0  0  0  0  0  0  0  0  0
  143.9671   76.5918  220.2130 H   0  0  0  0  0  0  0  0  0  0  0  0
  142.5432   73.5046  218.9644 H   0  0  0  0  0  0  0  0  0  0  0  0
  143.7259   71.3860  219.3681 H   0  0  0  0  0  0  0  0  0  0  0  0
  145.8532   71.3426  220.6731 H   0  0  0  0  0  0  0  0  0  0  0  0
  146.7266   73.5185  221.5405 H   0  0  0  0  0  0  0  0  0  0  0  0
  139.2358   70.0573  222.3106 H   0  0  0  0  0  0  0  0  0  0  0  0
  138.7251   68.6813  224.3052 H   0  0  0  0  0  0  0  0  0  0  0  0
  138.8972   68.3621  226.6889 H   0  0  0  0  0  0  0  0  0  0  0  0
  139.6766   69.1161  228.8994 H   0  0  0  0  0  0  0  0  0  0  0  0
  140.9698   71.2464  229.1227 H   0  0  0  0  0  0  0  0  0  0  0  0
  141.4430   72.5816  227.0644 H   0  0  0  0  0  0  0  0  0  0  0  0
  1  2  2  0
  2  3  1  0
  3  4  1  0
  4  5  1  0
  5  6  2  0
  5  7  1  0
  7  8  1  0
  8  9  1  0
  9 10  1  0
 10 11  1  0
 11 12  1  0
 12 13  2  0
 13 14  1  0
 14 15  2  0
 15 16  1  0
 16 17  2  0
  2 18  1  0
 18 19  2  0
 19 20  1  0
 20 21  2  0
 21 22  1  0
 22 23  2  0
 23 24  1  0
 24 25  2  0
 25 26  1  0
 26 27  2  0
 11  7  1  0
 17 12  1  0
 27 18  1  0
 26 21  1  0
  3 28  1  0
  4 29  1  0
  4 30  1  0
  8 31  1  0
  8 32  1  0
  9 33  1  0
  9 34  1  0
 10 35  1  0
 10 36  1  0
 11 37  1  1
 13 38  1  0
 14 39  1  0
 15 40  1  0
 16 41  1  0
 19 42  1  0
 20 43  1  0
 22 44  1  0
 23 45  1  0
 24 46  1  0
 25 47  1  0
M  END
>  <smiles>  (5) 
O=C(NCC(=O)N1CCCC1c1ccccn1)c1ccc2ccccc2n1

>  <score_type>  (5) 
oracle

>  <origin>  (5) 
autodockgpu

>  <m_score__min__energy>  (5) 
-8.9600000000000009

>  <m_primary>  (5) 
energy

>  <rmsd>  (5) 
4.247999369260108

>  <m_score__min__rmsd>  (5) 
4.247999369260108

>  <meeko>  (5) 
{"free_energy": -8.3, "intermolecular_energy": -9.79, "internal_energy": -1.67, "cluster_size": 12, "cluster_id": 2, "rank_in_cluster": 11}

>  <energy>  (5) 
-8.66

>  <cluster_rmsd>  (5) 
0.99

>  <cluster>  (5) 
1

$$$$

     RDKit          3D

 47 50  0  0  0  0  0  0  0  0999 V2000
  140.6070   74.0480  220.2920 O   0  0  0  0  0  0  0  0  0  0  0  0
  140.2900   74.7670  221.2860 C   0  0  0  0  0  0  0  0  0  0  0  0
  139.4420   74.2640  222.3370 N   0  0  0  0  0  0  0  0  0  0  0  0
  138.9400   72.8990  222.2480 C   0  0  0  0  0  0  0  0  0  0  0  0
  139.8540   71.9710  222.9150 C   0  0  0  0  0  0  0  0  0  0  0  0
  141.0630   72.3820  223.0710 O   0  0  0  0  0  0  0  0  0  0  0  0
  139.5850   70.6830  223.4070 N   0  0  0  0  0  0  0  0  0  0  0  0
  139.0310   69.6480  222.4750 C   0  0  0  0  0  0  0  0  0  0  0  0
  137.9700   69.0370  223.3640 C   0  0  0  0  0  0  0  0  0  0  0  0
  138.2600   69.4700  224.7840 C   0  0  0  0  0  0  0  0  0  0  0  0
  139.6700   70.0070  224.6430 C   0  0  2  0  0  0  0  0  0  0  0  0
  140.1840   70.6360  225.8280 C   0  0  0  0  0  0  0  0  0  0  0  0
  139.8740   70.0360  227.0680 C   0  0  0  0  0  0  0  0  0  0  0  0
  140.3420   70.5630  228.2530 C   0  0  0  0  0  0  0  0  0  0  0  0
  141.1280   71.6950  228.2700 C   0  0  0  0  0  0  0  0  0  0  0  0
  141.4190   72.2660  227.0500 C   0  0  0  0  0  0  0  0  0  0  0  0
  140.9510   71.7310  225.9170 N   0  0  0  0  0  0  0  0  0  0  0  0
  140.7880   76.1420  221.3890 C   0  0  0  0  0  0  0  0  0  0  0  0
  141.1880   76.8020  220.2490 C   0  0  0  0  0  0  0  0  0  0  0  0
  141.6630   78.0950  220.2900 C   0  0  0  0  0  0  0  0  0  0  0  0
  141.7340   78.7260  221.5030 C   0  0  0  0  0  0  0  0  0  0  0  0
  142.2060   80.0270  221.5950 C   0  0  0  0  0  0  0  0  0  0  0  0
  142.2800   80.6680  222.8090 C   0  0  0  0  0  0  0  0  0  0  0  0
  141.8830   80.0240  223.9740 C   0  0  0  0  0  0  0  0  0  0  0  0
  141.4100   78.7130  223.8670 C   0  0  0  0  0  0  0  0  0  0  0  0
  141.3320   78.0630  222.6540 C   0  0  0  0  0  0  0  0  0  0  0  0
  140.8740   76.7960  222.5610 N   0  0  0  0  0  0  0  0  0  0  0  0
  139.2270   74.9140  223.1210 H   0  0  0  0  0  0  0  0  0  0  0  0
  137.9531   72.8443  222.7307 H   0  0  0  0  0  0  0  0  0  0  0  0
  138.8602   72.6183  221.1874 H   0  0  0  0  0  0  0  0  0  0  0  0
  138.5959   70.1020  221.5725 H   0  0  0  0  0  0  0  0  0  0  0  0
  139.7708   68.9365  222.0794 H   0  0  0  0  0  0  0  0  0  0  0  0
  136.9747   69.3924  223.0591 H   0  0  0  0  0  0  0  0  0  0  0  0
  137.9829   67.9400  223.2838 H   0  0  0  0  0  0  0  0  0  0  0  0
  137.5620   70.2518  225.1180 H   0  0  0  0  0  0  0  0  0  0  0  0
  138.1530   68.6703  225.5317 H   0  0  0  0  0  0  0  0  0  0  0  0
  140.4912   69.2772  224.5884 H   0  0  0  0  0  0  0  0  0  0  0  0
  139.2478   69.1319  227.0890 H   0  0  0  0  0  0  0  0  0  0  0  0
  140.0833   70.0710  229.2022 H   0  0  0  0  0  0  0  0  0  0  0  0
  141.5046   72.1218  229.2113 H   0  0  0  0  0  0  0  0  0  0  0  0
  142.0426   73.1711  227.0076 H   0  0  0  0  0  0  0  0  0  0  0  0
  141.1269   76.2840  219.2805 H   0  0  0  0  0  0  0  0  0  0  0  0
  141.9778   78.6083  219.3694 H   0  0  0  0  0  0  0  0  0  0  0  0
  142.5257   80.5534  220.6836 H   0  0  0  0  0  0  0  0  0  0  0  0
  142.6570   81.7002  222.8582 H   0  0  0  0  0  0  0  0  0  0  0  0
  141.9390   80.5295  224.9494 H   0  0  0  0  0  0  0  0  0  0  0  0
  141.0907   78.1846  224.7774 H   0  0  0  0  0  0  0  0  0  0  0  0
  1  2  2  0
  2  3  1  0
  3  4  1  0
  4  5  1  0
  5  6  2  0
  5  7  1  0
  7  8  1  0
  8  9  1  0
  9 10  1  0
 10 11  1  0
 11 12  1  0
 12 13  2  0
 13 14  1  0
 14 15  2  0
 15 16  1  0
 16 17  2  0
  2 18  1  0
 18 19  2  0
 19 20  1  0
 20 21  2  0
 21 22  1  0
 22 23  2  0
 23 24  1  0
 24 25  2  0
 25 26  1  0
 26 27  2  0
 11  7  1  0
 17 12  1  0
 27 18  1  0
 26 21  1  0
  3 28  1  0
  4 29  1  0
  4 30  1  0
  8 31  1  0
  8 32  1  0
  9 33  1  0
  9 34  1  0
 10 35  1  0
 10 36  1  0
 11 37  1  6
 13 38  1  0
 14 39  1  0
 15 40  1  0
 16 41  1  0
 19 42  1  0
 20 43  1  0
 22 44  1  0
 23 45  1  0
 24 46  1  0
 25 47  1  0
M  END
>  <smiles>  (6) 
O=C(NCC(=O)N1CCCC1c1ccccn1)c1ccc2ccccc2n1

>  <score_type>  (6) 
oracle

>  <origin>  (6) 
autodockgpu

>  <m_score__min__energy>  (6) 
-8.9600000000000009

>  <m_primary>  (6) 
energy

>  <rmsd>  (6) 
9.084899690331357

>  <m_score__min__rmsd>  (6) 
9.084899690331357

>  <meeko>  (6) 
{"free_energy": -8.68, "intermolecular_energy": -10.17, "internal_energy": -1.47, "cluster_size": 15, "cluster_id": 1, "rank_in_cluster": 3}

>  <energy>  (6) 
-8.44

>  <cluster_rmsd>  (6) 
0.84

>  <cluster>  (6) 
1

$$$$

     RDKit          3D

 47 50  0  0  0  0  0  0  0  0999 V2000
  138.7700   75.3950  221.7350 O   0  0  0  0  0  0  0  0  0  0  0  0
  139.9540   75.8340  221.8250 C   0  0  0  0  0  0  0  0  0  0  0  0
  141.0850   75.0370  221.4210 N   0  0  0  0  0  0  0  0  0  0  0  0
  140.8530   73.6970  220.8970 C   0  0  0  0  0  0  0  0  0  0  0  0
  142.0800   72.9030  220.9560 C   0  0  0  0  0  0  0  0  0  0  0  0
  142.0060   71.7950  221.6060 O   0  0  0  0  0  0  0  0  0  0  0  0
  143.3350   73.1920  220.3950 N   0  0  0  0  0  0  0  0  0  0  0  0
  144.4460   72.1970  220.5430 C   0  0  0  0  0  0  0  0  0  0  0  0
  145.5880   73.1290  220.8860 C   0  0  0  0  0  0  0  0  0  0  0  0
  145.1540   74.5340  220.5260 C   0  0  0  0  0  0  0  0  0  0  0  0
  143.9310   74.2510  219.6770 C   0  0  2  0  0  0  0  0  0  0  0  0
  143.1970   75.4250  219.2910 C   0  0  0  0  0  0  0  0  0  0  0  0
  142.5280   75.3920  218.0480 C   0  0  0  0  0  0  0  0  0  0  0  0
  141.7850   76.4670  217.6090 C   0  0  0  0  0  0  0  0  0  0  0  0
  141.6690   77.6130  218.3670 C   0  0  0  0  0  0  0  0  0  0  0  0
  142.3290   77.6250  219.5770 C   0  0  0  0  0  0  0  0  0  0  0  0
  143.0420   76.5660  219.9760 N   0  0  0  0  0  0  0  0  0  0  0  0
  140.2020   77.1810  222.3500 C   0  0  0  0  0  0  0  0  0  0  0  0
  139.1360   77.9640  222.7290 C   0  0  0  0  0  0  0  0  0  0  0  0
  139.3140   79.2360  223.2280 C   0  0  0  0  0  0  0  0  0  0  0  0
  140.5890   79.7210  223.3430 C   0  0  0  0  0  0  0  0  0  0  0  0
  140.8190   80.9950  223.8390 C   0  0  0  0  0  0  0  0  0  0  0  0
  142.0970   81.4890  223.9580 C   0  0  0  0  0  0  0  0  0  0  0  0
  143.1890   80.7180  223.5810 C   0  0  0  0  0  0  0  0  0  0  0  0
  142.9440   79.4360  223.0820 C   0  0  0  0  0  0  0  0  0  0  0  0
  141.6670   78.9330  222.9610 C   0  0  0  0  0  0  0  0  0  0  0  0
  141.4400   77.6920  222.4770 N   0  0  0  0  0  0  0  0  0  0  0  0
  142.0270   75.4680  221.5240 H   0  0  0  0  0  0  0  0  0  0  0  0
  140.0738   73.2039  221.4968 H   0  0  0  0  0  0  0  0  0  0  0  0
  140.5314   73.7765  219.8481 H   0  0  0  0  0  0  0  0  0  0  0  0
  144.2468   71.4798  221.3529 H   0  0  0  0  0  0  0  0  0  0  0  0
  144.6167   71.5584  219.6638 H   0  0  0  0  0  0  0  0  0  0  0  0
  145.8114   73.0691  221.9614 H   0  0  0  0  0  0  0  0  0  0  0  0
  146.4954   72.8500  220.3304 H   0  0  0  0  0  0  0  0  0  0  0  0
  144.8975   75.1193  221.4213 H   0  0  0  0  0  0  0  0  0  0  0  0
  145.9273   75.1320  220.0216 H   0  0  0  0  0  0  0  0  0  0  0  0
  144.0941   73.9229  218.6398 H   0  0  0  0  0  0  0  0  0  0  0  0
  142.6010   74.4926  217.4189 H   0  0  0  0  0  0  0  0  0  0  0  0
  141.2752   76.4095  216.6359 H   0  0  0  0  0  0  0  0  0  0  0  0
  141.0788   78.4752  218.0230 H   0  0  0  0  0  0  0  0  0  0  0  0
  142.2687   78.5146  220.2211 H   0  0  0  0  0  0  0  0  0  0  0  0
  138.1158   77.5644  222.6312 H   0  0  0  0  0  0  0  0  0  0  0  0
  138.4506   79.8483  223.5274 H   0  0  0  0  0  0  0  0  0  0  0  0
  139.9663   81.6203  224.1420 H   0  0  0  0  0  0  0  0  0  0  0  0
  142.2555   82.5026  224.3548 H   0  0  0  0  0  0  0  0  0  0  0  0
  144.2148   81.1045  223.6724 H   0  0  0  0  0  0  0  0  0  0  0  0
  143.7955   78.8101  222.7769 H   0  0  0  0  0  0  0  0  0  0  0  0
  1  2  2  0
  2  3  1  0
  3  4  1  0
  4  5  1  0
  5  6  2  0
  5  7  1  0
  7  8  1  0
  8  9  1  0
  9 10  1  0
 10 11  1  0
 11 12  1  0
 12 13  2  0
 13 14  1  0
 14 15  2  0
 15 16  1  0
 16 17  2  0
  2 18  1  0
 18 19  2  0
 19 20  1  0
 20 21  2  0
 21 22  1  0
 22 23  2  0
 23 24  1  0
 24 25  2  0
 25 26  1  0
 26 27  2  0
 11  7  1  0
 17 12  1  0
 27 18  1  0
 26 21  1  0
  3 28  1  0
  4 29  1  0
  4 30  1  0
  8 31  1  0
  8 32  1  0
  9 33  1  0
  9 34  1  0
 10 35  1  0
 10 36  1  0
 11 37  1  6
 13 38  1  0
 14 39  1  0
 15 40  1  0
 16 41  1  0
 19 42  1  0
 20 43  1  0
 22 44  1  0
 23 45  1  0
 24 46  1  0
 25 47  1  0
M  END
>  <smiles>  (7) 
O=C(NCC(=O)N1CCCC1c1ccccn1)c1ccc2ccccc2n1

>  <score_type>  (7) 
oracle

>  <origin>  (7) 
autodockgpu

>  <m_score__min__energy>  (7) 
-8.9600000000000009

>  <m_primary>  (7) 
energy

>  <rmsd>  (7) 
7.4450346365978906

>  <m_score__min__rmsd>  (7) 
7.4450346365978906

>  <meeko>  (7) 
{"free_energy": -7.04, "intermolecular_energy": -8.53, "internal_energy": -2.92, "cluster_size": 18, "cluster_id": 5, "rank_in_cluster": 18}

>  <energy>  (7) 
-8.37

>  <cluster_rmsd>  (7) 
0.83

>  <cluster>  (7) 
1

$$$$

     RDKit          3D

 47 50  0  0  0  0  0  0  0  0999 V2000
  140.9630   71.7430  221.4340 O   0  0  0  0  0  0  0  0  0  0  0  0
  140.2500   72.1910  222.3810 C   0  0  0  0  0  0  0  0  0  0  0  0
  139.5190   73.4250  222.2520 N   0  0  0  0  0  0  0  0  0  0  0  0
  139.6070   74.1730  221.0030 C   0  0  0  0  0  0  0  0  0  0  0  0
  140.4720   75.3410  221.1630 C   0  0  0  0  0  0  0  0  0  0  0  0
  141.1000   75.4310  222.2830 O   0  0  0  0  0  0  0  0  0  0  0  0
  140.7070   76.3840  220.2530 N   0  0  0  0  0  0  0  0  0  0  0  0
  140.4820   76.1400  218.7910 C   0  0  0  0  0  0  0  0  0  0  0  0
  141.7120   76.8120  218.2200 C   0  0  0  0  0  0  0  0  0  0  0  0
  142.2970   77.6890  219.3060 C   0  0  0  0  0  0  0  0  0  0  0  0
  141.1550   77.7220  220.3010 C   0  0  2  0  0  0  0  0  0  0  0  0
  141.4690   78.3810  221.5390 C   0  0  0  0  0  0  0  0  0  0  0  0
  142.1870   79.5950  221.4630 C   0  0  0  0  0  0  0  0  0  0  0  0
  142.5140   80.3030  222.6000 C   0  0  0  0  0  0  0  0  0  0  0  0
  142.1520   79.8510  223.8510 C   0  0  0  0  0  0  0  0  0  0  0  0
  141.4520   78.6640  223.9040 C   0  0  0  0  0  0  0  0  0  0  0  0
  141.1500   78.0000  222.7830 N   0  0  0  0  0  0  0  0  0  0  0  0
  140.1510   71.4490  223.6420 C   0  0  0  0  0  0  0  0  0  0  0  0
  139.4740   70.2510  223.6690 C   0  0  0  0  0  0  0  0  0  0  0  0
  139.3530   69.5160  224.8280 C   0  0  0  0  0  0  0  0  0  0  0  0
  139.9240   70.0010  225.9730 C   0  0  0  0  0  0  0  0  0  0  0  0
  139.8280   69.2960  227.1640 C   0  0  0  0  0  0  0  0  0  0  0  0
  140.4000   69.7770  228.3190 C   0  0  0  0  0  0  0  0  0  0  0  0
  141.0880   70.9840  228.3170 C   0  0  0  0  0  0  0  0  0  0  0  0
  141.1770   71.6840  227.1110 C   0  0  0  0  0  0  0  0  0  0  0  0
  140.6080   71.2090  225.9490 C   0  0  0  0  0  0  0  0  0  0  0  0
  140.6990   71.8930  224.7880 N   0  0  0  0  0  0  0  0  0  0  0  0
  138.9540   73.7280  223.0720 H   0  0  0  0  0  0  0  0  0  0  0  0
  140.0208   73.5211  220.2195 H   0  0  0  0  0  0  0  0  0  0  0  0
  138.5996   74.5134  220.7216 H   0  0  0  0  0  0  0  0  0  0  0  0
  140.4572   75.0658  218.5555 H   0  0  0  0  0  0  0  0  0  0  0  0
  139.5250   76.5163  218.4004 H   0  0  0  0  0  0  0  0  0  0  0  0
  142.4468   76.0528  217.9139 H   0  0  0  0  0  0  0  0  0  0  0  0
  141.4503   77.4124  217.3362 H   0  0  0  0  0  0  0  0  0  0  0  0
  143.2009   77.2403  219.7438 H   0  0  0  0  0  0  0  0  0  0  0  0
  142.6241   78.6805  218.9597 H   0  0  0  0  0  0  0  0  0  0  0  0
  140.3055   78.3848  220.0796 H   0  0  0  0  0  0  0  0  0  0  0  0
  142.4906   79.9824  220.4793 H   0  0  0  0  0  0  0  0  0  0  0  0
  143.0738   81.2454  222.5072 H   0  0  0  0  0  0  0  0  0  0  0  0
  142.4090   80.4101  224.7628 H   0  0  0  0  0  0  0  0  0  0  0  0
  141.1390   78.2594  224.8778 H   0  0  0  0  0  0  0  0  0  0  0  0
  139.0184   69.8711  222.7427 H   0  0  0  0  0  0  0  0  0  0  0  0
  138.8091   68.5599  224.8328 H   0  0  0  0  0  0  0  0  0  0  0  0
  139.2867   68.3386  227.1851 H   0  0  0  0  0  0  0  0  0  0  0  0
  140.3119   69.2011  229.2520 H   0  0  0  0  0  0  0  0  0  0  0  0
  141.5482   71.3762  229.2359 H   0  0  0  0  0  0  0  0  0  0  0  0
  141.7169   72.6421  227.0883 H   0  0  0  0  0  0  0  0  0  0  0  0
  1  2  2  0
  2  3  1  0
  3  4  1  0
  4  5  1  0
  5  6  2  0
  5  7  1  0
  7  8  1  0
  8  9  1  0
  9 10  1  0
 10 11  1  0
 11 12  1  0
 12 13  2  0
 13 14  1  0
 14 15  2  0
 15 16  1  0
 16 17  2  0
  2 18  1  0
 18 19  2  0
 19 20  1  0
 20 21  2  0
 21 22  1  0
 22 23  2  0
 23 24  1  0
 24 25  2  0
 25 26  1  0
 26 27  2  0
 11  7  1  0
 17 12  1  0
 27 18  1  0
 26 21  1  0
  3 28  1  0
  4 29  1  0
  4 30  1  0
  8 31  1  0
  8 32  1  0
  9 33  1  0
  9 34  1  0
 10 35  1  0
 10 36  1  0
 11 37  1  6
 13 38  1  0
 14 39  1  0
 15 40  1  0
 16 41  1  0
 19 42  1  0
 20 43  1  0
 22 44  1  0
 23 45  1  0
 24 46  1  0
 25 47  1  0
M  END
>  <smiles>  (8) 
O=C(NCC(=O)N1CCCC1c1ccccn1)c1ccc2ccccc2n1

>  <score_type>  (8) 
oracle

>  <origin>  (8) 
autodockgpu

>  <m_score__min__energy>  (8) 
-8.9600000000000009

>  <m_primary>  (8) 
energy

>  <rmsd>  (8) 
1.828558855578535

>  <m_score__min__rmsd>  (8) 
1.828558855578535

>  <meeko>  (8) 
{"free_energy": -8.69, "intermolecular_energy": -10.18, "internal_energy": -1.23, "cluster_size": 15, "cluster_id": 1, "rank_in_cluster": 2}

>  <energy>  (8) 
-8.33

>  <cluster_rmsd>  (8) 
1.98

>  <cluster>  (8) 
1

$$$$

     RDKit          3D

 47 50  0  0  0  0  0  0  0  0999 V2000
  138.9570   74.9790  222.0440 O   0  0  0  0  0  0  0  0  0  0  0  0
  140.0970   75.5300  222.0110 C   0  0  0  0  0  0  0  0  0  0  0  0
  141.2780   74.7930  221.6390 N   0  0  0  0  0  0  0  0  0  0  0  0
  141.1520   73.3820  221.2960 C   0  0  0  0  0  0  0  0  0  0  0  0
  141.9130   73.0770  220.0850 C   0  0  0  0  0  0  0  0  0  0  0  0
  141.2710   72.4650  219.1520 O   0  0  0  0  0  0  0  0  0  0  0  0
  143.2590   73.3620  219.8050 N   0  0  0  0  0  0  0  0  0  0  0  0
  144.2810   72.2760  219.9550 C   0  0  0  0  0  0  0  0  0  0  0  0
  145.3830   73.0470  220.6480 C   0  0  0  0  0  0  0  0  0  0  0  0
  145.0830   74.5200  220.4820 C   0  0  0  0  0  0  0  0  0  0  0  0
  144.0210   74.4810  219.4030 C   0  0  2  0  0  0  0  0  0  0  0  0
  143.4200   75.7560  219.1190 C   0  0  0  0  0  0  0  0  0  0  0  0
  143.4910   76.2250  217.7890 C   0  0  0  0  0  0  0  0  0  0  0  0
  142.9250   77.4280  217.4260 C   0  0  0  0  0  0  0  0  0  0  0  0
  142.2690   78.2170  218.3470 C   0  0  0  0  0  0  0  0  0  0  0  0
  142.2110   77.7410  219.6400 C   0  0  0  0  0  0  0  0  0  0  0  0
  142.7700   76.5690  219.9630 N   0  0  0  0  0  0  0  0  0  0  0  0
  140.2390   76.9490  222.3530 C   0  0  0  0  0  0  0  0  0  0  0  0
  139.1130   77.7310  222.4670 C   0  0  0  0  0  0  0  0  0  0  0  0
  139.1920   79.0690  222.7860 C   0  0  0  0  0  0  0  0  0  0  0  0
  140.4270   79.6210  222.9930 C   0  0  0  0  0  0  0  0  0  0  0  0
  140.5570   80.9630  223.3170 C   0  0  0  0  0  0  0  0  0  0  0  0
  141.7950   81.5240  223.5260 C   0  0  0  0  0  0  0  0  0  0  0  0
  142.9470   80.7550  223.4170 C   0  0  0  0  0  0  0  0  0  0  0  0
  142.8030   79.4040  223.0900 C   0  0  0  0  0  0  0  0  0  0  0  0
  141.5660   78.8340  222.8790 C   0  0  0  0  0  0  0  0  0  0  0  0
  141.4360   77.5270  222.5630 N   0  0  0  0  0  0  0  0  0  0  0  0
  142.1790   75.3140  221.6350 H   0  0  0  0  0  0  0  0  0  0  0  0
  141.5356   72.7722  222.1273 H   0  0  0  0  0  0  0  0  0  0  0  0
  140.0911   73.1543  221.1151 H   0  0  0  0  0  0  0  0  0  0  0  0
  143.9089   71.4481  220.5764 H   0  0  0  0  0  0  0  0  0  0  0  0
  144.5779   71.7860  219.0160 H   0  0  0  0  0  0  0  0  0  0  0  0
  145.4080   72.7872  221.7166 H   0  0  0  0  0  0  0  0  0  0  0  0
  146.3617   72.7999  220.2110 H   0  0  0  0  0  0  0  0  0  0  0  0
  144.6966   74.9606  221.4129 H   0  0  0  0  0  0  0  0  0  0  0  0
  145.9599   75.1352  220.2319 H   0  0  0  0  0  0  0  0  0  0  0  0
  144.3534   74.3252  218.3661 H   0  0  0  0  0  0  0  0  0  0  0  0
  144.0071   75.6196  217.0294 H   0  0  0  0  0  0  0  0  0  0  0  0
  142.9980   77.7652  216.3815 H   0  0  0  0  0  0  0  0  0  0  0  0
  141.8146   79.1781  218.0645 H   0  0  0  0  0  0  0  0  0  0  0  0
  141.6995   78.3314  220.4145 H   0  0  0  0  0  0  0  0  0  0  0  0
  138.1252   77.2769  222.2993 H   0  0  0  0  0  0  0  0  0  0  0  0
  138.2818   79.6805  222.8725 H   0  0  0  0  0  0  0  0  0  0  0  0
  139.6565   81.5881  223.4082 H   0  0  0  0  0  0  0  0  0  0  0  0
  141.8739   82.5910  223.7817 H   0  0  0  0  0  0  0  0  0  0  0  0
  143.9411   81.1957  223.5829 H   0  0  0  0  0  0  0  0  0  0  0  0
  143.7026   78.7776  222.9984 H   0  0  0  0  0  0  0  0  0  0  0  0
  1  2  2  0
  2  3  1  0
  3  4  1  0
  4  5  1  0
  5  6  2  0
  5  7  1  0
  7  8  1  0
  8  9  1  0
  9 10  1  0
 10 11  1  0
 11 12  1  0
 12 13  2  0
 13 14  1  0
 14 15  2  0
 15 16  1  0
 16 17  2  0
  2 18  1  0
 18 19  2  0
 19 20  1  0
 20 21  2  0
 21 22  1  0
 22 23  2  0
 23 24  1  0
 24 25  2  0
 25 26  1  0
 26 27  2  0
 11  7  1  0
 17 12  1  0
 27 18  1  0
 26 21  1  0
  3 28  1  0
  4 29  1  0
  4 30  1  0
  8 31  1  0
  8 32  1  0
  9 33  1  0
  9 34  1  0
 10 35  1  0
 10 36  1  0
 11 37  1  6
 13 38  1  0
 14 39  1  0
 15 40  1  0
 16 41  1  0
 19 42  1  0
 20 43  1  0
 22 44  1  0
 23 45  1  0
 24 46  1  0
 25 47  1  0
M  END
>  <smiles>  (9) 
O=C(NCC(=O)N1CCCC1c1ccccn1)c1ccc2ccccc2n1

>  <score_type>  (9) 
oracle

>  <origin>  (9) 
autodockgpu

>  <m_score__min__energy>  (9) 
-8.9600000000000009

>  <m_primary>  (9) 
energy

>  <rmsd>  (9) 
7.349545835993479

>  <m_score__min__rmsd>  (9) 
7.349545835993479

>  <meeko>  (9) 
{"free_energy": -7.22, "intermolecular_energy": -8.71, "internal_energy": -2.92, "cluster_size": 18, "cluster_id": 5, "rank_in_cluster": 7}

>  <energy>  (9) 
-8.32

>  <cluster_rmsd>  (9) 
1.98

>  <cluster>  (9) 
1

$$$$

     RDKit          3D

 47 50  0  0  0  0  0  0  0  0999 V2000
  138.9600   74.9650  222.0460 O   0  0  0  0  0  0  0  0  0  0  0  0
  140.1010   75.5140  222.0090 C   0  0  0  0  0  0  0  0  0  0  0  0
  141.2780   74.7750  221.6310 N   0  0  0  0  0  0  0  0  0  0  0  0
  141.1480   73.3650  221.2860 C   0  0  0  0  0  0  0  0  0  0  0  0
  141.9370   73.0530  220.0940 C   0  0  0  0  0  0  0  0  0  0  0  0
  141.3180   72.4250  219.1560 O   0  0  0  0  0  0  0  0  0  0  0  0
  143.2850   73.3470  219.8380 N   0  0  0  0  0  0  0  0  0  0  0  0
  144.3110   72.2660  220.0010 C   0  0  0  0  0  0  0  0  0  0  0  0
  145.3970   73.0410  220.7150 C   0  0  0  0  0  0  0  0  0  0  0  0
  145.0910   74.5140  220.5480 C   0  0  0  0  0  0  0  0  0  0  0  0
  144.0470   74.4710  219.4500 C   0  0  2  0  0  0  0  0  0  0  0  0
  143.4430   75.7430  219.1600 C   0  0  0  0  0  0  0  0  0  0  0  0
  143.5120   76.2040  217.8270 C   0  0  0  0  0  0  0  0  0  0  0  0
  142.9430   77.4040  217.4570 C   0  0  0  0  0  0  0  0  0  0  0  0
  142.2870   78.1970  218.3740 C   0  0  0  0  0  0  0  0  0  0  0  0
  142.2320   77.7290  219.6710 C   0  0  0  0  0  0  0  0  0  0  0  0
  142.7930   76.5600  219.9990 N   0  0  0  0  0  0  0  0  0  0  0  0
  140.2460   76.9320  222.3530 C   0  0  0  0  0  0  0  0  0  0  0  0
  139.1220   77.7160  222.4730 C   0  0  0  0  0  0  0  0  0  0  0  0
  139.2040   79.0540  222.7940 C   0  0  0  0  0  0  0  0  0  0  0  0
  140.4410   79.6030  222.9970 C   0  0  0  0  0  0  0  0  0  0  0  0
  140.5750   80.9440  223.3220 C   0  0  0  0  0  0  0  0  0  0  0  0
  141.8140   81.5030  223.5280 C   0  0  0  0  0  0  0  0  0  0  0  0
  142.9640   80.7320  223.4130 C   0  0  0  0  0  0  0  0  0  0  0  0
  142.8160   79.3820  223.0840 C   0  0  0  0  0  0  0  0  0  0  0  0
  141.5780   78.8140  222.8770 C   0  0  0  0  0  0  0  0  0  0  0  0
  141.4440   77.5080  222.5590 N   0  0  0  0  0  0  0  0  0  0  0  0
  142.1800   75.2960  221.6230 H   0  0  0  0  0  0  0  0  0  0  0  0
  141.5053   72.7524  222.1269 H   0  0  0  0  0  0  0  0  0  0  0  0
  140.0901   73.1460  221.0791 H   0  0  0  0  0  0  0  0  0  0  0  0
  143.9335   71.4337  220.6132 H   0  0  0  0  0  0  0  0  0  0  0  0
  144.6262   71.7811  219.0653 H   0  0  0  0  0  0  0  0  0  0  0  0
  145.4055   72.7781  221.7831 H   0  0  0  0  0  0  0  0  0  0  0  0
  146.3845   72.8007  220.2941 H   0  0  0  0  0  0  0  0  0  0  0  0
  144.6861   74.9497  221.4733 H   0  0  0  0  0  0  0  0  0  0  0  0
  145.9683   75.1353  220.3149 H   0  0  0  0  0  0  0  0  0  0  0  0
  144.3974   74.3193  218.4184 H   0  0  0  0  0  0  0  0  0  0  0  0
  144.0288   75.5950  217.0707 H   0  0  0  0  0  0  0  0  0  0  0  0
  143.0138   77.7349  216.4103 H   0  0  0  0  0  0  0  0  0  0  0  0
  141.8300   79.1553  218.0862 H   0  0  0  0  0  0  0  0  0  0  0  0
  141.7215   78.3235  220.4430 H   0  0  0  0  0  0  0  0  0  0  0  0
  138.1328   77.2637  222.3087 H   0  0  0  0  0  0  0  0  0  0  0  0
  138.2952   79.6670  222.8850 H   0  0  0  0  0  0  0  0  0  0  0  0
  139.6759   81.5706  223.4166 H   0  0  0  0  0  0  0  0  0  0  0  0
  141.8955   82.5692  223.7859 H   0  0  0  0  0  0  0  0  0  0  0  0
  143.9596   81.1704  223.5758 H   0  0  0  0  0  0  0  0  0  0  0  0
  143.7142   78.7544  222.9875 H   0  0  0  0  0  0  0  0  0  0  0  0
  1  2  2  0
  2  3  1  0
  3  4  1  0
  4  5  1  0
  5  6  2  0
  5  7  1  0
  7  8  1  0
  8  9  1  0
  9 10  1  0
 10 11  1  0
 11 12  1  0
 12 13  2  0
 13 14  1  0
 14 15  2  0
 15 16  1  0
 16 17  2  0
  2 18  1  0
 18 19  2  0
 19 20  1  0
 20 21  2  0
 21 22  1  0
 22 23  2  0
 23 24  1  0
 24 25  2  0
 25 26  1  0
 26 27  2  0
 11  7  1  0
 17 12  1  0
 27 18  1  0
 26 21  1  0
  3 28  1  0
  4 29  1  0
  4 30  1  0
  8 31  1  0
  8 32  1  0
  9 33  1  0
  9 34  1  0
 10 35  1  0
 10 36  1  0
 11 37  1  6
 13 38  1  0
 14 39  1  0
 15 40  1  0
 16 41  1  0
 19 42  1  0
 20 43  1  0
 22 44  1  0
 23 45  1  0
 24 46  1  0
 25 47  1  0
M  END
>  <smiles>  (10) 
O=C(NCC(=O)N1CCCC1c1ccccn1)c1ccc2ccccc2n1

>  <score_type>  (10) 
oracle

>  <origin>  (10) 
autodockgpu

>  <m_score__min__energy>  (10) 
-8.9600000000000009

>  <m_primary>  (10) 
energy

>  <rmsd>  (10) 
7.349529738135786

>  <m_score__min__rmsd>  (10) 
7.349529738135786

>  <meeko>  (10) 
{"free_energy": -7.21, "intermolecular_energy": -8.7, "internal_energy": -2.91, "cluster_size": 18, "cluster_id": 5, "rank_in_cluster": 11}

>  <energy>  (10) 
-8.3

>  <cluster_rmsd>  (10) 
1.97

>  <cluster>  (10) 
1

$$$$

     RDKit          3D

 47 50  0  0  0  0  0  0  0  0999 V2000
  141.5530   72.0770  221.6080 O   0  0  0  0  0  0  0  0  0  0  0  0
  140.7000   72.4620  222.4610 C   0  0  0  0  0  0  0  0  0  0  0  0
  140.0450   73.7400  222.3440 N   0  0  0  0  0  0  0  0  0  0  0  0
  140.3760   74.6040  221.2170 C   0  0  0  0  0  0  0  0  0  0  0  0
  139.6640   75.8770  221.3190 C   0  0  0  0  0  0  0  0  0  0  0  0
  138.8360   75.9860  222.2980 O   0  0  0  0  0  0  0  0  0  0  0  0
  139.7630   77.0020  220.4840 N   0  0  0  0  0  0  0  0  0  0  0  0
  139.1080   76.9690  219.1360 C   0  0  0  0  0  0  0  0  0  0  0  0
  140.2020   77.5920  218.2980 C   0  0  0  0  0  0  0  0  0  0  0  0
  141.1740   78.2650  219.2430 C   0  0  0  0  0  0  0  0  0  0  0  0
  140.3700   78.2750  220.5270 C   0  0  2  0  0  0  0  0  0  0  0  0
  141.1000   78.7390  221.6760 C   0  0  0  0  0  0  0  0  0  0  0  0
  141.8650   79.9160  221.5270 C   0  0  0  0  0  0  0  0  0  0  0  0
  142.5800   80.4410  222.5820 C   0  0  0  0  0  0  0  0  0  0  0  0
  142.5740   79.8360  223.8200 C   0  0  0  0  0  0  0  0  0  0  0  0
  141.8210   78.6870  223.9460 C   0  0  0  0  0  0  0  0  0  0  0  0
  141.1370   78.2020  222.9030 N   0  0  0  0  0  0  0  0  0  0  0  0
  140.3570   71.6040  223.6000 C   0  0  0  0  0  0  0  0  0  0  0  0
  139.6150   70.4650  223.3860 C   0  0  0  0  0  0  0  0  0  0  0  0
  139.2670   69.6240  224.4210 C   0  0  0  0  0  0  0  0  0  0  0  0
  139.6750   69.9430  225.6880 C   0  0  0  0  0  0  0  0  0  0  0  0
  139.3480   69.1280  226.7610 C   0  0  0  0  0  0  0  0  0  0  0  0
  139.7550   69.4410  228.0370 C   0  0  0  0  0  0  0  0  0  0  0  0
  140.5040   70.5860  228.2790 C   0  0  0  0  0  0  0  0  0  0  0  0
  140.8270   71.3990  227.1880 C   0  0  0  0  0  0  0  0  0  0  0  0
  140.4230   71.0910  225.9070 C   0  0  0  0  0  0  0  0  0  0  0  0
  140.7390   71.8830  224.8590 N   0  0  0  0  0  0  0  0  0  0  0  0
  139.3550   73.9860  223.0840 H   0  0  0  0  0  0  0  0  0  0  0  0
  141.4593   74.7948  221.2135 H   0  0  0  0  0  0  0  0  0  0  0  0
  140.0753   74.1028  220.2851 H   0  0  0  0  0  0  0  0  0  0  0  0
  138.8839   75.9407  218.8159 H   0  0  0  0  0  0  0  0  0  0  0  0
  138.1347   77.4786  219.0809 H   0  0  0  0  0  0  0  0  0  0  0  0
  140.7200   76.8137  217.7185 H   0  0  0  0  0  0  0  0  0  0  0  0
  139.7799   78.3227  217.5924 H   0  0  0  0  0  0  0  0  0  0  0  0
  142.1008   77.6825  219.3514 H   0  0  0  0  0  0  0  0  0  0  0  0
  141.5130   79.2580  218.9129 H   0  0  0  0  0  0  0  0  0  0  0  0
  139.5815   79.0351  220.6295 H   0  0  0  0  0  0  0  0  0  0  0  0
  141.8910   80.4233  220.5513 H   0  0  0  0  0  0  0  0  0  0  0  0
  143.1661   81.3598  222.4329 H   0  0  0  0  0  0  0  0  0  0  0  0
  143.1420   80.2491  224.6666 H   0  0  0  0  0  0  0  0  0  0  0  0
  141.7824   78.1644  224.9132 H   0  0  0  0  0  0  0  0  0  0  0  0
  139.2916   70.2197  222.3636 H   0  0  0  0  0  0  0  0  0  0  0  0
  138.6745   68.7165  224.2330 H   0  0  0  0  0  0  0  0  0  0  0  0
  138.7545   68.2179  226.5893 H   0  0  0  0  0  0  0  0  0  0  0  0
  139.4852   68.7791  228.8731 H   0  0  0  0  0  0  0  0  0  0  0  0
  140.8325   70.8447  229.2964 H   0  0  0  0  0  0  0  0  0  0  0  0
  141.4201   72.3098  227.3571 H   0  0  0  0  0  0  0  0  0  0  0  0
  1  2  2  0
  2  3  1  0
  3  4  1  0
  4  5  1  0
  5  6  2  0
  5  7  1  0
  7  8  1  0
  8  9  1  0
  9 10  1  0
 10 11  1  0
 11 12  1  0
 12 13  2  0
 13 14  1  0
 14 15  2  0
 15 16  1  0
 16 17  2  0
  2 18  1  0
 18 19  2  0
 19 20  1  0
 20 21  2  0
 21 22  1  0
 22 23  2  0
 23 24  1  0
 24 25  2  0
 25 26  1  0
 26 27  2  0
 11  7  1  0
 17 12  1  0
 27 18  1  0
 26 21  1  0
  3 28  1  0
  4 29  1  0
  4 30  1  0
  8 31  1  0
  8 32  1  0
  9 33  1  0
  9 34  1  0
 10 35  1  0
 10 36  1  0
 11 37  1  6
 13 38  1  0
 14 39  1  0
 15 40  1  0
 16 41  1  0
 19 42  1  0
 20 43  1  0
 22 44  1  0
 23 45  1  0
 24 46  1  0
 25 47  1  0
M  END
>  <smiles>  (11) 
O=C(NCC(=O)N1CCCC1c1ccccn1)c1ccc2ccccc2n1

>  <score_type>  (11) 
oracle

>  <origin>  (11) 
autodockgpu

>  <m_score__min__energy>  (11) 
-8.9600000000000009

>  <m_primary>  (11) 
energy

>  <rmsd>  (11) 
2.019579281930586

>  <m_score__min__rmsd>  (11) 
2.019579281930586

>  <meeko>  (11) 
{"free_energy": -7.99, "intermolecular_energy": -9.48, "internal_energy": -1.76, "cluster_size": 4, "cluster_id": 3, "rank_in_cluster": 4}

>  <energy>  (11) 
-8.27

>  <cluster_rmsd>  (11) 
1.97

>  <cluster>  (11) 
1

$$$$

     RDKit          3D

 47 50  0  0  0  0  0  0  0  0999 V2000
  140.9710   71.6080  221.3440 O   0  0  0  0  0  0  0  0  0  0  0  0
  140.4390   72.1760  222.3430 C   0  0  0  0  0  0  0  0  0  0  0  0
  140.0000   73.5470  222.2830 N   0  0  0  0  0  0  0  0  0  0  0  0
  140.1750   74.2910  221.0420 C   0  0  0  0  0  0  0  0  0  0  0  0
  140.8160   75.5800  221.3010 C   0  0  0  0  0  0  0  0  0  0  0  0
  140.4480   76.1890  222.3730 O   0  0  0  0  0  0  0  0  0  0  0  0
  141.7840   76.2440  220.5300 N   0  0  0  0  0  0  0  0  0  0  0  0
  141.5640   77.6820  220.1660 C   0  0  0  0  0  0  0  0  0  0  0  0
  141.9890   77.6510  218.7140 C   0  0  0  0  0  0  0  0  0  0  0  0
  142.7580   76.3670  218.4900 C   0  0  0  0  0  0  0  0  0  0  0  0
  143.0160   75.9310  219.9180 C   0  0  2  0  0  0  0  0  0  0  0  0
  143.6250   74.6340  220.0380 C   0  0  0  0  0  0  0  0  0  0  0  0
  144.9650   74.5840  220.4800 C   0  0  0  0  0  0  0  0  0  0  0  0
  145.6190   73.3810  220.6410 C   0  0  0  0  0  0  0  0  0  0  0  0
  144.9890   72.1840  220.3760 C   0  0  0  0  0  0  0  0  0  0  0  0
  143.6800   72.2540  219.9450 C   0  0  0  0  0  0  0  0  0  0  0  0
  143.0720   73.4360  219.7990 N   0  0  0  0  0  0  0  0  0  0  0  0
  140.2560   71.4390  223.5970 C   0  0  0  0  0  0  0  0  0  0  0  0
  139.6020   70.2280  223.5790 C   0  0  0  0  0  0  0  0  0  0  0  0
  139.4040   69.4960  224.7300 C   0  0  0  0  0  0  0  0  0  0  0  0
  139.8750   69.9980  225.9130 C   0  0  0  0  0  0  0  0  0  0  0  0
  139.7000   69.2970  227.0970 C   0  0  0  0  0  0  0  0  0  0  0  0
  140.1700   69.7950  228.2900 C   0  0  0  0  0  0  0  0  0  0  0  0
  140.8330   71.0140  228.3340 C   0  0  0  0  0  0  0  0  0  0  0  0
  141.0030   71.7110  227.1340 C   0  0  0  0  0  0  0  0  0  0  0  0
  140.5350   71.2190  225.9350 C   0  0  0  0  0  0  0  0  0  0  0  0
  140.7030   71.8990  224.7800 N   0  0  0  0  0  0  0  0  0  0  0  0
  139.5710   73.9440  223.1440 H   0  0  0  0  0  0  0  0  0  0  0  0
  140.8042   73.7058  220.3552 H   0  0  0  0  0  0  0  0  0  0  0  0
  139.1868   74.4700  220.5933 H   0  0  0  0  0  0  0  0  0  0  0  0
  140.5095   77.9749  220.2770 H   0  0  0  0  0  0  0  0  0  0  0  0
  142.1040   78.4073  220.7924 H   0  0  0  0  0  0  0  0  0  0  0  0
  141.1026   77.6759  218.0631 H   0  0  0  0  0  0  0  0  0  0  0  0
  142.6155   78.5232  218.4760 H   0  0  0  0  0  0  0  0  0  0  0  0
  142.1561   75.6258  217.9439 H   0  0  0  0  0  0  0  0  0  0  0  0
  143.6663   76.4831  217.8804 H   0  0  0  0  0  0  0  0  0  0  0  0
  143.8202   76.4400  220.4695 H   0  0  0  0  0  0  0  0  0  0  0  0
  145.4967   75.5216  220.6998 H   0  0  0  0  0  0  0  0  0  0  0  0
  146.6630   73.3764  220.9874 H   0  0  0  0  0  0  0  0  0  0  0  0
  145.5043   71.2204  220.5019 H   0  0  0  0  0  0  0  0  0  0  0  0
  143.1310   71.3279  219.7192 H   0  0  0  0  0  0  0  0  0  0  0  0
  139.2281   69.8346  222.6222 H   0  0  0  0  0  0  0  0  0  0  0  0
  138.8791   68.5298  224.6985 H   0  0  0  0  0  0  0  0  0  0  0  0
  139.1779   68.3289  227.0817 H   0  0  0  0  0  0  0  0  0  0  0  0
  140.0193   69.2225  229.2171 H   0  0  0  0  0  0  0  0  0  0  0  0
  141.2128   71.4189  229.2836 H   0  0  0  0  0  0  0  0  0  0  0  0
  141.5250   72.6792  227.1474 H   0  0  0  0  0  0  0  0  0  0  0  0
  1  2  2  0
  2  3  1  0
  3  4  1  0
  4  5  1  0
  5  6  2  0
  5  7  1  0
  7  8  1  0
  8  9  1  0
  9 10  1  0
 10 11  1  0
 11 12  1  0
 12 13  2  0
 13 14  1  0
 14 15  2  0
 15 16  1  0
 16 17  2  0
  2 18  1  0
 18 19  2  0
 19 20  1  0
 20 21  2  0
 21 22  1  0
 22 23  2  0
 23 24  1  0
 24 25  2  0
 25 26  1  0
 26 27  2  0
 11  7  1  0
 17 12  1  0
 27 18  1  0
 26 21  1  0
  3 28  1  0
  4 29  1  0
  4 30  1  0
  8 31  1  0
  8 32  1  0
  9 33  1  0
  9 34  1  0
 10 35  1  0
 10 36  1  0
 11 37  1  1
 13 38  1  0
 14 39  1  0
 15 40  1  0
 16 41  1  0
 19 42  1  0
 20 43  1  0
 22 44  1  0
 23 45  1  0
 24 46  1  0
 25 47  1  0
M  END
>  <smiles>  (12) 
O=C(NCC(=O)N1CCCC1c1ccccn1)c1ccc2ccccc2n1

>  <score_type>  (12) 
oracle

>  <origin>  (12) 
autodockgpu

>  <m_score__min__energy>  (12) 
-8.9600000000000009

>  <m_primary>  (12) 
energy

>  <rmsd>  (12) 
4.1819628398608035

>  <m_score__min__rmsd>  (12) 
4.1819628398608035

>  <meeko>  (12) 
{"free_energy": -8.45, "intermolecular_energy": -9.94, "internal_energy": -1.82, "cluster_size": 12, "cluster_id": 2, "rank_in_cluster": 2}

>  <energy>  (12) 
-7.88

>  <cluster_rmsd>  (12) 
2.0

>  <cluster>  (12) 
1

$$$$

     RDKit          3D

 47 50  0  0  0  0  0  0  0  0999 V2000
  138.9020   75.1700  221.9430 O   0  0  0  0  0  0  0  0  0  0  0  0
  140.0270   75.7390  221.8130 C   0  0  0  0  0  0  0  0  0  0  0  0
  141.1290   75.0830  221.1560 N   0  0  0  0  0  0  0  0  0  0  0  0
  140.9400   73.7350  220.6340 C   0  0  0  0  0  0  0  0  0  0  0  0
  142.1360   72.9240  220.8590 C   0  0  0  0  0  0  0  0  0  0  0  0
  141.9770   71.8700  221.5790 O   0  0  0  0  0  0  0  0  0  0  0  0
  143.4420   73.1460  220.3920 N   0  0  0  0  0  0  0  0  0  0  0  0
  144.4990   72.1190  220.6670 C   0  0  0  0  0  0  0  0  0  0  0  0
  145.6440   73.0230  221.0670 C   0  0  0  0  0  0  0  0  0  0  0  0
  145.2950   74.4260  220.6210 C   0  0  0  0  0  0  0  0  0  0  0  0
  144.1340   74.1540  219.6870 C   0  0  2  0  0  0  0  0  0  0  0  0
  143.4790   75.3370  219.1990 C   0  0  0  0  0  0  0  0  0  0  0  0
  143.0560   75.3360  217.8520 C   0  0  0  0  0  0  0  0  0  0  0  0
  142.4030   76.4210  217.3080 C   0  0  0  0  0  0  0  0  0  0  0  0
  142.1410   77.5470  218.0590 C   0  0  0  0  0  0  0  0  0  0  0  0
  142.5620   77.5290  219.3720 C   0  0  0  0  0  0  0  0  0  0  0  0
  143.1930   76.4600  219.8720 N   0  0  0  0  0  0  0  0  0  0  0  0
  140.2300   77.0950  222.3330 C   0  0  0  0  0  0  0  0  0  0  0  0
  139.1380   77.8460  222.7030 C   0  0  0  0  0  0  0  0  0  0  0  0
  139.2760   79.1250  223.1980 C   0  0  0  0  0  0  0  0  0  0  0  0
  140.5340   79.6480  223.3180 C   0  0  0  0  0  0  0  0  0  0  0  0
  140.7230   80.9310  223.8110 C   0  0  0  0  0  0  0  0  0  0  0  0
  141.9850   81.4630  223.9350 C   0  0  0  0  0  0  0  0  0  0  0  0
  143.1020   80.7240  223.5680 C   0  0  0  0  0  0  0  0  0  0  0  0
  142.8990   79.4330  223.0730 C   0  0  0  0  0  0  0  0  0  0  0  0
  141.6380   78.8920  222.9460 C   0  0  0  0  0  0  0  0  0  0  0  0
  141.4510   77.6430  222.4660 N   0  0  0  0  0  0  0  0  0  0  0  0
  142.0210   75.6150  221.0870 H   0  0  0  0  0  0  0  0  0  0  0  0
  140.0846   73.2668  221.1430 H   0  0  0  0  0  0  0  0  0  0  0  0
  140.7515   73.7967  219.5520 H   0  0  0  0  0  0  0  0  0  0  0  0
  144.2082   71.4423  221.4840 H   0  0  0  0  0  0  0  0  0  0  0  0
  144.7151   71.4400  219.8290 H   0  0  0  0  0  0  0  0  0  0  0  0
  145.7778   72.9986  222.1586 H   0  0  0  0  0  0  0  0  0  0  0  0
  146.5817   72.6901  220.5980 H   0  0  0  0  0  0  0  0  0  0  0  0
  144.9909   75.0556  221.4702 H   0  0  0  0  0  0  0  0  0  0  0  0
  146.1289   74.9747  220.1589 H   0  0  0  0  0  0  0  0  0  0  0  0
  144.3669   73.7799  218.6791 H   0  0  0  0  0  0  0  0  0  0  0  0
  143.2511   74.4533  217.2254 H   0  0  0  0  0  0  0  0  0  0  0  0
  142.0851   76.3879  216.2555 H   0  0  0  0  0  0  0  0  0  0  0  0
  141.6215   78.4173  217.6317 H   0  0  0  0  0  0  0  0  0  0  0  0
  142.3773   78.4022  220.0149 H   0  0  0  0  0  0  0  0  0  0  0  0
  138.1309   77.4154  222.6013 H   0  0  0  0  0  0  0  0  0  0  0  0
  138.3932   79.7125  223.4903 H   0  0  0  0  0  0  0  0  0  0  0  0
  139.8503   81.5316  224.1071 H   0  0  0  0  0  0  0  0  0  0  0  0
  142.1108   82.4826  224.3282 H   0  0  0  0  0  0  0  0  0  0  0  0
  144.1150   81.1418  223.6639 H   0  0  0  0  0  0  0  0  0  0  0  0
  143.7708   78.8314  222.7762 H   0  0  0  0  0  0  0  0  0  0  0  0
  1  2  2  0
  2  3  1  0
  3  4  1  0
  4  5  1  0
  5  6  2  0
  5  7  1  0
  7  8  1  0
  8  9  1  0
  9 10  1  0
 10 11  1  0
 11 12  1  0
 12 13  2  0
 13 14  1  0
 14 15  2  0
 15 16  1  0
 16 17  2  0
  2 18  1  0
 18 19  2  0
 19 20  1  0
 20 21  2  0
 21 22  1  0
 22 23  2  0
 23 24  1  0
 24 25  2  0
 25 26  1  0
 26 27  2  0
 11  7  1  0
 17 12  1  0
 27 18  1  0
 26 21  1  0
  3 28  1  0
  4 29  1  0
  4 30  1  0
  8 31  1  0
  8 32  1  0
  9 33  1  0
  9 34  1  0
 10 35  1  0
 10 36  1  0
 11 37  1  6
 13 38  1  0
 14 39  1  0
 15 40  1  0
 16 41  1  0
 19 42  1  0
 20 43  1  0
 22 44  1  0
 23 45  1  0
 24 46  1  0
 25 47  1  0
M  END
>  <smiles>  (13) 
O=C(NCC(=O)N1CCCC1c1ccccn1)c1ccc2ccccc2n1

>  <score_type>  (13) 
oracle

>  <origin>  (13) 
autodockgpu

>  <m_score__min__energy>  (13) 
-8.9600000000000009

>  <m_primary>  (13) 
energy

>  <rmsd>  (13) 
7.492382582421853

>  <m_score__min__rmsd>  (13) 
7.492382582421853

>  <meeko>  (13) 
{"free_energy": -7.09, "intermolecular_energy": -8.58, "internal_energy": -2.79, "cluster_size": 18, "cluster_id": 5, "rank_in_cluster": 16}

>  <energy>  (13) 
-7.83

>  <cluster_rmsd>  (13) 
1.21

>  <cluster>  (13) 
1

$$$$

     RDKit          3D

 47 50  0  0  0  0  0  0  0  0999 V2000
  138.9520   75.0030  222.0020 O   0  0  0  0  0  0  0  0  0  0  0  0
  140.0950   75.5470  221.9870 C   0  0  0  0  0  0  0  0  0  0  0  0
  141.2740   74.8080  221.6120 N   0  0  0  0  0  0  0  0  0  0  0  0
  141.1420   73.4040  221.2440 C   0  0  0  0  0  0  0  0  0  0  0  0
  141.9200   73.1120  220.0400 C   0  0  0  0  0  0  0  0  0  0  0  0
  141.2920   72.5070  219.0940 O   0  0  0  0  0  0  0  0  0  0  0  0
  143.2680   73.4050  219.7800 N   0  0  0  0  0  0  0  0  0  0  0  0
  144.2910   72.3190  219.9280 C   0  0  0  0  0  0  0  0  0  0  0  0
  145.3830   73.0840  220.6450 C   0  0  0  0  0  0  0  0  0  0  0  0
  145.0810   74.5590  220.4940 C   0  0  0  0  0  0  0  0  0  0  0  0
  144.0310   74.5310  219.4020 C   0  0  2  0  0  0  0  0  0  0  0  0
  143.4300   75.8080  219.1280 C   0  0  0  0  0  0  0  0  0  0  0  0
  143.5180   76.2960  217.8060 C   0  0  0  0  0  0  0  0  0  0  0  0
  142.9530   77.5020  217.4520 C   0  0  0  0  0  0  0  0  0  0  0  0
  142.2830   78.2760  218.3750 C   0  0  0  0  0  0  0  0  0  0  0  0
  142.2080   77.7820  219.6600 C   0  0  0  0  0  0  0  0  0  0  0  0
  142.7660   76.6070  219.9740 N   0  0  0  0  0  0  0  0  0  0  0  0
  140.2440   76.9580  222.3550 C   0  0  0  0  0  0  0  0  0  0  0  0
  139.1190   77.7370  222.5080 C   0  0  0  0  0  0  0  0  0  0  0  0
  139.2040   79.0690  222.8530 C   0  0  0  0  0  0  0  0  0  0  0  0
  140.4430   79.6170  223.0440 C   0  0  0  0  0  0  0  0  0  0  0  0
  140.5790   80.9530  223.3920 C   0  0  0  0  0  0  0  0  0  0  0  0
  141.8210   81.5110  223.5860 C   0  0  0  0  0  0  0  0  0  0  0  0
  142.9710   80.7460  223.4370 C   0  0  0  0  0  0  0  0  0  0  0  0
  142.8200   79.4010  223.0860 C   0  0  0  0  0  0  0  0  0  0  0  0
  141.5800   78.8340  222.8900 C   0  0  0  0  0  0  0  0  0  0  0  0
  141.4440   77.5330  222.5510 N   0  0  0  0  0  0  0  0  0  0  0  0
  142.1780   75.3240  221.6230 H   0  0  0  0  0  0  0  0  0  0  0  0
  141.5072   72.7776  222.0712 H   0  0  0  0  0  0  0  0  0  0  0  0
  140.0823   73.1883  221.0425 H   0  0  0  0  0  0  0  0  0  0  0  0
  143.9134   71.4820  220.5337 H   0  0  0  0  0  0  0  0  0  0  0  0
  144.6005   71.8421  218.9863 H   0  0  0  0  0  0  0  0  0  0  0  0
  145.3954   72.8105  221.7104 H   0  0  0  0  0  0  0  0  0  0  0  0
  146.3678   72.8449  220.2172 H   0  0  0  0  0  0  0  0  0  0  0  0
  144.6829   74.9869  221.4259 H   0  0  0  0  0  0  0  0  0  0  0  0
  145.9592   75.1794  220.2617 H   0  0  0  0  0  0  0  0  0  0  0  0
  144.3755   74.3895  218.3669 H   0  0  0  0  0  0  0  0  0  0  0  0
  144.0469   75.7031  217.0453 H   0  0  0  0  0  0  0  0  0  0  0  0
  143.0383   77.8536  216.4132 H   0  0  0  0  0  0  0  0  0  0  0  0
  141.8305   79.2402  218.1000 H   0  0  0  0  0  0  0  0  0  0  0  0
  141.6838   78.3599  220.4354 H   0  0  0  0  0  0  0  0  0  0  0  0
  138.1283   77.2855  222.3511 H   0  0  0  0  0  0  0  0  0  0  0  0
  138.2956   79.6779  222.9721 H   0  0  0  0  0  0  0  0  0  0  0  0
  139.6802   81.5752  223.5146 H   0  0  0  0  0  0  0  0  0  0  0  0
  141.9045   82.5726  223.8616 H   0  0  0  0  0  0  0  0  0  0  0  0
  143.9682   81.1843  223.5902 H   0  0  0  0  0  0  0  0  0  0  0  0
  143.7177   78.7774  222.9628 H   0  0  0  0  0  0  0  0  0  0  0  0
  1  2  2  0
  2  3  1  0
  3  4  1  0
  4  5  1  0
  5  6  2  0
  5  7  1  0
  7  8  1  0
  8  9  1  0
  9 10  1  0
 10 11  1  0
 11 12  1  0
 12 13  2  0
 13 14  1  0
 14 15  2  0
 15 16  1  0
 16 17  2  0
  2 18  1  0
 18 19  2  0
 19 20  1  0
 20 21  2  0
 21 22  1  0
 22 23  2  0
 23 24  1  0
 24 25  2  0
 25 26  1  0
 26 27  2  0
 11  7  1  0
 17 12  1  0
 27 18  1  0
 26 21  1  0
  3 28  1  0
  4 29  1  0
  4 30  1  0
  8 31  1  0
  8 32  1  0
  9 33  1  0
  9 34  1  0
 10 35  1  0
 10 36  1  0
 11 37  1  6
 13 38  1  0
 14 39  1  0
 15 40  1  0
 16 41  1  0
 19 42  1  0
 20 43  1  0
 22 44  1  0
 23 45  1  0
 24 46  1  0
 25 47  1  0
M  END
>  <smiles>  (14) 
O=C(NCC(=O)N1CCCC1c1ccccn1)c1ccc2ccccc2n1

>  <score_type>  (14) 
oracle

>  <origin>  (14) 
autodockgpu

>  <m_score__min__energy>  (14) 
-8.9600000000000009

>  <m_primary>  (14) 
energy

>  <rmsd>  (14) 
7.335107059706872

>  <m_score__min__rmsd>  (14) 
7.335107059706872

>  <meeko>  (14) 
{"free_energy": -7.22, "intermolecular_energy": -8.71, "internal_energy": -2.91, "cluster_size": 18, "cluster_id": 5, "rank_in_cluster": 5}

>  <energy>  (14) 
-7.81

>  <cluster_rmsd>  (14) 
1.2

>  <cluster>  (14) 
1

$$$$

     RDKit          3D

 47 50  0  0  0  0  0  0  0  0999 V2000
  141.3430   74.4310  220.9970 O   0  0  0  0  0  0  0  0  0  0  0  0
  140.4020   74.7390  221.7880 C   0  0  0  0  0  0  0  0  0  0  0  0
  139.5300   73.7360  222.3440 N   0  0  0  0  0  0  0  0  0  0  0  0
  139.7380   72.3390  221.9840 C   0  0  0  0  0  0  0  0  0  0  0  0
  139.0210   71.4580  222.9060 C   0  0  0  0  0  0  0  0  0  0  0  0
  137.9000   71.9030  223.3560 O   0  0  0  0  0  0  0  0  0  0  0  0
  139.3960   70.1860  223.3670 N   0  0  0  0  0  0  0  0  0  0  0  0
  139.1840   68.9970  222.4790 C   0  0  0  0  0  0  0  0  0  0  0  0
  138.6310   68.0130  223.4870 C   0  0  0  0  0  0  0  0  0  0  0  0
  138.9360   68.5540  224.8670 C   0  0  0  0  0  0  0  0  0  0  0  0
  139.9510   69.6300  224.5400 C   0  0  2  0  0  0  0  0  0  0  0  0
  140.3360   70.4390  225.6640 C   0  0  0  0  0  0  0  0  0  0  0  0
  139.9170   70.0140  226.9430 C   0  0  0  0  0  0  0  0  0  0  0  0
  140.2580   70.7190  228.0770 C   0  0  0  0  0  0  0  0  0  0  0  0
  141.0200   71.8650  228.0030 C   0  0  0  0  0  0  0  0  0  0  0  0
  141.4200   72.2640  226.7450 C   0  0  0  0  0  0  0  0  0  0  0  0
  141.0730   71.5580  225.6630 N   0  0  0  0  0  0  0  0  0  0  0  0
  140.1820   76.1400  222.1600 C   0  0  0  0  0  0  0  0  0  0  0  0
  138.8960   76.6240  222.2330 C   0  0  0  0  0  0  0  0  0  0  0  0
  138.6340   77.9320  222.5780 C   0  0  0  0  0  0  0  0  0  0  0  0
  139.6890   78.7600  222.8510 C   0  0  0  0  0  0  0  0  0  0  0  0
  139.4760   80.0850  223.2020 C   0  0  0  0  0  0  0  0  0  0  0  0
  140.5310   80.9220  223.4780 C   0  0  0  0  0  0  0  0  0  0  0  0
  141.8390   80.4570  223.4110 C   0  0  0  0  0  0  0  0  0  0  0  0
  142.0400   79.1200  223.0560 C   0  0  0  0  0  0  0  0  0  0  0  0
  140.9880   78.2750  222.7780 C   0  0  0  0  0  0  0  0  0  0  0  0
  141.1920   76.9840  222.4350 N   0  0  0  0  0  0  0  0  0  0  0  0
  138.7800   74.0660  222.9870 H   0  0  0  0  0  0  0  0  0  0  0  0
  139.3687   72.1702  220.9617 H   0  0  0  0  0  0  0  0  0  0  0  0
  140.8132   72.1139  222.0419 H   0  0  0  0  0  0  0  0  0  0  0  0
  138.4616   69.2097  221.6772 H   0  0  0  0  0  0  0  0  0  0  0  0
  140.0800   68.6549  221.9403 H   0  0  0  0  0  0  0  0  0  0  0  0
  137.5436   67.9119  223.3553 H   0  0  0  0  0  0  0  0  0  0  0  0
  139.0874   67.0215  223.3505 H   0  0  0  0  0  0  0  0  0  0  0  0
  138.0386   68.9767  225.3423 H   0  0  0  0  0  0  0  0  0  0  0  0
  139.2927   67.7973  225.5813 H   0  0  0  0  0  0  0  0  0  0  0  0
  140.9812   69.3108  224.3237 H   0  0  0  0  0  0  0  0  0  0  0  0
  139.3071   69.1033  227.0364 H   0  0  0  0  0  0  0  0  0  0  0  0
  139.9158   70.3605  229.0590 H   0  0  0  0  0  0  0  0  0  0  0  0
  141.2957   72.4336  228.9034 H   0  0  0  0  0  0  0  0  0  0  0  0
  142.0305   73.1718  226.6301 H   0  0  0  0  0  0  0  0  0  0  0  0
  138.0559   75.9497  222.0103 H   0  0  0  0  0  0  0  0  0  0  0  0
  137.5997   78.3025  222.6328 H   0  0  0  0  0  0  0  0  0  0  0  0
  138.4478   80.4716  223.2603 H   0  0  0  0  0  0  0  0  0  0  0  0
  140.3382   81.9691  223.7543 H   0  0  0  0  0  0  0  0  0  0  0  0
  142.6890   81.1199  223.6303 H   0  0  0  0  0  0  0  0  0  0  0  0
  143.0674   78.7315  222.9969 H   0  0  0  0  0  0  0  0  0  0  0  0
  1  2  2  0
  2  3  1  0
  3  4  1  0
  4  5  1  0
  5  6  2  0
  5  7  1  0
  7  8  1  0
  8  9  1  0
  9 10  1  0
 10 11  1  0
 11 12  1  0
 12 13  2  0
 13 14  1  0
 14 15  2  0
 15 16  1  0
 16 17  2  0
  2 18  1  0
 18 19  2  0
 19 20  1  0
 20 21  2  0
 21 22  1  0
 22 23  2  0
 23 24  1  0
 24 25  2  0
 25 26  1  0
 26 27  2  0
 11  7  1  0
 17 12  1  0
 27 18  1  0
 26 21  1  0
  3 28  1  0
  4 29  1  0
  4 30  1  0
  8 31  1  0
  8 32  1  0
  9 33  1  0
  9 34  1  0
 10 35  1  0
 10 36  1  0
 11 37  1  6
 13 38  1  0
 14 39  1  0
 15 40  1  0
 16 41  1  0
 19 42  1  0
 20 43  1  0
 22 44  1  0
 23 45  1  0
 24 46  1  0
 25 47  1  0
M  END
>  <smiles>  (15) 
O=C(NCC(=O)N1CCCC1c1ccccn1)c1ccc2ccccc2n1

>  <score_type>  (15) 
oracle

>  <origin>  (15) 
autodockgpu

>  <m_score__min__energy>  (15) 
-8.9600000000000009

>  <m_primary>  (15) 
energy

>  <rmsd>  (15) 
9.096391637977852

>  <m_score__min__rmsd>  (15) 
9.096391637977852

>  <meeko>  (15) 
{"free_energy": -8.44, "intermolecular_energy": -9.93, "internal_energy": -1.62, "cluster_size": 15, "cluster_id": 1, "rank_in_cluster": 6}

>  <energy>  (15) 
-7.77

>  <cluster_rmsd>  (15) 
1.99

>  <cluster>  (15) 
1

$$$$

     RDKit          3D

 47 50  0  0  0  0  0  0  0  0999 V2000
  141.0750   71.4620  221.3440 O   0  0  0  0  0  0  0  0  0  0  0  0
  140.5240   72.0590  222.3160 C   0  0  0  0  0  0  0  0  0  0  0  0
  140.1240   73.4400  222.2190 N   0  0  0  0  0  0  0  0  0  0  0  0
  140.3620   74.1600  220.9740 C   0  0  0  0  0  0  0  0  0  0  0  0
  140.9610   75.4670  221.2420 C   0  0  0  0  0  0  0  0  0  0  0  0
  140.5970   76.0420  222.3350 O   0  0  0  0  0  0  0  0  0  0  0  0
  141.8830   76.1820  220.4610 N   0  0  0  0  0  0  0  0  0  0  0  0
  141.6090   77.6220  220.1450 C   0  0  0  0  0  0  0  0  0  0  0  0
  141.9870   77.6450  218.6800 C   0  0  0  0  0  0  0  0  0  0  0  0
  142.7850   76.3910  218.3950 C   0  0  0  0  0  0  0  0  0  0  0  0
  143.1030   75.9230  219.8010 C   0  0  2  0  0  0  0  0  0  0  0  0
  143.7530   74.6430  219.8630 C   0  0  0  0  0  0  0  0  0  0  0  0
  144.9940   74.5770  220.5350 C   0  0  0  0  0  0  0  0  0  0  0  0
  145.6760   73.3850  220.6590 C   0  0  0  0  0  0  0  0  0  0  0  0
  145.1720   72.2160  220.1310 C   0  0  0  0  0  0  0  0  0  0  0  0
  143.9600   72.3010  219.4790 C   0  0  0  0  0  0  0  0  0  0  0  0
  143.3220   73.4720  219.3750 N   0  0  0  0  0  0  0  0  0  0  0  0
  140.2780   71.3470  223.5740 C   0  0  0  0  0  0  0  0  0  0  0  0
  139.6120   70.1430  223.5480 C   0  0  0  0  0  0  0  0  0  0  0  0
  139.3560   69.4340  224.7020 C   0  0  0  0  0  0  0  0  0  0  0  0
  139.7790   69.9530  225.8960 C   0  0  0  0  0  0  0  0  0  0  0  0
  139.5440   69.2760  227.0840 C   0  0  0  0  0  0  0  0  0  0  0  0
  139.9670   69.7910  228.2870 C   0  0  0  0  0  0  0  0  0  0  0  0
  140.6410   71.0040  228.3380 C   0  0  0  0  0  0  0  0  0  0  0  0
  140.8710   71.6770  227.1350 C   0  0  0  0  0  0  0  0  0  0  0  0
  140.4510   71.1680  225.9250 C   0  0  0  0  0  0  0  0  0  0  0  0
  140.6780   71.8240  224.7660 N   0  0  0  0  0  0  0  0  0  0  0  0
  139.6770   73.8620  223.0590 H   0  0  0  0  0  0  0  0  0  0  0  0
  141.0438   73.5727  220.3413 H   0  0  0  0  0  0  0  0  0  0  0  0
  139.4005   74.3089  220.4609 H   0  0  0  0  0  0  0  0  0  0  0  0
  140.5505   77.8794  220.2977 H   0  0  0  0  0  0  0  0  0  0  0  0
  142.1479   78.3455  220.7744 H   0  0  0  0  0  0  0  0  0  0  0  0
  141.0796   77.6618  218.0584 H   0  0  0  0  0  0  0  0  0  0  0  0
  142.5797   78.5420  218.4474 H   0  0  0  0  0  0  0  0  0  0  0  0
  142.1869   75.6476  217.8476 H   0  0  0  0  0  0  0  0  0  0  0  0
  143.6690   76.5512  217.7602 H   0  0  0  0  0  0  0  0  0  0  0  0
  143.9097   76.4397  220.3415 H   0  0  0  0  0  0  0  0  0  0  0  0
  145.4238   75.4928  220.9670 H   0  0  0  0  0  0  0  0  0  0  0  0
  146.6398   73.3668  221.1889 H   0  0  0  0  0  0  0  0  0  0  0  0
  145.7105   71.2615  220.2251 H   0  0  0  0  0  0  0  0  0  0  0  0
  143.5133   71.3967  219.0400 H   0  0  0  0  0  0  0  0  0  0  0  0
  139.2758   69.7365  222.5828 H   0  0  0  0  0  0  0  0  0  0  0  0
  138.8235   68.4722  224.6643 H   0  0  0  0  0  0  0  0  0  0  0  0
  139.0118   68.3136  227.0634 H   0  0  0  0  0  0  0  0  0  0  0  0
  139.7697   69.2373  229.2168 H   0  0  0  0  0  0  0  0  0  0  0  0
  140.9834   71.4224  229.2960 H   0  0  0  0  0  0  0  0  0  0  0  0
  141.4022   72.6401  227.1544 H   0  0  0  0  0  0  0  0  0  0  0  0
  1  2  2  0
  2  3  1  0
  3  4  1  0
  4  5  1  0
  5  6  2  0
  5  7  1  0
  7  8  1  0
  8  9  1  0
  9 10  1  0
 10 11  1  0
 11 12  1  0
 12 13  2  0
 13 14  1  0
 14 15  2  0
 15 16  1  0
 16 17  2  0
  2 18  1  0
 18 19  2  0
 19 20  1  0
 20 21  2  0
 21 22  1  0
 22 23  2  0
 23 24  1  0
 24 25  2  0
 25 26  1  0
 26 27  2  0
 11  7  1  0
 17 12  1  0
 27 18  1  0
 26 21  1  0
  3 28  1  0
  4 29  1  0
  4 30  1  0
  8 31  1  0
  8 32  1  0
  9 33  1  0
  9 34  1  0
 10 35  1  0
 10 36  1  0
 11 37  1  1
 13 38  1  0
 14 39  1  0
 15 40  1  0
 16 41  1  0
 19 42  1  0
 20 43  1  0
 22 44  1  0
 23 45  1  0
 24 46  1  0
 25 47  1  0
M  END
>  <smiles>  (16) 
O=C(NCC(=O)N1CCCC1c1ccccn1)c1ccc2ccccc2n1

>  <score_type>  (16) 
oracle

>  <origin>  (16) 
autodockgpu

>  <m_score__min__energy>  (16) 
-8.9600000000000009

>  <m_primary>  (16) 
energy

>  <rmsd>  (16) 
4.231563090270335

>  <m_score__min__rmsd>  (16) 
4.231563090270335

>  <meeko>  (16) 
{"free_energy": -8.39, "intermolecular_energy": -9.88, "internal_energy": -1.82, "cluster_size": 12, "cluster_id": 2, "rank_in_cluster": 7}

>  <energy>  (16) 
-8.46

>  <cluster_rmsd>  (16) 
0.0

>  <cluster>  (16) 
2

$$$$

     RDKit          3D

 47 50  0  0  0  0  0  0  0  0999 V2000
  138.9180   75.0820  222.1440 O   0  0  0  0  0  0  0  0  0  0  0  0
  140.0620   75.6230  222.1080 C   0  0  0  0  0  0  0  0  0  0  0  0
  141.2360   74.8750  221.7350 N   0  0  0  0  0  0  0  0  0  0  0  0
  141.0960   73.4640  221.3930 C   0  0  0  0  0  0  0  0  0  0  0  0
  141.8130   73.1610  220.1550 C   0  0  0  0  0  0  0  0  0  0  0  0
  141.1260   72.5890  219.2290 O   0  0  0  0  0  0  0  0  0  0  0  0
  143.1590   73.4120  219.8420 N   0  0  0  0  0  0  0  0  0  0  0  0
  144.1540   72.2970  219.9590 C   0  0  0  0  0  0  0  0  0  0  0  0
  145.2940   73.0330  220.6280 C   0  0  0  0  0  0  0  0  0  0  0  0
  145.0300   74.5160  220.4780 C   0  0  0  0  0  0  0  0  0  0  0  0
  143.9400   74.5120  219.4260 C   0  0  2  0  0  0  0  0  0  0  0  0
  143.3670   75.8040  219.1650 C   0  0  0  0  0  0  0  0  0  0  0  0
  143.4830   76.3120  217.8530 C   0  0  0  0  0  0  0  0  0  0  0  0
  142.9460   77.5350  217.5110 C   0  0  0  0  0  0  0  0  0  0  0  0
  142.2770   78.3060  218.4370 C   0  0  0  0  0  0  0  0  0  0  0  0
  142.1740   77.7920  219.7130 C   0  0  0  0  0  0  0  0  0  0  0  0
  142.7060   76.6020  220.0150 N   0  0  0  0  0  0  0  0  0  0  0  0
  140.2180   77.0410  222.4480 C   0  0  0  0  0  0  0  0  0  0  0  0
  139.0970   77.8250  222.6000 C   0  0  0  0  0  0  0  0  0  0  0  0
  139.1880   79.1620  222.9190 C   0  0  0  0  0  0  0  0  0  0  0  0
  140.4310   79.7110  223.0870 C   0  0  0  0  0  0  0  0  0  0  0  0
  140.5730   81.0530  223.4090 C   0  0  0  0  0  0  0  0  0  0  0  0
  141.8190   81.6110  223.5800 C   0  0  0  0  0  0  0  0  0  0  0  0
  142.9650   80.8400  223.4320 C   0  0  0  0  0  0  0  0  0  0  0  0
  142.8080   79.4900  223.1070 C   0  0  0  0  0  0  0  0  0  0  0  0
  141.5630   78.9220  222.9350 C   0  0  0  0  0  0  0  0  0  0  0  0
  141.4210   77.6160  222.6210 N   0  0  0  0  0  0  0  0  0  0  0  0
  142.1410   75.3880  221.7280 H   0  0  0  0  0  0  0  0  0  0  0  0
  141.5081   72.8517  222.2086 H   0  0  0  0  0  0  0  0  0  0  0  0
  140.0291   73.2380  221.2494 H   0  0  0  0  0  0  0  0  0  0  0  0
  143.7751   71.4755  220.5848 H   0  0  0  0  0  0  0  0  0  0  0  0
  144.4131   71.8051  219.0098 H   0  0  0  0  0  0  0  0  0  0  0  0
  145.3391   72.7657  221.6941 H   0  0  0  0  0  0  0  0  0  0  0  0
  146.2542   72.7621  220.1648 H   0  0  0  0  0  0  0  0  0  0  0  0
  144.6795   74.9611  221.4209 H   0  0  0  0  0  0  0  0  0  0  0  0
  145.9167   75.1090  220.2093 H   0  0  0  0  0  0  0  0  0  0  0  0
  144.2410   74.3534  218.3799 H   0  0  0  0  0  0  0  0  0  0  0  0
  144.0112   75.7216  217.0899 H   0  0  0  0  0  0  0  0  0  0  0  0
  143.0536   77.9023  216.4797 H   0  0  0  0  0  0  0  0  0  0  0  0
  141.8465   79.2829  218.1717 H   0  0  0  0  0  0  0  0  0  0  0  0
  141.6490   78.3665  220.4904 H   0  0  0  0  0  0  0  0  0  0  0  0
  138.1037   77.3727  222.4634 H   0  0  0  0  0  0  0  0  0  0  0  0
  138.2822   79.7750  223.0362 H   0  0  0  0  0  0  0  0  0  0  0  0
  139.6770   81.6796  223.5293 H   0  0  0  0  0  0  0  0  0  0  0  0
  141.9085   82.6770  223.8362 H   0  0  0  0  0  0  0  0  0  0  0  0
  143.9648   81.2784  223.5665 H   0  0  0  0  0  0  0  0  0  0  0  0
  143.7030   78.8623  222.9848 H   0  0  0  0  0  0  0  0  0  0  0  0
  1  2  2  0
  2  3  1  0
  3  4  1  0
  4  5  1  0
  5  6  2  0
  5  7  1  0
  7  8  1  0
  8  9  1  0
  9 10  1  0
 10 11  1  0
 11 12  1  0
 12 13  2  0
 13 14  1  0
 14 15  2  0
 15 16  1  0
 16 17  2  0
  2 18  1  0
 18 19  2  0
 19 20  1  0
 20 21  2  0
 21 22  1  0
 22 23  2  0
 23 24  1  0
 24 25  2  0
 25 26  1  0
 26 27  2  0
 11  7  1  0
 17 12  1  0
 27 18  1  0
 26 21  1  0
  3 28  1  0
  4 29  1  0
  4 30  1  0
  8 31  1  0
  8 32  1  0
  9 33  1  0
  9 34  1  0
 10 35  1  0
 10 36  1  0
 11 37  1  6
 13 38  1  0
 14 39  1  0
 15 40  1  0
 16 41  1  0
 19 42  1  0
 20 43  1  0
 22 44  1  0
 23 45  1  0
 24 46  1  0
 25 47  1  0
M  END
>  <smiles>  (17) 
O=C(NCC(=O)N1CCCC1c1ccccn1)c1ccc2ccccc2n1

>  <score_type>  (17) 
oracle

>  <origin>  (17) 
autodockgpu

>  <m_score__min__energy>  (17) 
-8.9600000000000009

>  <m_primary>  (17) 
energy

>  <rmsd>  (17) 
7.353612179116982

>  <m_score__min__rmsd>  (17) 
7.353612179116982

>  <meeko>  (17) 
{"free_energy": -7.23, "intermolecular_energy": -8.72, "internal_energy": -2.9, "cluster_size": 18, "cluster_id": 5, "rank_in_cluster": 3}

>  <energy>  (17) 
-8.45

>  <cluster_rmsd>  (17) 
0.09

>  <cluster>  (17) 
2

$$$$

     RDKit          3D

 47 50  0  0  0  0  0  0  0  0999 V2000
  141.0120   71.5430  221.3540 O   0  0  0  0  0  0  0  0  0  0  0  0
  140.4690   72.1300  222.3370 C   0  0  0  0  0  0  0  0  0  0  0  0
  140.0380   73.5020  222.2490 N   0  0  0  0  0  0  0  0  0  0  0  0
  140.2340   74.2260  220.9990 C   0  0  0  0  0  0  0  0  0  0  0  0
  140.9150   75.4970  221.2420 C   0  0  0  0  0  0  0  0  0  0  0  0
  140.6730   76.0610  222.3730 O   0  0  0  0  0  0  0  0  0  0  0  0
  141.8000   76.1880  220.3990 N   0  0  0  0  0  0  0  0  0  0  0  0
  141.4070   77.5380  219.8790 C   0  0  0  0  0  0  0  0  0  0  0  0
  141.8470   77.4020  218.4380 C   0  0  0  0  0  0  0  0  0  0  0  0
  142.7720   76.2070  218.3550 C   0  0  0  0  0  0  0  0  0  0  0  0
  143.0680   75.9660  219.8210 C   0  0  2  0  0  0  0  0  0  0  0  0
  143.8320   74.7760  220.0810 C   0  0  0  0  0  0  0  0  0  0  0  0
  143.2170   73.5370  219.8010 C   0  0  0  0  0  0  0  0  0  0  0  0
  143.8840   72.3470  220.0030 C   0  0  0  0  0  0  0  0  0  0  0  0
  145.1750   72.3250  220.4860 C   0  0  0  0  0  0  0  0  0  0  0  0
  145.7580   73.5460  220.7530 C   0  0  0  0  0  0  0  0  0  0  0  0
  145.0850   74.6840  220.5470 N   0  0  0  0  0  0  0  0  0  0  0  0
  140.2650   71.4140  223.6010 C   0  0  0  0  0  0  0  0  0  0  0  0
  139.6100   70.2040  223.5920 C   0  0  0  0  0  0  0  0  0  0  0  0
  139.3920   69.4910  224.7510 C   0  0  0  0  0  0  0  0  0  0  0  0
  139.8450   70.0120  225.9330 C   0  0  0  0  0  0  0  0  0  0  0  0
  139.6500   69.3310  227.1260 C   0  0  0  0  0  0  0  0  0  0  0  0
  140.1030   69.8470  228.3180 C   0  0  0  0  0  0  0  0  0  0  0  0
  140.7680   71.0670  228.3520 C   0  0  0  0  0  0  0  0  0  0  0  0
  140.9570   71.7430  227.1440 C   0  0  0  0  0  0  0  0  0  0  0  0
  140.5070   71.2320  225.9450 C   0  0  0  0  0  0  0  0  0  0  0  0
  140.6950   71.8930  224.7820 N   0  0  0  0  0  0  0  0  0  0  0  0
  139.6000   73.9150  223.0990 H   0  0  0  0  0  0  0  0  0  0  0  0
  140.8435   73.6136  220.3182 H   0  0  0  0  0  0  0  0  0  0  0  0
  139.2510   74.4305  220.5496 H   0  0  0  0  0  0  0  0  0  0  0  0
  140.3232   77.7074  219.9608 H   0  0  0  0  0  0  0  0  0  0  0  0
  141.8468   78.3890  220.4196 H   0  0  0  0  0  0  0  0  0  0  0  0
  140.9712   77.2445  217.7913 H   0  0  0  0  0  0  0  0  0  0  0  0
  142.3620   78.3143  218.1027 H   0  0  0  0  0  0  0  0  0  0  0  0
  142.2725   75.3409  217.8963 H   0  0  0  0  0  0  0  0  0  0  0  0
  143.6651   76.3680  217.7333 H   0  0  0  0  0  0  0  0  0  0  0  0
  143.7972   76.6286  220.3100 H   0  0  0  0  0  0  0  0  0  0  0  0
  142.1872   73.5202  219.4147 H   0  0  0  0  0  0  0  0  0  0  0  0
  143.3767   71.3981  219.7746 H   0  0  0  0  0  0  0  0  0  0  0  0
  145.7136   71.3801  220.6503 H   0  0  0  0  0  0  0  0  0  0  0  0
  146.7872   73.5847  221.1394 H   0  0  0  0  0  0  0  0  0  0  0  0
  139.2514   69.7955  222.6357 H   0  0  0  0  0  0  0  0  0  0  0  0
  138.8660   68.5252  224.7268 H   0  0  0  0  0  0  0  0  0  0  0  0
  139.1254   68.3642  227.1186 H   0  0  0  0  0  0  0  0  0  0  0  0
  139.9376   69.2896  229.2518 H   0  0  0  0  0  0  0  0  0  0  0  0
  141.1341   71.4872  229.3004 H   0  0  0  0  0  0  0  0  0  0  0  0
  141.4799   72.7108  227.1496 H   0  0  0  0  0  0  0  0  0  0  0  0
  1  2  2  0
  2  3  1  0
  3  4  1  0
  4  5  1  0
  5  6  2  0
  5  7  1  0
  7  8  1  0
  8  9  1  0
  9 10  1  0
 10 11  1  0
 11 12  1  0
 12 13  2  0
 13 14  1  0
 14 15  2  0
 15 16  1  0
 16 17  2  0
  2 18  1  0
 18 19  2  0
 19 20  1  0
 20 21  2  0
 21 22  1  0
 22 23  2  0
 23 24  1  0
 24 25  2  0
 25 26  1  0
 26 27  2  0
 11  7  1  0
 17 12  1  0
 27 18  1  0
 26 21  1  0
  3 28  1  0
  4 29  1  0
  4 30  1  0
  8 31  1  0
  8 32  1  0
  9 33  1  0
  9 34  1  0
 10 35  1  0
 10 36  1  0
 11 37  1  1
 13 38  1  0
 14 39  1  0
 15 40  1  0
 16 41  1  0
 19 42  1  0
 20 43  1  0
 22 44  1  0
 23 45  1  0
 24 46  1  0
 25 47  1  0
M  END
>  <smiles>  (18) 
O=C(NCC(=O)N1CCCC1c1ccccn1)c1ccc2ccccc2n1

>  <score_type>  (18) 
oracle

>  <origin>  (18) 
autodockgpu

>  <m_score__min__energy>  (18) 
-8.9600000000000009

>  <m_primary>  (18) 
energy

>  <rmsd>  (18) 
4.196852935920295

>  <m_score__min__rmsd>  (18) 
4.196852935920295

>  <meeko>  (18) 
{"free_energy": -8.4, "intermolecular_energy": -9.89, "internal_energy": -1.77, "cluster_size": 12, "cluster_id": 2, "rank_in_cluster": 5}

>  <energy>  (18) 
-8.43

>  <cluster_rmsd>  (18) 
0.09

>  <cluster>  (18) 
2

$$$$

     RDKit          3D

 47 50  0  0  0  0  0  0  0  0999 V2000
  141.3420   71.7770  221.4850 O   0  0  0  0  0  0  0  0  0  0  0  0
  140.6350   72.2870  222.4030 C   0  0  0  0  0  0  0  0  0  0  0  0
  140.1310   73.6330  222.3030 N   0  0  0  0  0  0  0  0  0  0  0  0
  140.4460   74.4200  221.1170 C   0  0  0  0  0  0  0  0  0  0  0  0
  140.1210   75.8290  221.3330 C   0  0  0  0  0  0  0  0  0  0  0  0
  139.5850   76.1190  222.4670 O   0  0  0  0  0  0  0  0  0  0  0  0
  140.3170   76.9140  220.4630 N   0  0  0  0  0  0  0  0  0  0  0  0
  139.8660   76.7950  219.0380 C   0  0  0  0  0  0  0  0  0  0  0  0
  141.0570   77.4080  218.3350 C   0  0  0  0  0  0  0  0  0  0  0  0
  141.8650   78.1550  219.3730 C   0  0  0  0  0  0  0  0  0  0  0  0
  140.8830   78.2050  220.5250 C   0  0  2  0  0  0  0  0  0  0  0  0
  141.4260   78.7470  221.7410 C   0  0  0  0  0  0  0  0  0  0  0  0
  142.1790   79.9370  221.6420 C   0  0  0  0  0  0  0  0  0  0  0  0
  142.7210   80.5340  222.7600 C   0  0  0  0  0  0  0  0  0  0  0  0
  142.5470   79.9910  224.0150 C   0  0  0  0  0  0  0  0  0  0  0  0
  141.8090   78.8290  224.0910 C   0  0  0  0  0  0  0  0  0  0  0  0
  141.2960   78.2730  222.9880 N   0  0  0  0  0  0  0  0  0  0  0  0
  140.3090   71.5070  223.6010 C   0  0  0  0  0  0  0  0  0  0  0  0
  139.5690   70.3540  223.4750 C   0  0  0  0  0  0  0  0  0  0  0  0
  139.2360   69.5850  224.5690 C   0  0  0  0  0  0  0  0  0  0  0  0
  139.6580   69.9910  225.8060 C   0  0  0  0  0  0  0  0  0  0  0  0
  139.3470   69.2500  226.9370 C   0  0  0  0  0  0  0  0  0  0  0  0
  139.7670   69.6510  228.1830 C   0  0  0  0  0  0  0  0  0  0  0  0
  140.5150   70.8120  228.3370 C   0  0  0  0  0  0  0  0  0  0  0  0
  140.8210   71.5490  227.1900 C   0  0  0  0  0  0  0  0  0  0  0  0
  140.4040   71.1540  225.9370 C   0  0  0  0  0  0  0  0  0  0  0  0
  140.7040   71.8730  224.8340 N   0  0  0  0  0  0  0  0  0  0  0  0
  139.5550   73.9820  223.0970 H   0  0  0  0  0  0  0  0  0  0  0  0
  141.5194   74.3264  220.8957 H   0  0  0  0  0  0  0  0  0  0  0  0
  139.8492   74.0438  220.2730 H   0  0  0  0  0  0  0  0  0  0  0  0
  139.7136   75.7460  218.7440 H   0  0  0  0  0  0  0  0  0  0  0  0
  138.9001   77.2721  218.8158 H   0  0  0  0  0  0  0  0  0  0  0  0
  141.6712   76.6176  217.8789 H   0  0  0  0  0  0  0  0  0  0  0  0
  140.7265   78.0901  217.5378 H   0  0  0  0  0  0  0  0  0  0  0  0
  142.7787   77.6062  219.6450 H   0  0  0  0  0  0  0  0  0  0  0  0
  142.2262   79.1401  219.0428 H   0  0  0  0  0  0  0  0  0  0  0  0
  140.0719   78.9461  220.4715 H   0  0  0  0  0  0  0  0  0  0  0  0
  142.3361   80.3961  220.6548 H   0  0  0  0  0  0  0  0  0  0  0  0
  143.3030   81.4607  222.6486 H   0  0  0  0  0  0  0  0  0  0  0  0
  142.9760   80.4618  224.9119 H   0  0  0  0  0  0  0  0  0  0  0  0
  141.6403   78.3542  225.0688 H   0  0  0  0  0  0  0  0  0  0  0  0
  139.2347   70.0380  222.4758 H   0  0  0  0  0  0  0  0  0  0  0  0
  138.6442   68.6653  224.4507 H   0  0  0  0  0  0  0  0  0  0  0  0
  138.7557   68.3281  226.8352 H   0  0  0  0  0  0  0  0  0  0  0  0
  139.5088   69.0477  229.0658 H   0  0  0  0  0  0  0  0  0  0  0  0
  140.8553   71.1403  229.3302 H   0  0  0  0  0  0  0  0  0  0  0  0
  141.4119   72.4714  227.2899 H   0  0  0  0  0  0  0  0  0  0  0  0
  1  2  2  0
  2  3  1  0
  3  4  1  0
  4  5  1  0
  5  6  2  0
  5  7  1  0
  7  8  1  0
  8  9  1  0
  9 10  1  0
 10 11  1  0
 11 12  1  0
 12 13  2  0
 13 14  1  0
 14 15  2  0
 15 16  1  0
 16 17  2  0
  2 18  1  0
 18 19  2  0
 19 20  1  0
 20 21  2  0
 21 22  1  0
 22 23  2  0
 23 24  1  0
 24 25  2  0
 25 26  1  0
 26 27  2  0
 11  7  1  0
 17 12  1  0
 27 18  1  0
 26 21  1  0
  3 28  1  0
  4 29  1  0
  4 30  1  0
  8 31  1  0
  8 32  1  0
  9 33  1  0
  9 34  1  0
 10 35  1  0
 10 36  1  0
 11 37  1  6
 13 38  1  0
 14 39  1  0
 15 40  1  0
 16 41  1  0
 19 42  1  0
 20 43  1  0
 22 44  1  0
 23 45  1  0
 24 46  1  0
 25 47  1  0
M  END
>  <smiles>  (19) 
O=C(NCC(=O)N1CCCC1c1ccccn1)c1ccc2ccccc2n1

>  <score_type>  (19) 
oracle

>  <origin>  (19) 
autodockgpu

>  <m_score__min__energy>  (19) 
-8.9600000000000009

>  <m_primary>  (19) 
energy

>  <rmsd>  (19) 
2.0383124312572405

>  <m_score__min__rmsd>  (19) 
2.0383124312572405

>  <meeko>  (19) 
{"free_energy": -8.41, "intermolecular_energy": -9.9, "internal_energy": -1.73, "cluster_size": 4, "cluster_id": 3, "rank_in_cluster": 1}

>  <energy>  (19) 
-8.41

>  <cluster_rmsd>  (19) 
0.16

>  <cluster>  (19) 
2

$$$$

     RDKit          3D

 47 50  0  0  0  0  0  0  0  0999 V2000
  140.8630   71.4410  221.3350 O   0  0  0  0  0  0  0  0  0  0  0  0
  140.3730   71.9970  222.3620 C   0  0  0  0  0  0  0  0  0  0  0  0
  140.0040   73.3900  222.3590 N   0  0  0  0  0  0  0  0  0  0  0  0
  140.2010   74.1710  221.1440 C   0  0  0  0  0  0  0  0  0  0  0  0
  139.8320   75.5680  221.3650 C   0  0  0  0  0  0  0  0  0  0  0  0
  139.4440   75.8690  222.5550 O   0  0  0  0  0  0  0  0  0  0  0  0
  139.8430   76.6300  220.4460 N   0  0  0  0  0  0  0  0  0  0  0  0
  139.2850   76.4110  219.0720 C   0  0  0  0  0  0  0  0  0  0  0  0
  140.3440   77.1060  218.2450 C   0  0  0  0  0  0  0  0  0  0  0  0
  141.1620   77.9680  219.1820 C   0  0  0  0  0  0  0  0  0  0  0  0
  140.2820   77.9710  220.4160 C   0  0  2  0  0  0  0  0  0  0  0  0
  140.8730   78.6110  221.5600 C   0  0  0  0  0  0  0  0  0  0  0  0
  140.0470   78.8170  222.6870 C   0  0  0  0  0  0  0  0  0  0  0  0
  140.5370   79.4050  223.8330 C   0  0  0  0  0  0  0  0  0  0  0  0
  141.8500   79.8150  223.9200 C   0  0  0  0  0  0  0  0  0  0  0  0
  142.6400   79.6050  222.8100 C   0  0  0  0  0  0  0  0  0  0  0  0
  142.1360   79.0310  221.7120 N   0  0  0  0  0  0  0  0  0  0  0  0
  140.1690   71.2240  223.5920 C   0  0  0  0  0  0  0  0  0  0  0  0
  139.5700   69.9870  223.5180 C   0  0  0  0  0  0  0  0  0  0  0  0
  139.3550   69.2200  224.6430 C   0  0  0  0  0  0  0  0  0  0  0  0
  139.7510   69.7140  225.8570 C   0  0  0  0  0  0  0  0  0  0  0  0
  139.5560   68.9790  227.0170 C   0  0  0  0  0  0  0  0  0  0  0  0
  139.9510   69.4690  228.2390 C   0  0  0  0  0  0  0  0  0  0  0  0
  140.5580   70.7140  228.3390 C   0  0  0  0  0  0  0  0  0  0  0  0
  140.7490   71.4450  227.1630 C   0  0  0  0  0  0  0  0  0  0  0  0
  140.3550   70.9620  225.9340 C   0  0  0  0  0  0  0  0  0  0  0  0
  140.5440   71.6750  224.8020 N   0  0  0  0  0  0  0  0  0  0  0  0
  139.6070   73.7750  223.2410 H   0  0  0  0  0  0  0  0  0  0  0  0
  141.2593   74.1190  220.8484 H   0  0  0  0  0  0  0  0  0  0  0  0
  139.5632   73.7572  220.3491 H   0  0  0  0  0  0  0  0  0  0  0  0
  139.2122   75.3412  218.8266 H   0  0  0  0  0  0  0  0  0  0  0  0
  138.2612   76.7845  218.9226 H   0  0  0  0  0  0  0  0  0  0  0  0
  140.9910   76.3601  217.7602 H   0  0  0  0  0  0  0  0  0  0  0  0
  139.8798   77.7209  217.4598 H   0  0  0  0  0  0  0  0  0  0  0  0
  142.1452   77.5198  219.3882 H   0  0  0  0  0  0  0  0  0  0  0  0
  141.3954   78.9687  218.7895 H   0  0  0  0  0  0  0  0  0  0  0  0
  139.3999   78.6282  220.4125 H   0  0  0  0  0  0  0  0  0  0  0  0
  138.9936   78.5024  222.6493 H   0  0  0  0  0  0  0  0  0  0  0  0
  139.8680   79.5498  224.6941 H   0  0  0  0  0  0  0  0  0  0  0  0
  142.2480   80.2867  224.8306 H   0  0  0  0  0  0  0  0  0  0  0  0
  143.6959   79.9127  222.8274 H   0  0  0  0  0  0  0  0  0  0  0  0
  139.2552   69.6010  222.5372 H   0  0  0  0  0  0  0  0  0  0  0  0
  138.8758   68.2328  224.5671 H   0  0  0  0  0  0  0  0  0  0  0  0
  139.0784   67.9898  226.9582 H   0  0  0  0  0  0  0  0  0  0  0  0
  139.7848   68.8694  229.1461 H   0  0  0  0  0  0  0  0  0  0  0  0
  140.8784   71.1124  229.3130 H   0  0  0  0  0  0  0  0  0  0  0  0
  141.2274   72.4339  227.2202 H   0  0  0  0  0  0  0  0  0  0  0  0
  1  2  2  0
  2  3  1  0
  3  4  1  0
  4  5  1  0
  5  6  2  0
  5  7  1  0
  7  8  1  0
  8  9  1  0
  9 10  1  0
 10 11  1  0
 11 12  1  0
 12 13  2  0
 13 14  1  0
 14 15  2  0
 15 16  1  0
 16 17  2  0
  2 18  1  0
 18 19  2  0
 19 20  1  0
 20 21  2  0
 21 22  1  0
 22 23  2  0
 23 24  1  0
 24 25  2  0
 25 26  1  0
 26 27  2  0
 11  7  1  0
 17 12  1  0
 27 18  1  0
 26 21  1  0
  3 28  1  0
  4 29  1  0
  4 30  1  0
  8 31  1  0
  8 32  1  0
  9 33  1  0
  9 34  1  0
 10 35  1  0
 10 36  1  0
 11 37  1  6
 13 38  1  0
 14 39  1  0
 15 40  1  0
 16 41  1  0
 19 42  1  0
 20 43  1  0
 22 44  1  0
 23 45  1  0
 24 46  1  0
 25 47  1  0
M  END
>  <smiles>  (20) 
O=C(NCC(=O)N1CCCC1c1ccccn1)c1ccc2ccccc2n1

>  <score_type>  (20) 
oracle

>  <origin>  (20) 
autodockgpu

>  <m_score__min__energy>  (20) 
-8.9600000000000009

>  <m_primary>  (20) 
energy

>  <rmsd>  (20) 
2.1330127991081937

>  <m_score__min__rmsd>  (20) 
2.1330127991081937

>  <meeko>  (20) 
{"free_energy": -7.88, "intermolecular_energy": -9.37, "internal_energy": -1.84, "cluster_size": 15, "cluster_id": 1, "rank_in_cluster": 12}

>  <energy>  (20) 
-8.4

>  <cluster_rmsd>  (20) 
0.53

>  <cluster>  (20) 
2

$$$$

     RDKit          3D

 47 50  0  0  0  0  0  0  0  0999 V2000
  141.5460   71.8230  221.5550 O   0  0  0  0  0  0  0  0  0  0  0  0
  140.6580   72.2560  222.3470 C   0  0  0  0  0  0  0  0  0  0  0  0
  139.9380   73.4740  222.0750 N   0  0  0  0  0  0  0  0  0  0  0  0
  140.2430   74.2190  220.8600 C   0  0  0  0  0  0  0  0  0  0  0  0
  140.9870   75.4380  221.1780 C   0  0  0  0  0  0  0  0  0  0  0  0
  140.7920   75.9300  222.3510 O   0  0  0  0  0  0  0  0  0  0  0  0
  141.8880   76.1470  220.3670 N   0  0  0  0  0  0  0  0  0  0  0  0
  141.5010   77.5030  219.8590 C   0  0  0  0  0  0  0  0  0  0  0  0
  141.9750   77.3910  218.4270 C   0  0  0  0  0  0  0  0  0  0  0  0
  142.9080   76.2030  218.3470 C   0  0  0  0  0  0  0  0  0  0  0  0
  143.1710   75.9400  219.8160 C   0  0  2  0  0  0  0  0  0  0  0  0
  143.9350   74.7500  220.0750 C   0  0  0  0  0  0  0  0  0  0  0  0
  143.4130   73.5270  219.5980 C   0  0  0  0  0  0  0  0  0  0  0  0
  144.0890   72.3410  219.7860 C   0  0  0  0  0  0  0  0  0  0  0  0
  145.2980   72.3050  220.4470 C   0  0  0  0  0  0  0  0  0  0  0  0
  145.7910   73.5090  220.9040 C   0  0  0  0  0  0  0  0  0  0  0  0
  145.1120   74.6440  220.7060 N   0  0  0  0  0  0  0  0  0  0  0  0
  140.3400   71.5160  223.5720 C   0  0  0  0  0  0  0  0  0  0  0  0
  139.5700   70.3780  223.4920 C   0  0  0  0  0  0  0  0  0  0  0  0
  139.2430   69.6460  224.6130 C   0  0  0  0  0  0  0  0  0  0  0  0
  139.7010   70.0740  225.8300 C   0  0  0  0  0  0  0  0  0  0  0  0
  139.3980   69.3710  226.9870 C   0  0  0  0  0  0  0  0  0  0  0  0
  139.8550   69.7940  228.2130 C   0  0  0  0  0  0  0  0  0  0  0  0
  140.6330   70.9400  228.3190 C   0  0  0  0  0  0  0  0  0  0  0  0
  140.9320   71.6390  227.1460 C   0  0  0  0  0  0  0  0  0  0  0  0
  140.4780   71.2220  225.9140 C   0  0  0  0  0  0  0  0  0  0  0  0
  140.7710   71.9040  224.7860 N   0  0  0  0  0  0  0  0  0  0  0  0
  139.2220   73.7650  222.7720 H   0  0  0  0  0  0  0  0  0  0  0  0
  140.8490   73.5892  220.1920 H   0  0  0  0  0  0  0  0  0  0  0  0
  139.2995   74.4970  220.3676 H   0  0  0  0  0  0  0  0  0  0  0  0
  140.4148   77.6665  219.9180 H   0  0  0  0  0  0  0  0  0  0  0  0
  141.9241   78.3475  220.4228 H   0  0  0  0  0  0  0  0  0  0  0  0
  141.1153   77.2388  217.7579 H   0  0  0  0  0  0  0  0  0  0  0  0
  142.4927   78.3110  218.1178 H   0  0  0  0  0  0  0  0  0  0  0  0
  142.4243   75.3417  217.8630 H   0  0  0  0  0  0  0  0  0  0  0  0
  143.8145   76.3787  217.7492 H   0  0  0  0  0  0  0  0  0  0  0  0
  143.8852   76.5978  220.3330 H   0  0  0  0  0  0  0  0  0  0  0  0
  142.4497   73.5213  219.0670 H   0  0  0  0  0  0  0  0  0  0  0  0
  143.6558   71.4058  219.4015 H   0  0  0  0  0  0  0  0  0  0  0  0
  145.8428   71.3621  220.6023 H   0  0  0  0  0  0  0  0  0  0  0  0
  146.7529   73.5362  221.4370 H   0  0  0  0  0  0  0  0  0  0  0  0
  139.2066   70.0444  222.5088 H   0  0  0  0  0  0  0  0  0  0  0  0
  138.6276   68.7379  224.5316 H   0  0  0  0  0  0  0  0  0  0  0  0
  138.7828   68.4614  226.9227 H   0  0  0  0  0  0  0  0  0  0  0  0
  139.6025   69.2204  229.1170 H   0  0  0  0  0  0  0  0  0  0  0  0
  141.0022   71.2866  229.2955 H   0  0  0  0  0  0  0  0  0  0  0  0
  141.5477   72.5484  227.2085 H   0  0  0  0  0  0  0  0  0  0  0  0
  1  2  2  0
  2  3  1  0
  3  4  1  0
  4  5  1  0
  5  6  2  0
  5  7  1  0
  7  8  1  0
  8  9  1  0
  9 10  1  0
 10 11  1  0
 11 12  1  0
 12 13  2  0
 13 14  1  0
 14 15  2  0
 15 16  1  0
 16 17  2  0
  2 18  1  0
 18 19  2  0
 19 20  1  0
 20 21  2  0
 21 22  1  0
 22 23  2  0
 23 24  1  0
 24 25  2  0
 25 26  1  0
 26 27  2  0
 11  7  1  0
 17 12  1  0
 27 18  1  0
 26 21  1  0
  3 28  1  0
  4 29  1  0
  4 30  1  0
  8 31  1  0
  8 32  1  0
  9 33  1  0
  9 34  1  0
 10 35  1  0
 10 36  1  0
 11 37  1  1
 13 38  1  0
 14 39  1  0
 15 40  1  0
 16 41  1  0
 19 42  1  0
 20 43  1  0
 22 44  1  0
 23 45  1  0
 24 46  1  0
 25 47  1  0
M  END
>  <smiles>  (21) 
O=C(NCC(=O)N1CCCC1c1ccccn1)c1ccc2ccccc2n1

>  <score_type>  (21) 
oracle

>  <origin>  (21) 
autodockgpu

>  <m_score__min__energy>  (21) 
-8.9600000000000009

>  <m_primary>  (21) 
energy

>  <rmsd>  (21) 
4.241217960009428

>  <m_score__min__rmsd>  (21) 
4.241217960009428

>  <meeko>  (21) 
{"free_energy": -8.39, "intermolecular_energy": -9.88, "internal_energy": -1.65, "cluster_size": 12, "cluster_id": 2, "rank_in_cluster": 8}

>  <energy>  (21) 
-8.39

>  <cluster_rmsd>  (21) 
0.17

>  <cluster>  (21) 
2

$$$$

     RDKit          3D

 47 50  0  0  0  0  0  0  0  0999 V2000
  140.6730   71.4740  221.3120 O   0  0  0  0  0  0  0  0  0  0  0  0
  140.2670   72.0810  222.3470 C   0  0  0  0  0  0  0  0  0  0  0  0
  139.8840   73.4690  222.3040 N   0  0  0  0  0  0  0  0  0  0  0  0
  139.9690   74.1860  221.0370 C   0  0  0  0  0  0  0  0  0  0  0  0
  140.3730   75.5740  221.2580 C   0  0  0  0  0  0  0  0  0  0  0  0
  140.5150   75.9330  222.4860 O   0  0  0  0  0  0  0  0  0  0  0  0
  140.6250   76.5720  220.3030 N   0  0  0  0  0  0  0  0  0  0  0  0
  140.6770   76.1970  218.8530 C   0  0  0  0  0  0  0  0  0  0  0  0
  141.8920   76.9880  218.4200 C   0  0  0  0  0  0  0  0  0  0  0  0
  142.1770   78.0110  219.4990 C   0  0  0  0  0  0  0  0  0  0  0  0
  140.8900   77.9590  220.2970 C   0  0  2  0  0  0  0  0  0  0  0  0
  140.9120   78.7410  221.5030 C   0  0  0  0  0  0  0  0  0  0  0  0
  142.1740   79.1380  221.9960 C   0  0  0  0  0  0  0  0  0  0  0  0
  142.2850   79.9060  223.1360 C   0  0  0  0  0  0  0  0  0  0  0  0
  141.1690   80.3120  223.8350 C   0  0  0  0  0  0  0  0  0  0  0  0
  139.9470   79.9130  223.3380 C   0  0  0  0  0  0  0  0  0  0  0  0
  139.8710   79.1690  222.2290 N   0  0  0  0  0  0  0  0  0  0  0  0
  140.1760   71.3720  223.6280 C   0  0  0  0  0  0  0  0  0  0  0  0
  139.5780   70.1330  223.6720 C   0  0  0  0  0  0  0  0  0  0  0  0
  139.4680   69.4250  224.8500 C   0  0  0  0  0  0  0  0  0  0  0  0
  139.9690   69.9800  225.9960 C   0  0  0  0  0  0  0  0  0  0  0  0
  139.8810   69.3060  227.2050 C   0  0  0  0  0  0  0  0  0  0  0  0
  140.3830   69.8580  228.3600 C   0  0  0  0  0  0  0  0  0  0  0  0
  140.9910   71.1060  228.3410 C   0  0  0  0  0  0  0  0  0  0  0  0
  141.0730   71.7750  227.1170 C   0  0  0  0  0  0  0  0  0  0  0  0
  140.5730   71.2300  225.9540 C   0  0  0  0  0  0  0  0  0  0  0  0
  140.6570   71.8840  224.7750 N   0  0  0  0  0  0  0  0  0  0  0  0
  139.5600   73.8980  223.1950 H   0  0  0  0  0  0  0  0  0  0  0  0
  140.7098   73.6922  220.3910 H   0  0  0  0  0  0  0  0  0  0  0  0
  138.9794   74.1765  220.5567 H   0  0  0  0  0  0  0  0  0  0  0  0
  140.8240   75.1155  218.7161 H   0  0  0  0  0  0  0  0  0  0  0  0
  139.7589   76.4109  218.2861 H   0  0  0  0  0  0  0  0  0  0  0  0
  142.7550   76.3162  218.3020 H   0  0  0  0  0  0  0  0  0  0  0  0
  141.7082   77.4834  217.4552 H   0  0  0  0  0  0  0  0  0  0  0  0
  143.0436   77.7210  220.1113 H   0  0  0  0  0  0  0  0  0  0  0  0
  142.4335   79.0107  219.1185 H   0  0  0  0  0  0  0  0  0  0  0  0
  140.0134   78.4820  219.8871 H   0  0  0  0  0  0  0  0  0  0  0  0
  143.0845   78.8294  221.4615 H   0  0  0  0  0  0  0  0  0  0  0  0
  143.2828   80.1999  223.4939 H   0  0  0  0  0  0  0  0  0  0  0  0
  141.2495   80.9245  224.7451 H   0  0  0  0  0  0  0  0  0  0  0  0
  139.0246   80.2095  223.8588 H   0  0  0  0  0  0  0  0  0  0  0  0
  139.1781   69.6970  222.7446 H   0  0  0  0  0  0  0  0  0  0  0  0
  138.9879   68.4355  224.8682 H   0  0  0  0  0  0  0  0  0  0  0  0
  139.4029   68.3160  227.2404 H   0  0  0  0  0  0  0  0  0  0  0  0
  140.3021   69.3057  229.3078 H   0  0  0  0  0  0  0  0  0  0  0  0
  141.3954   71.5541  229.2606 H   0  0  0  0  0  0  0  0  0  0  0  0
  141.5504   72.7653  227.0806 H   0  0  0  0  0  0  0  0  0  0  0  0
  1  2  2  0
  2  3  1  0
  3  4  1  0
  4  5  1  0
  5  6  2  0
  5  7  1  0
  7  8  1  0
  8  9  1  0
  9 10  1  0
 10 11  1  0
 11 12  1  0
 12 13  2  0
 13 14  1  0
 14 15  2  0
 15 16  1  0
 16 17  2  0
  2 18  1  0
 18 19  2  0
 19 20  1  0
 20 21  2  0
 21 22  1  0
 22 23  2  0
 23 24  1  0
 24 25  2  0
 25 26  1  0
 26 27  2  0
 11  7  1  0
 17 12  1  0
 27 18  1  0
 26 21  1  0
  3 28  1  0
  4 29  1  0
  4 30  1  0
  8 31  1  0
  8 32  1  0
  9 33  1  0
  9 34  1  0
 10 35  1  0
 10 36  1  0
 11 37  1  6
 13 38  1  0
 14 39  1  0
 15 40  1  0
 16 41  1  0
 19 42  1  0
 20 43  1  0
 22 44  1  0
 23 45  1  0
 24 46  1  0
 25 47  1  0
M  END
>  <smiles>  (22) 
O=C(NCC(=O)N1CCCC1c1ccccn1)c1ccc2ccccc2n1

>  <score_type>  (22) 
oracle

>  <origin>  (22) 
autodockgpu

>  <m_score__min__energy>  (22) 
-8.9600000000000009

>  <m_primary>  (22) 
energy

>  <rmsd>  (22) 
2.067469103318821

>  <m_score__min__rmsd>  (22) 
2.067469103318821

>  <meeko>  (22) 
{"free_energy": -8.35, "intermolecular_energy": -9.84, "internal_energy": -1.68, "cluster_size": 4, "cluster_id": 3, "rank_in_cluster": 2}

>  <energy>  (22) 
-8.39

>  <cluster_rmsd>  (22) 
0.14

>  <cluster>  (22) 
2

$$$$

     RDKit          3D

 47 50  0  0  0  0  0  0  0  0999 V2000
  141.1550   71.5040  221.4070 O   0  0  0  0  0  0  0  0  0  0  0  0
  140.5530   72.0340  222.3870 C   0  0  0  0  0  0  0  0  0  0  0  0
  140.0890   73.3970  222.3360 N   0  0  0  0  0  0  0  0  0  0  0  0
  140.3210   74.1790  221.1280 C   0  0  0  0  0  0  0  0  0  0  0  0
  139.9820   75.5840  221.3510 C   0  0  0  0  0  0  0  0  0  0  0  0
  139.5810   75.8880  222.5350 O   0  0  0  0  0  0  0  0  0  0  0  0
  140.0350   76.6500  220.4380 N   0  0  0  0  0  0  0  0  0  0  0  0
  139.6290   76.4120  219.0150 C   0  0  0  0  0  0  0  0  0  0  0  0
  140.7320   77.1610  218.3000 C   0  0  0  0  0  0  0  0  0  0  0  0
  141.4080   78.0560  219.3150 C   0  0  0  0  0  0  0  0  0  0  0  0
  140.4100   78.0110  220.4540 C   0  0  2  0  0  0  0  0  0  0  0  0
  140.8500   78.6720  221.6520 C   0  0  0  0  0  0  0  0  0  0  0  0
  142.2030   79.0740  221.7110 C   0  0  0  0  0  0  0  0  0  0  0  0
  142.7040   79.7310  222.8140 C   0  0  0  0  0  0  0  0  0  0  0  0
  141.9040   80.0180  223.8990 C   0  0  0  0  0  0  0  0  0  0  0  0
  140.5870   79.6170  223.8220 C   0  0  0  0  0  0  0  0  0  0  0  0
  140.1300   78.9810  222.7380 N   0  0  0  0  0  0  0  0  0  0  0  0
  140.3110   71.2600  223.6090 C   0  0  0  0  0  0  0  0  0  0  0  0
  139.6400   70.0620  223.5260 C   0  0  0  0  0  0  0  0  0  0  0  0
  139.3870   69.2960  224.6440 C   0  0  0  0  0  0  0  0  0  0  0  0
  139.8210   69.7500  225.8600 C   0  0  0  0  0  0  0  0  0  0  0  0
  139.5900   69.0150  227.0130 C   0  0  0  0  0  0  0  0  0  0  0  0
  140.0230   69.4650  228.2380 C   0  0  0  0  0  0  0  0  0  0  0  0
  140.7030   70.6720  228.3470 C   0  0  0  0  0  0  0  0  0  0  0  0
  140.9290   71.4040  227.1780 C   0  0  0  0  0  0  0  0  0  0  0  0
  140.4990   70.9590  225.9460 C   0  0  0  0  0  0  0  0  0  0  0  0
  140.7210   71.6740  224.8210 N   0  0  0  0  0  0  0  0  0  0  0  0
  139.6020   73.7620  223.1810 H   0  0  0  0  0  0  0  0  0  0  0  0
  141.3817   74.1034  220.8466 H   0  0  0  0  0  0  0  0  0  0  0  0
  139.6844   73.7843  220.3225 H   0  0  0  0  0  0  0  0  0  0  0  0
  139.6324   75.3413  218.7629 H   0  0  0  0  0  0  0  0  0  0  0  0
  138.6087   76.7370  218.7631 H   0  0  0  0  0  0  0  0  0  0  0  0
  141.4600   76.4493  217.8834 H   0  0  0  0  0  0  0  0  0  0  0  0
  140.3210   77.7570  217.4718 H   0  0  0  0  0  0  0  0  0  0  0  0
  142.3859   77.6545  219.6192 H   0  0  0  0  0  0  0  0  0  0  0  0
  141.6305   79.0689  218.9481 H   0  0  0  0  0  0  0  0  0  0  0  0
  139.5029   78.6264  220.3627 H   0  0  0  0  0  0  0  0  0  0  0  0
  142.8682   78.8589  220.8618 H   0  0  0  0  0  0  0  0  0  0  0  0
  143.7619   80.0319  222.8287 H   0  0  0  0  0  0  0  0  0  0  0  0
  142.2970   80.5414  224.7831 H   0  0  0  0  0  0  0  0  0  0  0  0
  139.9054   79.8223  224.6606 H   0  0  0  0  0  0  0  0  0  0  0  0
  139.2968   69.7064  222.5433 H   0  0  0  0  0  0  0  0  0  0  0  0
  138.8480   68.3407  224.5605 H   0  0  0  0  0  0  0  0  0  0  0  0
  139.0523   68.0577  226.9466 H   0  0  0  0  0  0  0  0  0  0  0  0
  139.8295   68.8646  229.1392 H   0  0  0  0  0  0  0  0  0  0  0  0
  141.0525   71.0399  229.3230 H   0  0  0  0  0  0  0  0  0  0  0  0
  141.4651   72.3623  227.2428 H   0  0  0  0  0  0  0  0  0  0  0  0
  1  2  2  0
  2  3  1  0
  3  4  1  0
  4  5  1  0
  5  6  2  0
  5  7  1  0
  7  8  1  0
  8  9  1  0
  9 10  1  0
 10 11  1  0
 11 12  1  0
 12 13  2  0
 13 14  1  0
 14 15  2  0
 15 16  1  0
 16 17  2  0
  2 18  1  0
 18 19  2  0
 19 20  1  0
 20 21  2  0
 21 22  1  0
 22 23  2  0
 23 24  1  0
 24 25  2  0
 25 26  1  0
 26 27  2  0
 11  7  1  0
 17 12  1  0
 27 18  1  0
 26 21  1  0
  3 28  1  0
  4 29  1  0
  4 30  1  0
  8 31  1  0
  8 32  1  0
  9 33  1  0
  9 34  1  0
 10 35  1  0
 10 36  1  0
 11 37  1  6
 13 38  1  0
 14 39  1  0
 15 40  1  0
 16 41  1  0
 19 42  1  0
 20 43  1  0
 22 44  1  0
 23 45  1  0
 24 46  1  0
 25 47  1  0
M  END
>  <smiles>  (23) 
O=C(NCC(=O)N1CCCC1c1ccccn1)c1ccc2ccccc2n1

>  <score_type>  (23) 
oracle

>  <origin>  (23) 
autodockgpu

>  <m_score__min__energy>  (23) 
-8.9600000000000009

>  <m_primary>  (23) 
energy

>  <rmsd>  (23) 
1.9956655308899796

>  <m_score__min__rmsd>  (23) 
1.9956655308899796

>  <meeko>  (23) 
{"free_energy": -8.09, "intermolecular_energy": -9.58, "internal_energy": -1.78, "cluster_size": 4, "cluster_id": 3, "rank_in_cluster": 3}

>  <energy>  (23) 
-8.39

>  <cluster_rmsd>  (23) 
0.57

>  <cluster>  (23) 
2

$$$$

     RDKit          3D

 47 50  0  0  0  0  0  0  0  0999 V2000
  141.0800   71.6060  221.3580 O   0  0  0  0  0  0  0  0  0  0  0  0
  140.5020   72.1700  222.3330 C   0  0  0  0  0  0  0  0  0  0  0  0
  140.0370   73.5310  222.2460 N   0  0  0  0  0  0  0  0  0  0  0  0
  140.2410   74.2700  221.0060 C   0  0  0  0  0  0  0  0  0  0  0  0
  140.9000   75.5480  221.2710 C   0  0  0  0  0  0  0  0  0  0  0  0
  140.5760   76.1340  222.3700 O   0  0  0  0  0  0  0  0  0  0  0  0
  141.8430   76.2250  220.4800 N   0  0  0  0  0  0  0  0  0  0  0  0
  141.5880   77.6530  220.1040 C   0  0  0  0  0  0  0  0  0  0  0  0
  141.9930   77.6160  218.6470 C   0  0  0  0  0  0  0  0  0  0  0  0
  142.7860   76.3470  218.4260 C   0  0  0  0  0  0  0  0  0  0  0  0
  143.0730   75.9310  219.8540 C   0  0  2  0  0  0  0  0  0  0  0  0
  143.7110   74.6480  219.9790 C   0  0  0  0  0  0  0  0  0  0  0  0
  145.0270   74.6250  220.4900 C   0  0  0  0  0  0  0  0  0  0  0  0
  145.7050   73.4370  220.6600 C   0  0  0  0  0  0  0  0  0  0  0  0
  145.1230   72.2290  220.3370 C   0  0  0  0  0  0  0  0  0  0  0  0
  143.8380   72.2740  219.8390 C   0  0  0  0  0  0  0  0  0  0  0  0
  143.2060   73.4420  219.6860 N   0  0  0  0  0  0  0  0  0  0  0  0
  140.2900   71.4390  223.5860 C   0  0  0  0  0  0  0  0  0  0  0  0
  139.6200   70.2370  223.5610 C   0  0  0  0  0  0  0  0  0  0  0  0
  139.3950   69.5100  224.7100 C   0  0  0  0  0  0  0  0  0  0  0  0
  139.8540   70.0090  225.8990 C   0  0  0  0  0  0  0  0  0  0  0  0
  139.6510   69.3140  227.0830 C   0  0  0  0  0  0  0  0  0  0  0  0
  140.1090   69.8080  228.2810 C   0  0  0  0  0  0  0  0  0  0  0  0
  140.7880   71.0200  228.3330 C   0  0  0  0  0  0  0  0  0  0  0  0
  140.9850   71.7100  227.1330 C   0  0  0  0  0  0  0  0  0  0  0  0
  140.5300   71.2210  225.9280 C   0  0  0  0  0  0  0  0  0  0  0  0
  140.7250   71.8960  224.7740 N   0  0  0  0  0  0  0  0  0  0  0  0
  139.5710   73.9260  223.0890 H   0  0  0  0  0  0  0  0  0  0  0  0
  140.8692   73.6730  220.3285 H   0  0  0  0  0  0  0  0  0  0  0  0
  139.2619   74.4649  220.5442 H   0  0  0  0  0  0  0  0  0  0  0  0
  140.5292   77.9249  220.2268 H   0  0  0  0  0  0  0  0  0  0  0  0
  142.1217   78.3959  220.7150 H   0  0  0  0  0  0  0  0  0  0  0  0
  141.0973   77.6148  218.0084 H   0  0  0  0  0  0  0  0  0  0  0  0
  142.5969   78.4990  218.3909 H   0  0  0  0  0  0  0  0  0  0  0  0
  142.1928   75.5875  217.8958 H   0  0  0  0  0  0  0  0  0  0  0  0
  143.6833   76.4765  217.8031 H   0  0  0  0  0  0  0  0  0  0  0  0
  143.8744   76.4618  220.3889 H   0  0  0  0  0  0  0  0  0  0  0  0
  145.5197   75.5715  220.7571 H   0  0  0  0  0  0  0  0  0  0  0  0
  146.7293   73.4526  221.0607 H   0  0  0  0  0  0  0  0  0  0  0  0
  145.6575   71.2768  220.4701 H   0  0  0  0  0  0  0  0  0  0  0  0
  143.3276   71.3390  219.5647 H   0  0  0  0  0  0  0  0  0  0  0  0
  139.2548   69.8467  222.5996 H   0  0  0  0  0  0  0  0  0  0  0  0
  138.8586   68.5504  224.6724 H   0  0  0  0  0  0  0  0  0  0  0  0
  139.1155   68.3534  227.0623 H   0  0  0  0  0  0  0  0  0  0  0  0
  139.9368   69.2394  229.2068 H   0  0  0  0  0  0  0  0  0  0  0  0
  141.1582   71.4230  229.2872 H   0  0  0  0  0  0  0  0  0  0  0  0
  141.5190   72.6715  227.1515 H   0  0  0  0  0  0  0  0  0  0  0  0
  1  2  2  0
  2  3  1  0
  3  4  1  0
  4  5  1  0
  5  6  2  0
  5  7  1  0
  7  8  1  0
  8  9  1  0
  9 10  1  0
 10 11  1  0
 11 12  1  0
 12 13  2  0
 13 14  1  0
 14 15  2  0
 15 16  1  0
 16 17  2  0
  2 18  1  0
 18 19  2  0
 19 20  1  0
 20 21  2  0
 21 22  1  0
 22 23  2  0
 23 24  1  0
 24 25  2  0
 25 26  1  0
 26 27  2  0
 11  7  1  0
 17 12  1  0
 27 18  1  0
 26 21  1  0
  3 28  1  0
  4 29  1  0
  4 30  1  0
  8 31  1  0
  8 32  1  0
  9 33  1  0
  9 34  1  0
 10 35  1  0
 10 36  1  0
 11 37  1  1
 13 38  1  0
 14 39  1  0
 15 40  1  0
 16 41  1  0
 19 42  1  0
 20 43  1  0
 22 44  1  0
 23 45  1  0
 24 46  1  0
 25 47  1  0
M  END
>  <smiles>  (24) 
O=C(NCC(=O)N1CCCC1c1ccccn1)c1ccc2ccccc2n1

>  <score_type>  (24) 
oracle

>  <origin>  (24) 
autodockgpu

>  <m_score__min__energy>  (24) 
-8.9600000000000009

>  <m_primary>  (24) 
energy

>  <rmsd>  (24) 
4.1973556764476

>  <m_score__min__rmsd>  (24) 
4.1973556764476

>  <meeko>  (24) 
{"free_energy": -8.46, "intermolecular_energy": -9.95, "internal_energy": -1.8, "cluster_size": 12, "cluster_id": 2, "rank_in_cluster": 1}

>  <energy>  (24) 
-8.39

>  <cluster_rmsd>  (24) 
0.24

>  <cluster>  (24) 
2

$$$$

     RDKit          3D

 47 50  0  0  0  0  0  0  0  0999 V2000
  138.9110   75.1340  222.2150 O   0  0  0  0  0  0  0  0  0  0  0  0
  140.0600   75.6640  222.1750 C   0  0  0  0  0  0  0  0  0  0  0  0
  141.2280   74.9020  221.8120 N   0  0  0  0  0  0  0  0  0  0  0  0
  141.0760   73.4890  221.4860 C   0  0  0  0  0  0  0  0  0  0  0  0
  141.7760   73.1700  220.2420 C   0  0  0  0  0  0  0  0  0  0  0  0
  141.0850   72.5560  219.3460 O   0  0  0  0  0  0  0  0  0  0  0  0
  143.1090   73.4450  219.8940 N   0  0  0  0  0  0  0  0  0  0  0  0
  144.1310   72.3540  220.0070 C   0  0  0  0  0  0  0  0  0  0  0  0
  145.2690   73.1270  220.6380 C   0  0  0  0  0  0  0  0  0  0  0  0
  144.9690   74.6000  220.4700 C   0  0  0  0  0  0  0  0  0  0  0  0
  143.8550   74.5550  219.4430 C   0  0  2  0  0  0  0  0  0  0  0  0
  143.2480   75.8300  219.1750 C   0  0  0  0  0  0  0  0  0  0  0  0
  143.4880   76.4090  217.9100 C   0  0  0  0  0  0  0  0  0  0  0  0
  142.9300   77.6210  217.5620 C   0  0  0  0  0  0  0  0  0  0  0  0
  142.1170   78.3100  218.4360 C   0  0  0  0  0  0  0  0  0  0  0  0
  141.8950   77.7280  219.6660 C   0  0  0  0  0  0  0  0  0  0  0  0
  142.4510   76.5510  219.9750 N   0  0  0  0  0  0  0  0  0  0  0  0
  140.2270   77.0840  222.4990 C   0  0  0  0  0  0  0  0  0  0  0  0
  139.1130   77.8760  222.6550 C   0  0  0  0  0  0  0  0  0  0  0  0
  139.2150   79.2160  222.9600 C   0  0  0  0  0  0  0  0  0  0  0  0
  140.4620   79.7600  223.1090 C   0  0  0  0  0  0  0  0  0  0  0  0
  140.6160   81.1030  223.4160 C   0  0  0  0  0  0  0  0  0  0  0  0
  141.8650   81.6570  223.5680 C   0  0  0  0  0  0  0  0  0  0  0  0
  143.0060   80.8780  223.4160 C   0  0  0  0  0  0  0  0  0  0  0  0
  142.8380   79.5250  223.1060 C   0  0  0  0  0  0  0  0  0  0  0  0
  141.5890   78.9630  222.9530 C   0  0  0  0  0  0  0  0  0  0  0  0
  141.4360   77.6550  222.6530 N   0  0  0  0  0  0  0  0  0  0  0  0
  142.1370   75.4080  221.8010 H   0  0  0  0  0  0  0  0  0  0  0  0
  141.4949   72.8824  222.3024 H   0  0  0  0  0  0  0  0  0  0  0  0
  140.0062   73.2674  221.3580 H   0  0  0  0  0  0  0  0  0  0  0  0
  143.7846   71.5352  220.6548 H   0  0  0  0  0  0  0  0  0  0  0  0
  144.3799   71.8514  219.0607 H   0  0  0  0  0  0  0  0  0  0  0  0
  145.3438   72.8789  221.7070 H   0  0  0  0  0  0  0  0  0  0  0  0
  146.2244   72.8698  220.1573 H   0  0  0  0  0  0  0  0  0  0  0  0
  144.6302   75.0531  221.4134 H   0  0  0  0  0  0  0  0  0  0  0  0
  145.8360   75.2074  220.1711 H   0  0  0  0  0  0  0  0  0  0  0  0
  144.1348   74.3862  218.3927 H   0  0  0  0  0  0  0  0  0  0  0  0
  144.1317   75.8838  217.1890 H   0  0  0  0  0  0  0  0  0  0  0  0
  143.1375   78.0457  216.5687 H   0  0  0  0  0  0  0  0  0  0  0  0
  141.6673   79.2768  218.1655 H   0  0  0  0  0  0  0  0  0  0  0  0
  141.2540   78.2367  220.4010 H   0  0  0  0  0  0  0  0  0  0  0  0
  138.1156   77.4283  222.5332 H   0  0  0  0  0  0  0  0  0  0  0  0
  138.3138   79.8350  223.0811 H   0  0  0  0  0  0  0  0  0  0  0  0
  139.7246   81.7355  223.5400 H   0  0  0  0  0  0  0  0  0  0  0  0
  141.9621   82.7252  223.8118 H   0  0  0  0  0  0  0  0  0  0  0  0
  144.0095   81.3122  223.5358 H   0  0  0  0  0  0  0  0  0  0  0  0
  143.7282   78.8910  222.9807 H   0  0  0  0  0  0  0  0  0  0  0  0
  1  2  2  0
  2  3  1  0
  3  4  1  0
  4  5  1  0
  5  6  2  0
  5  7  1  0
  7  8  1  0
  8  9  1  0
  9 10  1  0
 10 11  1  0
 11 12  1  0
 12 13  2  0
 13 14  1  0
 14 15  2  0
 15 16  1  0
 16 17  2  0
  2 18  1  0
 18 19  2  0
 19 20  1  0
 20 21  2  0
 21 22  1  0
 22 23  2  0
 23 24  1  0
 24 25  2  0
 25 26  1  0
 26 27  2  0
 11  7  1  0
 17 12  1  0
 27 18  1  0
 26 21  1  0
  3 28  1  0
  4 29  1  0
  4 30  1  0
  8 31  1  0
  8 32  1  0
  9 33  1  0
  9 34  1  0
 10 35  1  0
 10 36  1  0
 11 37  1  6
 13 38  1  0
 14 39  1  0
 15 40  1  0
 16 41  1  0
 19 42  1  0
 20 43  1  0
 22 44  1  0
 23 45  1  0
 24 46  1  0
 25 47  1  0
M  END
>  <smiles>  (25) 
O=C(NCC(=O)N1CCCC1c1ccccn1)c1ccc2ccccc2n1

>  <score_type>  (25) 
oracle

>  <origin>  (25) 
autodockgpu

>  <m_score__min__energy>  (25) 
-8.9600000000000009

>  <m_primary>  (25) 
energy

>  <rmsd>  (25) 
7.353783073187371

>  <m_score__min__rmsd>  (25) 
7.353783073187371

>  <meeko>  (25) 
{"free_energy": -7.14, "intermolecular_energy": -8.63, "internal_energy": -2.89, "cluster_size": 18, "cluster_id": 5, "rank_in_cluster": 15}

>  <energy>  (25) 
-8.34

>  <cluster_rmsd>  (25) 
0.54

>  <cluster>  (25) 
2

$$$$

     RDKit          3D

 47 50  0  0  0  0  0  0  0  0999 V2000
  138.9320   75.0030  222.0070 O   0  0  0  0  0  0  0  0  0  0  0  0
  140.0760   75.5460  221.9820 C   0  0  0  0  0  0  0  0  0  0  0  0
  141.2500   74.8080  221.5910 N   0  0  0  0  0  0  0  0  0  0  0  0
  141.1120   73.4050  221.2170 C   0  0  0  0  0  0  0  0  0  0  0  0
  141.8880   73.1150  220.0120 C   0  0  0  0  0  0  0  0  0  0  0  0
  141.2550   72.5190  219.0630 O   0  0  0  0  0  0  0  0  0  0  0  0
  143.2380   73.4010  219.7520 N   0  0  0  0  0  0  0  0  0  0  0  0
  144.2540   72.3080  219.8890 C   0  0  0  0  0  0  0  0  0  0  0  0
  145.3510   73.0590  220.6110 C   0  0  0  0  0  0  0  0  0  0  0  0
  145.0590   74.5370  220.4730 C   0  0  0  0  0  0  0  0  0  0  0  0
  144.0070   74.5250  219.3820 C   0  0  2  0  0  0  0  0  0  0  0  0
  143.4140   75.8080  219.1190 C   0  0  0  0  0  0  0  0  0  0  0  0
  143.4980   76.3030  217.7990 C   0  0  0  0  0  0  0  0  0  0  0  0
  142.9400   77.5160  217.4550 C   0  0  0  0  0  0  0  0  0  0  0  0
  142.2810   78.2890  218.3870 C   0  0  0  0  0  0  0  0  0  0  0  0
  142.2110   77.7880  219.6700 C   0  0  0  0  0  0  0  0  0  0  0  0
  142.7620   76.6080  219.9730 N   0  0  0  0  0  0  0  0  0  0  0  0
  140.2300   76.9560  222.3540 C   0  0  0  0  0  0  0  0  0  0  0  0
  139.1080   77.7330  222.5310 C   0  0  0  0  0  0  0  0  0  0  0  0
  139.1980   79.0630  222.8810 C   0  0  0  0  0  0  0  0  0  0  0  0
  140.4400   79.6110  223.0530 C   0  0  0  0  0  0  0  0  0  0  0  0
  140.5810   80.9450  223.4060 C   0  0  0  0  0  0  0  0  0  0  0  0
  141.8250   81.5030  223.5810 C   0  0  0  0  0  0  0  0  0  0  0  0
  142.9730   80.7390  223.4090 C   0  0  0  0  0  0  0  0  0  0  0  0
  142.8170   79.3960  223.0540 C   0  0  0  0  0  0  0  0  0  0  0  0
  141.5740   78.8300  222.8760 C   0  0  0  0  0  0  0  0  0  0  0  0
  141.4330   77.5310  222.5320 N   0  0  0  0  0  0  0  0  0  0  0  0
  142.1550   75.3230  221.5940 H   0  0  0  0  0  0  0  0  0  0  0  0
  141.4750   72.7737  222.0414 H   0  0  0  0  0  0  0  0  0  0  0  0
  140.0514   73.1944  221.0151 H   0  0  0  0  0  0  0  0  0  0  0  0
  143.8719   71.4680  220.4877 H   0  0  0  0  0  0  0  0  0  0  0  0
  144.5595   71.8377  218.9427 H   0  0  0  0  0  0  0  0  0  0  0  0
  145.3625   72.7763  221.6740 H   0  0  0  0  0  0  0  0  0  0  0  0
  146.3337   72.8169  220.1802 H   0  0  0  0  0  0  0  0  0  0  0  0
  144.6651   74.9598  221.4090 H   0  0  0  0  0  0  0  0  0  0  0  0
  145.9410   75.1535  220.2448 H   0  0  0  0  0  0  0  0  0  0  0  0
  144.3486   74.3902  218.3451 H   0  0  0  0  0  0  0  0  0  0  0  0
  144.0178   75.7104  217.0318 H   0  0  0  0  0  0  0  0  0  0  0  0
  143.0222   77.8735  216.4180 H   0  0  0  0  0  0  0  0  0  0  0  0
  141.8331   79.2577  218.1205 H   0  0  0  0  0  0  0  0  0  0  0  0
  141.6964   78.3653  220.4523 H   0  0  0  0  0  0  0  0  0  0  0  0
  138.1150   77.2815  222.3897 H   0  0  0  0  0  0  0  0  0  0  0  0
  138.2915   79.6706  223.0190 H   0  0  0  0  0  0  0  0  0  0  0  0
  139.6840   81.5656  223.5480 H   0  0  0  0  0  0  0  0  0  0  0  0
  141.9125   82.5635  223.8596 H   0  0  0  0  0  0  0  0  0  0  0  0
  143.9724   81.1770  223.5478 H   0  0  0  0  0  0  0  0  0  0  0  0
  143.7127   78.7733  222.9127 H   0  0  0  0  0  0  0  0  0  0  0  0
  1  2  2  0
  2  3  1  0
  3  4  1  0
  4  5  1  0
  5  6  2  0
  5  7  1  0
  7  8  1  0
  8  9  1  0
  9 10  1  0
 10 11  1  0
 11 12  1  0
 12 13  2  0
 13 14  1  0
 14 15  2  0
 15 16  1  0
 16 17  2  0
  2 18  1  0
 18 19  2  0
 19 20  1  0
 20 21  2  0
 21 22  1  0
 22 23  2  0
 23 24  1  0
 24 25  2  0
 25 26  1  0
 26 27  2  0
 11  7  1  0
 17 12  1  0
 27 18  1  0
 26 21  1  0
  3 28  1  0
  4 29  1  0
  4 30  1  0
  8 31  1  0
  8 32  1  0
  9 33  1  0
  9 34  1  0
 10 35  1  0
 10 36  1  0
 11 37  1  6
 13 38  1  0
 14 39  1  0
 15 40  1  0
 16 41  1  0
 19 42  1  0
 20 43  1  0
 22 44  1  0
 23 45  1  0
 24 46  1  0
 25 47  1  0
M  END
>  <smiles>  (26) 
O=C(NCC(=O)N1CCCC1c1ccccn1)c1ccc2ccccc2n1

>  <score_type>  (26) 
oracle

>  <origin>  (26) 
autodockgpu

>  <m_score__min__energy>  (26) 
-8.9600000000000009

>  <m_primary>  (26) 
energy

>  <rmsd>  (26) 
7.325512305045787

>  <m_score__min__rmsd>  (26) 
7.325512305045787

>  <meeko>  (26) 
{"free_energy": -7.22, "intermolecular_energy": -8.71, "internal_energy": -2.91, "cluster_size": 18, "cluster_id": 5, "rank_in_cluster": 6}

>  <energy>  (26) 
-8.3

>  <cluster_rmsd>  (26) 
0.6

>  <cluster>  (26) 
2

$$$$

     RDKit          3D

 47 50  0  0  0  0  0  0  0  0999 V2000
  140.9160   71.4840  221.3240 O   0  0  0  0  0  0  0  0  0  0  0  0
  140.4010   72.0610  222.3280 C   0  0  0  0  0  0  0  0  0  0  0  0
  139.9910   73.4410  222.2730 N   0  0  0  0  0  0  0  0  0  0  0  0
  140.1740   74.1840  221.0330 C   0  0  0  0  0  0  0  0  0  0  0  0
  140.7390   75.5060  221.3040 C   0  0  0  0  0  0  0  0  0  0  0  0
  140.2830   76.1130  222.3430 O   0  0  0  0  0  0  0  0  0  0  0  0
  141.7160   76.2040  220.5760 N   0  0  0  0  0  0  0  0  0  0  0  0
  141.4960   77.6540  220.2660 C   0  0  0  0  0  0  0  0  0  0  0  0
  141.9440   77.6830  218.8210 C   0  0  0  0  0  0  0  0  0  0  0  0
  142.7230   76.4120  218.5590 C   0  0  0  0  0  0  0  0  0  0  0  0
  142.9600   75.9200  219.9730 C   0  0  2  0  0  0  0  0  0  0  0  0
  143.5720   74.6220  220.0510 C   0  0  0  0  0  0  0  0  0  0  0  0
  144.9060   74.5600  220.5090 C   0  0  0  0  0  0  0  0  0  0  0  0
  145.5630   73.3540  220.6320 C   0  0  0  0  0  0  0  0  0  0  0  0
  144.9420   72.1660  220.3130 C   0  0  0  0  0  0  0  0  0  0  0  0
  143.6390   72.2470  219.8680 C   0  0  0  0  0  0  0  0  0  0  0  0
  143.0280   73.4320  219.7590 N   0  0  0  0  0  0  0  0  0  0  0  0
  140.2100   71.3250  223.5820 C   0  0  0  0  0  0  0  0  0  0  0  0
  139.5690   70.1070  223.5580 C   0  0  0  0  0  0  0  0  0  0  0  0
  139.3630   69.3760  224.7080 C   0  0  0  0  0  0  0  0  0  0  0  0
  139.8130   69.8850  225.8960 C   0  0  0  0  0  0  0  0  0  0  0  0
  139.6300   69.1860  227.0790 C   0  0  0  0  0  0  0  0  0  0  0  0
  140.0800   69.6910  228.2770 C   0  0  0  0  0  0  0  0  0  0  0  0
  140.7300   70.9180  228.3270 C   0  0  0  0  0  0  0  0  0  0  0  0
  140.9080   71.6130  227.1270 C   0  0  0  0  0  0  0  0  0  0  0  0
  140.4610   71.1130  225.9230 C   0  0  0  0  0  0  0  0  0  0  0  0
  140.6370   71.7920  224.7680 N   0  0  0  0  0  0  0  0  0  0  0  0
  139.5750   73.8440  223.1380 H   0  0  0  0  0  0  0  0  0  0  0  0
  140.8571   73.6268  220.3750 H   0  0  0  0  0  0  0  0  0  0  0  0
  139.1953   74.3093  220.5467 H   0  0  0  0  0  0  0  0  0  0  0  0
  140.4387   77.9385  220.3717 H   0  0  0  0  0  0  0  0  0  0  0  0
  142.0233   78.3554  220.9293 H   0  0  0  0  0  0  0  0  0  0  0  0
  141.0680   77.7298  218.1574 H   0  0  0  0  0  0  0  0  0  0  0  0
  142.5696   78.5669  218.6277 H   0  0  0  0  0  0  0  0  0  0  0  0
  142.1337   75.6906  217.9739 H   0  0  0  0  0  0  0  0  0  0  0  0
  143.6406   76.5564  217.9698 H   0  0  0  0  0  0  0  0  0  0  0  0
  143.7530   76.4090  220.5578 H   0  0  0  0  0  0  0  0  0  0  0  0
  145.4306   75.4903  220.7724 H   0  0  0  0  0  0  0  0  0  0  0  0
  146.6025   73.3400  220.9916 H   0  0  0  0  0  0  0  0  0  0  0  0
  145.4601   71.2003  220.4086 H   0  0  0  0  0  0  0  0  0  0  0  0
  143.0969   71.3281  219.6001 H   0  0  0  0  0  0  0  0  0  0  0  0
  139.2124   69.7073  222.5972 H   0  0  0  0  0  0  0  0  0  0  0  0
  138.8481   68.4046  224.6718 H   0  0  0  0  0  0  0  0  0  0  0  0
  139.1173   68.2130  227.0596 H   0  0  0  0  0  0  0  0  0  0  0  0
  139.9239   69.1185  229.2032 H   0  0  0  0  0  0  0  0  0  0  0  0
  141.0930   71.3295  229.2804 H   0  0  0  0  0  0  0  0  0  0  0  0
  141.4195   72.5867  227.1443 H   0  0  0  0  0  0  0  0  0  0  0  0
  1  2  2  0
  2  3  1  0
  3  4  1  0
  4  5  1  0
  5  6  2  0
  5  7  1  0
  7  8  1  0
  8  9  1  0
  9 10  1  0
 10 11  1  0
 11 12  1  0
 12 13  2  0
 13 14  1  0
 14 15  2  0
 15 16  1  0
 16 17  2  0
  2 18  1  0
 18 19  2  0
 19 20  1  0
 20 21  2  0
 21 22  1  0
 22 23  2  0
 23 24  1  0
 24 25  2  0
 25 26  1  0
 26 27  2  0
 11  7  1  0
 17 12  1  0
 27 18  1  0
 26 21  1  0
  3 28  1  0
  4 29  1  0
  4 30  1  0
  8 31  1  0
  8 32  1  0
  9 33  1  0
  9 34  1  0
 10 35  1  0
 10 36  1  0
 11 37  1  1
 13 38  1  0
 14 39  1  0
 15 40  1  0
 16 41  1  0
 19 42  1  0
 20 43  1  0
 22 44  1  0
 23 45  1  0
 24 46  1  0
 25 47  1  0
M  END
>  <smiles>  (27) 
O=C(NCC(=O)N1CCCC1c1ccccn1)c1ccc2ccccc2n1

>  <score_type>  (27) 
oracle

>  <origin>  (27) 
autodockgpu

>  <m_score__min__energy>  (27) 
-8.9600000000000009

>  <m_primary>  (27) 
energy

>  <rmsd>  (27) 
4.16752297177663

>  <m_score__min__rmsd>  (27) 
4.16752297177663

>  <meeko>  (27) 
{"free_energy": -8.41, "intermolecular_energy": -9.91, "internal_energy": -1.83, "cluster_size": 12, "cluster_id": 2, "rank_in_cluster": 4}

>  <energy>  (27) 
-8.23

>  <cluster_rmsd>  (27) 
0.35

>  <cluster>  (27) 
2

$$$$

     RDKit          3D

 47 50  0  0  0  0  0  0  0  0999 V2000
  140.7760   74.6250  221.1010 O   0  0  0  0  0  0  0  0  0  0  0  0
  139.8740   75.0940  221.8570 C   0  0  0  0  0  0  0  0  0  0  0  0
  138.7880   74.2740  222.3290 N   0  0  0  0  0  0  0  0  0  0  0  0
  138.7300   72.8760  221.9240 C   0  0  0  0  0  0  0  0  0  0  0  0
  139.6350   72.0660  222.7380 C   0  0  0  0  0  0  0  0  0  0  0  0
  140.7380   72.6290  223.0880 O   0  0  0  0  0  0  0  0  0  0  0  0
  139.4600   70.7480  223.1900 N   0  0  0  0  0  0  0  0  0  0  0  0
  138.9370   69.7140  222.2380 C   0  0  0  0  0  0  0  0  0  0  0  0
  137.9450   69.0090  223.1370 C   0  0  0  0  0  0  0  0  0  0  0  0
  138.2580   69.4080  224.5630 C   0  0  0  0  0  0  0  0  0  0  0  0
  139.6280   70.0340  224.3960 C   0  0  2  0  0  0  0  0  0  0  0  0
  140.1440   70.6510  225.5880 C   0  0  0  0  0  0  0  0  0  0  0  0
  139.8070   70.0560  226.8240 C   0  0  0  0  0  0  0  0  0  0  0  0
  140.2740   70.5720  228.0140 C   0  0  0  0  0  0  0  0  0  0  0  0
  141.0860   71.6860  228.0400 C   0  0  0  0  0  0  0  0  0  0  0  0
  141.4030   72.2510  226.8230 C   0  0  0  0  0  0  0  0  0  0  0  0
  140.9340   71.7280  225.6850 N   0  0  0  0  0  0  0  0  0  0  0  0
  139.9210   76.5000  222.2740 C   0  0  0  0  0  0  0  0  0  0  0  0
  138.7430   77.1880  222.4550 C   0  0  0  0  0  0  0  0  0  0  0  0
  138.7310   78.5100  222.8460 C   0  0  0  0  0  0  0  0  0  0  0  0
  139.9280   79.1400  223.0550 C   0  0  0  0  0  0  0  0  0  0  0  0
  139.9670   80.4700  223.4490 C   0  0  0  0  0  0  0  0  0  0  0  0
  141.1660   81.1100  223.6620 C   0  0  0  0  0  0  0  0  0  0  0  0
  142.3680   80.4360  223.4850 C   0  0  0  0  0  0  0  0  0  0  0  0
  142.3140   79.0970  223.0880 C   0  0  0  0  0  0  0  0  0  0  0  0
  141.1180   78.4480  222.8730 C   0  0  0  0  0  0  0  0  0  0  0  0
  141.0760   77.1540  222.4890 N   0  0  0  0  0  0  0  0  0  0  0  0
  138.0860   74.7310  222.9480 H   0  0  0  0  0  0  0  0  0  0  0  0
  137.7018   72.5057  222.0495 H   0  0  0  0  0  0  0  0  0  0  0  0
  139.0364   72.7992  220.8703 H   0  0  0  0  0  0  0  0  0  0  0  0
  138.4452   70.1721  221.3672 H   0  0  0  0  0  0  0  0  0  0  0  0
  139.7040   69.0630  221.7931 H   0  0  0  0  0  0  0  0  0  0  0  0
  136.9206   69.3146  222.8780 H   0  0  0  0  0  0  0  0  0  0  0  0
  138.0196   67.9183  223.0151 H   0  0  0  0  0  0  0  0  0  0  0  0
  137.5269   70.1337  224.9488 H   0  0  0  0  0  0  0  0  0  0  0  0
  138.2245   68.5773  225.2833 H   0  0  0  0  0  0  0  0  0  0  0  0
  140.4887   69.3578  224.2862 H   0  0  0  0  0  0  0  0  0  0  0  0
  139.1610   69.1658  226.8372 H   0  0  0  0  0  0  0  0  0  0  0  0
  139.9937   70.0860  228.9602 H   0  0  0  0  0  0  0  0  0  0  0  0
  141.4625   72.1035  228.9855 H   0  0  0  0  0  0  0  0  0  0  0  0
  142.0483   73.1411  226.7877 H   0  0  0  0  0  0  0  0  0  0  0  0
  137.7876   76.6705  222.2835 H   0  0  0  0  0  0  0  0  0  0  0  0
  137.7810   79.0463  222.9868 H   0  0  0  0  0  0  0  0  0  0  0  0
  139.0256   81.0205  223.5931 H   0  0  0  0  0  0  0  0  0  0  0  0
  141.1731   82.1645  223.9752 H   0  0  0  0  0  0  0  0  0  0  0  0
  143.3313   80.9401  223.6520 H   0  0  0  0  0  0  0  0  0  0  0  0
  143.2543   78.5450  222.9429 H   0  0  0  0  0  0  0  0  0  0  0  0
  1  2  2  0
  2  3  1  0
  3  4  1  0
  4  5  1  0
  5  6  2  0
  5  7  1  0
  7  8  1  0
  8  9  1  0
  9 10  1  0
 10 11  1  0
 11 12  1  0
 12 13  2  0
 13 14  1  0
 14 15  2  0
 15 16  1  0
 16 17  2  0
  2 18  1  0
 18 19  2  0
 19 20  1  0
 20 21  2  0
 21 22  1  0
 22 23  2  0
 23 24  1  0
 24 25  2  0
 25 26  1  0
 26 27  2  0
 11  7  1  0
 17 12  1  0
 27 18  1  0
 26 21  1  0
  3 28  1  0
  4 29  1  0
  4 30  1  0
  8 31  1  0
  8 32  1  0
  9 33  1  0
  9 34  1  0
 10 35  1  0
 10 36  1  0
 11 37  1  6
 13 38  1  0
 14 39  1  0
 15 40  1  0
 16 41  1  0
 19 42  1  0
 20 43  1  0
 22 44  1  0
 23 45  1  0
 24 46  1  0
 25 47  1  0
M  END
>  <smiles>  (28) 
O=C(NCC(=O)N1CCCC1c1ccccn1)c1ccc2ccccc2n1

>  <score_type>  (28) 
oracle

>  <origin>  (28) 
autodockgpu

>  <m_score__min__energy>  (28) 
-8.9600000000000009

>  <m_primary>  (28) 
energy

>  <rmsd>  (28) 
9.002198824377958

>  <m_score__min__rmsd>  (28) 
9.002198824377958

>  <meeko>  (28) 
{"free_energy": -8.96, "intermolecular_energy": -10.45, "internal_energy": -1.13, "cluster_size": 15, "cluster_id": 1, "rank_in_cluster": 1}

>  <energy>  (28) 
-8.41

>  <cluster_rmsd>  (28) 
0.0

>  <cluster>  (28) 
3

$$$$

     RDKit          3D

 47 50  0  0  0  0  0  0  0  0999 V2000
  138.9170   75.0340  222.0100 O   0  0  0  0  0  0  0  0  0  0  0  0
  140.0660   75.5670  222.0040 C   0  0  0  0  0  0  0  0  0  0  0  0
  141.2420   74.8140  221.6490 N   0  0  0  0  0  0  0  0  0  0  0  0
  141.1000   73.4080  221.2910 C   0  0  0  0  0  0  0  0  0  0  0  0
  141.8610   73.1070  220.0780 C   0  0  0  0  0  0  0  0  0  0  0  0
  141.2140   72.5120  219.1380 O   0  0  0  0  0  0  0  0  0  0  0  0
  143.2100   73.3810  219.8040 N   0  0  0  0  0  0  0  0  0  0  0  0
  144.2200   72.2830  219.9450 C   0  0  0  0  0  0  0  0  0  0  0  0
  145.3290   73.0360  220.6470 C   0  0  0  0  0  0  0  0  0  0  0  0
  145.0450   74.5140  220.4940 C   0  0  0  0  0  0  0  0  0  0  0  0
  143.9840   74.4960  219.4120 C   0  0  2  0  0  0  0  0  0  0  0  0
  143.3960   75.7790  219.1390 C   0  0  0  0  0  0  0  0  0  0  0  0
  143.5000   76.2720  217.8200 C   0  0  0  0  0  0  0  0  0  0  0  0
  142.9490   77.4850  217.4660 C   0  0  0  0  0  0  0  0  0  0  0  0
  142.2780   78.2600  218.3870 C   0  0  0  0  0  0  0  0  0  0  0  0
  142.1880   77.7620  219.6700 C   0  0  0  0  0  0  0  0  0  0  0  0
  142.7330   76.5810  219.9820 N   0  0  0  0  0  0  0  0  0  0  0  0
  140.2230   76.9800  222.3620 C   0  0  0  0  0  0  0  0  0  0  0  0
  139.1040   77.7670  222.5080 C   0  0  0  0  0  0  0  0  0  0  0  0
  139.1970   79.1010  222.8430 C   0  0  0  0  0  0  0  0  0  0  0  0
  140.4400   79.6430  223.0320 C   0  0  0  0  0  0  0  0  0  0  0  0
  140.5850   80.9800  223.3700 C   0  0  0  0  0  0  0  0  0  0  0  0
  141.8300   81.5310  223.5620 C   0  0  0  0  0  0  0  0  0  0  0  0
  142.9740   80.7570  223.4200 C   0  0  0  0  0  0  0  0  0  0  0  0
  142.8150   79.4100  223.0790 C   0  0  0  0  0  0  0  0  0  0  0  0
  141.5710   78.8510  222.8850 C   0  0  0  0  0  0  0  0  0  0  0  0
  141.4270   77.5480  222.5550 N   0  0  0  0  0  0  0  0  0  0  0  0
  142.1510   75.3220  221.6670 H   0  0  0  0  0  0  0  0  0  0  0  0
  141.4742   72.7850  222.1167 H   0  0  0  0  0  0  0  0  0  0  0  0
  140.0370   73.1945  221.1054 H   0  0  0  0  0  0  0  0  0  0  0  0
  143.8382   71.4532  220.5579 H   0  0  0  0  0  0  0  0  0  0  0  0
  144.5132   71.7987  219.0019 H   0  0  0  0  0  0  0  0  0  0  0  0
  145.3493   72.7662  221.7132 H   0  0  0  0  0  0  0  0  0  0  0  0
  146.3058   72.7826  220.2093 H   0  0  0  0  0  0  0  0  0  0  0  0
  144.6615   74.9502  221.4282 H   0  0  0  0  0  0  0  0  0  0  0  0
  145.9289   75.1221  220.2513 H   0  0  0  0  0  0  0  0  0  0  0  0
  144.3165   74.3469  218.3741 H   0  0  0  0  0  0  0  0  0  0  0  0
  144.0302   75.6775  217.0614 H   0  0  0  0  0  0  0  0  0  0  0  0
  143.0467   77.8407  216.4297 H   0  0  0  0  0  0  0  0  0  0  0  0
  141.8356   79.2289  218.1122 H   0  0  0  0  0  0  0  0  0  0  0  0
  141.6632   78.3414  220.4439 H   0  0  0  0  0  0  0  0  0  0  0  0
  138.1105   77.3207  222.3536 H   0  0  0  0  0  0  0  0  0  0  0  0
  138.2924   79.7165  222.9560 H   0  0  0  0  0  0  0  0  0  0  0  0
  139.6904   81.6094  223.4863 H   0  0  0  0  0  0  0  0  0  0  0  0
  141.9205   82.5939  223.8304 H   0  0  0  0  0  0  0  0  0  0  0  0
  143.9740   81.1897  223.5710 H   0  0  0  0  0  0  0  0  0  0  0  0
  143.7085   78.7791  222.9624 H   0  0  0  0  0  0  0  0  0  0  0  0
  1  2  2  0
  2  3  1  0
  3  4  1  0
  4  5  1  0
  5  6  2  0
  5  7  1  0
  7  8  1  0
  8  9  1  0
  9 10  1  0
 10 11  1  0
 11 12  1  0
 12 13  2  0
 13 14  1  0
 14 15  2  0
 15 16  1  0
 16 17  2  0
  2 18  1  0
 18 19  2  0
 19 20  1  0
 20 21  2  0
 21 22  1  0
 22 23  2  0
 23 24  1  0
 24 25  2  0
 25 26  1  0
 26 27  2  0
 11  7  1  0
 17 12  1  0
 27 18  1  0
 26 21  1  0
  3 28  1  0
  4 29  1  0
  4 30  1  0
  8 31  1  0
  8 32  1  0
  9 33  1  0
  9 34  1  0
 10 35  1  0
 10 36  1  0
 11 37  1  6
 13 38  1  0
 14 39  1  0
 15 40  1  0
 16 41  1  0
 19 42  1  0
 20 43  1  0
 22 44  1  0
 23 45  1  0
 24 46  1  0
 25 47  1  0
M  END
>  <smiles>  (29) 
O=C(NCC(=O)N1CCCC1c1ccccn1)c1ccc2ccccc2n1

>  <score_type>  (29) 
oracle

>  <origin>  (29) 
autodockgpu

>  <m_score__min__energy>  (29) 
-8.9600000000000009

>  <m_primary>  (29) 
energy

>  <rmsd>  (29) 
7.340400214234087

>  <m_score__min__rmsd>  (29) 
7.340400214234087

>  <meeko>  (29) 
{"free_energy": -7.22, "intermolecular_energy": -8.71, "internal_energy": -2.91, "cluster_size": 18, "cluster_id": 5, "rank_in_cluster": 4}

>  <energy>  (29) 
-8.35

>  <cluster_rmsd>  (29) 
0.82

>  <cluster>  (29) 
3

$$$$

     RDKit          3D

 47 50  0  0  0  0  0  0  0  0999 V2000
  141.4310   74.5000  221.0880 O   0  0  0  0  0  0  0  0  0  0  0  0
  140.4460   74.7940  221.8280 C   0  0  0  0  0  0  0  0  0  0  0  0
  139.5650   73.7780  222.3450 N   0  0  0  0  0  0  0  0  0  0  0  0
  139.8170   72.3830  222.0050 C   0  0  0  0  0  0  0  0  0  0  0  0
  139.0390   71.4940  222.8670 C   0  0  0  0  0  0  0  0  0  0  0  0
  137.8940   71.9380  223.2510 O   0  0  0  0  0  0  0  0  0  0  0  0
  139.3790   70.2150  223.3360 N   0  0  0  0  0  0  0  0  0  0  0  0
  139.1330   69.0270  222.4550 C   0  0  0  0  0  0  0  0  0  0  0  0
  138.5540   68.0650  223.4690 C   0  0  0  0  0  0  0  0  0  0  0  0
  138.8760   68.6040  224.8460 C   0  0  0  0  0  0  0  0  0  0  0  0
  139.9200   69.6500  224.5110 C   0  0  2  0  0  0  0  0  0  0  0  0
  140.3300   70.4540  225.6300 C   0  0  0  0  0  0  0  0  0  0  0  0
  139.9250   70.0320  226.9150 C   0  0  0  0  0  0  0  0  0  0  0  0
  140.2900   70.7340  228.0440 C   0  0  0  0  0  0  0  0  0  0  0  0
  141.0630   71.8720  227.9590 C   0  0  0  0  0  0  0  0  0  0  0  0
  141.4480   72.2680  226.6960 C   0  0  0  0  0  0  0  0  0  0  0  0
  141.0780   71.5660  225.6190 N   0  0  0  0  0  0  0  0  0  0  0  0
  140.1810   76.1920  222.1800 C   0  0  0  0  0  0  0  0  0  0  0  0
  138.8800   76.6380  222.2410 C   0  0  0  0  0  0  0  0  0  0  0  0
  138.5770   77.9420  222.5660 C   0  0  0  0  0  0  0  0  0  0  0  0
  139.6050   78.8050  222.8330 C   0  0  0  0  0  0  0  0  0  0  0  0
  139.3500   80.1270  223.1660 C   0  0  0  0  0  0  0  0  0  0  0  0
  140.3780   81.0000  223.4350 C   0  0  0  0  0  0  0  0  0  0  0  0
  141.6990   80.5750  223.3800 C   0  0  0  0  0  0  0  0  0  0  0  0
  141.9430   79.2400  223.0440 C   0  0  0  0  0  0  0  0  0  0  0  0
  140.9190   78.3590  222.7730 C   0  0  0  0  0  0  0  0  0  0  0  0
  141.1640   77.0700  222.4480 N   0  0  0  0  0  0  0  0  0  0  0  0
  138.7790   74.0970  222.9480 H   0  0  0  0  0  0  0  0  0  0  0  0
  139.5329   72.2095  220.9566 H   0  0  0  0  0  0  0  0  0  0  0  0
  140.8865   72.1705  222.1499 H   0  0  0  0  0  0  0  0  0  0  0  0
  138.4160   69.2551  221.6526 H   0  0  0  0  0  0  0  0  0  0  0  0
  140.0185   68.6569  221.9175 H   0  0  0  0  0  0  0  0  0  0  0  0
  137.4640   67.9942  223.3392 H   0  0  0  0  0  0  0  0  0  0  0  0
  138.9823   67.0604  223.3372 H   0  0  0  0  0  0  0  0  0  0  0  0
  137.9915   69.0538  225.3206 H   0  0  0  0  0  0  0  0  0  0  0  0
  139.2126   67.8415  225.5638 H   0  0  0  0  0  0  0  0  0  0  0  0
  140.9404   69.3009  224.2944 H   0  0  0  0  0  0  0  0  0  0  0  0
  139.3075   69.1274  227.0171 H   0  0  0  0  0  0  0  0  0  0  0  0
  139.9581   70.3793  229.0310 H   0  0  0  0  0  0  0  0  0  0  0  0
  141.3584   72.4368  228.8555 H   0  0  0  0  0  0  0  0  0  0  0  0
  142.0654   73.1700  226.5725 H   0  0  0  0  0  0  0  0  0  0  0  0
  138.0617   75.9354  222.0248 H   0  0  0  0  0  0  0  0  0  0  0  0
  137.5318   78.2820  222.6099 H   0  0  0  0  0  0  0  0  0  0  0  0
  138.3102   80.4824  223.2157 H   0  0  0  0  0  0  0  0  0  0  0  0
  140.1519   82.0444  223.6961 H   0  0  0  0  0  0  0  0  0  0  0  0
  142.5271   81.2668  223.5940 H   0  0  0  0  0  0  0  0  0  0  0  0
  142.9822   78.8828  222.9946 H   0  0  0  0  0  0  0  0  0  0  0  0
  1  2  2  0
  2  3  1  0
  3  4  1  0
  4  5  1  0
  5  6  2  0
  5  7  1  0
  7  8  1  0
  8  9  1  0
  9 10  1  0
 10 11  1  0
 11 12  1  0
 12 13  2  0
 13 14  1  0
 14 15  2  0
 15 16  1  0
 16 17  2  0
  2 18  1  0
 18 19  2  0
 19 20  1  0
 20 21  2  0
 21 22  1  0
 22 23  2  0
 23 24  1  0
 24 25  2  0
 25 26  1  0
 26 27  2  0
 11  7  1  0
 17 12  1  0
 27 18  1  0
 26 21  1  0
  3 28  1  0
  4 29  1  0
  4 30  1  0
  8 31  1  0
  8 32  1  0
  9 33  1  0
  9 34  1  0
 10 35  1  0
 10 36  1  0
 11 37  1  6
 13 38  1  0
 14 39  1  0
 15 40  1  0
 16 41  1  0
 19 42  1  0
 20 43  1  0
 22 44  1  0
 23 45  1  0
 24 46  1  0
 25 47  1  0
M  END
>  <smiles>  (30) 
O=C(NCC(=O)N1CCCC1c1ccccn1)c1ccc2ccccc2n1

>  <score_type>  (30) 
oracle

>  <origin>  (30) 
autodockgpu

>  <m_score__min__energy>  (30) 
-8.9600000000000009

>  <m_primary>  (30) 
energy

>  <rmsd>  (30) 
9.10270327316277

>  <m_score__min__rmsd>  (30) 
9.10270327316277

>  <meeko>  (30) 
{"free_energy": -8.37, "intermolecular_energy": -9.86, "internal_energy": -1.64, "cluster_size": 15, "cluster_id": 1, "rank_in_cluster": 7}

>  <energy>  (30) 
-8.09

>  <cluster_rmsd>  (30) 
0.55

>  <cluster>  (30) 
3

$$$$

     RDKit          3D

 47 50  0  0  0  0  0  0  0  0999 V2000
  138.9310   75.0760  222.0950 O   0  0  0  0  0  0  0  0  0  0  0  0
  140.0780   75.6120  222.0540 C   0  0  0  0  0  0  0  0  0  0  0  0
  141.2440   74.8640  221.6580 N   0  0  0  0  0  0  0  0  0  0  0  0
  141.0940   73.4590  221.3010 C   0  0  0  0  0  0  0  0  0  0  0  0
  141.8410   73.1560  220.0800 C   0  0  0  0  0  0  0  0  0  0  0  0
  141.1800   72.5730  219.1430 O   0  0  0  0  0  0  0  0  0  0  0  0
  143.1910   73.4180  219.7950 N   0  0  0  0  0  0  0  0  0  0  0  0
  144.1920   72.3100  219.9300 C   0  0  0  0  0  0  0  0  0  0  0  0
  145.3130   73.0530  220.6240 C   0  0  0  0  0  0  0  0  0  0  0  0
  145.0410   74.5340  220.4720 C   0  0  0  0  0  0  0  0  0  0  0  0
  143.9720   74.5250  219.3980 C   0  0  2  0  0  0  0  0  0  0  0  0
  143.3950   75.8130  219.1290 C   0  0  0  0  0  0  0  0  0  0  0  0
  143.4910   76.3040  217.8080 C   0  0  0  0  0  0  0  0  0  0  0  0
  142.9480   77.5220  217.4580 C   0  0  0  0  0  0  0  0  0  0  0  0
  142.2930   78.3050  218.3840 C   0  0  0  0  0  0  0  0  0  0  0  0
  142.2100   77.8090  219.6680 C   0  0  0  0  0  0  0  0  0  0  0  0
  142.7470   76.6230  219.9770 N   0  0  0  0  0  0  0  0  0  0  0  0
  140.2430   77.0250  222.4100 C   0  0  0  0  0  0  0  0  0  0  0  0
  139.1270   77.8130  222.5810 C   0  0  0  0  0  0  0  0  0  0  0  0
  139.2280   79.1460  222.9160 C   0  0  0  0  0  0  0  0  0  0  0  0
  140.4740   79.6870  223.0800 C   0  0  0  0  0  0  0  0  0  0  0  0
  140.6260   81.0230  223.4170 C   0  0  0  0  0  0  0  0  0  0  0  0
  141.8750   81.5740  223.5840 C   0  0  0  0  0  0  0  0  0  0  0  0
  143.0170   80.7990  223.4170 C   0  0  0  0  0  0  0  0  0  0  0  0
  142.8500   79.4540  223.0770 C   0  0  0  0  0  0  0  0  0  0  0  0
  141.6020   78.8950  222.9080 C   0  0  0  0  0  0  0  0  0  0  0  0
  141.4510   77.5930  222.5790 N   0  0  0  0  0  0  0  0  0  0  0  0
  142.1510   75.3740  221.6480 H   0  0  0  0  0  0  0  0  0  0  0  0
  141.4750   72.8345  222.1224 H   0  0  0  0  0  0  0  0  0  0  0  0
  140.0284   73.2490  221.1265 H   0  0  0  0  0  0  0  0  0  0  0  0
  143.8066   71.4842  220.5461 H   0  0  0  0  0  0  0  0  0  0  0  0
  144.4741   71.8224  218.9852 H   0  0  0  0  0  0  0  0  0  0  0  0
  145.3384   72.7835  221.6902 H   0  0  0  0  0  0  0  0  0  0  0  0
  146.2845   72.7904  220.1799 H   0  0  0  0  0  0  0  0  0  0  0  0
  144.6684   74.9742  221.4087 H   0  0  0  0  0  0  0  0  0  0  0  0
  145.9285   75.1340  220.2223 H   0  0  0  0  0  0  0  0  0  0  0  0
  144.2952   74.3717  218.3578 H   0  0  0  0  0  0  0  0  0  0  0  0
  144.0082   75.7039  217.0449 H   0  0  0  0  0  0  0  0  0  0  0  0
  143.0392   77.8755  216.4203 H   0  0  0  0  0  0  0  0  0  0  0  0
  141.8577   79.2780  218.1121 H   0  0  0  0  0  0  0  0  0  0  0  0
  141.6974   78.3940  220.4458 H   0  0  0  0  0  0  0  0  0  0  0  0
  138.1302   77.3676  222.4469 H   0  0  0  0  0  0  0  0  0  0  0  0
  138.3262   79.7618  223.0487 H   0  0  0  0  0  0  0  0  0  0  0  0
  139.7340   81.6521  223.5530 H   0  0  0  0  0  0  0  0  0  0  0  0
  141.9711   82.6365  223.8519 H   0  0  0  0  0  0  0  0  0  0  0  0
  144.0201   81.2308  223.5484 H   0  0  0  0  0  0  0  0  0  0  0  0
  143.7407   78.8232  222.9403 H   0  0  0  0  0  0  0  0  0  0  0  0
  1  2  2  0
  2  3  1  0
  3  4  1  0
  4  5  1  0
  5  6  2  0
  5  7  1  0
  7  8  1  0
  8  9  1  0
  9 10  1  0
 10 11  1  0
 11 12  1  0
 12 13  2  0
 13 14  1  0
 14 15  2  0
 15 16  1  0
 16 17  2  0
  2 18  1  0
 18 19  2  0
 19 20  1  0
 20 21  2  0
 21 22  1  0
 22 23  2  0
 23 24  1  0
 24 25  2  0
 25 26  1  0
 26 27  2  0
 11  7  1  0
 17 12  1  0
 27 18  1  0
 26 21  1  0
  3 28  1  0
  4 29  1  0
  4 30  1  0
  8 31  1  0
  8 32  1  0
  9 33  1  0
  9 34  1  0
 10 35  1  0
 10 36  1  0
 11 37  1  6
 13 38  1  0
 14 39  1  0
 15 40  1  0
 16 41  1  0
 19 42  1  0
 20 43  1  0
 22 44  1  0
 23 45  1  0
 24 46  1  0
 25 47  1  0
M  END
>  <smiles>  (31) 
O=C(NCC(=O)N1CCCC1c1ccccn1)c1ccc2ccccc2n1

>  <score_type>  (31) 
oracle

>  <origin>  (31) 
autodockgpu

>  <m_score__min__energy>  (31) 
-8.9600000000000009

>  <m_primary>  (31) 
energy

>  <rmsd>  (31) 
7.352329451671934

>  <m_score__min__rmsd>  (31) 
7.352329451671934

>  <meeko>  (31) 
{"free_energy": -7.21, "intermolecular_energy": -8.7, "internal_energy": -2.91, "cluster_size": 18, "cluster_id": 5, "rank_in_cluster": 10}

>  <energy>  (31) 
-7.99

>  <cluster_rmsd>  (31) 
0.39

>  <cluster>  (31) 
3

$$$$

     RDKit          3D

 47 50  0  0  0  0  0  0  0  0999 V2000
  138.9920   75.0120  222.0890 O   0  0  0  0  0  0  0  0  0  0  0  0
  140.1260   75.5720  222.0230 C   0  0  0  0  0  0  0  0  0  0  0  0
  141.3060   74.8380  221.6430 N   0  0  0  0  0  0  0  0  0  0  0  0
  141.1860   73.4190  221.3290 C   0  0  0  0  0  0  0  0  0  0  0  0
  141.9560   73.0910  220.1300 C   0  0  0  0  0  0  0  0  0  0  0  0
  141.3240   72.4540  219.2080 O   0  0  0  0  0  0  0  0  0  0  0  0
  143.3020   73.3790  219.8520 N   0  0  0  0  0  0  0  0  0  0  0  0
  144.3280   72.2990  220.0220 C   0  0  0  0  0  0  0  0  0  0  0  0
  145.4240   73.0860  220.7080 C   0  0  0  0  0  0  0  0  0  0  0  0
  145.1180   74.5560  220.5180 C   0  0  0  0  0  0  0  0  0  0  0  0
  144.0600   74.4950  219.4350 C   0  0  2  0  0  0  0  0  0  0  0  0
  143.4540   75.7620  219.1290 C   0  0  0  0  0  0  0  0  0  0  0  0
  143.5120   76.2020  217.7890 C   0  0  0  0  0  0  0  0  0  0  0  0
  142.9400   77.3960  217.4040 C   0  0  0  0  0  0  0  0  0  0  0  0
  142.2920   78.2030  218.3140 C   0  0  0  0  0  0  0  0  0  0  0  0
  142.2470   77.7560  219.6180 C   0  0  0  0  0  0  0  0  0  0  0  0
  142.8110   76.5930  219.9600 N   0  0  0  0  0  0  0  0  0  0  0  0
  140.2610   76.9980  222.3360 C   0  0  0  0  0  0  0  0  0  0  0  0
  139.1350   77.7860  222.3930 C   0  0  0  0  0  0  0  0  0  0  0  0
  139.2080   79.1310  222.6830 C   0  0  0  0  0  0  0  0  0  0  0  0
  140.4380   79.6840  222.9170 C   0  0  0  0  0  0  0  0  0  0  0  0
  140.5610   81.0340  223.2130 C   0  0  0  0  0  0  0  0  0  0  0  0
  141.7940   81.5960  223.4500 C   0  0  0  0  0  0  0  0  0  0  0  0
  142.9460   80.8210  223.3980 C   0  0  0  0  0  0  0  0  0  0  0  0
  142.8070   79.4630  223.0990 C   0  0  0  0  0  0  0  0  0  0  0  0
  141.5760   78.8920  222.8610 C   0  0  0  0  0  0  0  0  0  0  0  0
  141.4520   77.5770  222.5720 N   0  0  0  0  0  0  0  0  0  0  0  0
  142.2010   75.3670  221.6120 H   0  0  0  0  0  0  0  0  0  0  0  0
  141.5656   72.8279  222.1755 H   0  0  0  0  0  0  0  0  0  0  0  0
  140.1270   73.1843  221.1460 H   0  0  0  0  0  0  0  0  0  0  0  0
  143.9570   71.4789  220.6542 H   0  0  0  0  0  0  0  0  0  0  0  0
  144.6306   71.7959  219.0918 H   0  0  0  0  0  0  0  0  0  0  0  0
  145.4456   72.8428  221.7805 H   0  0  0  0  0  0  0  0  0  0  0  0
  146.4057   72.8367  220.2789 H   0  0  0  0  0  0  0  0  0  0  0  0
  144.7259   75.0092  221.4404 H   0  0  0  0  0  0  0  0  0  0  0  0
  145.9931   75.1714  220.2621 H   0  0  0  0  0  0  0  0  0  0  0  0
  144.3972   74.3248  218.4019 H   0  0  0  0  0  0  0  0  0  0  0  0
  144.0228   75.5810  217.0383 H   0  0  0  0  0  0  0  0  0  0  0  0
  143.0020   77.7101  216.3516 H   0  0  0  0  0  0  0  0  0  0  0  0
  141.8331   79.1570  218.0150 H   0  0  0  0  0  0  0  0  0  0  0  0
  141.7420   78.3624  220.3843 H   0  0  0  0  0  0  0  0  0  0  0  0
  138.1518   77.3311  222.2023 H   0  0  0  0  0  0  0  0  0  0  0  0
  138.2976   79.7469  222.7255 H   0  0  0  0  0  0  0  0  0  0  0  0
  139.6601   81.6635  223.2588 H   0  0  0  0  0  0  0  0  0  0  0  0
  141.8686   82.6685  223.6827 H   0  0  0  0  0  0  0  0  0  0  0  0
  143.9359   81.2623  223.5862 H   0  0  0  0  0  0  0  0  0  0  0  0
  143.7066   78.8316  223.0523 H   0  0  0  0  0  0  0  0  0  0  0  0
  1  2  2  0
  2  3  1  0
  3  4  1  0
  4  5  1  0
  5  6  2  0
  5  7  1  0
  7  8  1  0
  8  9  1  0
  9 10  1  0
 10 11  1  0
 11 12  1  0
 12 13  2  0
 13 14  1  0
 14 15  2  0
 15 16  1  0
 16 17  2  0
  2 18  1  0
 18 19  2  0
 19 20  1  0
 20 21  2  0
 21 22  1  0
 22 23  2  0
 23 24  1  0
 24 25  2  0
 25 26  1  0
 26 27  2  0
 11  7  1  0
 17 12  1  0
 27 18  1  0
 26 21  1  0
  3 28  1  0
  4 29  1  0
  4 30  1  0
  8 31  1  0
  8 32  1  0
  9 33  1  0
  9 34  1  0
 10 35  1  0
 10 36  1  0
 11 37  1  6
 13 38  1  0
 14 39  1  0
 15 40  1  0
 16 41  1  0
 19 42  1  0
 20 43  1  0
 22 44  1  0
 23 45  1  0
 24 46  1  0
 25 47  1  0
M  END
>  <smiles>  (32) 
O=C(NCC(=O)N1CCCC1c1ccccn1)c1ccc2ccccc2n1

>  <score_type>  (32) 
oracle

>  <origin>  (32) 
autodockgpu

>  <m_score__min__energy>  (32) 
-8.9600000000000009

>  <m_primary>  (32) 
energy

>  <rmsd>  (32) 
7.398139412303002

>  <m_score__min__rmsd>  (32) 
7.398139412303002

>  <meeko>  (32) 
{"free_energy": -7.19, "intermolecular_energy": -8.68, "internal_energy": -2.91, "cluster_size": 18, "cluster_id": 5, "rank_in_cluster": 12}

>  <energy>  (32) 
-7.63

>  <cluster_rmsd>  (32) 
0.0

>  <cluster>  (32) 
4

$$$$

     RDKit          3D

 47 50  0  0  0  0  0  0  0  0999 V2000
  140.4990   71.7020  221.1600 O   0  0  0  0  0  0  0  0  0  0  0  0
  140.1650   72.2360  222.2590 C   0  0  0  0  0  0  0  0  0  0  0  0
  139.8250   73.6340  222.3420 N   0  0  0  0  0  0  0  0  0  0  0  0
  139.8690   74.4460  221.1320 C   0  0  0  0  0  0  0  0  0  0  0  0
  140.6480   75.6630  221.3580 C   0  0  0  0  0  0  0  0  0  0  0  0
  140.4330   76.2740  222.4700 O   0  0  0  0  0  0  0  0  0  0  0  0
  141.6010   76.2580  220.5160 N   0  0  0  0  0  0  0  0  0  0  0  0
  141.3510   77.6410  219.9950 C   0  0  0  0  0  0  0  0  0  0  0  0
  141.7770   77.4580  218.5540 C   0  0  0  0  0  0  0  0  0  0  0  0
  142.5740   76.1740  218.4740 C   0  0  0  0  0  0  0  0  0  0  0  0
  142.8410   75.9050  219.9410 C   0  0  2  0  0  0  0  0  0  0  0  0
  143.4770   74.6430  220.2030 C   0  0  0  0  0  0  0  0  0  0  0  0
  144.8630   74.6580  220.4730 C   0  0  0  0  0  0  0  0  0  0  0  0
  145.5480   73.4960  220.7540 C   0  0  0  0  0  0  0  0  0  0  0  0
  144.9060   72.2760  220.7800 C   0  0  0  0  0  0  0  0  0  0  0  0
  143.5530   72.2820  220.5140 C   0  0  0  0  0  0  0  0  0  0  0  0
  142.9150   73.4270  220.2450 N   0  0  0  0  0  0  0  0  0  0  0  0
  140.1160   71.4310  223.4830 C   0  0  0  0  0  0  0  0  0  0  0  0
  139.5620   70.1720  223.4410 C   0  0  0  0  0  0  0  0  0  0  0  0
  139.4910   69.3760  224.5640 C   0  0  0  0  0  0  0  0  0  0  0  0
  139.9880   69.8620  225.7430 C   0  0  0  0  0  0  0  0  0  0  0  0
  139.9390   69.0970  226.8990 C   0  0  0  0  0  0  0  0  0  0  0  0
  140.4370   69.5780  228.0870 C   0  0  0  0  0  0  0  0  0  0  0  0
  141.0010   70.8460  228.1550 C   0  0  0  0  0  0  0  0  0  0  0  0
  141.0440   71.6070  226.9830 C   0  0  0  0  0  0  0  0  0  0  0  0
  140.5480   71.1310  225.7880 C   0  0  0  0  0  0  0  0  0  0  0  0
  140.5930   71.8740  224.6600 N   0  0  0  0  0  0  0  0  0  0  0  0
  139.5600   74.0000  223.2800 H   0  0  0  0  0  0  0  0  0  0  0  0
  140.3339   73.8640  220.3226 H   0  0  0  0  0  0  0  0  0  0  0  0
  138.8422   74.7278  220.8560 H   0  0  0  0  0  0  0  0  0  0  0  0
  140.2906   77.9222  220.0749 H   0  0  0  0  0  0  0  0  0  0  0  0
  141.8757   78.4424  220.5358 H   0  0  0  0  0  0  0  0  0  0  0  0
  140.8906   77.3906  217.9061 H   0  0  0  0  0  0  0  0  0  0  0  0
  142.3838   78.3119  218.2183 H   0  0  0  0  0  0  0  0  0  0  0  0
  141.9887   75.3636  218.0151 H   0  0  0  0  0  0  0  0  0  0  0  0
  143.4801   76.2416  217.8540 H   0  0  0  0  0  0  0  0  0  0  0  0
  143.6340   76.4886  220.4315 H   0  0  0  0  0  0  0  0  0  0  0  0
  145.4056   75.6147  220.4587 H   0  0  0  0  0  0  0  0  0  0  0  0
  146.6273   73.5425  220.9615 H   0  0  0  0  0  0  0  0  0  0  0  0
  145.4465   71.3440  221.0020 H   0  0  0  0  0  0  0  0  0  0  0  0
  142.9923   71.3357  220.5231 H   0  0  0  0  0  0  0  0  0  0  0  0
  139.1661   69.7916  222.4878 H   0  0  0  0  0  0  0  0  0  0  0  0
  139.0446   68.3719  224.5138 H   0  0  0  0  0  0  0  0  0  0  0  0
  139.4953   68.0910  226.8649 H   0  0  0  0  0  0  0  0  0  0  0  0
  140.3885   68.9536  228.9913 H   0  0  0  0  0  0  0  0  0  0  0  0
  141.4012   71.2388  229.1013 H   0  0  0  0  0  0  0  0  0  0  0  0
  141.4860   72.6138  227.0153 H   0  0  0  0  0  0  0  0  0  0  0  0
  1  2  2  0
  2  3  1  0
  3  4  1  0
  4  5  1  0
  5  6  2  0
  5  7  1  0
  7  8  1  0
  8  9  1  0
  9 10  1  0
 10 11  1  0
 11 12  1  0
 12 13  2  0
 13 14  1  0
 14 15  2  0
 15 16  1  0
 16 17  2  0
  2 18  1  0
 18 19  2  0
 19 20  1  0
 20 21  2  0
 21 22  1  0
 22 23  2  0
 23 24  1  0
 24 25  2  0
 25 26  1  0
 26 27  2  0
 11  7  1  0
 17 12  1  0
 27 18  1  0
 26 21  1  0
  3 28  1  0
  4 29  1  0
  4 30  1  0
  8 31  1  0
  8 32  1  0
  9 33  1  0
  9 34  1  0
 10 35  1  0
 10 36  1  0
 11 37  1  1
 13 38  1  0
 14 39  1  0
 15 40  1  0
 16 41  1  0
 19 42  1  0
 20 43  1  0
 22 44  1  0
 23 45  1  0
 24 46  1  0
 25 47  1  0
M  END
>  <smiles>  (33) 
O=C(NCC(=O)N1CCCC1c1ccccn1)c1ccc2ccccc2n1

>  <score_type>  (33) 
oracle

>  <origin>  (33) 
autodockgpu

>  <m_score__min__energy>  (33) 
-8.9600000000000009

>  <m_primary>  (33) 
energy

>  <rmsd>  (33) 
4.049750181063785

>  <m_score__min__rmsd>  (33) 
4.049750181063785

>  <meeko>  (33) 
{"free_energy": -8.23, "intermolecular_energy": -9.72, "internal_energy": -1.87, "cluster_size": 12, "cluster_id": 2, "rank_in_cluster": 12}

>  <energy>  (33) 
-7.23

>  <cluster_rmsd>  (33) 
0.0

>  <cluster>  (33) 
5

$$$$

     RDKit          3D

 47 50  0  0  0  0  0  0  0  0999 V2000
  138.9210   75.1100  222.1620 O   0  0  0  0  0  0  0  0  0  0  0  0
  140.0670   75.6480  222.1200 C   0  0  0  0  0  0  0  0  0  0  0  0
  141.2370   74.8950  221.7440 N   0  0  0  0  0  0  0  0  0  0  0  0
  141.0920   73.4840  221.4090 C   0  0  0  0  0  0  0  0  0  0  0  0
  141.8010   73.1750  220.1680 C   0  0  0  0  0  0  0  0  0  0  0  0
  141.1080   72.6000  219.2480 O   0  0  0  0  0  0  0  0  0  0  0  0
  143.1460   73.4210  219.8460 N   0  0  0  0  0  0  0  0  0  0  0  0
  144.1390   72.3040  219.9560 C   0  0  0  0  0  0  0  0  0  0  0  0
  145.2850   73.0370  220.6180 C   0  0  0  0  0  0  0  0  0  0  0  0
  145.0250   74.5200  220.4700 C   0  0  0  0  0  0  0  0  0  0  0  0
  143.9270   74.5190  219.4260 C   0  0  2  0  0  0  0  0  0  0  0  0
  143.3560   75.8140  219.1690 C   0  0  0  0  0  0  0  0  0  0  0  0
  143.4570   76.3180  217.8540 C   0  0  0  0  0  0  0  0  0  0  0  0
  142.9200   77.5410  217.5150 C   0  0  0  0  0  0  0  0  0  0  0  0
  142.2670   78.3180  218.4490 C   0  0  0  0  0  0  0  0  0  0  0  0
  142.1790   77.8080  219.7270 C   0  0  0  0  0  0  0  0  0  0  0  0
  142.7100   76.6170  220.0250 N   0  0  0  0  0  0  0  0  0  0  0  0
  140.2280   77.0660  222.4540 C   0  0  0  0  0  0  0  0  0  0  0  0
  139.1100   77.8530  222.6120 C   0  0  0  0  0  0  0  0  0  0  0  0
  139.2070   79.1910  222.9260 C   0  0  0  0  0  0  0  0  0  0  0  0
  140.4510   79.7380  223.0830 C   0  0  0  0  0  0  0  0  0  0  0  0
  140.5990   81.0810  223.3990 C   0  0  0  0  0  0  0  0  0  0  0  0
  141.8470   81.6370  223.5580 C   0  0  0  0  0  0  0  0  0  0  0  0
  142.9900   80.8640  223.4040 C   0  0  0  0  0  0  0  0  0  0  0  0
  142.8280   79.5120  223.0850 C   0  0  0  0  0  0  0  0  0  0  0  0
  141.5810   78.9470  222.9250 C   0  0  0  0  0  0  0  0  0  0  0  0
  141.4340   77.6400  222.6160 N   0  0  0  0  0  0  0  0  0  0  0  0
  142.1430   75.4060  221.7320 H   0  0  0  0  0  0  0  0  0  0  0  0
  141.5078   72.8741  222.2245 H   0  0  0  0  0  0  0  0  0  0  0  0
  140.0238   73.2594  221.2729 H   0  0  0  0  0  0  0  0  0  0  0  0
  143.7623   71.4830  220.5838 H   0  0  0  0  0  0  0  0  0  0  0  0
  144.3909   71.8121  219.0049 H   0  0  0  0  0  0  0  0  0  0  0  0
  145.3358   72.7695  221.6838 H   0  0  0  0  0  0  0  0  0  0  0  0
  146.2415   72.7635  220.1486 H   0  0  0  0  0  0  0  0  0  0  0  0
  144.6829   74.9663  221.4154 H   0  0  0  0  0  0  0  0  0  0  0  0
  145.9115   75.1102  220.1948 H   0  0  0  0  0  0  0  0  0  0  0  0
  144.2197   74.3595  218.3777 H   0  0  0  0  0  0  0  0  0  0  0  0
  143.9738   75.7236  217.0861 H   0  0  0  0  0  0  0  0  0  0  0  0
  143.0138   77.9041  216.4809 H   0  0  0  0  0  0  0  0  0  0  0  0
  141.8376   79.2963  218.1872 H   0  0  0  0  0  0  0  0  0  0  0  0
  141.6667   78.3866  220.5098 H   0  0  0  0  0  0  0  0  0  0  0  0
  138.1145   77.4027  222.4845 H   0  0  0  0  0  0  0  0  0  0  0  0
  138.3034   79.8063  223.0479 H   0  0  0  0  0  0  0  0  0  0  0  0
  139.7054   81.7101  223.5242 H   0  0  0  0  0  0  0  0  0  0  0  0
  141.9403   82.7038  223.8094 H   0  0  0  0  0  0  0  0  0  0  0  0
  143.9916   81.3013  223.5290 H   0  0  0  0  0  0  0  0  0  0  0  0
  143.7207   78.8819  222.9583 H   0  0  0  0  0  0  0  0  0  0  0  0
  1  2  2  0
  2  3  1  0
  3  4  1  0
  4  5  1  0
  5  6  2  0
  5  7  1  0
  7  8  1  0
  8  9  1  0
  9 10  1  0
 10 11  1  0
 11 12  1  0
 12 13  2  0
 13 14  1  0
 14 15  2  0
 15 16  1  0
 16 17  2  0
  2 18  1  0
 18 19  2  0
 19 20  1  0
 20 21  2  0
 21 22  1  0
 22 23  2  0
 23 24  1  0
 24 25  2  0
 25 26  1  0
 26 27  2  0
 11  7  1  0
 17 12  1  0
 27 18  1  0
 26 21  1  0
  3 28  1  0
  4 29  1  0
  4 30  1  0
  8 31  1  0
  8 32  1  0
  9 33  1  0
  9 34  1  0
 10 35  1  0
 10 36  1  0
 11 37  1  6
 13 38  1  0
 14 39  1  0
 15 40  1  0
 16 41  1  0
 19 42  1  0
 20 43  1  0
 22 44  1  0
 23 45  1  0
 24 46  1  0
 25 47  1  0
M  END
>  <smiles>  (34) 
O=C(NCC(=O)N1CCCC1c1ccccn1)c1ccc2ccccc2n1

>  <score_type>  (34) 
oracle

>  <origin>  (34) 
autodockgpu

>  <m_score__min__energy>  (34) 
-8.9600000000000009

>  <m_primary>  (34) 
energy

>  <rmsd>  (34) 
7.364606148461812

>  <m_score__min__rmsd>  (34) 
7.364606148461812

>  <meeko>  (34) 
{"free_energy": -7.23, "intermolecular_energy": -8.72, "internal_energy": -2.89, "cluster_size": 18, "cluster_id": 5, "rank_in_cluster": 2}

>  <energy>  (34) 
-7.23

>  <cluster_rmsd>  (34) 
0.02

>  <cluster>  (34) 
5

$$$$

     RDKit          3D

 47 50  0  0  0  0  0  0  0  0999 V2000
  140.8080   71.5060  221.3090 O   0  0  0  0  0  0  0  0  0  0  0  0
  140.3510   72.0850  222.3390 C   0  0  0  0  0  0  0  0  0  0  0  0
  139.9440   73.4670  222.3060 N   0  0  0  0  0  0  0  0  0  0  0  0
  140.0640   74.2090  221.0570 C   0  0  0  0  0  0  0  0  0  0  0  0
  140.6930   75.5090  221.2900 C   0  0  0  0  0  0  0  0  0  0  0  0
  140.3160   76.1380  222.3480 O   0  0  0  0  0  0  0  0  0  0  0  0
  141.6560   76.1660  220.5070 N   0  0  0  0  0  0  0  0  0  0  0  0
  141.3830   77.5620  220.0360 C   0  0  0  0  0  0  0  0  0  0  0  0
  141.8610   77.4530  218.6040 C   0  0  0  0  0  0  0  0  0  0  0  0
  142.6970   76.1960  218.4970 C   0  0  0  0  0  0  0  0  0  0  0  0
  142.9240   75.8720  219.9600 C   0  0  2  0  0  0  0  0  0  0  0  0
  143.5870   74.6180  220.1910 C   0  0  0  0  0  0  0  0  0  0  0  0
  144.9750   74.6560  220.4480 C   0  0  0  0  0  0  0  0  0  0  0  0
  145.6860   73.5020  220.6980 C   0  0  0  0  0  0  0  0  0  0  0  0
  145.0680   72.2700  220.7070 C   0  0  0  0  0  0  0  0  0  0  0  0
  143.7130   72.2540  220.4540 C   0  0  0  0  0  0  0  0  0  0  0  0
  143.0500   73.3910  220.2140 N   0  0  0  0  0  0  0  0  0  0  0  0
  140.2240   71.3500  223.6010 C   0  0  0  0  0  0  0  0  0  0  0  0
  139.6170   70.1150  223.6050 C   0  0  0  0  0  0  0  0  0  0  0  0
  139.4730   69.3840  224.7640 C   0  0  0  0  0  0  0  0  0  0  0  0
  139.9500   69.9110  225.9330 C   0  0  0  0  0  0  0  0  0  0  0  0
  139.8280   69.2120  227.1250 C   0  0  0  0  0  0  0  0  0  0  0  0
  140.3050   69.7350  228.3040 C   0  0  0  0  0  0  0  0  0  0  0  0
  140.9220   70.9800  228.3270 C   0  0  0  0  0  0  0  0  0  0  0  0
  141.0380   71.6740  227.1190 C   0  0  0  0  0  0  0  0  0  0  0  0
  140.5630   71.1570  225.9330 C   0  0  0  0  0  0  0  0  0  0  0  0
  140.6800   71.8350  224.7700 N   0  0  0  0  0  0  0  0  0  0  0  0
  139.5780   73.8720  223.1920 H   0  0  0  0  0  0  0  0  0  0  0  0
  140.6783   73.6313  220.3507 H   0  0  0  0  0  0  0  0  0  0  0  0
  139.0582   74.3705  220.6419 H   0  0  0  0  0  0  0  0  0  0  0  0
  140.3127   77.8099  220.0916 H   0  0  0  0  0  0  0  0  0  0  0  0
  141.8662   78.3538  220.6272 H   0  0  0  0  0  0  0  0  0  0  0  0
  140.9986   77.3893  217.9242 H   0  0  0  0  0  0  0  0  0  0  0  0
  142.4536   78.3369  218.3254 H   0  0  0  0  0  0  0  0  0  0  0  0
  142.1506   75.3901  217.9852 H   0  0  0  0  0  0  0  0  0  0  0  0
  143.6203   76.3149  217.9111 H   0  0  0  0  0  0  0  0  0  0  0  0
  143.6838   76.4556  220.5004 H   0  0  0  0  0  0  0  0  0  0  0  0
  145.4980   75.6237  220.4487 H   0  0  0  0  0  0  0  0  0  0  0  0
  146.7666   73.5654  220.8939 H   0  0  0  0  0  0  0  0  0  0  0  0
  145.6286   71.3448  220.9063 H   0  0  0  0  0  0  0  0  0  0  0  0
  143.1713   71.2966  220.4494 H   0  0  0  0  0  0  0  0  0  0  0  0
  139.2373   69.7010  222.6592 H   0  0  0  0  0  0  0  0  0  0  0  0
  138.9852   68.3982  224.7497 H   0  0  0  0  0  0  0  0  0  0  0  0
  139.3426   68.2249  227.1272 H   0  0  0  0  0  0  0  0  0  0  0  0
  140.1972   69.1628  229.2372 H   0  0  0  0  0  0  0  0  0  0  0  0
  141.3067   71.4057  229.2655 H   0  0  0  0  0  0  0  0  0  0  0  0
  141.5225   72.6615  227.1150 H   0  0  0  0  0  0  0  0  0  0  0  0
  1  2  2  0
  2  3  1  0
  3  4  1  0
  4  5  1  0
  5  6  2  0
  5  7  1  0
  7  8  1  0
  8  9  1  0
  9 10  1  0
 10 11  1  0
 11 12  1  0
 12 13  2  0
 13 14  1  0
 14 15  2  0
 15 16  1  0
 16 17  2  0
  2 18  1  0
 18 19  2  0
 19 20  1  0
 20 21  2  0
 21 22  1  0
 22 23  2  0
 23 24  1  0
 24 25  2  0
 25 26  1  0
 26 27  2  0
 11  7  1  0
 17 12  1  0
 27 18  1  0
 26 21  1  0
  3 28  1  0
  4 29  1  0
  4 30  1  0
  8 31  1  0
  8 32  1  0
  9 33  1  0
  9 34  1  0
 10 35  1  0
 10 36  1  0
 11 37  1  1
 13 38  1  0
 14 39  1  0
 15 40  1  0
 16 41  1  0
 19 42  1  0
 20 43  1  0
 22 44  1  0
 23 45  1  0
 24 46  1  0
 25 47  1  0
M  END
>  <smiles>  (35) 
O=C(NCC(=O)N1CCCC1c1ccccn1)c1ccc2ccccc2n1

>  <score_type>  (35) 
oracle

>  <origin>  (35) 
autodockgpu

>  <m_score__min__energy>  (35) 
-8.9600000000000009

>  <m_primary>  (35) 
energy

>  <rmsd>  (35) 
4.098356636857306

>  <m_score__min__rmsd>  (35) 
4.098356636857306

>  <meeko>  (35) 
{"free_energy": -8.39, "intermolecular_energy": -9.88, "internal_energy": -1.83, "cluster_size": 12, "cluster_id": 2, "rank_in_cluster": 9}

>  <energy>  (35) 
-7.23

>  <cluster_rmsd>  (35) 
0.04

>  <cluster>  (35) 
5

$$$$

     RDKit          3D

 47 50  0  0  0  0  0  0  0  0999 V2000
  138.7080   71.0680  221.5780 O   0  0  0  0  0  0  0  0  0  0  0  0
  139.2020   71.6240  222.6020 C   0  0  0  0  0  0  0  0  0  0  0  0
  139.5470   73.0230  222.6050 N   0  0  0  0  0  0  0  0  0  0  0  0
  139.3190   73.8100  221.4000 C   0  0  0  0  0  0  0  0  0  0  0  0
  140.2450   74.9410  221.3410 C   0  0  0  0  0  0  0  0  0  0  0  0
  141.0560   75.0600  222.3330 O   0  0  0  0  0  0  0  0  0  0  0  0
  140.3650   75.9200  220.3420 N   0  0  0  0  0  0  0  0  0  0  0  0
  140.2250   75.5160  218.9050 C   0  0  0  0  0  0  0  0  0  0  0  0
  141.3690   76.2990  218.3000 C   0  0  0  0  0  0  0  0  0  0  0  0
  141.7910   77.3440  219.3100 C   0  0  0  0  0  0  0  0  0  0  0  0
  140.6220   77.3060  220.2730 C   0  0  2  0  0  0  0  0  0  0  0  0
  140.8000   78.1120  221.4500 C   0  0  0  0  0  0  0  0  0  0  0  0
  142.0330   78.7870  221.5930 C   0  0  0  0  0  0  0  0  0  0  0  0
  142.2810   79.5960  222.6810 C   0  0  0  0  0  0  0  0  0  0  0  0
  141.3350   79.7750  223.6690 C   0  0  0  0  0  0  0  0  0  0  0  0
  140.1390   79.1080  223.5100 C   0  0  0  0  0  0  0  0  0  0  0  0
  139.9280   78.3300  222.4430 N   0  0  0  0  0  0  0  0  0  0  0  0
  139.4360   70.8450  223.8220 C   0  0  0  0  0  0  0  0  0  0  0  0
  139.0600   69.5220  223.8600 C   0  0  0  0  0  0  0  0  0  0  0  0
  139.2570   68.7460  224.9820 C   0  0  0  0  0  0  0  0  0  0  0  0
  139.8420   69.3190  226.0780 C   0  0  0  0  0  0  0  0  0  0  0  0
  140.0620   68.5780  227.2310 C   0  0  0  0  0  0  0  0  0  0  0  0
  140.6490   69.1470  228.3360 C   0  0  0  0  0  0  0  0  0  0  0  0
  141.0370   70.4810  228.3230 C   0  0  0  0  0  0  0  0  0  0  0  0
  140.8100   71.2160  227.1560 C   0  0  0  0  0  0  0  0  0  0  0  0
  140.2230   70.6540  226.0440 C   0  0  0  0  0  0  0  0  0  0  0  0
  140.0070   71.3720  224.9200 N   0  0  0  0  0  0  0  0  0  0  0  0
  139.9480   73.4090  223.4850 H   0  0  0  0  0  0  0  0  0  0  0  0
  139.4712   73.1717  220.5171 H   0  0  0  0  0  0  0  0  0  0  0  0
  138.2889   74.1955  221.4177 H   0  0  0  0  0  0  0  0  0  0  0  0
  140.3561   74.4321  218.7709 H   0  0  0  0  0  0  0  0  0  0  0  0
  139.2391   75.7177  218.4607 H   0  0  0  0  0  0  0  0  0  0  0  0
  142.2111   75.6256  218.0825 H   0  0  0  0  0  0  0  0  0  0  0  0
  141.0571   76.7747  217.3585 H   0  0  0  0  0  0  0  0  0  0  0  0
  142.7327   77.0680  219.8071 H   0  0  0  0  0  0  0  0  0  0  0  0
  141.9905   78.3361  218.8788 H   0  0  0  0  0  0  0  0  0  0  0  0
  139.6971   77.8199  219.9722 H   0  0  0  0  0  0  0  0  0  0  0  0
  142.8086   78.6647  220.8226 H   0  0  0  0  0  0  0  0  0  0  0  0
  143.2510   80.1083  222.7630 H   0  0  0  0  0  0  0  0  0  0  0  0
  141.5256   80.4182  224.5407 H   0  0  0  0  0  0  0  0  0  0  0  0
  139.3500   79.2169  224.2687 H   0  0  0  0  0  0  0  0  0  0  0  0
  138.5904   69.0723  222.9727 H   0  0  0  0  0  0  0  0  0  0  0  0
  138.9507   67.6896  224.9959 H   0  0  0  0  0  0  0  0  0  0  0  0
  139.7622   67.5201  227.2608 H   0  0  0  0  0  0  0  0  0  0  0  0
  140.8131   68.5406  229.2389 H   0  0  0  0  0  0  0  0  0  0  0  0
  141.5077   70.9439  229.2029 H   0  0  0  0  0  0  0  0  0  0  0  0
  141.1089   72.2742  227.1248 H   0  0  0  0  0  0  0  0  0  0  0  0
  1  2  2  0
  2  3  1  0
  3  4  1  0
  4  5  1  0
  5  6  2  0
  5  7  1  0
  7  8  1  0
  8  9  1  0
  9 10  1  0
 10 11  1  0
 11 12  1  0
 12 13  2  0
 13 14  1  0
 14 15  2  0
 15 16  1  0
 16 17  2  0
  2 18  1  0
 18 19  2  0
 19 20  1  0
 20 21  2  0
 21 22  1  0
 22 23  2  0
 23 24  1  0
 24 25  2  0
 25 26  1  0
 26 27  2  0
 11  7  1  0
 17 12  1  0
 27 18  1  0
 26 21  1  0
  3 28  1  0
  4 29  1  0
  4 30  1  0
  8 31  1  0
  8 32  1  0
  9 33  1  0
  9 34  1  0
 10 35  1  0
 10 36  1  0
 11 37  1  6
 13 38  1  0
 14 39  1  0
 15 40  1  0
 16 41  1  0
 19 42  1  0
 20 43  1  0
 22 44  1  0
 23 45  1  0
 24 46  1  0
 25 47  1  0
M  END
>  <smiles>  (36) 
O=C(NCC(=O)N1CCCC1c1ccccn1)c1ccc2ccccc2n1

>  <score_type>  (36) 
oracle

>  <origin>  (36) 
autodockgpu

>  <m_score__min__energy>  (36) 
-8.9600000000000009

>  <m_primary>  (36) 
energy

>  <rmsd>  (36) 
1.7090419621367647

>  <m_score__min__rmsd>  (36) 
1.7090419621367647

>  <meeko>  (36) 
{"free_energy": -7.77, "intermolecular_energy": -9.26, "internal_energy": -1.96, "cluster_size": 15, "cluster_id": 1, "rank_in_cluster": 15}

>  <energy>  (36) 
-7.22

>  <cluster_rmsd>  (36) 
0.12

>  <cluster>  (36) 
5

$$$$

     RDKit          3D

 47 50  0  0  0  0  0  0  0  0999 V2000
  137.3090   76.0580  222.3290 O   0  0  0  0  0  0  0  0  0  0  0  0
  138.5670   76.1600  222.4300 C   0  0  0  0  0  0  0  0  0  0  0  0
  139.4270   75.0120  222.2960 N   0  0  0  0  0  0  0  0  0  0  0  0
  138.8300   73.7070  222.0400 C   0  0  0  0  0  0  0  0  0  0  0  0
  139.8080   72.6420  222.2610 C   0  0  0  0  0  0  0  0  0  0  0  0
  141.0390   73.0110  222.3390 O   0  0  0  0  0  0  0  0  0  0  0  0
  139.5810   71.2630  222.3970 N   0  0  0  0  0  0  0  0  0  0  0  0
  139.1530   70.4720  221.1980 C   0  0  0  0  0  0  0  0  0  0  0  0
  138.0700   69.6180  221.8200 C   0  0  0  0  0  0  0  0  0  0  0  0
  138.2370   69.6930  223.3230 C   0  0  0  0  0  0  0  0  0  0  0  0
  139.6200   70.3020  223.4310 C   0  0  2  0  0  0  0  0  0  0  0  0
  140.0150   70.6350  224.7730 C   0  0  0  0  0  0  0  0  0  0  0  0
  139.5770   69.7810  225.8080 C   0  0  0  0  0  0  0  0  0  0  0  0
  139.9250   70.0150  227.1220 C   0  0  0  0  0  0  0  0  0  0  0  0
  140.7120   71.0910  227.4710 C   0  0  0  0  0  0  0  0  0  0  0  0
  141.1280   71.9140  226.4460 C   0  0  0  0  0  0  0  0  0  0  0  0
  140.7740   71.6610  225.1810 N   0  0  0  0  0  0  0  0  0  0  0  0
  139.1820   77.4660  222.6870 C   0  0  0  0  0  0  0  0  0  0  0  0
  138.3750   78.5610  222.8990 C   0  0  0  0  0  0  0  0  0  0  0  0
  138.9020   79.8110  223.1440 C   0  0  0  0  0  0  0  0  0  0  0  0
  140.2630   79.9520  223.1750 C   0  0  0  0  0  0  0  0  0  0  0  0
  140.8400   81.1890  223.4180 C   0  0  0  0  0  0  0  0  0  0  0  0
  142.2070   81.3390  223.4510 C   0  0  0  0  0  0  0  0  0  0  0  0
  143.0420   80.2490  223.2400 C   0  0  0  0  0  0  0  0  0  0  0  0
  142.4480   79.0070  222.9950 C   0  0  0  0  0  0  0  0  0  0  0  0
  141.0800   78.8490  222.9610 C   0  0  0  0  0  0  0  0  0  0  0  0
  140.5140   77.6450  222.7240 N   0  0  0  0  0  0  0  0  0  0  0  0
  140.4510   75.1750  222.3910 H   0  0  0  0  0  0  0  0  0  0  0  0
  137.9764   73.5605  222.7181 H   0  0  0  0  0  0  0  0  0  0  0  0
  138.4946   73.6693  220.9930 H   0  0  0  0  0  0  0  0  0  0  0  0
  138.7559   71.1194  220.4023 H   0  0  0  0  0  0  0  0  0  0  0  0
  139.9582   69.9105  220.7017 H   0  0  0  0  0  0  0  0  0  0  0  0
  137.0793   70.0001  221.5328 H   0  0  0  0  0  0  0  0  0  0  0  0
  138.1507   68.5773  221.4731 H   0  0  0  0  0  0  0  0  0  0  0  0
  137.4743   70.3390  223.7823 H   0  0  0  0  0  0  0  0  0  0  0  0
  138.1249   68.7286  223.8401 H   0  0  0  0  0  0  0  0  0  0  0  0
  140.4829   69.6409  223.2629 H   0  0  0  0  0  0  0  0  0  0  0  0
  138.9469   68.9134  225.5623 H   0  0  0  0  0  0  0  0  0  0  0  0
  139.5679   69.3304  227.9054 H   0  0  0  0  0  0  0  0  0  0  0  0
  140.9946   71.2839  228.5164 H   0  0  0  0  0  0  0  0  0  0  0  0
  141.7575   72.7876  226.6707 H   0  0  0  0  0  0  0  0  0  0  0  0
  137.2825   78.4353  222.8722 H   0  0  0  0  0  0  0  0  0  0  0  0
  138.2432   80.6760  223.3109 H   0  0  0  0  0  0  0  0  0  0  0  0
  140.1949   82.0638  223.5870 H   0  0  0  0  0  0  0  0  0  0  0  0
  142.6425   82.3301  223.6461 H   0  0  0  0  0  0  0  0  0  0  0  0
  144.1362   80.3594  223.2649 H   0  0  0  0  0  0  0  0  0  0  0  0
  143.0914   78.1313  222.8246 H   0  0  0  0  0  0  0  0  0  0  0  0
  1  2  2  0
  2  3  1  0
  3  4  1  0
  4  5  1  0
  5  6  2  0
  5  7  1  0
  7  8  1  0
  8  9  1  0
  9 10  1  0
 10 11  1  0
 11 12  1  0
 12 13  2  0
 13 14  1  0
 14 15  2  0
 15 16  1  0
 16 17  2  0
  2 18  1  0
 18 19  2  0
 19 20  1  0
 20 21  2  0
 21 22  1  0
 22 23  2  0
 23 24  1  0
 24 25  2  0
 25 26  1  0
 26 27  2  0
 11  7  1  0
 17 12  1  0
 27 18  1  0
 26 21  1  0
  3 28  1  0
  4 29  1  0
  4 30  1  0
  8 31  1  0
  8 32  1  0
  9 33  1  0
  9 34  1  0
 10 35  1  0
 10 36  1  0
 11 37  1  6
 13 38  1  0
 14 39  1  0
 15 40  1  0
 16 41  1  0
 19 42  1  0
 20 43  1  0
 22 44  1  0
 23 45  1  0
 24 46  1  0
 25 47  1  0
M  END
>  <smiles>  (37) 
O=C(NCC(=O)N1CCCC1c1ccccn1)c1ccc2ccccc2n1

>  <score_type>  (37) 
oracle

>  <origin>  (37) 
autodockgpu

>  <m_score__min__energy>  (37) 
-8.9600000000000009

>  <m_primary>  (37) 
energy

>  <rmsd>  (37) 
9.057950235420066

>  <m_score__min__rmsd>  (37) 
9.057950235420066

>  <meeko>  (37) 
{"free_energy": -7.83, "intermolecular_energy": -9.32, "internal_energy": -2.02, "cluster_size": 15, "cluster_id": 1, "rank_in_cluster": 13}

>  <energy>  (37) 
-7.22

>  <cluster_rmsd>  (37) 
0.15

>  <cluster>  (37) 
5

$$$$

     RDKit          3D

 47 50  0  0  0  0  0  0  0  0999 V2000
  138.9260   75.0900  222.1600 O   0  0  0  0  0  0  0  0  0  0  0  0
  140.0740   75.6250  222.1240 C   0  0  0  0  0  0  0  0  0  0  0  0
  141.2440   74.8700  221.7540 N   0  0  0  0  0  0  0  0  0  0  0  0
  141.0980   73.4590  221.4160 C   0  0  0  0  0  0  0  0  0  0  0  0
  141.8170   73.1490  220.1810 C   0  0  0  0  0  0  0  0  0  0  0  0
  141.1310   72.5750  219.2560 O   0  0  0  0  0  0  0  0  0  0  0  0
  143.1640   73.3950  219.8700 N   0  0  0  0  0  0  0  0  0  0  0  0
  144.1560   72.2770  219.9920 C   0  0  0  0  0  0  0  0  0  0  0  0
  145.2970   73.0110  220.6620 C   0  0  0  0  0  0  0  0  0  0  0  0
  145.0380   74.4940  220.5080 C   0  0  0  0  0  0  0  0  0  0  0  0
  143.9500   74.4920  219.4540 C   0  0  2  0  0  0  0  0  0  0  0  0
  143.3820   75.7850  219.1890 C   0  0  0  0  0  0  0  0  0  0  0  0
  143.4970   76.2870  217.8750 C   0  0  0  0  0  0  0  0  0  0  0  0
  142.9640   77.5110  217.5290 C   0  0  0  0  0  0  0  0  0  0  0  0
  142.3010   78.2880  218.4540 C   0  0  0  0  0  0  0  0  0  0  0  0
  142.2000   77.7810  219.7320 C   0  0  0  0  0  0  0  0  0  0  0  0
  142.7270   76.5900  220.0370 N   0  0  0  0  0  0  0  0  0  0  0  0
  140.2350   77.0430  222.4610 C   0  0  0  0  0  0  0  0  0  0  0  0
  139.1180   77.8330  222.6050 C   0  0  0  0  0  0  0  0  0  0  0  0
  139.2160   79.1710  222.9220 C   0  0  0  0  0  0  0  0  0  0  0  0
  140.4600   79.7140  223.0930 C   0  0  0  0  0  0  0  0  0  0  0  0
  140.6090   81.0550  223.4120 C   0  0  0  0  0  0  0  0  0  0  0  0
  141.8560   81.6070  223.5870 C   0  0  0  0  0  0  0  0  0  0  0  0
  142.9990   80.8300  223.4470 C   0  0  0  0  0  0  0  0  0  0  0  0
  142.8360   79.4790  223.1250 C   0  0  0  0  0  0  0  0  0  0  0  0
  141.5890   78.9180  222.9490 C   0  0  0  0  0  0  0  0  0  0  0  0
  141.4410   77.6120  222.6370 N   0  0  0  0  0  0  0  0  0  0  0  0
  142.1510   75.3790  221.7470 H   0  0  0  0  0  0  0  0  0  0  0  0
  141.5048   72.8471  222.2346 H   0  0  0  0  0  0  0  0  0  0  0  0
  140.0304   73.2377  221.2701 H   0  0  0  0  0  0  0  0  0  0  0  0
  143.7733   71.4581  220.6188 H   0  0  0  0  0  0  0  0  0  0  0  0
  144.4159   71.7824  219.0445 H   0  0  0  0  0  0  0  0  0  0  0  0
  145.3388   72.7460  221.7288 H   0  0  0  0  0  0  0  0  0  0  0  0
  146.2574   72.7360  220.2016 H   0  0  0  0  0  0  0  0  0  0  0  0
  144.6872   74.9423  221.4493 H   0  0  0  0  0  0  0  0  0  0  0  0
  145.9272   75.0832  220.2393 H   0  0  0  0  0  0  0  0  0  0  0  0
  144.2530   74.3307  218.4089 H   0  0  0  0  0  0  0  0  0  0  0  0
  144.0211   75.6913  217.1132 H   0  0  0  0  0  0  0  0  0  0  0  0
  143.0701   77.8736  216.4959 H   0  0  0  0  0  0  0  0  0  0  0  0
  141.8732   79.2652  218.1857 H   0  0  0  0  0  0  0  0  0  0  0  0
  141.6808   78.3617  220.5087 H   0  0  0  0  0  0  0  0  0  0  0  0
  138.1227   77.3863  222.4638 H   0  0  0  0  0  0  0  0  0  0  0  0
  138.3131   79.7890  223.0351 H   0  0  0  0  0  0  0  0  0  0  0  0
  139.7160   81.6869  223.5268 H   0  0  0  0  0  0  0  0  0  0  0  0
  141.9494   82.6734  223.8401 H   0  0  0  0  0  0  0  0  0  0  0  0
  144.0004   81.2637  223.5851 H   0  0  0  0  0  0  0  0  0  0  0  0
  143.7280   78.8459  223.0088 H   0  0  0  0  0  0  0  0  0  0  0  0
  1  2  2  0
  2  3  1  0
  3  4  1  0
  4  5  1  0
  5  6  2  0
  5  7  1  0
  7  8  1  0
  8  9  1  0
  9 10  1  0
 10 11  1  0
 11 12  1  0
 12 13  2  0
 13 14  1  0
 14 15  2  0
 15 16  1  0
 16 17  2  0
  2 18  1  0
 18 19  2  0
 19 20  1  0
 20 21  2  0
 21 22  1  0
 22 23  2  0
 23 24  1  0
 24 25  2  0
 25 26  1  0
 26 27  2  0
 11  7  1  0
 17 12  1  0
 27 18  1  0
 26 21  1  0
  3 28  1  0
  4 29  1  0
  4 30  1  0
  8 31  1  0
  8 32  1  0
  9 33  1  0
  9 34  1  0
 10 35  1  0
 10 36  1  0
 11 37  1  6
 13 38  1  0
 14 39  1  0
 15 40  1  0
 16 41  1  0
 19 42  1  0
 20 43  1  0
 22 44  1  0
 23 45  1  0
 24 46  1  0
 25 47  1  0
M  END
>  <smiles>  (38) 
O=C(NCC(=O)N1CCCC1c1ccccn1)c1ccc2ccccc2n1

>  <score_type>  (38) 
oracle

>  <origin>  (38) 
autodockgpu

>  <m_score__min__energy>  (38) 
-8.9600000000000009

>  <m_primary>  (38) 
energy

>  <rmsd>  (38) 
7.3601815842012375

>  <m_score__min__rmsd>  (38) 
7.3601815842012375

>  <meeko>  (38) 
{"free_energy": -7.21, "intermolecular_energy": -8.7, "internal_energy": -2.9, "cluster_size": 18, "cluster_id": 5, "rank_in_cluster": 9}

>  <energy>  (38) 
-7.22

>  <cluster_rmsd>  (38) 
0.15

>  <cluster>  (38) 
5

$$$$

     RDKit          3D

 47 50  0  0  0  0  0  0  0  0999 V2000
  139.2740   75.1830  222.3610 O   0  0  0  0  0  0  0  0  0  0  0  0
  140.3750   75.7150  222.0300 C   0  0  0  0  0  0  0  0  0  0  0  0
  141.4940   74.9190  221.5950 N   0  0  0  0  0  0  0  0  0  0  0  0
  141.3500   73.4690  221.5370 C   0  0  0  0  0  0  0  0  0  0  0  0
  142.1510   72.9160  220.4460 C   0  0  0  0  0  0  0  0  0  0  0  0
  141.5450   72.1010  219.6560 O   0  0  0  0  0  0  0  0  0  0  0  0
  143.5020   73.1560  220.1460 N   0  0  0  0  0  0  0  0  0  0  0  0
  144.5200   72.1070  220.4770 C   0  0  0  0  0  0  0  0  0  0  0  0
  145.6120   72.9770  221.0600 C   0  0  0  0  0  0  0  0  0  0  0  0
  145.3170   74.4070  220.6630 C   0  0  0  0  0  0  0  0  0  0  0  0
  144.2710   74.2000  219.5860 C   0  0  2  0  0  0  0  0  0  0  0  0
  143.6760   75.4140  219.1000 C   0  0  0  0  0  0  0  0  0  0  0  0
  143.6380   75.6030  217.7010 C   0  0  0  0  0  0  0  0  0  0  0  0
  143.0690   76.7300  217.1480 C   0  0  0  0  0  0  0  0  0  0  0  0
  142.5170   77.7140  217.9400 C   0  0  0  0  0  0  0  0  0  0  0  0
  142.5650   77.5120  219.3030 C   0  0  0  0  0  0  0  0  0  0  0  0
  143.1240   76.4070  219.8100 N   0  0  0  0  0  0  0  0  0  0  0  0
  140.5340   77.1720  222.0830 C   0  0  0  0  0  0  0  0  0  0  0  0
  139.7910   77.9620  221.2360 C   0  0  0  0  0  0  0  0  0  0  0  0
  139.9020   79.3360  221.2450 C   0  0  0  0  0  0  0  0  0  0  0  0
  140.7780   79.9150  222.1240 C   0  0  0  0  0  0  0  0  0  0  0  0
  140.9250   81.2930  222.1710 C   0  0  0  0  0  0  0  0  0  0  0  0
  141.8020   81.8820  223.0510 C   0  0  0  0  0  0  0  0  0  0  0  0
  142.5630   81.1050  223.9150 C   0  0  0  0  0  0  0  0  0  0  0  0
  142.4060   79.7180  223.8580 C   0  0  0  0  0  0  0  0  0  0  0  0
  141.5290   79.1200  222.9800 C   0  0  0  0  0  0  0  0  0  0  0  0
  141.3840   77.7770  222.9310 N   0  0  0  0  0  0  0  0  0  0  0  0
  142.3650   75.4280  221.3390 H   0  0  0  0  0  0  0  0  0  0  0  0
  141.6868   73.0338  222.4895 H   0  0  0  0  0  0  0  0  0  0  0  0
  140.2923   73.2243  221.3600 H   0  0  0  0  0  0  0  0  0  0  0  0
  144.1373   71.3842  221.2126 H   0  0  0  0  0  0  0  0  0  0  0  0
  144.8307   71.4785  219.6294 H   0  0  0  0  0  0  0  0  0  0  0  0
  145.6194   72.8858  222.1562 H   0  0  0  0  0  0  0  0  0  0  0  0
  146.5972   72.6661  220.6823 H   0  0  0  0  0  0  0  0  0  0  0  0
  144.9170   74.9863  221.5082 H   0  0  0  0  0  0  0  0  0  0  0  0
  146.1987   74.9768  220.3344 H   0  0  0  0  0  0  0  0  0  0  0  0
  144.6185   73.8861  218.5906 H   0  0  0  0  0  0  0  0  0  0  0  0
  144.0704   74.8368  217.0406 H   0  0  0  0  0  0  0  0  0  0  0  0
  143.0551   76.8464  216.0543 H   0  0  0  0  0  0  0  0  0  0  0  0
  142.0607   78.6159  217.5060 H   0  0  0  0  0  0  0  0  0  0  0  0
  142.1395   78.2669  219.9805 H   0  0  0  0  0  0  0  0  0  0  0  0
  139.0910   77.4852  220.5342 H   0  0  0  0  0  0  0  0  0  0  0  0
  139.3005   79.9533  220.5616 H   0  0  0  0  0  0  0  0  0  0  0  0
  140.3310   81.9245  221.4940 H   0  0  0  0  0  0  0  0  0  0  0  0
  141.9018   82.9773  223.0710 H   0  0  0  0  0  0  0  0  0  0  0  0
  143.2674   81.5674  224.6221 H   0  0  0  0  0  0  0  0  0  0  0  0
  142.9999   79.0851  224.5338 H   0  0  0  0  0  0  0  0  0  0  0  0
  1  2  2  0
  2  3  1  0
  3  4  1  0
  4  5  1  0
  5  6  2  0
  5  7  1  0
  7  8  1  0
  8  9  1  0
  9 10  1  0
 10 11  1  0
 11 12  1  0
 12 13  2  0
 13 14  1  0
 14 15  2  0
 15 16  1  0
 16 17  2  0
  2 18  1  0
 18 19  2  0
 19 20  1  0
 20 21  2  0
 21 22  1  0
 22 23  2  0
 23 24  1  0
 24 25  2  0
 25 26  1  0
 26 27  2  0
 11  7  1  0
 17 12  1  0
 27 18  1  0
 26 21  1  0
  3 28  1  0
  4 29  1  0
  4 30  1  0
  8 31  1  0
  8 32  1  0
  9 33  1  0
  9 34  1  0
 10 35  1  0
 10 36  1  0
 11 37  1  6
 13 38  1  0
 14 39  1  0
 15 40  1  0
 16 41  1  0
 19 42  1  0
 20 43  1  0
 22 44  1  0
 23 45  1  0
 24 46  1  0
 25 47  1  0
M  END
>  <smiles>  (39) 
O=C(NCC(=O)N1CCCC1c1ccccn1)c1ccc2ccccc2n1

>  <score_type>  (39) 
oracle

>  <origin>  (39) 
autodockgpu

>  <m_score__min__energy>  (39) 
-8.9600000000000009

>  <m_primary>  (39) 
energy

>  <rmsd>  (39) 
7.705835635758566

>  <m_score__min__rmsd>  (39) 
7.705835635758566

>  <meeko>  (39) 
{"free_energy": -7.06, "intermolecular_energy": -8.55, "internal_energy": -2.65, "cluster_size": 18, "cluster_id": 5, "rank_in_cluster": 17}

>  <energy>  (39) 
-7.22

>  <cluster_rmsd>  (39) 
0.16

>  <cluster>  (39) 
5

$$$$

     RDKit          3D

 47 50  0  0  0  0  0  0  0  0999 V2000
  140.5160   74.2130  220.2230 O   0  0  0  0  0  0  0  0  0  0  0  0
  140.2300   74.9250  221.2310 C   0  0  0  0  0  0  0  0  0  0  0  0
  139.3990   74.4230  222.2950 N   0  0  0  0  0  0  0  0  0  0  0  0
  138.8770   73.0650  222.2040 C   0  0  0  0  0  0  0  0  0  0  0  0
  139.8500   72.1040  222.7230 C   0  0  0  0  0  0  0  0  0  0  0  0
  141.0680   72.5130  222.7910 O   0  0  0  0  0  0  0  0  0  0  0  0
  139.6290   70.7870  223.1570 N   0  0  0  0  0  0  0  0  0  0  0  0
  139.1180   69.7720  222.1790 C   0  0  0  0  0  0  0  0  0  0  0  0
  138.0790   69.0830  223.0360 C   0  0  0  0  0  0  0  0  0  0  0  0
  138.3490   69.4640  224.4750 C   0  0  0  0  0  0  0  0  0  0  0  0
  139.7370   70.0600  224.3630 C   0  0  2  0  0  0  0  0  0  0  0  0
  140.2240   70.6570  225.5770 C   0  0  0  0  0  0  0  0  0  0  0  0
  139.8830   70.0240  226.7930 C   0  0  0  0  0  0  0  0  0  0  0  0
  140.3220   70.5180  228.0020 C   0  0  0  0  0  0  0  0  0  0  0  0
  141.1100   71.6470  228.0690 C   0  0  0  0  0  0  0  0  0  0  0  0
  141.4320   72.2510  226.8710 C   0  0  0  0  0  0  0  0  0  0  0  0
  140.9900   71.7470  225.7130 N   0  0  0  0  0  0  0  0  0  0  0  0
  140.7490   76.2920  221.3370 C   0  0  0  0  0  0  0  0  0  0  0  0
  141.1520   76.9500  220.1970 C   0  0  0  0  0  0  0  0  0  0  0  0
  141.6470   78.2360  220.2420 C   0  0  0  0  0  0  0  0  0  0  0  0
  141.7340   78.8610  221.4560 C   0  0  0  0  0  0  0  0  0  0  0  0
  142.2250   80.1550  221.5520 C   0  0  0  0  0  0  0  0  0  0  0  0
  142.3150   80.7900  222.7680 C   0  0  0  0  0  0  0  0  0  0  0  0
  141.9150   80.1460  223.9330 C   0  0  0  0  0  0  0  0  0  0  0  0
  141.4220   78.8430  223.8230 C   0  0  0  0  0  0  0  0  0  0  0  0
  141.3280   78.2000  222.6080 C   0  0  0  0  0  0  0  0  0  0  0  0
  140.8500   76.9400  222.5110 N   0  0  0  0  0  0  0  0  0  0  0  0
  139.2100   75.0670  223.0910 H   0  0  0  0  0  0  0  0  0  0  0  0
  137.9498   72.9939  222.7916 H   0  0  0  0  0  0  0  0  0  0  0  0
  138.6768   72.8319  221.1478 H   0  0  0  0  0  0  0  0  0  0  0  0
  138.6682   70.2472  221.2948 H   0  0  0  0  0  0  0  0  0  0  0  0
  139.8859   69.1071  221.7569 H   0  0  0  0  0  0  0  0  0  0  0  0
  137.0716   69.4136  222.7429 H   0  0  0  0  0  0  0  0  0  0  0  0
  138.1337   67.9919  222.9079 H   0  0  0  0  0  0  0  0  0  0  0  0
  137.6207   70.2030  224.8403 H   0  0  0  0  0  0  0  0  0  0  0  0
  138.2712   68.6288  225.1866 H   0  0  0  0  0  0  0  0  0  0  0  0
  140.5851   69.3644  224.2796 H   0  0  0  0  0  0  0  0  0  0  0  0
  139.2558   69.1206  226.7743 H   0  0  0  0  0  0  0  0  0  0  0  0
  140.0384   70.0018  228.9310 H   0  0  0  0  0  0  0  0  0  0  0  0
  141.4647   72.0468  229.0304 H   0  0  0  0  0  0  0  0  0  0  0  0
  142.0580   73.1555  226.8679 H   0  0  0  0  0  0  0  0  0  0  0  0
  141.0773   76.4373  219.2266 H   0  0  0  0  0  0  0  0  0  0  0  0
  141.9650   78.7483  219.3220 H   0  0  0  0  0  0  0  0  0  0  0  0
  142.5472   80.6809  220.6412 H   0  0  0  0  0  0  0  0  0  0  0  0
  142.7069   81.8165  222.8194 H   0  0  0  0  0  0  0  0  0  0  0  0
  141.9843   80.6460  224.9103 H   0  0  0  0  0  0  0  0  0  0  0  0
  141.0996   78.3154  224.7328 H   0  0  0  0  0  0  0  0  0  0  0  0
  1  2  2  0
  2  3  1  0
  3  4  1  0
  4  5  1  0
  5  6  2  0
  5  7  1  0
  7  8  1  0
  8  9  1  0
  9 10  1  0
 10 11  1  0
 11 12  1  0
 12 13  2  0
 13 14  1  0
 14 15  2  0
 15 16  1  0
 16 17  2  0
  2 18  1  0
 18 19  2  0
 19 20  1  0
 20 21  2  0
 21 22  1  0
 22 23  2  0
 23 24  1  0
 24 25  2  0
 25 26  1  0
 26 27  2  0
 11  7  1  0
 17 12  1  0
 27 18  1  0
 26 21  1  0
  3 28  1  0
  4 29  1  0
  4 30  1  0
  8 31  1  0
  8 32  1  0
  9 33  1  0
  9 34  1  0
 10 35  1  0
 10 36  1  0
 11 37  1  6
 13 38  1  0
 14 39  1  0
 15 40  1  0
 16 41  1  0
 19 42  1  0
 20 43  1  0
 22 44  1  0
 23 45  1  0
 24 46  1  0
 25 47  1  0
M  END
>  <smiles>  (40) 
O=C(NCC(=O)N1CCCC1c1ccccn1)c1ccc2ccccc2n1

>  <score_type>  (40) 
oracle

>  <origin>  (40) 
autodockgpu

>  <m_score__min__energy>  (40) 
-8.9600000000000009

>  <m_primary>  (40) 
energy

>  <rmsd>  (40) 
9.051938695246397

>  <m_score__min__rmsd>  (40) 
9.051938695246397

>  <meeko>  (40) 
{"free_energy": -8.66, "intermolecular_energy": -10.15, "internal_energy": -1.47, "cluster_size": 15, "cluster_id": 1, "rank_in_cluster": 5}

>  <energy>  (40) 
-7.22

>  <cluster_rmsd>  (40) 
0.07

>  <cluster>  (40) 
5

$$$$

     RDKit          3D

 47 50  0  0  0  0  0  0  0  0999 V2000
  137.9990   75.5630  222.3530 O   0  0  0  0  0  0  0  0  0  0  0  0
  139.2500   75.4990  222.1660 C   0  0  0  0  0  0  0  0  0  0  0  0
  139.9290   74.2330  222.0530 N   0  0  0  0  0  0  0  0  0  0  0  0
  139.1540   73.0030  222.1590 C   0  0  0  0  0  0  0  0  0  0  0  0
  140.0080   71.8910  222.5740 C   0  0  0  0  0  0  0  0  0  0  0  0
  141.2760   72.0720  222.4430 O   0  0  0  0  0  0  0  0  0  0  0  0
  139.6260   70.6450  223.0960 N   0  0  0  0  0  0  0  0  0  0  0  0
  139.0310   69.6210  222.1770 C   0  0  0  0  0  0  0  0  0  0  0  0
  137.8950   69.1200  223.0430 C   0  0  0  0  0  0  0  0  0  0  0  0
  138.1660   69.5800  224.4600 C   0  0  0  0  0  0  0  0  0  0  0  0
  139.6160   70.0070  224.3550 C   0  0  2  0  0  0  0  0  0  0  0  0
  140.1320   70.6380  225.5390 C   0  0  0  0  0  0  0  0  0  0  0  0
  139.8130   70.0470  226.7810 C   0  0  0  0  0  0  0  0  0  0  0  0
  140.2830   70.5750  227.9640 C   0  0  0  0  0  0  0  0  0  0  0  0
  141.0790   71.7000  227.9780 C   0  0  0  0  0  0  0  0  0  0  0  0
  141.3780   72.2630  226.7550 C   0  0  0  0  0  0  0  0  0  0  0  0
  140.9090   71.7270  225.6240 N   0  0  0  0  0  0  0  0  0  0  0  0
  140.0420   76.7280  222.0560 C   0  0  0  0  0  0  0  0  0  0  0  0
  140.9120   76.8780  221.0010 C   0  0  0  0  0  0  0  0  0  0  0  0
  141.6800   78.0130  220.8520 C   0  0  0  0  0  0  0  0  0  0  0  0
  141.5630   79.0080  221.7850 C   0  0  0  0  0  0  0  0  0  0  0  0
  142.3140   80.1690  221.6780 C   0  0  0  0  0  0  0  0  0  0  0  0
  142.2020   81.1730  222.6110 C   0  0  0  0  0  0  0  0  0  0  0  0
  141.3310   81.0450  223.6850 C   0  0  0  0  0  0  0  0  0  0  0  0
  140.5800   79.8700  223.7820 C   0  0  0  0  0  0  0  0  0  0  0  0
  140.6860   78.8600  222.8510 C   0  0  0  0  0  0  0  0  0  0  0  0
  139.9560   77.7270  222.9530 N   0  0  0  0  0  0  0  0  0  0  0  0
  140.9580   74.2620  221.8990 H   0  0  0  0  0  0  0  0  0  0  0  0
  138.3549   73.1421  222.9021 H   0  0  0  0  0  0  0  0  0  0  0  0
  138.7218   72.7701  221.1746 H   0  0  0  0  0  0  0  0  0  0  0  0
  138.6642   70.0737  221.2440 H   0  0  0  0  0  0  0  0  0  0  0  0
  139.7300   68.8439  221.8342 H   0  0  0  0  0  0  0  0  0  0  0  0
  136.9407   69.5369  222.6888 H   0  0  0  0  0  0  0  0  0  0  0  0
  137.8281   68.0230  222.9979 H   0  0  0  0  0  0  0  0  0  0  0  0
  137.5167   70.4219  224.7423 H   0  0  0  0  0  0  0  0  0  0  0  0
  137.9733   68.8169  225.2284 H   0  0  0  0  0  0  0  0  0  0  0  0
  140.3819   69.2174  224.3537 H   0  0  0  0  0  0  0  0  0  0  0  0
  139.1780   69.1491  226.8048 H   0  0  0  0  0  0  0  0  0  0  0  0
  140.0179   70.0895  228.9148 H   0  0  0  0  0  0  0  0  0  0  0  0
  141.4572   72.1278  228.9182 H   0  0  0  0  0  0  0  0  0  0  0  0
  142.0092   73.1628  226.7099 H   0  0  0  0  0  0  0  0  0  0  0  0
  140.9970   76.0718  220.2575 H   0  0  0  0  0  0  0  0  0  0  0  0
  142.3712   78.1169  220.0026 H   0  0  0  0  0  0  0  0  0  0  0  0
  143.0096   80.2885  220.8343 H   0  0  0  0  0  0  0  0  0  0  0  0
  142.8075   82.0853  222.5057 H   0  0  0  0  0  0  0  0  0  0  0  0
  141.2351   81.8432  224.4358 H   0  0  0  0  0  0  0  0  0  0  0  0
  139.8847   79.7483  224.6256 H   0  0  0  0  0  0  0  0  0  0  0  0
  1  2  2  0
  2  3  1  0
  3  4  1  0
  4  5  1  0
  5  6  2  0
  5  7  1  0
  7  8  1  0
  8  9  1  0
  9 10  1  0
 10 11  1  0
 11 12  1  0
 12 13  2  0
 13 14  1  0
 14 15  2  0
 15 16  1  0
 16 17  2  0
  2 18  1  0
 18 19  2  0
 19 20  1  0
 20 21  2  0
 21 22  1  0
 22 23  2  0
 23 24  1  0
 24 25  2  0
 25 26  1  0
 26 27  2  0
 11  7  1  0
 17 12  1  0
 27 18  1  0
 26 21  1  0
  3 28  1  0
  4 29  1  0
  4 30  1  0
  8 31  1  0
  8 32  1  0
  9 33  1  0
  9 34  1  0
 10 35  1  0
 10 36  1  0
 11 37  1  6
 13 38  1  0
 14 39  1  0
 15 40  1  0
 16 41  1  0
 19 42  1  0
 20 43  1  0
 22 44  1  0
 23 45  1  0
 24 46  1  0
 25 47  1  0
M  END
>  <smiles>  (41) 
O=C(NCC(=O)N1CCCC1c1ccccn1)c1ccc2ccccc2n1

>  <score_type>  (41) 
oracle

>  <origin>  (41) 
autodockgpu

>  <m_score__min__energy>  (41) 
-8.9600000000000009

>  <m_primary>  (41) 
energy

>  <rmsd>  (41) 
9.143403573514922

>  <m_score__min__rmsd>  (41) 
9.143403573514922

>  <meeko>  (41) 
{"free_energy": -7.81, "intermolecular_energy": -9.3, "internal_energy": -1.67, "cluster_size": 15, "cluster_id": 1, "rank_in_cluster": 14}

>  <energy>  (41) 
-7.21

>  <cluster_rmsd>  (41) 
0.05

>  <cluster>  (41) 
5

$$$$

     RDKit          3D

 47 50  0  0  0  0  0  0  0  0999 V2000
  139.3730   70.9340  221.4090 O   0  0  0  0  0  0  0  0  0  0  0  0
  139.5980   71.5450  222.4950 C   0  0  0  0  0  0  0  0  0  0  0  0
  139.7430   72.9780  222.5350 N   0  0  0  0  0  0  0  0  0  0  0  0
  139.6280   73.7350  221.2950 C   0  0  0  0  0  0  0  0  0  0  0  0
  140.0850   75.1110  221.4890 C   0  0  0  0  0  0  0  0  0  0  0  0
  139.9570   75.5880  222.6780 O   0  0  0  0  0  0  0  0  0  0  0  0
  140.6450   75.9860  220.5440 N   0  0  0  0  0  0  0  0  0  0  0  0
  140.8870   75.4950  219.1490 C   0  0  0  0  0  0  0  0  0  0  0  0
  142.2630   76.0730  218.9020 C   0  0  0  0  0  0  0  0  0  0  0  0
  142.5110   77.1280  219.9590 C   0  0  0  0  0  0  0  0  0  0  0  0
  141.1130   77.3180  220.5130 C   0  0  2  0  0  0  0  0  0  0  0  0
  141.0450   78.1820  221.6600 C   0  0  0  0  0  0  0  0  0  0  0  0
  142.1920   78.9490  221.9630 C   0  0  0  0  0  0  0  0  0  0  0  0
  142.2070   79.8180  223.0330 C   0  0  0  0  0  0  0  0  0  0  0  0
  141.1040   79.9680  223.8470 C   0  0  0  0  0  0  0  0  0  0  0  0
  139.9950   79.2090  223.5350 C   0  0  0  0  0  0  0  0  0  0  0  0
  140.0110   78.3750  222.4890 N   0  0  0  0  0  0  0  0  0  0  0  0
  139.7150   70.7960  223.7500 C   0  0  0  0  0  0  0  0  0  0  0  0
  139.2590   69.4990  223.8070 C   0  0  0  0  0  0  0  0  0  0  0  0
  139.3460   68.7520  224.9620 C   0  0  0  0  0  0  0  0  0  0  0  0
  139.9020   69.3270  226.0720 C   0  0  0  0  0  0  0  0  0  0  0  0
  140.0110   68.6150  227.2580 C   0  0  0  0  0  0  0  0  0  0  0  0
  140.5680   69.1860  228.3770 C   0  0  0  0  0  0  0  0  0  0  0  0
  141.0360   70.4930  228.3450 C   0  0  0  0  0  0  0  0  0  0  0  0
  140.9200   71.2000  227.1450 C   0  0  0  0  0  0  0  0  0  0  0  0
  140.3630   70.6350  226.0180 C   0  0  0  0  0  0  0  0  0  0  0  0
  140.2550   71.3260  224.8620 N   0  0  0  0  0  0  0  0  0  0  0  0
  139.9260   73.4080  223.4660 H   0  0  0  0  0  0  0  0  0  0  0  0
  140.2436   73.2552  220.5199 H   0  0  0  0  0  0  0  0  0  0  0  0
  138.5726   73.7516  220.9856 H   0  0  0  0  0  0  0  0  0  0  0  0
  140.8906   74.3962  219.0979 H   0  0  0  0  0  0  0  0  0  0  0  0
  140.1223   75.7893  218.4151 H   0  0  0  0  0  0  0  0  0  0  0  0
  143.0221   75.2805  218.9773 H   0  0  0  0  0  0  0  0  0  0  0  0
  142.3233   76.5122  217.8953 H   0  0  0  0  0  0  0  0  0  0  0  0
  143.2064   76.7693  220.7321 H   0  0  0  0  0  0  0  0  0  0  0  0
  142.9769   78.0492  219.5791 H   0  0  0  0  0  0  0  0  0  0  0  0
  140.4086   77.9239  219.9243 H   0  0  0  0  0  0  0  0  0  0  0  0
  143.0891   78.8511  221.3339 H   0  0  0  0  0  0  0  0  0  0  0  0
  143.1153   80.4024  223.2413 H   0  0  0  0  0  0  0  0  0  0  0  0
  141.1082   80.6589  224.7030 H   0  0  0  0  0  0  0  0  0  0  0  0
  139.0883   79.2904  224.1526 H   0  0  0  0  0  0  0  0  0  0  0  0
  138.8139   69.0471  222.9083 H   0  0  0  0  0  0  0  0  0  0  0  0
  138.9765   67.7163  224.9907 H   0  0  0  0  0  0  0  0  0  0  0  0
  139.6462   67.5782  227.3031 H   0  0  0  0  0  0  0  0  0  0  0  0
  140.6438   68.6025  229.3064 H   0  0  0  0  0  0  0  0  0  0  0  0
  141.4839   70.9572  229.2360 H   0  0  0  0  0  0  0  0  0  0  0  0
  141.2837   72.2371  227.0987 H   0  0  0  0  0  0  0  0  0  0  0  0
  1  2  2  0
  2  3  1  0
  3  4  1  0
  4  5  1  0
  5  6  2  0
  5  7  1  0
  7  8  1  0
  8  9  1  0
  9 10  1  0
 10 11  1  0
 11 12  1  0
 12 13  2  0
 13 14  1  0
 14 15  2  0
 15 16  1  0
 16 17  2  0
  2 18  1  0
 18 19  2  0
 19 20  1  0
 20 21  2  0
 21 22  1  0
 22 23  2  0
 23 24  1  0
 24 25  2  0
 25 26  1  0
 26 27  2  0
 11  7  1  0
 17 12  1  0
 27 18  1  0
 26 21  1  0
  3 28  1  0
  4 29  1  0
  4 30  1  0
  8 31  1  0
  8 32  1  0
  9 33  1  0
  9 34  1  0
 10 35  1  0
 10 36  1  0
 11 37  1  6
 13 38  1  0
 14 39  1  0
 15 40  1  0
 16 41  1  0
 19 42  1  0
 20 43  1  0
 22 44  1  0
 23 45  1  0
 24 46  1  0
 25 47  1  0
M  END
>  <smiles>  (42) 
O=C(NCC(=O)N1CCCC1c1ccccn1)c1ccc2ccccc2n1

>  <score_type>  (42) 
oracle

>  <origin>  (42) 
autodockgpu

>  <m_score__min__energy>  (42) 
-8.9600000000000009

>  <m_primary>  (42) 
energy

>  <rmsd>  (42) 
1.9616178259640293

>  <m_score__min__rmsd>  (42) 
1.9616178259640293

>  <meeko>  (42) 
{"free_energy": -8.27, "intermolecular_energy": -9.76, "internal_energy": -1.83, "cluster_size": 15, "cluster_id": 1, "rank_in_cluster": 11}

>  <energy>  (42) 
-7.21

>  <cluster_rmsd>  (42) 
0.08

>  <cluster>  (42) 
5

$$$$

     RDKit          3D

 47 50  0  0  0  0  0  0  0  0999 V2000
  140.9340   71.5600  221.3140 O   0  0  0  0  0  0  0  0  0  0  0  0
  140.4130   72.1370  222.3140 C   0  0  0  0  0  0  0  0  0  0  0  0
  139.9960   73.5140  222.2530 N   0  0  0  0  0  0  0  0  0  0  0  0
  140.1800   74.2550  221.0110 C   0  0  0  0  0  0  0  0  0  0  0  0
  140.8070   75.5500  221.2730 C   0  0  0  0  0  0  0  0  0  0  0  0
  140.4320   76.1540  222.3460 O   0  0  0  0  0  0  0  0  0  0  0  0
  141.7670   76.2260  220.5030 N   0  0  0  0  0  0  0  0  0  0  0  0
  141.5410   77.6660  220.1550 C   0  0  0  0  0  0  0  0  0  0  0  0
  141.9560   77.6530  218.7000 C   0  0  0  0  0  0  0  0  0  0  0  0
  142.7280   76.3740  218.4580 C   0  0  0  0  0  0  0  0  0  0  0  0
  142.9970   75.9240  219.8800 C   0  0  2  0  0  0  0  0  0  0  0  0
  143.6110   74.6280  219.9820 C   0  0  0  0  0  0  0  0  0  0  0  0
  144.9340   74.5730  220.4740 C   0  0  0  0  0  0  0  0  0  0  0  0
  145.5910   73.3710  220.6220 C   0  0  0  0  0  0  0  0  0  0  0  0
  144.9810   72.1780  220.2950 C   0  0  0  0  0  0  0  0  0  0  0  0
  143.6900   72.2530  219.8160 C   0  0  0  0  0  0  0  0  0  0  0  0
  143.0780   73.4350  219.6840 N   0  0  0  0  0  0  0  0  0  0  0  0
  140.2210   71.4040  223.5700 C   0  0  0  0  0  0  0  0  0  0  0  0
  139.5780   70.1870  223.5490 C   0  0  0  0  0  0  0  0  0  0  0  0
  139.3730   69.4590  224.7010 C   0  0  0  0  0  0  0  0  0  0  0  0
  139.8240   69.9700  225.8870 C   0  0  0  0  0  0  0  0  0  0  0  0
  139.6400   69.2740  227.0730 C   0  0  0  0  0  0  0  0  0  0  0  0
  140.0910   69.7810  228.2690 C   0  0  0  0  0  0  0  0  0  0  0  0
  140.7430   71.0070  228.3150 C   0  0  0  0  0  0  0  0  0  0  0  0
  140.9210   71.6990  227.1140 C   0  0  0  0  0  0  0  0  0  0  0  0
  140.4730   71.1970  225.9110 C   0  0  0  0  0  0  0  0  0  0  0  0
  140.6500   71.8740  224.7550 N   0  0  0  0  0  0  0  0  0  0  0  0
  139.5750   73.9190  223.1150 H   0  0  0  0  0  0  0  0  0  0  0  0
  140.8223   73.6725  220.3342 H   0  0  0  0  0  0  0  0  0  0  0  0
  139.1959   74.4240  220.5495 H   0  0  0  0  0  0  0  0  0  0  0  0
  140.4865   77.9546  220.2762 H   0  0  0  0  0  0  0  0  0  0  0  0
  142.0840   78.3857  220.7852 H   0  0  0  0  0  0  0  0  0  0  0  0
  141.0652   77.6816  218.0552 H   0  0  0  0  0  0  0  0  0  0  0  0
  142.5772   78.5303  218.4667 H   0  0  0  0  0  0  0  0  0  0  0  0
  142.1251   75.6363  217.9082 H   0  0  0  0  0  0  0  0  0  0  0  0
  143.6319   76.4997  217.8439 H   0  0  0  0  0  0  0  0  0  0  0  0
  143.8028   76.4301  220.4319 H   0  0  0  0  0  0  0  0  0  0  0  0
  145.4491   75.5068  220.7439 H   0  0  0  0  0  0  0  0  0  0  0  0
  146.6210   73.3627  221.0081 H   0  0  0  0  0  0  0  0  0  0  0  0
  145.4987   71.2143  220.4106 H   0  0  0  0  0  0  0  0  0  0  0  0
  143.1578   71.3309  219.5395 H   0  0  0  0  0  0  0  0  0  0  0  0
  139.2192   69.7860  222.5896 H   0  0  0  0  0  0  0  0  0  0  0  0
  138.8577   68.4877  224.6675 H   0  0  0  0  0  0  0  0  0  0  0  0
  139.1255   68.3019  227.0563 H   0  0  0  0  0  0  0  0  0  0  0  0
  139.9343   69.2113  229.1968 H   0  0  0  0  0  0  0  0  0  0  0  0
  141.1077   71.4201  229.2670 H   0  0  0  0  0  0  0  0  0  0  0  0
  141.4334   72.6723  227.1291 H   0  0  0  0  0  0  0  0  0  0  0  0
  1  2  2  0
  2  3  1  0
  3  4  1  0
  4  5  1  0
  5  6  2  0
  5  7  1  0
  7  8  1  0
  8  9  1  0
  9 10  1  0
 10 11  1  0
 11 12  1  0
 12 13  2  0
 13 14  1  0
 14 15  2  0
 15 16  1  0
 16 17  2  0
  2 18  1  0
 18 19  2  0
 19 20  1  0
 20 21  2  0
 21 22  1  0
 22 23  2  0
 23 24  1  0
 24 25  2  0
 25 26  1  0
 26 27  2  0
 11  7  1  0
 17 12  1  0
 27 18  1  0
 26 21  1  0
  3 28  1  0
  4 29  1  0
  4 30  1  0
  8 31  1  0
  8 32  1  0
  9 33  1  0
  9 34  1  0
 10 35  1  0
 10 36  1  0
 11 37  1  1
 13 38  1  0
 14 39  1  0
 15 40  1  0
 16 41  1  0
 19 42  1  0
 20 43  1  0
 22 44  1  0
 23 45  1  0
 24 46  1  0
 25 47  1  0
M  END
>  <smiles>  (43) 
O=C(NCC(=O)N1CCCC1c1ccccn1)c1ccc2ccccc2n1

>  <score_type>  (43) 
oracle

>  <origin>  (43) 
autodockgpu

>  <m_score__min__energy>  (43) 
-8.9600000000000009

>  <m_primary>  (43) 
energy

>  <rmsd>  (43) 
4.178442218860923

>  <m_score__min__rmsd>  (43) 
4.178442218860923

>  <meeko>  (43) 
{"free_energy": -8.43, "intermolecular_energy": -9.93, "internal_energy": -1.83, "cluster_size": 12, "cluster_id": 2, "rank_in_cluster": 3}

>  <energy>  (43) 
-7.21

>  <cluster_rmsd>  (43) 
0.18

>  <cluster>  (43) 
5

$$$$

     RDKit          3D

 47 50  0  0  0  0  0  0  0  0999 V2000
  140.6260   74.1730  220.3570 O   0  0  0  0  0  0  0  0  0  0  0  0
  140.2710   74.9190  221.3170 C   0  0  0  0  0  0  0  0  0  0  0  0
  139.3710   74.4500  222.3400 N   0  0  0  0  0  0  0  0  0  0  0  0
  138.8600   73.0870  222.2610 C   0  0  0  0  0  0  0  0  0  0  0  0
  139.8480   72.1370  222.7710 C   0  0  0  0  0  0  0  0  0  0  0  0
  141.0600   72.5640  222.8410 O   0  0  0  0  0  0  0  0  0  0  0  0
  139.6490   70.8130  223.1940 N   0  0  0  0  0  0  0  0  0  0  0  0
  139.1600   69.7970  222.2050 C   0  0  0  0  0  0  0  0  0  0  0  0
  138.1290   69.0830  223.0520 C   0  0  0  0  0  0  0  0  0  0  0  0
  138.3850   69.4580  224.4950 C   0  0  0  0  0  0  0  0  0  0  0  0
  139.7630   70.0790  224.3950 C   0  0  2  0  0  0  0  0  0  0  0  0
  140.2330   70.6750  225.6160 C   0  0  0  0  0  0  0  0  0  0  0  0
  139.8670   70.0460  226.8260 C   0  0  0  0  0  0  0  0  0  0  0  0
  140.2900   70.5390  228.0420 C   0  0  0  0  0  0  0  0  0  0  0  0
  141.0830   71.6640  228.1200 C   0  0  0  0  0  0  0  0  0  0  0  0
  141.4290   72.2630  226.9280 C   0  0  0  0  0  0  0  0  0  0  0  0
  141.0040   71.7600  225.7630 N   0  0  0  0  0  0  0  0  0  0  0  0
  140.7780   76.2920  221.4100 C   0  0  0  0  0  0  0  0  0  0  0  0
  141.3180   76.8880  220.2930 C   0  0  0  0  0  0  0  0  0  0  0  0
  141.8080   78.1750  220.3270 C   0  0  0  0  0  0  0  0  0  0  0  0
  141.7500   78.8670  221.5060 C   0  0  0  0  0  0  0  0  0  0  0  0
  142.2300   80.1650  221.5890 C   0  0  0  0  0  0  0  0  0  0  0  0
  142.1750   80.8660  222.7710 C   0  0  0  0  0  0  0  0  0  0  0  0
  141.6340   80.2870  223.9120 C   0  0  0  0  0  0  0  0  0  0  0  0
  141.1530   78.9770  223.8150 C   0  0  0  0  0  0  0  0  0  0  0  0
  141.2050   78.2680  222.6340 C   0  0  0  0  0  0  0  0  0  0  0  0
  140.7380   77.0030  222.5500 N   0  0  0  0  0  0  0  0  0  0  0  0
  139.1270   75.1210  223.0970 H   0  0  0  0  0  0  0  0  0  0  0  0
  137.9411   73.0100  222.8608 H   0  0  0  0  0  0  0  0  0  0  0  0
  138.6482   72.8479  221.2084 H   0  0  0  0  0  0  0  0  0  0  0  0
  138.7060   70.2715  221.3226 H   0  0  0  0  0  0  0  0  0  0  0  0
  139.9412   69.1490  221.7809 H   0  0  0  0  0  0  0  0  0  0  0  0
  137.1173   69.3977  222.7563 H   0  0  0  0  0  0  0  0  0  0  0  0
  138.2039   67.9940  222.9163 H   0  0  0  0  0  0  0  0  0  0  0  0
  137.6420   70.1815  224.8618 H   0  0  0  0  0  0  0  0  0  0  0  0
  138.3182   68.6162  225.1999 H   0  0  0  0  0  0  0  0  0  0  0  0
  140.6235   69.3990  224.3110 H   0  0  0  0  0  0  0  0  0  0  0  0
  139.2335   69.1472  226.7979 H   0  0  0  0  0  0  0  0  0  0  0  0
  139.9892   70.0253  228.9670 H   0  0  0  0  0  0  0  0  0  0  0  0
  141.4230   72.0641  229.0866 H   0  0  0  0  0  0  0  0  0  0  0  0
  142.0608   73.1635  226.9343 H   0  0  0  0  0  0  0  0  0  0  0  0
  141.3593   76.3228  219.3502 H   0  0  0  0  0  0  0  0  0  0  0  0
  142.2369   78.6367  219.4254 H   0  0  0  0  0  0  0  0  0  0  0  0
  142.6613   80.6413  220.6962 H   0  0  0  0  0  0  0  0  0  0  0  0
  142.5629   81.8945  222.8133 H   0  0  0  0  0  0  0  0  0  0  0  0
  141.5854   80.8408  224.8612 H   0  0  0  0  0  0  0  0  0  0  0  0
  140.7210   78.4990  224.7066 H   0  0  0  0  0  0  0  0  0  0  0  0
  1  2  2  0
  2  3  1  0
  3  4  1  0
  4  5  1  0
  5  6  2  0
  5  7  1  0
  7  8  1  0
  8  9  1  0
  9 10  1  0
 10 11  1  0
 11 12  1  0
 12 13  2  0
 13 14  1  0
 14 15  2  0
 15 16  1  0
 16 17  2  0
  2 18  1  0
 18 19  2  0
 19 20  1  0
 20 21  2  0
 21 22  1  0
 22 23  2  0
 23 24  1  0
 24 25  2  0
 25 26  1  0
 26 27  2  0
 11  7  1  0
 17 12  1  0
 27 18  1  0
 26 21  1  0
  3 28  1  0
  4 29  1  0
  4 30  1  0
  8 31  1  0
  8 32  1  0
  9 33  1  0
  9 34  1  0
 10 35  1  0
 10 36  1  0
 11 37  1  6
 13 38  1  0
 14 39  1  0
 15 40  1  0
 16 41  1  0
 19 42  1  0
 20 43  1  0
 22 44  1  0
 23 45  1  0
 24 46  1  0
 25 47  1  0
M  END
>  <smiles>  (44) 
O=C(NCC(=O)N1CCCC1c1ccccn1)c1ccc2ccccc2n1

>  <score_type>  (44) 
oracle

>  <origin>  (44) 
autodockgpu

>  <m_score__min__energy>  (44) 
-8.9600000000000009

>  <m_primary>  (44) 
energy

>  <rmsd>  (44) 
9.062249036030618

>  <m_score__min__rmsd>  (44) 
9.062249036030618

>  <meeko>  (44) 
{"free_energy": -8.67, "intermolecular_energy": -10.16, "internal_energy": -1.47, "cluster_size": 15, "cluster_id": 1, "rank_in_cluster": 4}

>  <energy>  (44) 
-7.19

>  <cluster_rmsd>  (44) 
0.17

>  <cluster>  (44) 
5

$$$$

     RDKit          3D

 47 50  0  0  0  0  0  0  0  0999 V2000
  138.9230   75.0800  222.1030 O   0  0  0  0  0  0  0  0  0  0  0  0
  140.0700   75.6150  222.0650 C   0  0  0  0  0  0  0  0  0  0  0  0
  141.2370   74.8640  221.6780 N   0  0  0  0  0  0  0  0  0  0  0  0
  141.0870   73.4580  221.3240 C   0  0  0  0  0  0  0  0  0  0  0  0
  141.8310   73.1520  220.1030 C   0  0  0  0  0  0  0  0  0  0  0  0
  141.1690   72.5630  219.1700 O   0  0  0  0  0  0  0  0  0  0  0  0
  143.1800   73.4170  219.8130 N   0  0  0  0  0  0  0  0  0  0  0  0
  144.1840   72.3110  219.9440 C   0  0  0  0  0  0  0  0  0  0  0  0
  145.3060   73.0570  220.6330 C   0  0  0  0  0  0  0  0  0  0  0  0
  145.0300   74.5370  220.4820 C   0  0  0  0  0  0  0  0  0  0  0  0
  143.9560   74.5250  219.4120 C   0  0  2  0  0  0  0  0  0  0  0  0
  143.3750   75.8130  219.1440 C   0  0  0  0  0  0  0  0  0  0  0  0
  143.4740   76.3070  217.8250 C   0  0  0  0  0  0  0  0  0  0  0  0
  142.9280   77.5240  217.4770 C   0  0  0  0  0  0  0  0  0  0  0  0
  142.2670   78.3020  218.4030 C   0  0  0  0  0  0  0  0  0  0  0  0
  142.1820   77.8020  219.6860 C   0  0  0  0  0  0  0  0  0  0  0  0
  142.7220   76.6170  219.9930 N   0  0  0  0  0  0  0  0  0  0  0  0
  140.2350   77.0290  222.4170 C   0  0  0  0  0  0  0  0  0  0  0  0
  139.1200   77.8190  222.5750 C   0  0  0  0  0  0  0  0  0  0  0  0
  139.2200   79.1540  222.9060 C   0  0  0  0  0  0  0  0  0  0  0  0
  140.4660   79.6930  223.0780 C   0  0  0  0  0  0  0  0  0  0  0  0
  140.6180   81.0300  223.4110 C   0  0  0  0  0  0  0  0  0  0  0  0
  141.8670   81.5790  223.5850 C   0  0  0  0  0  0  0  0  0  0  0  0
  143.0080   80.8020  223.4310 C   0  0  0  0  0  0  0  0  0  0  0  0
  142.8420   79.4550  223.0950 C   0  0  0  0  0  0  0  0  0  0  0  0
  141.5940   78.8980  222.9190 C   0  0  0  0  0  0  0  0  0  0  0  0
  141.4420   77.5950  222.5940 N   0  0  0  0  0  0  0  0  0  0  0  0
  142.1450   75.3730  221.6700 H   0  0  0  0  0  0  0  0  0  0  0  0
  141.4699   72.8355  222.1461 H   0  0  0  0  0  0  0  0  0  0  0  0
  140.0211   73.2477  221.1517 H   0  0  0  0  0  0  0  0  0  0  0  0
  143.8031   71.4846  220.5620 H   0  0  0  0  0  0  0  0  0  0  0  0
  144.4632   71.8235  218.9983 H   0  0  0  0  0  0  0  0  0  0  0  0
  145.3366   72.7878  221.6991 H   0  0  0  0  0  0  0  0  0  0  0  0
  146.2762   72.7967  220.1846 H   0  0  0  0  0  0  0  0  0  0  0  0
  144.6603   74.9765  221.4202 H   0  0  0  0  0  0  0  0  0  0  0  0
  145.9150   75.1391  220.2285 H   0  0  0  0  0  0  0  0  0  0  0  0
  144.2743   74.3718  218.3703 H   0  0  0  0  0  0  0  0  0  0  0  0
  143.9957   75.7106  217.0621 H   0  0  0  0  0  0  0  0  0  0  0  0
  143.0216   77.8809  216.4407 H   0  0  0  0  0  0  0  0  0  0  0  0
  141.8287   79.2739  218.1323 H   0  0  0  0  0  0  0  0  0  0  0  0
  141.6653   78.3832  220.4640 H   0  0  0  0  0  0  0  0  0  0  0  0
  138.1237   77.3747  222.4338 H   0  0  0  0  0  0  0  0  0  0  0  0
  138.3183   79.7718  223.0290 H   0  0  0  0  0  0  0  0  0  0  0  0
  139.7262   81.6614  223.5380 H   0  0  0  0  0  0  0  0  0  0  0  0
  141.9632   82.6427  223.8484 H   0  0  0  0  0  0  0  0  0  0  0  0
  144.0106   81.2329  223.5690 H   0  0  0  0  0  0  0  0  0  0  0  0
  143.7326   78.8221  222.9676 H   0  0  0  0  0  0  0  0  0  0  0  0
  1  2  2  0
  2  3  1  0
  3  4  1  0
  4  5  1  0
  5  6  2  0
  5  7  1  0
  7  8  1  0
  8  9  1  0
  9 10  1  0
 10 11  1  0
 11 12  1  0
 12 13  2  0
 13 14  1  0
 14 15  2  0
 15 16  1  0
 16 17  2  0
  2 18  1  0
 18 19  2  0
 19 20  1  0
 20 21  2  0
 21 22  1  0
 22 23  2  0
 23 24  1  0
 24 25  2  0
 25 26  1  0
 26 27  2  0
 11  7  1  0
 17 12  1  0
 27 18  1  0
 26 21  1  0
  3 28  1  0
  4 29  1  0
  4 30  1  0
  8 31  1  0
  8 32  1  0
  9 33  1  0
  9 34  1  0
 10 35  1  0
 10 36  1  0
 11 37  1  6
 13 38  1  0
 14 39  1  0
 15 40  1  0
 16 41  1  0
 19 42  1  0
 20 43  1  0
 22 44  1  0
 23 45  1  0
 24 46  1  0
 25 47  1  0
M  END
>  <smiles>  (45) 
O=C(NCC(=O)N1CCCC1c1ccccn1)c1ccc2ccccc2n1

>  <score_type>  (45) 
oracle

>  <origin>  (45) 
autodockgpu

>  <m_score__min__energy>  (45) 
-8.9600000000000009

>  <m_primary>  (45) 
energy

>  <rmsd>  (45) 
7.349432683855616

>  <m_score__min__rmsd>  (45) 
7.349432683855616

>  <meeko>  (45) 
{"free_energy": -7.22, "intermolecular_energy": -8.71, "internal_energy": -2.9, "cluster_size": 18, "cluster_id": 5, "rank_in_cluster": 8}

>  <energy>  (45) 
-7.17

>  <cluster_rmsd>  (45) 
0.15

>  <cluster>  (45) 
5

$$$$

     RDKit          3D

 47 50  0  0  0  0  0  0  0  0999 V2000
  141.0010   71.5130  221.3420 O   0  0  0  0  0  0  0  0  0  0  0  0
  140.4590   72.1010  222.3240 C   0  0  0  0  0  0  0  0  0  0  0  0
  140.0360   73.4750  222.2380 N   0  0  0  0  0  0  0  0  0  0  0  0
  140.2400   74.2000  220.9900 C   0  0  0  0  0  0  0  0  0  0  0  0
  140.7430   75.5480  221.2540 C   0  0  0  0  0  0  0  0  0  0  0  0
  140.1860   76.1780  222.2290 O   0  0  0  0  0  0  0  0  0  0  0  0
  141.7560   76.2500  220.5810 N   0  0  0  0  0  0  0  0  0  0  0  0
  141.5790   77.7160  220.3230 C   0  0  0  0  0  0  0  0  0  0  0  0
  142.0670   77.7910  218.8920 C   0  0  0  0  0  0  0  0  0  0  0  0
  142.8210   76.5120  218.6000 C   0  0  0  0  0  0  0  0  0  0  0  0
  143.0080   75.9590  219.9990 C   0  0  2  0  0  0  0  0  0  0  0  0
  143.5870   74.6440  220.0400 C   0  0  0  0  0  0  0  0  0  0  0  0
  144.9070   74.5310  220.5290 C   0  0  0  0  0  0  0  0  0  0  0  0
  145.5320   73.3050  220.6210 C   0  0  0  0  0  0  0  0  0  0  0  0
  144.8900   72.1460  220.2390 C   0  0  0  0  0  0  0  0  0  0  0  0
  143.6020   72.2780  219.7650 C   0  0  0  0  0  0  0  0  0  0  0  0
  143.0230   73.4810  219.6880 N   0  0  0  0  0  0  0  0  0  0  0  0
  140.2460   71.3830  223.5860 C   0  0  0  0  0  0  0  0  0  0  0  0
  139.5830   70.1770  223.5720 C   0  0  0  0  0  0  0  0  0  0  0  0
  139.3580   69.4630  224.7290 C   0  0  0  0  0  0  0  0  0  0  0  0
  139.8100   69.9790  225.9140 C   0  0  0  0  0  0  0  0  0  0  0  0
  139.6060   69.2970  227.1050 C   0  0  0  0  0  0  0  0  0  0  0  0
  140.0580   69.8080  228.2990 C   0  0  0  0  0  0  0  0  0  0  0  0
  140.7290   71.0240  228.3380 C   0  0  0  0  0  0  0  0  0  0  0  0
  140.9270   71.7010  227.1320 C   0  0  0  0  0  0  0  0  0  0  0  0
  140.4790   71.1950  225.9310 C   0  0  0  0  0  0  0  0  0  0  0  0
  140.6740   71.8570  224.7690 N   0  0  0  0  0  0  0  0  0  0  0  0
  139.5970   73.8890  223.0860 H   0  0  0  0  0  0  0  0  0  0  0  0
  140.9694   73.6567  220.3714 H   0  0  0  0  0  0  0  0  0  0  0  0
  139.2773   74.2775  220.4634 H   0  0  0  0  0  0  0  0  0  0  0  0
  140.5262   78.0221  220.4120 H   0  0  0  0  0  0  0  0  0  0  0  0
  142.1046   78.3775  221.0274 H   0  0  0  0  0  0  0  0  0  0  0  0
  141.2109   77.8866  218.2079 H   0  0  0  0  0  0  0  0  0  0  0  0
  142.7191   78.6656  218.7508 H   0  0  0  0  0  0  0  0  0  0  0  0
  142.2300   75.8294  217.9717 H   0  0  0  0  0  0  0  0  0  0  0  0
  143.7574   76.6558  218.0409 H   0  0  0  0  0  0  0  0  0  0  0  0
  143.7961   76.4047  220.6237 H   0  0  0  0  0  0  0  0  0  0  0  0
  145.4464   75.4371  220.8422 H   0  0  0  0  0  0  0  0  0  0  0  0
  146.5610   73.2508  221.0060 H   0  0  0  0  0  0  0  0  0  0  0  0
  145.3813   71.1643  220.3090 H   0  0  0  0  0  0  0  0  0  0  0  0
  143.0449   71.3845  219.4469 H   0  0  0  0  0  0  0  0  0  0  0  0
  139.2239   69.7732  222.6139 H   0  0  0  0  0  0  0  0  0  0  0  0
  138.8271   68.5000  224.7012 H   0  0  0  0  0  0  0  0  0  0  0  0
  139.0751   68.3337  227.0939 H   0  0  0  0  0  0  0  0  0  0  0  0
  139.8869   69.2494  229.2310 H   0  0  0  0  0  0  0  0  0  0  0  0
  141.0930   71.4407  229.2887 H   0  0  0  0  0  0  0  0  0  0  0  0
  141.4557   72.6656  227.1414 H   0  0  0  0  0  0  0  0  0  0  0  0
  1  2  2  0
  2  3  1  0
  3  4  1  0
  4  5  1  0
  5  6  2  0
  5  7  1  0
  7  8  1  0
  8  9  1  0
  9 10  1  0
 10 11  1  0
 11 12  1  0
 12 13  2  0
 13 14  1  0
 14 15  2  0
 15 16  1  0
 16 17  2  0
  2 18  1  0
 18 19  2  0
 19 20  1  0
 20 21  2  0
 21 22  1  0
 22 23  2  0
 23 24  1  0
 24 25  2  0
 25 26  1  0
 26 27  2  0
 11  7  1  0
 17 12  1  0
 27 18  1  0
 26 21  1  0
  3 28  1  0
  4 29  1  0
  4 30  1  0
  8 31  1  0
  8 32  1  0
  9 33  1  0
  9 34  1  0
 10 35  1  0
 10 36  1  0
 11 37  1  1
 13 38  1  0
 14 39  1  0
 15 40  1  0
 16 41  1  0
 19 42  1  0
 20 43  1  0
 22 44  1  0
 23 45  1  0
 24 46  1  0
 25 47  1  0
M  END
>  <smiles>  (46) 
O=C(NCC(=O)N1CCCC1c1ccccn1)c1ccc2ccccc2n1

>  <score_type>  (46) 
oracle

>  <origin>  (46) 
autodockgpu

>  <m_score__min__energy>  (46) 
-8.9600000000000009

>  <m_primary>  (46) 
energy

>  <rmsd>  (46) 
4.2046763870779476

>  <m_score__min__rmsd>  (46) 
4.2046763870779476

>  <meeko>  (46) 
{"free_energy": -8.39, "intermolecular_energy": -9.88, "internal_energy": -1.82, "cluster_size": 12, "cluster_id": 2, "rank_in_cluster": 6}

>  <energy>  (46) 
-7.15

>  <cluster_rmsd>  (46) 
0.23

>  <cluster>  (46) 
5

$$$$

     RDKit          3D

 47 50  0  0  0  0  0  0  0  0999 V2000
  141.4600   71.6840  221.5020 O   0  0  0  0  0  0  0  0  0  0  0  0
  140.6580   72.1820  222.3470 C   0  0  0  0  0  0  0  0  0  0  0  0
  140.0370   73.4640  222.1300 N   0  0  0  0  0  0  0  0  0  0  0  0
  140.3420   74.1990  220.9080 C   0  0  0  0  0  0  0  0  0  0  0  0
  140.9590   75.4870  221.2240 C   0  0  0  0  0  0  0  0  0  0  0  0
  140.6050   76.0260  222.3370 O   0  0  0  0  0  0  0  0  0  0  0  0
  141.8910   76.2170  220.4680 N   0  0  0  0  0  0  0  0  0  0  0  0
  141.5510   77.6140  220.0450 C   0  0  0  0  0  0  0  0  0  0  0  0
  142.0360   77.5790  218.6120 C   0  0  0  0  0  0  0  0  0  0  0  0
  142.9320   76.3690  218.4630 C   0  0  0  0  0  0  0  0  0  0  0  0
  143.1720   76.0050  219.9140 C   0  0  2  0  0  0  0  0  0  0  0  0
  143.8950   74.7770  220.1030 C   0  0  0  0  0  0  0  0  0  0  0  0
  143.3530   73.6090  219.5220 C   0  0  0  0  0  0  0  0  0  0  0  0
  143.9920   72.3930  219.6380 C   0  0  0  0  0  0  0  0  0  0  0  0
  145.1810   72.2720  220.3250 C   0  0  0  0  0  0  0  0  0  0  0  0
  145.6930   73.4230  220.8850 C   0  0  0  0  0  0  0  0  0  0  0  0
  145.0510   74.5900  220.7550 N   0  0  0  0  0  0  0  0  0  0  0  0
  140.3420   71.4530  223.5800 C   0  0  0  0  0  0  0  0  0  0  0  0
  139.6070   70.2920  223.5070 C   0  0  0  0  0  0  0  0  0  0  0  0
  139.2830   69.5700  224.6350 C   0  0  0  0  0  0  0  0  0  0  0  0
  139.7080   70.0310  225.8510 C   0  0  0  0  0  0  0  0  0  0  0  0
  139.4070   69.3380  227.0150 C   0  0  0  0  0  0  0  0  0  0  0  0
  139.8310   69.7950  228.2400 C   0  0  0  0  0  0  0  0  0  0  0  0
  140.5740   70.9650  228.3400 C   0  0  0  0  0  0  0  0  0  0  0  0
  140.8710   71.6540  227.1600 C   0  0  0  0  0  0  0  0  0  0  0  0
  140.4500   71.2020  225.9280 C   0  0  0  0  0  0  0  0  0  0  0  0
  140.7410   71.8750  224.7930 N   0  0  0  0  0  0  0  0  0  0  0  0
  139.3890   73.8060  222.8690 H   0  0  0  0  0  0  0  0  0  0  0  0
  141.0357   73.6067  220.2932 H   0  0  0  0  0  0  0  0  0  0  0  0
  139.4061   74.3787  220.3586 H   0  0  0  0  0  0  0  0  0  0  0  0
  140.4698   77.8073  220.1056 H   0  0  0  0  0  0  0  0  0  0  0  0
  141.9941   78.4071  220.6652 H   0  0  0  0  0  0  0  0  0  0  0  0
  141.1787   77.4978  217.9275 H   0  0  0  0  0  0  0  0  0  0  0  0
  142.5856   78.4998  218.3671 H   0  0  0  0  0  0  0  0  0  0  0  0
  142.4261   75.5563  217.9212 H   0  0  0  0  0  0  0  0  0  0  0  0
  143.8493   76.5531  217.8845 H   0  0  0  0  0  0  0  0  0  0  0  0
  143.9016   76.6062  220.4763 H   0  0  0  0  0  0  0  0  0  0  0  0
  142.4049   73.6708  218.9676 H   0  0  0  0  0  0  0  0  0  0  0  0
  143.5445   71.5020  219.1734 H   0  0  0  0  0  0  0  0  0  0  0  0
  145.6959   71.3047  220.4216 H   0  0  0  0  0  0  0  0  0  0  0  0
  146.6391   73.3817  221.4445 H   0  0  0  0  0  0  0  0  0  0  0  0
  139.2698   69.9314  222.5240 H   0  0  0  0  0  0  0  0  0  0  0  0
  138.6954   68.6431  224.5594 H   0  0  0  0  0  0  0  0  0  0  0  0
  138.8205   68.4093  226.9564 H   0  0  0  0  0  0  0  0  0  0  0  0
  139.5799   69.2294  229.1494 H   0  0  0  0  0  0  0  0  0  0  0  0
  140.9176   71.3373  229.3164 H   0  0  0  0  0  0  0  0  0  0  0  0
  141.4572   72.5830  227.2167 H   0  0  0  0  0  0  0  0  0  0  0  0
  1  2  2  0
  2  3  1  0
  3  4  1  0
  4  5  1  0
  5  6  2  0
  5  7  1  0
  7  8  1  0
  8  9  1  0
  9 10  1  0
 10 11  1  0
 11 12  1  0
 12 13  2  0
 13 14  1  0
 14 15  2  0
 15 16  1  0
 16 17  2  0
  2 18  1  0
 18 19  2  0
 19 20  1  0
 20 21  2  0
 21 22  1  0
 22 23  2  0
 23 24  1  0
 24 25  2  0
 25 26  1  0
 26 27  2  0
 11  7  1  0
 17 12  1  0
 27 18  1  0
 26 21  1  0
  3 28  1  0
  4 29  1  0
  4 30  1  0
  8 31  1  0
  8 32  1  0
  9 33  1  0
  9 34  1  0
 10 35  1  0
 10 36  1  0
 11 37  1  1
 13 38  1  0
 14 39  1  0
 15 40  1  0
 16 41  1  0
 19 42  1  0
 20 43  1  0
 22 44  1  0
 23 45  1  0
 24 46  1  0
 25 47  1  0
M  END
>  <smiles>  (47) 
O=C(NCC(=O)N1CCCC1c1ccccn1)c1ccc2ccccc2n1

>  <score_type>  (47) 
oracle

>  <origin>  (47) 
autodockgpu

>  <m_score__min__energy>  (47) 
-8.9600000000000009

>  <m_primary>  (47) 
energy

>  <rmsd>  (47) 
4.236946132640044

>  <m_score__min__rmsd>  (47) 
4.236946132640044

>  <meeko>  (47) 
{"free_energy": -8.34, "intermolecular_energy": -9.83, "internal_energy": -1.71, "cluster_size": 12, "cluster_id": 2, "rank_in_cluster": 10}

>  <energy>  (47) 
-7.14

>  <cluster_rmsd>  (47) 
0.11

>  <cluster>  (47) 
5

$$$$

     RDKit          3D

 47 50  0  0  0  0  0  0  0  0999 V2000
  138.9560   74.9370  222.0650 O   0  0  0  0  0  0  0  0  0  0  0  0
  140.0960   75.4850  222.0080 C   0  0  0  0  0  0  0  0  0  0  0  0
  141.2660   74.7460  221.6090 N   0  0  0  0  0  0  0  0  0  0  0  0
  141.1280   73.3360  221.2640 C   0  0  0  0  0  0  0  0  0  0  0  0
  141.9780   73.0000  220.1220 C   0  0  0  0  0  0  0  0  0  0  0  0
  141.4170   72.3290  219.1770 O   0  0  0  0  0  0  0  0  0  0  0  0
  143.3320   73.3130  219.9190 N   0  0  0  0  0  0  0  0  0  0  0  0
  144.3660   72.2500  220.1380 C   0  0  0  0  0  0  0  0  0  0  0  0
  145.4090   73.0490  220.8880 C   0  0  0  0  0  0  0  0  0  0  0  0
  145.0880   74.5150  220.6910 C   0  0  0  0  0  0  0  0  0  0  0  0
  144.0920   74.4440  219.5520 C   0  0  2  0  0  0  0  0  0  0  0  0
  143.4820   75.7040  219.2220 C   0  0  0  0  0  0  0  0  0  0  0  0
  143.5560   76.1280  217.8780 C   0  0  0  0  0  0  0  0  0  0  0  0
  142.9820   77.3130  217.4710 C   0  0  0  0  0  0  0  0  0  0  0  0
  142.3150   78.1270  218.3620 C   0  0  0  0  0  0  0  0  0  0  0  0
  142.2540   77.6950  219.6700 C   0  0  0  0  0  0  0  0  0  0  0  0
  142.8210   76.5400  220.0340 N   0  0  0  0  0  0  0  0  0  0  0  0
  140.2500   76.9020  222.3520 C   0  0  0  0  0  0  0  0  0  0  0  0
  139.1290   77.6910  222.4770 C   0  0  0  0  0  0  0  0  0  0  0  0
  139.2190   79.0290  222.7980 C   0  0  0  0  0  0  0  0  0  0  0  0
  140.4600   79.5720  222.9940 C   0  0  0  0  0  0  0  0  0  0  0  0
  140.6010   80.9130  223.3190 C   0  0  0  0  0  0  0  0  0  0  0  0
  141.8440   81.4670  223.5180 C   0  0  0  0  0  0  0  0  0  0  0  0
  142.9900   80.6910  223.3970 C   0  0  0  0  0  0  0  0  0  0  0  0
  142.8340   79.3410  223.0690 C   0  0  0  0  0  0  0  0  0  0  0  0
  141.5920   78.7790  222.8690 C   0  0  0  0  0  0  0  0  0  0  0  0
  141.4510   77.4730  222.5520 N   0  0  0  0  0  0  0  0  0  0  0  0
  142.1680   75.2650  221.5860 H   0  0  0  0  0  0  0  0  0  0  0  0
  141.4233   72.7219  222.1276 H   0  0  0  0  0  0  0  0  0  0  0  0
  140.0797   73.1372  220.9966 H   0  0  0  0  0  0  0  0  0  0  0  0
  143.9752   71.4188  220.7434 H   0  0  0  0  0  0  0  0  0  0  0  0
  144.7279   71.7598  219.2222 H   0  0  0  0  0  0  0  0  0  0  0  0
  145.3762   72.7980  221.9585 H   0  0  0  0  0  0  0  0  0  0  0  0
  146.4170   72.8193  220.5122 H   0  0  0  0  0  0  0  0  0  0  0  0
  144.6384   74.9547  221.5936 H   0  0  0  0  0  0  0  0  0  0  0  0
  145.9648   75.1471  220.4870 H   0  0  0  0  0  0  0  0  0  0  0  0
  144.4875   74.2866  218.5377 H   0  0  0  0  0  0  0  0  0  0  0  0
  144.0812   75.5015  217.1421 H   0  0  0  0  0  0  0  0  0  0  0  0
  143.0573   77.6150  216.4160 H   0  0  0  0  0  0  0  0  0  0  0  0
  141.8543   79.0742  218.0450 H   0  0  0  0  0  0  0  0  0  0  0  0
  141.7336   78.3067  220.4217 H   0  0  0  0  0  0  0  0  0  0  0  0
  138.1371   77.2432  222.3169 H   0  0  0  0  0  0  0  0  0  0  0  0
  138.3136   79.6462  222.8944 H   0  0  0  0  0  0  0  0  0  0  0  0
  139.7049   81.5431  223.4191 H   0  0  0  0  0  0  0  0  0  0  0  0
  141.9315   82.5330  223.7750 H   0  0  0  0  0  0  0  0  0  0  0  0
  143.9884   81.1250  223.5543 H   0  0  0  0  0  0  0  0  0  0  0  0
  143.7287   78.7092  222.9677 H   0  0  0  0  0  0  0  0  0  0  0  0
  1  2  2  0
  2  3  1  0
  3  4  1  0
  4  5  1  0
  5  6  2  0
  5  7  1  0
  7  8  1  0
  8  9  1  0
  9 10  1  0
 10 11  1  0
 11 12  1  0
 12 13  2  0
 13 14  1  0
 14 15  2  0
 15 16  1  0
 16 17  2  0
  2 18  1  0
 18 19  2  0
 19 20  1  0
 20 21  2  0
 21 22  1  0
 22 23  2  0
 23 24  1  0
 24 25  2  0
 25 26  1  0
 26 27  2  0
 11  7  1  0
 17 12  1  0
 27 18  1  0
 26 21  1  0
  3 28  1  0
  4 29  1  0
  4 30  1  0
  8 31  1  0
  8 32  1  0
  9 33  1  0
  9 34  1  0
 10 35  1  0
 10 36  1  0
 11 37  1  6
 13 38  1  0
 14 39  1  0
 15 40  1  0
 16 41  1  0
 19 42  1  0
 20 43  1  0
 22 44  1  0
 23 45  1  0
 24 46  1  0
 25 47  1  0
M  END
>  <smiles>  (48) 
O=C(NCC(=O)N1CCCC1c1ccccn1)c1ccc2ccccc2n1

>  <score_type>  (48) 
oracle

>  <origin>  (48) 
autodockgpu

>  <m_score__min__energy>  (48) 
-8.9600000000000009

>  <m_primary>  (48) 
energy

>  <rmsd>  (48) 
7.3581937374268875

>  <m_score__min__rmsd>  (48) 
7.3581937374268875

>  <meeko>  (48) 
{"free_energy": -7.15, "intermolecular_energy": -8.64, "internal_energy": -2.93, "cluster_size": 18, "cluster_id": 5, "rank_in_cluster": 14}

>  <energy>  (48) 
-7.09

>  <cluster_rmsd>  (48) 
0.75

>  <cluster>  (48) 
5

$$$$

     RDKit          3D

 47 50  0  0  0  0  0  0  0  0999 V2000
  140.0850   71.0660  221.2610 O   0  0  0  0  0  0  0  0  0  0  0  0
  139.9470   71.6960  222.3510 C   0  0  0  0  0  0  0  0  0  0  0  0
  139.7610   73.1250  222.3750 N   0  0  0  0  0  0  0  0  0  0  0  0
  139.7330   73.8550  221.1140 C   0  0  0  0  0  0  0  0  0  0  0  0
  140.0920   75.2580  221.3230 C   0  0  0  0  0  0  0  0  0  0  0  0
  139.9650   75.7000  222.5250 O   0  0  0  0  0  0  0  0  0  0  0  0
  140.5560   76.1910  220.3820 N   0  0  0  0  0  0  0  0  0  0  0  0
  140.7010   75.7710  218.9510 C   0  0  0  0  0  0  0  0  0  0  0  0
  142.0400   76.3980  218.6290 C   0  0  0  0  0  0  0  0  0  0  0  0
  142.3430   77.4090  219.7130 C   0  0  0  0  0  0  0  0  0  0  0  0
  140.9880   77.5350  220.3800 C   0  0  2  0  0  0  0  0  0  0  0  0
  140.9880   78.3430  221.5680 C   0  0  0  0  0  0  0  0  0  0  0  0
  142.1920   78.9970  221.9080 C   0  0  0  0  0  0  0  0  0  0  0  0
  142.2750   79.8070  223.0210 C   0  0  0  0  0  0  0  0  0  0  0  0
  141.1860   80.0060  223.8420 C   0  0  0  0  0  0  0  0  0  0  0  0
  140.0200   79.3580  223.4940 C   0  0  0  0  0  0  0  0  0  0  0  0
  139.9700   78.5790  222.4070 N   0  0  0  0  0  0  0  0  0  0  0  0
  139.9710   70.9750  223.6270 C   0  0  0  0  0  0  0  0  0  0  0  0
  139.5410   69.6680  223.6720 C   0  0  0  0  0  0  0  0  0  0  0  0
  139.5440   68.9460  224.8450 C   0  0  0  0  0  0  0  0  0  0  0  0
  139.9880   69.5550  225.9870 C   0  0  0  0  0  0  0  0  0  0  0  0
  140.0100   68.8680  227.1920 C   0  0  0  0  0  0  0  0  0  0  0  0
  140.4560   69.4740  228.3440 C   0  0  0  0  0  0  0  0  0  0  0  0
  140.8960   70.7920  228.3240 C   0  0  0  0  0  0  0  0  0  0  0  0
  140.8680   71.4720  227.1040 C   0  0  0  0  0  0  0  0  0  0  0  0
  140.4240   70.8730  225.9460 C   0  0  0  0  0  0  0  0  0  0  0  0
  140.4010   71.5390  224.7700 N   0  0  0  0  0  0  0  0  0  0  0  0
  139.6530   73.5720  223.3090 H   0  0  0  0  0  0  0  0  0  0  0  0
  140.4502   73.3985  220.4160 H   0  0  0  0  0  0  0  0  0  0  0  0
  138.7153   73.8074  220.6992 H   0  0  0  0  0  0  0  0  0  0  0  0
  140.7271   74.6762  218.8473 H   0  0  0  0  0  0  0  0  0  0  0  0
  139.8751   76.0768  218.2919 H   0  0  0  0  0  0  0  0  0  0  0  0
  142.8215   75.6242  218.6085 H   0  0  0  0  0  0  0  0  0  0  0  0
  142.0120   76.8848  217.6430 H   0  0  0  0  0  0  0  0  0  0  0  0
  143.1043   77.0344  220.4130 H   0  0  0  0  0  0  0  0  0  0  0  0
  142.7559   78.3592  219.3434 H   0  0  0  0  0  0  0  0  0  0  0  0
  140.2257   78.1479  219.8768 H   0  0  0  0  0  0  0  0  0  0  0  0
  143.0799   78.8580  221.2737 H   0  0  0  0  0  0  0  0  0  0  0  0
  143.2277   80.3033  223.2578 H   0  0  0  0  0  0  0  0  0  0  0  0
  141.2444   80.6504  224.7315 H   0  0  0  0  0  0  0  0  0  0  0  0
  139.1215   79.4826  224.1162 H   0  0  0  0  0  0  0  0  0  0  0  0
  139.1861   69.1882  222.7480 H   0  0  0  0  0  0  0  0  0  0  0  0
  139.1970   67.9023  224.8633 H   0  0  0  0  0  0  0  0  0  0  0  0
  139.6659   67.8238  227.2270 H   0  0  0  0  0  0  0  0  0  0  0  0
  140.4643   68.9105  229.2887 H   0  0  0  0  0  0  0  0  0  0  0  0
  141.2550   71.2843  229.2399 H   0  0  0  0  0  0  0  0  0  0  0  0
  141.2107   72.5166  227.0671 H   0  0  0  0  0  0  0  0  0  0  0  0
  1  2  2  0
  2  3  1  0
  3  4  1  0
  4  5  1  0
  5  6  2  0
  5  7  1  0
  7  8  1  0
  8  9  1  0
  9 10  1  0
 10 11  1  0
 11 12  1  0
 12 13  2  0
 13 14  1  0
 14 15  2  0
 15 16  1  0
 16 17  2  0
  2 18  1  0
 18 19  2  0
 19 20  1  0
 20 21  2  0
 21 22  1  0
 22 23  2  0
 23 24  1  0
 24 25  2  0
 25 26  1  0
 26 27  2  0
 11  7  1  0
 17 12  1  0
 27 18  1  0
 26 21  1  0
  3 28  1  0
  4 29  1  0
  4 30  1  0
  8 31  1  0
  8 32  1  0
  9 33  1  0
  9 34  1  0
 10 35  1  0
 10 36  1  0
 11 37  1  6
 13 38  1  0
 14 39  1  0
 15 40  1  0
 16 41  1  0
 19 42  1  0
 20 43  1  0
 22 44  1  0
 23 45  1  0
 24 46  1  0
 25 47  1  0
M  END
>  <smiles>  (49) 
O=C(NCC(=O)N1CCCC1c1ccccn1)c1ccc2ccccc2n1

>  <score_type>  (49) 
oracle

>  <origin>  (49) 
autodockgpu

>  <m_score__min__energy>  (49) 
-8.9600000000000009

>  <m_primary>  (49) 
energy

>  <rmsd>  (49) 
1.9334667539395467

>  <m_score__min__rmsd>  (49) 
1.9334667539395467

>  <meeko>  (49) 
{"free_energy": -8.32, "intermolecular_energy": -9.82, "internal_energy": -1.83, "cluster_size": 15, "cluster_id": 1, "rank_in_cluster": 9}

>  <energy>  (49) 
-7.06

>  <cluster_rmsd>  (49) 
0.77

>  <cluster>  (49) 
5

$$$$

     RDKit          3D

 47 50  0  0  0  0  0  0  0  0999 V2000
  139.9270   71.0980  221.2570 O   0  0  0  0  0  0  0  0  0  0  0  0
  139.8500   71.7200  222.3580 C   0  0  0  0  0  0  0  0  0  0  0  0
  139.7020   73.1520  222.4040 N   0  0  0  0  0  0  0  0  0  0  0  0
  139.6420   73.8970  221.1520 C   0  0  0  0  0  0  0  0  0  0  0  0
  140.0520   75.2860  221.3590 C   0  0  0  0  0  0  0  0  0  0  0  0
  139.9570   75.7290  222.5640 O   0  0  0  0  0  0  0  0  0  0  0  0
  140.5350   76.2040  220.4130 N   0  0  0  0  0  0  0  0  0  0  0  0
  140.6850   75.7700  218.9870 C   0  0  0  0  0  0  0  0  0  0  0  0
  142.0340   76.3760  218.6690 C   0  0  0  0  0  0  0  0  0  0  0  0
  142.3420   77.3930  219.7460 C   0  0  0  0  0  0  0  0  0  0  0  0
  140.9840   77.5420  220.4020 C   0  0  2  0  0  0  0  0  0  0  0  0
  140.9860   78.3610  221.5840 C   0  0  0  0  0  0  0  0  0  0  0  0
  142.1870   79.0280  221.9090 C   0  0  0  0  0  0  0  0  0  0  0  0
  142.2720   79.8480  223.0140 C   0  0  0  0  0  0  0  0  0  0  0  0
  141.1870   80.0460  223.8410 C   0  0  0  0  0  0  0  0  0  0  0  0
  140.0240   79.3850  223.5070 C   0  0  0  0  0  0  0  0  0  0  0  0
  139.9730   78.5960  222.4280 N   0  0  0  0  0  0  0  0  0  0  0  0
  139.9080   70.9840  223.6250 C   0  0  0  0  0  0  0  0  0  0  0  0
  139.5050   69.6680  223.6600 C   0  0  0  0  0  0  0  0  0  0  0  0
  139.5400   68.9320  224.8240 C   0  0  0  0  0  0  0  0  0  0  0  0
  139.9900   69.5370  225.9670 C   0  0  0  0  0  0  0  0  0  0  0  0
  140.0440   68.8370  227.1630 C   0  0  0  0  0  0  0  0  0  0  0  0
  140.4950   69.4370  228.3150 C   0  0  0  0  0  0  0  0  0  0  0  0
  140.9070   70.7640  228.3050 C   0  0  0  0  0  0  0  0  0  0  0  0
  140.8480   71.4580  227.0940 C   0  0  0  0  0  0  0  0  0  0  0  0
  140.3980   70.8640  225.9350 C   0  0  0  0  0  0  0  0  0  0  0  0
  140.3440   71.5430  224.7680 N   0  0  0  0  0  0  0  0  0  0  0  0
  139.6450   73.5910  223.3460 H   0  0  0  0  0  0  0  0  0  0  0  0
  140.3143   73.4270  220.4191 H   0  0  0  0  0  0  0  0  0  0  0  0
  138.6064   73.8845  220.7812 H   0  0  0  0  0  0  0  0  0  0  0  0
  140.6973   74.6741  218.8929 H   0  0  0  0  0  0  0  0  0  0  0  0
  139.8681   76.0813  218.3194 H   0  0  0  0  0  0  0  0  0  0  0  0
  142.8054   75.5919  218.6615 H   0  0  0  0  0  0  0  0  0  0  0  0
  142.0199   76.8537  217.6782 H   0  0  0  0  0  0  0  0  0  0  0  0
  143.0935   77.0153  220.4549 H   0  0  0  0  0  0  0  0  0  0  0  0
  142.7695   78.3345  219.3709 H   0  0  0  0  0  0  0  0  0  0  0  0
  140.2332   78.1599  219.8876 H   0  0  0  0  0  0  0  0  0  0  0  0
  143.0710   78.8910  221.2689 H   0  0  0  0  0  0  0  0  0  0  0  0
  143.2226   80.3533  223.2398 H   0  0  0  0  0  0  0  0  0  0  0  0
  141.2462   80.6993  224.7240 H   0  0  0  0  0  0  0  0  0  0  0  0
  139.1288   79.5077  224.1343 H   0  0  0  0  0  0  0  0  0  0  0  0
  139.1461   69.1923  222.7354 H   0  0  0  0  0  0  0  0  0  0  0  0
  139.2137   67.8816  224.8350 H   0  0  0  0  0  0  0  0  0  0  0  0
  139.7211   67.7858  227.1904 H   0  0  0  0  0  0  0  0  0  0  0  0
  140.5299   68.8619  229.2520 H   0  0  0  0  0  0  0  0  0  0  0  0
  141.2683   71.2527  229.2219 H   0  0  0  0  0  0  0  0  0  0  0  0
  141.1702   72.5093  227.0648 H   0  0  0  0  0  0  0  0  0  0  0  0
  1  2  2  0
  2  3  1  0
  3  4  1  0
  4  5  1  0
  5  6  2  0
  5  7  1  0
  7  8  1  0
  8  9  1  0
  9 10  1  0
 10 11  1  0
 11 12  1  0
 12 13  2  0
 13 14  1  0
 14 15  2  0
 15 16  1  0
 16 17  2  0
  2 18  1  0
 18 19  2  0
 19 20  1  0
 20 21  2  0
 21 22  1  0
 22 23  2  0
 23 24  1  0
 24 25  2  0
 25 26  1  0
 26 27  2  0
 11  7  1  0
 17 12  1  0
 27 18  1  0
 26 21  1  0
  3 28  1  0
  4 29  1  0
  4 30  1  0
  8 31  1  0
  8 32  1  0
  9 33  1  0
  9 34  1  0
 10 35  1  0
 10 36  1  0
 11 37  1  6
 13 38  1  0
 14 39  1  0
 15 40  1  0
 16 41  1  0
 19 42  1  0
 20 43  1  0
 22 44  1  0
 23 45  1  0
 24 46  1  0
 25 47  1  0
M  END
>  <smiles>  (50) 
O=C(NCC(=O)N1CCCC1c1ccccn1)c1ccc2ccccc2n1

>  <score_type>  (50) 
oracle

>  <origin>  (50) 
autodockgpu

>  <m_score__min__energy>  (50) 
-8.9600000000000009

>  <m_primary>  (50) 
energy

>  <rmsd>  (50) 
1.9183370765848646

>  <m_score__min__rmsd>  (50) 
1.9183370765848646

>  <meeko>  (50) 
{"free_energy": -8.3, "intermolecular_energy": -9.79, "internal_energy": -1.83, "cluster_size": 15, "cluster_id": 1, "rank_in_cluster": 10}

>  <energy>  (50) 
-7.04

>  <cluster_rmsd>  (50) 
0.76

>  <cluster>  (50) 
5

$$$$

     RDKit          3D

 47 50  0  0  0  0  0  0  0  0999 V2000
  141.2540   71.6090  221.4930 O   0  0  0  0  0  0  0  0  0  0  0  0
  140.5560   72.0960  222.4180 C   0  0  0  0  0  0  0  0  0  0  0  0
  140.0000   73.4090  222.3690 N   0  0  0  0  0  0  0  0  0  0  0  0
  140.2420   74.2490  221.1940 C   0  0  0  0  0  0  0  0  0  0  0  0
  140.1200   75.6560  221.5550 C   0  0  0  0  0  0  0  0  0  0  0  0
  139.5610   75.9280  222.6730 O   0  0  0  0  0  0  0  0  0  0  0  0
  140.5540   76.7630  220.7950 N   0  0  0  0  0  0  0  0  0  0  0  0
  139.7660   77.2760  219.6600 C   0  0  0  0  0  0  0  0  0  0  0  0
  140.9380   77.4060  218.6640 C   0  0  0  0  0  0  0  0  0  0  0  0
  141.8120   78.3260  219.5300 C   0  0  0  0  0  0  0  0  0  0  0  0
  141.7220   77.5960  220.8770 C   0  0  1  0  0  0  0  0  0  0  0  0
  141.6270   78.6770  221.8940 C   0  0  0  0  0  0  0  0  0  0  0  0
  140.5140   78.7810  222.7380 C   0  0  0  0  0  0  0  0  0  0  0  0
  140.4180   79.7740  223.6920 C   0  0  0  0  0  0  0  0  0  0  0  0
  141.4260   80.7050  223.8470 C   0  0  0  0  0  0  0  0  0  0  0  0
  142.5130   80.5610  222.9860 C   0  0  0  0  0  0  0  0  0  0  0  0
  142.5800   79.5880  222.0670 N   0  0  0  0  0  0  0  0  0  0  0  0
  140.2950   71.2740  223.6160 C   0  0  0  0  0  0  0  0  0  0  0  0
  139.6450   70.0640  223.5020 C   0  0  0  0  0  0  0  0  0  0  0  0
  139.3840   69.2680  224.6050 C   0  0  0  0  0  0  0  0  0  0  0  0
  139.8000   69.7280  225.8400 C   0  0  0  0  0  0  0  0  0  0  0  0
  139.5750   68.9930  226.9720 C   0  0  0  0  0  0  0  0  0  0  0  0
  140.0040   69.4750  228.2100 C   0  0  0  0  0  0  0  0  0  0  0  0
  140.6480   70.6850  228.2790 C   0  0  0  0  0  0  0  0  0  0  0  0
  140.8860   71.4460  227.1460 C   0  0  0  0  0  0  0  0  0  0  0  0
  140.4490   70.9410  225.9300 C   0  0  0  0  0  0  0  0  0  0  0  0
  140.6930   71.7000  224.8490 N   0  0  0  0  0  0  0  0  0  0  0  0
  139.4340   73.7270  223.1850 H   0  0  0  0  0  0  0  0  0  0  0  0
  141.2554   74.0574  220.8114 H   0  0  0  0  0  0  0  0  0  0  0  0
  139.4996   74.0089  220.4186 H   0  0  0  0  0  0  0  0  0  0  0  0
  139.0020   76.5612  219.3204 H   0  0  0  0  0  0  0  0  0  0  0  0
  139.1710   78.1830  219.8426 H   0  0  0  0  0  0  0  0  0  0  0  0
  141.4216   76.4406  218.4536 H   0  0  0  0  0  0  0  0  0  0  0  0
  140.6908   77.7661  217.6544 H   0  0  0  0  0  0  0  0  0  0  0  0
  142.8468   78.3720  219.1597 H   0  0  0  0  0  0  0  0  0  0  0  0
  141.4928   79.3784  219.5530 H   0  0  0  0  0  0  0  0  0  0  0  0
  142.5723   76.9487  221.1378 H   0  0  0  0  0  0  0  0  0  0  0  0
  139.6956   78.0528  222.6381 H   0  0  0  0  0  0  0  0  0  0  0  0
  139.5280   79.8243  224.3364 H   0  0  0  0  0  0  0  0  0  0  0  0
  141.3748   81.5061  224.5990 H   0  0  0  0  0  0  0  0  0  0  0  0
  143.3476   81.2733  223.0640 H   0  0  0  0  0  0  0  0  0  0  0  0
  139.3246   69.7209  222.5072 H   0  0  0  0  0  0  0  0  0  0  0  0
  138.8642   68.3041  224.5017 H   0  0  0  0  0  0  0  0  0  0  0  0
  139.0573   68.0246  226.9067 H   0  0  0  0  0  0  0  0  0  0  0  0
  139.8271   68.8890  229.1239 H   0  0  0  0  0  0  0  0  0  0  0  0
  140.9832   71.0596  229.2574 H   0  0  0  0  0  0  0  0  0  0  0  0
  141.4026   72.4152  227.2083 H   0  0  0  0  0  0  0  0  0  0  0  0
  1  2  2  0
  2  3  1  0
  3  4  1  0
  4  5  1  0
  5  6  2  0
  5  7  1  0
  7  8  1  0
  8  9  1  0
  9 10  1  0
 10 11  1  0
 11 12  1  0
 12 13  2  0
 13 14  1  0
 14 15  2  0
 15 16  1  0
 16 17  2  0
  2 18  1  0
 18 19  2  0
 19 20  1  0
 20 21  2  0
 21 22  1  0
 22 23  2  0
 23 24  1  0
 24 25  2  0
 25 26  1  0
 26 27  2  0
 11  7  1  0
 17 12  1  0
 27 18  1  0
 26 21  1  0
  3 28  1  0
  4 29  1  0
  4 30  1  0
  8 31  1  0
  8 32  1  0
  9 33  1  0
  9 34  1  0
 10 35  1  0
 10 36  1  0
 11 37  1  1
 13 38  1  0
 14 39  1  0
 15 40  1  0
 16 41  1  0
 19 42  1  0
 20 43  1  0
 22 44  1  0
 23 45  1  0
 24 46  1  0
 25 47  1  0
M  END
>  <smiles>  (51) 
O=C(NCC(=O)N1CCCC1c1ccccn1)c1ccc2ccccc2n1

>  <score_type>  (51) 
oracle

>  <origin>  (51) 
autodockgpu

>  <m_score__min__energy>  (51) 
-8.7100000000000009

>  <m_primary>  (51) 
energy

>  <rmsd>  (51) 
2.294505808984629

>  <m_score__min__rmsd>  (51) 
2.294505808984629

>  <meeko>  (51) 
{"free_energy": -8.48, "intermolecular_energy": -9.97, "internal_energy": -1.72, "cluster_size": 32, "cluster_id": 2, "rank_in_cluster": 19}

>  <energy>  (51) 
-8.71

>  <cluster_rmsd>  (51) 
0.0

>  <cluster>  (51) 
1

$$$$

     RDKit          3D

 47 50  0  0  0  0  0  0  0  0999 V2000
  138.9590   71.0320  221.5630 O   0  0  0  0  0  0  0  0  0  0  0  0
  139.3480   71.5880  222.6210 C   0  0  0  0  0  0  0  0  0  0  0  0
  139.6090   72.9870  222.7180 N   0  0  0  0  0  0  0  0  0  0  0  0
  139.4230   73.8370  221.5400 C   0  0  0  0  0  0  0  0  0  0  0  0
  139.9390   75.1740  221.8050 C   0  0  0  0  0  0  0  0  0  0  0  0
  141.2030   75.2940  221.9640 O   0  0  0  0  0  0  0  0  0  0  0  0
  139.1880   76.3630  221.9090 N   0  0  0  0  0  0  0  0  0  0  0  0
  137.9420   76.4230  222.6950 C   0  0  0  0  0  0  0  0  0  0  0  0
  137.0920   77.1630  221.6400 C   0  0  0  0  0  0  0  0  0  0  0  0
  138.0150   78.3810  221.4850 C   0  0  0  0  0  0  0  0  0  0  0  0
  139.3730   77.6780  221.3590 C   0  0  1  0  0  0  0  0  0  0  0  0
  140.3190   78.5300  222.1270 C   0  0  0  0  0  0  0  0  0  0  0  0
  141.6780   78.5910  221.7880 C   0  0  0  0  0  0  0  0  0  0  0  0
  142.5650   79.3850  222.4870 C   0  0  0  0  0  0  0  0  0  0  0  0
  142.1360   80.1530  223.5520 C   0  0  0  0  0  0  0  0  0  0  0  0
  140.7780   80.0600  223.8510 C   0  0  0  0  0  0  0  0  0  0  0  0
  139.9390   79.2800  223.1560 N   0  0  0  0  0  0  0  0  0  0  0  0
  139.5450   70.7580  223.8260 C   0  0  0  0  0  0  0  0  0  0  0  0
  139.1710   69.4320  223.8270 C   0  0  0  0  0  0  0  0  0  0  0  0
  139.3430   68.6240  224.9390 C   0  0  0  0  0  0  0  0  0  0  0  0
  139.9070   69.1960  226.0640 C   0  0  0  0  0  0  0  0  0  0  0  0
  140.1050   68.4570  227.1990 C   0  0  0  0  0  0  0  0  0  0  0  0
  140.6780   69.0530  228.3240 C   0  0  0  0  0  0  0  0  0  0  0  0
  141.0360   70.3770  228.2810 C   0  0  0  0  0  0  0  0  0  0  0  0
  140.8450   71.1440  227.1430 C   0  0  0  0  0  0  0  0  0  0  0  0
  140.2740   70.5240  226.0410 C   0  0  0  0  0  0  0  0  0  0  0  0
  140.1000   71.2920  224.9510 N   0  0  0  0  0  0  0  0  0  0  0  0
  139.9290   73.3580  223.6380 H   0  0  0  0  0  0  0  0  0  0  0  0
  139.9628   73.4005  220.6867 H   0  0  0  0  0  0  0  0  0  0  0  0
  138.3499   73.9031  221.3076 H   0  0  0  0  0  0  0  0  0  0  0  0
  137.5446   75.4249  222.9313 H   0  0  0  0  0  0  0  0  0  0  0  0
  138.0083   76.8884  223.6895 H   0  0  0  0  0  0  0  0  0  0  0  0
  136.9877   76.5914  220.7060 H   0  0  0  0  0  0  0  0  0  0  0  0
  136.0440   77.3674  221.9044 H   0  0  0  0  0  0  0  0  0  0  0  0
  137.7727   78.9638  220.5841 H   0  0  0  0  0  0  0  0  0  0  0  0
  137.9498   79.1162  222.3006 H   0  0  0  0  0  0  0  0  0  0  0  0
  139.7656   77.5570  220.3386 H   0  0  0  0  0  0  0  0  0  0  0  0
  142.0470   77.9908  220.9433 H   0  0  0  0  0  0  0  0  0  0  0  0
  143.6247   79.4063  222.1927 H   0  0  0  0  0  0  0  0  0  0  0  0
  142.8205   80.7951  224.1258 H   0  0  0  0  0  0  0  0  0  0  0  0
  140.3796   80.6496  224.6898 H   0  0  0  0  0  0  0  0  0  0  0  0
  138.7230   69.0026  222.9188 H   0  0  0  0  0  0  0  0  0  0  0  0
  139.0418   67.5661  224.9272 H   0  0  0  0  0  0  0  0  0  0  0  0
  139.8135   67.3966  227.2247 H   0  0  0  0  0  0  0  0  0  0  0  0
  140.8415   68.4649  229.2391 H   0  0  0  0  0  0  0  0  0  0  0  0
  141.4855   70.8406  229.1715 H   0  0  0  0  0  0  0  0  0  0  0  0
  141.1352   72.2046  227.1144 H   0  0  0  0  0  0  0  0  0  0  0  0
  1  2  2  0
  2  3  1  0
  3  4  1  0
  4  5  1  0
  5  6  2  0
  5  7  1  0
  7  8  1  0
  8  9  1  0
  9 10  1  0
 10 11  1  0
 11 12  1  0
 12 13  2  0
 13 14  1  0
 14 15  2  0
 15 16  1  0
 16 17  2  0
  2 18  1  0
 18 19  2  0
 19 20  1  0
 20 21  2  0
 21 22  1  0
 22 23  2  0
 23 24  1  0
 24 25  2  0
 25 26  1  0
 26 27  2  0
 11  7  1  0
 17 12  1  0
 27 18  1  0
 26 21  1  0
  3 28  1  0
  4 29  1  0
  4 30  1  0
  8 31  1  0
  8 32  1  0
  9 33  1  0
  9 34  1  0
 10 35  1  0
 10 36  1  0
 11 37  1  6
 13 38  1  0
 14 39  1  0
 15 40  1  0
 16 41  1  0
 19 42  1  0
 20 43  1  0
 22 44  1  0
 23 45  1  0
 24 46  1  0
 25 47  1  0
M  END
>  <smiles>  (52) 
O=C(NCC(=O)N1CCCC1c1ccccn1)c1ccc2ccccc2n1

>  <score_type>  (52) 
oracle

>  <origin>  (52) 
autodockgpu

>  <m_score__min__energy>  (52) 
-8.7100000000000009

>  <m_primary>  (52) 
energy

>  <rmsd>  (52) 
2.7033754799517418

>  <m_score__min__rmsd>  (52) 
2.7033754799517418

>  <meeko>  (52) 
{"free_energy": -8.2, "intermolecular_energy": -9.69, "internal_energy": -1.59, "cluster_size": 32, "cluster_id": 2, "rank_in_cluster": 27}

>  <energy>  (52) 
-8.67

>  <cluster_rmsd>  (52) 
0.3

>  <cluster>  (52) 
1

$$$$

     RDKit          3D

 47 50  0  0  0  0  0  0  0  0999 V2000
  141.3620   71.8530  221.5590 O   0  0  0  0  0  0  0  0  0  0  0  0
  140.5930   72.3180  222.4380 C   0  0  0  0  0  0  0  0  0  0  0  0
  139.9860   73.6050  222.3450 N   0  0  0  0  0  0  0  0  0  0  0  0
  140.2590   74.4460  221.1780 C   0  0  0  0  0  0  0  0  0  0  0  0
  139.9230   75.8330  221.4740 C   0  0  0  0  0  0  0  0  0  0  0  0
  139.1680   76.0500  222.4840 O   0  0  0  0  0  0  0  0  0  0  0  0
  140.3430   76.9740  220.7590 N   0  0  0  0  0  0  0  0  0  0  0  0
  139.4380   77.6830  219.8350 C   0  0  0  0  0  0  0  0  0  0  0  0
  140.4340   77.8160  218.6650 C   0  0  0  0  0  0  0  0  0  0  0  0
  141.5350   78.5490  219.4460 C   0  0  0  0  0  0  0  0  0  0  0  0
  141.5920   77.6830  220.7120 C   0  0  1  0  0  0  0  0  0  0  0  0
  141.7870   78.6460  221.8270 C   0  0  0  0  0  0  0  0  0  0  0  0
  142.2020   79.9630  221.5840 C   0  0  0  0  0  0  0  0  0  0  0  0
  142.3770   80.8690  222.6110 C   0  0  0  0  0  0  0  0  0  0  0  0
  142.1460   80.5040  223.9220 C   0  0  0  0  0  0  0  0  0  0  0  0
  141.7350   79.1850  224.1150 C   0  0  0  0  0  0  0  0  0  0  0  0
  141.5740   78.3260  223.1000 N   0  0  0  0  0  0  0  0  0  0  0  0
  140.3000   71.4940  223.6270 C   0  0  0  0  0  0  0  0  0  0  0  0
  139.6120   70.3070  223.5000 C   0  0  0  0  0  0  0  0  0  0  0  0
  139.3200   69.5090  224.5940 C   0  0  0  0  0  0  0  0  0  0  0  0
  139.7440   69.9460  225.8350 C   0  0  0  0  0  0  0  0  0  0  0  0
  139.4900   69.2090  226.9600 C   0  0  0  0  0  0  0  0  0  0  0  0
  139.9270   69.6670  228.2050 C   0  0  0  0  0  0  0  0  0  0  0  0
  140.6090   70.8550  228.2870 C   0  0  0  0  0  0  0  0  0  0  0  0
  140.8770   71.6170  227.1620 C   0  0  0  0  0  0  0  0  0  0  0  0
  140.4300   71.1370  225.9400 C   0  0  0  0  0  0  0  0  0  0  0  0
  140.7040   71.8970  224.8660 N   0  0  0  0  0  0  0  0  0  0  0  0
  139.3630   73.9050  223.1250 H   0  0  0  0  0  0  0  0  0  0  0  0
  141.3262   74.3766  220.9205 H   0  0  0  0  0  0  0  0  0  0  0  0
  139.6479   74.0990  220.3317 H   0  0  0  0  0  0  0  0  0  0  0  0
  138.5539   77.0847  219.5696 H   0  0  0  0  0  0  0  0  0  0  0  0
  138.9856   78.6146  220.2058 H   0  0  0  0  0  0  0  0  0  0  0  0
  140.7672   76.8402  218.2818 H   0  0  0  0  0  0  0  0  0  0  0  0
  140.0632   78.3081  217.7537 H   0  0  0  0  0  0  0  0  0  0  0  0
  142.4923   78.5422  218.9042 H   0  0  0  0  0  0  0  0  0  0  0  0
  141.3407   79.6167  219.6255 H   0  0  0  0  0  0  0  0  0  0  0  0
  142.3979   76.9356  220.7555 H   0  0  0  0  0  0  0  0  0  0  0  0
  142.3930   80.2825  220.5489 H   0  0  0  0  0  0  0  0  0  0  0  0
  142.7044   81.8938  222.3818 H   0  0  0  0  0  0  0  0  0  0  0  0
  142.2772   81.2062  224.7585 H   0  0  0  0  0  0  0  0  0  0  0  0
  141.5356   78.8373  225.1394 H   0  0  0  0  0  0  0  0  0  0  0  0
  139.2851   69.9836  222.5007 H   0  0  0  0  0  0  0  0  0  0  0  0
  138.7711   68.5627  224.4794 H   0  0  0  0  0  0  0  0  0  0  0  0
  138.9428   68.2578  226.8838 H   0  0  0  0  0  0  0  0  0  0  0  0
  139.7260   69.0797  229.1131 H   0  0  0  0  0  0  0  0  0  0  0  0
  140.9511   71.2107  229.2701 H   0  0  0  0  0  0  0  0  0  0  0  0
  141.4245   72.5683  227.2350 H   0  0  0  0  0  0  0  0  0  0  0  0
  1  2  2  0
  2  3  1  0
  3  4  1  0
  4  5  1  0
  5  6  2  0
  5  7  1  0
  7  8  1  0
  8  9  1  0
  9 10  1  0
 10 11  1  0
 11 12  1  0
 12 13  2  0
 13 14  1  0
 14 15  2  0
 15 16  1  0
 16 17  2  0
  2 18  1  0
 18 19  2  0
 19 20  1  0
 20 21  2  0
 21 22  1  0
 22 23  2  0
 23 24  1  0
 24 25  2  0
 25 26  1  0
 26 27  2  0
 11  7  1  0
 17 12  1  0
 27 18  1  0
 26 21  1  0
  3 28  1  0
  4 29  1  0
  4 30  1  0
  8 31  1  0
  8 32  1  0
  9 33  1  0
  9 34  1  0
 10 35  1  0
 10 36  1  0
 11 37  1  6
 13 38  1  0
 14 39  1  0
 15 40  1  0
 16 41  1  0
 19 42  1  0
 20 43  1  0
 22 44  1  0
 23 45  1  0
 24 46  1  0
 25 47  1  0
M  END
>  <smiles>  (53) 
O=C(NCC(=O)N1CCCC1c1ccccn1)c1ccc2ccccc2n1

>  <score_type>  (53) 
oracle

>  <origin>  (53) 
autodockgpu

>  <m_score__min__energy>  (53) 
-8.7100000000000009

>  <m_primary>  (53) 
energy

>  <rmsd>  (53) 
2.0703707585384055

>  <m_score__min__rmsd>  (53) 
2.0703707585384055

>  <meeko>  (53) 
{"free_energy": -8.53, "intermolecular_energy": -10.03, "internal_energy": -1.76, "cluster_size": 32, "cluster_id": 2, "rank_in_cluster": 16}

>  <energy>  (53) 
-8.67

>  <cluster_rmsd>  (53) 
0.58

>  <cluster>  (53) 
1

$$$$

     RDKit          3D

 47 50  0  0  0  0  0  0  0  0999 V2000
  141.3760   72.3740  221.8850 O   0  0  0  0  0  0  0  0  0  0  0  0
  140.3420   72.4540  222.5950 C   0  0  0  0  0  0  0  0  0  0  0  0
  139.2940   73.3890  222.3460 N   0  0  0  0  0  0  0  0  0  0  0  0
  139.4080   74.3130  221.2160 C   0  0  0  0  0  0  0  0  0  0  0  0
  140.0260   75.5580  221.6530 C   0  0  0  0  0  0  0  0  0  0  0  0
  141.2780   75.5320  221.9120 O   0  0  0  0  0  0  0  0  0  0  0  0
  139.3850   76.8040  221.8250 N   0  0  0  0  0  0  0  0  0  0  0  0
  138.2210   76.9560  222.7160 C   0  0  0  0  0  0  0  0  0  0  0  0
  137.3460   77.7720  221.7410 C   0  0  0  0  0  0  0  0  0  0  0  0
  138.3470   78.9130  221.5090 C   0  0  0  0  0  0  0  0  0  0  0  0
  139.6280   78.1050  221.2640 C   0  0  1  0  0  0  0  0  0  0  0  0
  140.7030   78.8700  221.9480 C   0  0  0  0  0  0  0  0  0  0  0  0
  141.1980   78.4670  223.1960 C   0  0  0  0  0  0  0  0  0  0  0  0
  142.2020   79.1640  223.8380 C   0  0  0  0  0  0  0  0  0  0  0  0
  142.7560   80.2910  223.2640 C   0  0  0  0  0  0  0  0  0  0  0  0
  142.2330   80.6530  222.0240 C   0  0  0  0  0  0  0  0  0  0  0  0
  141.2570   79.9590  221.4230 N   0  0  0  0  0  0  0  0  0  0  0  0
  140.1980   71.5360  223.7420 C   0  0  0  0  0  0  0  0  0  0  0  0
  139.5730   70.3180  223.5860 C   0  0  0  0  0  0  0  0  0  0  0  0
  139.4220   69.4320  224.6400 C   0  0  0  0  0  0  0  0  0  0  0  0
  139.9230   69.8110  225.8710 C   0  0  0  0  0  0  0  0  0  0  0  0
  139.8090   68.9870  226.9570 C   0  0  0  0  0  0  0  0  0  0  0  0
  140.3230   69.3880  228.1920 C   0  0  0  0  0  0  0  0  0  0  0  0
  140.9390   70.6090  228.3040 C   0  0  0  0  0  0  0  0  0  0  0  0
  141.0660   71.4600  227.2180 C   0  0  0  0  0  0  0  0  0  0  0  0
  140.5460   71.0340  226.0050 C   0  0  0  0  0  0  0  0  0  0  0  0
  140.6830   71.8800  224.9690 N   0  0  0  0  0  0  0  0  0  0  0  0
  138.4740   73.3800  222.9900 H   0  0  0  0  0  0  0  0  0  0  0  0
  140.0273   73.8544  220.4311 H   0  0  0  0  0  0  0  0  0  0  0  0
  138.4040   74.5267  220.8206 H   0  0  0  0  0  0  0  0  0  0  0  0
  137.7661   75.9907  222.9831 H   0  0  0  0  0  0  0  0  0  0  0  0
  138.4102   77.4047  223.7023 H   0  0  0  0  0  0  0  0  0  0  0  0
  137.1153   77.2195  220.8182 H   0  0  0  0  0  0  0  0  0  0  0  0
  136.3449   78.0576  222.0964 H   0  0  0  0  0  0  0  0  0  0  0  0
  138.0755   79.5215  220.6338 H   0  0  0  0  0  0  0  0  0  0  0  0
  138.4120   79.6435  222.3289 H   0  0  0  0  0  0  0  0  0  0  0  0
  139.9200   77.9632  220.2130 H   0  0  0  0  0  0  0  0  0  0  0  0
  140.7755   77.5721  223.6763 H   0  0  0  0  0  0  0  0  0  0  0  0
  142.5644   78.8178  224.8172 H   0  0  0  0  0  0  0  0  0  0  0  0
  143.5569   80.8650  223.7530 H   0  0  0  0  0  0  0  0  0  0  0  0
  142.6370   81.5429  221.5191 H   0  0  0  0  0  0  0  0  0  0  0  0
  139.1826   70.0411  222.5956 H   0  0  0  0  0  0  0  0  0  0  0  0
  138.9216   68.4621  224.5022 H   0  0  0  0  0  0  0  0  0  0  0  0
  139.3133   68.0101  226.8576 H   0  0  0  0  0  0  0  0  0  0  0  0
  140.2347   68.7297  229.0688 H   0  0  0  0  0  0  0  0  0  0  0  0
  141.3416   70.9197  229.2794 H   0  0  0  0  0  0  0  0  0  0  0  0
  141.5611   72.4376  227.3144 H   0  0  0  0  0  0  0  0  0  0  0  0
  1  2  2  0
  2  3  1  0
  3  4  1  0
  4  5  1  0
  5  6  2  0
  5  7  1  0
  7  8  1  0
  8  9  1  0
  9 10  1  0
 10 11  1  0
 11 12  1  0
 12 13  2  0
 13 14  1  0
 14 15  2  0
 15 16  1  0
 16 17  2  0
  2 18  1  0
 18 19  2  0
 19 20  1  0
 20 21  2  0
 21 22  1  0
 22 23  2  0
 23 24  1  0
 24 25  2  0
 25 26  1  0
 26 27  2  0
 11  7  1  0
 17 12  1  0
 27 18  1  0
 26 21  1  0
  3 28  1  0
  4 29  1  0
  4 30  1  0
  8 31  1  0
  8 32  1  0
  9 33  1  0
  9 34  1  0
 10 35  1  0
 10 36  1  0
 11 37  1  6
 13 38  1  0
 14 39  1  0
 15 40  1  0
 16 41  1  0
 19 42  1  0
 20 43  1  0
 22 44  1  0
 23 45  1  0
 24 46  1  0
 25 47  1  0
M  END
>  <smiles>  (54) 
O=C(NCC(=O)N1CCCC1c1ccccn1)c1ccc2ccccc2n1

>  <score_type>  (54) 
oracle

>  <origin>  (54) 
autodockgpu

>  <m_score__min__energy>  (54) 
-8.7100000000000009

>  <m_primary>  (54) 
energy

>  <rmsd>  (54) 
3.037345386102817

>  <m_score__min__rmsd>  (54) 
3.037345386102817

>  <meeko>  (54) 
{"free_energy": -8.67, "intermolecular_energy": -10.16, "internal_energy": -1.21, "cluster_size": 32, "cluster_id": 2, "rank_in_cluster": 1}

>  <energy>  (54) 
-8.58

>  <cluster_rmsd>  (54) 
0.53

>  <cluster>  (54) 
1

$$$$

     RDKit          3D

 47 50  0  0  0  0  0  0  0  0999 V2000
  137.2510   76.1910  222.4180 O   0  0  0  0  0  0  0  0  0  0  0  0
  138.5040   76.2850  222.4520 C   0  0  0  0  0  0  0  0  0  0  0  0
  139.3780   75.1780  222.2360 N   0  0  0  0  0  0  0  0  0  0  0  0
  138.8100   73.8570  221.9630 C   0  0  0  0  0  0  0  0  0  0  0  0
  139.7660   72.8190  222.3270 C   0  0  0  0  0  0  0  0  0  0  0  0
  141.0050   73.1400  222.3370 O   0  0  0  0  0  0  0  0  0  0  0  0
  139.4720   71.4830  222.6710 N   0  0  0  0  0  0  0  0  0  0  0  0
  139.9270   70.3530  221.8400 C   0  0  0  0  0  0  0  0  0  0  0  0
  138.5880   69.5880  221.8160 C   0  0  0  0  0  0  0  0  0  0  0  0
  138.4220   69.4630  223.3380 C   0  0  0  0  0  0  0  0  0  0  0  0
  138.7430   70.9020  223.7650 C   0  0  1  0  0  0  0  0  0  0  0  0
  139.5330   70.7640  225.0170 C   0  0  0  0  0  0  0  0  0  0  0  0
  140.6170   71.6100  225.2860 C   0  0  0  0  0  0  0  0  0  0  0  0
  141.3530   71.4980  226.4490 C   0  0  0  0  0  0  0  0  0  0  0  0
  141.0400   70.5400  227.3930 C   0  0  0  0  0  0  0  0  0  0  0  0
  139.9540   69.7220  227.0820 C   0  0  0  0  0  0  0  0  0  0  0  0
  139.2580   69.8520  225.9450 N   0  0  0  0  0  0  0  0  0  0  0  0
  139.1070   77.6040  222.7260 C   0  0  0  0  0  0  0  0  0  0  0  0
  138.3070   78.6990  222.9690 C   0  0  0  0  0  0  0  0  0  0  0  0
  138.8390   79.9510  223.2300 C   0  0  0  0  0  0  0  0  0  0  0  0
  140.2160   80.0720  223.2390 C   0  0  0  0  0  0  0  0  0  0  0  0
  140.8100   81.2790  223.4890 C   0  0  0  0  0  0  0  0  0  0  0  0
  142.2030   81.3800  223.4940 C   0  0  0  0  0  0  0  0  0  0  0  0
  142.9630   80.2650  223.2460 C   0  0  0  0  0  0  0  0  0  0  0  0
  142.3830   79.0330  222.9910 C   0  0  0  0  0  0  0  0  0  0  0  0
  140.9980   78.9640  222.9930 C   0  0  0  0  0  0  0  0  0  0  0  0
  140.4620   77.7570  222.7410 N   0  0  0  0  0  0  0  0  0  0  0  0
  140.4040   75.3540  222.2840 H   0  0  0  0  0  0  0  0  0  0  0  0
  137.8897   73.7274  222.5515 H   0  0  0  0  0  0  0  0  0  0  0  0
  138.5808   73.7770  220.8901 H   0  0  0  0  0  0  0  0  0  0  0  0
  140.2485   70.6705  220.8371 H   0  0  0  0  0  0  0  0  0  0  0  0
  140.8053   69.7979  222.2012 H   0  0  0  0  0  0  0  0  0  0  0  0
  137.7787   70.1693  221.3500 H   0  0  0  0  0  0  0  0  0  0  0  0
  138.5638   68.6525  221.2379 H   0  0  0  0  0  0  0  0  0  0  0  0
  137.3967   69.1752  223.6138 H   0  0  0  0  0  0  0  0  0  0  0  0
  139.0487   68.6912  223.8088 H   0  0  0  0  0  0  0  0  0  0  0  0
  137.8804   71.5531  223.9702 H   0  0  0  0  0  0  0  0  0  0  0  0
  140.8887   72.3830  224.5521 H   0  0  0  0  0  0  0  0  0  0  0  0
  142.1982   72.1796  226.6255 H   0  0  0  0  0  0  0  0  0  0  0  0
  141.6091   70.4294  228.3278 H   0  0  0  0  0  0  0  0  0  0  0  0
  139.6579   68.9407  227.7974 H   0  0  0  0  0  0  0  0  0  0  0  0
  137.2141   78.5754  222.9553 H   0  0  0  0  0  0  0  0  0  0  0  0
  138.1894   80.8174  223.4231 H   0  0  0  0  0  0  0  0  0  0  0  0
  140.1920   82.1675  223.6855 H   0  0  0  0  0  0  0  0  0  0  0  0
  142.6874   82.3468  223.6954 H   0  0  0  0  0  0  0  0  0  0  0  0
  144.0596   80.3514  223.2497 H   0  0  0  0  0  0  0  0  0  0  0  0
  142.9982   78.1426  222.7943 H   0  0  0  0  0  0  0  0  0  0  0  0
  1  2  2  0
  2  3  1  0
  3  4  1  0
  4  5  1  0
  5  6  2  0
  5  7  1  0
  7  8  1  0
  8  9  1  0
  9 10  1  0
 10 11  1  0
 11 12  1  0
 12 13  2  0
 13 14  1  0
 14 15  2  0
 15 16  1  0
 16 17  2  0
  2 18  1  0
 18 19  2  0
 19 20  1  0
 20 21  2  0
 21 22  1  0
 22 23  2  0
 23 24  1  0
 24 25  2  0
 25 26  1  0
 26 27  2  0
 11  7  1  0
 17 12  1  0
 27 18  1  0
 26 21  1  0
  3 28  1  0
  4 29  1  0
  4 30  1  0
  8 31  1  0
  8 32  1  0
  9 33  1  0
  9 34  1  0
 10 35  1  0
 10 36  1  0
 11 37  1  1
 13 38  1  0
 14 39  1  0
 15 40  1  0
 16 41  1  0
 19 42  1  0
 20 43  1  0
 22 44  1  0
 23 45  1  0
 24 46  1  0
 25 47  1  0
M  END
>  <smiles>  (55) 
O=C(NCC(=O)N1CCCC1c1ccccn1)c1ccc2ccccc2n1

>  <score_type>  (55) 
oracle

>  <origin>  (55) 
autodockgpu

>  <m_score__min__energy>  (55) 
-8.7100000000000009

>  <m_primary>  (55) 
energy

>  <rmsd>  (55) 
8.99311567901061

>  <m_score__min__rmsd>  (55) 
8.99311567901061

>  <meeko>  (55) 
{"free_energy": -7.84, "intermolecular_energy": -9.33, "internal_energy": -2.01, "cluster_size": 1, "cluster_id": 3, "rank_in_cluster": 1}

>  <energy>  (55) 
-8.57

>  <cluster_rmsd>  (55) 
0.16

>  <cluster>  (55) 
1

$$$$

     RDKit          3D

 47 50  0  0  0  0  0  0  0  0999 V2000
  141.4530   71.9250  221.6010 O   0  0  0  0  0  0  0  0  0  0  0  0
  140.6230   72.3330  222.4520 C   0  0  0  0  0  0  0  0  0  0  0  0
  139.9450   73.5830  222.3460 N   0  0  0  0  0  0  0  0  0  0  0  0
  140.2150   74.4520  221.1990 C   0  0  0  0  0  0  0  0  0  0  0  0
  139.8120   75.8190  221.5050 C   0  0  0  0  0  0  0  0  0  0  0  0
  139.0520   75.9930  222.5190 O   0  0  0  0  0  0  0  0  0  0  0  0
  140.1730   76.9840  220.7950 N   0  0  0  0  0  0  0  0  0  0  0  0
  139.1940   77.7220  219.9760 C   0  0  0  0  0  0  0  0  0  0  0  0
  140.0880   77.8960  218.7300 C   0  0  0  0  0  0  0  0  0  0  0  0
  141.2530   78.6020  219.4390 C   0  0  0  0  0  0  0  0  0  0  0  0
  141.4150   77.6950  220.6650 C   0  0  1  0  0  0  0  0  0  0  0  0
  141.7060   78.6200  221.7920 C   0  0  0  0  0  0  0  0  0  0  0  0
  142.1890   79.9150  221.5600 C   0  0  0  0  0  0  0  0  0  0  0  0
  142.4540   80.7870  222.5970 C   0  0  0  0  0  0  0  0  0  0  0  0
  142.2500   80.4070  223.9080 C   0  0  0  0  0  0  0  0  0  0  0  0
  141.7690   79.1100  224.0900 C   0  0  0  0  0  0  0  0  0  0  0  0
  141.5210   78.2850  223.0650 N   0  0  0  0  0  0  0  0  0  0  0  0
  140.3300   71.4790  223.6200 C   0  0  0  0  0  0  0  0  0  0  0  0
  139.6550   70.2880  223.4620 C   0  0  0  0  0  0  0  0  0  0  0  0
  139.3640   69.4630  224.5360 C   0  0  0  0  0  0  0  0  0  0  0  0
  139.7770   69.8750  225.7890 C   0  0  0  0  0  0  0  0  0  0  0  0
  139.5240   69.1100  226.8940 C   0  0  0  0  0  0  0  0  0  0  0  0
  139.9500   69.5430  228.1520 C   0  0  0  0  0  0  0  0  0  0  0  0
  140.6200   70.7350  228.2660 C   0  0  0  0  0  0  0  0  0  0  0  0
  140.8880   71.5250  227.1600 C   0  0  0  0  0  0  0  0  0  0  0  0
  140.4520   71.0690  225.9250 C   0  0  0  0  0  0  0  0  0  0  0  0
  140.7250   71.8560  224.8700 N   0  0  0  0  0  0  0  0  0  0  0  0
  139.2740   73.8360  223.1020 H   0  0  0  0  0  0  0  0  0  0  0  0
  141.2910   74.4315  220.9715 H   0  0  0  0  0  0  0  0  0  0  0  0
  139.6437   74.0924  220.3305 H   0  0  0  0  0  0  0  0  0  0  0  0
  138.2898   77.1316  219.7665 H   0  0  0  0  0  0  0  0  0  0  0  0
  138.7758   78.6398  220.4150 H   0  0  0  0  0  0  0  0  0  0  0  0
  140.3850   76.9342  218.2865 H   0  0  0  0  0  0  0  0  0  0  0  0
  139.6423   78.4192  217.8711 H   0  0  0  0  0  0  0  0  0  0  0  0
  142.1609   78.6135  218.8180 H   0  0  0  0  0  0  0  0  0  0  0  0
  141.0773   79.6630  219.6702 H   0  0  0  0  0  0  0  0  0  0  0  0
  142.2203   76.9474  220.6139 H   0  0  0  0  0  0  0  0  0  0  0  0
  142.3614   80.2452  220.5250 H   0  0  0  0  0  0  0  0  0  0  0  0
  142.8320   81.7961  222.3758 H   0  0  0  0  0  0  0  0  0  0  0  0
  142.4530   81.0815  224.7529 H   0  0  0  0  0  0  0  0  0  0  0  0
  141.5867   78.7518  225.1139 H   0  0  0  0  0  0  0  0  0  0  0  0
  139.3380   69.9836  222.4536 H   0  0  0  0  0  0  0  0  0  0  0  0
  138.8241   68.5148  224.3968 H   0  0  0  0  0  0  0  0  0  0  0  0
  138.9862   68.1558  226.7924 H   0  0  0  0  0  0  0  0  0  0  0  0
  139.7497   68.9326  229.0449 H   0  0  0  0  0  0  0  0  0  0  0  0
  140.9522   71.0713  229.2592 H   0  0  0  0  0  0  0  0  0  0  0  0
  141.4269   72.4790  227.2578 H   0  0  0  0  0  0  0  0  0  0  0  0
  1  2  2  0
  2  3  1  0
  3  4  1  0
  4  5  1  0
  5  6  2  0
  5  7  1  0
  7  8  1  0
  8  9  1  0
  9 10  1  0
 10 11  1  0
 11 12  1  0
 12 13  2  0
 13 14  1  0
 14 15  2  0
 15 16  1  0
 16 17  2  0
  2 18  1  0
 18 19  2  0
 19 20  1  0
 20 21  2  0
 21 22  1  0
 22 23  2  0
 23 24  1  0
 24 25  2  0
 25 26  1  0
 26 27  2  0
 11  7  1  0
 17 12  1  0
 27 18  1  0
 26 21  1  0
  3 28  1  0
  4 29  1  0
  4 30  1  0
  8 31  1  0
  8 32  1  0
  9 33  1  0
  9 34  1  0
 10 35  1  0
 10 36  1  0
 11 37  1  6
 13 38  1  0
 14 39  1  0
 15 40  1  0
 16 41  1  0
 19 42  1  0
 20 43  1  0
 22 44  1  0
 23 45  1  0
 24 46  1  0
 25 47  1  0
M  END
>  <smiles>  (56) 
O=C(NCC(=O)N1CCCC1c1ccccn1)c1ccc2ccccc2n1

>  <score_type>  (56) 
oracle

>  <origin>  (56) 
autodockgpu

>  <m_score__min__energy>  (56) 
-8.7100000000000009

>  <m_primary>  (56) 
energy

>  <rmsd>  (56) 
2.0730420170645063

>  <m_score__min__rmsd>  (56) 
2.0730420170645063

>  <meeko>  (56) 
{"free_energy": -8.49, "intermolecular_energy": -9.99, "internal_energy": -1.75, "cluster_size": 32, "cluster_id": 2, "rank_in_cluster": 18}

>  <energy>  (56) 
-8.52

>  <cluster_rmsd>  (56) 
0.59

>  <cluster>  (56) 
1

$$$$

     RDKit          3D

 47 50  0  0  0  0  0  0  0  0999 V2000
  140.5550   71.3990  221.3520 O   0  0  0  0  0  0  0  0  0  0  0  0
  140.1880   71.9920  222.3980 C   0  0  0  0  0  0  0  0  0  0  0  0
  139.8740   73.3830  222.4380 N   0  0  0  0  0  0  0  0  0  0  0  0
  139.9770   74.1800  221.2140 C   0  0  0  0  0  0  0  0  0  0  0  0
  140.0210   75.5980  221.5460 C   0  0  0  0  0  0  0  0  0  0  0  0
  139.5890   75.9440  222.6990 O   0  0  0  0  0  0  0  0  0  0  0  0
  140.4900   76.6430  220.7220 N   0  0  0  0  0  0  0  0  0  0  0  0
  139.6880   77.1590  219.5970 C   0  0  0  0  0  0  0  0  0  0  0  0
  140.8230   77.1740  218.5520 C   0  0  0  0  0  0  0  0  0  0  0  0
  141.7870   78.0710  219.3420 C   0  0  0  0  0  0  0  0  0  0  0  0
  141.7090   77.4050  220.7220 C   0  0  1  0  0  0  0  0  0  0  0  0
  141.7230   78.5300  221.6940 C   0  0  0  0  0  0  0  0  0  0  0  0
  141.4610   78.3150  223.0540 C   0  0  0  0  0  0  0  0  0  0  0  0
  141.4800   79.3500  223.9680 C   0  0  0  0  0  0  0  0  0  0  0  0
  141.7610   80.6410  223.5670 C   0  0  0  0  0  0  0  0  0  0  0  0
  142.0160   80.8050  222.2060 C   0  0  0  0  0  0  0  0  0  0  0  0
  141.9900   79.7830  221.3400 N   0  0  0  0  0  0  0  0  0  0  0  0
  140.0750   71.2170  223.6480 C   0  0  0  0  0  0  0  0  0  0  0  0
  139.5670   69.9360  223.6300 C   0  0  0  0  0  0  0  0  0  0  0  0
  139.4470   69.1800  224.7840 C   0  0  0  0  0  0  0  0  0  0  0  0
  139.8570   69.7550  225.9720 C   0  0  0  0  0  0  0  0  0  0  0  0
  139.7670   69.0660  227.1510 C   0  0  0  0  0  0  0  0  0  0  0  0
  140.1870   69.6660  228.3400 C   0  0  0  0  0  0  0  0  0  0  0  0
  140.6870   70.9430  228.3140 C   0  0  0  0  0  0  0  0  0  0  0  0
  140.7880   71.6590  227.1320 C   0  0  0  0  0  0  0  0  0  0  0  0
  140.3630   71.0380  225.9670 C   0  0  0  0  0  0  0  0  0  0  0  0
  140.4710   71.7560  224.8370 N   0  0  0  0  0  0  0  0  0  0  0  0
  139.5790   73.7870  223.3530 H   0  0  0  0  0  0  0  0  0  0  0  0
  140.8951   73.9032  220.6751 H   0  0  0  0  0  0  0  0  0  0  0  0
  139.0995   73.9842  220.5802 H   0  0  0  0  0  0  0  0  0  0  0  0
  138.8678   76.4810  219.3184 H   0  0  0  0  0  0  0  0  0  0  0  0
  139.1581   78.1085  219.7635 H   0  0  0  0  0  0  0  0  0  0  0  0
  141.2370   76.1722  218.3650 H   0  0  0  0  0  0  0  0  0  0  0  0
  140.5566   77.5077  217.5383 H   0  0  0  0  0  0  0  0  0  0  0  0
  142.8063   78.0359  218.9298 H   0  0  0  0  0  0  0  0  0  0  0  0
  141.5342   79.1415  219.3315 H   0  0  0  0  0  0  0  0  0  0  0  0
  142.5287   76.7175  220.9777 H   0  0  0  0  0  0  0  0  0  0  0  0
  141.2346   77.2964  223.4020 H   0  0  0  0  0  0  0  0  0  0  0  0
  141.2688   79.1436  225.0276 H   0  0  0  0  0  0  0  0  0  0  0  0
  141.7823   81.4836  224.2738 H   0  0  0  0  0  0  0  0  0  0  0  0
  142.2474   81.8121  221.8288 H   0  0  0  0  0  0  0  0  0  0  0  0
  139.2476   69.5015  222.6712 H   0  0  0  0  0  0  0  0  0  0  0  0
  139.0400   68.1585  224.7561 H   0  0  0  0  0  0  0  0  0  0  0  0
  139.3649   68.0422  227.1621 H   0  0  0  0  0  0  0  0  0  0  0  0
  140.1173   69.1181  229.2913 H   0  0  0  0  0  0  0  0  0  0  0  0
  141.0157   71.4100  229.2542 H   0  0  0  0  0  0  0  0  0  0  0  0
  141.1906   72.6826  227.1182 H   0  0  0  0  0  0  0  0  0  0  0  0
  1  2  2  0
  2  3  1  0
  3  4  1  0
  4  5  1  0
  5  6  2  0
  5  7  1  0
  7  8  1  0
  8  9  1  0
  9 10  1  0
 10 11  1  0
 11 12  1  0
 12 13  2  0
 13 14  1  0
 14 15  2  0
 15 16  1  0
 16 17  2  0
  2 18  1  0
 18 19  2  0
 19 20  1  0
 20 21  2  0
 21 22  1  0
 22 23  2  0
 23 24  1  0
 24 25  2  0
 25 26  1  0
 26 27  2  0
 11  7  1  0
 17 12  1  0
 27 18  1  0
 26 21  1  0
  3 28  1  0
  4 29  1  0
  4 30  1  0
  8 31  1  0
  8 32  1  0
  9 33  1  0
  9 34  1  0
 10 35  1  0
 10 36  1  0
 11 37  1  1
 13 38  1  0
 14 39  1  0
 15 40  1  0
 16 41  1  0
 19 42  1  0
 20 43  1  0
 22 44  1  0
 23 45  1  0
 24 46  1  0
 25 47  1  0
M  END
>  <smiles>  (57) 
O=C(NCC(=O)N1CCCC1c1ccccn1)c1ccc2ccccc2n1

>  <score_type>  (57) 
oracle

>  <origin>  (57) 
autodockgpu

>  <m_score__min__energy>  (57) 
-8.7100000000000009

>  <m_primary>  (57) 
energy

>  <rmsd>  (57) 
2.318729697739785

>  <m_score__min__rmsd>  (57) 
2.318729697739785

>  <meeko>  (57) 
{"free_energy": -8.5, "intermolecular_energy": -9.99, "internal_energy": -1.86, "cluster_size": 32, "cluster_id": 2, "rank_in_cluster": 17}

>  <energy>  (57) 
-8.4

>  <cluster_rmsd>  (57) 
0.64

>  <cluster>  (57) 
1

$$$$

     RDKit          3D

 47 50  0  0  0  0  0  0  0  0999 V2000
  139.5020   71.0070  221.3240 O   0  0  0  0  0  0  0  0  0  0  0  0
  139.5850   71.7270  222.3510 C   0  0  0  0  0  0  0  0  0  0  0  0
  139.4580   73.1480  222.3210 N   0  0  0  0  0  0  0  0  0  0  0  0
  139.2190   73.8220  221.0440 C   0  0  0  0  0  0  0  0  0  0  0  0
  139.4460   75.2540  221.1880 C   0  0  0  0  0  0  0  0  0  0  0  0
  138.4580   75.9690  221.5740 O   0  0  0  0  0  0  0  0  0  0  0  0
  140.6510   75.9470  220.9440 N   0  0  0  0  0  0  0  0  0  0  0  0
  141.0900   77.0610  221.8040 C   0  0  0  0  0  0  0  0  0  0  0  0
  141.4680   78.0350  220.6680 C   0  0  0  0  0  0  0  0  0  0  0  0
  142.4700   77.1100  219.9620 C   0  0  0  0  0  0  0  0  0  0  0  0
  141.6620   75.8060  219.9310 C   0  0  1  0  0  0  0  0  0  0  0  0
  142.6520   74.7330  220.2070 C   0  0  0  0  0  0  0  0  0  0  0  0
  144.0300   74.9810  220.1320 C   0  0  0  0  0  0  0  0  0  0  0  0
  144.9600   73.9950  220.3950 C   0  0  0  0  0  0  0  0  0  0  0  0
  144.5580   72.7210  220.7440 C   0  0  0  0  0  0  0  0  0  0  0  0
  143.1800   72.5210  220.8060 C   0  0  0  0  0  0  0  0  0  0  0  0
  142.2990   73.4960  220.5450 N   0  0  0  0  0  0  0  0  0  0  0  0
  139.8250   71.0760  223.6530 C   0  0  0  0  0  0  0  0  0  0  0  0
  139.5530   69.7360  223.8240 C   0  0  0  0  0  0  0  0  0  0  0  0
  139.7670   69.0940  225.0320 C   0  0  0  0  0  0  0  0  0  0  0  0
  140.2680   69.8470  226.0770 C   0  0  0  0  0  0  0  0  0  0  0  0
  140.5030   69.2780  227.2990 C   0  0  0  0  0  0  0  0  0  0  0  0
  141.0110   70.0560  228.3420 C   0  0  0  0  0  0  0  0  0  0  0  0
  141.2680   71.3870  228.1300 C   0  0  0  0  0  0  0  0  0  0  0  0
  141.0380   71.9840  226.9010 C   0  0  0  0  0  0  0  0  0  0  0  0
  140.5340   71.1860  225.8850 C   0  0  0  0  0  0  0  0  0  0  0  0
  140.3200   71.7920  224.7040 N   0  0  0  0  0  0  0  0  0  0  0  0
  139.5420   73.6610  223.2250 H   0  0  0  0  0  0  0  0  0  0  0  0
  139.9052   73.4186  220.2848 H   0  0  0  0  0  0  0  0  0  0  0  0
  138.1778   73.6502  220.7335 H   0  0  0  0  0  0  0  0  0  0  0  0
  140.2790   77.4482  222.4384 H   0  0  0  0  0  0  0  0  0  0  0  0
  141.8744   76.8352  222.5414 H   0  0  0  0  0  0  0  0  0  0  0  0
  140.6097   78.2923  220.0300 H   0  0  0  0  0  0  0  0  0  0  0  0
  141.8376   79.0263  220.9692 H   0  0  0  0  0  0  0  0  0  0  0  0
  142.7084   77.4656  218.9487 H   0  0  0  0  0  0  0  0  0  0  0  0
  143.4513   77.0328  220.4531 H   0  0  0  0  0  0  0  0  0  0  0  0
  141.1527   75.5713  218.9847 H   0  0  0  0  0  0  0  0  0  0  0  0
  144.3791   75.9871  219.8565 H   0  0  0  0  0  0  0  0  0  0  0  0
  146.0330   74.2270  220.3257 H   0  0  0  0  0  0  0  0  0  0  0  0
  145.2775   71.9172  220.9589 H   0  0  0  0  0  0  0  0  0  0  0  0
  142.8015   71.5250  221.0796 H   0  0  0  0  0  0  0  0  0  0  0  0
  139.1543   69.1596  222.9762 H   0  0  0  0  0  0  0  0  0  0  0  0
  139.5463   68.0235  225.1555 H   0  0  0  0  0  0  0  0  0  0  0  0
  140.2924   68.2104  227.4597 H   0  0  0  0  0  0  0  0  0  0  0  0
  141.2037   69.6047  229.3265 H   0  0  0  0  0  0  0  0  0  0  0  0
  141.6663   71.9948  228.9558 H   0  0  0  0  0  0  0  0  0  0  0  0
  141.2474   73.0514  226.7373 H   0  0  0  0  0  0  0  0  0  0  0  0
  1  2  2  0
  2  3  1  0
  3  4  1  0
  4  5  1  0
  5  6  2  0
  5  7  1  0
  7  8  1  0
  8  9  1  0
  9 10  1  0
 10 11  1  0
 11 12  1  0
 12 13  2  0
 13 14  1  0
 14 15  2  0
 15 16  1  0
 16 17  2  0
  2 18  1  0
 18 19  2  0
 19 20  1  0
 20 21  2  0
 21 22  1  0
 22 23  2  0
 23 24  1  0
 24 25  2  0
 25 26  1  0
 26 27  2  0
 11  7  1  0
 17 12  1  0
 27 18  1  0
 26 21  1  0
  3 28  1  0
  4 29  1  0
  4 30  1  0
  8 31  1  0
  8 32  1  0
  9 33  1  0
  9 34  1  0
 10 35  1  0
 10 36  1  0
 11 37  1  6
 13 38  1  0
 14 39  1  0
 15 40  1  0
 16 41  1  0
 19 42  1  0
 20 43  1  0
 22 44  1  0
 23 45  1  0
 24 46  1  0
 25 47  1  0
M  END
>  <smiles>  (58) 
O=C(NCC(=O)N1CCCC1c1ccccn1)c1ccc2ccccc2n1

>  <score_type>  (58) 
oracle

>  <origin>  (58) 
autodockgpu

>  <m_score__min__energy>  (58) 
-8.7100000000000009

>  <m_primary>  (58) 
energy

>  <rmsd>  (58) 
3.8930363641749013

>  <m_score__min__rmsd>  (58) 
3.8930363641749013

>  <meeko>  (58) 
{"free_energy": -8.0, "intermolecular_energy": -9.49, "internal_energy": -1.83, "cluster_size": 8, "cluster_id": 1, "rank_in_cluster": 8}

>  <energy>  (58) 
-8.0

>  <cluster_rmsd>  (58) 
1.15

>  <cluster>  (58) 
1

$$$$

     RDKit          3D

 47 50  0  0  0  0  0  0  0  0999 V2000
  138.4920   75.6410  222.0740 O   0  0  0  0  0  0  0  0  0  0  0  0
  139.6900   76.0190  222.0540 C   0  0  0  0  0  0  0  0  0  0  0  0
  140.7630   75.1950  221.5990 N   0  0  0  0  0  0  0  0  0  0  0  0
  140.4770   73.8380  221.1290 C   0  0  0  0  0  0  0  0  0  0  0  0
  141.6790   73.0180  221.2190 C   0  0  0  0  0  0  0  0  0  0  0  0
  141.6360   71.9970  221.9880 O   0  0  0  0  0  0  0  0  0  0  0  0
  142.8990   73.2320  220.5430 N   0  0  0  0  0  0  0  0  0  0  0  0
  143.4640   72.2220  219.6300 C   0  0  0  0  0  0  0  0  0  0  0  0
  144.9080   72.2700  220.1700 C   0  0  0  0  0  0  0  0  0  0  0  0
  145.1320   73.7740  219.9570 C   0  0  0  0  0  0  0  0  0  0  0  0
  143.8280   74.3290  220.5440 C   0  0  1  0  0  0  0  0  0  0  0  0
  143.4470   75.4490  219.6440 C   0  0  0  0  0  0  0  0  0  0  0  0
  143.6720   75.3760  218.2630 C   0  0  0  0  0  0  0  0  0  0  0  0
  143.3140   76.4050  217.4150 C   0  0  0  0  0  0  0  0  0  0  0  0
  142.7170   77.5490  217.9050 C   0  0  0  0  0  0  0  0  0  0  0  0
  142.5130   77.5760  219.2850 C   0  0  0  0  0  0  0  0  0  0  0  0
  142.8710   76.5630  220.0850 N   0  0  0  0  0  0  0  0  0  0  0  0
  140.0100   77.3820  222.5220 C   0  0  0  0  0  0  0  0  0  0  0  0
  139.0020   78.2490  222.8820 C   0  0  0  0  0  0  0  0  0  0  0  0
  139.2660   79.5350  223.3260 C   0  0  0  0  0  0  0  0  0  0  0  0
  140.5890   79.9270  223.3980 C   0  0  0  0  0  0  0  0  0  0  0  0
  140.9230   81.1830  223.8280 C   0  0  0  0  0  0  0  0  0  0  0  0
  142.2660   81.5600  223.8940 C   0  0  0  0  0  0  0  0  0  0  0  0
  143.2390   80.6650  223.5270 C   0  0  0  0  0  0  0  0  0  0  0  0
  142.9240   79.3890  223.0900 C   0  0  0  0  0  0  0  0  0  0  0  0
  141.5820   79.0430  223.0340 C   0  0  0  0  0  0  0  0  0  0  0  0
  141.3060   77.8000  222.6050 N   0  0  0  0  0  0  0  0  0  0  0  0
  141.7250   75.5960  221.6190 H   0  0  0  0  0  0  0  0  0  0  0  0
  139.6860   73.3953  221.7522 H   0  0  0  0  0  0  0  0  0  0  0  0
  140.1450   73.8802  220.0811 H   0  0  0  0  0  0  0  0  0  0  0  0
  142.9996   71.2329  219.7569 H   0  0  0  0  0  0  0  0  0  0  0  0
  143.3342   72.4036  218.5529 H   0  0  0  0  0  0  0  0  0  0  0  0
  144.9719   71.9800  221.2292 H   0  0  0  0  0  0  0  0  0  0  0  0
  145.6343   71.5907  219.6998 H   0  0  0  0  0  0  0  0  0  0  0  0
  146.0130   74.1365  220.5069 H   0  0  0  0  0  0  0  0  0  0  0  0
  145.3309   74.0678  218.9158 H   0  0  0  0  0  0  0  0  0  0  0  0
  143.8826   74.7154  221.5725 H   0  0  0  0  0  0  0  0  0  0  0  0
  144.1458   74.4761  217.8438 H   0  0  0  0  0  0  0  0  0  0  0  0
  143.5068   76.3121  216.3360 H   0  0  0  0  0  0  0  0  0  0  0  0
  142.4219   78.3832  217.2515 H   0  0  0  0  0  0  0  0  0  0  0  0
  142.0404   78.4626  219.7329 H   0  0  0  0  0  0  0  0  0  0  0  0
  137.9574   77.9109  222.8152 H   0  0  0  0  0  0  0  0  0  0  0  0
  138.4524   80.2184  223.6106 H   0  0  0  0  0  0  0  0  0  0  0  0
  140.1357   81.8933  224.1207 H   0  0  0  0  0  0  0  0  0  0  0  0
  142.5419   82.5678  224.2379 H   0  0  0  0  0  0  0  0  0  0  0  0
  144.2950   80.9682  223.5811 H   0  0  0  0  0  0  0  0  0  0  0  0
  143.7093   78.6762  222.7981 H   0  0  0  0  0  0  0  0  0  0  0  0
  1  2  2  0
  2  3  1  0
  3  4  1  0
  4  5  1  0
  5  6  2  0
  5  7  1  0
  7  8  1  0
  8  9  1  0
  9 10  1  0
 10 11  1  0
 11 12  1  0
 12 13  2  0
 13 14  1  0
 14 15  2  0
 15 16  1  0
 16 17  2  0
  2 18  1  0
 18 19  2  0
 19 20  1  0
 20 21  2  0
 21 22  1  0
 22 23  2  0
 23 24  1  0
 24 25  2  0
 25 26  1  0
 26 27  2  0
 11  7  1  0
 17 12  1  0
 27 18  1  0
 26 21  1  0
  3 28  1  0
  4 29  1  0
  4 30  1  0
  8 31  1  0
  8 32  1  0
  9 33  1  0
  9 34  1  0
 10 35  1  0
 10 36  1  0
 11 37  1  1
 13 38  1  0
 14 39  1  0
 15 40  1  0
 16 41  1  0
 19 42  1  0
 20 43  1  0
 22 44  1  0
 23 45  1  0
 24 46  1  0
 25 47  1  0
M  END
>  <smiles>  (59) 
O=C(NCC(=O)N1CCCC1c1ccccn1)c1ccc2ccccc2n1

>  <score_type>  (59) 
oracle

>  <origin>  (59) 
autodockgpu

>  <m_score__min__energy>  (59) 
-8.7100000000000009

>  <m_primary>  (59) 
energy

>  <rmsd>  (59) 
7.4752671143420795

>  <m_score__min__rmsd>  (59) 
7.4752671143420795

>  <meeko>  (59) 
{"free_energy": -7.12, "intermolecular_energy": -8.61, "internal_energy": -2.8, "cluster_size": 6, "cluster_id": 4, "rank_in_cluster": 6}

>  <energy>  (59) 
-8.67

>  <cluster_rmsd>  (59) 
0.0

>  <cluster>  (59) 
2

$$$$

     RDKit          3D

 47 50  0  0  0  0  0  0  0  0999 V2000
  138.1040   71.1550  221.7280 O   0  0  0  0  0  0  0  0  0  0  0  0
  138.8260   71.5920  222.6590 C   0  0  0  0  0  0  0  0  0  0  0  0
  139.3580   72.9160  222.6800 N   0  0  0  0  0  0  0  0  0  0  0  0
  139.0620   73.8270  221.5730 C   0  0  0  0  0  0  0  0  0  0  0  0
  139.9700   74.9670  221.6120 C   0  0  0  0  0  0  0  0  0  0  0  0
  141.0610   74.8260  222.2640 O   0  0  0  0  0  0  0  0  0  0  0  0
  139.7730   76.2240  221.0020 N   0  0  0  0  0  0  0  0  0  0  0  0
  138.4210   76.7460  220.7300 C   0  0  0  0  0  0  0  0  0  0  0  0
  138.6880   77.2060  219.2810 C   0  0  0  0  0  0  0  0  0  0  0  0
  139.8700   78.1340  219.6000 C   0  0  0  0  0  0  0  0  0  0  0  0
  140.6880   77.2240  220.5250 C   0  0  1  0  0  0  0  0  0  0  0  0
  141.2110   78.1250  221.5860 C   0  0  0  0  0  0  0  0  0  0  0  0
  141.8010   79.3550  221.2670 C   0  0  0  0  0  0  0  0  0  0  0  0
  142.2820   80.2050  222.2430 C   0  0  0  0  0  0  0  0  0  0  0  0
  142.1940   79.8660  223.5790 C   0  0  0  0  0  0  0  0  0  0  0  0
  141.5980   78.6340  223.8480 C   0  0  0  0  0  0  0  0  0  0  0  0
  141.1410   77.8290  222.8800 N   0  0  0  0  0  0  0  0  0  0  0  0
  139.1420   70.6970  223.7890 C   0  0  0  0  0  0  0  0  0  0  0  0
  138.7760   69.3690  223.7510 C   0  0  0  0  0  0  0  0  0  0  0  0
  139.0560   68.5020  224.7930 C   0  0  0  0  0  0  0  0  0  0  0  0
  139.7240   69.0140  225.8890 C   0  0  0  0  0  0  0  0  0  0  0  0
  140.0340   68.2140  226.9560 C   0  0  0  0  0  0  0  0  0  0  0  0
  140.7100   68.7500  228.0540 C   0  0  0  0  0  0  0  0  0  0  0  0
  141.0560   70.0780  228.0520 C   0  0  0  0  0  0  0  0  0  0  0  0
  140.7530   70.9060  226.9830 C   0  0  0  0  0  0  0  0  0  0  0  0
  140.0820   70.3450  225.9070 C   0  0  0  0  0  0  0  0  0  0  0  0
  139.8000   71.1720  224.8860 N   0  0  0  0  0  0  0  0  0  0  0  0
  139.9470   73.1890  223.4960 H   0  0  0  0  0  0  0  0  0  0  0  0
  139.1865   73.2941  220.6188 H   0  0  0  0  0  0  0  0  0  0  0  0
  138.0263   74.1857  221.6663 H   0  0  0  0  0  0  0  0  0  0  0  0
  137.6483   75.9653  220.7885 H   0  0  0  0  0  0  0  0  0  0  0  0
  138.0364   77.5061  221.4259 H   0  0  0  0  0  0  0  0  0  0  0  0
  138.9717   76.3739  218.6199 H   0  0  0  0  0  0  0  0  0  0  0  0
  137.8407   77.6527  218.7401 H   0  0  0  0  0  0  0  0  0  0  0  0
  140.4317   78.4044  218.6937 H   0  0  0  0  0  0  0  0  0  0  0  0
  139.5901   79.1040  220.0368 H   0  0  0  0  0  0  0  0  0  0  0  0
  141.5391   76.7006  220.0648 H   0  0  0  0  0  0  0  0  0  0  0  0
  141.8832   79.6515  220.2109 H   0  0  0  0  0  0  0  0  0  0  0  0
  142.7401   81.1622  221.9535 H   0  0  0  0  0  0  0  0  0  0  0  0
  142.5688   80.5235  224.3773 H   0  0  0  0  0  0  0  0  0  0  0  0
  141.4996   78.3112  224.8950 H   0  0  0  0  0  0  0  0  0  0  0  0
  138.2456   68.9867  222.8664 H   0  0  0  0  0  0  0  0  0  0  0  0
  138.7577   67.4441  224.7502 H   0  0  0  0  0  0  0  0  0  0  0  0
  139.7511   67.1510  226.9483 H   0  0  0  0  0  0  0  0  0  0  0  0
  140.9633   68.1126  228.9140 H   0  0  0  0  0  0  0  0  0  0  0  0
  141.5869   70.4954  228.9203 H   0  0  0  0  0  0  0  0  0  0  0  0
  141.0345   71.9694  226.9878 H   0  0  0  0  0  0  0  0  0  0  0  0
  1  2  2  0
  2  3  1  0
  3  4  1  0
  4  5  1  0
  5  6  2  0
  5  7  1  0
  7  8  1  0
  8  9  1  0
  9 10  1  0
 10 11  1  0
 11 12  1  0
 12 13  2  0
 13 14  1  0
 14 15  2  0
 15 16  1  0
 16 17  2  0
  2 18  1  0
 18 19  2  0
 19 20  1  0
 20 21  2  0
 21 22  1  0
 22 23  2  0
 23 24  1  0
 24 25  2  0
 25 26  1  0
 26 27  2  0
 11  7  1  0
 17 12  1  0
 27 18  1  0
 26 21  1  0
  3 28  1  0
  4 29  1  0
  4 30  1  0
  8 31  1  0
  8 32  1  0
  9 33  1  0
  9 34  1  0
 10 35  1  0
 10 36  1  0
 11 37  1  6
 13 38  1  0
 14 39  1  0
 15 40  1  0
 16 41  1  0
 19 42  1  0
 20 43  1  0
 22 44  1  0
 23 45  1  0
 24 46  1  0
 25 47  1  0
M  END
>  <smiles>  (60) 
O=C(NCC(=O)N1CCCC1c1ccccn1)c1ccc2ccccc2n1

>  <score_type>  (60) 
oracle

>  <origin>  (60) 
autodockgpu

>  <m_score__min__energy>  (60) 
-8.7100000000000009

>  <m_primary>  (60) 
energy

>  <rmsd>  (60) 
1.7503676106792538

>  <m_score__min__rmsd>  (60) 
1.7503676106792538

>  <meeko>  (60) 
{"free_energy": -7.8, "intermolecular_energy": -9.29, "internal_energy": -1.95, "cluster_size": 32, "cluster_id": 2, "rank_in_cluster": 32}

>  <energy>  (60) 
-8.64

>  <cluster_rmsd>  (60) 
1.25

>  <cluster>  (60) 
2

$$$$

     RDKit          3D

 47 50  0  0  0  0  0  0  0  0999 V2000
  139.5770   74.5050  221.9820 O   0  0  0  0  0  0  0  0  0  0  0  0
  140.7230   74.9560  221.7310 C   0  0  0  0  0  0  0  0  0  0  0  0
  141.0840   76.3230  221.9220 N   0  0  0  0  0  0  0  0  0  0  0  0
  140.0870   77.2650  222.4330 C   0  0  0  0  0  0  0  0  0  0  0  0
  140.7060   78.5630  222.6720 C   0  0  0  0  0  0  0  0  0  0  0  0
  140.7610   78.9720  223.8830 O   0  0  0  0  0  0  0  0  0  0  0  0
  141.2560   79.4280  221.7020 N   0  0  0  0  0  0  0  0  0  0  0  0
  142.2410   80.4640  222.0620 C   0  0  0  0  0  0  0  0  0  0  0  0
  141.5910   81.6200  221.2730 C   0  0  0  0  0  0  0  0  0  0  0  0
  141.6000   80.9300  219.9000 C   0  0  0  0  0  0  0  0  0  0  0  0
  141.0490   79.5510  220.2850 C   0  0  1  0  0  0  0  0  0  0  0  0
  141.8300   78.5840  219.4710 C   0  0  0  0  0  0  0  0  0  0  0  0
  141.8760   78.6840  218.0740 C   0  0  0  0  0  0  0  0  0  0  0  0
  142.6060   77.7980  217.3070 C   0  0  0  0  0  0  0  0  0  0  0  0
  143.3210   76.7760  217.8980 C   0  0  0  0  0  0  0  0  0  0  0  0
  143.2460   76.7160  219.2890 C   0  0  0  0  0  0  0  0  0  0  0  0
  142.5290   77.5890  220.0090 N   0  0  0  0  0  0  0  0  0  0  0  0
  141.7500   74.0310  221.2130 C   0  0  0  0  0  0  0  0  0  0  0  0
  141.4100   72.7470  220.8460 C   0  0  0  0  0  0  0  0  0  0  0  0
  142.3480   71.8530  220.3570 C   0  0  0  0  0  0  0  0  0  0  0  0
  143.6540   72.2920  220.2460 C   0  0  0  0  0  0  0  0  0  0  0  0
  144.6320   71.4620  219.7700 C   0  0  0  0  0  0  0  0  0  0  0  0
  145.9460   71.9250  219.6650 C   0  0  0  0  0  0  0  0  0  0  0  0
  146.2420   73.2110  220.0420 C   0  0  0  0  0  0  0  0  0  0  0  0
  145.2670   74.0690  220.5250 C   0  0  0  0  0  0  0  0  0  0  0  0
  143.9720   73.5800  220.6180 C   0  0  0  0  0  0  0  0  0  0  0  0
  143.0470   74.4340  221.0910 N   0  0  0  0  0  0  0  0  0  0  0  0
  142.0600   76.6040  221.6840 H   0  0  0  0  0  0  0  0  0  0  0  0
  139.2791   77.3768  221.6949 H   0  0  0  0  0  0  0  0  0  0  0  0
  139.6770   76.8802  223.3784 H   0  0  0  0  0  0  0  0  0  0  0  0
  142.2720   80.6578  223.1443 H   0  0  0  0  0  0  0  0  0  0  0  0
  143.2945   80.2431  221.8352 H   0  0  0  0  0  0  0  0  0  0  0  0
  140.5738   81.8498  221.6229 H   0  0  0  0  0  0  0  0  0  0  0  0
  142.0846   82.6010  221.3366 H   0  0  0  0  0  0  0  0  0  0  0  0
  140.9449   81.4443  219.1814 H   0  0  0  0  0  0  0  0  0  0  0  0
  142.5793   80.9120  219.3993 H   0  0  0  0  0  0  0  0  0  0  0  0
  139.9796   79.3821  220.0906 H   0  0  0  0  0  0  0  0  0  0  0  0
  141.3161   79.4891  217.5757 H   0  0  0  0  0  0  0  0  0  0  0  0
  142.6179   77.9078  216.2126 H   0  0  0  0  0  0  0  0  0  0  0  0
  143.9107   76.0567  217.3107 H   0  0  0  0  0  0  0  0  0  0  0  0
  143.7963   75.9219  219.8150 H   0  0  0  0  0  0  0  0  0  0  0  0
  140.3635   72.4228  220.9442 H   0  0  0  0  0  0  0  0  0  0  0  0
  142.0639   70.8305  220.0674 H   0  0  0  0  0  0  0  0  0  0  0  0
  144.3844   70.4328  219.4708 H   0  0  0  0  0  0  0  0  0  0  0  0
  146.7376   71.2636  219.2829 H   0  0  0  0  0  0  0  0  0  0  0  0
  147.2786   73.5694  219.9587 H   0  0  0  0  0  0  0  0  0  0  0  0
  145.5107   75.0993  220.8235 H   0  0  0  0  0  0  0  0  0  0  0  0
  1  2  2  0
  2  3  1  0
  3  4  1  0
  4  5  1  0
  5  6  2  0
  5  7  1  0
  7  8  1  0
  8  9  1  0
  9 10  1  0
 10 11  1  0
 11 12  1  0
 12 13  2  0
 13 14  1  0
 14 15  2  0
 15 16  1  0
 16 17  2  0
  2 18  1  0
 18 19  2  0
 19 20  1  0
 20 21  2  0
 21 22  1  0
 22 23  2  0
 23 24  1  0
 24 25  2  0
 25 26  1  0
 26 27  2  0
 11  7  1  0
 17 12  1  0
 27 18  1  0
 26 21  1  0
  3 28  1  0
  4 29  1  0
  4 30  1  0
  8 31  1  0
  8 32  1  0
  9 33  1  0
  9 34  1  0
 10 35  1  0
 10 36  1  0
 11 37  1  1
 13 38  1  0
 14 39  1  0
 15 40  1  0
 16 41  1  0
 19 42  1  0
 20 43  1  0
 22 44  1  0
 23 45  1  0
 24 46  1  0
 25 47  1  0
M  END
>  <smiles>  (61) 
O=C(NCC(=O)N1CCCC1c1ccccn1)c1ccc2ccccc2n1

>  <score_type>  (61) 
oracle

>  <origin>  (61) 
autodockgpu

>  <m_score__min__energy>  (61) 
-8.7100000000000009

>  <m_primary>  (61) 
energy

>  <rmsd>  (61) 
6.058876580125371

>  <m_score__min__rmsd>  (61) 
6.058876580125371

>  <meeko>  (61) 
{"free_energy": -6.79, "intermolecular_energy": -8.28, "internal_energy": -2.82, "cluster_size": 3, "cluster_id": 5, "rank_in_cluster": 2}

>  <energy>  (61) 
-8.64

>  <cluster_rmsd>  (61) 
1.21

>  <cluster>  (61) 
2

$$$$

     RDKit          3D

 47 50  0  0  0  0  0  0  0  0999 V2000
  139.2950   73.7650  222.3460 O   0  0  0  0  0  0  0  0  0  0  0  0
  140.2230   74.4460  221.8410 C   0  0  0  0  0  0  0  0  0  0  0  0
  140.2080   75.8720  221.7900 N   0  0  0  0  0  0  0  0  0  0  0  0
  139.0650   76.5990  222.3450 C   0  0  0  0  0  0  0  0  0  0  0  0
  139.3640   78.0240  222.4050 C   0  0  0  0  0  0  0  0  0  0  0  0
  138.3760   78.8260  222.5320 O   0  0  0  0  0  0  0  0  0  0  0  0
  140.6400   78.6230  222.3320 N   0  0  0  0  0  0  0  0  0  0  0  0
  141.6420   78.4340  223.3970 C   0  0  0  0  0  0  0  0  0  0  0  0
  142.0590   79.9150  223.5240 C   0  0  0  0  0  0  0  0  0  0  0  0
  142.4610   80.1170  222.0550 C   0  0  0  0  0  0  0  0  0  0  0  0
  141.2560   79.4760  221.3530 C   0  0  1  0  0  0  0  0  0  0  0  0
  141.8310   78.7500  220.1910 C   0  0  0  0  0  0  0  0  0  0  0  0
  142.0630   79.4020  218.9720 C   0  0  0  0  0  0  0  0  0  0  0  0
  142.6050   78.7410  217.8880 C   0  0  0  0  0  0  0  0  0  0  0  0
  142.9400   77.4040  217.9710 C   0  0  0  0  0  0  0  0  0  0  0  0
  142.6910   76.7980  219.2020 C   0  0  0  0  0  0  0  0  0  0  0  0
  142.1630   77.4640  220.2380 N   0  0  0  0  0  0  0  0  0  0  0  0
  141.3890   73.7420  221.2730 C   0  0  0  0  0  0  0  0  0  0  0  0
  141.2610   72.4560  220.7930 C   0  0  0  0  0  0  0  0  0  0  0  0
  142.3330   71.7660  220.2530 C   0  0  0  0  0  0  0  0  0  0  0  0
  143.5540   72.4130  220.2090 C   0  0  0  0  0  0  0  0  0  0  0  0
  144.6570   71.7920  219.6900 C   0  0  0  0  0  0  0  0  0  0  0  0
  145.8800   72.4630  219.6530 C   0  0  0  0  0  0  0  0  0  0  0  0
  145.9650   73.7430  220.1420 C   0  0  0  0  0  0  0  0  0  0  0  0
  144.8610   74.3920  220.6720 C   0  0  0  0  0  0  0  0  0  0  0  0
  143.6600   73.7000  220.6940 C   0  0  0  0  0  0  0  0  0  0  0  0
  142.6070   74.3530  221.2150 N   0  0  0  0  0  0  0  0  0  0  0  0
  141.0240   76.3500  221.3520 H   0  0  0  0  0  0  0  0  0  0  0  0
  138.1849   76.4378  221.7051 H   0  0  0  0  0  0  0  0  0  0  0  0
  138.8598   76.2294  223.3605 H   0  0  0  0  0  0  0  0  0  0  0  0
  141.2016   78.0393  224.3245 H   0  0  0  0  0  0  0  0  0  0  0  0
  142.4458   77.7107  223.1954 H   0  0  0  0  0  0  0  0  0  0  0  0
  141.2236   80.5639  223.8257 H   0  0  0  0  0  0  0  0  0  0  0  0
  142.8206   80.1509  224.2819 H   0  0  0  0  0  0  0  0  0  0  0  0
  142.5599   81.1831  221.8026 H   0  0  0  0  0  0  0  0  0  0  0  0
  143.4364   79.6888  221.7805 H   0  0  0  0  0  0  0  0  0  0  0  0
  140.4837   80.1662  220.9826 H   0  0  0  0  0  0  0  0  0  0  0  0
  141.8067   80.4675  218.8767 H   0  0  0  0  0  0  0  0  0  0  0  0
  142.7720   79.2858  216.9471 H   0  0  0  0  0  0  0  0  0  0  0  0
  143.3741   76.8539  217.1231 H   0  0  0  0  0  0  0  0  0  0  0  0
  142.9372   75.7333  219.3273 H   0  0  0  0  0  0  0  0  0  0  0  0
  140.2784   71.9637  220.8404 H   0  0  0  0  0  0  0  0  0  0  0  0
  142.2174   70.7403  219.8728 H   0  0  0  0  0  0  0  0  0  0  0  0
  144.5799   70.7654  219.3025 H   0  0  0  0  0  0  0  0  0  0  0  0
  146.7699   71.9697  219.2349 H   0  0  0  0  0  0  0  0  0  0  0  0
  146.9323   74.2659  220.1125 H   0  0  0  0  0  0  0  0  0  0  0  0
  144.9350   75.4183  221.0608 H   0  0  0  0  0  0  0  0  0  0  0  0
  1  2  2  0
  2  3  1  0
  3  4  1  0
  4  5  1  0
  5  6  2  0
  5  7  1  0
  7  8  1  0
  8  9  1  0
  9 10  1  0
 10 11  1  0
 11 12  1  0
 12 13  2  0
 13 14  1  0
 14 15  2  0
 15 16  1  0
 16 17  2  0
  2 18  1  0
 18 19  2  0
 19 20  1  0
 20 21  2  0
 21 22  1  0
 22 23  2  0
 23 24  1  0
 24 25  2  0
 25 26  1  0
 26 27  2  0
 11  7  1  0
 17 12  1  0
 27 18  1  0
 26 21  1  0
  3 28  1  0
  4 29  1  0
  4 30  1  0
  8 31  1  0
  8 32  1  0
  9 33  1  0
  9 34  1  0
 10 35  1  0
 10 36  1  0
 11 37  1  6
 13 38  1  0
 14 39  1  0
 15 40  1  0
 16 41  1  0
 19 42  1  0
 20 43  1  0
 22 44  1  0
 23 45  1  0
 24 46  1  0
 25 47  1  0
M  END
>  <smiles>  (62) 
O=C(NCC(=O)N1CCCC1c1ccccn1)c1ccc2ccccc2n1

>  <score_type>  (62) 
oracle

>  <origin>  (62) 
autodockgpu

>  <m_score__min__energy>  (62) 
-8.7100000000000009

>  <m_primary>  (62) 
energy

>  <rmsd>  (62) 
5.865656669899603

>  <m_score__min__rmsd>  (62) 
5.865656669899603

>  <meeko>  (62) 
{"free_energy": -6.53, "intermolecular_energy": -8.02, "internal_energy": -2.92, "cluster_size": 3, "cluster_id": 5, "rank_in_cluster": 3}

>  <energy>  (62) 
-8.62

>  <cluster_rmsd>  (62) 
1.22

>  <cluster>  (62) 
2

$$$$

     RDKit          3D

 47 50  0  0  0  0  0  0  0  0999 V2000
  141.2040   71.6270  221.4540 O   0  0  0  0  0  0  0  0  0  0  0  0
  140.5380   72.1400  222.3890 C   0  0  0  0  0  0  0  0  0  0  0  0
  140.0220   73.4690  222.3420 N   0  0  0  0  0  0  0  0  0  0  0  0
  140.2690   74.2960  221.1600 C   0  0  0  0  0  0  0  0  0  0  0  0
  140.0870   75.7040  221.4900 C   0  0  0  0  0  0  0  0  0  0  0  0
  139.4390   75.9760  222.5590 O   0  0  0  0  0  0  0  0  0  0  0  0
  140.5510   76.8110  220.7490 N   0  0  0  0  0  0  0  0  0  0  0  0
  139.7340   77.4270  219.6870 C   0  0  0  0  0  0  0  0  0  0  0  0
  140.8500   77.5210  218.6260 C   0  0  0  0  0  0  0  0  0  0  0  0
  141.8360   78.3400  219.4710 C   0  0  0  0  0  0  0  0  0  0  0  0
  141.7770   77.5600  220.7900 C   0  0  1  0  0  0  0  0  0  0  0  0
  141.8200   78.5980  221.8530 C   0  0  0  0  0  0  0  0  0  0  0  0
  142.1960   79.9170  221.5630 C   0  0  0  0  0  0  0  0  0  0  0  0
  142.2310   80.8930  222.5390 C   0  0  0  0  0  0  0  0  0  0  0  0
  141.8910   80.5980  223.8440 C   0  0  0  0  0  0  0  0  0  0  0  0
  141.5230   79.2740  224.0850 C   0  0  0  0  0  0  0  0  0  0  0  0
  141.4990   78.3470  223.1180 N   0  0  0  0  0  0  0  0  0  0  0  0
  140.2730   71.3320  223.5950 C   0  0  0  0  0  0  0  0  0  0  0  0
  139.6230   70.1210  223.4940 C   0  0  0  0  0  0  0  0  0  0  0  0
  139.3580   69.3370  224.6040 C   0  0  0  0  0  0  0  0  0  0  0  0
  139.7710   69.8110  225.8350 C   0  0  0  0  0  0  0  0  0  0  0  0
  139.5430   69.0890  226.9750 C   0  0  0  0  0  0  0  0  0  0  0  0
  139.9690   69.5860  228.2090 C   0  0  0  0  0  0  0  0  0  0  0  0
  140.6130   70.7960  228.2660 C   0  0  0  0  0  0  0  0  0  0  0  0
  140.8550   71.5440  227.1240 C   0  0  0  0  0  0  0  0  0  0  0  0
  140.4200   71.0250  225.9140 C   0  0  0  0  0  0  0  0  0  0  0  0
  140.6680   71.7720  224.8240 N   0  0  0  0  0  0  0  0  0  0  0  0
  139.4810   73.8080  223.1670 H   0  0  0  0  0  0  0  0  0  0  0  0
  141.2994   74.1339  220.8108 H   0  0  0  0  0  0  0  0  0  0  0  0
  139.5585   74.0159  220.3684 H   0  0  0  0  0  0  0  0  0  0  0  0
  138.9023   76.7818  219.3676 H   0  0  0  0  0  0  0  0  0  0  0  0
  139.2165   78.3633  219.9431 H   0  0  0  0  0  0  0  0  0  0  0  0
  141.2510   76.5353  218.3474 H   0  0  0  0  0  0  0  0  0  0  0  0
  140.5689   77.9411  217.6490 H   0  0  0  0  0  0  0  0  0  0  0  0
  142.8473   78.3325  219.0383 H   0  0  0  0  0  0  0  0  0  0  0  0
  141.5927   79.4094  219.5563 H   0  0  0  0  0  0  0  0  0  0  0  0
  142.5944   76.8464  220.9705 H   0  0  0  0  0  0  0  0  0  0  0  0
  142.4703   80.1813  220.5311 H   0  0  0  0  0  0  0  0  0  0  0  0
  142.5331   81.9169  222.2738 H   0  0  0  0  0  0  0  0  0  0  0  0
  141.9090   81.3562  224.6407 H   0  0  0  0  0  0  0  0  0  0  0  0
  141.2421   78.9802  225.1071 H   0  0  0  0  0  0  0  0  0  0  0  0
  139.3053   69.7668  222.5022 H   0  0  0  0  0  0  0  0  0  0  0  0
  138.8379   68.3723  224.5097 H   0  0  0  0  0  0  0  0  0  0  0  0
  139.0256   68.1198  226.9197 H   0  0  0  0  0  0  0  0  0  0  0  0
  139.7892   69.0108  229.1292 H   0  0  0  0  0  0  0  0  0  0  0  0
  140.9453   71.1819  229.2410 H   0  0  0  0  0  0  0  0  0  0  0  0
  141.3728   72.5131  227.1759 H   0  0  0  0  0  0  0  0  0  0  0  0
  1  2  2  0
  2  3  1  0
  3  4  1  0
  4  5  1  0
  5  6  2  0
  5  7  1  0
  7  8  1  0
  8  9  1  0
  9 10  1  0
 10 11  1  0
 11 12  1  0
 12 13  2  0
 13 14  1  0
 14 15  2  0
 15 16  1  0
 16 17  2  0
  2 18  1  0
 18 19  2  0
 19 20  1  0
 20 21  2  0
 21 22  1  0
 22 23  2  0
 23 24  1  0
 24 25  2  0
 25 26  1  0
 26 27  2  0
 11  7  1  0
 17 12  1  0
 27 18  1  0
 26 21  1  0
  3 28  1  0
  4 29  1  0
  4 30  1  0
  8 31  1  0
  8 32  1  0
  9 33  1  0
  9 34  1  0
 10 35  1  0
 10 36  1  0
 11 37  1  1
 13 38  1  0
 14 39  1  0
 15 40  1  0
 16 41  1  0
 19 42  1  0
 20 43  1  0
 22 44  1  0
 23 45  1  0
 24 46  1  0
 25 47  1  0
M  END
>  <smiles>  (63) 
O=C(NCC(=O)N1CCCC1c1ccccn1)c1ccc2ccccc2n1

>  <score_type>  (63) 
oracle

>  <origin>  (63) 
autodockgpu

>  <m_score__min__energy>  (63) 
-8.7100000000000009

>  <m_primary>  (63) 
energy

>  <rmsd>  (63) 
1.9833099191212182

>  <m_score__min__rmsd>  (63) 
1.9833099191212182

>  <meeko>  (63) 
{"free_energy": -8.6, "intermolecular_energy": -10.09, "internal_energy": -1.78, "cluster_size": 32, "cluster_id": 2, "rank_in_cluster": 8}

>  <energy>  (63) 
-8.62

>  <cluster_rmsd>  (63) 
1.24

>  <cluster>  (63) 
2

$$$$

     RDKit          3D

 47 50  0  0  0  0  0  0  0  0999 V2000
  141.4970   71.8390  221.6640 O   0  0  0  0  0  0  0  0  0  0  0  0
  140.5550   72.2080  222.4100 C   0  0  0  0  0  0  0  0  0  0  0  0
  139.7100   73.3180  222.1110 N   0  0  0  0  0  0  0  0  0  0  0  0
  139.9340   74.0810  220.8810 C   0  0  0  0  0  0  0  0  0  0  0  0
  140.7730   75.2390  221.1610 C   0  0  0  0  0  0  0  0  0  0  0  0
  140.6190   75.8160  222.2920 O   0  0  0  0  0  0  0  0  0  0  0  0
  141.7450   75.8030  220.3070 N   0  0  0  0  0  0  0  0  0  0  0  0
  142.1880   77.2010  220.4590 C   0  0  0  0  0  0  0  0  0  0  0  0
  142.1050   77.5850  218.9670 C   0  0  0  0  0  0  0  0  0  0  0  0
  143.0430   76.4860  218.4440 C   0  0  0  0  0  0  0  0  0  0  0  0
  142.4830   75.2710  219.1940 C   0  0  1  0  0  0  0  0  0  0  0  0
  143.6770   74.4750  219.5820 C   0  0  0  0  0  0  0  0  0  0  0  0
  144.3780   73.7130  218.6370 C   0  0  0  0  0  0  0  0  0  0  0  0
  145.4940   72.9770  218.9830 C   0  0  0  0  0  0  0  0  0  0  0  0
  145.9600   72.9690  220.2820 C   0  0  0  0  0  0  0  0  0  0  0  0
  145.2320   73.7420  221.1860 C   0  0  0  0  0  0  0  0  0  0  0  0
  144.1510   74.4470  220.8240 N   0  0  0  0  0  0  0  0  0  0  0  0
  140.3050   71.4590  223.6570 C   0  0  0  0  0  0  0  0  0  0  0  0
  139.5940   70.2790  223.6310 C   0  0  0  0  0  0  0  0  0  0  0  0
  139.3410   69.5510  224.7810 C   0  0  0  0  0  0  0  0  0  0  0  0
  139.8300   70.0490  225.9740 C   0  0  0  0  0  0  0  0  0  0  0  0
  139.6180   69.3820  227.1500 C   0  0  0  0  0  0  0  0  0  0  0  0
  140.1210   69.9020  228.3440 C   0  0  0  0  0  0  0  0  0  0  0  0
  140.8250   71.0800  228.3260 C   0  0  0  0  0  0  0  0  0  0  0  0
  141.0520   71.7720  227.1480 C   0  0  0  0  0  0  0  0  0  0  0  0
  140.5400   71.2310  225.9780 C   0  0  0  0  0  0  0  0  0  0  0  0
  140.7750   71.9240  224.8500 N   0  0  0  0  0  0  0  0  0  0  0  0
  138.9550   73.5490  222.7900 H   0  0  0  0  0  0  0  0  0  0  0  0
  140.4333   73.4396  220.1398 H   0  0  0  0  0  0  0  0  0  0  0  0
  138.9660   74.4225  220.4856 H   0  0  0  0  0  0  0  0  0  0  0  0
  141.5048   77.7937  221.0851 H   0  0  0  0  0  0  0  0  0  0  0  0
  143.1562   77.3604  220.9562 H   0  0  0  0  0  0  0  0  0  0  0  0
  141.0851   77.4956  218.5647 H   0  0  0  0  0  0  0  0  0  0  0  0
  142.3658   78.6218  218.7082 H   0  0  0  0  0  0  0  0  0  0  0  0
  142.9608   76.3651  217.3538 H   0  0  0  0  0  0  0  0  0  0  0  0
  144.1138   76.6765  218.6089 H   0  0  0  0  0  0  0  0  0  0  0  0
  141.8023   74.6196  218.6263 H   0  0  0  0  0  0  0  0  0  0  0  0
  144.0303   73.7010  217.5935 H   0  0  0  0  0  0  0  0  0  0  0  0
  146.0178   72.3901  218.2141 H   0  0  0  0  0  0  0  0  0  0  0  0
  146.8462   72.3916  220.5840 H   0  0  0  0  0  0  0  0  0  0  0  0
  145.5573   73.7744  222.2363 H   0  0  0  0  0  0  0  0  0  0  0  0
  139.2163   69.9044  222.6682 H   0  0  0  0  0  0  0  0  0  0  0  0
  138.7716   68.6105  224.7466 H   0  0  0  0  0  0  0  0  0  0  0  0
  139.0526   68.4384  227.1545 H   0  0  0  0  0  0  0  0  0  0  0  0
  139.9542   69.3711  229.2929 H   0  0  0  0  0  0  0  0  0  0  0  0
  141.2185   71.4844  229.2702 H   0  0  0  0  0  0  0  0  0  0  0  0
  141.6173   72.7156  227.1405 H   0  0  0  0  0  0  0  0  0  0  0  0
  1  2  2  0
  2  3  1  0
  3  4  1  0
  4  5  1  0
  5  6  2  0
  5  7  1  0
  7  8  1  0
  8  9  1  0
  9 10  1  0
 10 11  1  0
 11 12  1  0
 12 13  2  0
 13 14  1  0
 14 15  2  0
 15 16  1  0
 16 17  2  0
  2 18  1  0
 18 19  2  0
 19 20  1  0
 20 21  2  0
 21 22  1  0
 22 23  2  0
 23 24  1  0
 24 25  2  0
 25 26  1  0
 26 27  2  0
 11  7  1  0
 17 12  1  0
 27 18  1  0
 26 21  1  0
  3 28  1  0
  4 29  1  0
  4 30  1  0
  8 31  1  0
  8 32  1  0
  9 33  1  0
  9 34  1  0
 10 35  1  0
 10 36  1  0
 11 37  1  6
 13 38  1  0
 14 39  1  0
 15 40  1  0
 16 41  1  0
 19 42  1  0
 20 43  1  0
 22 44  1  0
 23 45  1  0
 24 46  1  0
 25 47  1  0
M  END
>  <smiles>  (64) 
O=C(NCC(=O)N1CCCC1c1ccccn1)c1ccc2ccccc2n1

>  <score_type>  (64) 
oracle

>  <origin>  (64) 
autodockgpu

>  <m_score__min__energy>  (64) 
-8.7100000000000009

>  <m_primary>  (64) 
energy

>  <rmsd>  (64) 
4.233870080872888

>  <m_score__min__rmsd>  (64) 
4.233870080872888

>  <meeko>  (64) 
{"free_energy": -8.4, "intermolecular_energy": -9.89, "internal_energy": -1.56, "cluster_size": 8, "cluster_id": 1, "rank_in_cluster": 7}

>  <energy>  (64) 
-8.61

>  <cluster_rmsd>  (64) 
1.11

>  <cluster>  (64) 
2

$$$$

     RDKit          3D

 47 50  0  0  0  0  0  0  0  0999 V2000
  140.9000   71.5810  221.2860 O   0  0  0  0  0  0  0  0  0  0  0  0
  140.3810   72.1120  222.3000 C   0  0  0  0  0  0  0  0  0  0  0  0
  139.9660   73.4760  222.3420 N   0  0  0  0  0  0  0  0  0  0  0  0
  140.1450   74.3190  221.1580 C   0  0  0  0  0  0  0  0  0  0  0  0
  140.1010   75.7250  221.5370 C   0  0  0  0  0  0  0  0  0  0  0  0
  139.5940   76.0100  222.6770 O   0  0  0  0  0  0  0  0  0  0  0  0
  140.5590   76.8200  220.7740 N   0  0  0  0  0  0  0  0  0  0  0  0
  139.7390   77.4110  219.7020 C   0  0  0  0  0  0  0  0  0  0  0  0
  140.8520   77.4890  218.6370 C   0  0  0  0  0  0  0  0  0  0  0  0
  141.8370   78.3290  219.4640 C   0  0  0  0  0  0  0  0  0  0  0  0
  141.7830   77.5740  220.7990 C   0  0  1  0  0  0  0  0  0  0  0  0
  141.8220   78.6330  221.8410 C   0  0  0  0  0  0  0  0  0  0  0  0
  142.1700   79.9530  221.5210 C   0  0  0  0  0  0  0  0  0  0  0  0
  142.2010   80.9480  222.4770 C   0  0  0  0  0  0  0  0  0  0  0  0
  141.8880   80.6710  223.7930 C   0  0  0  0  0  0  0  0  0  0  0  0
  141.5480   79.3460  224.0640 C   0  0  0  0  0  0  0  0  0  0  0  0
  141.5260   78.4000  223.1160 N   0  0  0  0  0  0  0  0  0  0  0  0
  140.1870   71.2880  223.5090 C   0  0  0  0  0  0  0  0  0  0  0  0
  139.5820   70.0530  223.4220 C   0  0  0  0  0  0  0  0  0  0  0  0
  139.3850   69.2540  224.5360 C   0  0  0  0  0  0  0  0  0  0  0  0
  139.8180   69.7390  225.7560 C   0  0  0  0  0  0  0  0  0  0  0  0
  139.6560   69.0030  226.8980 C   0  0  0  0  0  0  0  0  0  0  0  0
  140.1010   69.5100  228.1210 C   0  0  0  0  0  0  0  0  0  0  0  0
  140.6990   70.7450  228.1640 C   0  0  0  0  0  0  0  0  0  0  0  0
  140.8740   71.5070  227.0190 C   0  0  0  0  0  0  0  0  0  0  0  0
  140.4210   70.9770  225.8200 C   0  0  0  0  0  0  0  0  0  0  0  0
  140.6040   71.7380  224.7280 N   0  0  0  0  0  0  0  0  0  0  0  0
  139.5450   73.8280  223.2280 H   0  0  0  0  0  0  0  0  0  0  0  0
  141.1181   74.0964  220.6959 H   0  0  0  0  0  0  0  0  0  0  0  0
  139.3363   74.1123  220.4416 H   0  0  0  0  0  0  0  0  0  0  0  0
  138.9095   76.7562  219.3969 H   0  0  0  0  0  0  0  0  0  0  0  0
  139.2186   78.3503  219.9406 H   0  0  0  0  0  0  0  0  0  0  0  0
  141.2566   76.4998  218.3768 H   0  0  0  0  0  0  0  0  0  0  0  0
  140.5669   77.8888  217.6527 H   0  0  0  0  0  0  0  0  0  0  0  0
  142.8475   78.3169  219.0296 H   0  0  0  0  0  0  0  0  0  0  0  0
  141.5901   79.3990  219.5286 H   0  0  0  0  0  0  0  0  0  0  0  0
  142.6036   76.8674  220.9924 H   0  0  0  0  0  0  0  0  0  0  0  0
  142.4251   80.2022  220.4804 H   0  0  0  0  0  0  0  0  0  0  0  0
  142.4780   81.9724  222.1875 H   0  0  0  0  0  0  0  0  0  0  0  0
  141.9057   81.4440  224.5755 H   0  0  0  0  0  0  0  0  0  0  0  0
  141.2879   79.0671  225.0958 H   0  0  0  0  0  0  0  0  0  0  0  0
  139.2457   69.6912  222.4391 H   0  0  0  0  0  0  0  0  0  0  0  0
  138.9016   68.2694  224.4530 H   0  0  0  0  0  0  0  0  0  0  0  0
  139.1763   68.0141  226.8530 H   0  0  0  0  0  0  0  0  0  0  0  0
  139.9732   68.9240  229.0431 H   0  0  0  0  0  0  0  0  0  0  0  0
  141.0476   71.1394  229.1299 H   0  0  0  0  0  0  0  0  0  0  0  0
  141.3545   72.4957  227.0600 H   0  0  0  0  0  0  0  0  0  0  0  0
  1  2  2  0
  2  3  1  0
  3  4  1  0
  4  5  1  0
  5  6  2  0
  5  7  1  0
  7  8  1  0
  8  9  1  0
  9 10  1  0
 10 11  1  0
 11 12  1  0
 12 13  2  0
 13 14  1  0
 14 15  2  0
 15 16  1  0
 16 17  2  0
  2 18  1  0
 18 19  2  0
 19 20  1  0
 20 21  2  0
 21 22  1  0
 22 23  2  0
 23 24  1  0
 24 25  2  0
 25 26  1  0
 26 27  2  0
 11  7  1  0
 17 12  1  0
 27 18  1  0
 26 21  1  0
  3 28  1  0
  4 29  1  0
  4 30  1  0
  8 31  1  0
  8 32  1  0
  9 33  1  0
  9 34  1  0
 10 35  1  0
 10 36  1  0
 11 37  1  1
 13 38  1  0
 14 39  1  0
 15 40  1  0
 16 41  1  0
 19 42  1  0
 20 43  1  0
 22 44  1  0
 23 45  1  0
 24 46  1  0
 25 47  1  0
M  END
>  <smiles>  (65) 
O=C(NCC(=O)N1CCCC1c1ccccn1)c1ccc2ccccc2n1

>  <score_type>  (65) 
oracle

>  <origin>  (65) 
autodockgpu

>  <m_score__min__energy>  (65) 
-8.7100000000000009

>  <m_primary>  (65) 
energy

>  <rmsd>  (65) 
1.9275391264158628

>  <m_score__min__rmsd>  (65) 
1.9275391264158628

>  <meeko>  (65) 
{"free_energy": -8.57, "intermolecular_energy": -10.07, "internal_energy": -1.81, "cluster_size": 32, "cluster_id": 2, "rank_in_cluster": 12}

>  <energy>  (65) 
-8.61

>  <cluster_rmsd>  (65) 
1.25

>  <cluster>  (65) 
2

$$$$

     RDKit          3D

 47 50  0  0  0  0  0  0  0  0999 V2000
  141.0410   71.6250  221.3950 O   0  0  0  0  0  0  0  0  0  0  0  0
  140.4460   72.1570  222.3670 C   0  0  0  0  0  0  0  0  0  0  0  0
  139.9510   73.4940  222.3440 N   0  0  0  0  0  0  0  0  0  0  0  0
  140.1340   74.3080  221.1400 C   0  0  0  0  0  0  0  0  0  0  0  0
  140.1620   75.7210  221.4950 C   0  0  0  0  0  0  0  0  0  0  0  0
  139.7360   76.0430  222.6580 O   0  0  0  0  0  0  0  0  0  0  0  0
  140.6120   76.7860  220.6860 N   0  0  0  0  0  0  0  0  0  0  0  0
  139.7960   77.3080  219.5740 C   0  0  0  0  0  0  0  0  0  0  0  0
  140.9240   77.3550  218.5220 C   0  0  0  0  0  0  0  0  0  0  0  0
  141.8800   78.2530  219.3200 C   0  0  0  0  0  0  0  0  0  0  0  0
  141.8210   77.5630  220.6900 C   0  0  1  0  0  0  0  0  0  0  0  0
  141.8260   78.6730  221.6790 C   0  0  0  0  0  0  0  0  0  0  0  0
  141.9530   80.0070  221.2700 C   0  0  0  0  0  0  0  0  0  0  0  0
  141.9500   81.0470  222.1780 C   0  0  0  0  0  0  0  0  0  0  0  0
  141.8190   80.8030  223.5310 C   0  0  0  0  0  0  0  0  0  0  0  0
  141.6950   79.4610  223.8900 C   0  0  0  0  0  0  0  0  0  0  0  0
  141.7020   78.4710  222.9870 N   0  0  0  0  0  0  0  0  0  0  0  0
  140.2470   71.3620  223.5950 C   0  0  0  0  0  0  0  0  0  0  0  0
  139.6290   70.1310  223.5360 C   0  0  0  0  0  0  0  0  0  0  0  0
  139.4270   69.3590  224.6680 C   0  0  0  0  0  0  0  0  0  0  0  0
  139.8680   69.8660  225.8750 C   0  0  0  0  0  0  0  0  0  0  0  0
  139.7000   69.1580  227.0340 C   0  0  0  0  0  0  0  0  0  0  0  0
  140.1540   69.6870  228.2440 C   0  0  0  0  0  0  0  0  0  0  0  0
  140.7640   70.9160  228.2590 C   0  0  0  0  0  0  0  0  0  0  0  0
  140.9440   71.6510  227.0980 C   0  0  0  0  0  0  0  0  0  0  0  0
  140.4830   71.0990  225.9120 C   0  0  0  0  0  0  0  0  0  0  0  0
  140.6710   71.8340  224.8020 N   0  0  0  0  0  0  0  0  0  0  0  0
  139.4710   73.8480  223.1990 H   0  0  0  0  0  0  0  0  0  0  0  0
  141.0833   74.0348  220.6561 H   0  0  0  0  0  0  0  0  0  0  0  0
  139.2978   74.1251  220.4492 H   0  0  0  0  0  0  0  0  0  0  0  0
  138.9835   76.6230  219.2901 H   0  0  0  0  0  0  0  0  0  0  0  0
  139.2543   78.2474  219.7585 H   0  0  0  0  0  0  0  0  0  0  0  0
  141.3508   76.3622  218.3168 H   0  0  0  0  0  0  0  0  0  0  0  0
  140.6465   77.7004  217.5152 H   0  0  0  0  0  0  0  0  0  0  0  0
  142.8968   78.2397  218.9006 H   0  0  0  0  0  0  0  0  0  0  0  0
  141.6116   79.3197  219.3287 H   0  0  0  0  0  0  0  0  0  0  0  0
  142.6513   76.8822  220.9289 H   0  0  0  0  0  0  0  0  0  0  0  0
  142.0578   80.2314  220.1982 H   0  0  0  0  0  0  0  0  0  0  0  0
  142.0531   82.0819  221.8197 H   0  0  0  0  0  0  0  0  0  0  0  0
  141.8129   81.6127  224.2755 H   0  0  0  0  0  0  0  0  0  0  0  0
  141.5874   79.2056  224.9545 H   0  0  0  0  0  0  0  0  0  0  0  0
  139.2866   69.7511  222.5621 H   0  0  0  0  0  0  0  0  0  0  0  0
  138.9334   68.3778  224.6081 H   0  0  0  0  0  0  0  0  0  0  0  0
  139.2083   68.1742  227.0125 H   0  0  0  0  0  0  0  0  0  0  0  0
  140.0235   69.1222  229.1789 H   0  0  0  0  0  0  0  0  0  0  0  0
  141.1186   71.3277  229.2154 H   0  0  0  0  0  0  0  0  0  0  0  0
  141.4342   72.6355  227.1164 H   0  0  0  0  0  0  0  0  0  0  0  0
  1  2  2  0
  2  3  1  0
  3  4  1  0
  4  5  1  0
  5  6  2  0
  5  7  1  0
  7  8  1  0
  8  9  1  0
  9 10  1  0
 10 11  1  0
 11 12  1  0
 12 13  2  0
 13 14  1  0
 14 15  2  0
 15 16  1  0
 16 17  2  0
  2 18  1  0
 18 19  2  0
 19 20  1  0
 20 21  2  0
 21 22  1  0
 22 23  2  0
 23 24  1  0
 24 25  2  0
 25 26  1  0
 26 27  2  0
 11  7  1  0
 17 12  1  0
 27 18  1  0
 26 21  1  0
  3 28  1  0
  4 29  1  0
  4 30  1  0
  8 31  1  0
  8 32  1  0
  9 33  1  0
  9 34  1  0
 10 35  1  0
 10 36  1  0
 11 37  1  1
 13 38  1  0
 14 39  1  0
 15 40  1  0
 16 41  1  0
 19 42  1  0
 20 43  1  0
 22 44  1  0
 23 45  1  0
 24 46  1  0
 25 47  1  0
M  END
>  <smiles>  (66) 
O=C(NCC(=O)N1CCCC1c1ccccn1)c1ccc2ccccc2n1

>  <score_type>  (66) 
oracle

>  <origin>  (66) 
autodockgpu

>  <m_score__min__energy>  (66) 
-8.7100000000000009

>  <m_primary>  (66) 
energy

>  <rmsd>  (66) 
1.8650207352457402

>  <m_score__min__rmsd>  (66) 
1.8650207352457402

>  <meeko>  (66) 
{"free_energy": -8.58, "intermolecular_energy": -10.07, "internal_energy": -1.75, "cluster_size": 32, "cluster_id": 2, "rank_in_cluster": 11}

>  <energy>  (66) 
-8.6

>  <cluster_rmsd>  (66) 
1.27

>  <cluster>  (66) 
2

$$$$

     RDKit          3D

 47 50  0  0  0  0  0  0  0  0999 V2000
  141.1790   71.6830  221.4600 O   0  0  0  0  0  0  0  0  0  0  0  0
  140.5320   72.2130  222.3980 C   0  0  0  0  0  0  0  0  0  0  0  0
  140.0260   73.5450  222.3440 N   0  0  0  0  0  0  0  0  0  0  0  0
  140.2620   74.3560  221.1480 C   0  0  0  0  0  0  0  0  0  0  0  0
  140.0930   75.7690  221.4640 C   0  0  0  0  0  0  0  0  0  0  0  0
  139.4530   76.0590  222.5330 O   0  0  0  0  0  0  0  0  0  0  0  0
  140.5630   76.8640  220.7090 N   0  0  0  0  0  0  0  0  0  0  0  0
  139.7530   77.4640  219.6330 C   0  0  0  0  0  0  0  0  0  0  0  0
  140.8750   77.5410  218.5760 C   0  0  0  0  0  0  0  0  0  0  0  0
  141.8570   78.3720  219.4140 C   0  0  0  0  0  0  0  0  0  0  0  0
  141.7900   77.6120  220.7460 C   0  0  1  0  0  0  0  0  0  0  0  0
  141.8280   78.6670  221.7920 C   0  0  0  0  0  0  0  0  0  0  0  0
  141.4970   78.3790  223.1240 C   0  0  0  0  0  0  0  0  0  0  0  0
  141.5370   79.3470  224.1070 C   0  0  0  0  0  0  0  0  0  0  0  0
  141.9080   80.6420  223.8070 C   0  0  0  0  0  0  0  0  0  0  0  0
  142.2290   80.8820  222.4710 C   0  0  0  0  0  0  0  0  0  0  0  0
  142.1810   79.9230  221.5370 N   0  0  0  0  0  0  0  0  0  0  0  0
  140.2780   71.4200  223.6170 C   0  0  0  0  0  0  0  0  0  0  0  0
  139.6220   70.2110  223.5390 C   0  0  0  0  0  0  0  0  0  0  0  0
  139.3680   69.4420  224.6620 C   0  0  0  0  0  0  0  0  0  0  0  0
  139.7970   69.9300  225.8820 C   0  0  0  0  0  0  0  0  0  0  0  0
  139.5790   69.2230  227.0330 C   0  0  0  0  0  0  0  0  0  0  0  0
  140.0210   69.7330  228.2560 C   0  0  0  0  0  0  0  0  0  0  0  0
  140.6700   70.9420  228.2900 C   0  0  0  0  0  0  0  0  0  0  0  0
  140.9010   71.6740  227.1370 C   0  0  0  0  0  0  0  0  0  0  0  0
  140.4510   71.1420  225.9380 C   0  0  0  0  0  0  0  0  0  0  0  0
  140.6880   71.8740  224.8360 N   0  0  0  0  0  0  0  0  0  0  0  0
  139.5000   73.8980  223.1720 H   0  0  0  0  0  0  0  0  0  0  0  0
  141.2865   74.1833  220.7868 H   0  0  0  0  0  0  0  0  0  0  0  0
  139.5395   74.0707  220.3692 H   0  0  0  0  0  0  0  0  0  0  0  0
  138.9225   76.8146  219.3190 H   0  0  0  0  0  0  0  0  0  0  0  0
  139.2353   78.4047  219.8718 H   0  0  0  0  0  0  0  0  0  0  0  0
  141.2767   76.5509  218.3145 H   0  0  0  0  0  0  0  0  0  0  0  0
  140.5995   77.9463  217.5912 H   0  0  0  0  0  0  0  0  0  0  0  0
  142.8707   78.3570  218.9871 H   0  0  0  0  0  0  0  0  0  0  0  0
  141.6140   79.4427  219.4815 H   0  0  0  0  0  0  0  0  0  0  0  0
  142.6053   76.9003  220.9431 H   0  0  0  0  0  0  0  0  0  0  0  0
  141.1977   77.3551  223.3923 H   0  0  0  0  0  0  0  0  0  0  0  0
  141.2702   79.0834  225.1411 H   0  0  0  0  0  0  0  0  0  0  0  0
  141.9479   81.4325  224.5709 H   0  0  0  0  0  0  0  0  0  0  0  0
  142.5328   81.8964  222.1733 H   0  0  0  0  0  0  0  0  0  0  0  0
  139.2903   69.8460  222.5558 H   0  0  0  0  0  0  0  0  0  0  0  0
  138.8439   68.4779  224.5861 H   0  0  0  0  0  0  0  0  0  0  0  0
  139.0570   68.2555  226.9953 H   0  0  0  0  0  0  0  0  0  0  0  0
  139.8502   69.1697  229.1853 H   0  0  0  0  0  0  0  0  0  0  0  0
  141.0149   71.3391  229.2561 H   0  0  0  0  0  0  0  0  0  0  0  0
  141.4224   72.6420  227.1712 H   0  0  0  0  0  0  0  0  0  0  0  0
  1  2  2  0
  2  3  1  0
  3  4  1  0
  4  5  1  0
  5  6  2  0
  5  7  1  0
  7  8  1  0
  8  9  1  0
  9 10  1  0
 10 11  1  0
 11 12  1  0
 12 13  2  0
 13 14  1  0
 14 15  2  0
 15 16  1  0
 16 17  2  0
  2 18  1  0
 18 19  2  0
 19 20  1  0
 20 21  2  0
 21 22  1  0
 22 23  2  0
 23 24  1  0
 24 25  2  0
 25 26  1  0
 26 27  2  0
 11  7  1  0
 17 12  1  0
 27 18  1  0
 26 21  1  0
  3 28  1  0
  4 29  1  0
  4 30  1  0
  8 31  1  0
  8 32  1  0
  9 33  1  0
  9 34  1  0
 10 35  1  0
 10 36  1  0
 11 37  1  1
 13 38  1  0
 14 39  1  0
 15 40  1  0
 16 41  1  0
 19 42  1  0
 20 43  1  0
 22 44  1  0
 23 45  1  0
 24 46  1  0
 25 47  1  0
M  END
>  <smiles>  (67) 
O=C(NCC(=O)N1CCCC1c1ccccn1)c1ccc2ccccc2n1

>  <score_type>  (67) 
oracle

>  <origin>  (67) 
autodockgpu

>  <m_score__min__energy>  (67) 
-8.7100000000000009

>  <m_primary>  (67) 
energy

>  <rmsd>  (67) 
2.473956729736004

>  <m_score__min__rmsd>  (67) 
2.473956729736004

>  <meeko>  (67) 
{"free_energy": -8.64, "intermolecular_energy": -10.13, "internal_energy": -1.78, "cluster_size": 32, "cluster_id": 2, "rank_in_cluster": 3}

>  <energy>  (67) 
-8.59

>  <cluster_rmsd>  (67) 
1.27

>  <cluster>  (67) 
2

$$$$

     RDKit          3D

 47 50  0  0  0  0  0  0  0  0999 V2000
  140.3800   71.6470  221.1320 O   0  0  0  0  0  0  0  0  0  0  0  0
  140.0900   72.2080  222.2190 C   0  0  0  0  0  0  0  0  0  0  0  0
  139.8030   73.6010  222.3280 N   0  0  0  0  0  0  0  0  0  0  0  0
  139.8450   74.4400  221.1280 C   0  0  0  0  0  0  0  0  0  0  0  0
  140.1530   75.8160  221.4950 C   0  0  0  0  0  0  0  0  0  0  0  0
  139.9740   76.1520  222.7160 O   0  0  0  0  0  0  0  0  0  0  0  0
  140.6300   76.8310  220.6380 N   0  0  0  0  0  0  0  0  0  0  0  0
  139.8500   77.2890  219.4750 C   0  0  0  0  0  0  0  0  0  0  0  0
  141.0080   77.2720  218.4550 C   0  0  0  0  0  0  0  0  0  0  0  0
  141.9440   78.2130  219.2280 C   0  0  0  0  0  0  0  0  0  0  0  0
  141.8420   77.6050  220.6330 C   0  0  1  0  0  0  0  0  0  0  0  0
  141.8220   78.7700  221.5560 C   0  0  0  0  0  0  0  0  0  0  0  0
  141.8170   78.5930  222.9460 C   0  0  0  0  0  0  0  0  0  0  0  0
  141.8080   79.6670  223.8140 C   0  0  0  0  0  0  0  0  0  0  0  0
  141.8050   80.9610  223.3350 C   0  0  0  0  0  0  0  0  0  0  0  0
  141.8110   81.0880  221.9460 C   0  0  0  0  0  0  0  0  0  0  0  0
  141.8190   80.0280  221.1270 N   0  0  0  0  0  0  0  0  0  0  0  0
  140.0400   71.3890  223.4460 C   0  0  0  0  0  0  0  0  0  0  0  0
  139.5330   70.1080  223.4090 C   0  0  0  0  0  0  0  0  0  0  0  0
  139.4720   69.3120  224.5400 C   0  0  0  0  0  0  0  0  0  0  0  0
  139.9410   69.8470  225.7250 C   0  0  0  0  0  0  0  0  0  0  0  0
  139.9110   69.1180  226.8820 C   0  0  0  0  0  0  0  0  0  0  0  0
  140.3900   69.6770  228.0690 C   0  0  0  0  0  0  0  0  0  0  0  0
  140.8870   70.9560  228.0620 C   0  0  0  0  0  0  0  0  0  0  0  0
  140.9270   71.7130  226.9020 C   0  0  0  0  0  0  0  0  0  0  0  0
  140.4440   71.1310  225.7400 C   0  0  0  0  0  0  0  0  0  0  0  0
  140.4950   71.8880  224.6310 N   0  0  0  0  0  0  0  0  0  0  0  0
  139.5730   73.9760  223.2730 H   0  0  0  0  0  0  0  0  0  0  0  0
  140.6208   74.0622  220.4459 H   0  0  0  0  0  0  0  0  0  0  0  0
  138.8646   74.4090  220.6301 H   0  0  0  0  0  0  0  0  0  0  0  0
  139.0432   76.5907  219.2077 H   0  0  0  0  0  0  0  0  0  0  0  0
  139.3075   78.2391  219.5888 H   0  0  0  0  0  0  0  0  0  0  0  0
  141.4366   76.2680  218.3202 H   0  0  0  0  0  0  0  0  0  0  0  0
  140.7614   77.5587  217.4221 H   0  0  0  0  0  0  0  0  0  0  0  0
  142.9727   78.1728  218.8405 H   0  0  0  0  0  0  0  0  0  0  0  0
  141.6796   79.2790  219.1666 H   0  0  0  0  0  0  0  0  0  0  0  0
  142.6627   76.9381  220.9357 H   0  0  0  0  0  0  0  0  0  0  0  0
  141.8203   77.5724  223.3563 H   0  0  0  0  0  0  0  0  0  0  0  0
  141.8032   79.4889  224.8995 H   0  0  0  0  0  0  0  0  0  0  0  0
  141.7983   81.8342  224.0040 H   0  0  0  0  0  0  0  0  0  0  0  0
  141.8091   82.0964  221.5066 H   0  0  0  0  0  0  0  0  0  0  0  0
  139.1661   69.7063  222.4529 H   0  0  0  0  0  0  0  0  0  0  0  0
  139.0651   68.2909  224.4971 H   0  0  0  0  0  0  0  0  0  0  0  0
  139.5104   68.0935  226.8776 H   0  0  0  0  0  0  0  0  0  0  0  0
  140.3690   69.0960  229.0028 H   0  0  0  0  0  0  0  0  0  0  0  0
  141.2627   71.3909  228.9999 H   0  0  0  0  0  0  0  0  0  0  0  0
  141.3271   72.7376  226.9031 H   0  0  0  0  0  0  0  0  0  0  0  0
  1  2  2  0
  2  3  1  0
  3  4  1  0
  4  5  1  0
  5  6  2  0
  5  7  1  0
  7  8  1  0
  8  9  1  0
  9 10  1  0
 10 11  1  0
 11 12  1  0
 12 13  2  0
 13 14  1  0
 14 15  2  0
 15 16  1  0
 16 17  2  0
  2 18  1  0
 18 19  2  0
 19 20  1  0
 20 21  2  0
 21 22  1  0
 22 23  2  0
 23 24  1  0
 24 25  2  0
 25 26  1  0
 26 27  2  0
 11  7  1  0
 17 12  1  0
 27 18  1  0
 26 21  1  0
  3 28  1  0
  4 29  1  0
  4 30  1  0
  8 31  1  0
  8 32  1  0
  9 33  1  0
  9 34  1  0
 10 35  1  0
 10 36  1  0
 11 37  1  1
 13 38  1  0
 14 39  1  0
 15 40  1  0
 16 41  1  0
 19 42  1  0
 20 43  1  0
 22 44  1  0
 23 45  1  0
 24 46  1  0
 25 47  1  0
M  END
>  <smiles>  (68) 
O=C(NCC(=O)N1CCCC1c1ccccn1)c1ccc2ccccc2n1

>  <score_type>  (68) 
oracle

>  <origin>  (68) 
autodockgpu

>  <m_score__min__energy>  (68) 
-8.7100000000000009

>  <m_primary>  (68) 
energy

>  <rmsd>  (68) 
2.3038947283193525

>  <m_score__min__rmsd>  (68) 
2.3038947283193525

>  <meeko>  (68) 
{"free_energy": -8.47, "intermolecular_energy": -9.96, "internal_energy": -1.84, "cluster_size": 32, "cluster_id": 2, "rank_in_cluster": 20}

>  <energy>  (68) 
-8.58

>  <cluster_rmsd>  (68) 
1.27

>  <cluster>  (68) 
2

$$$$

     RDKit          3D

 47 50  0  0  0  0  0  0  0  0999 V2000
  140.8630   71.4810  221.3800 O   0  0  0  0  0  0  0  0  0  0  0  0
  140.3670   72.0180  222.4020 C   0  0  0  0  0  0  0  0  0  0  0  0
  139.9760   73.3890  222.4520 N   0  0  0  0  0  0  0  0  0  0  0  0
  140.1530   74.2320  221.2680 C   0  0  0  0  0  0  0  0  0  0  0  0
  139.8770   75.6230  221.6010 C   0  0  0  0  0  0  0  0  0  0  0  0
  139.2430   75.8510  222.6890 O   0  0  0  0  0  0  0  0  0  0  0  0
  140.2340   76.7590  220.8450 N   0  0  0  0  0  0  0  0  0  0  0  0
  139.2680   77.4290  219.9540 C   0  0  0  0  0  0  0  0  0  0  0  0
  140.2020   77.5620  218.7340 C   0  0  0  0  0  0  0  0  0  0  0  0
  141.3230   78.3340  219.4450 C   0  0  0  0  0  0  0  0  0  0  0  0
  141.4620   77.4950  220.7230 C   0  0  1  0  0  0  0  0  0  0  0  0
  141.6890   78.4840  221.8090 C   0  0  0  0  0  0  0  0  0  0  0  0
  142.1380   79.7820  221.5260 C   0  0  0  0  0  0  0  0  0  0  0  0
  142.3430   80.7120  222.5250 C   0  0  0  0  0  0  0  0  0  0  0  0
  142.1090   80.3910  223.8470 C   0  0  0  0  0  0  0  0  0  0  0  0
  141.6630   79.0910  224.0800 C   0  0  0  0  0  0  0  0  0  0  0  0
  141.4740   78.2070  223.0910 N   0  0  0  0  0  0  0  0  0  0  0  0
  140.1760   71.1950  223.6120 C   0  0  0  0  0  0  0  0  0  0  0  0
  139.5930   69.9500  223.5230 C   0  0  0  0  0  0  0  0  0  0  0  0
  139.3990   69.1510  224.6380 C   0  0  0  0  0  0  0  0  0  0  0  0
  139.8130   69.6470  225.8600 C   0  0  0  0  0  0  0  0  0  0  0  0
  139.6530   68.9120  227.0030 C   0  0  0  0  0  0  0  0  0  0  0  0
  140.0790   69.4300  228.2280 C   0  0  0  0  0  0  0  0  0  0  0  0
  140.6550   70.6750  228.2720 C   0  0  0  0  0  0  0  0  0  0  0  0
  140.8270   71.4360  227.1270 C   0  0  0  0  0  0  0  0  0  0  0  0
  140.3950   70.8950  225.9260 C   0  0  0  0  0  0  0  0  0  0  0  0
  140.5740   71.6550  224.8330 N   0  0  0  0  0  0  0  0  0  0  0  0
  139.5730   73.7460  223.3450 H   0  0  0  0  0  0  0  0  0  0  0  0
  141.1887   74.1421  220.9084 H   0  0  0  0  0  0  0  0  0  0  0  0
  139.4557   73.9034  220.4833 H   0  0  0  0  0  0  0  0  0  0  0  0
  138.3865   76.8055  219.7436 H   0  0  0  0  0  0  0  0  0  0  0  0
  138.8122   78.3570  220.3296 H   0  0  0  0  0  0  0  0  0  0  0  0
  140.5384   76.5867  218.3524 H   0  0  0  0  0  0  0  0  0  0  0  0
  139.7752   78.0285  217.8339 H   0  0  0  0  0  0  0  0  0  0  0  0
  142.2523   78.3370  218.8565 H   0  0  0  0  0  0  0  0  0  0  0  0
  141.1136   79.4006  219.6137 H   0  0  0  0  0  0  0  0  0  0  0  0
  142.2865   76.7670  220.7406 H   0  0  0  0  0  0  0  0  0  0  0  0
  142.3318   80.0662  220.4812 H   0  0  0  0  0  0  0  0  0  0  0  0
  142.6969   81.7205  222.2648 H   0  0  0  0  0  0  0  0  0  0  0  0
  142.2641   81.1130  224.6623 H   0  0  0  0  0  0  0  0  0  0  0  0
  141.4585   78.7791  225.1149 H   0  0  0  0  0  0  0  0  0  0  0  0
  139.2723   69.5796  222.5381 H   0  0  0  0  0  0  0  0  0  0  0  0
  138.9326   68.1583  224.5540 H   0  0  0  0  0  0  0  0  0  0  0  0
  139.1899   67.9153  226.9571 H   0  0  0  0  0  0  0  0  0  0  0  0
  139.9538   68.8445  229.1508 H   0  0  0  0  0  0  0  0  0  0  0  0
  140.9881   71.0784  229.2396 H   0  0  0  0  0  0  0  0  0  0  0  0
  141.2895   72.4331  227.1694 H   0  0  0  0  0  0  0  0  0  0  0  0
  1  2  2  0
  2  3  1  0
  3  4  1  0
  4  5  1  0
  5  6  2  0
  5  7  1  0
  7  8  1  0
  8  9  1  0
  9 10  1  0
 10 11  1  0
 11 12  1  0
 12 13  2  0
 13 14  1  0
 14 15  2  0
 15 16  1  0
 16 17  2  0
  2 18  1  0
 18 19  2  0
 19 20  1  0
 20 21  2  0
 21 22  1  0
 22 23  2  0
 23 24  1  0
 24 25  2  0
 25 26  1  0
 26 27  2  0
 11  7  1  0
 17 12  1  0
 27 18  1  0
 26 21  1  0
  3 28  1  0
  4 29  1  0
  4 30  1  0
  8 31  1  0
  8 32  1  0
  9 33  1  0
  9 34  1  0
 10 35  1  0
 10 36  1  0
 11 37  1  6
 13 38  1  0
 14 39  1  0
 15 40  1  0
 16 41  1  0
 19 42  1  0
 20 43  1  0
 22 44  1  0
 23 45  1  0
 24 46  1  0
 25 47  1  0
M  END
>  <smiles>  (69) 
O=C(NCC(=O)N1CCCC1c1ccccn1)c1ccc2ccccc2n1

>  <score_type>  (69) 
oracle

>  <origin>  (69) 
autodockgpu

>  <m_score__min__energy>  (69) 
-8.7100000000000009

>  <m_primary>  (69) 
energy

>  <rmsd>  (69) 
1.9275930123551264

>  <m_score__min__rmsd>  (69) 
1.9275930123551264

>  <meeko>  (69) 
{"free_energy": -8.43, "intermolecular_energy": -9.93, "internal_energy": -1.85, "cluster_size": 32, "cluster_id": 2, "rank_in_cluster": 23}

>  <energy>  (69) 
-8.58

>  <cluster_rmsd>  (69) 
1.29

>  <cluster>  (69) 
2

$$$$

     RDKit          3D

 47 50  0  0  0  0  0  0  0  0999 V2000
  137.2800   76.1860  222.3440 O   0  0  0  0  0  0  0  0  0  0  0  0
  138.5320   76.2730  222.4260 C   0  0  0  0  0  0  0  0  0  0  0  0
  139.4050   75.1570  222.2580 N   0  0  0  0  0  0  0  0  0  0  0  0
  138.8380   73.8370  221.9770 C   0  0  0  0  0  0  0  0  0  0  0  0
  139.7910   72.7980  222.3480 C   0  0  0  0  0  0  0  0  0  0  0  0
  141.0310   73.1080  222.3360 O   0  0  0  0  0  0  0  0  0  0  0  0
  139.4890   71.4710  222.7230 N   0  0  0  0  0  0  0  0  0  0  0  0
  139.9380   70.3210  221.9170 C   0  0  0  0  0  0  0  0  0  0  0  0
  138.5940   69.5630  221.9100 C   0  0  0  0  0  0  0  0  0  0  0  0
  138.4280   69.4730  223.4340 C   0  0  0  0  0  0  0  0  0  0  0  0
  138.7570   70.9190  223.8290 C   0  0  1  0  0  0  0  0  0  0  0  0
  139.5460   70.8050  225.0840 C   0  0  0  0  0  0  0  0  0  0  0  0
  139.3790   69.7140  225.9480 C   0  0  0  0  0  0  0  0  0  0  0  0
  140.1130   69.5920  227.1110 C   0  0  0  0  0  0  0  0  0  0  0  0
  141.0440   70.5490  227.4630 C   0  0  0  0  0  0  0  0  0  0  0  0
  141.1750   71.6140  226.5730 C   0  0  0  0  0  0  0  0  0  0  0  0
  140.4490   71.7080  225.4500 N   0  0  0  0  0  0  0  0  0  0  0  0
  139.1330   77.5910  222.7090 C   0  0  0  0  0  0  0  0  0  0  0  0
  138.3310   78.6900  222.9270 C   0  0  0  0  0  0  0  0  0  0  0  0
  138.8620   79.9410  223.1950 C   0  0  0  0  0  0  0  0  0  0  0  0
  140.2380   80.0560  223.2380 C   0  0  0  0  0  0  0  0  0  0  0  0
  140.8310   81.2620  223.4970 C   0  0  0  0  0  0  0  0  0  0  0  0
  142.2240   81.3580  223.5370 C   0  0  0  0  0  0  0  0  0  0  0  0
  142.9850   80.2380  223.3140 C   0  0  0  0  0  0  0  0  0  0  0  0
  142.4060   79.0070  223.0510 C   0  0  0  0  0  0  0  0  0  0  0  0
  141.0210   78.9440  223.0170 C   0  0  0  0  0  0  0  0  0  0  0  0
  140.4880   77.7380  222.7580 N   0  0  0  0  0  0  0  0  0  0  0  0
  140.4300   75.3260  222.3440 H   0  0  0  0  0  0  0  0  0  0  0  0
  137.9124   73.7067  222.5569 H   0  0  0  0  0  0  0  0  0  0  0  0
  138.6177   73.7590  220.9021 H   0  0  0  0  0  0  0  0  0  0  0  0
  140.2611   70.6148  220.9074 H   0  0  0  0  0  0  0  0  0  0  0  0
  140.8134   69.7692  222.2900 H   0  0  0  0  0  0  0  0  0  0  0  0
  137.7879   70.1384  221.4313 H   0  0  0  0  0  0  0  0  0  0  0  0
  138.5641   68.6151  221.3528 H   0  0  0  0  0  0  0  0  0  0  0  0
  137.4013   69.1971  223.7164 H   0  0  0  0  0  0  0  0  0  0  0  0
  139.0507   68.7085  223.9216 H   0  0  0  0  0  0  0  0  0  0  0  0
  137.8980   71.5792  224.0195 H   0  0  0  0  0  0  0  0  0  0  0  0
  138.6448   68.9356  225.6931 H   0  0  0  0  0  0  0  0  0  0  0  0
  139.9542   68.7219  227.7650 H   0  0  0  0  0  0  0  0  0  0  0  0
  141.6419   70.4760  228.3834 H   0  0  0  0  0  0  0  0  0  0  0  0
  141.9019   72.4075  226.8010 H   0  0  0  0  0  0  0  0  0  0  0  0
  137.2382   78.5706  222.8871 H   0  0  0  0  0  0  0  0  0  0  0  0
  138.2116   80.8113  223.3673 H   0  0  0  0  0  0  0  0  0  0  0  0
  140.2119   82.1540  223.6733 H   0  0  0  0  0  0  0  0  0  0  0  0
  142.7072   82.3239  223.7457 H   0  0  0  0  0  0  0  0  0  0  0  0
  144.0815   80.3195  223.3448 H   0  0  0  0  0  0  0  0  0  0  0  0
  143.0221   78.1127  222.8756 H   0  0  0  0  0  0  0  0  0  0  0  0
  1  2  2  0
  2  3  1  0
  3  4  1  0
  4  5  1  0
  5  6  2  0
  5  7  1  0
  7  8  1  0
  8  9  1  0
  9 10  1  0
 10 11  1  0
 11 12  1  0
 12 13  2  0
 13 14  1  0
 14 15  2  0
 15 16  1  0
 16 17  2  0
  2 18  1  0
 18 19  2  0
 19 20  1  0
 20 21  2  0
 21 22  1  0
 22 23  2  0
 23 24  1  0
 24 25  2  0
 25 26  1  0
 26 27  2  0
 11  7  1  0
 17 12  1  0
 27 18  1  0
 26 21  1  0
  3 28  1  0
  4 29  1  0
  4 30  1  0
  8 31  1  0
  8 32  1  0
  9 33  1  0
  9 34  1  0
 10 35  1  0
 10 36  1  0
 11 37  1  1
 13 38  1  0
 14 39  1  0
 15 40  1  0
 16 41  1  0
 19 42  1  0
 20 43  1  0
 22 44  1  0
 23 45  1  0
 24 46  1  0
 25 47  1  0
M  END
>  <smiles>  (70) 
O=C(NCC(=O)N1CCCC1c1ccccn1)c1ccc2ccccc2n1

>  <score_type>  (70) 
oracle

>  <origin>  (70) 
autodockgpu

>  <m_score__min__energy>  (70) 
-8.7100000000000009

>  <m_primary>  (70) 
energy

>  <rmsd>  (70) 
9.185397867129854

>  <m_score__min__rmsd>  (70) 
9.185397867129854

>  <meeko>  (70) 
{"free_energy": -7.88, "intermolecular_energy": -9.37, "internal_energy": -2.01, "cluster_size": 32, "cluster_id": 2, "rank_in_cluster": 31}

>  <energy>  (70) 
-8.57

>  <cluster_rmsd>  (70) 
1.27

>  <cluster>  (70) 
2

$$$$

     RDKit          3D

 47 50  0  0  0  0  0  0  0  0999 V2000
  140.8350   71.5510  221.3340 O   0  0  0  0  0  0  0  0  0  0  0  0
  140.3630   72.1240  222.3490 C   0  0  0  0  0  0  0  0  0  0  0  0
  139.9480   73.4890  222.3540 N   0  0  0  0  0  0  0  0  0  0  0  0
  140.0690   74.2820  221.1290 C   0  0  0  0  0  0  0  0  0  0  0  0
  140.1340   75.7000  221.4600 C   0  0  0  0  0  0  0  0  0  0  0  0
  139.7260   76.0510  222.6200 O   0  0  0  0  0  0  0  0  0  0  0  0
  140.6000   76.7400  220.6280 N   0  0  0  0  0  0  0  0  0  0  0  0
  139.7980   77.2430  219.4980 C   0  0  0  0  0  0  0  0  0  0  0  0
  140.9340   77.2530  218.4540 C   0  0  0  0  0  0  0  0  0  0  0  0
  141.8930   78.1600  219.2370 C   0  0  0  0  0  0  0  0  0  0  0  0
  141.8170   77.5050  220.6230 C   0  0  1  0  0  0  0  0  0  0  0  0
  141.8260   78.6380  221.5850 C   0  0  0  0  0  0  0  0  0  0  0  0
  141.5330   78.4390  222.9410 C   0  0  0  0  0  0  0  0  0  0  0  0
  141.5480   79.4820  223.8460 C   0  0  0  0  0  0  0  0  0  0  0  0
  141.8540   80.7650  223.4400 C   0  0  0  0  0  0  0  0  0  0  0  0
  142.1390   80.9140  222.0830 C   0  0  0  0  0  0  0  0  0  0  0  0
  142.1170   79.8850  221.2260 N   0  0  0  0  0  0  0  0  0  0  0  0
  140.2290   71.3510  223.5990 C   0  0  0  0  0  0  0  0  0  0  0  0
  139.6330   70.1080  223.5900 C   0  0  0  0  0  0  0  0  0  0  0  0
  139.4910   69.3560  224.7440 C   0  0  0  0  0  0  0  0  0  0  0  0
  139.9720   69.8950  225.9220 C   0  0  0  0  0  0  0  0  0  0  0  0
  139.8650   69.2070  227.1000 C   0  0  0  0  0  0  0  0  0  0  0  0
  140.3580   69.7680  228.2800 C   0  0  0  0  0  0  0  0  0  0  0  0
  140.9450   71.0080  228.2450 C   0  0  0  0  0  0  0  0  0  0  0  0
  141.0640   71.7220  227.0640 C   0  0  0  0  0  0  0  0  0  0  0  0
  140.5650   71.1390  225.9090 C   0  0  0  0  0  0  0  0  0  0  0  0
  140.6940   71.8540  224.7780 N   0  0  0  0  0  0  0  0  0  0  0  0
  139.5690   73.8770  223.2440 H   0  0  0  0  0  0  0  0  0  0  0  0
  140.9850   73.9899  220.5945 H   0  0  0  0  0  0  0  0  0  0  0  0
  139.1917   74.0990  220.4911 H   0  0  0  0  0  0  0  0  0  0  0  0
  138.9806   76.5596  219.2245 H   0  0  0  0  0  0  0  0  0  0  0  0
  139.2647   78.1921  219.6556 H   0  0  0  0  0  0  0  0  0  0  0  0
  141.3520   76.2512  218.2762 H   0  0  0  0  0  0  0  0  0  0  0  0
  140.6676   77.5766  217.4370 H   0  0  0  0  0  0  0  0  0  0  0  0
  142.9127   78.1259  218.8258 H   0  0  0  0  0  0  0  0  0  0  0  0
  141.6354   79.2292  219.2176 H   0  0  0  0  0  0  0  0  0  0  0  0
  142.6389   76.8225  220.8851 H   0  0  0  0  0  0  0  0  0  0  0  0
  141.2849   77.4269  223.2932 H   0  0  0  0  0  0  0  0  0  0  0  0
  141.3133   79.2879  224.9030 H   0  0  0  0  0  0  0  0  0  0  0  0
  141.8719   81.6134  224.1399 H   0  0  0  0  0  0  0  0  0  0  0  0
  142.3914   81.9146  221.7021 H   0  0  0  0  0  0  0  0  0  0  0  0
  139.2594   69.7018  222.6385 H   0  0  0  0  0  0  0  0  0  0  0  0
  139.0127   68.3656  224.7238 H   0  0  0  0  0  0  0  0  0  0  0  0
  139.3917   68.2142  227.1175 H   0  0  0  0  0  0  0  0  0  0  0  0
  140.2764   69.2201  229.2304 H   0  0  0  0  0  0  0  0  0  0  0  0
  141.3305   71.4456  229.1777 H   0  0  0  0  0  0  0  0  0  0  0  0
  141.5369   72.7149  227.0431 H   0  0  0  0  0  0  0  0  0  0  0  0
  1  2  2  0
  2  3  1  0
  3  4  1  0
  4  5  1  0
  5  6  2  0
  5  7  1  0
  7  8  1  0
  8  9  1  0
  9 10  1  0
 10 11  1  0
 11 12  1  0
 12 13  2  0
 13 14  1  0
 14 15  2  0
 15 16  1  0
 16 17  2  0
  2 18  1  0
 18 19  2  0
 19 20  1  0
 20 21  2  0
 21 22  1  0
 22 23  2  0
 23 24  1  0
 24 25  2  0
 25 26  1  0
 26 27  2  0
 11  7  1  0
 17 12  1  0
 27 18  1  0
 26 21  1  0
  3 28  1  0
  4 29  1  0
  4 30  1  0
  8 31  1  0
  8 32  1  0
  9 33  1  0
  9 34  1  0
 10 35  1  0
 10 36  1  0
 11 37  1  1
 13 38  1  0
 14 39  1  0
 15 40  1  0
 16 41  1  0
 19 42  1  0
 20 43  1  0
 22 44  1  0
 23 45  1  0
 24 46  1  0
 25 47  1  0
M  END
>  <smiles>  (71) 
O=C(NCC(=O)N1CCCC1c1ccccn1)c1ccc2ccccc2n1

>  <score_type>  (71) 
oracle

>  <origin>  (71) 
autodockgpu

>  <m_score__min__energy>  (71) 
-8.7100000000000009

>  <m_primary>  (71) 
energy

>  <rmsd>  (71) 
2.3423955317701473

>  <m_score__min__rmsd>  (71) 
2.3423955317701473

>  <meeko>  (71) 
{"free_energy": -8.61, "intermolecular_energy": -10.1, "internal_energy": -1.78, "cluster_size": 32, "cluster_id": 2, "rank_in_cluster": 7}

>  <energy>  (71) 
-8.55

>  <cluster_rmsd>  (71) 
1.27

>  <cluster>  (71) 
2

$$$$

     RDKit          3D

 47 50  0  0  0  0  0  0  0  0999 V2000
  140.8530   71.5180  221.3220 O   0  0  0  0  0  0  0  0  0  0  0  0
  140.3530   72.0610  222.3390 C   0  0  0  0  0  0  0  0  0  0  0  0
  139.9590   73.4320  222.3800 N   0  0  0  0  0  0  0  0  0  0  0  0
  140.1390   74.2670  221.1920 C   0  0  0  0  0  0  0  0  0  0  0  0
  140.1150   75.6750  221.5660 C   0  0  0  0  0  0  0  0  0  0  0  0
  139.6300   75.9700  222.7120 O   0  0  0  0  0  0  0  0  0  0  0  0
  140.5710   76.7630  220.7900 N   0  0  0  0  0  0  0  0  0  0  0  0
  139.7540   77.3320  219.7030 C   0  0  0  0  0  0  0  0  0  0  0  0
  140.8760   77.4030  218.6460 C   0  0  0  0  0  0  0  0  0  0  0  0
  141.8480   78.2620  219.4680 C   0  0  0  0  0  0  0  0  0  0  0  0
  141.7890   77.5260  220.8130 C   0  0  1  0  0  0  0  0  0  0  0  0
  141.8140   78.6000  221.8400 C   0  0  0  0  0  0  0  0  0  0  0  0
  142.1920   79.9090  221.5110 C   0  0  0  0  0  0  0  0  0  0  0  0
  142.2100   80.9180  222.4540 C   0  0  0  0  0  0  0  0  0  0  0  0
  141.8510   80.6660  223.7630 C   0  0  0  0  0  0  0  0  0  0  0  0
  141.4820   79.3510  224.0430 C   0  0  0  0  0  0  0  0  0  0  0  0
  141.4750   78.3910  223.1090 N   0  0  0  0  0  0  0  0  0  0  0  0
  140.1590   71.2450  223.5540 C   0  0  0  0  0  0  0  0  0  0  0  0
  139.5670   70.0030  223.4720 C   0  0  0  0  0  0  0  0  0  0  0  0
  139.3710   69.2100  224.5910 C   0  0  0  0  0  0  0  0  0  0  0  0
  139.7900   69.7090  225.8090 C   0  0  0  0  0  0  0  0  0  0  0  0
  139.6270   68.9800  226.9560 C   0  0  0  0  0  0  0  0  0  0  0  0
  140.0590   69.5010  228.1780 C   0  0  0  0  0  0  0  0  0  0  0  0
  140.6430   70.7430  228.2150 C   0  0  0  0  0  0  0  0  0  0  0  0
  140.8190   71.4970  227.0670 C   0  0  0  0  0  0  0  0  0  0  0  0
  140.3800   70.9530  225.8690 C   0  0  0  0  0  0  0  0  0  0  0  0
  140.5620   71.7080  224.7720 N   0  0  0  0  0  0  0  0  0  0  0  0
  139.5530   73.7930  223.2700 H   0  0  0  0  0  0  0  0  0  0  0  0
  141.1058   74.0307  220.7234 H   0  0  0  0  0  0  0  0  0  0  0  0
  139.3226   74.0673  220.4824 H   0  0  0  0  0  0  0  0  0  0  0  0
  138.9321   76.6662  219.4009 H   0  0  0  0  0  0  0  0  0  0  0  0
  139.2238   78.2702  219.9235 H   0  0  0  0  0  0  0  0  0  0  0  0
  141.2899   76.4131  218.4036 H   0  0  0  0  0  0  0  0  0  0  0  0
  140.5960   77.7866  217.6538 H   0  0  0  0  0  0  0  0  0  0  0  0
  142.8620   78.2511  219.0417 H   0  0  0  0  0  0  0  0  0  0  0  0
  141.5928   79.3310  219.5151 H   0  0  0  0  0  0  0  0  0  0  0  0
  142.6127   76.8277  221.0226 H   0  0  0  0  0  0  0  0  0  0  0  0
  142.4818   80.1386  220.4750 H   0  0  0  0  0  0  0  0  0  0  0  0
  142.5136   81.9332  222.1589 H   0  0  0  0  0  0  0  0  0  0  0  0
  141.8558   81.4506  224.5339 H   0  0  0  0  0  0  0  0  0  0  0  0
  141.1853   79.0920  225.0701 H   0  0  0  0  0  0  0  0  0  0  0  0
  139.2407   69.6306  222.4897 H   0  0  0  0  0  0  0  0  0  0  0  0
  138.8991   68.2195  224.5124 H   0  0  0  0  0  0  0  0  0  0  0  0
  139.1570   67.9863  226.9156 H   0  0  0  0  0  0  0  0  0  0  0  0
  139.9322   68.9205  229.1037 H   0  0  0  0  0  0  0  0  0  0  0  0
  140.9794   71.1491  229.1804 H   0  0  0  0  0  0  0  0  0  0  0  0
  141.2895   72.4906  227.1038 H   0  0  0  0  0  0  0  0  0  0  0  0
  1  2  2  0
  2  3  1  0
  3  4  1  0
  4  5  1  0
  5  6  2  0
  5  7  1  0
  7  8  1  0
  8  9  1  0
  9 10  1  0
 10 11  1  0
 11 12  1  0
 12 13  2  0
 13 14  1  0
 14 15  2  0
 15 16  1  0
 16 17  2  0
  2 18  1  0
 18 19  2  0
 19 20  1  0
 20 21  2  0
 21 22  1  0
 22 23  2  0
 23 24  1  0
 24 25  2  0
 25 26  1  0
 26 27  2  0
 11  7  1  0
 17 12  1  0
 27 18  1  0
 26 21  1  0
  3 28  1  0
  4 29  1  0
  4 30  1  0
  8 31  1  0
  8 32  1  0
  9 33  1  0
  9 34  1  0
 10 35  1  0
 10 36  1  0
 11 37  1  1
 13 38  1  0
 14 39  1  0
 15 40  1  0
 16 41  1  0
 19 42  1  0
 20 43  1  0
 22 44  1  0
 23 45  1  0
 24 46  1  0
 25 47  1  0
M  END
>  <smiles>  (72) 
O=C(NCC(=O)N1CCCC1c1ccccn1)c1ccc2ccccc2n1

>  <score_type>  (72) 
oracle

>  <origin>  (72) 
autodockgpu

>  <m_score__min__energy>  (72) 
-8.7100000000000009

>  <m_primary>  (72) 
energy

>  <rmsd>  (72) 
1.9080619249252628

>  <m_score__min__rmsd>  (72) 
1.9080619249252628

>  <meeko>  (72) 
{"free_energy": -8.55, "intermolecular_energy": -10.05, "internal_energy": -1.81, "cluster_size": 32, "cluster_id": 2, "rank_in_cluster": 14}

>  <energy>  (72) 
-8.55

>  <cluster_rmsd>  (72) 
1.28

>  <cluster>  (72) 
2

$$$$

     RDKit          3D

 47 50  0  0  0  0  0  0  0  0999 V2000
  140.9380   71.5310  221.3480 O   0  0  0  0  0  0  0  0  0  0  0  0
  140.3960   72.0580  222.3520 C   0  0  0  0  0  0  0  0  0  0  0  0
  139.9600   73.4160  222.3830 N   0  0  0  0  0  0  0  0  0  0  0  0
  140.1450   74.2570  221.1990 C   0  0  0  0  0  0  0  0  0  0  0  0
  140.0910   75.6640  221.5750 C   0  0  0  0  0  0  0  0  0  0  0  0
  139.5860   75.9470  222.7150 O   0  0  0  0  0  0  0  0  0  0  0  0
  140.5390   76.7600  220.8080 N   0  0  0  0  0  0  0  0  0  0  0  0
  139.7500   77.2850  219.6780 C   0  0  0  0  0  0  0  0  0  0  0  0
  140.9140   77.3900  218.6710 C   0  0  0  0  0  0  0  0  0  0  0  0
  141.8130   78.2960  219.5260 C   0  0  0  0  0  0  0  0  0  0  0  0
  141.7230   77.5720  220.8760 C   0  0  1  0  0  0  0  0  0  0  0  0
  141.6580   78.6570  221.8900 C   0  0  0  0  0  0  0  0  0  0  0  0
  140.6140   78.7150  222.8240 C   0  0  0  0  0  0  0  0  0  0  0  0
  140.5470   79.7120  223.7760 C   0  0  0  0  0  0  0  0  0  0  0  0
  141.5160   80.6930  223.8400 C   0  0  0  0  0  0  0  0  0  0  0  0
  142.5340   80.5950  222.8920 C   0  0  0  0  0  0  0  0  0  0  0  0
  142.5740   79.6170  221.9780 N   0  0  0  0  0  0  0  0  0  0  0  0
  140.1970   71.2360  223.5620 C   0  0  0  0  0  0  0  0  0  0  0  0
  139.5840   70.0050  223.4750 C   0  0  0  0  0  0  0  0  0  0  0  0
  139.3820   69.2070  224.5890 C   0  0  0  0  0  0  0  0  0  0  0  0
  139.8190   69.6890  225.8090 C   0  0  0  0  0  0  0  0  0  0  0  0
  139.6520   68.9550  226.9510 C   0  0  0  0  0  0  0  0  0  0  0  0
  140.1010   69.4590  228.1730 C   0  0  0  0  0  0  0  0  0  0  0  0
  140.7060   70.6900  228.2160 C   0  0  0  0  0  0  0  0  0  0  0  0
  140.8860   71.4500  227.0720 C   0  0  0  0  0  0  0  0  0  0  0  0
  140.4300   70.9230  225.8730 C   0  0  0  0  0  0  0  0  0  0  0  0
  140.6170   71.6830  224.7800 N   0  0  0  0  0  0  0  0  0  0  0  0
  139.5210   73.7650  223.2620 H   0  0  0  0  0  0  0  0  0  0  0  0
  141.1231   74.0382  220.7457 H   0  0  0  0  0  0  0  0  0  0  0  0
  139.3435   74.0449  220.4761 H   0  0  0  0  0  0  0  0  0  0  0  0
  138.9694   76.5839  219.3477 H   0  0  0  0  0  0  0  0  0  0  0  0
  139.1742   78.2038  219.8635 H   0  0  0  0  0  0  0  0  0  0  0  0
  141.3774   76.4152  218.4591 H   0  0  0  0  0  0  0  0  0  0  0  0
  140.6641   77.7516  217.6626 H   0  0  0  0  0  0  0  0  0  0  0  0
  142.8448   78.3219  219.1456 H   0  0  0  0  0  0  0  0  0  0  0  0
  141.5131   79.3541  219.5490 H   0  0  0  0  0  0  0  0  0  0  0  0
  142.5638   76.9101  221.1306 H   0  0  0  0  0  0  0  0  0  0  0  0
  139.8279   77.9460  222.7974 H   0  0  0  0  0  0  0  0  0  0  0  0
  139.7119   79.7250  224.4919 H   0  0  0  0  0  0  0  0  0  0  0  0
  141.4871   81.4983  224.5888 H   0  0  0  0  0  0  0  0  0  0  0  0
  143.3344   81.3495  222.8951 H   0  0  0  0  0  0  0  0  0  0  0  0
  139.2452   69.6455  222.4922 H   0  0  0  0  0  0  0  0  0  0  0  0
  138.8919   68.2257  224.5061 H   0  0  0  0  0  0  0  0  0  0  0  0
  139.1649   67.9697  226.9067 H   0  0  0  0  0  0  0  0  0  0  0  0
  139.9707   68.8734  229.0950 H   0  0  0  0  0  0  0  0  0  0  0  0
  141.0564   71.0826  229.1820 H   0  0  0  0  0  0  0  0  0  0  0  0
  141.3729   72.4355  227.1131 H   0  0  0  0  0  0  0  0  0  0  0  0
  1  2  2  0
  2  3  1  0
  3  4  1  0
  4  5  1  0
  5  6  2  0
  5  7  1  0
  7  8  1  0
  8  9  1  0
  9 10  1  0
 10 11  1  0
 11 12  1  0
 12 13  2  0
 13 14  1  0
 14 15  2  0
 15 16  1  0
 16 17  2  0
  2 18  1  0
 18 19  2  0
 19 20  1  0
 20 21  2  0
 21 22  1  0
 22 23  2  0
 23 24  1  0
 24 25  2  0
 25 26  1  0
 26 27  2  0
 11  7  1  0
 17 12  1  0
 27 18  1  0
 26 21  1  0
  3 28  1  0
  4 29  1  0
  4 30  1  0
  8 31  1  0
  8 32  1  0
  9 33  1  0
  9 34  1  0
 10 35  1  0
 10 36  1  0
 11 37  1  1
 13 38  1  0
 14 39  1  0
 15 40  1  0
 16 41  1  0
 19 42  1  0
 20 43  1  0
 22 44  1  0
 23 45  1  0
 24 46  1  0
 25 47  1  0
M  END
>  <smiles>  (73) 
O=C(NCC(=O)N1CCCC1c1ccccn1)c1ccc2ccccc2n1

>  <score_type>  (73) 
oracle

>  <origin>  (73) 
autodockgpu

>  <m_score__min__energy>  (73) 
-8.7100000000000009

>  <m_primary>  (73) 
energy

>  <rmsd>  (73) 
2.2877722380838432

>  <m_score__min__rmsd>  (73) 
2.2877722380838432

>  <meeko>  (73) 
{"free_energy": -8.46, "intermolecular_energy": -9.95, "internal_energy": -1.76, "cluster_size": 32, "cluster_id": 2, "rank_in_cluster": 21}

>  <energy>  (73) 
-8.54

>  <cluster_rmsd>  (73) 
0.76

>  <cluster>  (73) 
2

$$$$

     RDKit          3D

 47 50  0  0  0  0  0  0  0  0999 V2000
  140.9290   71.6310  221.3460 O   0  0  0  0  0  0  0  0  0  0  0  0
  140.3970   72.1780  222.3450 C   0  0  0  0  0  0  0  0  0  0  0  0
  139.9510   73.5330  222.3500 N   0  0  0  0  0  0  0  0  0  0  0  0
  140.1130   74.3470  221.1440 C   0  0  0  0  0  0  0  0  0  0  0  0
  139.9860   75.7600  221.4780 C   0  0  0  0  0  0  0  0  0  0  0  0
  139.3560   76.0550  222.5520 O   0  0  0  0  0  0  0  0  0  0  0  0
  140.4860   76.8510  220.7360 N   0  0  0  0  0  0  0  0  0  0  0  0
  139.6940   77.4850  219.6660 C   0  0  0  0  0  0  0  0  0  0  0  0
  140.8180   77.5430  218.6120 C   0  0  0  0  0  0  0  0  0  0  0  0
  141.8220   78.3380  219.4600 C   0  0  0  0  0  0  0  0  0  0  0  0
  141.7330   77.5650  220.7820 C   0  0  1  0  0  0  0  0  0  0  0  0
  141.7980   78.6060  221.8410 C   0  0  0  0  0  0  0  0  0  0  0  0
  142.1590   79.9260  221.5380 C   0  0  0  0  0  0  0  0  0  0  0  0
  142.2140   80.9040  222.5100 C   0  0  0  0  0  0  0  0  0  0  0  0
  141.9110   80.6110  223.8250 C   0  0  0  0  0  0  0  0  0  0  0  0
  141.5570   79.2860  224.0780 C   0  0  0  0  0  0  0  0  0  0  0  0
  141.5120   78.3560  223.1150 N   0  0  0  0  0  0  0  0  0  0  0  0
  140.2210   71.3820  223.5760 C   0  0  0  0  0  0  0  0  0  0  0  0
  139.5980   70.1540  223.5290 C   0  0  0  0  0  0  0  0  0  0  0  0
  139.4160   69.3810  224.6640 C   0  0  0  0  0  0  0  0  0  0  0  0
  139.8840   69.8860  225.8630 C   0  0  0  0  0  0  0  0  0  0  0  0
  139.7390   69.1760  227.0240 C   0  0  0  0  0  0  0  0  0  0  0  0
  140.2200   69.7030  228.2250 C   0  0  0  0  0  0  0  0  0  0  0  0
  140.8340   70.9300  228.2280 C   0  0  0  0  0  0  0  0  0  0  0  0
  140.9930   71.6650  227.0640 C   0  0  0  0  0  0  0  0  0  0  0  0
  140.5050   71.1160  225.8870 C   0  0  0  0  0  0  0  0  0  0  0  0
  140.6720   71.8510  224.7750 N   0  0  0  0  0  0  0  0  0  0  0  0
  139.5210   73.8980  223.2270 H   0  0  0  0  0  0  0  0  0  0  0  0
  141.1070   74.1627  220.7105 H   0  0  0  0  0  0  0  0  0  0  0  0
  139.3337   74.0755  220.4167 H   0  0  0  0  0  0  0  0  0  0  0  0
  138.8465   76.8621  219.3440 H   0  0  0  0  0  0  0  0  0  0  0  0
  139.2019   78.4368  219.9149 H   0  0  0  0  0  0  0  0  0  0  0  0
  141.1928   76.5452  218.3400 H   0  0  0  0  0  0  0  0  0  0  0  0
  140.5547   77.9666  217.6316 H   0  0  0  0  0  0  0  0  0  0  0  0
  142.8353   78.3004  219.0335 H   0  0  0  0  0  0  0  0  0  0  0  0
  141.6085   79.4141  219.5395 H   0  0  0  0  0  0  0  0  0  0  0  0
  142.5289   76.8294  220.9705 H   0  0  0  0  0  0  0  0  0  0  0  0
  142.4048   80.1891  220.4986 H   0  0  0  0  0  0  0  0  0  0  0  0
  142.5026   81.9290  222.2341 H   0  0  0  0  0  0  0  0  0  0  0  0
  141.9464   81.3713  224.6192 H   0  0  0  0  0  0  0  0  0  0  0  0
  141.3051   78.9934  225.1080 H   0  0  0  0  0  0  0  0  0  0  0  0
  139.2345   69.7764  222.5619 H   0  0  0  0  0  0  0  0  0  0  0  0
  138.9176   68.4017  224.6133 H   0  0  0  0  0  0  0  0  0  0  0  0
  139.2451   68.1932  227.0115 H   0  0  0  0  0  0  0  0  0  0  0  0
  140.1072   69.1380  229.1621 H   0  0  0  0  0  0  0  0  0  0  0  0
  141.2091   71.3402  229.1772 H   0  0  0  0  0  0  0  0  0  0  0  0
  141.4878   72.6474  227.0729 H   0  0  0  0  0  0  0  0  0  0  0  0
  1  2  2  0
  2  3  1  0
  3  4  1  0
  4  5  1  0
  5  6  2  0
  5  7  1  0
  7  8  1  0
  8  9  1  0
  9 10  1  0
 10 11  1  0
 11 12  1  0
 12 13  2  0
 13 14  1  0
 14 15  2  0
 15 16  1  0
 16 17  2  0
  2 18  1  0
 18 19  2  0
 19 20  1  0
 20 21  2  0
 21 22  1  0
 22 23  2  0
 23 24  1  0
 24 25  2  0
 25 26  1  0
 26 27  2  0
 11  7  1  0
 17 12  1  0
 27 18  1  0
 26 21  1  0
  3 28  1  0
  4 29  1  0
  4 30  1  0
  8 31  1  0
  8 32  1  0
  9 33  1  0
  9 34  1  0
 10 35  1  0
 10 36  1  0
 11 37  1  1
 13 38  1  0
 14 39  1  0
 15 40  1  0
 16 41  1  0
 19 42  1  0
 20 43  1  0
 22 44  1  0
 23 45  1  0
 24 46  1  0
 25 47  1  0
M  END
>  <smiles>  (74) 
O=C(NCC(=O)N1CCCC1c1ccccn1)c1ccc2ccccc2n1

>  <score_type>  (74) 
oracle

>  <origin>  (74) 
autodockgpu

>  <m_score__min__energy>  (74) 
-8.7100000000000009

>  <m_primary>  (74) 
energy

>  <rmsd>  (74) 
1.9608214685257228

>  <m_score__min__rmsd>  (74) 
1.9608214685257228

>  <meeko>  (74) 
{"free_energy": -8.58, "intermolecular_energy": -10.08, "internal_energy": -1.78, "cluster_size": 32, "cluster_id": 2, "rank_in_cluster": 10}

>  <energy>  (74) 
-8.53

>  <cluster_rmsd>  (74) 
1.21

>  <cluster>  (74) 
2

$$$$

     RDKit          3D

 47 50  0  0  0  0  0  0  0  0999 V2000
  139.2630   74.1650  222.3500 O   0  0  0  0  0  0  0  0  0  0  0  0
  140.1980   74.7500  221.7470 C   0  0  0  0  0  0  0  0  0  0  0  0
  140.1890   76.1470  221.4590 N   0  0  0  0  0  0  0  0  0  0  0  0
  139.0450   76.9600  221.8760 C   0  0  0  0  0  0  0  0  0  0  0  0
  139.5070   78.1250  222.6190 C   0  0  0  0  0  0  0  0  0  0  0  0
  138.6980   78.6400  223.4650 O   0  0  0  0  0  0  0  0  0  0  0  0
  140.7640   78.7550  222.5040 N   0  0  0  0  0  0  0  0  0  0  0  0
  141.8180   78.5690  223.5190 C   0  0  0  0  0  0  0  0  0  0  0  0
  142.2050   80.0550  223.6600 C   0  0  0  0  0  0  0  0  0  0  0  0
  142.5360   80.2990  222.1800 C   0  0  0  0  0  0  0  0  0  0  0  0
  141.3160   79.6440  221.5180 C   0  0  1  0  0  0  0  0  0  0  0  0
  141.8550   78.9560  220.3150 C   0  0  0  0  0  0  0  0  0  0  0  0
  142.0500   79.6480  219.1120 C   0  0  0  0  0  0  0  0  0  0  0  0
  142.5580   79.0240  217.9900 C   0  0  0  0  0  0  0  0  0  0  0  0
  142.8950   77.6850  218.0190 C   0  0  0  0  0  0  0  0  0  0  0  0
  142.6840   77.0390  219.2370 C   0  0  0  0  0  0  0  0  0  0  0  0
  142.1880   77.6700  220.3100 N   0  0  0  0  0  0  0  0  0  0  0  0
  141.3650   73.9570  221.3130 C   0  0  0  0  0  0  0  0  0  0  0  0
  141.2520   72.5970  221.1220 C   0  0  0  0  0  0  0  0  0  0  0  0
  142.3270   71.8230  220.7160 C   0  0  0  0  0  0  0  0  0  0  0  0
  143.5330   72.4640  220.5040 C   0  0  0  0  0  0  0  0  0  0  0  0
  144.6360   71.7620  220.1020 C   0  0  0  0  0  0  0  0  0  0  0  0
  145.8460   72.4280  219.8930 C   0  0  0  0  0  0  0  0  0  0  0  0
  145.9150   73.7840  220.0950 C   0  0  0  0  0  0  0  0  0  0  0  0
  144.8110   74.5150  220.5020 C   0  0  0  0  0  0  0  0  0  0  0  0
  143.6240   73.8260  220.7010 C   0  0  0  0  0  0  0  0  0  0  0  0
  142.5690   74.5600  221.0960 N   0  0  0  0  0  0  0  0  0  0  0  0
  141.0100   76.5430  220.9530 H   0  0  0  0  0  0  0  0  0  0  0  0
  138.4901   77.2919  220.9861 H   0  0  0  0  0  0  0  0  0  0  0  0
  138.3889   76.3569  222.5209 H   0  0  0  0  0  0  0  0  0  0  0  0
  141.4296   78.1442  224.4564 H   0  0  0  0  0  0  0  0  0  0  0  0
  142.6289   77.8704  223.2653 H   0  0  0  0  0  0  0  0  0  0  0  0
  141.3689   80.6766  224.0130 H   0  0  0  0  0  0  0  0  0  0  0  0
  142.9943   80.2928  224.3883 H   0  0  0  0  0  0  0  0  0  0  0  0
  142.5983   81.3724  221.9479 H   0  0  0  0  0  0  0  0  0  0  0  0
  143.5079   79.9013  221.8526 H   0  0  0  0  0  0  0  0  0  0  0  0
  140.5125   80.3237  221.1980 H   0  0  0  0  0  0  0  0  0  0  0  0
  141.7916   80.7160  219.0603 H   0  0  0  0  0  0  0  0  0  0  0  0
  142.6958   79.5997  217.0629 H   0  0  0  0  0  0  0  0  0  0  0  0
  143.3024   77.1631  217.1406 H   0  0  0  0  0  0  0  0  0  0  0  0
  142.9343   75.9711  219.3199 H   0  0  0  0  0  0  0  0  0  0  0  0
  140.2803   72.1119  221.2969 H   0  0  0  0  0  0  0  0  0  0  0  0
  142.2244   70.7379  220.5678 H   0  0  0  0  0  0  0  0  0  0  0  0
  144.5703   70.6754  219.9437 H   0  0  0  0  0  0  0  0  0  0  0  0
  146.7369   71.8700  219.5690 H   0  0  0  0  0  0  0  0  0  0  0  0
  146.8707   74.3030  219.9296 H   0  0  0  0  0  0  0  0  0  0  0  0
  144.8735   75.6016  220.6614 H   0  0  0  0  0  0  0  0  0  0  0  0
  1  2  2  0
  2  3  1  0
  3  4  1  0
  4  5  1  0
  5  6  2  0
  5  7  1  0
  7  8  1  0
  8  9  1  0
  9 10  1  0
 10 11  1  0
 11 12  1  0
 12 13  2  0
 13 14  1  0
 14 15  2  0
 15 16  1  0
 16 17  2  0
  2 18  1  0
 18 19  2  0
 19 20  1  0
 20 21  2  0
 21 22  1  0
 22 23  2  0
 23 24  1  0
 24 25  2  0
 25 26  1  0
 26 27  2  0
 11  7  1  0
 17 12  1  0
 27 18  1  0
 26 21  1  0
  3 28  1  0
  4 29  1  0
  4 30  1  0
  8 31  1  0
  8 32  1  0
  9 33  1  0
  9 34  1  0
 10 35  1  0
 10 36  1  0
 11 37  1  6
 13 38  1  0
 14 39  1  0
 15 40  1  0
 16 41  1  0
 19 42  1  0
 20 43  1  0
 22 44  1  0
 23 45  1  0
 24 46  1  0
 25 47  1  0
M  END
>  <smiles>  (75) 
O=C(NCC(=O)N1CCCC1c1ccccn1)c1ccc2ccccc2n1

>  <score_type>  (75) 
oracle

>  <origin>  (75) 
autodockgpu

>  <m_score__min__energy>  (75) 
-8.7100000000000009

>  <m_primary>  (75) 
energy

>  <rmsd>  (75) 
5.884252446357642

>  <m_score__min__rmsd>  (75) 
5.884252446357642

>  <meeko>  (75) 
{"free_energy": -6.9, "intermolecular_energy": -8.39, "internal_energy": -2.88, "cluster_size": 3, "cluster_id": 5, "rank_in_cluster": 1}

>  <energy>  (75) 
-8.5

>  <cluster_rmsd>  (75) 
1.23

>  <cluster>  (75) 
2

$$$$

     RDKit          3D

 47 50  0  0  0  0  0  0  0  0999 V2000
  140.6420   71.5030  221.3150 O   0  0  0  0  0  0  0  0  0  0  0  0
  140.2220   72.0930  222.3430 C   0  0  0  0  0  0  0  0  0  0  0  0
  139.7940   73.4540  222.3440 N   0  0  0  0  0  0  0  0  0  0  0  0
  139.8380   74.2220  221.0990 C   0  0  0  0  0  0  0  0  0  0  0  0
  140.7360   75.3600  221.2490 C   0  0  0  0  0  0  0  0  0  0  0  0
  140.6060   76.0750  222.3020 O   0  0  0  0  0  0  0  0  0  0  0  0
  141.7420   75.7660  220.3470 N   0  0  0  0  0  0  0  0  0  0  0  0
  142.1770   77.1720  220.2550 C   0  0  0  0  0  0  0  0  0  0  0  0
  142.1550   77.2730  218.7160 C   0  0  0  0  0  0  0  0  0  0  0  0
  143.1160   76.1060  218.4430 C   0  0  0  0  0  0  0  0  0  0  0  0
  142.5270   75.0450  219.3820 C   0  0  1  0  0  0  0  0  0  0  0  0
  143.7050   74.3450  219.9580 C   0  0  0  0  0  0  0  0  0  0  0  0
  143.7160   72.9520  220.1160 C   0  0  0  0  0  0  0  0  0  0  0  0
  144.8070   72.2900  220.6410 C   0  0  0  0  0  0  0  0  0  0  0  0
  145.9340   72.9850  221.0300 C   0  0  0  0  0  0  0  0  0  0  0  0
  145.8790   74.3670  220.8540 C   0  0  0  0  0  0  0  0  0  0  0  0
  144.8050   74.9850  220.3430 N   0  0  0  0  0  0  0  0  0  0  0  0
  140.1670   71.3440  223.6140 C   0  0  0  0  0  0  0  0  0  0  0  0
  139.6360   70.0730  223.6520 C   0  0  0  0  0  0  0  0  0  0  0  0
  139.5690   69.3430  224.8270 C   0  0  0  0  0  0  0  0  0  0  0  0
  140.0560   69.9340  225.9770 C   0  0  0  0  0  0  0  0  0  0  0  0
  140.0210   69.2710  227.1730 C   0  0  0  0  0  0  0  0  0  0  0  0
  140.5190   69.8860  228.3240 C   0  0  0  0  0  0  0  0  0  0  0  0
  141.0390   71.1530  228.2420 C   0  0  0  0  0  0  0  0  0  0  0  0
  141.0850   71.8430  227.0420 C   0  0  0  0  0  0  0  0  0  0  0  0
  140.5830   71.2070  225.9160 C   0  0  0  0  0  0  0  0  0  0  0  0
  140.6400   71.9000  224.7670 N   0  0  0  0  0  0  0  0  0  0  0  0
  139.4620   73.8560  223.2470 H   0  0  0  0  0  0  0  0  0  0  0  0
  140.2000   73.5766  220.2851 H   0  0  0  0  0  0  0  0  0  0  0  0
  138.8275   74.5870  220.8630 H   0  0  0  0  0  0  0  0  0  0  0  0
  141.4681   77.8643  220.7327 H   0  0  0  0  0  0  0  0  0  0  0  0
  143.1239   77.4288  220.7525 H   0  0  0  0  0  0  0  0  0  0  0  0
  141.1528   77.1008  218.2965 H   0  0  0  0  0  0  0  0  0  0  0  0
  142.4241   78.2468  218.2809 H   0  0  0  0  0  0  0  0  0  0  0  0
  143.0792   75.7852  217.3915 H   0  0  0  0  0  0  0  0  0  0  0  0
  144.1788   76.3337  218.6124 H   0  0  0  0  0  0  0  0  0  0  0  0
  141.8712   74.2940  218.9173 H   0  0  0  0  0  0  0  0  0  0  0  0
  142.8319   72.3716  219.8136 H   0  0  0  0  0  0  0  0  0  0  0  0
  144.7781   71.1959  220.7507 H   0  0  0  0  0  0  0  0  0  0  0  0
  146.8171   72.4820  221.4510 H   0  0  0  0  0  0  0  0  0  0  0  0
  146.7496   74.9728  221.1454 H   0  0  0  0  0  0  0  0  0  0  0  0
  139.2544   69.6254  222.7225 H   0  0  0  0  0  0  0  0  0  0  0  0
  139.1433   68.3289  224.8441 H   0  0  0  0  0  0  0  0  0  0  0  0
  139.6015   68.2556  227.2282 H   0  0  0  0  0  0  0  0  0  0  0  0
  140.4945   69.3585  229.2889 H   0  0  0  0  0  0  0  0  0  0  0  0
  141.4290   71.6327  229.1518 H   0  0  0  0  0  0  0  0  0  0  0  0
  141.5043   72.8583  226.9839 H   0  0  0  0  0  0  0  0  0  0  0  0
  1  2  2  0
  2  3  1  0
  3  4  1  0
  4  5  1  0
  5  6  2  0
  5  7  1  0
  7  8  1  0
  8  9  1  0
  9 10  1  0
 10 11  1  0
 11 12  1  0
 12 13  2  0
 13 14  1  0
 14 15  2  0
 15 16  1  0
 16 17  2  0
  2 18  1  0
 18 19  2  0
 19 20  1  0
 20 21  2  0
 21 22  1  0
 22 23  2  0
 23 24  1  0
 24 25  2  0
 25 26  1  0
 26 27  2  0
 11  7  1  0
 17 12  1  0
 27 18  1  0
 26 21  1  0
  3 28  1  0
  4 29  1  0
  4 30  1  0
  8 31  1  0
  8 32  1  0
  9 33  1  0
  9 34  1  0
 10 35  1  0
 10 36  1  0
 11 37  1  6
 13 38  1  0
 14 39  1  0
 15 40  1  0
 16 41  1  0
 19 42  1  0
 20 43  1  0
 22 44  1  0
 23 45  1  0
 24 46  1  0
 25 47  1  0
M  END
>  <smiles>  (76) 
O=C(NCC(=O)N1CCCC1c1ccccn1)c1ccc2ccccc2n1

>  <score_type>  (76) 
oracle

>  <origin>  (76) 
autodockgpu

>  <m_score__min__energy>  (76) 
-8.7100000000000009

>  <m_primary>  (76) 
energy

>  <rmsd>  (76) 
4.317976411378994

>  <m_score__min__rmsd>  (76) 
4.317976411378994

>  <meeko>  (76) 
{"free_energy": -8.52, "intermolecular_energy": -10.01, "internal_energy": -1.73, "cluster_size": 8, "cluster_id": 1, "rank_in_cluster": 6}

>  <energy>  (76) 
-8.49

>  <cluster_rmsd>  (76) 
1.16

>  <cluster>  (76) 
2

$$$$

     RDKit          3D

 47 50  0  0  0  0  0  0  0  0999 V2000
  140.6360   71.4300  221.3500 O   0  0  0  0  0  0  0  0  0  0  0  0
  140.2420   72.0010  222.3980 C   0  0  0  0  0  0  0  0  0  0  0  0
  139.8980   73.3840  222.4530 N   0  0  0  0  0  0  0  0  0  0  0  0
  140.0030   74.1990  221.2410 C   0  0  0  0  0  0  0  0  0  0  0  0
  139.9440   75.6140  221.5870 C   0  0  0  0  0  0  0  0  0  0  0  0
  139.3940   75.9230  222.7000 O   0  0  0  0  0  0  0  0  0  0  0  0
  140.4310   76.6920  220.8180 N   0  0  0  0  0  0  0  0  0  0  0  0
  139.6850   77.2100  219.6560 C   0  0  0  0  0  0  0  0  0  0  0  0
  140.8810   77.2830  218.6840 C   0  0  0  0  0  0  0  0  0  0  0  0
  141.7660   78.1890  219.5530 C   0  0  0  0  0  0  0  0  0  0  0  0
  141.6240   77.4880  220.9100 C   0  0  1  0  0  0  0  0  0  0  0  0
  141.5430   78.5890  221.9050 C   0  0  0  0  0  0  0  0  0  0  0  0
  140.4130   78.7500  222.7180 C   0  0  0  0  0  0  0  0  0  0  0  0
  140.3300   79.7630  223.6520 C   0  0  0  0  0  0  0  0  0  0  0  0
  141.3680   80.6580  223.8170 C   0  0  0  0  0  0  0  0  0  0  0  0
  142.4710   80.4590  222.9880 C   0  0  0  0  0  0  0  0  0  0  0  0
  142.5250   79.4670  222.0890 N   0  0  0  0  0  0  0  0  0  0  0  0
  140.1270   71.2050  223.6360 C   0  0  0  0  0  0  0  0  0  0  0  0
  139.5960   69.9340  223.6010 C   0  0  0  0  0  0  0  0  0  0  0  0
  139.4740   69.1600  224.7430 C   0  0  0  0  0  0  0  0  0  0  0  0
  139.9050   69.7080  225.9370 C   0  0  0  0  0  0  0  0  0  0  0  0
  139.8140   69.0000  227.1040 C   0  0  0  0  0  0  0  0  0  0  0  0
  140.2560   69.5710  228.2990 C   0  0  0  0  0  0  0  0  0  0  0  0
  140.7790   70.8400  228.2900 C   0  0  0  0  0  0  0  0  0  0  0  0
  140.8810   71.5750  227.1200 C   0  0  0  0  0  0  0  0  0  0  0  0
  140.4330   70.9810  225.9490 C   0  0  0  0  0  0  0  0  0  0  0  0
  140.5440   71.7170  224.8300 N   0  0  0  0  0  0  0  0  0  0  0  0
  139.5820   73.7690  223.3680 H   0  0  0  0  0  0  0  0  0  0  0  0
  140.9587   73.9857  220.7399 H   0  0  0  0  0  0  0  0  0  0  0  0
  139.1675   73.9559  220.5680 H   0  0  0  0  0  0  0  0  0  0  0  0
  138.9050   76.5147  219.3124 H   0  0  0  0  0  0  0  0  0  0  0  0
  139.1171   78.1395  219.8094 H   0  0  0  0  0  0  0  0  0  0  0  0
  141.3365   76.2986  218.5011 H   0  0  0  0  0  0  0  0  0  0  0  0
  140.6677   77.6325  217.6630 H   0  0  0  0  0  0  0  0  0  0  0  0
  142.8094   78.1944  219.2046 H   0  0  0  0  0  0  0  0  0  0  0  0
  141.4808   79.2514  219.5508 H   0  0  0  0  0  0  0  0  0  0  0  0
  142.4473   76.8187  221.2002 H   0  0  0  0  0  0  0  0  0  0  0  0
  139.5705   78.0512  222.6091 H   0  0  0  0  0  0  0  0  0  0  0  0
  139.4263   79.8582  224.2719 H   0  0  0  0  0  0  0  0  0  0  0  0
  141.3275   81.4739  224.5536 H   0  0  0  0  0  0  0  0  0  0  0  0
  143.3290   81.1419  223.0752 H   0  0  0  0  0  0  0  0  0  0  0  0
  139.2592   69.5222  222.6382 H   0  0  0  0  0  0  0  0  0  0  0  0
  139.0496   68.1460  224.7016 H   0  0  0  0  0  0  0  0  0  0  0  0
  139.3937   67.9835  227.1009 H   0  0  0  0  0  0  0  0  0  0  0  0
  140.1856   69.0077  229.2412 H   0  0  0  0  0  0  0  0  0  0  0  0
  141.1256   71.2842  229.2347 H   0  0  0  0  0  0  0  0  0  0  0  0
  141.3014   72.5915  227.1195 H   0  0  0  0  0  0  0  0  0  0  0  0
  1  2  2  0
  2  3  1  0
  3  4  1  0
  4  5  1  0
  5  6  2  0
  5  7  1  0
  7  8  1  0
  8  9  1  0
  9 10  1  0
 10 11  1  0
 11 12  1  0
 12 13  2  0
 13 14  1  0
 14 15  2  0
 15 16  1  0
 16 17  2  0
  2 18  1  0
 18 19  2  0
 19 20  1  0
 20 21  2  0
 21 22  1  0
 22 23  2  0
 23 24  1  0
 24 25  2  0
 25 26  1  0
 26 27  2  0
 11  7  1  0
 17 12  1  0
 27 18  1  0
 26 21  1  0
  3 28  1  0
  4 29  1  0
  4 30  1  0
  8 31  1  0
  8 32  1  0
  9 33  1  0
  9 34  1  0
 10 35  1  0
 10 36  1  0
 11 37  1  1
 13 38  1  0
 14 39  1  0
 15 40  1  0
 16 41  1  0
 19 42  1  0
 20 43  1  0
 22 44  1  0
 23 45  1  0
 24 46  1  0
 25 47  1  0
M  END
>  <smiles>  (77) 
O=C(NCC(=O)N1CCCC1c1ccccn1)c1ccc2ccccc2n1

>  <score_type>  (77) 
oracle

>  <origin>  (77) 
autodockgpu

>  <m_score__min__energy>  (77) 
-8.7100000000000009

>  <m_primary>  (77) 
energy

>  <rmsd>  (77) 
2.2191981966120724

>  <m_score__min__rmsd>  (77) 
2.2191981966120724

>  <meeko>  (77) 
{"free_energy": -8.35, "intermolecular_energy": -9.84, "internal_energy": -1.8, "cluster_size": 32, "cluster_id": 2, "rank_in_cluster": 25}

>  <energy>  (77) 
-8.48

>  <cluster_rmsd>  (77) 
1.25

>  <cluster>  (77) 
2

$$$$

     RDKit          3D

 47 50  0  0  0  0  0  0  0  0999 V2000
  140.3280   74.6240  219.9940 O   0  0  0  0  0  0  0  0  0  0  0  0
  140.1350   75.2090  221.0900 C   0  0  0  0  0  0  0  0  0  0  0  0
  139.3830   74.6380  222.1590 N   0  0  0  0  0  0  0  0  0  0  0  0
  138.7960   73.3070  221.9940 C   0  0  0  0  0  0  0  0  0  0  0  0
  139.6490   72.3070  222.6230 C   0  0  0  0  0  0  0  0  0  0  0  0
  140.8790   72.6100  222.7960 O   0  0  0  0  0  0  0  0  0  0  0  0
  139.2610   71.0230  223.0630 N   0  0  0  0  0  0  0  0  0  0  0  0
  139.5500   69.8150  222.2690 C   0  0  0  0  0  0  0  0  0  0  0  0
  138.1490   69.1790  222.3810 C   0  0  0  0  0  0  0  0  0  0  0  0
  138.0850   69.1490  223.9150 C   0  0  0  0  0  0  0  0  0  0  0  0
  138.5640   70.5700  224.2360 C   0  0  1  0  0  0  0  0  0  0  0  0
  139.4280   70.4230  225.4360 C   0  0  0  0  0  0  0  0  0  0  0  0
  140.2960   71.4480  225.8350 C   0  0  0  0  0  0  0  0  0  0  0  0
  141.0970   71.3280  226.9530 C   0  0  0  0  0  0  0  0  0  0  0  0
  141.0670   70.1810  227.7220 C   0  0  0  0  0  0  0  0  0  0  0  0
  140.1890   69.1890  227.2870 C   0  0  0  0  0  0  0  0  0  0  0  0
  139.4240   69.3320  226.1970 N   0  0  0  0  0  0  0  0  0  0  0  0
  140.7150   76.5530  221.2860 C   0  0  0  0  0  0  0  0  0  0  0  0
  141.0530   77.3310  220.2000 C   0  0  0  0  0  0  0  0  0  0  0  0
  141.5980   78.5960  220.3470 C   0  0  0  0  0  0  0  0  0  0  0  0
  141.7950   79.0610  221.6340 C   0  0  0  0  0  0  0  0  0  0  0  0
  142.3300   80.3020  221.8540 C   0  0  0  0  0  0  0  0  0  0  0  0
  142.5200   80.7540  223.1610 C   0  0  0  0  0  0  0  0  0  0  0  0
  142.1690   79.9470  224.2140 C   0  0  0  0  0  0  0  0  0  0  0  0
  141.6260   78.6880  224.0150 C   0  0  0  0  0  0  0  0  0  0  0  0
  141.4490   78.2660  222.7060 C   0  0  0  0  0  0  0  0  0  0  0  0
  140.9210   77.0410  222.5420 N   0  0  0  0  0  0  0  0  0  0  0  0
  139.2770   75.2000  223.0310 H   0  0  0  0  0  0  0  0  0  0  0  0
  137.8018   73.2861  222.4642 H   0  0  0  0  0  0  0  0  0  0  0  0
  138.7049   73.0820  220.9211 H   0  0  0  0  0  0  0  0  0  0  0  0
  139.8241   70.0497  221.2299 H   0  0  0  0  0  0  0  0  0  0  0  0
  140.3990   69.1989  222.6001 H   0  0  0  0  0  0  0  0  0  0  0  0
  137.3633   69.8090  221.9384 H   0  0  0  0  0  0  0  0  0  0  0  0
  137.9980   68.2214  221.8612 H   0  0  0  0  0  0  0  0  0  0  0  0
  137.0611   68.9731  224.2764 H   0  0  0  0  0  0  0  0  0  0  0  0
  138.6733   68.3472  224.3852 H   0  0  0  0  0  0  0  0  0  0  0  0
  137.7806   71.3083  224.4622 H   0  0  0  0  0  0  0  0  0  0  0  0
  140.3404   72.3731  225.2415 H   0  0  0  0  0  0  0  0  0  0  0  0
  141.7661   72.1545  227.2343 H   0  0  0  0  0  0  0  0  0  0  0  0
  141.6938   70.0584  228.6176 H   0  0  0  0  0  0  0  0  0  0  0  0
  140.1221   68.2531  227.8611 H   0  0  0  0  0  0  0  0  0  0  0  0
  140.8852   76.9361  219.1871 H   0  0  0  0  0  0  0  0  0  0  0  0
  141.8641   79.2077  219.4724 H   0  0  0  0  0  0  0  0  0  0  0  0
  142.6093   80.9410  221.0033 H   0  0  0  0  0  0  0  0  0  0  0  0
  142.9482   81.7503  223.3456 H   0  0  0  0  0  0  0  0  0  0  0  0
  142.3226   80.3087  225.2414 H   0  0  0  0  0  0  0  0  0  0  0  0
  141.3457   78.0470  224.8638 H   0  0  0  0  0  0  0  0  0  0  0  0
  1  2  2  0
  2  3  1  0
  3  4  1  0
  4  5  1  0
  5  6  2  0
  5  7  1  0
  7  8  1  0
  8  9  1  0
  9 10  1  0
 10 11  1  0
 11 12  1  0
 12 13  2  0
 13 14  1  0
 14 15  2  0
 15 16  1  0
 16 17  2  0
  2 18  1  0
 18 19  2  0
 19 20  1  0
 20 21  2  0
 21 22  1  0
 22 23  2  0
 23 24  1  0
 24 25  2  0
 25 26  1  0
 26 27  2  0
 11  7  1  0
 17 12  1  0
 27 18  1  0
 26 21  1  0
  3 28  1  0
  4 29  1  0
  4 30  1  0
  8 31  1  0
  8 32  1  0
  9 33  1  0
  9 34  1  0
 10 35  1  0
 10 36  1  0
 11 37  1  1
 13 38  1  0
 14 39  1  0
 15 40  1  0
 16 41  1  0
 19 42  1  0
 20 43  1  0
 22 44  1  0
 23 45  1  0
 24 46  1  0
 25 47  1  0
M  END
>  <smiles>  (78) 
O=C(NCC(=O)N1CCCC1c1ccccn1)c1ccc2ccccc2n1

>  <score_type>  (78) 
oracle

>  <origin>  (78) 
autodockgpu

>  <m_score__min__energy>  (78) 
-8.7100000000000009

>  <m_primary>  (78) 
energy

>  <rmsd>  (78) 
9.007786261175934

>  <m_score__min__rmsd>  (78) 
9.007786261175934

>  <meeko>  (78) 
{"free_energy": -8.07, "intermolecular_energy": -9.56, "internal_energy": -1.53, "cluster_size": 32, "cluster_id": 2, "rank_in_cluster": 29}

>  <energy>  (78) 
-8.47

>  <cluster_rmsd>  (78) 
1.27

>  <cluster>  (78) 
2

$$$$

     RDKit          3D

 47 50  0  0  0  0  0  0  0  0999 V2000
  138.5300   75.6430  221.9870 O   0  0  0  0  0  0  0  0  0  0  0  0
  139.7320   76.0110  222.0030 C   0  0  0  0  0  0  0  0  0  0  0  0
  140.8100   75.1770  221.5810 N   0  0  0  0  0  0  0  0  0  0  0  0
  140.5270   73.8220  221.1050 C   0  0  0  0  0  0  0  0  0  0  0  0
  141.7380   73.0130  221.1590 C   0  0  0  0  0  0  0  0  0  0  0  0
  141.6720   71.8990  221.7850 O   0  0  0  0  0  0  0  0  0  0  0  0
  142.9910   73.3300  220.5920 N   0  0  0  0  0  0  0  0  0  0  0  0
  143.7280   72.3630  219.7580 C   0  0  0  0  0  0  0  0  0  0  0  0
  145.1060   72.5540  220.4260 C   0  0  0  0  0  0  0  0  0  0  0  0
  145.2090   74.0700  220.1980 C   0  0  0  0  0  0  0  0  0  0  0  0
  143.8110   74.5090  220.6510 C   0  0  1  0  0  0  0  0  0  0  0  0
  143.4130   75.5740  219.6940 C   0  0  0  0  0  0  0  0  0  0  0  0
  143.6870   75.4560  218.3240 C   0  0  0  0  0  0  0  0  0  0  0  0
  143.3150   76.4340  217.4230 C   0  0  0  0  0  0  0  0  0  0  0  0
  142.6540   77.5690  217.8470 C   0  0  0  0  0  0  0  0  0  0  0  0
  142.4030   77.6420  219.2170 C   0  0  0  0  0  0  0  0  0  0  0  0
  142.7760   76.6790  220.0690 N   0  0  0  0  0  0  0  0  0  0  0  0
  140.0500   77.3720  222.4770 C   0  0  0  0  0  0  0  0  0  0  0  0
  139.0400   78.2340  222.8480 C   0  0  0  0  0  0  0  0  0  0  0  0
  139.3020   79.5170  223.2980 C   0  0  0  0  0  0  0  0  0  0  0  0
  140.6250   79.9140  223.3660 C   0  0  0  0  0  0  0  0  0  0  0  0
  140.9570   81.1680  223.8010 C   0  0  0  0  0  0  0  0  0  0  0  0
  142.2990   81.5490  223.8640 C   0  0  0  0  0  0  0  0  0  0  0  0
  143.2730   80.6600  223.4860 C   0  0  0  0  0  0  0  0  0  0  0  0
  142.9600   79.3850  223.0420 C   0  0  0  0  0  0  0  0  0  0  0  0
  141.6190   79.0350  222.9910 C   0  0  0  0  0  0  0  0  0  0  0  0
  141.3440   77.7940  222.5570 N   0  0  0  0  0  0  0  0  0  0  0  0
  141.7750   75.5700  221.6300 H   0  0  0  0  0  0  0  0  0  0  0  0
  139.7551   73.3656  221.7421 H   0  0  0  0  0  0  0  0  0  0  0  0
  140.1708   73.8709  220.0654 H   0  0  0  0  0  0  0  0  0  0  0  0
  143.3463   71.3370  219.8657 H   0  0  0  0  0  0  0  0  0  0  0  0
  143.6823   72.5150  218.6695 H   0  0  0  0  0  0  0  0  0  0  0  0
  145.0980   72.2875  221.4932 H   0  0  0  0  0  0  0  0  0  0  0  0
  145.9322   71.9386  220.0403 H   0  0  0  0  0  0  0  0  0  0  0  0
  145.9983   74.5222  220.8165 H   0  0  0  0  0  0  0  0  0  0  0  0
  145.4751   74.3650  219.1723 H   0  0  0  0  0  0  0  0  0  0  0  0
  143.7349   74.9145  221.6707 H   0  0  0  0  0  0  0  0  0  0  0  0
  144.2118   74.5614  217.9576 H   0  0  0  0  0  0  0  0  0  0  0  0
  143.5481   76.3071  216.3555 H   0  0  0  0  0  0  0  0  0  0  0  0
  142.3458   78.3630  217.1509 H   0  0  0  0  0  0  0  0  0  0  0  0
  141.8786   78.5244  219.6125 H   0  0  0  0  0  0  0  0  0  0  0  0
  137.9962   77.8927  222.7847 H   0  0  0  0  0  0  0  0  0  0  0  0
  138.4874   80.1958  223.5908 H   0  0  0  0  0  0  0  0  0  0  0  0
  140.1687   81.8744  224.1004 H   0  0  0  0  0  0  0  0  0  0  0  0
  142.5732   82.5550  224.2143 H   0  0  0  0  0  0  0  0  0  0  0  0
  144.3282   80.9666  223.5365 H   0  0  0  0  0  0  0  0  0  0  0  0
  143.7461   78.6768  222.7412 H   0  0  0  0  0  0  0  0  0  0  0  0
  1  2  2  0
  2  3  1  0
  3  4  1  0
  4  5  1  0
  5  6  2  0
  5  7  1  0
  7  8  1  0
  8  9  1  0
  9 10  1  0
 10 11  1  0
 11 12  1  0
 12 13  2  0
 13 14  1  0
 14 15  2  0
 15 16  1  0
 16 17  2  0
  2 18  1  0
 18 19  2  0
 19 20  1  0
 20 21  2  0
 21 22  1  0
 22 23  2  0
 23 24  1  0
 24 25  2  0
 25 26  1  0
 26 27  2  0
 11  7  1  0
 17 12  1  0
 27 18  1  0
 26 21  1  0
  3 28  1  0
  4 29  1  0
  4 30  1  0
  8 31  1  0
  8 32  1  0
  9 33  1  0
  9 34  1  0
 10 35  1  0
 10 36  1  0
 11 37  1  1
 13 38  1  0
 14 39  1  0
 15 40  1  0
 16 41  1  0
 19 42  1  0
 20 43  1  0
 22 44  1  0
 23 45  1  0
 24 46  1  0
 25 47  1  0
M  END
>  <smiles>  (79) 
O=C(NCC(=O)N1CCCC1c1ccccn1)c1ccc2ccccc2n1

>  <score_type>  (79) 
oracle

>  <origin>  (79) 
autodockgpu

>  <m_score__min__energy>  (79) 
-8.7100000000000009

>  <m_primary>  (79) 
energy

>  <rmsd>  (79) 
7.481570677055784

>  <m_score__min__rmsd>  (79) 
7.481570677055784

>  <meeko>  (79) 
{"free_energy": -7.12, "intermolecular_energy": -8.62, "internal_energy": -2.83, "cluster_size": 6, "cluster_id": 4, "rank_in_cluster": 3}

>  <energy>  (79) 
-8.46

>  <cluster_rmsd>  (79) 
1.25

>  <cluster>  (79) 
2

$$$$

     RDKit          3D

 47 50  0  0  0  0  0  0  0  0999 V2000
  141.3710   72.3100  222.0570 O   0  0  0  0  0  0  0  0  0  0  0  0
  140.2950   72.2850  222.7060 C   0  0  0  0  0  0  0  0  0  0  0  0
  139.1880   73.1380  222.4170 N   0  0  0  0  0  0  0  0  0  0  0  0
  139.2880   74.0980  221.3170 C   0  0  0  0  0  0  0  0  0  0  0  0
  139.7980   75.3700  221.8120 C   0  0  0  0  0  0  0  0  0  0  0  0
  141.0620   75.4710  221.9810 O   0  0  0  0  0  0  0  0  0  0  0  0
  139.0390   76.5160  222.1320 N   0  0  0  0  0  0  0  0  0  0  0  0
  137.9170   76.4570  223.0870 C   0  0  0  0  0  0  0  0  0  0  0  0
  136.9070   77.2550  222.2370 C   0  0  0  0  0  0  0  0  0  0  0  0
  137.7660   78.5170  222.0690 C   0  0  0  0  0  0  0  0  0  0  0  0
  139.1100   77.8810  221.6880 C   0  0  1  0  0  0  0  0  0  0  0  0
  140.1340   78.6970  222.3920 C   0  0  0  0  0  0  0  0  0  0  0  0
  141.5020   78.4420  222.2270 C   0  0  0  0  0  0  0  0  0  0  0  0
  142.4640   79.1980  222.8680 C   0  0  0  0  0  0  0  0  0  0  0  0
  142.1040   80.2390  223.7000 C   0  0  0  0  0  0  0  0  0  0  0  0
  140.7320   80.4550  223.8340 C   0  0  0  0  0  0  0  0  0  0  0  0
  139.8210   79.7050  223.2000 N   0  0  0  0  0  0  0  0  0  0  0  0
  140.1640   71.3280  223.8220 C   0  0  0  0  0  0  0  0  0  0  0  0
  139.5360   70.1170  223.6310 C   0  0  0  0  0  0  0  0  0  0  0  0
  139.3960   69.1950  224.6550 C   0  0  0  0  0  0  0  0  0  0  0  0
  139.9110   69.5310  225.8920 C   0  0  0  0  0  0  0  0  0  0  0  0
  139.8090   68.6680  226.9500 C   0  0  0  0  0  0  0  0  0  0  0  0
  140.3370   69.0260  228.1920 C   0  0  0  0  0  0  0  0  0  0  0  0
  140.9550   70.2420  228.3400 C   0  0  0  0  0  0  0  0  0  0  0  0
  141.0710   71.1300  227.2830 C   0  0  0  0  0  0  0  0  0  0  0  0
  140.5370   70.7480  226.0620 C   0  0  0  0  0  0  0  0  0  0  0  0
  140.6630   71.6290  225.0550 N   0  0  0  0  0  0  0  0  0  0  0  0
  138.3370   73.0440  223.0110 H   0  0  0  0  0  0  0  0  0  0  0  0
  139.9720   73.7044  220.5508 H   0  0  0  0  0  0  0  0  0  0  0  0
  138.2901   74.2536  220.8810 H   0  0  0  0  0  0  0  0  0  0  0  0
  137.5830   75.4271  223.2812 H   0  0  0  0  0  0  0  0  0  0  0  0
  138.1131   76.8333  224.1019 H   0  0  0  0  0  0  0  0  0  0  0  0
  136.6845   76.7658  221.2772 H   0  0  0  0  0  0  0  0  0  0  0  0
  135.9031   77.3943  222.6645 H   0  0  0  0  0  0  0  0  0  0  0  0
  137.3820   79.1679  221.2697 H   0  0  0  0  0  0  0  0  0  0  0  0
  137.7994   79.1736  222.9509 H   0  0  0  0  0  0  0  0  0  0  0  0
  139.3557   77.8670  220.6159 H   0  0  0  0  0  0  0  0  0  0  0  0
  141.8180   77.6183  221.5699 H   0  0  0  0  0  0  0  0  0  0  0  0
  143.5286   78.9680  222.7138 H   0  0  0  0  0  0  0  0  0  0  0  0
  142.8490   80.8570  224.2225 H   0  0  0  0  0  0  0  0  0  0  0  0
  140.3856   81.2716  224.4845 H   0  0  0  0  0  0  0  0  0  0  0  0
  139.1339   69.8751  222.6361 H   0  0  0  0  0  0  0  0  0  0  0  0
  138.8933   68.2307  224.4894 H   0  0  0  0  0  0  0  0  0  0  0  0
  139.3123   67.6949  226.8219 H   0  0  0  0  0  0  0  0  0  0  0  0
  140.2580   68.3376  229.0463 H   0  0  0  0  0  0  0  0  0  0  0  0
  141.3682   70.5184  229.3213 H   0  0  0  0  0  0  0  0  0  0  0  0
  141.5688   72.1029  227.4080 H   0  0  0  0  0  0  0  0  0  0  0  0
  1  2  2  0
  2  3  1  0
  3  4  1  0
  4  5  1  0
  5  6  2  0
  5  7  1  0
  7  8  1  0
  8  9  1  0
  9 10  1  0
 10 11  1  0
 11 12  1  0
 12 13  2  0
 13 14  1  0
 14 15  2  0
 15 16  1  0
 16 17  2  0
  2 18  1  0
 18 19  2  0
 19 20  1  0
 20 21  2  0
 21 22  1  0
 22 23  2  0
 23 24  1  0
 24 25  2  0
 25 26  1  0
 26 27  2  0
 11  7  1  0
 17 12  1  0
 27 18  1  0
 26 21  1  0
  3 28  1  0
  4 29  1  0
  4 30  1  0
  8 31  1  0
  8 32  1  0
  9 33  1  0
  9 34  1  0
 10 35  1  0
 10 36  1  0
 11 37  1  6
 13 38  1  0
 14 39  1  0
 15 40  1  0
 16 41  1  0
 19 42  1  0
 20 43  1  0
 22 44  1  0
 23 45  1  0
 24 46  1  0
 25 47  1  0
M  END
>  <smiles>  (80) 
O=C(NCC(=O)N1CCCC1c1ccccn1)c1ccc2ccccc2n1

>  <score_type>  (80) 
oracle

>  <origin>  (80) 
autodockgpu

>  <m_score__min__energy>  (80) 
-8.7100000000000009

>  <m_primary>  (80) 
energy

>  <rmsd>  (80) 
3.034237467355816

>  <m_score__min__rmsd>  (80) 
3.034237467355816

>  <meeko>  (80) 
{"free_energy": -8.54, "intermolecular_energy": -10.03, "internal_energy": -1.22, "cluster_size": 32, "cluster_id": 2, "rank_in_cluster": 15}

>  <energy>  (80) 
-8.44

>  <cluster_rmsd>  (80) 
1.2

>  <cluster>  (80) 
2

$$$$

     RDKit          3D

 47 50  0  0  0  0  0  0  0  0999 V2000
  141.3090   71.8800  221.6430 O   0  0  0  0  0  0  0  0  0  0  0  0
  140.3970   72.1990  222.4460 C   0  0  0  0  0  0  0  0  0  0  0  0
  139.5010   73.2850  222.2200 N   0  0  0  0  0  0  0  0  0  0  0  0
  139.6320   74.0830  221.0000 C   0  0  0  0  0  0  0  0  0  0  0  0
  140.5120   75.2190  221.2410 C   0  0  0  0  0  0  0  0  0  0  0  0
  140.3370   75.8780  222.3230 O   0  0  0  0  0  0  0  0  0  0  0  0
  141.5470   75.6790  220.3990 N   0  0  0  0  0  0  0  0  0  0  0  0
  142.0260   77.0720  220.4540 C   0  0  0  0  0  0  0  0  0  0  0  0
  142.0360   77.3260  218.9320 C   0  0  0  0  0  0  0  0  0  0  0  0
  142.9650   76.1610  218.5600 C   0  0  0  0  0  0  0  0  0  0  0  0
  142.3270   75.0320  219.3790 C   0  0  1  0  0  0  0  0  0  0  0  0
  143.4720   74.2410  219.9010 C   0  0  0  0  0  0  0  0  0  0  0  0
  144.6380   74.8690  220.3590 C   0  0  0  0  0  0  0  0  0  0  0  0
  145.7050   74.1470  220.8540 C   0  0  0  0  0  0  0  0  0  0  0  0
  145.6560   72.7680  220.9150 C   0  0  0  0  0  0  0  0  0  0  0  0
  144.4770   72.1870  220.4490 C   0  0  0  0  0  0  0  0  0  0  0  0
  143.4570   72.9130  219.9730 N   0  0  0  0  0  0  0  0  0  0  0  0
  140.2400   71.4130  223.6860 C   0  0  0  0  0  0  0  0  0  0  0  0
  139.5850   70.2000  223.6640 C   0  0  0  0  0  0  0  0  0  0  0  0
  139.4200   69.4370  224.8080 C   0  0  0  0  0  0  0  0  0  0  0  0
  139.9380   69.9350  225.9890 C   0  0  0  0  0  0  0  0  0  0  0  0
  139.8120   69.2340  227.1580 C   0  0  0  0  0  0  0  0  0  0  0  0
  140.3430   69.7530  228.3410 C   0  0  0  0  0  0  0  0  0  0  0  0
  140.9870   70.9650  228.3180 C   0  0  0  0  0  0  0  0  0  0  0  0
  141.1280   71.6910  227.1460 C   0  0  0  0  0  0  0  0  0  0  0  0
  140.5900   71.1500  225.9880 C   0  0  0  0  0  0  0  0  0  0  0  0
  140.7400   71.8760  224.8670 N   0  0  0  0  0  0  0  0  0  0  0  0
  138.7750   73.4740  222.9440 H   0  0  0  0  0  0  0  0  0  0  0  0
  140.0545   73.4581  220.1993 H   0  0  0  0  0  0  0  0  0  0  0  0
  138.6397   74.4514  220.7007 H   0  0  0  0  0  0  0  0  0  0  0  0
  141.3296   77.7360  220.9871 H   0  0  0  0  0  0  0  0  0  0  0  0
  142.9709   77.2475  220.9892 H   0  0  0  0  0  0  0  0  0  0  0  0
  141.0371   77.2292  218.4817 H   0  0  0  0  0  0  0  0  0  0  0  0
  142.3431   78.3287  218.6001 H   0  0  0  0  0  0  0  0  0  0  0  0
  142.9381   75.9471  217.4813 H   0  0  0  0  0  0  0  0  0  0  0  0
  144.0307   76.3364  218.7684 H   0  0  0  0  0  0  0  0  0  0  0  0
  141.6576   74.3522  218.8315 H   0  0  0  0  0  0  0  0  0  0  0  0
  144.7046   75.9664  220.3230 H   0  0  0  0  0  0  0  0  0  0  0  0
  146.6041   74.6755  221.2037 H   0  0  0  0  0  0  0  0  0  0  0  0
  146.4913   72.1680  221.3052 H   0  0  0  0  0  0  0  0  0  0  0  0
  144.3811   71.0915  220.4733 H   0  0  0  0  0  0  0  0  0  0  0  0
  139.1820   69.8276  222.7106 H   0  0  0  0  0  0  0  0  0  0  0  0
  138.8960   68.4703  224.7780 H   0  0  0  0  0  0  0  0  0  0  0  0
  139.2936   68.2639  227.1657 H   0  0  0  0  0  0  0  0  0  0  0  0
  140.2459   69.1948  229.2839 H   0  0  0  0  0  0  0  0  0  0  0  0
  141.4014   71.3700  229.2530 H   0  0  0  0  0  0  0  0  0  0  0  0
  141.6475   72.6605  227.1347 H   0  0  0  0  0  0  0  0  0  0  0  0
  1  2  2  0
  2  3  1  0
  3  4  1  0
  4  5  1  0
  5  6  2  0
  5  7  1  0
  7  8  1  0
  8  9  1  0
  9 10  1  0
 10 11  1  0
 11 12  1  0
 12 13  2  0
 13 14  1  0
 14 15  2  0
 15 16  1  0
 16 17  2  0
  2 18  1  0
 18 19  2  0
 19 20  1  0
 20 21  2  0
 21 22  1  0
 22 23  2  0
 23 24  1  0
 24 25  2  0
 25 26  1  0
 26 27  2  0
 11  7  1  0
 17 12  1  0
 27 18  1  0
 26 21  1  0
  3 28  1  0
  4 29  1  0
  4 30  1  0
  8 31  1  0
  8 32  1  0
  9 33  1  0
  9 34  1  0
 10 35  1  0
 10 36  1  0
 11 37  1  6
 13 38  1  0
 14 39  1  0
 15 40  1  0
 16 41  1  0
 19 42  1  0
 20 43  1  0
 22 44  1  0
 23 45  1  0
 24 46  1  0
 25 47  1  0
M  END
>  <smiles>  (81) 
O=C(NCC(=O)N1CCCC1c1ccccn1)c1ccc2ccccc2n1

>  <score_type>  (81) 
oracle

>  <origin>  (81) 
autodockgpu

>  <m_score__min__energy>  (81) 
-8.7100000000000009

>  <m_primary>  (81) 
energy

>  <rmsd>  (81) 
4.08587291767471

>  <m_score__min__rmsd>  (81) 
4.08587291767471

>  <meeko>  (81) 
{"free_energy": -8.67, "intermolecular_energy": -10.16, "internal_energy": -1.58, "cluster_size": 8, "cluster_id": 1, "rank_in_cluster": 2}

>  <energy>  (81) 
-8.43

>  <cluster_rmsd>  (81) 
1.2

>  <cluster>  (81) 
2

$$$$

     RDKit          3D

 47 50  0  0  0  0  0  0  0  0999 V2000
  141.1350   71.7100  221.5130 O   0  0  0  0  0  0  0  0  0  0  0  0
  140.3840   72.1700  222.4100 C   0  0  0  0  0  0  0  0  0  0  0  0
  139.6730   73.3990  222.2790 N   0  0  0  0  0  0  0  0  0  0  0  0
  139.8110   74.1830  221.0500 C   0  0  0  0  0  0  0  0  0  0  0  0
  140.8540   75.1870  221.2150 C   0  0  0  0  0  0  0  0  0  0  0  0
  140.9040   75.8010  222.3360 O   0  0  0  0  0  0  0  0  0  0  0  0
  141.8230   75.5620  220.2610 N   0  0  0  0  0  0  0  0  0  0  0  0
  142.2870   76.9560  220.1390 C   0  0  0  0  0  0  0  0  0  0  0  0
  142.1900   77.0510  218.6020 C   0  0  0  0  0  0  0  0  0  0  0  0
  143.1050   75.8590  218.2880 C   0  0  0  0  0  0  0  0  0  0  0  0
  142.5390   74.8170  219.2610 C   0  0  1  0  0  0  0  0  0  0  0  0
  143.7270   74.0900  219.7810 C   0  0  0  0  0  0  0  0  0  0  0  0
  144.7470   74.7650  220.4650 C   0  0  0  0  0  0  0  0  0  0  0  0
  145.8510   74.1000  220.9610 C   0  0  0  0  0  0  0  0  0  0  0  0
  145.9850   72.7360  220.7970 C   0  0  0  0  0  0  0  0  0  0  0  0
  144.9460   72.1080  220.1120 C   0  0  0  0  0  0  0  0  0  0  0  0
  143.8860   72.7780  219.6410 N   0  0  0  0  0  0  0  0  0  0  0  0
  140.2250   71.4030  223.6610 C   0  0  0  0  0  0  0  0  0  0  0  0
  139.5930   70.1780  223.6530 C   0  0  0  0  0  0  0  0  0  0  0  0
  139.4270   69.4320  224.8080 C   0  0  0  0  0  0  0  0  0  0  0  0
  139.9200   69.9600  225.9860 C   0  0  0  0  0  0  0  0  0  0  0  0
  139.7910   69.2780  227.1660 C   0  0  0  0  0  0  0  0  0  0  0  0
  140.2970   69.8270  228.3460 C   0  0  0  0  0  0  0  0  0  0  0  0
  140.9190   71.0500  228.3100 C   0  0  0  0  0  0  0  0  0  0  0  0
  141.0610   71.7580  227.1270 C   0  0  0  0  0  0  0  0  0  0  0  0
  140.5490   71.1860  225.9720 C   0  0  0  0  0  0  0  0  0  0  0  0
  140.7010   71.8960  224.8410 N   0  0  0  0  0  0  0  0  0  0  0  0
  139.0730   73.7000  223.0770 H   0  0  0  0  0  0  0  0  0  0  0  0
  140.0776   73.5137  220.2188 H   0  0  0  0  0  0  0  0  0  0  0  0
  138.8568   74.6853  220.8326 H   0  0  0  0  0  0  0  0  0  0  0  0
  141.6203   77.6678  220.6478 H   0  0  0  0  0  0  0  0  0  0  0  0
  143.2638   77.1913  220.5867 H   0  0  0  0  0  0  0  0  0  0  0  0
  141.1639   76.9032  218.2344 H   0  0  0  0  0  0  0  0  0  0  0  0
  142.4618   78.0156  218.1484 H   0  0  0  0  0  0  0  0  0  0  0  0
  143.0066   75.5347  217.2415 H   0  0  0  0  0  0  0  0  0  0  0  0
  144.1803   76.0606  218.4027 H   0  0  0  0  0  0  0  0  0  0  0  0
  141.8424   74.0806  218.8339 H   0  0  0  0  0  0  0  0  0  0  0  0
  144.6662   75.8523  220.6105 H   0  0  0  0  0  0  0  0  0  0  0  0
  146.6321   74.6634  221.4925 H   0  0  0  0  0  0  0  0  0  0  0  0
  146.8538   72.1815  221.1813 H   0  0  0  0  0  0  0  0  0  0  0  0
  144.9986   71.0209  219.9522 H   0  0  0  0  0  0  0  0  0  0  0  0
  139.2093   69.7814  222.7014 H   0  0  0  0  0  0  0  0  0  0  0  0
  138.9214   68.4553  224.7884 H   0  0  0  0  0  0  0  0  0  0  0  0
  139.2896   68.2991  227.1846 H   0  0  0  0  0  0  0  0  0  0  0  0
  140.1979   69.2835  229.2972 H   0  0  0  0  0  0  0  0  0  0  0  0
  141.3144   71.4786  229.2427 H   0  0  0  0  0  0  0  0  0  0  0  0
  141.5613   72.7374  227.1050 H   0  0  0  0  0  0  0  0  0  0  0  0
  1  2  2  0
  2  3  1  0
  3  4  1  0
  4  5  1  0
  5  6  2  0
  5  7  1  0
  7  8  1  0
  8  9  1  0
  9 10  1  0
 10 11  1  0
 11 12  1  0
 12 13  2  0
 13 14  1  0
 14 15  2  0
 15 16  1  0
 16 17  2  0
  2 18  1  0
 18 19  2  0
 19 20  1  0
 20 21  2  0
 21 22  1  0
 22 23  2  0
 23 24  1  0
 24 25  2  0
 25 26  1  0
 26 27  2  0
 11  7  1  0
 17 12  1  0
 27 18  1  0
 26 21  1  0
  3 28  1  0
  4 29  1  0
  4 30  1  0
  8 31  1  0
  8 32  1  0
  9 33  1  0
  9 34  1  0
 10 35  1  0
 10 36  1  0
 11 37  1  6
 13 38  1  0
 14 39  1  0
 15 40  1  0
 16 41  1  0
 19 42  1  0
 20 43  1  0
 22 44  1  0
 23 45  1  0
 24 46  1  0
 25 47  1  0
M  END
>  <smiles>  (82) 
O=C(NCC(=O)N1CCCC1c1ccccn1)c1ccc2ccccc2n1

>  <score_type>  (82) 
oracle

>  <origin>  (82) 
autodockgpu

>  <m_score__min__energy>  (82) 
-8.7100000000000009

>  <m_primary>  (82) 
energy

>  <rmsd>  (82) 
4.2022882454666455

>  <m_score__min__rmsd>  (82) 
4.2022882454666455

>  <meeko>  (82) 
{"free_energy": -8.71, "intermolecular_energy": -10.21, "internal_energy": -1.55, "cluster_size": 8, "cluster_id": 1, "rank_in_cluster": 1}

>  <energy>  (82) 
-8.41

>  <cluster_rmsd>  (82) 
1.16

>  <cluster>  (82) 
2

$$$$

     RDKit          3D

 47 50  0  0  0  0  0  0  0  0999 V2000
  141.3980   71.8430  221.6030 O   0  0  0  0  0  0  0  0  0  0  0  0
  140.5790   72.2720  222.4550 C   0  0  0  0  0  0  0  0  0  0  0  0
  139.9140   73.5280  222.3360 N   0  0  0  0  0  0  0  0  0  0  0  0
  140.1830   74.3770  221.1750 C   0  0  0  0  0  0  0  0  0  0  0  0
  139.9330   75.7730  221.5110 C   0  0  0  0  0  0  0  0  0  0  0  0
  139.2970   76.0100  222.5950 O   0  0  0  0  0  0  0  0  0  0  0  0
  140.3190   76.9040  220.7610 N   0  0  0  0  0  0  0  0  0  0  0  0
  139.3900   77.5640  219.8250 C   0  0  0  0  0  0  0  0  0  0  0  0
  140.3740   77.6900  218.6440 C   0  0  0  0  0  0  0  0  0  0  0  0
  141.4620   78.4710  219.3960 C   0  0  0  0  0  0  0  0  0  0  0  0
  141.5500   77.6430  220.6840 C   0  0  1  0  0  0  0  0  0  0  0  0
  141.7280   78.6410  221.7710 C   0  0  0  0  0  0  0  0  0  0  0  0
  141.4660   78.3120  223.1080 C   0  0  0  0  0  0  0  0  0  0  0  0
  141.6360   79.2270  224.1270 C   0  0  0  0  0  0  0  0  0  0  0  0
  142.0760   80.5070  223.8600 C   0  0  0  0  0  0  0  0  0  0  0  0
  142.3250   80.7890  222.5170 C   0  0  0  0  0  0  0  0  0  0  0  0
  142.1500   79.8820  221.5470 N   0  0  0  0  0  0  0  0  0  0  0  0
  140.2860   71.4380  223.6370 C   0  0  0  0  0  0  0  0  0  0  0  0
  139.5920   70.2550  223.5020 C   0  0  0  0  0  0  0  0  0  0  0  0
  139.3000   69.4490  224.5900 C   0  0  0  0  0  0  0  0  0  0  0  0
  139.7330   69.8700  225.8330 C   0  0  0  0  0  0  0  0  0  0  0  0
  139.4800   69.1240  226.9510 C   0  0  0  0  0  0  0  0  0  0  0  0
  139.9260   69.5670  228.1980 C   0  0  0  0  0  0  0  0  0  0  0  0
  140.6150   70.7500  228.2890 C   0  0  0  0  0  0  0  0  0  0  0  0
  140.8820   71.5220  227.1700 C   0  0  0  0  0  0  0  0  0  0  0  0
  140.4270   71.0560  225.9460 C   0  0  0  0  0  0  0  0  0  0  0  0
  140.7000   71.8260  224.8780 N   0  0  0  0  0  0  0  0  0  0  0  0
  139.2510   73.7990  223.0940 H   0  0  0  0  0  0  0  0  0  0  0  0
  141.2336   74.2576  220.8718 H   0  0  0  0  0  0  0  0  0  0  0  0
  139.5206   74.0798  220.3486 H   0  0  0  0  0  0  0  0  0  0  0  0
  138.5196   76.9364  219.5828 H   0  0  0  0  0  0  0  0  0  0  0  0
  138.9167   78.4937  220.1736 H   0  0  0  0  0  0  0  0  0  0  0  0
  140.7287   76.7127  218.2846 H   0  0  0  0  0  0  0  0  0  0  0  0
  139.9843   78.1479  217.7229 H   0  0  0  0  0  0  0  0  0  0  0  0
  142.4152   78.4728  218.8470 H   0  0  0  0  0  0  0  0  0  0  0  0
  141.2422   79.5381  219.5478 H   0  0  0  0  0  0  0  0  0  0  0  0
  142.3753   76.9180  220.7411 H   0  0  0  0  0  0  0  0  0  0  0  0
  141.1158   77.2981  223.3514 H   0  0  0  0  0  0  0  0  0  0  0  0
  141.4181   78.9323  225.1642 H   0  0  0  0  0  0  0  0  0  0  0  0
  142.2208   81.2552  224.6533 H   0  0  0  0  0  0  0  0  0  0  0  0
  142.6785   81.7943  222.2440 H   0  0  0  0  0  0  0  0  0  0  0  0
  139.2603   69.9417  222.5011 H   0  0  0  0  0  0  0  0  0  0  0  0
  138.7436   68.5078  224.4690 H   0  0  0  0  0  0  0  0  0  0  0  0
  138.9264   68.1771  226.8681 H   0  0  0  0  0  0  0  0  0  0  0  0
  139.7263   68.9716  229.1011 H   0  0  0  0  0  0  0  0  0  0  0  0
  140.9638   71.0937  229.2740 H   0  0  0  0  0  0  0  0  0  0  0  0
  141.4346   72.4698  227.2497 H   0  0  0  0  0  0  0  0  0  0  0  0
  1  2  2  0
  2  3  1  0
  3  4  1  0
  4  5  1  0
  5  6  2  0
  5  7  1  0
  7  8  1  0
  8  9  1  0
  9 10  1  0
 10 11  1  0
 11 12  1  0
 12 13  2  0
 13 14  1  0
 14 15  2  0
 15 16  1  0
 16 17  2  0
  2 18  1  0
 18 19  2  0
 19 20  1  0
 20 21  2  0
 21 22  1  0
 22 23  2  0
 23 24  1  0
 24 25  2  0
 25 26  1  0
 26 27  2  0
 11  7  1  0
 17 12  1  0
 27 18  1  0
 26 21  1  0
  3 28  1  0
  4 29  1  0
  4 30  1  0
  8 31  1  0
  8 32  1  0
  9 33  1  0
  9 34  1  0
 10 35  1  0
 10 36  1  0
 11 37  1  6
 13 38  1  0
 14 39  1  0
 15 40  1  0
 16 41  1  0
 19 42  1  0
 20 43  1  0
 22 44  1  0
 23 45  1  0
 24 46  1  0
 25 47  1  0
M  END
>  <smiles>  (83) 
O=C(NCC(=O)N1CCCC1c1ccccn1)c1ccc2ccccc2n1

>  <score_type>  (83) 
oracle

>  <origin>  (83) 
autodockgpu

>  <m_score__min__energy>  (83) 
-8.7100000000000009

>  <m_primary>  (83) 
energy

>  <rmsd>  (83) 
2.483189085383205

>  <m_score__min__rmsd>  (83) 
2.483189085383205

>  <meeko>  (83) 
{"free_energy": -8.61, "intermolecular_energy": -10.1, "internal_energy": -1.72, "cluster_size": 32, "cluster_id": 2, "rank_in_cluster": 6}

>  <energy>  (83) 
-8.35

>  <cluster_rmsd>  (83) 
1.26

>  <cluster>  (83) 
2

$$$$

     RDKit          3D

 47 50  0  0  0  0  0  0  0  0999 V2000
  140.9100   71.4480  221.4490 O   0  0  0  0  0  0  0  0  0  0  0  0
  140.3870   71.9860  222.4570 C   0  0  0  0  0  0  0  0  0  0  0  0
  139.9750   73.3510  222.4900 N   0  0  0  0  0  0  0  0  0  0  0  0
  140.1620   74.1870  221.3030 C   0  0  0  0  0  0  0  0  0  0  0  0
  139.8680   75.5780  221.6230 C   0  0  0  0  0  0  0  0  0  0  0  0
  139.2210   75.8070  222.7030 O   0  0  0  0  0  0  0  0  0  0  0  0
  140.2210   76.7120  220.8610 N   0  0  0  0  0  0  0  0  0  0  0  0
  139.2480   77.3820  219.9790 C   0  0  0  0  0  0  0  0  0  0  0  0
  140.1710   77.5110  218.7490 C   0  0  0  0  0  0  0  0  0  0  0  0
  141.3000   78.2830  219.4490 C   0  0  0  0  0  0  0  0  0  0  0  0
  141.4500   77.4460  220.7260 C   0  0  1  0  0  0  0  0  0  0  0  0
  141.6880   78.4360  221.8090 C   0  0  0  0  0  0  0  0  0  0  0  0
  142.1610   79.7240  221.5220 C   0  0  0  0  0  0  0  0  0  0  0  0
  142.3780   80.6550  222.5170 C   0  0  0  0  0  0  0  0  0  0  0  0
  142.1330   80.3450  223.8400 C   0  0  0  0  0  0  0  0  0  0  0  0
  141.6640   79.0530  224.0770 C   0  0  0  0  0  0  0  0  0  0  0  0
  141.4630   78.1680  223.0910 N   0  0  0  0  0  0  0  0  0  0  0  0
  140.1850   71.1680  223.6700 C   0  0  0  0  0  0  0  0  0  0  0  0
  139.5750   69.9350  223.5860 C   0  0  0  0  0  0  0  0  0  0  0  0
  139.3700   69.1420  224.7030 C   0  0  0  0  0  0  0  0  0  0  0  0
  139.8010   69.6310  225.9220 C   0  0  0  0  0  0  0  0  0  0  0  0
  139.6310   68.9010  227.0670 C   0  0  0  0  0  0  0  0  0  0  0  0
  140.0730   69.4120  228.2890 C   0  0  0  0  0  0  0  0  0  0  0  0
  140.6750   70.6450  228.3280 C   0  0  0  0  0  0  0  0  0  0  0  0
  140.8580   71.4010  227.1820 C   0  0  0  0  0  0  0  0  0  0  0  0
  140.4080   70.8670  225.9830 C   0  0  0  0  0  0  0  0  0  0  0  0
  140.5980   71.6220  224.8880 N   0  0  0  0  0  0  0  0  0  0  0  0
  139.5500   73.7080  223.3720 H   0  0  0  0  0  0  0  0  0  0  0  0
  141.2037   74.1044  220.9594 H   0  0  0  0  0  0  0  0  0  0  0  0
  139.4800   73.8465  220.5099 H   0  0  0  0  0  0  0  0  0  0  0  0
  138.3632   76.7599  219.7784 H   0  0  0  0  0  0  0  0  0  0  0  0
  138.7976   78.3115  220.3574 H   0  0  0  0  0  0  0  0  0  0  0  0
  140.5023   76.5344  218.3662 H   0  0  0  0  0  0  0  0  0  0  0  0
  139.7367   77.9761  217.8517 H   0  0  0  0  0  0  0  0  0  0  0  0
  142.2238   78.2843  218.8519 H   0  0  0  0  0  0  0  0  0  0  0  0
  141.0933   79.3501  219.6183 H   0  0  0  0  0  0  0  0  0  0  0  0
  142.2738   76.7171  220.7363 H   0  0  0  0  0  0  0  0  0  0  0  0
  142.3644   79.9996  220.4767 H   0  0  0  0  0  0  0  0  0  0  0  0
  142.7505   81.6558  222.2532 H   0  0  0  0  0  0  0  0  0  0  0  0
  142.2967   81.0683  224.6524 H   0  0  0  0  0  0  0  0  0  0  0  0
  141.4511   78.7490  225.1125 H   0  0  0  0  0  0  0  0  0  0  0  0
  139.2413   69.5701  222.6034 H   0  0  0  0  0  0  0  0  0  0  0  0
  138.8822   68.1593  224.6230 H   0  0  0  0  0  0  0  0  0  0  0  0
  139.1473   67.9140  227.0248 H   0  0  0  0  0  0  0  0  0  0  0  0
  139.9398   68.8309  229.2134 H   0  0  0  0  0  0  0  0  0  0  0  0
  141.0207   71.0426  229.2936 H   0  0  0  0  0  0  0  0  0  0  0  0
  141.3421   72.3880  227.2209 H   0  0  0  0  0  0  0  0  0  0  0  0
  1  2  2  0
  2  3  1  0
  3  4  1  0
  4  5  1  0
  5  6  2  0
  5  7  1  0
  7  8  1  0
  8  9  1  0
  9 10  1  0
 10 11  1  0
 11 12  1  0
 12 13  2  0
 13 14  1  0
 14 15  2  0
 15 16  1  0
 16 17  2  0
  2 18  1  0
 18 19  2  0
 19 20  1  0
 20 21  2  0
 21 22  1  0
 22 23  2  0
 23 24  1  0
 24 25  2  0
 25 26  1  0
 26 27  2  0
 11  7  1  0
 17 12  1  0
 27 18  1  0
 26 21  1  0
  3 28  1  0
  4 29  1  0
  4 30  1  0
  8 31  1  0
  8 32  1  0
  9 33  1  0
  9 34  1  0
 10 35  1  0
 10 36  1  0
 11 37  1  6
 13 38  1  0
 14 39  1  0
 15 40  1  0
 16 41  1  0
 19 42  1  0
 20 43  1  0
 22 44  1  0
 23 45  1  0
 24 46  1  0
 25 47  1  0
M  END
>  <smiles>  (84) 
O=C(NCC(=O)N1CCCC1c1ccccn1)c1ccc2ccccc2n1

>  <score_type>  (84) 
oracle

>  <origin>  (84) 
autodockgpu

>  <m_score__min__energy>  (84) 
-8.7100000000000009

>  <m_primary>  (84) 
energy

>  <rmsd>  (84) 
1.930175469546592

>  <m_score__min__rmsd>  (84) 
1.930175469546592

>  <meeko>  (84) 
{"free_energy": -8.44, "intermolecular_energy": -9.93, "internal_energy": -1.83, "cluster_size": 32, "cluster_id": 2, "rank_in_cluster": 22}

>  <energy>  (84) 
-8.3

>  <cluster_rmsd>  (84) 
1.15

>  <cluster>  (84) 
2

$$$$

     RDKit          3D

 47 50  0  0  0  0  0  0  0  0999 V2000
  141.4730   72.0130  221.6270 O   0  0  0  0  0  0  0  0  0  0  0  0
  140.6140   72.4060  222.4560 C   0  0  0  0  0  0  0  0  0  0  0  0
  139.9160   73.6440  222.3320 N   0  0  0  0  0  0  0  0  0  0  0  0
  140.1990   74.5170  221.1920 C   0  0  0  0  0  0  0  0  0  0  0  0
  139.7090   75.8630  221.4630 C   0  0  0  0  0  0  0  0  0  0  0  0
  138.8620   75.9980  222.4120 O   0  0  0  0  0  0  0  0  0  0  0  0
  140.0690   77.0450  220.7820 N   0  0  0  0  0  0  0  0  0  0  0  0
  139.0800   77.8270  220.0160 C   0  0  0  0  0  0  0  0  0  0  0  0
  139.9420   78.0280  218.7520 C   0  0  0  0  0  0  0  0  0  0  0  0
  141.1380   78.6910  219.4510 C   0  0  0  0  0  0  0  0  0  0  0  0
  141.3190   77.7410  220.6410 C   0  0  1  0  0  0  0  0  0  0  0  0
  141.6560   78.6220  221.7890 C   0  0  0  0  0  0  0  0  0  0  0  0
  142.1960   79.9000  221.5880 C   0  0  0  0  0  0  0  0  0  0  0  0
  142.5050   80.7320  222.6460 C   0  0  0  0  0  0  0  0  0  0  0  0
  142.2900   80.3270  223.9480 C   0  0  0  0  0  0  0  0  0  0  0  0
  141.7520   79.0500  224.0990 C   0  0  0  0  0  0  0  0  0  0  0  0
  141.4620   78.2630  223.0540 N   0  0  0  0  0  0  0  0  0  0  0  0
  140.3070   71.5470  223.6160 C   0  0  0  0  0  0  0  0  0  0  0  0
  139.6110   70.3690  223.4470 C   0  0  0  0  0  0  0  0  0  0  0  0
  139.3070   69.5400  224.5140 C   0  0  0  0  0  0  0  0  0  0  0  0
  139.7270   69.9330  225.7700 C   0  0  0  0  0  0  0  0  0  0  0  0
  139.4610   69.1620  226.8690 C   0  0  0  0  0  0  0  0  0  0  0  0
  139.8940   69.5760  228.1300 C   0  0  0  0  0  0  0  0  0  0  0  0
  140.5840   70.7560  228.2550 C   0  0  0  0  0  0  0  0  0  0  0  0
  140.8650   71.5520  227.1560 C   0  0  0  0  0  0  0  0  0  0  0  0
  140.4220   71.1140  225.9170 C   0  0  0  0  0  0  0  0  0  0  0  0
  140.7080   71.9060  224.8690 N   0  0  0  0  0  0  0  0  0  0  0  0
  139.2210   73.8840  223.0700 H   0  0  0  0  0  0  0  0  0  0  0  0
  141.2850   74.5520  221.0204 H   0  0  0  0  0  0  0  0  0  0  0  0
  139.6936   74.1210  220.2989 H   0  0  0  0  0  0  0  0  0  0  0  0
  138.1601   77.2592  219.8127 H   0  0  0  0  0  0  0  0  0  0  0  0
  138.6902   78.7362  220.4971 H   0  0  0  0  0  0  0  0  0  0  0  0
  140.2102   77.0768  218.2689 H   0  0  0  0  0  0  0  0  0  0  0  0
  139.4818   78.5867  217.9237 H   0  0  0  0  0  0  0  0  0  0  0  0
  142.0283   78.7091  218.8052 H   0  0  0  0  0  0  0  0  0  0  0  0
  140.9864   79.7462  219.7224 H   0  0  0  0  0  0  0  0  0  0  0  0
  142.1103   76.9833  220.5425 H   0  0  0  0  0  0  0  0  0  0  0  0
  142.3783   80.2491  220.5609 H   0  0  0  0  0  0  0  0  0  0  0  0
  142.9272   81.7285  222.4490 H   0  0  0  0  0  0  0  0  0  0  0  0
  142.5274   80.9692  224.8090 H   0  0  0  0  0  0  0  0  0  0  0  0
  141.5582   78.6741  225.1144 H   0  0  0  0  0  0  0  0  0  0  0  0
  139.2880   70.0794  222.4362 H   0  0  0  0  0  0  0  0  0  0  0  0
  138.7511   68.6023  224.3666 H   0  0  0  0  0  0  0  0  0  0  0  0
  138.9071   68.2180  226.7590 H   0  0  0  0  0  0  0  0  0  0  0  0
  139.6837   68.9608  229.0173 H   0  0  0  0  0  0  0  0  0  0  0  0
  140.9219   71.0774  229.2512 H   0  0  0  0  0  0  0  0  0  0  0  0
  141.4190   72.4963  227.2625 H   0  0  0  0  0  0  0  0  0  0  0  0
  1  2  2  0
  2  3  1  0
  3  4  1  0
  4  5  1  0
  5  6  2  0
  5  7  1  0
  7  8  1  0
  8  9  1  0
  9 10  1  0
 10 11  1  0
 11 12  1  0
 12 13  2  0
 13 14  1  0
 14 15  2  0
 15 16  1  0
 16 17  2  0
  2 18  1  0
 18 19  2  0
 19 20  1  0
 20 21  2  0
 21 22  1  0
 22 23  2  0
 23 24  1  0
 24 25  2  0
 25 26  1  0
 26 27  2  0
 11  7  1  0
 17 12  1  0
 27 18  1  0
 26 21  1  0
  3 28  1  0
  4 29  1  0
  4 30  1  0
  8 31  1  0
  8 32  1  0
  9 33  1  0
  9 34  1  0
 10 35  1  0
 10 36  1  0
 11 37  1  6
 13 38  1  0
 14 39  1  0
 15 40  1  0
 16 41  1  0
 19 42  1  0
 20 43  1  0
 22 44  1  0
 23 45  1  0
 24 46  1  0
 25 47  1  0
M  END
>  <smiles>  (85) 
O=C(NCC(=O)N1CCCC1c1ccccn1)c1ccc2ccccc2n1

>  <score_type>  (85) 
oracle

>  <origin>  (85) 
autodockgpu

>  <m_score__min__energy>  (85) 
-8.7100000000000009

>  <m_primary>  (85) 
energy

>  <rmsd>  (85) 
2.1190618185433134

>  <m_score__min__rmsd>  (85) 
2.1190618185433134

>  <meeko>  (85) 
{"free_energy": -8.41, "intermolecular_energy": -9.9, "internal_energy": -1.76, "cluster_size": 32, "cluster_id": 2, "rank_in_cluster": 24}

>  <energy>  (85) 
-8.2

>  <cluster_rmsd>  (85) 
1.04

>  <cluster>  (85) 
2

$$$$

     RDKit          3D

 47 50  0  0  0  0  0  0  0  0999 V2000
  138.4890   75.7380  222.0280 O   0  0  0  0  0  0  0  0  0  0  0  0
  139.6940   76.0940  222.0450 C   0  0  0  0  0  0  0  0  0  0  0  0
  140.7640   75.2510  221.6220 N   0  0  0  0  0  0  0  0  0  0  0  0
  140.4680   73.8990  221.1440 C   0  0  0  0  0  0  0  0  0  0  0  0
  141.6640   73.0700  221.2250 C   0  0  0  0  0  0  0  0  0  0  0  0
  141.5980   72.0140  221.9420 O   0  0  0  0  0  0  0  0  0  0  0  0
  142.9030   73.3120  220.5930 N   0  0  0  0  0  0  0  0  0  0  0  0
  143.5310   72.3060  219.7160 C   0  0  0  0  0  0  0  0  0  0  0  0
  144.9520   72.4040  220.3090 C   0  0  0  0  0  0  0  0  0  0  0  0
  145.1400   73.9120  220.0830 C   0  0  0  0  0  0  0  0  0  0  0  0
  143.7990   74.4360  220.6130 C   0  0  1  0  0  0  0  0  0  0  0  0
  143.4190   75.5310  219.6830 C   0  0  0  0  0  0  0  0  0  0  0  0
  143.6960   75.4460  218.3110 C   0  0  0  0  0  0  0  0  0  0  0  0
  143.3410   76.4520  217.4350 C   0  0  0  0  0  0  0  0  0  0  0  0
  142.6950   77.5850  217.8870 C   0  0  0  0  0  0  0  0  0  0  0  0
  142.4400   77.6260  219.2580 C   0  0  0  0  0  0  0  0  0  0  0  0
  142.7970   76.6350  220.0860 N   0  0  0  0  0  0  0  0  0  0  0  0
  140.0240   77.4520  222.5220 C   0  0  0  0  0  0  0  0  0  0  0  0
  139.0230   78.3220  222.8960 C   0  0  0  0  0  0  0  0  0  0  0  0
  139.2970   79.6010  223.3490 C   0  0  0  0  0  0  0  0  0  0  0  0
  140.6230   79.9860  223.4150 C   0  0  0  0  0  0  0  0  0  0  0  0
  140.9670   81.2360  223.8530 C   0  0  0  0  0  0  0  0  0  0  0  0
  142.3130   81.6060  223.9130 C   0  0  0  0  0  0  0  0  0  0  0  0
  143.2780   80.7090  223.5300 C   0  0  0  0  0  0  0  0  0  0  0  0
  142.9530   79.4380  223.0850 C   0  0  0  0  0  0  0  0  0  0  0  0
  141.6090   79.1000  223.0360 C   0  0  0  0  0  0  0  0  0  0  0  0
  141.3230   77.8620  222.5990 N   0  0  0  0  0  0  0  0  0  0  0  0
  141.7320   75.6340  221.6720 H   0  0  0  0  0  0  0  0  0  0  0  0
  139.6757   73.4576  221.7665 H   0  0  0  0  0  0  0  0  0  0  0  0
  140.1340   73.9506  220.0972 H   0  0  0  0  0  0  0  0  0  0  0  0
  143.0909   71.3055  219.8401 H   0  0  0  0  0  0  0  0  0  0  0  0
  143.4366   72.4688  218.6322 H   0  0  0  0  0  0  0  0  0  0  0  0
  144.9843   72.1300  221.3738 H   0  0  0  0  0  0  0  0  0  0  0  0
  145.7150   71.7405  219.8760 H   0  0  0  0  0  0  0  0  0  0  0  0
  145.9887   74.3077  220.6602 H   0  0  0  0  0  0  0  0  0  0  0  0
  145.3693   74.1978  219.0458 H   0  0  0  0  0  0  0  0  0  0  0  0
  143.8041   74.8378  221.6370 H   0  0  0  0  0  0  0  0  0  0  0  0
  144.2097   74.5542  217.9226 H   0  0  0  0  0  0  0  0  0  0  0  0
  143.5755   76.3497  216.3652 H   0  0  0  0  0  0  0  0  0  0  0  0
  142.4008   78.4014  217.2111 H   0  0  0  0  0  0  0  0  0  0  0  0
  141.9265   78.5050  219.6748 H   0  0  0  0  0  0  0  0  0  0  0  0
  137.9760   77.9906  222.8327 H   0  0  0  0  0  0  0  0  0  0  0  0
  138.4891   80.2860  223.6456 H   0  0  0  0  0  0  0  0  0  0  0  0
  140.1856   81.9479  224.1572 H   0  0  0  0  0  0  0  0  0  0  0  0
  142.5969   82.6089  224.2646 H   0  0  0  0  0  0  0  0  0  0  0  0
  144.3360   81.0065  223.5775 H   0  0  0  0  0  0  0  0  0  0  0  0
  143.7323   78.7233  222.7817 H   0  0  0  0  0  0  0  0  0  0  0  0
  1  2  2  0
  2  3  1  0
  3  4  1  0
  4  5  1  0
  5  6  2  0
  5  7  1  0
  7  8  1  0
  8  9  1  0
  9 10  1  0
 10 11  1  0
 11 12  1  0
 12 13  2  0
 13 14  1  0
 14 15  2  0
 15 16  1  0
 16 17  2  0
  2 18  1  0
 18 19  2  0
 19 20  1  0
 20 21  2  0
 21 22  1  0
 22 23  2  0
 23 24  1  0
 24 25  2  0
 25 26  1  0
 26 27  2  0
 11  7  1  0
 17 12  1  0
 27 18  1  0
 26 21  1  0
  3 28  1  0
  4 29  1  0
  4 30  1  0
  8 31  1  0
  8 32  1  0
  9 33  1  0
  9 34  1  0
 10 35  1  0
 10 36  1  0
 11 37  1  1
 13 38  1  0
 14 39  1  0
 15 40  1  0
 16 41  1  0
 19 42  1  0
 20 43  1  0
 22 44  1  0
 23 45  1  0
 24 46  1  0
 25 47  1  0
M  END
>  <smiles>  (86) 
O=C(NCC(=O)N1CCCC1c1ccccn1)c1ccc2ccccc2n1

>  <score_type>  (86) 
oracle

>  <origin>  (86) 
autodockgpu

>  <m_score__min__energy>  (86) 
-8.7100000000000009

>  <m_primary>  (86) 
energy

>  <rmsd>  (86) 
7.496614293904

>  <m_score__min__rmsd>  (86) 
7.496614293904

>  <meeko>  (86) 
{"free_energy": -7.12, "intermolecular_energy": -8.61, "internal_energy": -2.81, "cluster_size": 6, "cluster_id": 4, "rank_in_cluster": 4}

>  <energy>  (86) 
-8.18

>  <cluster_rmsd>  (86) 
1.44

>  <cluster>  (86) 
2

$$$$

     RDKit          3D

 47 50  0  0  0  0  0  0  0  0999 V2000
  141.2500   71.7950  221.5560 O   0  0  0  0  0  0  0  0  0  0  0  0
  140.4490   72.2180  222.4280 C   0  0  0  0  0  0  0  0  0  0  0  0
  139.6910   73.4170  222.2780 N   0  0  0  0  0  0  0  0  0  0  0  0
  139.8390   74.2130  221.0580 C   0  0  0  0  0  0  0  0  0  0  0  0
  140.9610   75.1320  221.1960 C   0  0  0  0  0  0  0  0  0  0  0  0
  141.1330   75.6800  222.3380 O   0  0  0  0  0  0  0  0  0  0  0  0
  141.8880   75.4890  220.1930 N   0  0  0  0  0  0  0  0  0  0  0  0
  142.3550   76.8780  220.0330 C   0  0  0  0  0  0  0  0  0  0  0  0
  142.1880   76.9540  218.5010 C   0  0  0  0  0  0  0  0  0  0  0  0
  143.0810   75.7520  218.1600 C   0  0  0  0  0  0  0  0  0  0  0  0
  142.5530   74.7260  219.1720 C   0  0  1  0  0  0  0  0  0  0  0  0
  143.7590   73.9980  219.6460 C   0  0  0  0  0  0  0  0  0  0  0  0
  144.6670   74.5970  220.5290 C   0  0  0  0  0  0  0  0  0  0  0  0
  145.7850   73.9280  220.9840 C   0  0  0  0  0  0  0  0  0  0  0  0
  146.0470   72.6350  220.5800 C   0  0  0  0  0  0  0  0  0  0  0  0
  145.1170   72.0800  219.7020 C   0  0  0  0  0  0  0  0  0  0  0  0
  144.0390   72.7520  219.2750 N   0  0  0  0  0  0  0  0  0  0  0  0
  140.2790   71.4380  223.6700 C   0  0  0  0  0  0  0  0  0  0  0  0
  139.6490   70.2130  223.6430 C   0  0  0  0  0  0  0  0  0  0  0  0
  139.4730   69.4550  224.7880 C   0  0  0  0  0  0  0  0  0  0  0  0
  139.9550   69.9700  225.9770 C   0  0  0  0  0  0  0  0  0  0  0  0
  139.8160   69.2760  227.1470 C   0  0  0  0  0  0  0  0  0  0  0  0
  140.3100   69.8130  228.3380 C   0  0  0  0  0  0  0  0  0  0  0  0
  140.9310   71.0370  228.3210 C   0  0  0  0  0  0  0  0  0  0  0  0
  141.0830   71.7570  227.1470 C   0  0  0  0  0  0  0  0  0  0  0  0
  140.5820   71.1980  225.9810 C   0  0  0  0  0  0  0  0  0  0  0  0
  140.7440   71.9190  224.8590 N   0  0  0  0  0  0  0  0  0  0  0  0
  139.0520   73.6880  223.0560 H   0  0  0  0  0  0  0  0  0  0  0  0
  140.0202   73.5423  220.2051 H   0  0  0  0  0  0  0  0  0  0  0  0
  138.9179   74.7902  220.8894 H   0  0  0  0  0  0  0  0  0  0  0  0
  141.7169   77.6007  220.5627 H   0  0  0  0  0  0  0  0  0  0  0  0
  143.3526   77.1123  220.4328 H   0  0  0  0  0  0  0  0  0  0  0  0
  141.1452   76.8080  218.1829 H   0  0  0  0  0  0  0  0  0  0  0  0
  142.4443   77.9110  218.0231 H   0  0  0  0  0  0  0  0  0  0  0  0
  142.9327   75.4153  217.1233 H   0  0  0  0  0  0  0  0  0  0  0  0
  144.1617   75.9476  218.2222 H   0  0  0  0  0  0  0  0  0  0  0  0
  141.8328   73.9886  218.7877 H   0  0  0  0  0  0  0  0  0  0  0  0
  144.4840   75.6272  220.8684 H   0  0  0  0  0  0  0  0  0  0  0  0
  146.4753   74.4315  221.6768 H   0  0  0  0  0  0  0  0  0  0  0  0
  146.9304   72.0793  220.9274 H   0  0  0  0  0  0  0  0  0  0  0  0
  145.2741   71.0511  219.3461 H   0  0  0  0  0  0  0  0  0  0  0  0
  139.2749   69.8260  222.6837 H   0  0  0  0  0  0  0  0  0  0  0  0
  138.9680   68.4784  224.7530 H   0  0  0  0  0  0  0  0  0  0  0  0
  139.3159   68.2963  227.1502 H   0  0  0  0  0  0  0  0  0  0  0  0
  140.2022   69.2593  229.2823 H   0  0  0  0  0  0  0  0  0  0  0  0
  141.3172   71.4563  229.2618 H   0  0  0  0  0  0  0  0  0  0  0  0
  141.5831   72.7367  227.1401 H   0  0  0  0  0  0  0  0  0  0  0  0
  1  2  2  0
  2  3  1  0
  3  4  1  0
  4  5  1  0
  5  6  2  0
  5  7  1  0
  7  8  1  0
  8  9  1  0
  9 10  1  0
 10 11  1  0
 11 12  1  0
 12 13  2  0
 13 14  1  0
 14 15  2  0
 15 16  1  0
 16 17  2  0
  2 18  1  0
 18 19  2  0
 19 20  1  0
 20 21  2  0
 21 22  1  0
 22 23  2  0
 23 24  1  0
 24 25  2  0
 25 26  1  0
 26 27  2  0
 11  7  1  0
 17 12  1  0
 27 18  1  0
 26 21  1  0
  3 28  1  0
  4 29  1  0
  4 30  1  0
  8 31  1  0
  8 32  1  0
  9 33  1  0
  9 34  1  0
 10 35  1  0
 10 36  1  0
 11 37  1  6
 13 38  1  0
 14 39  1  0
 15 40  1  0
 16 41  1  0
 19 42  1  0
 20 43  1  0
 22 44  1  0
 23 45  1  0
 24 46  1  0
 25 47  1  0
M  END
>  <smiles>  (87) 
O=C(NCC(=O)N1CCCC1c1ccccn1)c1ccc2ccccc2n1

>  <score_type>  (87) 
oracle

>  <origin>  (87) 
autodockgpu

>  <m_score__min__energy>  (87) 
-8.7100000000000009

>  <m_primary>  (87) 
energy

>  <rmsd>  (87) 
4.275914715220411

>  <m_score__min__rmsd>  (87) 
4.275914715220411

>  <meeko>  (87) 
{"free_energy": -8.57, "intermolecular_energy": -10.06, "internal_energy": -1.53, "cluster_size": 8, "cluster_id": 1, "rank_in_cluster": 5}

>  <energy>  (87) 
-8.07

>  <cluster_rmsd>  (87) 
1.99

>  <cluster>  (87) 
2

$$$$

     RDKit          3D

 47 50  0  0  0  0  0  0  0  0999 V2000
  138.5410   75.5880  222.0690 O   0  0  0  0  0  0  0  0  0  0  0  0
  139.7340   75.9800  222.0490 C   0  0  0  0  0  0  0  0  0  0  0  0
  140.8180   75.1650  221.6060 N   0  0  0  0  0  0  0  0  0  0  0  0
  140.5510   73.8000  221.1490 C   0  0  0  0  0  0  0  0  0  0  0  0
  141.7720   73.0070  221.2140 C   0  0  0  0  0  0  0  0  0  0  0  0
  141.7280   71.9160  221.8820 O   0  0  0  0  0  0  0  0  0  0  0  0
  143.0120   73.3150  220.6160 N   0  0  0  0  0  0  0  0  0  0  0  0
  143.7260   72.3400  219.7720 C   0  0  0  0  0  0  0  0  0  0  0  0
  145.1200   72.5310  220.4050 C   0  0  0  0  0  0  0  0  0  0  0  0
  145.2240   74.0440  220.1650 C   0  0  0  0  0  0  0  0  0  0  0  0
  143.8380   74.4920  220.6490 C   0  0  1  0  0  0  0  0  0  0  0  0
  143.4220   75.5520  219.6940 C   0  0  0  0  0  0  0  0  0  0  0  0
  143.6890   75.4380  218.3230 C   0  0  0  0  0  0  0  0  0  0  0  0
  143.2990   76.4110  217.4240 C   0  0  0  0  0  0  0  0  0  0  0  0
  142.6280   77.5390  217.8520 C   0  0  0  0  0  0  0  0  0  0  0  0
  142.3840   77.6090  219.2240 C   0  0  0  0  0  0  0  0  0  0  0  0
  142.7740   76.6490  220.0740 N   0  0  0  0  0  0  0  0  0  0  0  0
  140.0350   77.3520  222.5030 C   0  0  0  0  0  0  0  0  0  0  0  0
  139.0150   78.2180  222.8300 C   0  0  0  0  0  0  0  0  0  0  0  0
  139.2610   79.5110  223.2610 C   0  0  0  0  0  0  0  0  0  0  0  0
  140.5800   79.9140  223.3540 C   0  0  0  0  0  0  0  0  0  0  0  0
  140.8970   81.1780  223.7710 C   0  0  0  0  0  0  0  0  0  0  0  0
  142.2360   81.5650  223.8590 C   0  0  0  0  0  0  0  0  0  0  0  0
  143.2220   80.6720  223.5240 C   0  0  0  0  0  0  0  0  0  0  0  0
  142.9240   79.3870  223.0990 C   0  0  0  0  0  0  0  0  0  0  0  0
  141.5860   79.0310  223.0220 C   0  0  0  0  0  0  0  0  0  0  0  0
  141.3260   77.7800  222.6060 N   0  0  0  0  0  0  0  0  0  0  0  0
  141.7750   75.5790  221.6250 H   0  0  0  0  0  0  0  0  0  0  0  0
  139.7848   73.3432  221.7927 H   0  0  0  0  0  0  0  0  0  0  0  0
  140.1937   73.8298  220.1091 H   0  0  0  0  0  0  0  0  0  0  0  0
  143.3439   71.3160  219.8963 H   0  0  0  0  0  0  0  0  0  0  0  0
  143.6548   72.4846  218.6839 H   0  0  0  0  0  0  0  0  0  0  0  0
  145.1367   72.2717  221.4739 H   0  0  0  0  0  0  0  0  0  0  0  0
  145.9342   71.9101  220.0031 H   0  0  0  0  0  0  0  0  0  0  0  0
  146.0298   74.4966  220.7615 H   0  0  0  0  0  0  0  0  0  0  0  0
  145.4668   74.3315  219.1314 H   0  0  0  0  0  0  0  0  0  0  0  0
  143.7873   74.9042  221.6676 H   0  0  0  0  0  0  0  0  0  0  0  0
  144.2232   74.5503  217.9533 H   0  0  0  0  0  0  0  0  0  0  0  0
  143.5255   76.2858  216.3549 H   0  0  0  0  0  0  0  0  0  0  0  0
  142.3072   78.3297  217.1578 H   0  0  0  0  0  0  0  0  0  0  0  0
  141.8516   78.4850  219.6230 H   0  0  0  0  0  0  0  0  0  0  0  0
  137.9741   77.8723  222.7463 H   0  0  0  0  0  0  0  0  0  0  0  0
  138.4370   80.1923  223.5198 H   0  0  0  0  0  0  0  0  0  0  0  0
  140.0993   81.8875  224.0362 H   0  0  0  0  0  0  0  0  0  0  0  0
  142.4983   82.5792  224.1947 H   0  0  0  0  0  0  0  0  0  0  0  0
  144.2746   80.9834  223.5944 H   0  0  0  0  0  0  0  0  0  0  0  0
  143.7196   78.6756  222.8325 H   0  0  0  0  0  0  0  0  0  0  0  0
  1  2  2  0
  2  3  1  0
  3  4  1  0
  4  5  1  0
  5  6  2  0
  5  7  1  0
  7  8  1  0
  8  9  1  0
  9 10  1  0
 10 11  1  0
 11 12  1  0
 12 13  2  0
 13 14  1  0
 14 15  2  0
 15 16  1  0
 16 17  2  0
  2 18  1  0
 18 19  2  0
 19 20  1  0
 20 21  2  0
 21 22  1  0
 22 23  2  0
 23 24  1  0
 24 25  2  0
 25 26  1  0
 26 27  2  0
 11  7  1  0
 17 12  1  0
 27 18  1  0
 26 21  1  0
  3 28  1  0
  4 29  1  0
  4 30  1  0
  8 31  1  0
  8 32  1  0
  9 33  1  0
  9 34  1  0
 10 35  1  0
 10 36  1  0
 11 37  1  1
 13 38  1  0
 14 39  1  0
 15 40  1  0
 16 41  1  0
 19 42  1  0
 20 43  1  0
 22 44  1  0
 23 45  1  0
 24 46  1  0
 25 47  1  0
M  END
>  <smiles>  (88) 
O=C(NCC(=O)N1CCCC1c1ccccn1)c1ccc2ccccc2n1

>  <score_type>  (88) 
oracle

>  <origin>  (88) 
autodockgpu

>  <m_score__min__energy>  (88) 
-8.7100000000000009

>  <m_primary>  (88) 
energy

>  <rmsd>  (88) 
7.481729686231172

>  <m_score__min__rmsd>  (88) 
7.481729686231172

>  <meeko>  (88) 
{"free_energy": -7.12, "intermolecular_energy": -8.61, "internal_energy": -2.82, "cluster_size": 6, "cluster_id": 4, "rank_in_cluster": 5}

>  <energy>  (88) 
-7.9

>  <cluster_rmsd>  (88) 
1.99

>  <cluster>  (88) 
2

$$$$

     RDKit          3D

 47 50  0  0  0  0  0  0  0  0999 V2000
  140.7350   71.4530  221.3340 O   0  0  0  0  0  0  0  0  0  0  0  0
  140.2990   72.0650  222.3420 C   0  0  0  0  0  0  0  0  0  0  0  0
  139.9000   73.4340  222.3130 N   0  0  0  0  0  0  0  0  0  0  0  0
  139.9950   74.1840  221.0600 C   0  0  0  0  0  0  0  0  0  0  0  0
  140.9990   75.2340  221.1840 C   0  0  0  0  0  0  0  0  0  0  0  0
  141.0080   75.9120  222.2690 O   0  0  0  0  0  0  0  0  0  0  0  0
  141.9710   75.5900  220.2250 N   0  0  0  0  0  0  0  0  0  0  0  0
  142.4280   76.9830  220.0690 C   0  0  0  0  0  0  0  0  0  0  0  0
  142.3380   77.0370  218.5300 C   0  0  0  0  0  0  0  0  0  0  0  0
  143.2620   75.8430  218.2520 C   0  0  0  0  0  0  0  0  0  0  0  0
  142.6960   74.8230  219.2490 C   0  0  1  0  0  0  0  0  0  0  0  0
  143.8860   74.1180  219.7940 C   0  0  0  0  0  0  0  0  0  0  0  0
  144.0610   72.7400  219.6040 C   0  0  0  0  0  0  0  0  0  0  0  0
  145.1660   72.0740  220.0960 C   0  0  0  0  0  0  0  0  0  0  0  0
  146.1430   72.7520  220.7980 C   0  0  0  0  0  0  0  0  0  0  0  0
  145.9260   74.1200  220.9610 C   0  0  0  0  0  0  0  0  0  0  0  0
  144.8440   74.7400  220.4730 N   0  0  0  0  0  0  0  0  0  0  0  0
  140.1920   71.3350  223.6200 C   0  0  0  0  0  0  0  0  0  0  0  0
  139.6150   70.0840  223.6630 C   0  0  0  0  0  0  0  0  0  0  0  0
  139.4990   69.3720  224.8450 C   0  0  0  0  0  0  0  0  0  0  0  0
  139.9850   69.9600  225.9970 C   0  0  0  0  0  0  0  0  0  0  0  0
  139.9040   69.3130  227.2000 C   0  0  0  0  0  0  0  0  0  0  0  0
  140.4020   69.9240  228.3530 C   0  0  0  0  0  0  0  0  0  0  0  0
  140.9690   71.1710  228.2670 C   0  0  0  0  0  0  0  0  0  0  0  0
  141.0630   71.8440  227.0590 C   0  0  0  0  0  0  0  0  0  0  0  0
  140.5590   71.2120  225.9320 C   0  0  0  0  0  0  0  0  0  0  0  0
  140.6630   71.8880  224.7750 N   0  0  0  0  0  0  0  0  0  0  0  0
  139.5520   73.8560  223.2010 H   0  0  0  0  0  0  0  0  0  0  0  0
  140.2807   73.5006  220.2468 H   0  0  0  0  0  0  0  0  0  0  0  0
  139.0195   74.6408  220.8369 H   0  0  0  0  0  0  0  0  0  0  0  0
  141.7549   77.7041  220.5558 H   0  0  0  0  0  0  0  0  0  0  0  0
  143.4012   77.2355  220.5151 H   0  0  0  0  0  0  0  0  0  0  0  0
  141.3146   76.8730  218.1614 H   0  0  0  0  0  0  0  0  0  0  0  0
  142.6059   77.9910  218.0524 H   0  0  0  0  0  0  0  0  0  0  0  0
  143.1716   75.4911  217.2137 H   0  0  0  0  0  0  0  0  0  0  0  0
  144.3354   76.0539  218.3673 H   0  0  0  0  0  0  0  0  0  0  0  0
  142.0058   74.0715  218.8381 H   0  0  0  0  0  0  0  0  0  0  0  0
  143.2982   72.1747  219.0485 H   0  0  0  0  0  0  0  0  0  0  0  0
  145.2691   70.9920  219.9270 H   0  0  0  0  0  0  0  0  0  0  0  0
  147.0329   72.2469  221.2016 H   0  0  0  0  0  0  0  0  0  0  0  0
  146.6720   74.7122  221.5113 H   0  0  0  0  0  0  0  0  0  0  0  0
  139.2358   69.6384  222.7316 H   0  0  0  0  0  0  0  0  0  0  0  0
  139.0365   68.3742  224.8660 H   0  0  0  0  0  0  0  0  0  0  0  0
  139.4477   68.3139  227.2589 H   0  0  0  0  0  0  0  0  0  0  0  0
  140.3402   69.4094  229.3232 H   0  0  0  0  0  0  0  0  0  0  0  0
  141.3582   71.6477  229.1787 H   0  0  0  0  0  0  0  0  0  0  0  0
  141.5204   72.8424  226.9964 H   0  0  0  0  0  0  0  0  0  0  0  0
  1  2  2  0
  2  3  1  0
  3  4  1  0
  4  5  1  0
  5  6  2  0
  5  7  1  0
  7  8  1  0
  8  9  1  0
  9 10  1  0
 10 11  1  0
 11 12  1  0
 12 13  2  0
 13 14  1  0
 14 15  2  0
 15 16  1  0
 16 17  2  0
  2 18  1  0
 18 19  2  0
 19 20  1  0
 20 21  2  0
 21 22  1  0
 22 23  2  0
 23 24  1  0
 24 25  2  0
 25 26  1  0
 26 27  2  0
 11  7  1  0
 17 12  1  0
 27 18  1  0
 26 21  1  0
  3 28  1  0
  4 29  1  0
  4 30  1  0
  8 31  1  0
  8 32  1  0
  9 33  1  0
  9 34  1  0
 10 35  1  0
 10 36  1  0
 11 37  1  6
 13 38  1  0
 14 39  1  0
 15 40  1  0
 16 41  1  0
 19 42  1  0
 20 43  1  0
 22 44  1  0
 23 45  1  0
 24 46  1  0
 25 47  1  0
M  END
>  <smiles>  (89) 
O=C(NCC(=O)N1CCCC1c1ccccn1)c1ccc2ccccc2n1

>  <score_type>  (89) 
oracle

>  <origin>  (89) 
autodockgpu

>  <m_score__min__energy>  (89) 
-8.7100000000000009

>  <m_primary>  (89) 
energy

>  <rmsd>  (89) 
4.450022098373745

>  <m_score__min__rmsd>  (89) 
4.450022098373745

>  <meeko>  (89) 
{"free_energy": -8.58, "intermolecular_energy": -10.07, "internal_energy": -1.67, "cluster_size": 8, "cluster_id": 1, "rank_in_cluster": 4}

>  <energy>  (89) 
-7.88

>  <cluster_rmsd>  (89) 
1.98

>  <cluster>  (89) 
2

$$$$

     RDKit          3D

 47 50  0  0  0  0  0  0  0  0999 V2000
  141.4860   72.0490  221.6080 O   0  0  0  0  0  0  0  0  0  0  0  0
  140.6250   72.4290  222.4410 C   0  0  0  0  0  0  0  0  0  0  0  0
  139.9360   73.6730  222.3410 N   0  0  0  0  0  0  0  0  0  0  0  0
  140.2300   74.5710  221.2230 C   0  0  0  0  0  0  0  0  0  0  0  0
  139.6100   75.8690  221.4510 C   0  0  0  0  0  0  0  0  0  0  0  0
  138.6750   75.9280  222.3220 O   0  0  0  0  0  0  0  0  0  0  0  0
  139.9290   77.0830  220.8040 N   0  0  0  0  0  0  0  0  0  0  0  0
  138.8940   77.9050  220.1500 C   0  0  0  0  0  0  0  0  0  0  0  0
  139.6650   78.1640  218.8390 C   0  0  0  0  0  0  0  0  0  0  0  0
  140.9130   78.7880  219.4820 C   0  0  0  0  0  0  0  0  0  0  0  0
  141.1710   77.7790  220.6080 C   0  0  1  0  0  0  0  0  0  0  0  0
  141.5970   78.6010  221.7710 C   0  0  0  0  0  0  0  0  0  0  0  0
  142.1870   79.8600  221.5910 C   0  0  0  0  0  0  0  0  0  0  0  0
  142.5780   80.6370  222.6630 C   0  0  0  0  0  0  0  0  0  0  0  0
  142.3970   80.1960  223.9580 C   0  0  0  0  0  0  0  0  0  0  0  0
  141.8060   78.9400  224.0880 C   0  0  0  0  0  0  0  0  0  0  0  0
  141.4370   78.2050  223.0300 N   0  0  0  0  0  0  0  0  0  0  0  0
  140.3070   71.5460  223.5800 C   0  0  0  0  0  0  0  0  0  0  0  0
  139.6030   70.3780  223.3820 C   0  0  0  0  0  0  0  0  0  0  0  0
  139.2880   69.5260  224.4270 C   0  0  0  0  0  0  0  0  0  0  0  0
  139.7050   69.8870  225.6950 C   0  0  0  0  0  0  0  0  0  0  0  0
  139.4280   69.0940  226.7740 C   0  0  0  0  0  0  0  0  0  0  0  0
  139.8590   69.4760  228.0470 C   0  0  0  0  0  0  0  0  0  0  0  0
  140.5570   70.6470  228.2010 C   0  0  0  0  0  0  0  0  0  0  0  0
  140.8490   71.4660  227.1220 C   0  0  0  0  0  0  0  0  0  0  0  0
  140.4080   71.0600  225.8710 C   0  0  0  0  0  0  0  0  0  0  0  0
  140.7040   71.8740  224.8430 N   0  0  0  0  0  0  0  0  0  0  0  0
  139.2380   73.9020  223.0820 H   0  0  0  0  0  0  0  0  0  0  0  0
  141.3190   74.6979  221.1343 H   0  0  0  0  0  0  0  0  0  0  0  0
  139.8285   74.1367  220.2955 H   0  0  0  0  0  0  0  0  0  0  0  0
  137.9577   77.3514  219.9858 H   0  0  0  0  0  0  0  0  0  0  0  0
  138.5462   78.7911  220.7013 H   0  0  0  0  0  0  0  0  0  0  0  0
  139.8912   77.2365  218.2926 H   0  0  0  0  0  0  0  0  0  0  0  0
  139.1509   78.7640  218.0737 H   0  0  0  0  0  0  0  0  0  0  0  0
  141.7551   78.8347  218.7758 H   0  0  0  0  0  0  0  0  0  0  0  0
  140.7892   79.8292  219.8146 H   0  0  0  0  0  0  0  0  0  0  0  0
  141.9469   77.0232  220.4160 H   0  0  0  0  0  0  0  0  0  0  0  0
  142.3423   80.2382  220.5698 H   0  0  0  0  0  0  0  0  0  0  0  0
  143.0393   81.6192  222.4828 H   0  0  0  0  0  0  0  0  0  0  0  0
  142.6989   80.7954  224.8295 H   0  0  0  0  0  0  0  0  0  0  0  0
  141.6362   78.5371  225.0973 H   0  0  0  0  0  0  0  0  0  0  0  0
  139.2817   70.1147  222.3634 H   0  0  0  0  0  0  0  0  0  0  0  0
  138.7265   68.5959  224.2548 H   0  0  0  0  0  0  0  0  0  0  0  0
  138.8670   68.1573  226.6401 H   0  0  0  0  0  0  0  0  0  0  0  0
  139.6403   68.8425  228.9193 H   0  0  0  0  0  0  0  0  0  0  0  0
  140.8931   70.9431  229.2057 H   0  0  0  0  0  0  0  0  0  0  0  0
  141.4097   72.4033  227.2526 H   0  0  0  0  0  0  0  0  0  0  0  0
  1  2  2  0
  2  3  1  0
  3  4  1  0
  4  5  1  0
  5  6  2  0
  5  7  1  0
  7  8  1  0
  8  9  1  0
  9 10  1  0
 10 11  1  0
 11 12  1  0
 12 13  2  0
 13 14  1  0
 14 15  2  0
 15 16  1  0
 16 17  2  0
  2 18  1  0
 18 19  2  0
 19 20  1  0
 20 21  2  0
 21 22  1  0
 22 23  2  0
 23 24  1  0
 24 25  2  0
 25 26  1  0
 26 27  2  0
 11  7  1  0
 17 12  1  0
 27 18  1  0
 26 21  1  0
  3 28  1  0
  4 29  1  0
  4 30  1  0
  8 31  1  0
  8 32  1  0
  9 33  1  0
  9 34  1  0
 10 35  1  0
 10 36  1  0
 11 37  1  6
 13 38  1  0
 14 39  1  0
 15 40  1  0
 16 41  1  0
 19 42  1  0
 20 43  1  0
 22 44  1  0
 23 45  1  0
 24 46  1  0
 25 47  1  0
M  END
>  <smiles>  (90) 
O=C(NCC(=O)N1CCCC1c1ccccn1)c1ccc2ccccc2n1

>  <score_type>  (90) 
oracle

>  <origin>  (90) 
autodockgpu

>  <m_score__min__energy>  (90) 
-8.7100000000000009

>  <m_primary>  (90) 
energy

>  <rmsd>  (90) 
2.165455394993957

>  <m_score__min__rmsd>  (90) 
2.165455394993957

>  <meeko>  (90) 
{"free_energy": -8.3, "intermolecular_energy": -9.79, "internal_energy": -1.77, "cluster_size": 32, "cluster_id": 2, "rank_in_cluster": 26}

>  <energy>  (90) 
-7.8

>  <cluster_rmsd>  (90) 
1.37

>  <cluster>  (90) 
2

$$$$

     RDKit          3D

 47 50  0  0  0  0  0  0  0  0999 V2000
  141.3680   71.5480  221.6850 O   0  0  0  0  0  0  0  0  0  0  0  0
  140.5870   71.9820  222.5690 C   0  0  0  0  0  0  0  0  0  0  0  0
  139.9470   73.2540  222.4900 N   0  0  0  0  0  0  0  0  0  0  0  0
  140.1980   74.1150  221.3330 C   0  0  0  0  0  0  0  0  0  0  0  0
  139.9440   75.5070  221.6840 C   0  0  0  0  0  0  0  0  0  0  0  0
  139.1840   75.7290  222.6890 O   0  0  0  0  0  0  0  0  0  0  0  0
  140.4480   76.6490  221.0270 N   0  0  0  0  0  0  0  0  0  0  0  0
  140.0240   77.0030  219.6600 C   0  0  0  0  0  0  0  0  0  0  0  0
  141.4320   77.2910  219.0970 C   0  0  0  0  0  0  0  0  0  0  0  0
  141.8250   78.3580  220.1290 C   0  0  0  0  0  0  0  0  0  0  0  0
  141.3910   77.6580  221.4230 C   0  0  1  0  0  0  0  0  0  0  0  0
  140.8100   78.7360  222.2660 C   0  0  0  0  0  0  0  0  0  0  0  0
  141.5710   79.8490  222.6460 C   0  0  0  0  0  0  0  0  0  0  0  0
  141.0390   80.8610  223.4210 C   0  0  0  0  0  0  0  0  0  0  0  0
  139.7280   80.8070  223.8500 C   0  0  0  0  0  0  0  0  0  0  0  0
  139.0100   79.6810  223.4480 C   0  0  0  0  0  0  0  0  0  0  0  0
  139.5520   78.7130  222.6960 N   0  0  0  0  0  0  0  0  0  0  0  0
  140.3140   71.1370  223.7480 C   0  0  0  0  0  0  0  0  0  0  0  0
  139.5800   69.9770  223.6200 C   0  0  0  0  0  0  0  0  0  0  0  0
  139.3060   69.1610  224.7040 C   0  0  0  0  0  0  0  0  0  0  0  0
  139.7960   69.5490  225.9370 C   0  0  0  0  0  0  0  0  0  0  0  0
  139.5630   68.7910  227.0520 C   0  0  0  0  0  0  0  0  0  0  0  0
  140.0670   69.2000  228.2890 C   0  0  0  0  0  0  0  0  0  0  0  0
  140.7920   70.3620  228.3730 C   0  0  0  0  0  0  0  0  0  0  0  0
  141.0410   71.1450  227.2570 C   0  0  0  0  0  0  0  0  0  0  0  0
  140.5270   70.7130  226.0430 C   0  0  0  0  0  0  0  0  0  0  0  0
  140.7830   71.4920  224.9780 N   0  0  0  0  0  0  0  0  0  0  0  0
  139.3150   73.5290  223.2730 H   0  0  0  0  0  0  0  0  0  0  0  0
  141.2457   74.0042  221.0167 H   0  0  0  0  0  0  0  0  0  0  0  0
  139.5278   73.8212  220.5117 H   0  0  0  0  0  0  0  0  0  0  0  0
  139.5267   76.1685  219.1440 H   0  0  0  0  0  0  0  0  0  0  0  0
  139.2816   77.8094  219.5674 H   0  0  0  0  0  0  0  0  0  0  0  0
  142.0885   76.4090  219.1313 H   0  0  0  0  0  0  0  0  0  0  0  0
  141.4910   77.5821  218.0379 H   0  0  0  0  0  0  0  0  0  0  0  0
  142.9067   78.5575  220.1169 H   0  0  0  0  0  0  0  0  0  0  0  0
  141.3718   79.3469  219.9653 H   0  0  0  0  0  0  0  0  0  0  0  0
  142.1858   77.1596  221.9973 H   0  0  0  0  0  0  0  0  0  0  0  0
  142.6189   79.9188  222.3189 H   0  0  0  0  0  0  0  0  0  0  0  0
  141.6672   81.7199  223.6996 H   0  0  0  0  0  0  0  0  0  0  0  0
  139.2796   81.5991  224.4676 H   0  0  0  0  0  0  0  0  0  0  0  0
  137.9596   79.5837  223.7598 H   0  0  0  0  0  0  0  0  0  0  0  0
  139.2011   69.6916  222.6275 H   0  0  0  0  0  0  0  0  0  0  0  0
  138.7197   68.2375  224.5885 H   0  0  0  0  0  0  0  0  0  0  0  0
  138.9800   67.8614  226.9745 H   0  0  0  0  0  0  0  0  0  0  0  0
  139.8840   68.5949  229.1892 H   0  0  0  0  0  0  0  0  0  0  0  0
  141.1851   70.6797  229.3500 H   0  0  0  0  0  0  0  0  0  0  0  0
  141.6245   72.0745  227.3310 H   0  0  0  0  0  0  0  0  0  0  0  0
  1  2  2  0
  2  3  1  0
  3  4  1  0
  4  5  1  0
  5  6  2  0
  5  7  1  0
  7  8  1  0
  8  9  1  0
  9 10  1  0
 10 11  1  0
 11 12  1  0
 12 13  2  0
 13 14  1  0
 14 15  2  0
 15 16  1  0
 16 17  2  0
  2 18  1  0
 18 19  2  0
 19 20  1  0
 20 21  2  0
 21 22  1  0
 22 23  2  0
 23 24  1  0
 24 25  2  0
 25 26  1  0
 26 27  2  0
 11  7  1  0
 17 12  1  0
 27 18  1  0
 26 21  1  0
  3 28  1  0
  4 29  1  0
  4 30  1  0
  8 31  1  0
  8 32  1  0
  9 33  1  0
  9 34  1  0
 10 35  1  0
 10 36  1  0
 11 37  1  1
 13 38  1  0
 14 39  1  0
 15 40  1  0
 16 41  1  0
 19 42  1  0
 20 43  1  0
 22 44  1  0
 23 45  1  0
 24 46  1  0
 25 47  1  0
M  END
>  <smiles>  (91) 
O=C(NCC(=O)N1CCCC1c1ccccn1)c1ccc2ccccc2n1

>  <score_type>  (91) 
oracle

>  <origin>  (91) 
autodockgpu

>  <m_score__min__energy>  (91) 
-8.7100000000000009

>  <m_primary>  (91) 
energy

>  <rmsd>  (91) 
2.1777130456109335

>  <m_score__min__rmsd>  (91) 
2.1777130456109335

>  <meeko>  (91) 
{"free_energy": -8.18, "intermolecular_energy": -9.67, "internal_energy": -1.71, "cluster_size": 32, "cluster_id": 2, "rank_in_cluster": 28}

>  <energy>  (91) 
-7.84

>  <cluster_rmsd>  (91) 
0.0

>  <cluster>  (91) 
3

$$$$

     RDKit          3D

 47 50  0  0  0  0  0  0  0  0999 V2000
  140.9740   71.5650  221.3520 O   0  0  0  0  0  0  0  0  0  0  0  0
  140.4160   72.0900  222.3480 C   0  0  0  0  0  0  0  0  0  0  0  0
  139.9780   73.4480  222.3740 N   0  0  0  0  0  0  0  0  0  0  0  0
  140.1810   74.2910  221.1950 C   0  0  0  0  0  0  0  0  0  0  0  0
  140.1110   75.6970  221.5720 C   0  0  0  0  0  0  0  0  0  0  0  0
  139.5850   75.9760  222.7040 O   0  0  0  0  0  0  0  0  0  0  0  0
  140.5620   76.7980  220.8130 N   0  0  0  0  0  0  0  0  0  0  0  0
  139.7380   77.3870  219.7410 C   0  0  0  0  0  0  0  0  0  0  0  0
  140.8530   77.4760  218.6780 C   0  0  0  0  0  0  0  0  0  0  0  0
  141.8300   78.3200  219.5090 C   0  0  0  0  0  0  0  0  0  0  0  0
  141.7800   77.5610  220.8410 C   0  0  1  0  0  0  0  0  0  0  0  0
  141.8110   78.6170  221.8870 C   0  0  0  0  0  0  0  0  0  0  0  0
  142.1820   79.9320  221.5770 C   0  0  0  0  0  0  0  0  0  0  0  0
  142.2050   80.9240  222.5370 C   0  0  0  0  0  0  0  0  0  0  0  0
  141.8610   80.6490  223.8450 C   0  0  0  0  0  0  0  0  0  0  0  0
  141.5000   79.3270  224.1060 C   0  0  0  0  0  0  0  0  0  0  0  0
  141.4860   78.3840  223.1550 N   0  0  0  0  0  0  0  0  0  0  0  0
  140.1980   71.2650  223.5530 C   0  0  0  0  0  0  0  0  0  0  0  0
  139.5810   70.0370  223.4540 C   0  0  0  0  0  0  0  0  0  0  0  0
  139.3610   69.2370  224.5630 C   0  0  0  0  0  0  0  0  0  0  0  0
  139.7850   69.7130  225.7900 C   0  0  0  0  0  0  0  0  0  0  0  0
  139.6010   68.9760  226.9280 C   0  0  0  0  0  0  0  0  0  0  0  0
  140.0370   69.4750  228.1570 C   0  0  0  0  0  0  0  0  0  0  0  0
  140.6480   70.7020  228.2110 C   0  0  0  0  0  0  0  0  0  0  0  0
  140.8460   71.4650  227.0710 C   0  0  0  0  0  0  0  0  0  0  0  0
  140.4020   70.9440  225.8650 C   0  0  0  0  0  0  0  0  0  0  0  0
  140.6060   71.7060  224.7770 N   0  0  0  0  0  0  0  0  0  0  0  0
  139.5250   73.7940  223.2470 H   0  0  0  0  0  0  0  0  0  0  0  0
  141.1691   74.0787  220.7607 H   0  0  0  0  0  0  0  0  0  0  0  0
  139.3955   74.0749  220.4559 H   0  0  0  0  0  0  0  0  0  0  0  0
  138.9136   76.7272  219.4326 H   0  0  0  0  0  0  0  0  0  0  0  0
  139.2101   78.3216  219.9816 H   0  0  0  0  0  0  0  0  0  0  0  0
  141.2650   76.4904  218.4157 H   0  0  0  0  0  0  0  0  0  0  0  0
  140.5670   77.8767  217.6943 H   0  0  0  0  0  0  0  0  0  0  0  0
  142.8412   78.3168  219.0760 H   0  0  0  0  0  0  0  0  0  0  0  0
  141.5748   79.3878  219.5767 H   0  0  0  0  0  0  0  0  0  0  0  0
  142.6055   76.8597  221.0326 H   0  0  0  0  0  0  0  0  0  0  0  0
  142.4620   80.1804  220.5426 H   0  0  0  0  0  0  0  0  0  0  0  0
  142.5010   81.9455  222.2561 H   0  0  0  0  0  0  0  0  0  0  0  0
  141.8708   81.4205  224.6291 H   0  0  0  0  0  0  0  0  0  0  0  0
  141.2161   79.0486  225.1316 H   0  0  0  0  0  0  0  0  0  0  0  0
  139.2537   69.6818  222.4657 H   0  0  0  0  0  0  0  0  0  0  0  0
  138.8669   68.2585  224.4710 H   0  0  0  0  0  0  0  0  0  0  0  0
  139.1108   67.9927  226.8748 H   0  0  0  0  0  0  0  0  0  0  0  0
  139.8915   68.8881  229.0759 H   0  0  0  0  0  0  0  0  0  0  0  0
  140.9890   71.0896  229.1823 H   0  0  0  0  0  0  0  0  0  0  0  0
  141.3374   72.4479  227.1210 H   0  0  0  0  0  0  0  0  0  0  0  0
  1  2  2  0
  2  3  1  0
  3  4  1  0
  4  5  1  0
  5  6  2  0
  5  7  1  0
  7  8  1  0
  8  9  1  0
  9 10  1  0
 10 11  1  0
 11 12  1  0
 12 13  2  0
 13 14  1  0
 14 15  2  0
 15 16  1  0
 16 17  2  0
  2 18  1  0
 18 19  2  0
 19 20  1  0
 20 21  2  0
 21 22  1  0
 22 23  2  0
 23 24  1  0
 24 25  2  0
 25 26  1  0
 26 27  2  0
 11  7  1  0
 17 12  1  0
 27 18  1  0
 26 21  1  0
  3 28  1  0
  4 29  1  0
  4 30  1  0
  8 31  1  0
  8 32  1  0
  9 33  1  0
  9 34  1  0
 10 35  1  0
 10 36  1  0
 11 37  1  1
 13 38  1  0
 14 39  1  0
 15 40  1  0
 16 41  1  0
 19 42  1  0
 20 43  1  0
 22 44  1  0
 23 45  1  0
 24 46  1  0
 25 47  1  0
M  END
>  <smiles>  (92) 
O=C(NCC(=O)N1CCCC1c1ccccn1)c1ccc2ccccc2n1

>  <score_type>  (92) 
oracle

>  <origin>  (92) 
autodockgpu

>  <m_score__min__energy>  (92) 
-8.7100000000000009

>  <m_primary>  (92) 
energy

>  <rmsd>  (92) 
1.9466538996477611

>  <m_score__min__rmsd>  (92) 
1.9466538996477611

>  <meeko>  (92) 
{"free_energy": -8.59, "intermolecular_energy": -10.08, "internal_energy": -1.8, "cluster_size": 32, "cluster_id": 2, "rank_in_cluster": 9}

>  <energy>  (92) 
-7.13

>  <cluster_rmsd>  (92) 
0.0

>  <cluster>  (92) 
4

$$$$

     RDKit          3D

 47 50  0  0  0  0  0  0  0  0999 V2000
  138.5110   75.7070  221.9450 O   0  0  0  0  0  0  0  0  0  0  0  0
  139.7190   76.0450  222.0190 C   0  0  0  0  0  0  0  0  0  0  0  0
  140.7960   75.1810  221.6640 N   0  0  0  0  0  0  0  0  0  0  0  0
  140.5050   73.8270  221.1890 C   0  0  0  0  0  0  0  0  0  0  0  0
  141.7180   73.0190  221.2140 C   0  0  0  0  0  0  0  0  0  0  0  0
  141.6760   71.9190  221.8660 O   0  0  0  0  0  0  0  0  0  0  0  0
  142.9480   73.3240  220.5940 N   0  0  0  0  0  0  0  0  0  0  0  0
  143.6300   72.3560  219.7150 C   0  0  0  0  0  0  0  0  0  0  0  0
  145.0400   72.5170  220.3200 C   0  0  0  0  0  0  0  0  0  0  0  0
  145.1580   74.0330  220.1060 C   0  0  0  0  0  0  0  0  0  0  0  0
  143.7890   74.4890  220.6290 C   0  0  1  0  0  0  0  0  0  0  0  0
  143.3650   75.5720  219.7030 C   0  0  0  0  0  0  0  0  0  0  0  0
  143.6950   75.5320  218.3420 C   0  0  0  0  0  0  0  0  0  0  0  0
  143.2990   76.5270  217.4700 C   0  0  0  0  0  0  0  0  0  0  0  0
  142.5590   77.6030  217.9170 C   0  0  0  0  0  0  0  0  0  0  0  0
  142.2550   77.6000  219.2780 C   0  0  0  0  0  0  0  0  0  0  0  0
  142.6520   76.6210  220.1020 N   0  0  0  0  0  0  0  0  0  0  0  0
  140.0450   77.4040  222.4960 C   0  0  0  0  0  0  0  0  0  0  0  0
  139.0410   78.2730  222.8640 C   0  0  0  0  0  0  0  0  0  0  0  0
  139.3110   79.5540  223.3160 C   0  0  0  0  0  0  0  0  0  0  0  0
  140.6360   79.9410  223.3880 C   0  0  0  0  0  0  0  0  0  0  0  0
  140.9760   81.1920  223.8250 C   0  0  0  0  0  0  0  0  0  0  0  0
  142.3200   81.5640  223.8910 C   0  0  0  0  0  0  0  0  0  0  0  0
  143.2890   80.6680  223.5150 C   0  0  0  0  0  0  0  0  0  0  0  0
  142.9680   79.3960  223.0700 C   0  0  0  0  0  0  0  0  0  0  0  0
  141.6240   79.0560  223.0150 C   0  0  0  0  0  0  0  0  0  0  0  0
  141.3420   77.8160  222.5790 N   0  0  0  0  0  0  0  0  0  0  0  0
  141.7660   75.5500  221.7600 H   0  0  0  0  0  0  0  0  0  0  0  0
  139.7474   73.3672  221.8406 H   0  0  0  0  0  0  0  0  0  0  0  0
  140.1270   73.8795  220.1573 H   0  0  0  0  0  0  0  0  0  0  0  0
  143.2372   71.3348  219.8282 H   0  0  0  0  0  0  0  0  0  0  0  0
  143.5363   72.5224  218.6317 H   0  0  0  0  0  0  0  0  0  0  0  0
  145.0770   72.2371  221.3832 H   0  0  0  0  0  0  0  0  0  0  0  0
  145.8370   71.8936  219.8885 H   0  0  0  0  0  0  0  0  0  0  0  0
  145.9825   74.4642  220.6928 H   0  0  0  0  0  0  0  0  0  0  0  0
  145.3816   74.3369  219.0727 H   0  0  0  0  0  0  0  0  0  0  0  0
  143.7665   74.8831  221.6557 H   0  0  0  0  0  0  0  0  0  0  0  0
  144.2846   74.6864  217.9581 H   0  0  0  0  0  0  0  0  0  0  0  0
  143.5763   76.4613  216.4076 H   0  0  0  0  0  0  0  0  0  0  0  0
  142.2309   78.4092  217.2444 H   0  0  0  0  0  0  0  0  0  0  0  0
  141.6670   78.4330  219.6907 H   0  0  0  0  0  0  0  0  0  0  0  0
  137.9949   77.9397  222.7968 H   0  0  0  0  0  0  0  0  0  0  0  0
  138.5006   80.2385  223.6071 H   0  0  0  0  0  0  0  0  0  0  0  0
  140.1920   81.9034  224.1238 H   0  0  0  0  0  0  0  0  0  0  0  0
  142.6002   82.5682  224.2419 H   0  0  0  0  0  0  0  0  0  0  0  0
  144.3462   80.9671  223.5682 H   0  0  0  0  0  0  0  0  0  0  0  0
  143.7497   78.6820  222.7713 H   0  0  0  0  0  0  0  0  0  0  0  0
  1  2  2  0
  2  3  1  0
  3  4  1  0
  4  5  1  0
  5  6  2  0
  5  7  1  0
  7  8  1  0
  8  9  1  0
  9 10  1  0
 10 11  1  0
 11 12  1  0
 12 13  2  0
 13 14  1  0
 14 15  2  0
 15 16  1  0
 16 17  2  0
  2 18  1  0
 18 19  2  0
 19 20  1  0
 20 21  2  0
 21 22  1  0
 22 23  2  0
 23 24  1  0
 24 25  2  0
 25 26  1  0
 26 27  2  0
 11  7  1  0
 17 12  1  0
 27 18  1  0
 26 21  1  0
  3 28  1  0
  4 29  1  0
  4 30  1  0
  8 31  1  0
  8 32  1  0
  9 33  1  0
  9 34  1  0
 10 35  1  0
 10 36  1  0
 11 37  1  1
 13 38  1  0
 14 39  1  0
 15 40  1  0
 16 41  1  0
 19 42  1  0
 20 43  1  0
 22 44  1  0
 23 45  1  0
 24 46  1  0
 25 47  1  0
M  END
>  <smiles>  (93) 
O=C(NCC(=O)N1CCCC1c1ccccn1)c1ccc2ccccc2n1

>  <score_type>  (93) 
oracle

>  <origin>  (93) 
autodockgpu

>  <m_score__min__energy>  (93) 
-8.7100000000000009

>  <m_primary>  (93) 
energy

>  <rmsd>  (93) 
7.466277183022596

>  <m_score__min__rmsd>  (93) 
7.466277183022596

>  <meeko>  (93) 
{"free_energy": -7.13, "intermolecular_energy": -8.62, "internal_energy": -2.83, "cluster_size": 6, "cluster_id": 4, "rank_in_cluster": 1}

>  <energy>  (93) 
-7.13

>  <cluster_rmsd>  (93) 
0.09

>  <cluster>  (93) 
4

$$$$

     RDKit          3D

 47 50  0  0  0  0  0  0  0  0999 V2000
  141.2820   71.7180  221.5220 O   0  0  0  0  0  0  0  0  0  0  0  0
  140.5770   72.2340  222.4250 C   0  0  0  0  0  0  0  0  0  0  0  0
  140.0400   73.5530  222.3400 N   0  0  0  0  0  0  0  0  0  0  0  0
  140.3130   74.3650  221.1530 C   0  0  0  0  0  0  0  0  0  0  0  0
  140.0380   75.7680  221.4370 C   0  0  0  0  0  0  0  0  0  0  0  0
  139.3050   76.0280  222.4520 O   0  0  0  0  0  0  0  0  0  0  0  0
  140.4970   76.8830  220.7040 N   0  0  0  0  0  0  0  0  0  0  0  0
  139.6640   77.5210  219.6680 C   0  0  0  0  0  0  0  0  0  0  0  0
  140.7590   77.6220  218.5850 C   0  0  0  0  0  0  0  0  0  0  0  0
  141.7700   78.4200  219.4220 C   0  0  0  0  0  0  0  0  0  0  0  0
  141.7310   77.6200  220.7310 C   0  0  1  0  0  0  0  0  0  0  0  0
  141.8040   78.6420  221.8080 C   0  0  0  0  0  0  0  0  0  0  0  0
  142.0340   79.9920  221.5120 C   0  0  0  0  0  0  0  0  0  0  0  0
  142.0950   80.9520  222.5020 C   0  0  0  0  0  0  0  0  0  0  0  0
  141.9300   80.6080  223.8290 C   0  0  0  0  0  0  0  0  0  0  0  0
  141.7040   79.2540  224.0760 C   0  0  0  0  0  0  0  0  0  0  0  0
  141.6500   78.3440  223.0940 N   0  0  0  0  0  0  0  0  0  0  0  0
  140.2850   71.4400  223.6350 C   0  0  0  0  0  0  0  0  0  0  0  0
  139.5910   70.2530  223.5390 C   0  0  0  0  0  0  0  0  0  0  0  0
  139.3000   69.4830  224.6530 C   0  0  0  0  0  0  0  0  0  0  0  0
  139.7320   69.9460  225.8810 C   0  0  0  0  0  0  0  0  0  0  0  0
  139.4790   69.2370  227.0240 C   0  0  0  0  0  0  0  0  0  0  0  0
  139.9240   69.7220  228.2560 C   0  0  0  0  0  0  0  0  0  0  0  0
  140.6110   70.9090  228.3070 C   0  0  0  0  0  0  0  0  0  0  0  0
  140.8790   71.6430  227.1630 C   0  0  0  0  0  0  0  0  0  0  0  0
  140.4240   71.1360  225.9550 C   0  0  0  0  0  0  0  0  0  0  0  0
  140.6970   71.8700  224.8620 N   0  0  0  0  0  0  0  0  0  0  0  0
  139.4660   73.8950  223.1410 H   0  0  0  0  0  0  0  0  0  0  0  0
  141.3694   74.2509  220.8682 H   0  0  0  0  0  0  0  0  0  0  0  0
  139.6669   74.0293  220.3284 H   0  0  0  0  0  0  0  0  0  0  0  0
  138.8207   76.8872  219.3564 H   0  0  0  0  0  0  0  0  0  0  0  0
  139.1599   78.4576  219.9484 H   0  0  0  0  0  0  0  0  0  0  0  0
  141.1455   76.6374  218.2831 H   0  0  0  0  0  0  0  0  0  0  0  0
  140.4613   78.0595  217.6207 H   0  0  0  0  0  0  0  0  0  0  0  0
  142.7721   78.4103  218.9684 H   0  0  0  0  0  0  0  0  0  0  0  0
  141.5382   79.4900  219.5283 H   0  0  0  0  0  0  0  0  0  0  0  0
  142.5455   76.8967  220.8840 H   0  0  0  0  0  0  0  0  0  0  0  0
  142.1695   80.2948  220.4632 H   0  0  0  0  0  0  0  0  0  0  0  0
  142.2770   82.0024  222.2308 H   0  0  0  0  0  0  0  0  0  0  0  0
  141.9739   81.3524  224.6377 H   0  0  0  0  0  0  0  0  0  0  0  0
  141.5650   78.9210  225.1151 H   0  0  0  0  0  0  0  0  0  0  0  0
  139.2586   69.9072  222.5491 H   0  0  0  0  0  0  0  0  0  0  0  0
  138.7452   68.5374  224.5633 H   0  0  0  0  0  0  0  0  0  0  0  0
  138.9264   68.2873  226.9726 H   0  0  0  0  0  0  0  0  0  0  0  0
  139.7253   69.1567  229.1785 H   0  0  0  0  0  0  0  0  0  0  0  0
  140.9574   71.2869  229.2802 H   0  0  0  0  0  0  0  0  0  0  0  0
  141.4321   72.5926  227.2110 H   0  0  0  0  0  0  0  0  0  0  0  0
  1  2  2  0
  2  3  1  0
  3  4  1  0
  4  5  1  0
  5  6  2  0
  5  7  1  0
  7  8  1  0
  8  9  1  0
  9 10  1  0
 10 11  1  0
 11 12  1  0
 12 13  2  0
 13 14  1  0
 14 15  2  0
 15 16  1  0
 16 17  2  0
  2 18  1  0
 18 19  2  0
 19 20  1  0
 20 21  2  0
 21 22  1  0
 22 23  2  0
 23 24  1  0
 24 25  2  0
 25 26  1  0
 26 27  2  0
 11  7  1  0
 17 12  1  0
 27 18  1  0
 26 21  1  0
  3 28  1  0
  4 29  1  0
  4 30  1  0
  8 31  1  0
  8 32  1  0
  9 33  1  0
  9 34  1  0
 10 35  1  0
 10 36  1  0
 11 37  1  6
 13 38  1  0
 14 39  1  0
 15 40  1  0
 16 41  1  0
 19 42  1  0
 20 43  1  0
 22 44  1  0
 23 45  1  0
 24 46  1  0
 25 47  1  0
M  END
>  <smiles>  (94) 
O=C(NCC(=O)N1CCCC1c1ccccn1)c1ccc2ccccc2n1

>  <score_type>  (94) 
oracle

>  <origin>  (94) 
autodockgpu

>  <m_score__min__energy>  (94) 
-8.7100000000000009

>  <m_primary>  (94) 
energy

>  <rmsd>  (94) 
2.0080898799830442

>  <m_score__min__rmsd>  (94) 
2.0080898799830442

>  <meeko>  (94) 
{"free_energy": -8.55, "intermolecular_energy": -10.05, "internal_energy": -1.77, "cluster_size": 32, "cluster_id": 2, "rank_in_cluster": 13}

>  <energy>  (94) 
-7.12

>  <cluster_rmsd>  (94) 
0.08

>  <cluster>  (94) 
4

$$$$

     RDKit          3D

 47 50  0  0  0  0  0  0  0  0999 V2000
  137.2760   76.1470  222.3950 O   0  0  0  0  0  0  0  0  0  0  0  0
  138.5280   76.2530  222.4310 C   0  0  0  0  0  0  0  0  0  0  0  0
  139.4120   75.1540  222.2120 N   0  0  0  0  0  0  0  0  0  0  0  0
  138.8560   73.8290  221.9330 C   0  0  0  0  0  0  0  0  0  0  0  0
  139.7990   72.7970  222.3440 C   0  0  0  0  0  0  0  0  0  0  0  0
  141.0400   73.1080  222.3550 O   0  0  0  0  0  0  0  0  0  0  0  0
  139.4890   71.4770  222.7340 N   0  0  0  0  0  0  0  0  0  0  0  0
  139.9300   70.3140  221.9420 C   0  0  0  0  0  0  0  0  0  0  0  0
  138.5810   69.5650  221.9450 C   0  0  0  0  0  0  0  0  0  0  0  0
  138.4160   69.4940  223.4700 C   0  0  0  0  0  0  0  0  0  0  0  0
  138.7540   70.9420  223.8480 C   0  0  1  0  0  0  0  0  0  0  0  0
  139.5440   70.8380  225.1030 C   0  0  0  0  0  0  0  0  0  0  0  0
  139.4040   69.7360  225.9580 C   0  0  0  0  0  0  0  0  0  0  0  0
  140.1390   69.6220  227.1210 C   0  0  0  0  0  0  0  0  0  0  0  0
  141.0440   70.6000  227.4820 C   0  0  0  0  0  0  0  0  0  0  0  0
  141.1500   71.6760  226.6020 C   0  0  0  0  0  0  0  0  0  0  0  0
  140.4240   71.7610  225.4790 N   0  0  0  0  0  0  0  0  0  0  0  0
  139.1190   77.5760  222.7100 C   0  0  0  0  0  0  0  0  0  0  0  0
  138.3090   78.6690  222.9300 C   0  0  0  0  0  0  0  0  0  0  0  0
  138.8290   79.9250  223.1960 C   0  0  0  0  0  0  0  0  0  0  0  0
  140.2050   80.0520  223.2340 C   0  0  0  0  0  0  0  0  0  0  0  0
  140.7880   81.2630  223.4900 C   0  0  0  0  0  0  0  0  0  0  0  0
  142.1800   81.3700  223.5250 C   0  0  0  0  0  0  0  0  0  0  0  0
  142.9510   80.2570  223.3000 C   0  0  0  0  0  0  0  0  0  0  0  0
  142.3820   79.0210  223.0390 C   0  0  0  0  0  0  0  0  0  0  0  0
  140.9970   78.9450  223.0110 C   0  0  0  0  0  0  0  0  0  0  0  0
  140.4730   77.7350  222.7550 N   0  0  0  0  0  0  0  0  0  0  0  0
  140.4360   75.3390  222.2620 H   0  0  0  0  0  0  0  0  0  0  0  0
  137.9147   73.7045  222.4883 H   0  0  0  0  0  0  0  0  0  0  0  0
  138.6669   73.7365  220.8533 H   0  0  0  0  0  0  0  0  0  0  0  0
  140.2545   70.5931  220.9287 H   0  0  0  0  0  0  0  0  0  0  0  0
  140.8019   69.7610  222.3214 H   0  0  0  0  0  0  0  0  0  0  0  0
  137.7783   70.1401  221.4604 H   0  0  0  0  0  0  0  0  0  0  0  0
  138.5442   68.6108  221.3989 H   0  0  0  0  0  0  0  0  0  0  0  0
  137.3879   69.2276  223.7565 H   0  0  0  0  0  0  0  0  0  0  0  0
  139.0347   68.7315  223.9658 H   0  0  0  0  0  0  0  0  0  0  0  0
  137.8990   71.6092  224.0320 H   0  0  0  0  0  0  0  0  0  0  0  0
  138.6900   68.9415  225.6954 H   0  0  0  0  0  0  0  0  0  0  0  0
  140.0021   68.7423  227.7671 H   0  0  0  0  0  0  0  0  0  0  0  0
  141.6419   70.5346  228.4030 H   0  0  0  0  0  0  0  0  0  0  0  0
  141.8561   72.4856  226.8384 H   0  0  0  0  0  0  0  0  0  0  0  0
  137.2172   78.5402  222.8933 H   0  0  0  0  0  0  0  0  0  0  0  0
  138.1714   80.7893  223.3705 H   0  0  0  0  0  0  0  0  0  0  0  0
  140.1620   82.1499  223.6678 H   0  0  0  0  0  0  0  0  0  0  0  0
  142.6555   82.3402  223.7316 H   0  0  0  0  0  0  0  0  0  0  0  0
  144.0468   80.3485  223.3276 H   0  0  0  0  0  0  0  0  0  0  0  0
  143.0055   78.1325  222.8605 H   0  0  0  0  0  0  0  0  0  0  0  0
  1  2  2  0
  2  3  1  0
  3  4  1  0
  4  5  1  0
  5  6  2  0
  5  7  1  0
  7  8  1  0
  8  9  1  0
  9 10  1  0
 10 11  1  0
 11 12  1  0
 12 13  2  0
 13 14  1  0
 14 15  2  0
 15 16  1  0
 16 17  2  0
  2 18  1  0
 18 19  2  0
 19 20  1  0
 20 21  2  0
 21 22  1  0
 22 23  2  0
 23 24  1  0
 24 25  2  0
 25 26  1  0
 26 27  2  0
 11  7  1  0
 17 12  1  0
 27 18  1  0
 26 21  1  0
  3 28  1  0
  4 29  1  0
  4 30  1  0
  8 31  1  0
  8 32  1  0
  9 33  1  0
  9 34  1  0
 10 35  1  0
 10 36  1  0
 11 37  1  1
 13 38  1  0
 14 39  1  0
 15 40  1  0
 16 41  1  0
 19 42  1  0
 20 43  1  0
 22 44  1  0
 23 45  1  0
 24 46  1  0
 25 47  1  0
M  END
>  <smiles>  (95) 
O=C(NCC(=O)N1CCCC1c1ccccn1)c1ccc2ccccc2n1

>  <score_type>  (95) 
oracle

>  <origin>  (95) 
autodockgpu

>  <m_score__min__energy>  (95) 
-8.7100000000000009

>  <m_primary>  (95) 
energy

>  <rmsd>  (95) 
9.179354156923292

>  <m_score__min__rmsd>  (95) 
9.179354156923292

>  <meeko>  (95) 
{"free_energy": -7.9, "intermolecular_energy": -9.39, "internal_energy": -2.01, "cluster_size": 32, "cluster_id": 2, "rank_in_cluster": 30}

>  <energy>  (95) 
-7.12

>  <cluster_rmsd>  (95) 
0.09

>  <cluster>  (95) 
4

$$$$

     RDKit          3D

 47 50  0  0  0  0  0  0  0  0999 V2000
  140.8760   71.5530  221.3410 O   0  0  0  0  0  0  0  0  0  0  0  0
  140.3830   72.1220  222.3470 C   0  0  0  0  0  0  0  0  0  0  0  0
  139.9590   73.4840  222.3450 N   0  0  0  0  0  0  0  0  0  0  0  0
  140.0970   74.2780  221.1230 C   0  0  0  0  0  0  0  0  0  0  0  0
  140.1210   75.6980  221.4520 C   0  0  0  0  0  0  0  0  0  0  0  0
  139.6790   76.0410  222.6030 O   0  0  0  0  0  0  0  0  0  0  0  0
  140.5820   76.7480  220.6300 N   0  0  0  0  0  0  0  0  0  0  0  0
  139.7730   77.2620  219.5090 C   0  0  0  0  0  0  0  0  0  0  0  0
  140.9040   77.2850  218.4590 C   0  0  0  0  0  0  0  0  0  0  0  0
  141.8660   78.1850  219.2480 C   0  0  0  0  0  0  0  0  0  0  0  0
  141.7980   77.5140  220.6260 C   0  0  1  0  0  0  0  0  0  0  0  0
  141.8110   78.6370  221.6010 C   0  0  0  0  0  0  0  0  0  0  0  0
  141.4860   78.4300  222.9480 C   0  0  0  0  0  0  0  0  0  0  0  0
  141.5040   79.4630  223.8650 C   0  0  0  0  0  0  0  0  0  0  0  0
  141.8450   80.7430  223.4790 C   0  0  0  0  0  0  0  0  0  0  0  0
  142.1600   80.9010  222.1300 C   0  0  0  0  0  0  0  0  0  0  0  0
  142.1340   79.8810  221.2610 N   0  0  0  0  0  0  0  0  0  0  0  0
  140.2320   71.3480  223.5950 C   0  0  0  0  0  0  0  0  0  0  0  0
  139.6230   70.1120  223.5780 C   0  0  0  0  0  0  0  0  0  0  0  0
  139.4640   69.3580  224.7300 C   0  0  0  0  0  0  0  0  0  0  0  0
  139.9420   69.8900  225.9130 C   0  0  0  0  0  0  0  0  0  0  0  0
  139.8190   69.2010  227.0880 C   0  0  0  0  0  0  0  0  0  0  0  0
  140.3090   69.7550  228.2730 C   0  0  0  0  0  0  0  0  0  0  0  0
  140.9090   70.9890  228.2460 C   0  0  0  0  0  0  0  0  0  0  0  0
  141.0440   71.7040  227.0660 C   0  0  0  0  0  0  0  0  0  0  0  0
  140.5480   71.1280  225.9060 C   0  0  0  0  0  0  0  0  0  0  0  0
  140.6920   71.8440  224.7780 N   0  0  0  0  0  0  0  0  0  0  0  0
  139.5620   73.8700  223.2290 H   0  0  0  0  0  0  0  0  0  0  0  0
  141.0341   74.0057  220.6153 H   0  0  0  0  0  0  0  0  0  0  0  0
  139.2420   74.0747  220.4614 H   0  0  0  0  0  0  0  0  0  0  0  0
  138.9553   76.5802  219.2324 H   0  0  0  0  0  0  0  0  0  0  0  0
  139.2390   78.2085  219.6795 H   0  0  0  0  0  0  0  0  0  0  0  0
  141.3224   76.2858  218.2679 H   0  0  0  0  0  0  0  0  0  0  0  0
  140.6322   77.6194  217.4469 H   0  0  0  0  0  0  0  0  0  0  0  0
  142.8837   78.1574  218.8313 H   0  0  0  0  0  0  0  0  0  0  0  0
  141.6067   79.2540  219.2423 H   0  0  0  0  0  0  0  0  0  0  0  0
  142.6218   76.8290  220.8752 H   0  0  0  0  0  0  0  0  0  0  0  0
  141.2096   77.4196  223.2838 H   0  0  0  0  0  0  0  0  0  0  0  0
  141.2435   79.2628  224.9148 H   0  0  0  0  0  0  0  0  0  0  0  0
  141.8669   81.5832  224.1886 H   0  0  0  0  0  0  0  0  0  0  0  0
  142.4404   81.9002  221.7653 H   0  0  0  0  0  0  0  0  0  0  0  0
  139.2524   69.7122  222.6226 H   0  0  0  0  0  0  0  0  0  0  0  0
  138.9756   68.3727  224.7039 H   0  0  0  0  0  0  0  0  0  0  0  0
  139.3354   68.2131  227.0999 H   0  0  0  0  0  0  0  0  0  0  0  0
  140.2146   69.2059  229.2214 H   0  0  0  0  0  0  0  0  0  0  0  0
  141.2917   71.4208  229.1825 H   0  0  0  0  0  0  0  0  0  0  0  0
  141.5269   72.6922  227.0503 H   0  0  0  0  0  0  0  0  0  0  0  0
  1  2  2  0
  2  3  1  0
  3  4  1  0
  4  5  1  0
  5  6  2  0
  5  7  1  0
  7  8  1  0
  8  9  1  0
  9 10  1  0
 10 11  1  0
 11 12  1  0
 12 13  2  0
 13 14  1  0
 14 15  2  0
 15 16  1  0
 16 17  2  0
  2 18  1  0
 18 19  2  0
 19 20  1  0
 20 21  2  0
 21 22  1  0
 22 23  2  0
 23 24  1  0
 24 25  2  0
 25 26  1  0
 26 27  2  0
 11  7  1  0
 17 12  1  0
 27 18  1  0
 26 21  1  0
  3 28  1  0
  4 29  1  0
  4 30  1  0
  8 31  1  0
  8 32  1  0
  9 33  1  0
  9 34  1  0
 10 35  1  0
 10 36  1  0
 11 37  1  1
 13 38  1  0
 14 39  1  0
 15 40  1  0
 16 41  1  0
 19 42  1  0
 20 43  1  0
 22 44  1  0
 23 45  1  0
 24 46  1  0
 25 47  1  0
M  END
>  <smiles>  (96) 
O=C(NCC(=O)N1CCCC1c1ccccn1)c1ccc2ccccc2n1

>  <score_type>  (96) 
oracle

>  <origin>  (96) 
autodockgpu

>  <m_score__min__energy>  (96) 
-8.7100000000000009

>  <m_primary>  (96) 
energy

>  <rmsd>  (96) 
2.3479254367381714

>  <m_score__min__rmsd>  (96) 
2.3479254367381714

>  <meeko>  (96) 
{"free_energy": -8.62, "intermolecular_energy": -10.11, "internal_energy": -1.79, "cluster_size": 32, "cluster_id": 2, "rank_in_cluster": 5}

>  <energy>  (96) 
-7.12

>  <cluster_rmsd>  (96) 
0.09

>  <cluster>  (96) 
4

$$$$

     RDKit          3D

 47 50  0  0  0  0  0  0  0  0999 V2000
  141.0630   71.7080  221.5070 O   0  0  0  0  0  0  0  0  0  0  0  0
  140.3140   72.1600  222.4090 C   0  0  0  0  0  0  0  0  0  0  0  0
  139.5860   73.3800  222.2820 N   0  0  0  0  0  0  0  0  0  0  0  0
  139.7020   74.1620  221.0500 C   0  0  0  0  0  0  0  0  0  0  0  0
  140.5550   75.3210  221.2760 C   0  0  0  0  0  0  0  0  0  0  0  0
  140.3610   75.9930  222.3470 O   0  0  0  0  0  0  0  0  0  0  0  0
  141.5830   75.7910  220.4300 N   0  0  0  0  0  0  0  0  0  0  0  0
  142.0310   77.1950  220.4650 C   0  0  0  0  0  0  0  0  0  0  0  0
  142.0400   77.4250  218.9390 C   0  0  0  0  0  0  0  0  0  0  0  0
  142.9960   76.2750  218.5880 C   0  0  0  0  0  0  0  0  0  0  0  0
  142.3800   75.1450  219.4230 C   0  0  1  0  0  0  0  0  0  0  0  0
  143.5410   74.3870  219.9600 C   0  0  0  0  0  0  0  0  0  0  0  0
  143.5080   72.9900  220.0650 C   0  0  0  0  0  0  0  0  0  0  0  0
  144.5830   72.2750  220.5540 C   0  0  0  0  0  0  0  0  0  0  0  0
  145.7350   72.9190  220.9580 C   0  0  0  0  0  0  0  0  0  0  0  0
  145.7210   74.3080  220.8350 C   0  0  0  0  0  0  0  0  0  0  0  0
  144.6640   74.9780  220.3580 N   0  0  0  0  0  0  0  0  0  0  0  0
  140.1760   71.3950  223.6640 C   0  0  0  0  0  0  0  0  0  0  0  0
  139.5480   70.1680  223.6670 C   0  0  0  0  0  0  0  0  0  0  0  0
  139.4020   69.4230  224.8250 C   0  0  0  0  0  0  0  0  0  0  0  0
  139.9120   69.9540  225.9950 C   0  0  0  0  0  0  0  0  0  0  0  0
  139.8030   69.2730  227.1770 C   0  0  0  0  0  0  0  0  0  0  0  0
  140.3250   69.8250  228.3480 C   0  0  0  0  0  0  0  0  0  0  0  0
  140.9430   71.0500  228.3020 C   0  0  0  0  0  0  0  0  0  0  0  0
  141.0650   71.7570  227.1160 C   0  0  0  0  0  0  0  0  0  0  0  0
  140.5370   71.1820  225.9700 C   0  0  0  0  0  0  0  0  0  0  0  0
  140.6690   71.8900  224.8350 N   0  0  0  0  0  0  0  0  0  0  0  0
  138.9900   73.6750  223.0850 H   0  0  0  0  0  0  0  0  0  0  0  0
  140.1408   73.5348  220.2600 H   0  0  0  0  0  0  0  0  0  0  0  0
  138.7024   74.5029  220.7424 H   0  0  0  0  0  0  0  0  0  0  0  0
  141.3185   77.8516  220.9857 H   0  0  0  0  0  0  0  0  0  0  0  0
  142.9699   77.3999  221.0002 H   0  0  0  0  0  0  0  0  0  0  0  0
  141.0448   77.2988  218.4876 H   0  0  0  0  0  0  0  0  0  0  0  0
  142.3257   78.4289  218.5919 H   0  0  0  0  0  0  0  0  0  0  0  0
  142.9774   76.0436  217.5128 H   0  0  0  0  0  0  0  0  0  0  0  0
  144.0569   76.4771  218.7967 H   0  0  0  0  0  0  0  0  0  0  0  0
  141.7271   74.4419  218.8851 H   0  0  0  0  0  0  0  0  0  0  0  0
  142.6031   72.4497  219.7500 H   0  0  0  0  0  0  0  0  0  0  0  0
  144.5207   71.1789  220.6225 H   0  0  0  0  0  0  0  0  0  0  0  0
  146.6057   72.3733  221.3506 H   0  0  0  0  0  0  0  0  0  0  0  0
  146.6123   74.8751  221.1415 H   0  0  0  0  0  0  0  0  0  0  0  0
  139.1512   69.7690  222.7218 H   0  0  0  0  0  0  0  0  0  0  0  0
  138.8988   68.4449  224.8143 H   0  0  0  0  0  0  0  0  0  0  0  0
  139.3050   68.2926  227.2042 H   0  0  0  0  0  0  0  0  0  0  0  0
  140.2418   69.2822  229.3011 H   0  0  0  0  0  0  0  0  0  0  0  0
  141.3510   71.4807  229.2283 H   0  0  0  0  0  0  0  0  0  0  0  0
  141.5622   72.7377  227.0851 H   0  0  0  0  0  0  0  0  0  0  0  0
  1  2  2  0
  2  3  1  0
  3  4  1  0
  4  5  1  0
  5  6  2  0
  5  7  1  0
  7  8  1  0
  8  9  1  0
  9 10  1  0
 10 11  1  0
 11 12  1  0
 12 13  2  0
 13 14  1  0
 14 15  2  0
 15 16  1  0
 16 17  2  0
  2 18  1  0
 18 19  2  0
 19 20  1  0
 20 21  2  0
 21 22  1  0
 22 23  2  0
 23 24  1  0
 24 25  2  0
 25 26  1  0
 26 27  2  0
 11  7  1  0
 17 12  1  0
 27 18  1  0
 26 21  1  0
  3 28  1  0
  4 29  1  0
  4 30  1  0
  8 31  1  0
  8 32  1  0
  9 33  1  0
  9 34  1  0
 10 35  1  0
 10 36  1  0
 11 37  1  6
 13 38  1  0
 14 39  1  0
 15 40  1  0
 16 41  1  0
 19 42  1  0
 20 43  1  0
 22 44  1  0
 23 45  1  0
 24 46  1  0
 25 47  1  0
M  END
>  <smiles>  (97) 
O=C(NCC(=O)N1CCCC1c1ccccn1)c1ccc2ccccc2n1

>  <score_type>  (97) 
oracle

>  <origin>  (97) 
autodockgpu

>  <m_score__min__energy>  (97) 
-8.7100000000000009

>  <m_primary>  (97) 
energy

>  <rmsd>  (97) 
4.275379448864639

>  <m_score__min__rmsd>  (97) 
4.275379448864639

>  <meeko>  (97) 
{"free_energy": -8.67, "intermolecular_energy": -10.16, "internal_energy": -1.65, "cluster_size": 8, "cluster_id": 1, "rank_in_cluster": 3}

>  <energy>  (97) 
-7.12

>  <cluster_rmsd>  (97) 
0.15

>  <cluster>  (97) 
4

$$$$

     RDKit          3D

 47 50  0  0  0  0  0  0  0  0999 V2000
  141.1920   71.6720  221.4550 O   0  0  0  0  0  0  0  0  0  0  0  0
  140.5100   72.1640  222.3890 C   0  0  0  0  0  0  0  0  0  0  0  0
  139.9570   73.4790  222.3450 N   0  0  0  0  0  0  0  0  0  0  0  0
  140.1850   74.3150  221.1660 C   0  0  0  0  0  0  0  0  0  0  0  0
  140.1090   75.7240  221.5330 C   0  0  0  0  0  0  0  0  0  0  0  0
  139.5840   76.0080  222.6640 O   0  0  0  0  0  0  0  0  0  0  0  0
  140.5550   76.8210  220.7650 N   0  0  0  0  0  0  0  0  0  0  0  0
  139.7240   77.4050  219.6970 C   0  0  0  0  0  0  0  0  0  0  0  0
  140.8300   77.4890  218.6250 C   0  0  0  0  0  0  0  0  0  0  0  0
  141.8140   78.3370  219.4460 C   0  0  0  0  0  0  0  0  0  0  0  0
  141.7730   77.5840  220.7820 C   0  0  1  0  0  0  0  0  0  0  0  0
  141.8120   78.6440  221.8220 C   0  0  0  0  0  0  0  0  0  0  0  0
  142.1790   79.9590  221.5040 C   0  0  0  0  0  0  0  0  0  0  0  0
  142.2100   80.9550  222.4590 C   0  0  0  0  0  0  0  0  0  0  0  0
  141.8770   80.6850  223.7710 C   0  0  0  0  0  0  0  0  0  0  0  0
  141.5180   79.3650  224.0410 C   0  0  0  0  0  0  0  0  0  0  0  0
  141.4970   78.4170  223.0940 N   0  0  0  0  0  0  0  0  0  0  0  0
  140.2630   71.3460  223.5930 C   0  0  0  0  0  0  0  0  0  0  0  0
  139.6010   70.1410  223.4930 C   0  0  0  0  0  0  0  0  0  0  0  0
  139.3540   69.3480  224.6010 C   0  0  0  0  0  0  0  0  0  0  0  0
  139.7960   69.8060  225.8270 C   0  0  0  0  0  0  0  0  0  0  0  0
  139.5860   69.0740  226.9640 C   0  0  0  0  0  0  0  0  0  0  0  0
  140.0410   69.5540  228.1940 C   0  0  0  0  0  0  0  0  0  0  0  0
  140.6960   70.7590  228.2490 C   0  0  0  0  0  0  0  0  0  0  0  0
  140.9200   71.5160  227.1110 C   0  0  0  0  0  0  0  0  0  0  0  0
  140.4560   71.0140  225.9040 C   0  0  0  0  0  0  0  0  0  0  0  0
  140.6870   71.7700  224.8180 N   0  0  0  0  0  0  0  0  0  0  0  0
  139.4050   73.8010  223.1690 H   0  0  0  0  0  0  0  0  0  0  0  0
  141.1815   74.0991  220.7533 H   0  0  0  0  0  0  0  0  0  0  0  0
  139.4142   74.0955  220.4125 H   0  0  0  0  0  0  0  0  0  0  0  0
  138.8971   76.7441  219.3980 H   0  0  0  0  0  0  0  0  0  0  0  0
  139.1986   78.3410  219.9375 H   0  0  0  0  0  0  0  0  0  0  0  0
  141.2398   76.5022  218.3636 H   0  0  0  0  0  0  0  0  0  0  0  0
  140.5366   77.8853  217.6417 H   0  0  0  0  0  0  0  0  0  0  0  0
  142.8221   78.3313  219.0060 H   0  0  0  0  0  0  0  0  0  0  0  0
  141.5597   79.4052  219.5107 H   0  0  0  0  0  0  0  0  0  0  0  0
  142.5994   76.8833  220.9719 H   0  0  0  0  0  0  0  0  0  0  0  0
  142.4494   80.2035  220.4662 H   0  0  0  0  0  0  0  0  0  0  0  0
  142.5034   81.9754  222.1713 H   0  0  0  0  0  0  0  0  0  0  0  0
  141.8937   81.4597  224.5517 H   0  0  0  0  0  0  0  0  0  0  0  0
  141.2417   79.0915  225.0700 H   0  0  0  0  0  0  0  0  0  0  0  0
  139.2592   69.7996  222.5048 H   0  0  0  0  0  0  0  0  0  0  0  0
  138.8250   68.3881  224.5082 H   0  0  0  0  0  0  0  0  0  0  0  0
  139.0599   68.1095  226.9092 H   0  0  0  0  0  0  0  0  0  0  0  0
  139.8757   68.9708  229.1119 H   0  0  0  0  0  0  0  0  0  0  0  0
  141.0517   71.1326  229.2206 H   0  0  0  0  0  0  0  0  0  0  0  0
  141.4467   72.4803  227.1625 H   0  0  0  0  0  0  0  0  0  0  0  0
  1  2  2  0
  2  3  1  0
  3  4  1  0
  4  5  1  0
  5  6  2  0
  5  7  1  0
  7  8  1  0
  8  9  1  0
  9 10  1  0
 10 11  1  0
 11 12  1  0
 12 13  2  0
 13 14  1  0
 14 15  2  0
 15 16  1  0
 16 17  2  0
  2 18  1  0
 18 19  2  0
 19 20  1  0
 20 21  2  0
 21 22  1  0
 22 23  2  0
 23 24  1  0
 24 25  2  0
 25 26  1  0
 26 27  2  0
 11  7  1  0
 17 12  1  0
 27 18  1  0
 26 21  1  0
  3 28  1  0
  4 29  1  0
  4 30  1  0
  8 31  1  0
  8 32  1  0
  9 33  1  0
  9 34  1  0
 10 35  1  0
 10 36  1  0
 11 37  1  1
 13 38  1  0
 14 39  1  0
 15 40  1  0
 16 41  1  0
 19 42  1  0
 20 43  1  0
 22 44  1  0
 23 45  1  0
 24 46  1  0
 25 47  1  0
M  END
>  <smiles>  (98) 
O=C(NCC(=O)N1CCCC1c1ccccn1)c1ccc2ccccc2n1

>  <score_type>  (98) 
oracle

>  <origin>  (98) 
autodockgpu

>  <m_score__min__energy>  (98) 
-8.7100000000000009

>  <m_primary>  (98) 
energy

>  <rmsd>  (98) 
1.9513755991470811

>  <m_score__min__rmsd>  (98) 
1.9513755991470811

>  <meeko>  (98) 
{"free_energy": -8.64, "intermolecular_energy": -10.13, "internal_energy": -1.74, "cluster_size": 32, "cluster_id": 2, "rank_in_cluster": 2}

>  <energy>  (98) 
-6.9

>  <cluster_rmsd>  (98) 
0.0

>  <cluster>  (98) 
5

$$$$

     RDKit          3D

 47 50  0  0  0  0  0  0  0  0999 V2000
  141.0150   71.5950  221.3790 O   0  0  0  0  0  0  0  0  0  0  0  0
  140.4450   72.1420  222.3570 C   0  0  0  0  0  0  0  0  0  0  0  0
  139.9840   73.4920  222.3370 N   0  0  0  0  0  0  0  0  0  0  0  0
  140.1740   74.2990  221.1310 C   0  0  0  0  0  0  0  0  0  0  0  0
  140.1070   75.7160  221.4660 C   0  0  0  0  0  0  0  0  0  0  0  0
  139.5740   76.0300  222.5860 O   0  0  0  0  0  0  0  0  0  0  0  0
  140.5690   76.7920  220.6790 N   0  0  0  0  0  0  0  0  0  0  0  0
  139.7530   77.3570  219.5880 C   0  0  0  0  0  0  0  0  0  0  0  0
  140.8720   77.4090  218.5270 C   0  0  0  0  0  0  0  0  0  0  0  0
  141.8520   78.2690  219.3380 C   0  0  0  0  0  0  0  0  0  0  0  0
  141.7920   77.5470  220.6910 C   0  0  1  0  0  0  0  0  0  0  0  0
  141.8260   78.6320  221.7070 C   0  0  0  0  0  0  0  0  0  0  0  0
  141.5220   78.3750  223.0510 C   0  0  0  0  0  0  0  0  0  0  0  0
  141.5590   79.3710  224.0060 C   0  0  0  0  0  0  0  0  0  0  0  0
  141.9020   80.6640  223.6640 C   0  0  0  0  0  0  0  0  0  0  0  0
  142.1970   80.8710  222.3170 C   0  0  0  0  0  0  0  0  0  0  0  0
  142.1520   79.8860  221.4110 N   0  0  0  0  0  0  0  0  0  0  0  0
  140.2390   71.3530  223.5870 C   0  0  0  0  0  0  0  0  0  0  0  0
  139.6040   70.1310  223.5340 C   0  0  0  0  0  0  0  0  0  0  0  0
  139.3940   69.3650  224.6680 C   0  0  0  0  0  0  0  0  0  0  0  0
  139.8470   69.8690  225.8730 C   0  0  0  0  0  0  0  0  0  0  0  0
  139.6740   69.1660  227.0340 C   0  0  0  0  0  0  0  0  0  0  0  0
  140.1390   69.6920  228.2410 C   0  0  0  0  0  0  0  0  0  0  0  0
  140.7660   70.9130  228.2500 C   0  0  0  0  0  0  0  0  0  0  0  0
  140.9530   71.6420  227.0870 C   0  0  0  0  0  0  0  0  0  0  0  0
  140.4800   71.0930  225.9040 C   0  0  0  0  0  0  0  0  0  0  0  0
  140.6740   71.8220  224.7920 N   0  0  0  0  0  0  0  0  0  0  0  0
  139.5220   73.8580  223.1970 H   0  0  0  0  0  0  0  0  0  0  0  0
  141.1576   74.0740  220.6929 H   0  0  0  0  0  0  0  0  0  0  0  0
  139.3809   74.0603  220.4071 H   0  0  0  0  0  0  0  0  0  0  0  0
  138.9251   76.6947  219.2949 H   0  0  0  0  0  0  0  0  0  0  0  0
  139.2310   78.3015  219.8009 H   0  0  0  0  0  0  0  0  0  0  0  0
  141.2781   76.4137  218.2934 H   0  0  0  0  0  0  0  0  0  0  0  0
  140.5921   77.7843  217.5316 H   0  0  0  0  0  0  0  0  0  0  0  0
  142.8647   78.2469  218.9090 H   0  0  0  0  0  0  0  0  0  0  0  0
  141.6040   79.3400  219.3753 H   0  0  0  0  0  0  0  0  0  0  0  0
  142.6118   76.8457  220.9057 H   0  0  0  0  0  0  0  0  0  0  0  0
  141.2469   77.3535  223.3524 H   0  0  0  0  0  0  0  0  0  0  0  0
  141.3125   79.1320  225.0510 H   0  0  0  0  0  0  0  0  0  0  0  0
  141.9400   81.4764  224.4046 H   0  0  0  0  0  0  0  0  0  0  0  0
  142.4774   81.8819  221.9861 H   0  0  0  0  0  0  0  0  0  0  0  0
  139.2537   69.7531  222.5621 H   0  0  0  0  0  0  0  0  0  0  0  0
  138.8854   68.3912  224.6123 H   0  0  0  0  0  0  0  0  0  0  0  0
  139.1697   68.1886  227.0166 H   0  0  0  0  0  0  0  0  0  0  0  0
  140.0038   69.1318  229.1780 H   0  0  0  0  0  0  0  0  0  0  0  0
  141.1289   71.3227  229.2042 H   0  0  0  0  0  0  0  0  0  0  0  0
  141.4575   72.6194  227.1010 H   0  0  0  0  0  0  0  0  0  0  0  0
  1  2  2  0
  2  3  1  0
  3  4  1  0
  4  5  1  0
  5  6  2  0
  5  7  1  0
  7  8  1  0
  8  9  1  0
  9 10  1  0
 10 11  1  0
 11 12  1  0
 12 13  2  0
 13 14  1  0
 14 15  2  0
 15 16  1  0
 16 17  2  0
  2 18  1  0
 18 19  2  0
 19 20  1  0
 20 21  2  0
 21 22  1  0
 22 23  2  0
 23 24  1  0
 24 25  2  0
 25 26  1  0
 26 27  2  0
 11  7  1  0
 17 12  1  0
 27 18  1  0
 26 21  1  0
  3 28  1  0
  4 29  1  0
  4 30  1  0
  8 31  1  0
  8 32  1  0
  9 33  1  0
  9 34  1  0
 10 35  1  0
 10 36  1  0
 11 37  1  1
 13 38  1  0
 14 39  1  0
 15 40  1  0
 16 41  1  0
 19 42  1  0
 20 43  1  0
 22 44  1  0
 23 45  1  0
 24 46  1  0
 25 47  1  0
M  END
>  <smiles>  (99) 
O=C(NCC(=O)N1CCCC1c1ccccn1)c1ccc2ccccc2n1

>  <score_type>  (99) 
oracle

>  <origin>  (99) 
autodockgpu

>  <m_score__min__energy>  (99) 
-8.7100000000000009

>  <m_primary>  (99) 
energy

>  <rmsd>  (99) 
2.4068114123370026

>  <m_score__min__rmsd>  (99) 
2.4068114123370026

>  <meeko>  (99) 
{"free_energy": -8.62, "intermolecular_energy": -10.11, "internal_energy": -1.78, "cluster_size": 32, "cluster_id": 2, "rank_in_cluster": 4}

>  <energy>  (99) 
-6.79

>  <cluster_rmsd>  (99) 
0.99

>  <cluster>  (99) 
5

$$$$

     RDKit          3D

 47 50  0  0  0  0  0  0  0  0999 V2000
  138.5500   75.6360  221.9860 O   0  0  0  0  0  0  0  0  0  0  0  0
  139.7510   76.0060  222.0120 C   0  0  0  0  0  0  0  0  0  0  0  0
  140.8370   75.1670  221.6200 N   0  0  0  0  0  0  0  0  0  0  0  0
  140.5630   73.8040  221.1610 C   0  0  0  0  0  0  0  0  0  0  0  0
  141.7830   73.0080  221.2110 C   0  0  0  0  0  0  0  0  0  0  0  0
  141.7350   71.9000  221.8480 O   0  0  0  0  0  0  0  0  0  0  0  0
  143.0260   73.3330  220.6270 N   0  0  0  0  0  0  0  0  0  0  0  0
  143.7620   72.3670  219.7910 C   0  0  0  0  0  0  0  0  0  0  0  0
  145.1450   72.5740  220.4410 C   0  0  0  0  0  0  0  0  0  0  0  0
  145.2330   74.0890  220.2030 C   0  0  0  0  0  0  0  0  0  0  0  0
  143.8370   74.5190  220.6700 C   0  0  1  0  0  0  0  0  0  0  0  0
  143.4190   75.5750  219.7120 C   0  0  0  0  0  0  0  0  0  0  0  0
  143.7000   75.4640  218.3430 C   0  0  0  0  0  0  0  0  0  0  0  0
  143.3090   76.4330  217.4410 C   0  0  0  0  0  0  0  0  0  0  0  0
  142.6220   77.5540  217.8630 C   0  0  0  0  0  0  0  0  0  0  0  0
  142.3650   77.6210  219.2310 C   0  0  0  0  0  0  0  0  0  0  0  0
  142.7570   76.6660  220.0850 N   0  0  0  0  0  0  0  0  0  0  0  0
  140.0600   77.3750  222.4700 C   0  0  0  0  0  0  0  0  0  0  0  0
  139.0430   78.2480  222.7900 C   0  0  0  0  0  0  0  0  0  0  0  0
  139.2970   79.5390  223.2230 C   0  0  0  0  0  0  0  0  0  0  0  0
  140.6180   79.9310  223.3260 C   0  0  0  0  0  0  0  0  0  0  0  0
  140.9420   81.1930  223.7470 C   0  0  0  0  0  0  0  0  0  0  0  0
  142.2830   81.5690  223.8450 C   0  0  0  0  0  0  0  0  0  0  0  0
  143.2650   80.6690  223.5170 C   0  0  0  0  0  0  0  0  0  0  0  0
  142.9600   79.3860  223.0890 C   0  0  0  0  0  0  0  0  0  0  0  0
  141.6190   79.0410  223.0010 C   0  0  0  0  0  0  0  0  0  0  0  0
  141.3530   77.7920  222.5830 N   0  0  0  0  0  0  0  0  0  0  0  0
  141.8000   75.5620  221.6760 H   0  0  0  0  0  0  0  0  0  0  0  0
  139.8024   73.3465  221.8107 H   0  0  0  0  0  0  0  0  0  0  0  0
  140.1957   73.8383  220.1247 H   0  0  0  0  0  0  0  0  0  0  0  0
  143.3906   71.3385  219.9099 H   0  0  0  0  0  0  0  0  0  0  0  0
  143.7024   72.5116  218.7022 H   0  0  0  0  0  0  0  0  0  0  0  0
  145.1517   72.3140  221.5098 H   0  0  0  0  0  0  0  0  0  0  0  0
  145.9717   71.9633  220.0490 H   0  0  0  0  0  0  0  0  0  0  0  0
  146.0258   74.5512  220.8095 H   0  0  0  0  0  0  0  0  0  0  0  0
  145.4847   74.3802  219.1725 H   0  0  0  0  0  0  0  0  0  0  0  0
  143.7697   74.9295  221.6883 H   0  0  0  0  0  0  0  0  0  0  0  0
  144.2463   74.5817  217.9781 H   0  0  0  0  0  0  0  0  0  0  0  0
  143.5474   76.3108  216.3741 H   0  0  0  0  0  0  0  0  0  0  0  0
  142.2992   78.3414  217.1660 H   0  0  0  0  0  0  0  0  0  0  0  0
  141.8194   78.4913  219.6247 H   0  0  0  0  0  0  0  0  0  0  0  0
  138.0001   77.9102  222.6990 H   0  0  0  0  0  0  0  0  0  0  0  0
  138.4769   80.2272  223.4757 H   0  0  0  0  0  0  0  0  0  0  0  0
  140.1481   81.9085  224.0072 H   0  0  0  0  0  0  0  0  0  0  0  0
  142.5506   82.5809  224.1832 H   0  0  0  0  0  0  0  0  0  0  0  0
  144.3194   80.9724  223.5954 H   0  0  0  0  0  0  0  0  0  0  0  0
  143.7519   78.6682  222.8288 H   0  0  0  0  0  0  0  0  0  0  0  0
  1  2  2  0
  2  3  1  0
  3  4  1  0
  4  5  1  0
  5  6  2  0
  5  7  1  0
  7  8  1  0
  8  9  1  0
  9 10  1  0
 10 11  1  0
 11 12  1  0
 12 13  2  0
 13 14  1  0
 14 15  2  0
 15 16  1  0
 16 17  2  0
  2 18  1  0
 18 19  2  0
 19 20  1  0
 20 21  2  0
 21 22  1  0
 22 23  2  0
 23 24  1  0
 24 25  2  0
 25 26  1  0
 26 27  2  0
 11  7  1  0
 17 12  1  0
 27 18  1  0
 26 21  1  0
  3 28  1  0
  4 29  1  0
  4 30  1  0
  8 31  1  0
  8 32  1  0
  9 33  1  0
  9 34  1  0
 10 35  1  0
 10 36  1  0
 11 37  1  1
 13 38  1  0
 14 39  1  0
 15 40  1  0
 16 41  1  0
 19 42  1  0
 20 43  1  0
 22 44  1  0
 23 45  1  0
 24 46  1  0
 25 47  1  0
M  END
>  <smiles>  (100) 
O=C(NCC(=O)N1CCCC1c1ccccn1)c1ccc2ccccc2n1

>  <score_type>  (100) 
oracle

>  <origin>  (100) 
autodockgpu

>  <m_score__min__energy>  (100) 
-8.7100000000000009

>  <m_primary>  (100) 
energy

>  <rmsd>  (100) 
7.49151495249186

>  <m_score__min__rmsd>  (100) 
7.49151495249186

>  <meeko>  (100) 
{"free_energy": -7.13, "intermolecular_energy": -8.62, "internal_energy": -2.83, "cluster_size": 6, "cluster_id": 4, "rank_in_cluster": 2}

>  <energy>  (100) 
-6.53

>  <cluster_rmsd>  (100) 
0.36

>  <cluster>  (100) 
5

$$$$
