
     RDKit          3D

 50 53  0  0  0  0  0  0  0  0999 V2000
  141.2970   72.1760  221.8210 O   0  0  0  0  0  0  0  0  0  0  0  0
  140.3190   72.2970  222.5900 C   0  0  0  0  0  0  0  0  0  0  0  0
  139.3560   73.3090  222.3320 N   0  0  0  0  0  0  0  0  0  0  0  0
  139.5500   74.1580  221.1910 C   0  0  0  0  0  0  0  0  0  0  0  0
  140.7880   74.9410  221.2470 C   0  0  0  0  0  0  0  0  0  0  0  0
  141.0890   75.6710  222.2260 O   0  0  0  0  0  0  0  0  0  0  0  0
  141.7140   74.9000  220.1710 N   0  0  0  0  0  0  0  0  0  0  0  0
  141.4250   74.7960  218.7560 C   0  0  0  0  0  0  0  0  0  0  0  0
  142.6150   75.3640  218.0200 C   0  0  0  0  0  0  0  0  0  0  0  0
  143.4480   75.9300  219.1170 C   0  0  0  0  0  0  0  0  0  0  0  0
  143.1830   74.9560  220.2380 C   0  0  2  0  0  0  0  0  0  0  0  0
  143.8070   73.6400  220.0030 C   0  0  0  0  0  0  0  0  0  0  0  0
  143.0590   72.5030  219.7100 C   0  0  0  0  0  0  0  0  0  0  0  0
  143.6580   71.2710  219.4900 C   0  0  0  0  0  0  0  0  0  0  0  0
  145.0280   71.1170  219.5540 C   0  0  0  0  0  0  0  0  0  0  0  0
  145.6440   69.8610  219.3310 N   0  0  0  0  0  4  0  0  0  0  0  0
  145.2220   68.8580  219.9260 O   0  0  0  0  0  0  0  0  0  0  0  0
  146.7120   69.6970  218.4670 O   0  0  0  0  0  1  0  0  0  0  0  0
  145.7830   72.2350  219.8440 C   0  0  0  0  0  0  0  0  0  0  0  0
  145.1740   73.4620  220.0610 C   0  0  0  0  0  0  0  0  0  0  0  0
  140.1300   71.4230  223.7570 C   0  0  0  0  0  0  0  0  0  0  0  0
  139.4000   70.2560  223.6200 C   0  0  0  0  0  0  0  0  0  0  0  0
  139.2330   69.4450  224.7310 C   0  0  0  0  0  0  0  0  0  0  0  0
  139.7660   69.7600  225.9640 C   0  0  0  0  0  0  0  0  0  0  0  0
  139.6110   68.9670  227.0780 C   0  0  0  0  0  0  0  0  0  0  0  0
  140.1840   69.3690  228.2660 C   0  0  0  0  0  0  0  0  0  0  0  0
  140.9060   70.5480  228.3480 C   0  0  0  0  0  0  0  0  0  0  0  0
  141.0730   71.3550  227.2410 C   0  0  0  0  0  0  0  0  0  0  0  0
  140.4940   70.9460  226.0460 C   0  0  0  0  0  0  0  0  0  0  0  0
  140.6490   71.7260  224.9590 N   0  0  0  0  0  0  0  0  0  0  0  0
  138.5480   73.3900  222.9900 H   0  0  0  0  0  0  0  0  0  0  0  0
  139.5770   73.5284  220.2894 H   0  0  0  0  0  0  0  0  0  0  0  0
  138.7153   74.8742  221.1757 H   0  0  0  0  0  0  0  0  0  0  0  0
  141.2760   73.7424  218.4772 H   0  0  0  0  0  0  0  0  0  0  0  0
  140.5067   75.3454  218.5012 H   0  0  0  0  0  0  0  0  0  0  0  0
  143.1578   74.5756  217.4779 H   0  0  0  0  0  0  0  0  0  0  0  0
  142.3389   76.1072  217.2575 H   0  0  0  0  0  0  0  0  0  0  0  0
  144.5134   75.9462  218.8437 H   0  0  0  0  0  0  0  0  0  0  0  0
  143.2070   76.9738  219.3668 H   0  0  0  0  0  0  0  0  0  0  0  0
  143.5948   75.2491  221.2150 H   0  0  0  0  0  0  0  0  0  0  0  0
  141.9635   72.5835  219.6513 H   0  0  0  0  0  0  0  0  0  0  0  0
  143.0280   70.3991  219.2599 H   0  0  0  0  0  0  0  0  0  0  0  0
  146.8783   72.1523  219.9036 H   0  0  0  0  0  0  0  0  0  0  0  0
  145.8084   74.3311  220.2893 H   0  0  0  0  0  0  0  0  0  0  0  0
  138.9616   69.9779  222.6502 H   0  0  0  0  0  0  0  0  0  0  0  0
  138.6540   68.5156  224.6261 H   0  0  0  0  0  0  0  0  0  0  0  0
  139.0398   68.0286  227.0217 H   0  0  0  0  0  0  0  0  0  0  0  0
  140.0658   68.7433  229.1629 H   0  0  0  0  0  0  0  0  0  0  0  0
  141.3524   70.8452  229.3084 H   0  0  0  0  0  0  0  0  0  0  0  0
  141.6461   72.2919  227.3027 H   0  0  0  0  0  0  0  0  0  0  0  0
  1  2  2  0
  2  3  1  0
  3  4  1  0
  4  5  1  0
  5  6  2  0
  5  7  1  0
  7  8  1  0
  8  9  1  0
  9 10  1  0
 10 11  1  0
 11 12  1  0
 12 13  2  0
 13 14  1  0
 14 15  2  0
 15 16  1  0
 16 17  2  0
 16 18  1  0
 15 19  1  0
 19 20  2  0
  2 21  1  0
 21 22  2  0
 22 23  1  0
 23 24  2  0
 24 25  1  0
 25 26  2  0
 26 27  1  0
 27 28  2  0
 28 29  1  0
 29 30  2  0
 11  7  1  0
 20 12  1  0
 30 21  1  0
 29 24  1  0
  3 31  1  0
  4 32  1  0
  4 33  1  0
  8 34  1  0
  8 35  1  0
  9 36  1  0
  9 37  1  0
 10 38  1  0
 10 39  1  0
 11 40  1  1
 13 41  1  0
 14 42  1  0
 19 43  1  0
 20 44  1  0
 22 45  1  0
 23 46  1  0
 25 47  1  0
 26 48  1  0
 27 49  1  0
 28 50  1  0
M  CHG  2  16   1  18  -1
M  END
>  <smiles>  (1) 
O=C(NCC(=O)N1CCCC1c1ccc([N+](=O)[O-])cc1)c1ccc2ccccc2n1

>  <score_type>  (1) 
oracle

>  <origin>  (1) 
autodockgpu

>  <m_score__min__energy>  (1) 
-9.4299999999999997

>  <m_primary>  (1) 
energy

>  <rmsd>  (1) 
2.0312398485693164

>  <m_score__min__rmsd>  (1) 
2.0312398485693164

>  <meeko>  (1) 
{"free_energy": -9.12, "intermolecular_energy": -10.91, "internal_energy": -1.5, "cluster_size": 17, "cluster_id": 2, "rank_in_cluster": 6}

>  <energy>  (1) 
-9.43

>  <cluster_rmsd>  (1) 
0.0

>  <cluster>  (1) 
1

$$$$

     RDKit          3D

 50 53  0  0  0  0  0  0  0  0999 V2000
  139.4110   70.6200  221.4110 O   0  0  0  0  0  0  0  0  0  0  0  0
  139.5970   71.1860  222.5100 C   0  0  0  0  0  0  0  0  0  0  0  0
  139.7520   72.5980  222.5440 N   0  0  0  0  0  0  0  0  0  0  0  0
  139.6900   73.3200  221.3050 C   0  0  0  0  0  0  0  0  0  0  0  0
  140.5310   74.5190  221.2830 C   0  0  0  0  0  0  0  0  0  0  0  0
  140.3620   75.4860  222.0710 O   0  0  0  0  0  0  0  0  0  0  0  0
  141.5950   74.6360  220.3480 N   0  0  0  0  0  0  0  0  0  0  0  0
  141.5010   74.7330  218.9070 C   0  0  0  0  0  0  0  0  0  0  0  0
  142.7650   75.4040  218.4270 C   0  0  0  0  0  0  0  0  0  0  0  0
  143.4310   75.8120  219.6960 C   0  0  0  0  0  0  0  0  0  0  0  0
  143.0400   74.6870  220.6220 C   0  0  2  0  0  0  0  0  0  0  0  0
  143.7200   73.4210  220.2920 C   0  0  0  0  0  0  0  0  0  0  0  0
  145.0900   73.3520  220.0510 C   0  0  0  0  0  0  0  0  0  0  0  0
  145.7180   72.1550  219.7410 C   0  0  0  0  0  0  0  0  0  0  0  0
  145.0100   70.9730  219.6580 C   0  0  0  0  0  0  0  0  0  0  0  0
  145.6470   69.7470  219.3420 N   0  0  0  0  0  4  0  0  0  0  0  0
  145.2790   68.7040  219.9020 O   0  0  0  0  0  0  0  0  0  0  0  0
  146.6770   69.6570  218.4230 O   0  0  0  0  0  1  0  0  0  0  0  0
  143.6520   71.0250  219.8950 C   0  0  0  0  0  0  0  0  0  0  0  0
  143.0330   72.2270  220.2040 C   0  0  0  0  0  0  0  0  0  0  0  0
  139.6590   70.4380  223.7740 C   0  0  0  0  0  0  0  0  0  0  0  0
  139.1580   69.1500  223.8260 C   0  0  0  0  0  0  0  0  0  0  0  0
  139.2250   68.4610  225.0260 C   0  0  0  0  0  0  0  0  0  0  0  0
  139.7730   69.0120  226.1660 C   0  0  0  0  0  0  0  0  0  0  0  0
  139.8490   68.3420  227.3660 C   0  0  0  0  0  0  0  0  0  0  0  0
  140.4160   68.9810  228.4490 C   0  0  0  0  0  0  0  0  0  0  0  0
  140.9040   70.2730  228.3430 C   0  0  0  0  0  0  0  0  0  0  0  0
  140.8360   70.9580  227.1470 C   0  0  0  0  0  0  0  0  0  0  0  0
  140.2640   70.3120  226.0580 C   0  0  0  0  0  0  0  0  0  0  0  0
  140.1930   70.9720  224.8860 N   0  0  0  0  0  0  0  0  0  0  0  0
  139.9060   73.0480  223.4750 H   0  0  0  0  0  0  0  0  0  0  0  0
  140.0171   72.6507  220.4956 H   0  0  0  0  0  0  0  0  0  0  0  0
  138.6495   73.6531  221.1771 H   0  0  0  0  0  0  0  0  0  0  0  0
  141.4150   73.7292  218.4655 H   0  0  0  0  0  0  0  0  0  0  0  0
  140.6128   75.3096  218.6093 H   0  0  0  0  0  0  0  0  0  0  0  0
  143.3935   74.7027  217.8585 H   0  0  0  0  0  0  0  0  0  0  0  0
  142.5764   76.2471  217.7461 H   0  0  0  0  0  0  0  0  0  0  0  0
  144.5227   75.8707  219.5750 H   0  0  0  0  0  0  0  0  0  0  0  0
  143.1355   76.8089  220.0549 H   0  0  0  0  0  0  0  0  0  0  0  0
  143.3096   74.8391  221.6775 H   0  0  0  0  0  0  0  0  0  0  0  0
  145.6903   74.2720  220.1081 H   0  0  0  0  0  0  0  0  0  0  0  0
  146.8026   72.1474  219.5575 H   0  0  0  0  0  0  0  0  0  0  0  0
  143.0539   70.1036  219.8383 H   0  0  0  0  0  0  0  0  0  0  0  0
  141.9483   72.2289  220.3867 H   0  0  0  0  0  0  0  0  0  0  0  0
  138.7158   68.6827  222.9338 H   0  0  0  0  0  0  0  0  0  0  0  0
  138.8266   67.4367  225.0716 H   0  0  0  0  0  0  0  0  0  0  0  0
  139.4646   67.3156  227.4596 H   0  0  0  0  0  0  0  0  0  0  0  0
  140.4817   68.4556  229.4132 H   0  0  0  0  0  0  0  0  0  0  0  0
  141.3511   70.7588  229.2228 H   0  0  0  0  0  0  0  0  0  0  0  0
  141.2228   71.9840  227.0585 H   0  0  0  0  0  0  0  0  0  0  0  0
  1  2  2  0
  2  3  1  0
  3  4  1  0
  4  5  1  0
  5  6  2  0
  5  7  1  0
  7  8  1  0
  8  9  1  0
  9 10  1  0
 10 11  1  0
 11 12  1  0
 12 13  2  0
 13 14  1  0
 14 15  2  0
 15 16  1  0
 16 17  2  0
 16 18  1  0
 15 19  1  0
 19 20  2  0
  2 21  1  0
 21 22  2  0
 22 23  1  0
 23 24  2  0
 24 25  1  0
 25 26  2  0
 26 27  1  0
 27 28  2  0
 28 29  1  0
 29 30  2  0
 11  7  1  0
 20 12  1  0
 30 21  1  0
 29 24  1  0
  3 31  1  0
  4 32  1  0
  4 33  1  0
  8 34  1  0
  8 35  1  0
  9 36  1  0
  9 37  1  0
 10 38  1  0
 10 39  1  0
 11 40  1  1
 13 41  1  0
 14 42  1  0
 19 43  1  0
 20 44  1  0
 22 45  1  0
 23 46  1  0
 25 47  1  0
 26 48  1  0
 27 49  1  0
 28 50  1  0
M  CHG  2  16   1  18  -1
M  END
>  <smiles>  (2) 
O=C(NCC(=O)N1CCCC1c1ccc([N+](=O)[O-])cc1)c1ccc2ccccc2n1

>  <score_type>  (2) 
oracle

>  <origin>  (2) 
autodockgpu

>  <m_score__min__energy>  (2) 
-9.4299999999999997

>  <m_primary>  (2) 
energy

>  <rmsd>  (2) 
2.0190666772888077

>  <m_score__min__rmsd>  (2) 
2.0190666772888077

>  <meeko>  (2) 
{"free_energy": -8.87, "intermolecular_energy": -10.66, "internal_energy": -1.84, "cluster_size": 17, "cluster_id": 2, "rank_in_cluster": 11}

>  <energy>  (2) 
-9.25

>  <cluster_rmsd>  (2) 
1.32

>  <cluster>  (2) 
1

$$$$

     RDKit          3D

 50 53  0  0  0  0  0  0  0  0999 V2000
  140.5550   71.4620  221.2420 O   0  0  0  0  0  0  0  0  0  0  0  0
  140.1970   72.0390  222.2920 C   0  0  0  0  0  0  0  0  0  0  0  0
  139.8870   73.4260  222.2490 N   0  0  0  0  0  0  0  0  0  0  0  0
  140.0020   74.1100  220.9930 C   0  0  0  0  0  0  0  0  0  0  0  0
  141.3870   74.2910  220.5490 C   0  0  0  0  0  0  0  0  0  0  0  0
  142.2520   73.3800  220.6240 O   0  0  0  0  0  0  0  0  0  0  0  0
  141.8110   75.5320  220.0040 N   0  0  0  0  0  0  0  0  0  0  0  0
  143.1220   75.8740  219.4950 C   0  0  0  0  0  0  0  0  0  0  0  0
  142.9370   77.0240  218.5330 C   0  0  0  0  0  0  0  0  0  0  0  0
  141.4550   77.1390  218.4310 C   0  0  0  0  0  0  0  0  0  0  0  0
  141.0210   76.7620  219.8270 C   0  0  2  0  0  0  0  0  0  0  0  0
  141.3580   77.7960  220.8220 C   0  0  0  0  0  0  0  0  0  0  0  0
  141.8020   79.0640  220.4580 C   0  0  0  0  0  0  0  0  0  0  0  0
  142.1160   80.0280  221.4040 C   0  0  0  0  0  0  0  0  0  0  0  0
  142.0030   79.7720  222.7550 C   0  0  0  0  0  0  0  0  0  0  0  0
  142.3220   80.7540  223.7260 N   0  0  0  0  0  4  0  0  0  0  0  0
  143.4880   80.8510  224.1380 O   0  0  0  0  0  0  0  0  0  0  0  0
  141.3810   81.6240  224.2440 O   0  0  0  0  0  1  0  0  0  0  0  0
  141.5640   78.5200  223.1320 C   0  0  0  0  0  0  0  0  0  0  0  0
  141.2520   77.5630  222.1780 C   0  0  0  0  0  0  0  0  0  0  0  0
  140.0840   71.3290  223.5740 C   0  0  0  0  0  0  0  0  0  0  0  0
  139.4580   70.0970  223.6140 C   0  0  0  0  0  0  0  0  0  0  0  0
  139.3600   69.4430  224.8320 C   0  0  0  0  0  0  0  0  0  0  0  0
  139.8630   69.9760  226.0010 C   0  0  0  0  0  0  0  0  0  0  0  0
  139.7760   69.3410  227.2190 C   0  0  0  0  0  0  0  0  0  0  0  0
  140.3110   69.9580  228.3300 C   0  0  0  0  0  0  0  0  0  0  0  0
  140.9280   71.1940  228.2340 C   0  0  0  0  0  0  0  0  0  0  0  0
  141.0250   71.8440  227.0210 C   0  0  0  0  0  0  0  0  0  0  0  0
  140.4840   71.2200  225.9030 C   0  0  0  0  0  0  0  0  0  0  0  0
  140.5730   71.8460  224.7140 N   0  0  0  0  0  0  0  0  0  0  0  0
  139.5900   73.8850  223.1400 H   0  0  0  0  0  0  0  0  0  0  0  0
  139.4651   73.5280  220.2294 H   0  0  0  0  0  0  0  0  0  0  0  0
  139.5735   75.1136  221.1314 H   0  0  0  0  0  0  0  0  0  0  0  0
  143.7813   76.1759  220.3222 H   0  0  0  0  0  0  0  0  0  0  0  0
  143.5844   75.0121  218.9917 H   0  0  0  0  0  0  0  0  0  0  0  0
  143.3789   77.9488  218.9324 H   0  0  0  0  0  0  0  0  0  0  0  0
  143.4274   76.8607  217.5620 H   0  0  0  0  0  0  0  0  0  0  0  0
  141.1490   78.1652  218.1795 H   0  0  0  0  0  0  0  0  0  0  0  0
  141.0122   76.5135  217.6419 H   0  0  0  0  0  0  0  0  0  0  0  0
  139.9357   76.6425  219.9605 H   0  0  0  0  0  0  0  0  0  0  0  0
  141.9067   79.3081  219.3905 H   0  0  0  0  0  0  0  0  0  0  0  0
  142.4623   81.0173  221.0704 H   0  0  0  0  0  0  0  0  0  0  0  0
  141.4603   78.2781  224.2001 H   0  0  0  0  0  0  0  0  0  0  0  0
  140.9051   76.5757  222.5168 H   0  0  0  0  0  0  0  0  0  0  0  0
  139.0467   69.6457  222.6991 H   0  0  0  0  0  0  0  0  0  0  0  0
  138.8627   68.4625  224.8681 H   0  0  0  0  0  0  0  0  0  0  0  0
  139.2883   68.3587  227.3046 H   0  0  0  0  0  0  0  0  0  0  0  0
  140.2466   69.4602  229.3088 H   0  0  0  0  0  0  0  0  0  0  0  0
  141.3462   71.6636  229.1365 H   0  0  0  0  0  0  0  0  0  0  0  0
  141.5152   72.8255  226.9411 H   0  0  0  0  0  0  0  0  0  0  0  0
  1  2  2  0
  2  3  1  0
  3  4  1  0
  4  5  1  0
  5  6  2  0
  5  7  1  0
  7  8  1  0
  8  9  1  0
  9 10  1  0
 10 11  1  0
 11 12  1  0
 12 13  2  0
 13 14  1  0
 14 15  2  0
 15 16  1  0
 16 17  2  0
 16 18  1  0
 15 19  1  0
 19 20  2  0
  2 21  1  0
 21 22  2  0
 22 23  1  0
 23 24  2  0
 24 25  1  0
 25 26  2  0
 26 27  1  0
 27 28  2  0
 28 29  1  0
 29 30  2  0
 11  7  1  0
 20 12  1  0
 30 21  1  0
 29 24  1  0
  3 31  1  0
  4 32  1  0
  4 33  1  0
  8 34  1  0
  8 35  1  0
  9 36  1  0
  9 37  1  0
 10 38  1  0
 10 39  1  0
 11 40  1  6
 13 41  1  0
 14 42  1  0
 19 43  1  0
 20 44  1  0
 22 45  1  0
 23 46  1  0
 25 47  1  0
 26 48  1  0
 27 49  1  0
 28 50  1  0
M  CHG  2  16   1  18  -1
M  END
>  <smiles>  (3) 
O=C(NCC(=O)N1CCCC1c1ccc([N+](=O)[O-])cc1)c1ccc2ccccc2n1

>  <score_type>  (3) 
oracle

>  <origin>  (3) 
autodockgpu

>  <m_score__min__energy>  (3) 
-9.4299999999999997

>  <m_primary>  (3) 
energy

>  <rmsd>  (3) 
2.091806104502104

>  <m_score__min__rmsd>  (3) 
2.091806104502104

>  <meeko>  (3) 
{"free_energy": -9.19, "intermolecular_energy": -10.98, "internal_energy": -1.35, "cluster_size": 30, "cluster_id": 1, "rank_in_cluster": 8}

>  <energy>  (3) 
-9.24

>  <cluster_rmsd>  (3) 
1.62

>  <cluster>  (3) 
1

$$$$

     RDKit          3D

 50 53  0  0  0  0  0  0  0  0999 V2000
  138.8510   70.7300  221.6150 O   0  0  0  0  0  0  0  0  0  0  0  0
  139.2490   71.2290  222.6900 C   0  0  0  0  0  0  0  0  0  0  0  0
  139.5090   72.6240  222.7520 N   0  0  0  0  0  0  0  0  0  0  0  0
  139.3050   73.4080  221.5680 C   0  0  0  0  0  0  0  0  0  0  0  0
  139.9880   74.7040  221.5970 C   0  0  0  0  0  0  0  0  0  0  0  0
  141.2390   74.8140  221.6730 O   0  0  0  0  0  0  0  0  0  0  0  0
  139.2430   75.9120  221.5400 N   0  0  0  0  0  0  0  0  0  0  0  0
  138.7720   76.6080  220.3610 C   0  0  0  0  0  0  0  0  0  0  0  0
  137.5940   77.4500  220.7860 C   0  0  0  0  0  0  0  0  0  0  0  0
  137.3640   77.0200  222.1930 C   0  0  0  0  0  0  0  0  0  0  0  0
  138.7710   76.7400  222.6620 C   0  0  2  0  0  0  0  0  0  0  0  0
  139.5670   77.9710  222.8250 C   0  0  0  0  0  0  0  0  0  0  0  0
  140.9440   78.0010  222.6190 C   0  0  0  0  0  0  0  0  0  0  0  0
  141.6820   79.1650  222.7760 C   0  0  0  0  0  0  0  0  0  0  0  0
  141.0810   80.3510  223.1460 C   0  0  0  0  0  0  0  0  0  0  0  0
  141.8300   81.5430  223.3070 N   0  0  0  0  0  4  0  0  0  0  0  0
  141.8160   82.4010  222.4130 O   0  0  0  0  0  0  0  0  0  0  0  0
  142.5890   81.8000  224.4350 O   0  0  0  0  0  1  0  0  0  0  0  0
  139.7170   80.3380  223.3540 C   0  0  0  0  0  0  0  0  0  0  0  0
  138.9890   79.1680  223.1930 C   0  0  0  0  0  0  0  0  0  0  0  0
  139.4560   70.4160  223.8980 C   0  0  0  0  0  0  0  0  0  0  0  0
  139.0310   69.1000  223.9120 C   0  0  0  0  0  0  0  0  0  0  0  0
  139.2350   68.3510  225.0590 C   0  0  0  0  0  0  0  0  0  0  0  0
  139.8450   68.8690  226.1830 C   0  0  0  0  0  0  0  0  0  0  0  0
  140.0560   68.1400  227.3310 C   0  0  0  0  0  0  0  0  0  0  0  0
  140.6750   68.7500  228.4020 C   0  0  0  0  0  0  0  0  0  0  0  0
  141.0810   70.0720  228.3350 C   0  0  0  0  0  0  0  0  0  0  0  0
  140.8780   70.8180  227.1910 C   0  0  0  0  0  0  0  0  0  0  0  0
  140.2540   70.2000  226.1150 C   0  0  0  0  0  0  0  0  0  0  0  0
  140.0500   70.9190  224.9940 N   0  0  0  0  0  0  0  0  0  0  0  0
  139.8410   73.0160  223.6620 H   0  0  0  0  0  0  0  0  0  0  0  0
  139.6783   72.8375  220.7047 H   0  0  0  0  0  0  0  0  0  0  0  0
  138.2265   73.6135  221.4994 H   0  0  0  0  0  0  0  0  0  0  0  0
  139.5691   77.2499  219.9577 H   0  0  0  0  0  0  0  0  0  0  0  0
  138.4817   75.8956  219.5747 H   0  0  0  0  0  0  0  0  0  0  0  0
  137.8355   78.5219  220.7348 H   0  0  0  0  0  0  0  0  0  0  0  0
  136.7118   77.3167  220.1426 H   0  0  0  0  0  0  0  0  0  0  0  0
  136.8958   77.8200  222.7852 H   0  0  0  0  0  0  0  0  0  0  0  0
  136.6818   76.1628  222.2918 H   0  0  0  0  0  0  0  0  0  0  0  0
  138.8451   76.2687  223.6531 H   0  0  0  0  0  0  0  0  0  0  0  0
  141.4608   77.0760  222.3236 H   0  0  0  0  0  0  0  0  0  0  0  0
  142.7679   79.1423  222.6021 H   0  0  0  0  0  0  0  0  0  0  0  0
  139.2021   81.2638  223.6502 H   0  0  0  0  0  0  0  0  0  0  0  0
  137.9031   79.1962  223.3664 H   0  0  0  0  0  0  0  0  0  0  0  0
  138.5417   68.6579  223.0316 H   0  0  0  0  0  0  0  0  0  0  0  0
  138.8981   67.3040  225.0745 H   0  0  0  0  0  0  0  0  0  0  0  0
  139.7366   67.0892  227.3933 H   0  0  0  0  0  0  0  0  0  0  0  0
  140.8490   68.1768  229.3246 H   0  0  0  0  0  0  0  0  0  0  0  0
  141.5716   70.5340  229.2044 H   0  0  0  0  0  0  0  0  0  0  0  0
  141.2002   71.8682  227.1336 H   0  0  0  0  0  0  0  0  0  0  0  0
  1  2  2  0
  2  3  1  0
  3  4  1  0
  4  5  1  0
  5  6  2  0
  5  7  1  0
  7  8  1  0
  8  9  1  0
  9 10  1  0
 10 11  1  0
 11 12  1  0
 12 13  2  0
 13 14  1  0
 14 15  2  0
 15 16  1  0
 16 17  2  0
 16 18  1  0
 15 19  1  0
 19 20  2  0
  2 21  1  0
 21 22  2  0
 22 23  1  0
 23 24  2  0
 24 25  1  0
 25 26  2  0
 26 27  1  0
 27 28  2  0
 28 29  1  0
 29 30  2  0
 11  7  1  0
 20 12  1  0
 30 21  1  0
 29 24  1  0
  3 31  1  0
  4 32  1  0
  4 33  1  0
  8 34  1  0
  8 35  1  0
  9 36  1  0
  9 37  1  0
 10 38  1  0
 10 39  1  0
 11 40  1  1
 13 41  1  0
 14 42  1  0
 19 43  1  0
 20 44  1  0
 22 45  1  0
 23 46  1  0
 25 47  1  0
 26 48  1  0
 27 49  1  0
 28 50  1  0
M  CHG  2  16   1  18  -1
M  END
>  <smiles>  (4) 
O=C(NCC(=O)N1CCCC1c1ccc([N+](=O)[O-])cc1)c1ccc2ccccc2n1

>  <score_type>  (4) 
oracle

>  <origin>  (4) 
autodockgpu

>  <m_score__min__energy>  (4) 
-9.4299999999999997

>  <m_primary>  (4) 
energy

>  <rmsd>  (4) 
2.5163011861016384

>  <m_score__min__rmsd>  (4) 
2.5163011861016384

>  <meeko>  (4) 
{"free_energy": -8.71, "intermolecular_energy": -10.5, "internal_energy": -1.66, "cluster_size": 30, "cluster_id": 1, "rank_in_cluster": 21}

>  <energy>  (4) 
-9.24

>  <cluster_rmsd>  (4) 
1.19

>  <cluster>  (4) 
1

$$$$

     RDKit          3D

 50 53  0  0  0  0  0  0  0  0999 V2000
  140.7460   71.2590  221.4010 O   0  0  0  0  0  0  0  0  0  0  0  0
  140.2090   71.7200  222.4310 C   0  0  0  0  0  0  0  0  0  0  0  0
  139.6770   73.0370  222.4060 N   0  0  0  0  0  0  0  0  0  0  0  0
  139.7820   73.7900  221.1880 C   0  0  0  0  0  0  0  0  0  0  0  0
  140.8130   74.8310  221.2290 C   0  0  0  0  0  0  0  0  0  0  0  0
  140.8440   75.7250  222.1140 O   0  0  0  0  0  0  0  0  0  0  0  0
  141.8390   74.8670  220.2480 N   0  0  0  0  0  0  0  0  0  0  0  0
  141.6880   74.8900  218.8090 C   0  0  0  0  0  0  0  0  0  0  0  0
  142.9480   75.4980  218.2420 C   0  0  0  0  0  0  0  0  0  0  0  0
  143.6760   75.9540  219.4590 C   0  0  0  0  0  0  0  0  0  0  0  0
  143.2950   74.8920  220.4610 C   0  0  2  0  0  0  0  0  0  0  0  0
  143.9280   73.5910  220.1730 C   0  0  0  0  0  0  0  0  0  0  0  0
  145.3050   73.4480  220.0280 C   0  0  0  0  0  0  0  0  0  0  0  0
  145.8880   72.2190  219.7580 C   0  0  0  0  0  0  0  0  0  0  0  0
  145.1250   71.0780  219.6200 C   0  0  0  0  0  0  0  0  0  0  0  0
  145.7160   69.8190  219.3430 N   0  0  0  0  0  4  0  0  0  0  0  0
  145.2960   68.8060  219.9220 O   0  0  0  0  0  0  0  0  0  0  0  0
  146.7550   69.6650  218.4440 O   0  0  0  0  0  1  0  0  0  0  0  0
  143.7580   71.2020  219.7610 C   0  0  0  0  0  0  0  0  0  0  0  0
  143.1850   72.4360  220.0320 C   0  0  0  0  0  0  0  0  0  0  0  0
  140.1090   70.9410  223.6740 C   0  0  0  0  0  0  0  0  0  0  0  0
  139.5330   69.6840  223.6430 C   0  0  0  0  0  0  0  0  0  0  0  0
  139.4460   68.9650  224.8240 C   0  0  0  0  0  0  0  0  0  0  0  0
  139.9120   69.4580  226.0260 C   0  0  0  0  0  0  0  0  0  0  0  0
  139.8350   68.7580  227.2080 C   0  0  0  0  0  0  0  0  0  0  0  0
  140.3300   69.3390  228.3580 C   0  0  0  0  0  0  0  0  0  0  0  0
  140.8970   70.6020  228.3340 C   0  0  0  0  0  0  0  0  0  0  0  0
  140.9830   71.3170  227.1560 C   0  0  0  0  0  0  0  0  0  0  0  0
  140.4830   70.7290  226.0010 C   0  0  0  0  0  0  0  0  0  0  0  0
  140.5610   71.4180  224.8460 N   0  0  0  0  0  0  0  0  0  0  0  0
  139.2340   73.4000  223.2800 H   0  0  0  0  0  0  0  0  0  0  0  0
  140.0214   73.0955  220.3693 H   0  0  0  0  0  0  0  0  0  0  0  0
  138.8174   74.2969  221.0379 H   0  0  0  0  0  0  0  0  0  0  0  0
  141.5572   73.8669  218.4266 H   0  0  0  0  0  0  0  0  0  0  0  0
  140.8039   75.4756  218.5167 H   0  0  0  0  0  0  0  0  0  0  0  0
  143.5336   74.7496  217.6880 H   0  0  0  0  0  0  0  0  0  0  0  0
  142.7536   76.3081  217.5237 H   0  0  0  0  0  0  0  0  0  0  0  0
  144.7629   75.9753  219.2913 H   0  0  0  0  0  0  0  0  0  0  0  0
  143.4211   76.9766  219.7742 H   0  0  0  0  0  0  0  0  0  0  0  0
  143.6119   75.0929  221.4950 H   0  0  0  0  0  0  0  0  0  0  0  0
  145.9485   74.3343  220.1304 H   0  0  0  0  0  0  0  0  0  0  0  0
  146.9808   72.1526  219.6517 H   0  0  0  0  0  0  0  0  0  0  0  0
  143.1167   70.3143  219.6576 H   0  0  0  0  0  0  0  0  0  0  0  0
  142.0919   72.4968  220.1391 H   0  0  0  0  0  0  0  0  0  0  0  0
  139.1520   69.2640  222.7005 H   0  0  0  0  0  0  0  0  0  0  0  0
  138.9888   67.9647  224.8030 H   0  0  0  0  0  0  0  0  0  0  0  0
  139.3871   67.7537  227.2360 H   0  0  0  0  0  0  0  0  0  0  0  0
  140.2731   68.7896  229.3093 H   0  0  0  0  0  0  0  0  0  0  0  0
  141.2839   71.0413  229.2653 H   0  0  0  0  0  0  0  0  0  0  0  0
  141.4332   72.3204  227.1328 H   0  0  0  0  0  0  0  0  0  0  0  0
  1  2  2  0
  2  3  1  0
  3  4  1  0
  4  5  1  0
  5  6  2  0
  5  7  1  0
  7  8  1  0
  8  9  1  0
  9 10  1  0
 10 11  1  0
 11 12  1  0
 12 13  2  0
 13 14  1  0
 14 15  2  0
 15 16  1  0
 16 17  2  0
 16 18  1  0
 15 19  1  0
 19 20  2  0
  2 21  1  0
 21 22  2  0
 22 23  1  0
 23 24  2  0
 24 25  1  0
 25 26  2  0
 26 27  1  0
 27 28  2  0
 28 29  1  0
 29 30  2  0
 11  7  1  0
 20 12  1  0
 30 21  1  0
 29 24  1  0
  3 31  1  0
  4 32  1  0
  4 33  1  0
  8 34  1  0
  8 35  1  0
  9 36  1  0
  9 37  1  0
 10 38  1  0
 10 39  1  0
 11 40  1  1
 13 41  1  0
 14 42  1  0
 19 43  1  0
 20 44  1  0
 22 45  1  0
 23 46  1  0
 25 47  1  0
 26 48  1  0
 27 49  1  0
 28 50  1  0
M  CHG  2  16   1  18  -1
M  END
>  <smiles>  (5) 
O=C(NCC(=O)N1CCCC1c1ccc([N+](=O)[O-])cc1)c1ccc2ccccc2n1

>  <score_type>  (5) 
oracle

>  <origin>  (5) 
autodockgpu

>  <m_score__min__energy>  (5) 
-9.4299999999999997

>  <m_primary>  (5) 
energy

>  <rmsd>  (5) 
2.089786630167999

>  <m_score__min__rmsd>  (5) 
2.089786630167999

>  <meeko>  (5) 
{"free_energy": -9.13, "intermolecular_energy": -10.92, "internal_energy": -1.75, "cluster_size": 17, "cluster_id": 2, "rank_in_cluster": 4}

>  <energy>  (5) 
-9.22

>  <cluster_rmsd>  (5) 
1.26

>  <cluster>  (5) 
1

$$$$

     RDKit          3D

 50 53  0  0  0  0  0  0  0  0999 V2000
  141.2830   72.5070  222.3850 O   0  0  0  0  0  0  0  0  0  0  0  0
  140.2810   72.2140  223.0730 C   0  0  0  0  0  0  0  0  0  0  0  0
  139.0040   72.6960  222.6770 N   0  0  0  0  0  0  0  0  0  0  0  0
  138.9200   73.5070  221.4950 C   0  0  0  0  0  0  0  0  0  0  0  0
  139.1640   74.9310  221.7430 C   0  0  0  0  0  0  0  0  0  0  0  0
  138.4580   75.6170  222.5260 O   0  0  0  0  0  0  0  0  0  0  0  0
  140.2330   75.6010  221.0910 N   0  0  0  0  0  0  0  0  0  0  0  0
  141.5750   75.1130  220.8580 C   0  0  0  0  0  0  0  0  0  0  0  0
  142.1260   75.8800  219.6800 C   0  0  0  0  0  0  0  0  0  0  0  0
  140.9470   76.6540  219.2030 C   0  0  0  0  0  0  0  0  0  0  0  0
  140.2290   76.9490  220.4980 C   0  0  2  0  0  0  0  0  0  0  0  0
  140.9470   77.9320  221.3300 C   0  0  0  0  0  0  0  0  0  0  0  0
  141.5330   79.0760  220.7940 C   0  0  0  0  0  0  0  0  0  0  0  0
  142.2050   79.9930  221.5880 C   0  0  0  0  0  0  0  0  0  0  0  0
  142.3240   79.8120  222.9510 C   0  0  0  0  0  0  0  0  0  0  0  0
  143.0100   80.7460  223.7670 N   0  0  0  0  0  4  0  0  0  0  0  0
  142.3630   81.5640  224.4370 O   0  0  0  0  0  0  0  0  0  0  0  0
  144.3900   80.7890  223.8530 O   0  0  0  0  0  1  0  0  0  0  0  0
  141.7490   78.6830  223.4970 C   0  0  0  0  0  0  0  0  0  0  0  0
  141.0780   77.7720  222.6950 C   0  0  0  0  0  0  0  0  0  0  0  0
  140.3780   71.3840  224.2830 C   0  0  0  0  0  0  0  0  0  0  0  0
  141.0750   71.8610  225.3780 C   0  0  0  0  0  0  0  0  0  0  0  0
  141.1560   71.0640  226.5090 C   0  0  0  0  0  0  0  0  0  0  0  0
  140.5700   69.8180  226.5800 C   0  0  0  0  0  0  0  0  0  0  0  0
  140.6390   69.0130  227.6940 C   0  0  0  0  0  0  0  0  0  0  0  0
  140.0190   67.7820  227.6650 C   0  0  0  0  0  0  0  0  0  0  0  0
  139.3340   67.3520  226.5410 C   0  0  0  0  0  0  0  0  0  0  0  0
  139.2530   68.1470  225.4150 C   0  0  0  0  0  0  0  0  0  0  0  0
  139.8800   69.3860  225.4480 C   0  0  0  0  0  0  0  0  0  0  0  0
  139.8080   70.1690  224.3540 N   0  0  0  0  0  0  0  0  0  0  0  0
  138.1820   72.4390  223.2680 H   0  0  0  0  0  0  0  0  0  0  0  0
  139.6667   73.1468  220.7721 H   0  0  0  0  0  0  0  0  0  0  0  0
  137.8921   73.4170  221.1138 H   0  0  0  0  0  0  0  0  0  0  0  0
  142.1994   75.2862  221.7469 H   0  0  0  0  0  0  0  0  0  0  0  0
  141.5695   74.0320  220.6544 H   0  0  0  0  0  0  0  0  0  0  0  0
  142.9400   76.5513  219.9911 H   0  0  0  0  0  0  0  0  0  0  0  0
  142.5607   75.2312  218.9054 H   0  0  0  0  0  0  0  0  0  0  0  0
  141.2543   77.5801  218.6951 H   0  0  0  0  0  0  0  0  0  0  0  0
  140.3321   76.1199  218.4636 H   0  0  0  0  0  0  0  0  0  0  0  0
  139.2349   77.4063  220.3855 H   0  0  0  0  0  0  0  0  0  0  0  0
  141.4608   79.2571  219.7114 H   0  0  0  0  0  0  0  0  0  0  0  0
  142.6525   80.8832  221.1218 H   0  0  0  0  0  0  0  0  0  0  0  0
  141.8235   78.5035  224.5797 H   0  0  0  0  0  0  0  0  0  0  0  0
  140.6312   76.8843  223.1665 H   0  0  0  0  0  0  0  0  0  0  0  0
  141.5543   72.8507  225.3520 H   0  0  0  0  0  0  0  0  0  0  0  0
  141.7086   71.4397  227.3828 H   0  0  0  0  0  0  0  0  0  0  0  0
  141.1796   69.3460  228.5922 H   0  0  0  0  0  0  0  0  0  0  0  0
  140.0693   67.1303  228.5497 H   0  0  0  0  0  0  0  0  0  0  0  0
  138.8484   66.3650  226.5452 H   0  0  0  0  0  0  0  0  0  0  0  0
  138.7092   67.8099  224.5202 H   0  0  0  0  0  0  0  0  0  0  0  0
  1  2  2  0
  2  3  1  0
  3  4  1  0
  4  5  1  0
  5  6  2  0
  5  7  1  0
  7  8  1  0
  8  9  1  0
  9 10  1  0
 10 11  1  0
 11 12  1  0
 12 13  2  0
 13 14  1  0
 14 15  2  0
 15 16  1  0
 16 17  2  0
 16 18  1  0
 15 19  1  0
 19 20  2  0
  2 21  1  0
 21 22  2  0
 22 23  1  0
 23 24  2  0
 24 25  1  0
 25 26  2  0
 26 27  1  0
 27 28  2  0
 28 29  1  0
 29 30  2  0
 11  7  1  0
 20 12  1  0
 30 21  1  0
 29 24  1  0
  3 31  1  0
  4 32  1  0
  4 33  1  0
  8 34  1  0
  8 35  1  0
  9 36  1  0
  9 37  1  0
 10 38  1  0
 10 39  1  0
 11 40  1  6
 13 41  1  0
 14 42  1  0
 19 43  1  0
 20 44  1  0
 22 45  1  0
 23 46  1  0
 25 47  1  0
 26 48  1  0
 27 49  1  0
 28 50  1  0
M  CHG  2  16   1  18  -1
M  END
>  <smiles>  (6) 
O=C(NCC(=O)N1CCCC1c1ccc([N+](=O)[O-])cc1)c1ccc2ccccc2n1

>  <score_type>  (6) 
oracle

>  <origin>  (6) 
autodockgpu

>  <m_score__min__energy>  (6) 
-9.4299999999999997

>  <m_primary>  (6) 
energy

>  <rmsd>  (6) 
2.98063304122003

>  <m_score__min__rmsd>  (6) 
2.98063304122003

>  <meeko>  (6) 
{"free_energy": -9.01, "intermolecular_energy": -10.8, "internal_energy": -1.58, "cluster_size": 30, "cluster_id": 1, "rank_in_cluster": 14}

>  <energy>  (6) 
-9.22

>  <cluster_rmsd>  (6) 
1.54

>  <cluster>  (6) 
1

$$$$

     RDKit          3D

 50 53  0  0  0  0  0  0  0  0999 V2000
  139.5160   71.0190  221.3670 O   0  0  0  0  0  0  0  0  0  0  0  0
  139.6710   71.5700  222.4780 C   0  0  0  0  0  0  0  0  0  0  0  0
  139.8040   72.9830  222.5380 N   0  0  0  0  0  0  0  0  0  0  0  0
  139.7560   73.7240  221.3100 C   0  0  0  0  0  0  0  0  0  0  0  0
  140.9380   73.5340  220.4650 C   0  0  0  0  0  0  0  0  0  0  0  0
  141.2610   72.4160  219.9850 O   0  0  0  0  0  0  0  0  0  0  0  0
  141.7810   74.6320  220.1490 N   0  0  0  0  0  0  0  0  0  0  0  0
  143.2180   74.7200  220.3050 C   0  0  0  0  0  0  0  0  0  0  0  0
  143.7030   75.7730  219.3370 C   0  0  0  0  0  0  0  0  0  0  0  0
  142.4810   76.0930  218.5490 C   0  0  0  0  0  0  0  0  0  0  0  0
  141.3970   75.9380  219.5880 C   0  0  2  0  0  0  0  0  0  0  0  0
  141.4230   77.0130  220.5960 C   0  0  0  0  0  0  0  0  0  0  0  0
  141.8160   78.3130  220.2890 C   0  0  0  0  0  0  0  0  0  0  0  0
  141.8350   79.3160  221.2470 C   0  0  0  0  0  0  0  0  0  0  0  0
  141.4650   79.0690  222.5530 C   0  0  0  0  0  0  0  0  0  0  0  0
  141.4840   80.0900  223.5360 N   0  0  0  0  0  4  0  0  0  0  0  0
  140.4270   80.6590  223.8470 O   0  0  0  0  0  0  0  0  0  0  0  0
  142.6440   80.4890  224.1750 O   0  0  0  0  0  1  0  0  0  0  0  0
  141.0730   77.7850  222.8730 C   0  0  0  0  0  0  0  0  0  0  0  0
  141.0560   76.7900  221.9080 C   0  0  0  0  0  0  0  0  0  0  0  0
  139.7190   70.8020  223.7310 C   0  0  0  0  0  0  0  0  0  0  0  0
  139.2090   69.5160  223.7590 C   0  0  0  0  0  0  0  0  0  0  0  0
  139.2630   68.8080  224.9490 C   0  0  0  0  0  0  0  0  0  0  0  0
  139.8060   69.3380  226.1010 C   0  0  0  0  0  0  0  0  0  0  0  0
  139.8700   68.6500  227.2910 C   0  0  0  0  0  0  0  0  0  0  0  0
  140.4320   69.2680  228.3880 C   0  0  0  0  0  0  0  0  0  0  0  0
  140.9290   70.5580  228.3050 C   0  0  0  0  0  0  0  0  0  0  0  0
  140.8740   71.2620  227.1200 C   0  0  0  0  0  0  0  0  0  0  0  0
  140.3070   70.6370  226.0170 C   0  0  0  0  0  0  0  0  0  0  0  0
  140.2480   71.3150  224.8550 N   0  0  0  0  0  0  0  0  0  0  0  0
  139.9330   73.4200  223.4790 H   0  0  0  0  0  0  0  0  0  0  0  0
  138.8687   73.4032  220.7445 H   0  0  0  0  0  0  0  0  0  0  0  0
  139.7179   74.7903  221.5773 H   0  0  0  0  0  0  0  0  0  0  0  0
  143.4691   75.0101  221.3359 H   0  0  0  0  0  0  0  0  0  0  0  0
  143.6953   73.7500  220.1018 H   0  0  0  0  0  0  0  0  0  0  0  0
  144.0725   76.6607  219.8712 H   0  0  0  0  0  0  0  0  0  0  0  0
  144.5438   75.4342  218.7139 H   0  0  0  0  0  0  0  0  0  0  0  0
  142.5152   77.1196  218.1554 H   0  0  0  0  0  0  0  0  0  0  0  0
  142.3430   75.4576  217.6617 H   0  0  0  0  0  0  0  0  0  0  0  0
  140.3694   75.9947  219.1996 H   0  0  0  0  0  0  0  0  0  0  0  0
  142.1196   78.5511  219.2589 H   0  0  0  0  0  0  0  0  0  0  0  0
  142.1517   80.3294  220.9595 H   0  0  0  0  0  0  0  0  0  0  0  0
  140.7711   77.5488  223.9040 H   0  0  0  0  0  0  0  0  0  0  0  0
  140.7362   75.7789  222.2003 H   0  0  0  0  0  0  0  0  0  0  0  0
  138.7703   69.0656  222.8564 H   0  0  0  0  0  0  0  0  0  0  0  0
  138.8579   67.7857  224.9760 H   0  0  0  0  0  0  0  0  0  0  0  0
  139.4794   67.6244  227.3658 H   0  0  0  0  0  0  0  0  0  0  0  0
  140.4865   68.7277  229.3446 H   0  0  0  0  0  0  0  0  0  0  0  0
  141.3732   71.0271  229.1953 H   0  0  0  0  0  0  0  0  0  0  0  0
  141.2672   72.2870  227.0508 H   0  0  0  0  0  0  0  0  0  0  0  0
  1  2  2  0
  2  3  1  0
  3  4  1  0
  4  5  1  0
  5  6  2  0
  5  7  1  0
  7  8  1  0
  8  9  1  0
  9 10  1  0
 10 11  1  0
 11 12  1  0
 12 13  2  0
 13 14  1  0
 14 15  2  0
 15 16  1  0
 16 17  2  0
 16 18  1  0
 15 19  1  0
 19 20  2  0
  2 21  1  0
 21 22  2  0
 22 23  1  0
 23 24  2  0
 24 25  1  0
 25 26  2  0
 26 27  1  0
 27 28  2  0
 28 29  1  0
 29 30  2  0
 11  7  1  0
 20 12  1  0
 30 21  1  0
 29 24  1  0
  3 31  1  0
  4 32  1  0
  4 33  1  0
  8 34  1  0
  8 35  1  0
  9 36  1  0
  9 37  1  0
 10 38  1  0
 10 39  1  0
 11 40  1  6
 13 41  1  0
 14 42  1  0
 19 43  1  0
 20 44  1  0
 22 45  1  0
 23 46  1  0
 25 47  1  0
 26 48  1  0
 27 49  1  0
 28 50  1  0
M  CHG  2  16   1  18  -1
M  END
>  <smiles>  (7) 
O=C(NCC(=O)N1CCCC1c1ccc([N+](=O)[O-])cc1)c1ccc2ccccc2n1

>  <score_type>  (7) 
oracle

>  <origin>  (7) 
autodockgpu

>  <m_score__min__energy>  (7) 
-9.4299999999999997

>  <m_primary>  (7) 
energy

>  <rmsd>  (7) 
2.224121508357733

>  <m_score__min__rmsd>  (7) 
2.224121508357733

>  <meeko>  (7) 
{"free_energy": -8.62, "intermolecular_energy": -10.41, "internal_energy": -1.61, "cluster_size": 30, "cluster_id": 1, "rank_in_cluster": 27}

>  <energy>  (7) 
-9.21

>  <cluster_rmsd>  (7) 
1.38

>  <cluster>  (7) 
1

$$$$

     RDKit          3D

 50 53  0  0  0  0  0  0  0  0999 V2000
  140.9150   72.0780  221.5800 O   0  0  0  0  0  0  0  0  0  0  0  0
  139.9560   72.1080  222.3810 C   0  0  0  0  0  0  0  0  0  0  0  0
  138.8070   72.8810  222.0590 N   0  0  0  0  0  0  0  0  0  0  0  0
  138.7980   73.6010  220.8180 C   0  0  0  0  0  0  0  0  0  0  0  0
  139.0780   75.0310  220.9680 C   0  0  0  0  0  0  0  0  0  0  0  0
  138.2110   75.8590  221.3520 O   0  0  0  0  0  0  0  0  0  0  0  0
  140.3690   75.5470  220.6800 N   0  0  0  0  0  0  0  0  0  0  0  0
  141.6510   74.9490  220.9900 C   0  0  0  0  0  0  0  0  0  0  0  0
  142.6530   75.5250  220.0180 C   0  0  0  0  0  0  0  0  0  0  0  0
  141.7990   76.3060  219.0800 C   0  0  0  0  0  0  0  0  0  0  0  0
  140.7110   76.8060  219.9980 C   0  0  2  0  0  0  0  0  0  0  0  0
  141.1920   77.8390  220.9340 C   0  0  0  0  0  0  0  0  0  0  0  0
  141.1520   77.6700  222.3150 C   0  0  0  0  0  0  0  0  0  0  0  0
  141.6080   78.6500  223.1850 C   0  0  0  0  0  0  0  0  0  0  0  0
  142.1230   79.8410  222.7170 C   0  0  0  0  0  0  0  0  0  0  0  0
  142.5900   80.8460  223.6020 N   0  0  0  0  0  4  0  0  0  0  0  0
  143.6830   80.7020  224.1690 O   0  0  0  0  0  0  0  0  0  0  0  0
  141.8720   81.9980  223.8670 O   0  0  0  0  0  1  0  0  0  0  0  0
  142.1700   80.0240  221.3510 C   0  0  0  0  0  0  0  0  0  0  0  0
  141.7120   79.0380  220.4890 C   0  0  0  0  0  0  0  0  0  0  0  0
  139.9760   71.3680  223.6510 C   0  0  0  0  0  0  0  0  0  0  0  0
  139.3860   70.1180  223.7180 C   0  0  0  0  0  0  0  0  0  0  0  0
  139.4150   69.4360  224.9230 C   0  0  0  0  0  0  0  0  0  0  0  0
  140.0070   69.9570  226.0550 C   0  0  0  0  0  0  0  0  0  0  0  0
  140.0460   69.2940  227.2600 C   0  0  0  0  0  0  0  0  0  0  0  0
  140.6630   69.9010  228.3340 C   0  0  0  0  0  0  0  0  0  0  0  0
  141.2380   71.1550  228.2130 C   0  0  0  0  0  0  0  0  0  0  0  0
  141.2100   71.8330  227.0120 C   0  0  0  0  0  0  0  0  0  0  0  0
  140.5870   71.2190  225.9320 C   0  0  0  0  0  0  0  0  0  0  0  0
  140.5530   71.8730  224.7560 N   0  0  0  0  0  0  0  0  0  0  0  0
  138.0190   72.8900  222.7460 H   0  0  0  0  0  0  0  0  0  0  0  0
  139.5614   73.1646  220.1571 H   0  0  0  0  0  0  0  0  0  0  0  0
  137.7839   73.5127  220.4010 H   0  0  0  0  0  0  0  0  0  0  0  0
  141.9423   75.1935  222.0222 H   0  0  0  0  0  0  0  0  0  0  0  0
  141.6046   73.8534  220.9031 H   0  0  0  0  0  0  0  0  0  0  0  0
  143.3735   76.1774  220.5331 H   0  0  0  0  0  0  0  0  0  0  0  0
  143.2597   74.7575  219.5151 H   0  0  0  0  0  0  0  0  0  0  0  0
  142.3575   77.1397  218.6294 H   0  0  0  0  0  0  0  0  0  0  0  0
  141.4274   75.7226  218.2247 H   0  0  0  0  0  0  0  0  0  0  0  0
  139.8714   77.3068  219.4937 H   0  0  0  0  0  0  0  0  0  0  0  0
  140.7478   76.7340  222.7280 H   0  0  0  0  0  0  0  0  0  0  0  0
  141.5578   78.4736  224.2696 H   0  0  0  0  0  0  0  0  0  0  0  0
  142.5746   80.9610  220.9407 H   0  0  0  0  0  0  0  0  0  0  0  0
  141.7655   79.2192  219.4053 H   0  0  0  0  0  0  0  0  0  0  0  0
  138.9045   69.6757  222.8334 H   0  0  0  0  0  0  0  0  0  0  0  0
  138.9484   68.4415  224.9797 H   0  0  0  0  0  0  0  0  0  0  0  0
  139.5930   68.2971  227.3650 H   0  0  0  0  0  0  0  0  0  0  0  0
  140.6989   69.3805  229.3024 H   0  0  0  0  0  0  0  0  0  0  0  0
  141.7233   71.6163  229.0857 H   0  0  0  0  0  0  0  0  0  0  0  0
  141.6666   72.8288  226.9122 H   0  0  0  0  0  0  0  0  0  0  0  0
  1  2  2  0
  2  3  1  0
  3  4  1  0
  4  5  1  0
  5  6  2  0
  5  7  1  0
  7  8  1  0
  8  9  1  0
  9 10  1  0
 10 11  1  0
 11 12  1  0
 12 13  2  0
 13 14  1  0
 14 15  2  0
 15 16  1  0
 16 17  2  0
 16 18  1  0
 15 19  1  0
 19 20  2  0
  2 21  1  0
 21 22  2  0
 22 23  1  0
 23 24  2  0
 24 25  1  0
 25 26  2  0
 26 27  1  0
 27 28  2  0
 28 29  1  0
 29 30  2  0
 11  7  1  0
 20 12  1  0
 30 21  1  0
 29 24  1  0
  3 31  1  0
  4 32  1  0
  4 33  1  0
  8 34  1  0
  8 35  1  0
  9 36  1  0
  9 37  1  0
 10 38  1  0
 10 39  1  0
 11 40  1  6
 13 41  1  0
 14 42  1  0
 19 43  1  0
 20 44  1  0
 22 45  1  0
 23 46  1  0
 25 47  1  0
 26 48  1  0
 27 49  1  0
 28 50  1  0
M  CHG  2  16   1  18  -1
M  END
>  <smiles>  (8) 
O=C(NCC(=O)N1CCCC1c1ccc([N+](=O)[O-])cc1)c1ccc2ccccc2n1

>  <score_type>  (8) 
oracle

>  <origin>  (8) 
autodockgpu

>  <m_score__min__energy>  (8) 
-9.4299999999999997

>  <m_primary>  (8) 
energy

>  <rmsd>  (8) 
1.9671235993012604

>  <m_score__min__rmsd>  (8) 
1.9671235993012604

>  <meeko>  (8) 
{"free_energy": -8.82, "intermolecular_energy": -10.61, "internal_energy": -1.47, "cluster_size": 30, "cluster_id": 1, "rank_in_cluster": 19}

>  <energy>  (8) 
-9.19

>  <cluster_rmsd>  (8) 
1.76

>  <cluster>  (8) 
1

$$$$

     RDKit          3D

 50 53  0  0  0  0  0  0  0  0999 V2000
  138.5100   71.6420  222.1030 O   0  0  0  0  0  0  0  0  0  0  0  0
  139.5860   71.4530  222.7080 C   0  0  0  0  0  0  0  0  0  0  0  0
  140.7640   72.1020  222.2490 N   0  0  0  0  0  0  0  0  0  0  0  0
  140.6650   72.9540  221.0980 C   0  0  0  0  0  0  0  0  0  0  0  0
  140.3580   74.3490  221.4260 C   0  0  0  0  0  0  0  0  0  0  0  0
  139.5530   74.6740  222.3370 O   0  0  0  0  0  0  0  0  0  0  0  0
  140.9750   75.4090  220.7100 N   0  0  0  0  0  0  0  0  0  0  0  0
  142.2760   75.4110  220.0750 C   0  0  0  0  0  0  0  0  0  0  0  0
  142.2410   76.4700  218.9990 C   0  0  0  0  0  0  0  0  0  0  0  0
  140.8110   76.8870  218.9870 C   0  0  0  0  0  0  0  0  0  0  0  0
  140.4390   76.7540  220.4430 C   0  0  2  0  0  0  0  0  0  0  0  0
  141.0710   77.7880  221.2840 C   0  0  0  0  0  0  0  0  0  0  0  0
  141.1960   77.6520  222.6640 C   0  0  0  0  0  0  0  0  0  0  0  0
  141.7920   78.6320  223.4440 C   0  0  0  0  0  0  0  0  0  0  0  0
  142.2890   79.7910  222.8840 C   0  0  0  0  0  0  0  0  0  0  0  0
  142.8990   80.7950  223.6770 N   0  0  0  0  0  4  0  0  0  0  0  0
  142.1920   81.6370  224.2500 O   0  0  0  0  0  0  0  0  0  0  0  0
  144.2690   80.8820  223.8460 O   0  0  0  0  0  1  0  0  0  0  0  0
  142.1730   79.9410  221.5180 C   0  0  0  0  0  0  0  0  0  0  0  0
  141.5760   78.9540  220.7470 C   0  0  0  0  0  0  0  0  0  0  0  0
  139.6770   70.5770  223.8860 C   0  0  0  0  0  0  0  0  0  0  0  0
  139.1140   69.3140  223.8380 C   0  0  0  0  0  0  0  0  0  0  0  0
  139.2080   68.5040  224.9570 C   0  0  0  0  0  0  0  0  0  0  0  0
  139.8420   68.9100  226.1130 C   0  0  0  0  0  0  0  0  0  0  0  0
  139.9470   68.1180  227.2340 C   0  0  0  0  0  0  0  0  0  0  0  0
  140.6010   68.6160  228.3410 C   0  0  0  0  0  0  0  0  0  0  0  0
  141.1480   69.8880  228.3370 C   0  0  0  0  0  0  0  0  0  0  0  0
  141.0530   70.6950  227.2210 C   0  0  0  0  0  0  0  0  0  0  0  0
  140.3930   70.1900  226.1080 C   0  0  0  0  0  0  0  0  0  0  0  0
  140.2940   70.9690  225.0140 N   0  0  0  0  0  0  0  0  0  0  0  0
  141.6510   71.9270  222.7720 H   0  0  0  0  0  0  0  0  0  0  0  0
  141.6245   72.9260  220.5609 H   0  0  0  0  0  0  0  0  0  0  0  0
  139.8325   72.5754  220.4867 H   0  0  0  0  0  0  0  0  0  0  0  0
  143.0562   75.6483  220.8132 H   0  0  0  0  0  0  0  0  0  0  0  0
  142.5051   74.4240  219.6468 H   0  0  0  0  0  0  0  0  0  0  0  0
  142.8973   77.3151  219.2543 H   0  0  0  0  0  0  0  0  0  0  0  0
  142.5957   76.1083  218.0226 H   0  0  0  0  0  0  0  0  0  0  0  0
  140.6991   77.9242  218.6381 H   0  0  0  0  0  0  0  0  0  0  0  0
  140.1794   76.2935  218.3097 H   0  0  0  0  0  0  0  0  0  0  0  0
  139.3689   76.8821  220.6630 H   0  0  0  0  0  0  0  0  0  0  0  0
  140.8116   76.7426  223.1490 H   0  0  0  0  0  0  0  0  0  0  0  0
  141.8700   78.4822  224.5310 H   0  0  0  0  0  0  0  0  0  0  0  0
  142.5574   80.8516  221.0352 H   0  0  0  0  0  0  0  0  0  0  0  0
  141.5022   79.1079  219.6603 H   0  0  0  0  0  0  0  0  0  0  0  0
  138.6027   68.9610  222.9303 H   0  0  0  0  0  0  0  0  0  0  0  0
  138.7606   67.4997  224.9230 H   0  0  0  0  0  0  0  0  0  0  0  0
  139.5168   67.1057  227.2464 H   0  0  0  0  0  0  0  0  0  0  0  0
  140.6897   67.9922  229.2427 H   0  0  0  0  0  0  0  0  0  0  0  0
  141.6646   70.2600  229.2341 H   0  0  0  0  0  0  0  0  0  0  0  0
  141.4863   71.7060  227.2134 H   0  0  0  0  0  0  0  0  0  0  0  0
  1  2  2  0
  2  3  1  0
  3  4  1  0
  4  5  1  0
  5  6  2  0
  5  7  1  0
  7  8  1  0
  8  9  1  0
  9 10  1  0
 10 11  1  0
 11 12  1  0
 12 13  2  0
 13 14  1  0
 14 15  2  0
 15 16  1  0
 16 17  2  0
 16 18  1  0
 15 19  1  0
 19 20  2  0
  2 21  1  0
 21 22  2  0
 22 23  1  0
 23 24  2  0
 24 25  1  0
 25 26  2  0
 26 27  1  0
 27 28  2  0
 28 29  1  0
 29 30  2  0
 11  7  1  0
 20 12  1  0
 30 21  1  0
 29 24  1  0
  3 31  1  0
  4 32  1  0
  4 33  1  0
  8 34  1  0
  8 35  1  0
  9 36  1  0
  9 37  1  0
 10 38  1  0
 10 39  1  0
 11 40  1  6
 13 41  1  0
 14 42  1  0
 19 43  1  0
 20 44  1  0
 22 45  1  0
 23 46  1  0
 25 47  1  0
 26 48  1  0
 27 49  1  0
 28 50  1  0
M  CHG  2  16   1  18  -1
M  END
>  <smiles>  (9) 
O=C(NCC(=O)N1CCCC1c1ccc([N+](=O)[O-])cc1)c1ccc2ccccc2n1

>  <score_type>  (9) 
oracle

>  <origin>  (9) 
autodockgpu

>  <m_score__min__energy>  (9) 
-9.4299999999999997

>  <m_primary>  (9) 
energy

>  <rmsd>  (9) 
2.002515668358738

>  <m_score__min__rmsd>  (9) 
2.002515668358738

>  <meeko>  (9) 
{"free_energy": -9.22, "intermolecular_energy": -11.01, "internal_energy": -1.43, "cluster_size": 30, "cluster_id": 1, "rank_in_cluster": 6}

>  <energy>  (9) 
-9.16

>  <cluster_rmsd>  (9) 
1.73

>  <cluster>  (9) 
1

$$$$

     RDKit          3D

 50 53  0  0  0  0  0  0  0  0999 V2000
  138.4820   72.0480  222.4410 O   0  0  0  0  0  0  0  0  0  0  0  0
  139.5650   71.5410  222.8020 C   0  0  0  0  0  0  0  0  0  0  0  0
  140.7530   71.8630  222.0910 N   0  0  0  0  0  0  0  0  0  0  0  0
  140.6560   72.7630  220.9780 C   0  0  0  0  0  0  0  0  0  0  0  0
  140.5250   74.1690  221.3710 C   0  0  0  0  0  0  0  0  0  0  0  0
  139.7820   74.5470  222.3140 O   0  0  0  0  0  0  0  0  0  0  0  0
  141.2510   75.1790  220.6860 N   0  0  0  0  0  0  0  0  0  0  0  0
  142.6610   75.1870  220.3550 C   0  0  0  0  0  0  0  0  0  0  0  0
  142.8330   76.1170  219.1780 C   0  0  0  0  0  0  0  0  0  0  0  0
  141.4290   76.4450  218.8030 C   0  0  0  0  0  0  0  0  0  0  0  0
  140.7450   76.4520  220.1470 C   0  0  2  0  0  0  0  0  0  0  0  0
  141.1370   77.6080  220.9750 C   0  0  0  0  0  0  0  0  0  0  0  0
  141.5980   78.7990  220.4210 C   0  0  0  0  0  0  0  0  0  0  0  0
  141.9630   79.8800  221.2100 C   0  0  0  0  0  0  0  0  0  0  0  0
  141.8870   79.8210  222.5870 C   0  0  0  0  0  0  0  0  0  0  0  0
  142.2600   80.9220  223.3980 N   0  0  0  0  0  4  0  0  0  0  0  0
  141.6120   81.9770  223.3330 O   0  0  0  0  0  0  0  0  0  0  0  0
  143.3290   80.8740  224.2740 O   0  0  0  0  0  1  0  0  0  0  0  0
  141.4330   78.6470  223.1520 C   0  0  0  0  0  0  0  0  0  0  0  0
  141.0690   77.5730  222.3530 C   0  0  0  0  0  0  0  0  0  0  0  0
  139.6540   70.6180  223.9440 C   0  0  0  0  0  0  0  0  0  0  0  0
  139.0980   69.3550  223.8400 C   0  0  0  0  0  0  0  0  0  0  0  0
  139.1910   68.5000  224.9260 C   0  0  0  0  0  0  0  0  0  0  0  0
  139.8150   68.8620  226.1020 C   0  0  0  0  0  0  0  0  0  0  0  0
  139.9180   68.0260  227.1900 C   0  0  0  0  0  0  0  0  0  0  0  0
  140.5620   68.4830  228.3220 C   0  0  0  0  0  0  0  0  0  0  0  0
  141.1010   69.7570  228.3720 C   0  0  0  0  0  0  0  0  0  0  0  0
  141.0080   70.6080  227.2900 C   0  0  0  0  0  0  0  0  0  0  0  0
  140.3580   70.1450  226.1520 C   0  0  0  0  0  0  0  0  0  0  0  0
  140.2610   70.9680  225.0900 N   0  0  0  0  0  0  0  0  0  0  0  0
  141.6460   71.4250  222.4120 H   0  0  0  0  0  0  0  0  0  0  0  0
  141.5626   72.6563  220.3643 H   0  0  0  0  0  0  0  0  0  0  0  0
  139.7433   72.4958  220.4252 H   0  0  0  0  0  0  0  0  0  0  0  0
  143.2481   75.5494  221.2117 H   0  0  0  0  0  0  0  0  0  0  0  0
  143.0123   74.1739  220.1094 H   0  0  0  0  0  0  0  0  0  0  0  0
  143.3869   77.0223  219.4670 H   0  0  0  0  0  0  0  0  0  0  0  0
  143.4093   75.6715  218.3538 H   0  0  0  0  0  0  0  0  0  0  0  0
  141.3640   77.4288  218.3153 H   0  0  0  0  0  0  0  0  0  0  0  0
  140.9852   75.7440  218.0807 H   0  0  0  0  0  0  0  0  0  0  0  0
  139.6492   76.5403  220.1096 H   0  0  0  0  0  0  0  0  0  0  0  0
  141.6750   78.8853  219.3271 H   0  0  0  0  0  0  0  0  0  0  0  0
  142.3201   80.8025  220.7288 H   0  0  0  0  0  0  0  0  0  0  0  0
  141.3590   78.5619  224.2462 H   0  0  0  0  0  0  0  0  0  0  0  0
  140.7106   76.6535  222.8389 H   0  0  0  0  0  0  0  0  0  0  0  0
  138.5935   69.0371  222.9157 H   0  0  0  0  0  0  0  0  0  0  0  0
  138.7509   67.4949  224.8478 H   0  0  0  0  0  0  0  0  0  0  0  0
  139.4945   67.0113  227.1582 H   0  0  0  0  0  0  0  0  0  0  0  0
  140.6483   67.8242  229.1986 H   0  0  0  0  0  0  0  0  0  0  0  0
  141.6102   70.0954  229.2864 H   0  0  0  0  0  0  0  0  0  0  0  0
  141.4349   71.6211  227.3268 H   0  0  0  0  0  0  0  0  0  0  0  0
  1  2  2  0
  2  3  1  0
  3  4  1  0
  4  5  1  0
  5  6  2  0
  5  7  1  0
  7  8  1  0
  8  9  1  0
  9 10  1  0
 10 11  1  0
 11 12  1  0
 12 13  2  0
 13 14  1  0
 14 15  2  0
 15 16  1  0
 16 17  2  0
 16 18  1  0
 15 19  1  0
 19 20  2  0
  2 21  1  0
 21 22  2  0
 22 23  1  0
 23 24  2  0
 24 25  1  0
 25 26  2  0
 26 27  1  0
 27 28  2  0
 28 29  1  0
 29 30  2  0
 11  7  1  0
 20 12  1  0
 30 21  1  0
 29 24  1  0
  3 31  1  0
  4 32  1  0
  4 33  1  0
  8 34  1  0
  8 35  1  0
  9 36  1  0
  9 37  1  0
 10 38  1  0
 10 39  1  0
 11 40  1  6
 13 41  1  0
 14 42  1  0
 19 43  1  0
 20 44  1  0
 22 45  1  0
 23 46  1  0
 25 47  1  0
 26 48  1  0
 27 49  1  0
 28 50  1  0
M  CHG  2  16   1  18  -1
M  END
>  <smiles>  (10) 
O=C(NCC(=O)N1CCCC1c1ccc([N+](=O)[O-])cc1)c1ccc2ccccc2n1

>  <score_type>  (10) 
oracle

>  <origin>  (10) 
autodockgpu

>  <m_score__min__energy>  (10) 
-9.4299999999999997

>  <m_primary>  (10) 
energy

>  <rmsd>  (10) 
2.16243250964946

>  <m_score__min__rmsd>  (10) 
2.16243250964946

>  <meeko>  (10) 
{"free_energy": -9.1, "intermolecular_energy": -10.89, "internal_energy": -1.37, "cluster_size": 30, "cluster_id": 1, "rank_in_cluster": 11}

>  <energy>  (10) 
-9.16

>  <cluster_rmsd>  (10) 
1.62

>  <cluster>  (10) 
1

$$$$

     RDKit          3D

 50 53  0  0  0  0  0  0  0  0999 V2000
  140.6460   71.3080  221.2580 O   0  0  0  0  0  0  0  0  0  0  0  0
  140.2540   71.8770  222.2990 C   0  0  0  0  0  0  0  0  0  0  0  0
  139.8950   73.2510  222.2460 N   0  0  0  0  0  0  0  0  0  0  0  0
  140.0010   73.9330  220.9870 C   0  0  0  0  0  0  0  0  0  0  0  0
  141.3740   74.3090  220.6380 C   0  0  0  0  0  0  0  0  0  0  0  0
  142.3560   73.5430  220.8130 O   0  0  0  0  0  0  0  0  0  0  0  0
  141.6500   75.5840  220.0760 N   0  0  0  0  0  0  0  0  0  0  0  0
  142.8570   76.0130  219.4030 C   0  0  0  0  0  0  0  0  0  0  0  0
  142.4770   77.1690  218.5090 C   0  0  0  0  0  0  0  0  0  0  0  0
  140.9920   77.1990  218.6120 C   0  0  0  0  0  0  0  0  0  0  0  0
  140.7750   76.7680  220.0420 C   0  0  2  0  0  0  0  0  0  0  0  0
  141.1880   77.8000  221.0120 C   0  0  0  0  0  0  0  0  0  0  0  0
  141.1010   77.6060  222.3880 C   0  0  0  0  0  0  0  0  0  0  0  0
  141.4930   78.5850  223.2900 C   0  0  0  0  0  0  0  0  0  0  0  0
  141.9890   79.7990  222.8610 C   0  0  0  0  0  0  0  0  0  0  0  0
  142.3900   80.8010  223.7790 N   0  0  0  0  0  4  0  0  0  0  0  0
  141.5490   81.5960  224.2250 O   0  0  0  0  0  0  0  0  0  0  0  0
  143.6980   80.9390  224.2090 O   0  0  0  0  0  1  0  0  0  0  0  0
  142.0820   80.0060  221.5010 C   0  0  0  0  0  0  0  0  0  0  0  0
  141.6880   79.0210  220.6070 C   0  0  0  0  0  0  0  0  0  0  0  0
  140.1500   71.1700  223.5840 C   0  0  0  0  0  0  0  0  0  0  0  0
  139.5520   69.9240  223.6260 C   0  0  0  0  0  0  0  0  0  0  0  0
  139.4630   69.2730  224.8460 C   0  0  0  0  0  0  0  0  0  0  0  0
  139.9480   69.8220  226.0150 C   0  0  0  0  0  0  0  0  0  0  0  0
  139.8700   69.1900  227.2350 C   0  0  0  0  0  0  0  0  0  0  0  0
  140.3840   69.8240  228.3470 C   0  0  0  0  0  0  0  0  0  0  0  0
  140.9740   71.0730  228.2490 C   0  0  0  0  0  0  0  0  0  0  0  0
  141.0620   71.7200  227.0330 C   0  0  0  0  0  0  0  0  0  0  0  0
  140.5420   71.0790  225.9160 C   0  0  0  0  0  0  0  0  0  0  0  0
  140.6220   71.7020  224.7250 N   0  0  0  0  0  0  0  0  0  0  0  0
  139.5710   73.7040  223.1300 H   0  0  0  0  0  0  0  0  0  0  0  0
  139.6104   73.2720  220.1993 H   0  0  0  0  0  0  0  0  0  0  0  0
  139.4234   74.8650  221.0750 H   0  0  0  0  0  0  0  0  0  0  0  0
  143.6062   76.3363  220.1406 H   0  0  0  0  0  0  0  0  0  0  0  0
  143.2932   75.1905  218.8171 H   0  0  0  0  0  0  0  0  0  0  0  0
  142.9174   78.1098  218.8709 H   0  0  0  0  0  0  0  0  0  0  0  0
  142.8373   77.0544  217.4760 H   0  0  0  0  0  0  0  0  0  0  0  0
  140.5982   78.2106  218.4341 H   0  0  0  0  0  0  0  0  0  0  0  0
  140.4805   76.5654  217.8724 H   0  0  0  0  0  0  0  0  0  0  0  0
  139.7264   76.5814  220.3170 H   0  0  0  0  0  0  0  0  0  0  0  0
  140.7111   76.6511  222.7703 H   0  0  0  0  0  0  0  0  0  0  0  0
  141.4065   78.3892  224.3690 H   0  0  0  0  0  0  0  0  0  0  0  0
  142.4725   80.9616  221.1211 H   0  0  0  0  0  0  0  0  0  0  0  0
  141.7780   79.2218  219.5292 H   0  0  0  0  0  0  0  0  0  0  0  0
  139.1556   69.4597  222.7110 H   0  0  0  0  0  0  0  0  0  0  0  0
  138.9880   68.2816  224.8838 H   0  0  0  0  0  0  0  0  0  0  0  0
  139.4058   68.1965  227.3219 H   0  0  0  0  0  0  0  0  0  0  0  0
  140.3243   69.3294  229.3277 H   0  0  0  0  0  0  0  0  0  0  0  0
  141.3775   71.5554  229.1514 H   0  0  0  0  0  0  0  0  0  0  0  0
  141.5294   72.7124  226.9511 H   0  0  0  0  0  0  0  0  0  0  0  0
  1  2  2  0
  2  3  1  0
  3  4  1  0
  4  5  1  0
  5  6  2  0
  5  7  1  0
  7  8  1  0
  8  9  1  0
  9 10  1  0
 10 11  1  0
 11 12  1  0
 12 13  2  0
 13 14  1  0
 14 15  2  0
 15 16  1  0
 16 17  2  0
 16 18  1  0
 15 19  1  0
 19 20  2  0
  2 21  1  0
 21 22  2  0
 22 23  1  0
 23 24  2  0
 24 25  1  0
 25 26  2  0
 26 27  1  0
 27 28  2  0
 28 29  1  0
 29 30  2  0
 11  7  1  0
 20 12  1  0
 30 21  1  0
 29 24  1  0
  3 31  1  0
  4 32  1  0
  4 33  1  0
  8 34  1  0
  8 35  1  0
  9 36  1  0
  9 37  1  0
 10 38  1  0
 10 39  1  0
 11 40  1  6
 13 41  1  0
 14 42  1  0
 19 43  1  0
 20 44  1  0
 22 45  1  0
 23 46  1  0
 25 47  1  0
 26 48  1  0
 27 49  1  0
 28 50  1  0
M  CHG  2  16   1  18  -1
M  END
>  <smiles>  (11) 
O=C(NCC(=O)N1CCCC1c1ccc([N+](=O)[O-])cc1)c1ccc2ccccc2n1

>  <score_type>  (11) 
oracle

>  <origin>  (11) 
autodockgpu

>  <m_score__min__energy>  (11) 
-9.4299999999999997

>  <m_primary>  (11) 
energy

>  <rmsd>  (11) 
1.9829569854917974

>  <m_score__min__rmsd>  (11) 
1.9829569854917974

>  <meeko>  (11) 
{"free_energy": -9.24, "intermolecular_energy": -11.03, "internal_energy": -1.27, "cluster_size": 30, "cluster_id": 1, "rank_in_cluster": 3}

>  <energy>  (11) 
-9.1

>  <cluster_rmsd>  (11) 
1.72

>  <cluster>  (11) 
1

$$$$

     RDKit          3D

 50 53  0  0  0  0  0  0  0  0999 V2000
  140.8790   71.2280  221.4470 O   0  0  0  0  0  0  0  0  0  0  0  0
  140.2470   71.6720  222.4300 C   0  0  0  0  0  0  0  0  0  0  0  0
  139.6410   72.9540  222.3430 N   0  0  0  0  0  0  0  0  0  0  0  0
  139.7830   73.6920  221.1210 C   0  0  0  0  0  0  0  0  0  0  0  0
  140.8090   74.7370  221.1820 C   0  0  0  0  0  0  0  0  0  0  0  0
  140.8220   75.6280  222.0700 O   0  0  0  0  0  0  0  0  0  0  0  0
  141.8510   74.7800  220.2190 N   0  0  0  0  0  0  0  0  0  0  0  0
  141.7250   74.8160  218.7770 C   0  0  0  0  0  0  0  0  0  0  0  0
  142.9950   75.4270  218.2370 C   0  0  0  0  0  0  0  0  0  0  0  0
  143.7040   75.8710  219.4700 C   0  0  0  0  0  0  0  0  0  0  0  0
  143.3040   74.8000  220.4550 C   0  0  2  0  0  0  0  0  0  0  0  0
  143.9390   73.5010  220.1670 C   0  0  0  0  0  0  0  0  0  0  0  0
  143.2110   72.3160  220.0900 C   0  0  0  0  0  0  0  0  0  0  0  0
  143.8200   71.1000  219.8170 C   0  0  0  0  0  0  0  0  0  0  0  0
  145.1810   71.0100  219.6100 C   0  0  0  0  0  0  0  0  0  0  0  0
  145.8080   69.7700  219.3320 N   0  0  0  0  0  4  0  0  0  0  0  0
  146.7240   69.7200  218.4980 O   0  0  0  0  0  0  0  0  0  0  0  0
  145.4410   68.5910  219.9570 O   0  0  0  0  0  1  0  0  0  0  0  0
  145.9160   72.1750  219.6830 C   0  0  0  0  0  0  0  0  0  0  0  0
  145.2980   73.3860  219.9550 C   0  0  0  0  0  0  0  0  0  0  0  0
  140.1080   70.9080  223.6790 C   0  0  0  0  0  0  0  0  0  0  0  0
  139.4360   69.7000  223.6640 C   0  0  0  0  0  0  0  0  0  0  0  0
  139.3150   68.9950  224.8510 C   0  0  0  0  0  0  0  0  0  0  0  0
  139.8390   69.4540  226.0410 C   0  0  0  0  0  0  0  0  0  0  0  0
  139.7300   68.7680  227.2290 C   0  0  0  0  0  0  0  0  0  0  0  0
  140.2890   69.3120  228.3660 C   0  0  0  0  0  0  0  0  0  0  0  0
  140.9530   70.5270  228.3250 C   0  0  0  0  0  0  0  0  0  0  0  0
  141.0730   71.2280  227.1430 C   0  0  0  0  0  0  0  0  0  0  0  0
  140.5080   70.6770  225.9990 C   0  0  0  0  0  0  0  0  0  0  0  0
  140.6180   71.3530  224.8400 N   0  0  0  0  0  0  0  0  0  0  0  0
  139.1190   73.3030  223.1790 H   0  0  0  0  0  0  0  0  0  0  0  0
  140.0507   72.9884  220.3190 H   0  0  0  0  0  0  0  0  0  0  0  0
  138.8223   74.1940  220.9340 H   0  0  0  0  0  0  0  0  0  0  0  0
  141.5995   73.7965  218.3834 H   0  0  0  0  0  0  0  0  0  0  0  0
  140.8469   75.4056  218.4748 H   0  0  0  0  0  0  0  0  0  0  0  0
  143.5886   74.6827  217.6859 H   0  0  0  0  0  0  0  0  0  0  0  0
  142.8135   76.2441  217.5233 H   0  0  0  0  0  0  0  0  0  0  0  0
  144.7936   75.8917  219.3206 H   0  0  0  0  0  0  0  0  0  0  0  0
  143.4464   76.8913  219.7905 H   0  0  0  0  0  0  0  0  0  0  0  0
  143.6046   74.9909  221.4958 H   0  0  0  0  0  0  0  0  0  0  0  0
  142.1231   72.3453  220.2501 H   0  0  0  0  0  0  0  0  0  0  0  0
  143.2055   70.1892  219.7645 H   0  0  0  0  0  0  0  0  0  0  0  0
  147.0039   72.1429  219.5237 H   0  0  0  0  0  0  0  0  0  0  0  0
  145.9172   74.2938  220.0039 H   0  0  0  0  0  0  0  0  0  0  0  0
  139.0068   69.3070  222.7305 H   0  0  0  0  0  0  0  0  0  0  0  0
  138.7810   68.0333  224.8436 H   0  0  0  0  0  0  0  0  0  0  0  0
  139.2057   67.8019  227.2708 H   0  0  0  0  0  0  0  0  0  0  0  0
  140.2063   68.7725  229.3210 H   0  0  0  0  0  0  0  0  0  0  0  0
  141.3902   70.9381  229.2468 H   0  0  0  0  0  0  0  0  0  0  0  0
  141.5995   72.1931  227.1070 H   0  0  0  0  0  0  0  0  0  0  0  0
  1  2  2  0
  2  3  1  0
  3  4  1  0
  4  5  1  0
  5  6  2  0
  5  7  1  0
  7  8  1  0
  8  9  1  0
  9 10  1  0
 10 11  1  0
 11 12  1  0
 12 13  2  0
 13 14  1  0
 14 15  2  0
 15 16  1  0
 16 17  2  0
 16 18  1  0
 15 19  1  0
 19 20  2  0
  2 21  1  0
 21 22  2  0
 22 23  1  0
 23 24  2  0
 24 25  1  0
 25 26  2  0
 26 27  1  0
 27 28  2  0
 28 29  1  0
 29 30  2  0
 11  7  1  0
 20 12  1  0
 30 21  1  0
 29 24  1  0
  3 31  1  0
  4 32  1  0
  4 33  1  0
  8 34  1  0
  8 35  1  0
  9 36  1  0
  9 37  1  0
 10 38  1  0
 10 39  1  0
 11 40  1  1
 13 41  1  0
 14 42  1  0
 19 43  1  0
 20 44  1  0
 22 45  1  0
 23 46  1  0
 25 47  1  0
 26 48  1  0
 27 49  1  0
 28 50  1  0
M  CHG  2  16   1  18  -1
M  END
>  <smiles>  (12) 
O=C(NCC(=O)N1CCCC1c1ccc([N+](=O)[O-])cc1)c1ccc2ccccc2n1

>  <score_type>  (12) 
oracle

>  <origin>  (12) 
autodockgpu

>  <m_score__min__energy>  (12) 
-9.4299999999999997

>  <m_primary>  (12) 
energy

>  <rmsd>  (12) 
2.120743355824899

>  <m_score__min__rmsd>  (12) 
2.120743355824899

>  <meeko>  (12) 
{"free_energy": -9.21, "intermolecular_energy": -11.0, "internal_energy": -1.73, "cluster_size": 17, "cluster_id": 2, "rank_in_cluster": 3}

>  <energy>  (12) 
-9.1

>  <cluster_rmsd>  (12) 
1.45

>  <cluster>  (12) 
1

$$$$

     RDKit          3D

 50 53  0  0  0  0  0  0  0  0999 V2000
  138.5380   71.5550  222.1210 O   0  0  0  0  0  0  0  0  0  0  0  0
  139.6130   71.3320  222.7190 C   0  0  0  0  0  0  0  0  0  0  0  0
  140.8060   71.9460  222.2510 N   0  0  0  0  0  0  0  0  0  0  0  0
  140.7250   72.8010  221.1010 C   0  0  0  0  0  0  0  0  0  0  0  0
  140.4610   74.2050  221.4320 C   0  0  0  0  0  0  0  0  0  0  0  0
  139.6280   74.5530  222.3090 O   0  0  0  0  0  0  0  0  0  0  0  0
  141.1530   75.2460  220.7590 N   0  0  0  0  0  0  0  0  0  0  0  0
  142.5320   75.2520  220.3170 C   0  0  0  0  0  0  0  0  0  0  0  0
  142.6320   76.2570  219.1950 C   0  0  0  0  0  0  0  0  0  0  0  0
  141.2110   76.6340  218.9560 C   0  0  0  0  0  0  0  0  0  0  0  0
  140.6350   76.5610  220.3490 C   0  0  2  0  0  0  0  0  0  0  0  0
  141.1180   77.6510  221.2180 C   0  0  0  0  0  0  0  0  0  0  0  0
  141.6360   78.8380  220.7050 C   0  0  0  0  0  0  0  0  0  0  0  0
  142.0860   79.8560  221.5330 C   0  0  0  0  0  0  0  0  0  0  0  0
  142.0420   79.7370  222.9070 C   0  0  0  0  0  0  0  0  0  0  0  0
  142.5010   80.7730  223.7570 N   0  0  0  0  0  4  0  0  0  0  0  0
  141.6980   81.6170  224.1820 O   0  0  0  0  0  0  0  0  0  0  0  0
  143.8250   80.8910  224.1420 O   0  0  0  0  0  1  0  0  0  0  0  0
  141.5310   78.5660  223.4300 C   0  0  0  0  0  0  0  0  0  0  0  0
  141.0820   77.5550  222.5940 C   0  0  0  0  0  0  0  0  0  0  0  0
  139.6850   70.4530  223.8950 C   0  0  0  0  0  0  0  0  0  0  0  0
  139.0980   69.2020  223.8440 C   0  0  0  0  0  0  0  0  0  0  0  0
  139.1760   68.3880  224.9630 C   0  0  0  0  0  0  0  0  0  0  0  0
  139.8160   68.7800  226.1200 C   0  0  0  0  0  0  0  0  0  0  0  0
  139.9040   67.9860  227.2400 C   0  0  0  0  0  0  0  0  0  0  0  0
  140.5650   68.4700  228.3490 C   0  0  0  0  0  0  0  0  0  0  0  0
  141.1360   69.7310  228.3470 C   0  0  0  0  0  0  0  0  0  0  0  0
  141.0580   70.5410  227.2320 C   0  0  0  0  0  0  0  0  0  0  0  0
  140.3900   70.0500  226.1170 C   0  0  0  0  0  0  0  0  0  0  0  0
  140.3080   70.8330  225.0240 N   0  0  0  0  0  0  0  0  0  0  0  0
  141.6910   71.7440  222.7670 H   0  0  0  0  0  0  0  0  0  0  0  0
  141.6800   72.7452  220.5579 H   0  0  0  0  0  0  0  0  0  0  0  0
  139.8782   72.4473  220.4945 H   0  0  0  0  0  0  0  0  0  0  0  0
  143.1931   75.5445  221.1461 H   0  0  0  0  0  0  0  0  0  0  0  0
  142.8393   74.2521  219.9767 H   0  0  0  0  0  0  0  0  0  0  0  0
  143.2272   77.1308  219.4987 H   0  0  0  0  0  0  0  0  0  0  0  0
  143.1316   75.8590  218.2995 H   0  0  0  0  0  0  0  0  0  0  0  0
  141.1302   77.6498  218.5417 H   0  0  0  0  0  0  0  0  0  0  0  0
  140.6960   75.9919  218.2263 H   0  0  0  0  0  0  0  0  0  0  0  0
  139.5420   76.6706  220.4061 H   0  0  0  0  0  0  0  0  0  0  0  0
  141.6896   78.9716  219.6145 H   0  0  0  0  0  0  0  0  0  0  0  0
  142.4863   80.7774  221.0848 H   0  0  0  0  0  0  0  0  0  0  0  0
  141.4795   78.4337  224.5208 H   0  0  0  0  0  0  0  0  0  0  0  0
  140.6798   76.6369  223.0472 H   0  0  0  0  0  0  0  0  0  0  0  0
  138.5806   68.8605  222.9354 H   0  0  0  0  0  0  0  0  0  0  0  0
  138.7101   67.3922  224.9269 H   0  0  0  0  0  0  0  0  0  0  0  0
  139.4547   66.9820  227.2506 H   0  0  0  0  0  0  0  0  0  0  0  0
  140.6398   67.8437  229.2502 H   0  0  0  0  0  0  0  0  0  0  0  0
  141.6584   70.0921  229.2452 H   0  0  0  0  0  0  0  0  0  0  0  0
  141.5104   71.5436  227.2264 H   0  0  0  0  0  0  0  0  0  0  0  0
  1  2  2  0
  2  3  1  0
  3  4  1  0
  4  5  1  0
  5  6  2  0
  5  7  1  0
  7  8  1  0
  8  9  1  0
  9 10  1  0
 10 11  1  0
 11 12  1  0
 12 13  2  0
 13 14  1  0
 14 15  2  0
 15 16  1  0
 16 17  2  0
 16 18  1  0
 15 19  1  0
 19 20  2  0
  2 21  1  0
 21 22  2  0
 22 23  1  0
 23 24  2  0
 24 25  1  0
 25 26  2  0
 26 27  1  0
 27 28  2  0
 28 29  1  0
 29 30  2  0
 11  7  1  0
 20 12  1  0
 30 21  1  0
 29 24  1  0
  3 31  1  0
  4 32  1  0
  4 33  1  0
  8 34  1  0
  8 35  1  0
  9 36  1  0
  9 37  1  0
 10 38  1  0
 10 39  1  0
 11 40  1  6
 13 41  1  0
 14 42  1  0
 19 43  1  0
 20 44  1  0
 22 45  1  0
 23 46  1  0
 25 47  1  0
 26 48  1  0
 27 49  1  0
 28 50  1  0
M  CHG  2  16   1  18  -1
M  END
>  <smiles>  (13) 
O=C(NCC(=O)N1CCCC1c1ccc([N+](=O)[O-])cc1)c1ccc2ccccc2n1

>  <score_type>  (13) 
oracle

>  <origin>  (13) 
autodockgpu

>  <m_score__min__energy>  (13) 
-9.4299999999999997

>  <m_primary>  (13) 
energy

>  <rmsd>  (13) 
2.122096908701405

>  <m_score__min__rmsd>  (13) 
2.122096908701405

>  <meeko>  (13) 
{"free_energy": -9.16, "intermolecular_energy": -10.95, "internal_energy": -1.44, "cluster_size": 30, "cluster_id": 1, "rank_in_cluster": 10}

>  <energy>  (13) 
-9.07

>  <cluster_rmsd>  (13) 
1.26

>  <cluster>  (13) 
1

$$$$

     RDKit          3D

 50 53  0  0  0  0  0  0  0  0999 V2000
  141.0980   73.0750  222.3740 O   0  0  0  0  0  0  0  0  0  0  0  0
  140.0290   72.5210  222.7070 C   0  0  0  0  0  0  0  0  0  0  0  0
  138.8490   72.7840  221.9600 N   0  0  0  0  0  0  0  0  0  0  0  0
  138.9370   73.6840  220.8460 C   0  0  0  0  0  0  0  0  0  0  0  0
  139.2200   75.0700  221.2330 C   0  0  0  0  0  0  0  0  0  0  0  0
  138.4730   75.7290  222.0010 O   0  0  0  0  0  0  0  0  0  0  0  0
  140.3760   75.7320  220.7430 N   0  0  0  0  0  0  0  0  0  0  0  0
  141.7350   75.2340  220.7060 C   0  0  0  0  0  0  0  0  0  0  0  0
  142.4560   75.9950  219.6200 C   0  0  0  0  0  0  0  0  0  0  0  0
  141.3630   76.7770  218.9770 C   0  0  0  0  0  0  0  0  0  0  0  0
  140.4680   77.0790  220.1540 C   0  0  2  0  0  0  0  0  0  0  0  0
  141.0650   78.0580  221.0820 C   0  0  0  0  0  0  0  0  0  0  0  0
  141.6650   79.2340  220.6380 C   0  0  0  0  0  0  0  0  0  0  0  0
  142.2220   80.1470  221.5210 C   0  0  0  0  0  0  0  0  0  0  0  0
  142.2080   79.9300  222.8830 C   0  0  0  0  0  0  0  0  0  0  0  0
  142.7760   80.8600  223.7890 N   0  0  0  0  0  4  0  0  0  0  0  0
  144.0090   80.9170  223.9150 O   0  0  0  0  0  0  0  0  0  0  0  0
  142.0100   81.7220  224.5520 O   0  0  0  0  0  1  0  0  0  0  0  0
  141.6170   78.7690  223.3380 C   0  0  0  0  0  0  0  0  0  0  0  0
  141.0620   77.8620  222.4470 C   0  0  0  0  0  0  0  0  0  0  0  0
  139.9500   71.6000  223.8510 C   0  0  0  0  0  0  0  0  0  0  0  0
  139.2290   70.4260  223.7290 C   0  0  0  0  0  0  0  0  0  0  0  0
  139.1650   69.5720  224.8180 C   0  0  0  0  0  0  0  0  0  0  0  0
  139.7920   69.8500  226.0150 C   0  0  0  0  0  0  0  0  0  0  0  0
  139.7410   69.0140  227.1060 C   0  0  0  0  0  0  0  0  0  0  0  0
  140.4020   69.3820  228.2590 C   0  0  0  0  0  0  0  0  0  0  0  0
  141.1110   70.5700  228.3280 C   0  0  0  0  0  0  0  0  0  0  0  0
  141.1740   71.4210  227.2420 C   0  0  0  0  0  0  0  0  0  0  0  0
  140.5050   71.0460  226.0830 C   0  0  0  0  0  0  0  0  0  0  0  0
  140.5600   71.8690  225.0180 N   0  0  0  0  0  0  0  0  0  0  0  0
  137.9680   72.3090  222.2590 H   0  0  0  0  0  0  0  0  0  0  0  0
  139.7418   73.3371  220.1812 H   0  0  0  0  0  0  0  0  0  0  0  0
  137.9551   73.6812  220.3502 H   0  0  0  0  0  0  0  0  0  0  0  0
  142.2259   75.4039  221.6756 H   0  0  0  0  0  0  0  0  0  0  0  0
  141.7509   74.1529  220.5037 H   0  0  0  0  0  0  0  0  0  0  0  0
  143.2213   76.6610  220.0452 H   0  0  0  0  0  0  0  0  0  0  0  0
  142.9936   75.3421  218.9167 H   0  0  0  0  0  0  0  0  0  0  0  0
  141.7470   77.7001  218.5183 H   0  0  0  0  0  0  0  0  0  0  0  0
  140.8575   76.2460  218.1569 H   0  0  0  0  0  0  0  0  0  0  0  0
  139.5045   77.5435  219.8974 H   0  0  0  0  0  0  0  0  0  0  0  0
  141.6979   79.4441  219.5588 H   0  0  0  0  0  0  0  0  0  0  0  0
  142.6848   81.0637  221.1267 H   0  0  0  0  0  0  0  0  0  0  0  0
  141.5857   78.5607  224.4176 H   0  0  0  0  0  0  0  0  0  0  0  0
  140.5997   76.9473  222.8465 H   0  0  0  0  0  0  0  0  0  0  0  0
  138.7175   70.1758  222.7878 H   0  0  0  0  0  0  0  0  0  0  0  0
  138.5928   68.6372  224.7247 H   0  0  0  0  0  0  0  0  0  0  0  0
  139.1823   68.0676  227.0596 H   0  0  0  0  0  0  0  0  0  0  0  0
  140.3656   68.7216  229.1379 H   0  0  0  0  0  0  0  0  0  0  0  0
  141.6304   70.8390  229.2596 H   0  0  0  0  0  0  0  0  0  0  0  0
  141.7357   72.3654  227.2928 H   0  0  0  0  0  0  0  0  0  0  0  0
  1  2  2  0
  2  3  1  0
  3  4  1  0
  4  5  1  0
  5  6  2  0
  5  7  1  0
  7  8  1  0
  8  9  1  0
  9 10  1  0
 10 11  1  0
 11 12  1  0
 12 13  2  0
 13 14  1  0
 14 15  2  0
 15 16  1  0
 16 17  2  0
 16 18  1  0
 15 19  1  0
 19 20  2  0
  2 21  1  0
 21 22  2  0
 22 23  1  0
 23 24  2  0
 24 25  1  0
 25 26  2  0
 26 27  1  0
 27 28  2  0
 28 29  1  0
 29 30  2  0
 11  7  1  0
 20 12  1  0
 30 21  1  0
 29 24  1  0
  3 31  1  0
  4 32  1  0
  4 33  1  0
  8 34  1  0
  8 35  1  0
  9 36  1  0
  9 37  1  0
 10 38  1  0
 10 39  1  0
 11 40  1  6
 13 41  1  0
 14 42  1  0
 19 43  1  0
 20 44  1  0
 22 45  1  0
 23 46  1  0
 25 47  1  0
 26 48  1  0
 27 49  1  0
 28 50  1  0
M  CHG  2  16   1  18  -1
M  END
>  <smiles>  (14) 
O=C(NCC(=O)N1CCCC1c1ccc([N+](=O)[O-])cc1)c1ccc2ccccc2n1

>  <score_type>  (14) 
oracle

>  <origin>  (14) 
autodockgpu

>  <m_score__min__energy>  (14) 
-9.4299999999999997

>  <m_primary>  (14) 
energy

>  <rmsd>  (14) 
1.9327518761700193

>  <m_score__min__rmsd>  (14) 
1.9327518761700193

>  <meeko>  (14) 
{"free_energy": -8.99, "intermolecular_energy": -10.78, "internal_energy": -1.45, "cluster_size": 30, "cluster_id": 1, "rank_in_cluster": 15}

>  <energy>  (14) 
-9.01

>  <cluster_rmsd>  (14) 
1.31

>  <cluster>  (14) 
1

$$$$

     RDKit          3D

 50 53  0  0  0  0  0  0  0  0999 V2000
  141.3770   71.9970  221.8490 O   0  0  0  0  0  0  0  0  0  0  0  0
  140.3710   72.1060  222.5830 C   0  0  0  0  0  0  0  0  0  0  0  0
  139.4000   73.0990  222.2840 N   0  0  0  0  0  0  0  0  0  0  0  0
  139.6190   73.9440  221.1450 C   0  0  0  0  0  0  0  0  0  0  0  0
  140.7820   74.8250  221.2840 C   0  0  0  0  0  0  0  0  0  0  0  0
  140.9530   75.5760  222.2780 O   0  0  0  0  0  0  0  0  0  0  0  0
  141.7810   74.8620  220.2750 N   0  0  0  0  0  0  0  0  0  0  0  0
  141.5930   74.8640  218.8400 C   0  0  0  0  0  0  0  0  0  0  0  0
  142.8290   75.4820  218.2330 C   0  0  0  0  0  0  0  0  0  0  0  0
  143.5830   75.9630  219.4240 C   0  0  0  0  0  0  0  0  0  0  0  0
  143.2420   74.9080  220.4490 C   0  0  2  0  0  0  0  0  0  0  0  0
  143.8840   73.6120  220.1610 C   0  0  0  0  0  0  0  0  0  0  0  0
  143.1570   72.4910  219.7700 C   0  0  0  0  0  0  0  0  0  0  0  0
  143.7730   71.2780  219.5010 C   0  0  0  0  0  0  0  0  0  0  0  0
  145.1400   71.1260  219.6120 C   0  0  0  0  0  0  0  0  0  0  0  0
  145.7730   69.8890  219.3400 N   0  0  0  0  0  4  0  0  0  0  0  0
  146.7310   69.8510  218.5530 O   0  0  0  0  0  0  0  0  0  0  0  0
  145.3690   68.7000  219.9200 O   0  0  0  0  0  1  0  0  0  0  0  0
  145.8750   72.2280  219.9990 C   0  0  0  0  0  0  0  0  0  0  0  0
  145.2490   73.4380  220.2640 C   0  0  0  0  0  0  0  0  0  0  0  0
  140.1560   71.2360  223.7490 C   0  0  0  0  0  0  0  0  0  0  0  0
  139.4060   70.0830  223.6060 C   0  0  0  0  0  0  0  0  0  0  0  0
  139.2140   69.2770  224.7160 C   0  0  0  0  0  0  0  0  0  0  0  0
  139.7430   69.5820  225.9530 C   0  0  0  0  0  0  0  0  0  0  0  0
  139.5640   68.7930  227.0660 C   0  0  0  0  0  0  0  0  0  0  0  0
  140.1340   69.1850  228.2590 C   0  0  0  0  0  0  0  0  0  0  0  0
  140.8780   70.3500  228.3470 C   0  0  0  0  0  0  0  0  0  0  0  0
  141.0680   71.1530  227.2400 C   0  0  0  0  0  0  0  0  0  0  0  0
  140.4910   70.7550  226.0410 C   0  0  0  0  0  0  0  0  0  0  0  0
  140.6700   71.5310  224.9550 N   0  0  0  0  0  0  0  0  0  0  0  0
  138.5680   73.1700  222.9130 H   0  0  0  0  0  0  0  0  0  0  0  0
  139.7697   73.3056  220.2620 H   0  0  0  0  0  0  0  0  0  0  0  0
  138.7342   74.5902  221.0474 H   0  0  0  0  0  0  0  0  0  0  0  0
  141.4671   73.8343  218.4742 H   0  0  0  0  0  0  0  0  0  0  0  0
  140.6934   75.4333  218.5631 H   0  0  0  0  0  0  0  0  0  0  0  0
  143.4101   74.7348  217.6726 H   0  0  0  0  0  0  0  0  0  0  0  0
  142.6041   76.2807  217.5109 H   0  0  0  0  0  0  0  0  0  0  0  0
  144.6647   75.9960  219.2272 H   0  0  0  0  0  0  0  0  0  0  0  0
  143.3236   76.9863  219.7333 H   0  0  0  0  0  0  0  0  0  0  0  0
  143.5835   75.1258  221.4717 H   0  0  0  0  0  0  0  0  0  0  0  0
  142.0642   72.5695  219.6718 H   0  0  0  0  0  0  0  0  0  0  0  0
  143.1590   70.4190  219.1927 H   0  0  0  0  0  0  0  0  0  0  0  0
  146.9675   72.1466  220.0984 H   0  0  0  0  0  0  0  0  0  0  0  0
  145.8674   74.2950  220.5692 H   0  0  0  0  0  0  0  0  0  0  0  0
  138.9716   69.8120  222.6324 H   0  0  0  0  0  0  0  0  0  0  0  0
  138.6174   68.3593  224.6071 H   0  0  0  0  0  0  0  0  0  0  0  0
  138.9762   67.8652  227.0052 H   0  0  0  0  0  0  0  0  0  0  0  0
  139.9956   68.5624  229.1552 H   0  0  0  0  0  0  0  0  0  0  0  0
  141.3229   70.6390  229.3106 H   0  0  0  0  0  0  0  0  0  0  0  0
  141.6579   72.0791  227.3057 H   0  0  0  0  0  0  0  0  0  0  0  0
  1  2  2  0
  2  3  1  0
  3  4  1  0
  4  5  1  0
  5  6  2  0
  5  7  1  0
  7  8  1  0
  8  9  1  0
  9 10  1  0
 10 11  1  0
 11 12  1  0
 12 13  2  0
 13 14  1  0
 14 15  2  0
 15 16  1  0
 16 17  2  0
 16 18  1  0
 15 19  1  0
 19 20  2  0
  2 21  1  0
 21 22  2  0
 22 23  1  0
 23 24  2  0
 24 25  1  0
 25 26  2  0
 26 27  1  0
 27 28  2  0
 28 29  1  0
 29 30  2  0
 11  7  1  0
 20 12  1  0
 30 21  1  0
 29 24  1  0
  3 31  1  0
  4 32  1  0
  4 33  1  0
  8 34  1  0
  8 35  1  0
  9 36  1  0
  9 37  1  0
 10 38  1  0
 10 39  1  0
 11 40  1  1
 13 41  1  0
 14 42  1  0
 19 43  1  0
 20 44  1  0
 22 45  1  0
 23 46  1  0
 25 47  1  0
 26 48  1  0
 27 49  1  0
 28 50  1  0
M  CHG  2  16   1  18  -1
M  END
>  <smiles>  (15) 
O=C(NCC(=O)N1CCCC1c1ccc([N+](=O)[O-])cc1)c1ccc2ccccc2n1

>  <score_type>  (15) 
oracle

>  <origin>  (15) 
autodockgpu

>  <m_score__min__energy>  (15) 
-9.4299999999999997

>  <m_primary>  (15) 
energy

>  <rmsd>  (15) 
2.092386267542399

>  <m_score__min__rmsd>  (15) 
2.092386267542399

>  <meeko>  (15) 
{"free_energy": -9.22, "intermolecular_energy": -11.01, "internal_energy": -1.54, "cluster_size": 17, "cluster_id": 2, "rank_in_cluster": 1}

>  <energy>  (15) 
-8.99

>  <cluster_rmsd>  (15) 
1.39

>  <cluster>  (15) 
1

$$$$

     RDKit          3D

 50 53  0  0  0  0  0  0  0  0999 V2000
  140.4810   71.4170  221.2770 O   0  0  0  0  0  0  0  0  0  0  0  0
  140.1450   71.9940  222.3340 C   0  0  0  0  0  0  0  0  0  0  0  0
  139.8610   73.3860  222.3030 N   0  0  0  0  0  0  0  0  0  0  0  0
  139.9750   74.0760  221.0500 C   0  0  0  0  0  0  0  0  0  0  0  0
  141.3590   74.2510  220.6010 C   0  0  0  0  0  0  0  0  0  0  0  0
  142.2200   73.3370  220.6740 O   0  0  0  0  0  0  0  0  0  0  0  0
  141.7870   75.4900  220.0540 N   0  0  0  0  0  0  0  0  0  0  0  0
  143.0970   75.8250  219.5370 C   0  0  0  0  0  0  0  0  0  0  0  0
  142.9120   76.9760  218.5770 C   0  0  0  0  0  0  0  0  0  0  0  0
  141.4300   77.0980  218.4830 C   0  0  0  0  0  0  0  0  0  0  0  0
  141.0020   76.7230  219.8810 C   0  0  2  0  0  0  0  0  0  0  0  0
  141.3500   77.7560  220.8740 C   0  0  0  0  0  0  0  0  0  0  0  0
  141.2410   77.5370  222.2450 C   0  0  0  0  0  0  0  0  0  0  0  0
  141.5720   78.5160  223.1700 C   0  0  0  0  0  0  0  0  0  0  0  0
  142.0250   79.7570  222.7710 C   0  0  0  0  0  0  0  0  0  0  0  0
  142.3640   80.7600  223.7120 N   0  0  0  0  0  4  0  0  0  0  0  0
  143.5350   80.8580  224.1090 O   0  0  0  0  0  0  0  0  0  0  0  0
  141.4360   81.6530  224.2180 O   0  0  0  0  0  1  0  0  0  0  0  0
  142.1390   79.9890  221.4160 C   0  0  0  0  0  0  0  0  0  0  0  0
  141.8060   79.0030  220.4990 C   0  0  0  0  0  0  0  0  0  0  0  0
  140.0320   71.2780  223.6130 C   0  0  0  0  0  0  0  0  0  0  0  0
  139.4730   70.0130  223.6360 C   0  0  0  0  0  0  0  0  0  0  0  0
  139.3750   69.3540  224.8500 C   0  0  0  0  0  0  0  0  0  0  0  0
  139.8140   69.9130  226.0330 C   0  0  0  0  0  0  0  0  0  0  0  0
  139.7250   69.2740  227.2480 C   0  0  0  0  0  0  0  0  0  0  0  0
  140.1920   69.9180  228.3750 C   0  0  0  0  0  0  0  0  0  0  0  0
  140.7440   71.1860  228.2960 C   0  0  0  0  0  0  0  0  0  0  0  0
  140.8410   71.8410  227.0850 C   0  0  0  0  0  0  0  0  0  0  0  0
  140.3690   71.1890  225.9530 C   0  0  0  0  0  0  0  0  0  0  0  0
  140.4590   71.8200  224.7670 N   0  0  0  0  0  0  0  0  0  0  0  0
  139.5820   73.8450  223.2000 H   0  0  0  0  0  0  0  0  0  0  0  0
  139.4314   73.5013  220.2857 H   0  0  0  0  0  0  0  0  0  0  0  0
  139.5533   75.0815  221.1956 H   0  0  0  0  0  0  0  0  0  0  0  0
  143.7630   76.1230  220.3601 H   0  0  0  0  0  0  0  0  0  0  0  0
  143.5518   74.9609  219.0306 H   0  0  0  0  0  0  0  0  0  0  0  0
  143.3604   77.8985  218.9745 H   0  0  0  0  0  0  0  0  0  0  0  0
  143.3963   76.8109  217.6033 H   0  0  0  0  0  0  0  0  0  0  0  0
  141.1274   78.1257  218.2333 H   0  0  0  0  0  0  0  0  0  0  0  0
  140.9800   76.4747  217.6963 H   0  0  0  0  0  0  0  0  0  0  0  0
  139.9169   76.6083  220.0204 H   0  0  0  0  0  0  0  0  0  0  0  0
  140.8826   76.5610  222.6041 H   0  0  0  0  0  0  0  0  0  0  0  0
  141.4714   78.2988  224.2436 H   0  0  0  0  0  0  0  0  0  0  0  0
  142.4976   80.9657  221.0591 H   0  0  0  0  0  0  0  0  0  0  0  0
  141.9099   79.2248  219.4266 H   0  0  0  0  0  0  0  0  0  0  0  0
  139.1140   69.5406  222.7098 H   0  0  0  0  0  0  0  0  0  0  0  0
  138.9309   68.3479  224.8723 H   0  0  0  0  0  0  0  0  0  0  0  0
  139.2889   68.2667  227.3196 H   0  0  0  0  0  0  0  0  0  0  0  0
  140.1250   69.4167  229.3518 H   0  0  0  0  0  0  0  0  0  0  0  0
  141.1096   71.6771  229.2099 H   0  0  0  0  0  0  0  0  0  0  0  0
  141.2785   72.8481  227.0184 H   0  0  0  0  0  0  0  0  0  0  0  0
  1  2  2  0
  2  3  1  0
  3  4  1  0
  4  5  1  0
  5  6  2  0
  5  7  1  0
  7  8  1  0
  8  9  1  0
  9 10  1  0
 10 11  1  0
 11 12  1  0
 12 13  2  0
 13 14  1  0
 14 15  2  0
 15 16  1  0
 16 17  2  0
 16 18  1  0
 15 19  1  0
 19 20  2  0
  2 21  1  0
 21 22  2  0
 22 23  1  0
 23 24  2  0
 24 25  1  0
 25 26  2  0
 26 27  1  0
 27 28  2  0
 28 29  1  0
 29 30  2  0
 11  7  1  0
 20 12  1  0
 30 21  1  0
 29 24  1  0
  3 31  1  0
  4 32  1  0
  4 33  1  0
  8 34  1  0
  8 35  1  0
  9 36  1  0
  9 37  1  0
 10 38  1  0
 10 39  1  0
 11 40  1  6
 13 41  1  0
 14 42  1  0
 19 43  1  0
 20 44  1  0
 22 45  1  0
 23 46  1  0
 25 47  1  0
 26 48  1  0
 27 49  1  0
 28 50  1  0
M  CHG  2  16   1  18  -1
M  END
>  <smiles>  (16) 
O=C(NCC(=O)N1CCCC1c1ccc([N+](=O)[O-])cc1)c1ccc2ccccc2n1

>  <score_type>  (16) 
oracle

>  <origin>  (16) 
autodockgpu

>  <m_score__min__energy>  (16) 
-9.4299999999999997

>  <m_primary>  (16) 
energy

>  <rmsd>  (16) 
2.069206418143007

>  <m_score__min__rmsd>  (16) 
2.069206418143007

>  <meeko>  (16) 
{"free_energy": -9.16, "intermolecular_energy": -10.95, "internal_energy": -1.36, "cluster_size": 30, "cluster_id": 1, "rank_in_cluster": 9}

>  <energy>  (16) 
-8.98

>  <cluster_rmsd>  (16) 
0.62

>  <cluster>  (16) 
1

$$$$

     RDKit          3D

 50 53  0  0  0  0  0  0  0  0999 V2000
  139.9740   73.0770  222.7180 O   0  0  0  0  0  0  0  0  0  0  0  0
  139.5520   71.9400  223.0200 C   0  0  0  0  0  0  0  0  0  0  0  0
  138.6620   71.2730  222.1360 N   0  0  0  0  0  0  0  0  0  0  0  0
  138.2810   71.9400  220.9240 C   0  0  0  0  0  0  0  0  0  0  0  0
  139.2250   71.7380  219.8210 C   0  0  0  0  0  0  0  0  0  0  0  0
  139.4290   70.6140  219.2950 O   0  0  0  0  0  0  0  0  0  0  0  0
  139.9620   72.8320  219.2950 N   0  0  0  0  0  0  0  0  0  0  0  0
  140.3540   73.0570  217.9200 C   0  0  0  0  0  0  0  0  0  0  0  0
  140.5740   74.5420  217.7600 C   0  0  0  0  0  0  0  0  0  0  0  0
  140.1020   75.0920  219.0610 C   0  0  0  0  0  0  0  0  0  0  0  0
  140.4980   73.9970  220.0190 C   0  0  2  0  0  0  0  0  0  0  0  0
  141.9570   73.9150  220.2130 C   0  0  0  0  0  0  0  0  0  0  0  0
  142.7970   75.0080  220.0130 C   0  0  0  0  0  0  0  0  0  0  0  0
  144.1690   74.9190  220.1990 C   0  0  0  0  0  0  0  0  0  0  0  0
  144.7650   73.7380  220.5910 C   0  0  0  0  0  0  0  0  0  0  0  0
  146.1660   73.6420  220.7820 N   0  0  0  0  0  4  0  0  0  0  0  0
  146.6190   73.4900  221.9260 O   0  0  0  0  0  0  0  0  0  0  0  0
  147.0680   73.7090  219.7350 O   0  0  0  0  0  1  0  0  0  0  0  0
  143.9460   72.6460  220.7940 C   0  0  0  0  0  0  0  0  0  0  0  0
  142.5750   72.7460  220.6060 C   0  0  0  0  0  0  0  0  0  0  0  0
  139.9480   71.2650  224.2650 C   0  0  0  0  0  0  0  0  0  0  0  0
  140.8360   71.8890  225.1220 C   0  0  0  0  0  0  0  0  0  0  0  0
  141.1980   71.2380  226.2900 C   0  0  0  0  0  0  0  0  0  0  0  0
  140.7060   69.9940  226.6270 C   0  0  0  0  0  0  0  0  0  0  0  0
  141.0530   69.3330  227.7830 C   0  0  0  0  0  0  0  0  0  0  0  0
  140.5050   68.0910  228.0280 C   0  0  0  0  0  0  0  0  0  0  0  0
  139.6200   67.5100  227.1360 C   0  0  0  0  0  0  0  0  0  0  0  0
  139.2600   68.1600  225.9730 C   0  0  0  0  0  0  0  0  0  0  0  0
  139.8140   69.4110  225.7280 C   0  0  0  0  0  0  0  0  0  0  0  0
  139.4700   70.0530  224.5960 N   0  0  0  0  0  0  0  0  0  0  0  0
  138.3230   70.3240  222.4110 H   0  0  0  0  0  0  0  0  0  0  0  0
  137.2965   71.5605  220.6130 H   0  0  0  0  0  0  0  0  0  0  0  0
  138.2645   73.0183  221.1409 H   0  0  0  0  0  0  0  0  0  0  0  0
  141.2832   72.5116  217.6982 H   0  0  0  0  0  0  0  0  0  0  0  0
  139.5782   72.6987  217.2274 H   0  0  0  0  0  0  0  0  0  0  0  0
  141.6380   74.7689  217.5974 H   0  0  0  0  0  0  0  0  0  0  0  0
  140.0479   74.9675  216.8927 H   0  0  0  0  0  0  0  0  0  0  0  0
  140.6076   76.0385  219.3031 H   0  0  0  0  0  0  0  0  0  0  0  0
  139.0293   75.3347  219.0798 H   0  0  0  0  0  0  0  0  0  0  0  0
  140.1234   74.1213  221.0457 H   0  0  0  0  0  0  0  0  0  0  0  0
  142.3607   75.9678  219.6991 H   0  0  0  0  0  0  0  0  0  0  0  0
  144.7944   75.8081  220.0305 H   0  0  0  0  0  0  0  0  0  0  0  0
  144.3843   71.6872  221.1079 H   0  0  0  0  0  0  0  0  0  0  0  0
  141.9539   71.8545  220.7778 H   0  0  0  0  0  0  0  0  0  0  0  0
  141.2461   72.8809  224.8814 H   0  0  0  0  0  0  0  0  0  0  0  0
  141.9040   71.7313  226.9742 H   0  0  0  0  0  0  0  0  0  0  0  0
  141.7545   69.7867  228.4986 H   0  0  0  0  0  0  0  0  0  0  0  0
  140.7760   67.5528  228.9483 H   0  0  0  0  0  0  0  0  0  0  0  0
  139.1986   66.5182  227.3569 H   0  0  0  0  0  0  0  0  0  0  0  0
  138.5565   67.7023  225.2620 H   0  0  0  0  0  0  0  0  0  0  0  0
  1  2  2  0
  2  3  1  0
  3  4  1  0
  4  5  1  0
  5  6  2  0
  5  7  1  0
  7  8  1  0
  8  9  1  0
  9 10  1  0
 10 11  1  0
 11 12  1  0
 12 13  2  0
 13 14  1  0
 14 15  2  0
 15 16  1  0
 16 17  2  0
 16 18  1  0
 15 19  1  0
 19 20  2  0
  2 21  1  0
 21 22  2  0
 22 23  1  0
 23 24  2  0
 24 25  1  0
 25 26  2  0
 26 27  1  0
 27 28  2  0
 28 29  1  0
 29 30  2  0
 11  7  1  0
 20 12  1  0
 30 21  1  0
 29 24  1  0
  3 31  1  0
  4 32  1  0
  4 33  1  0
  8 34  1  0
  8 35  1  0
  9 36  1  0
  9 37  1  0
 10 38  1  0
 10 39  1  0
 11 40  1  1
 13 41  1  0
 14 42  1  0
 19 43  1  0
 20 44  1  0
 22 45  1  0
 23 46  1  0
 25 47  1  0
 26 48  1  0
 27 49  1  0
 28 50  1  0
M  CHG  2  16   1  18  -1
M  END
>  <smiles>  (17) 
O=C(NCC(=O)N1CCCC1c1ccc([N+](=O)[O-])cc1)c1ccc2ccccc2n1

>  <score_type>  (17) 
oracle

>  <origin>  (17) 
autodockgpu

>  <m_score__min__energy>  (17) 
-9.4299999999999997

>  <m_primary>  (17) 
energy

>  <rmsd>  (17) 
3.109870128933166

>  <m_score__min__rmsd>  (17) 
3.109870128933166

>  <meeko>  (17) 
{"free_energy": -7.86, "intermolecular_energy": -9.65, "internal_energy": -2.1, "cluster_size": 2, "cluster_id": 3, "rank_in_cluster": 2}

>  <energy>  (17) 
-8.95

>  <cluster_rmsd>  (17) 
1.28

>  <cluster>  (17) 
1

$$$$

     RDKit          3D

 50 53  0  0  0  0  0  0  0  0999 V2000
  140.2260   71.0780  221.3030 O   0  0  0  0  0  0  0  0  0  0  0  0
  139.9770   71.6170  222.4030 C   0  0  0  0  0  0  0  0  0  0  0  0
  139.7050   73.0110  222.4450 N   0  0  0  0  0  0  0  0  0  0  0  0
  139.7290   73.7460  221.2130 C   0  0  0  0  0  0  0  0  0  0  0  0
  140.7060   74.8380  221.2010 C   0  0  0  0  0  0  0  0  0  0  0  0
  140.6760   75.7900  222.0240 O   0  0  0  0  0  0  0  0  0  0  0  0
  141.7480   74.8610  220.2370 N   0  0  0  0  0  0  0  0  0  0  0  0
  141.6210   74.8980  218.7950 C   0  0  0  0  0  0  0  0  0  0  0  0
  142.9030   75.4850  218.2540 C   0  0  0  0  0  0  0  0  0  0  0  0
  143.6200   75.9160  219.4860 C   0  0  0  0  0  0  0  0  0  0  0  0
  143.2020   74.8540  220.4720 C   0  0  2  0  0  0  0  0  0  0  0  0
  143.8120   73.5430  220.1850 C   0  0  0  0  0  0  0  0  0  0  0  0
  143.0910   72.3540  220.2570 C   0  0  0  0  0  0  0  0  0  0  0  0
  143.6760   71.1270  219.9830 C   0  0  0  0  0  0  0  0  0  0  0  0
  145.0060   71.0290  219.6270 C   0  0  0  0  0  0  0  0  0  0  0  0
  145.6090   69.7770  219.3470 N   0  0  0  0  0  4  0  0  0  0  0  0
  145.1650   68.7510  219.8810 O   0  0  0  0  0  0  0  0  0  0  0  0
  146.6870   69.6440  218.4900 O   0  0  0  0  0  1  0  0  0  0  0  0
  145.7340   72.1980  219.5500 C   0  0  0  0  0  0  0  0  0  0  0  0
  145.1380   73.4210  219.8250 C   0  0  0  0  0  0  0  0  0  0  0  0
  139.9560   70.8550  223.6600 C   0  0  0  0  0  0  0  0  0  0  0  0
  139.4600   69.5640  223.6620 C   0  0  0  0  0  0  0  0  0  0  0  0
  139.4480   68.8620  224.8560 C   0  0  0  0  0  0  0  0  0  0  0  0
  139.9110   69.4020  226.0380 C   0  0  0  0  0  0  0  0  0  0  0  0
  139.9080   68.7200  227.2330 C   0  0  0  0  0  0  0  0  0  0  0  0
  140.3930   69.3490  228.3600 C   0  0  0  0  0  0  0  0  0  0  0  0
  140.8790   70.6450  228.3020 C   0  0  0  0  0  0  0  0  0  0  0  0
  140.8910   71.3430  227.1120 C   0  0  0  0  0  0  0  0  0  0  0  0
  140.4010   70.7060  225.9790 C   0  0  0  0  0  0  0  0  0  0  0  0
  140.4070   71.3790  224.8120 N   0  0  0  0  0  0  0  0  0  0  0  0
  139.5000   73.4390  223.3760 H   0  0  0  0  0  0  0  0  0  0  0  0
  139.9751   73.0501  220.3975 H   0  0  0  0  0  0  0  0  0  0  0  0
  138.7351   74.2007  221.0889 H   0  0  0  0  0  0  0  0  0  0  0  0
  141.4760   73.8808  218.4023 H   0  0  0  0  0  0  0  0  0  0  0  0
  140.7537   75.5033  218.4926 H   0  0  0  0  0  0  0  0  0  0  0  0
  143.4824   74.7293  217.7033 H   0  0  0  0  0  0  0  0  0  0  0  0
  142.7369   76.3049  217.5398 H   0  0  0  0  0  0  0  0  0  0  0  0
  144.7097   75.9169  219.3359 H   0  0  0  0  0  0  0  0  0  0  0  0
  143.3805   76.9408  219.8060 H   0  0  0  0  0  0  0  0  0  0  0  0
  143.5077   75.0402  221.5121 H   0  0  0  0  0  0  0  0  0  0  0  0
  142.0283   72.3890  220.5389 H   0  0  0  0  0  0  0  0  0  0  0  0
  143.0677   70.2130  220.0507 H   0  0  0  0  0  0  0  0  0  0  0  0
  146.7966   72.1607  219.2681 H   0  0  0  0  0  0  0  0  0  0  0  0
  145.7496   74.3324  219.7527 H   0  0  0  0  0  0  0  0  0  0  0  0
  139.0834   69.1049  222.7360 H   0  0  0  0  0  0  0  0  0  0  0  0
  139.0543   67.8349  224.8619 H   0  0  0  0  0  0  0  0  0  0  0  0
  139.5251   67.6903  227.2883 H   0  0  0  0  0  0  0  0  0  0  0  0
  140.3941   68.8131  229.3207 H   0  0  0  0  0  0  0  0  0  0  0  0
  141.2601   71.1235  229.2162 H   0  0  0  0  0  0  0  0  0  0  0  0
  141.2766   72.3720  227.0620 H   0  0  0  0  0  0  0  0  0  0  0  0
  1  2  2  0
  2  3  1  0
  3  4  1  0
  4  5  1  0
  5  6  2  0
  5  7  1  0
  7  8  1  0
  8  9  1  0
  9 10  1  0
 10 11  1  0
 11 12  1  0
 12 13  2  0
 13 14  1  0
 14 15  2  0
 15 16  1  0
 16 17  2  0
 16 18  1  0
 15 19  1  0
 19 20  2  0
  2 21  1  0
 21 22  2  0
 22 23  1  0
 23 24  2  0
 24 25  1  0
 25 26  2  0
 26 27  1  0
 27 28  2  0
 28 29  1  0
 29 30  2  0
 11  7  1  0
 20 12  1  0
 30 21  1  0
 29 24  1  0
  3 31  1  0
  4 32  1  0
  4 33  1  0
  8 34  1  0
  8 35  1  0
  9 36  1  0
  9 37  1  0
 10 38  1  0
 10 39  1  0
 11 40  1  1
 13 41  1  0
 14 42  1  0
 19 43  1  0
 20 44  1  0
 22 45  1  0
 23 46  1  0
 25 47  1  0
 26 48  1  0
 27 49  1  0
 28 50  1  0
M  CHG  2  16   1  18  -1
M  END
>  <smiles>  (18) 
O=C(NCC(=O)N1CCCC1c1ccc([N+](=O)[O-])cc1)c1ccc2ccccc2n1

>  <score_type>  (18) 
oracle

>  <origin>  (18) 
autodockgpu

>  <m_score__min__energy>  (18) 
-9.4299999999999997

>  <m_primary>  (18) 
energy

>  <rmsd>  (18) 
2.0419433880777187

>  <m_score__min__rmsd>  (18) 
2.0419433880777187

>  <meeko>  (18) 
{"free_energy": -8.99, "intermolecular_energy": -10.78, "internal_energy": -1.85, "cluster_size": 17, "cluster_id": 2, "rank_in_cluster": 8}

>  <energy>  (18) 
-8.92

>  <cluster_rmsd>  (18) 
1.26

>  <cluster>  (18) 
1

$$$$

     RDKit          3D

 50 53  0  0  0  0  0  0  0  0999 V2000
  139.8450   71.1900  221.5340 O   0  0  0  0  0  0  0  0  0  0  0  0
  139.2510   71.4240  222.6090 C   0  0  0  0  0  0  0  0  0  0  0  0
  138.2800   72.4610  222.6530 N   0  0  0  0  0  0  0  0  0  0  0  0
  138.0210   73.2010  221.4510 C   0  0  0  0  0  0  0  0  0  0  0  0
  138.6220   74.5370  221.4450 C   0  0  0  0  0  0  0  0  0  0  0  0
  138.3930   75.3920  222.3400 O   0  0  0  0  0  0  0  0  0  0  0  0
  139.5080   74.9240  220.4040 N   0  0  0  0  0  0  0  0  0  0  0  0
  139.4960   74.4880  219.0240 C   0  0  0  0  0  0  0  0  0  0  0  0
  140.1960   75.5560  218.2180 C   0  0  0  0  0  0  0  0  0  0  0  0
  140.4060   76.6440  219.2140 C   0  0  0  0  0  0  0  0  0  0  0  0
  140.6430   75.8580  220.4800 C   0  0  2  0  0  0  0  0  0  0  0  0
  141.9440   75.1640  220.4800 C   0  0  0  0  0  0  0  0  0  0  0  0
  142.0770   73.8310  220.8610 C   0  0  0  0  0  0  0  0  0  0  0  0
  143.3060   73.1890  220.8560 C   0  0  0  0  0  0  0  0  0  0  0  0
  144.4570   73.8450  220.4720 C   0  0  0  0  0  0  0  0  0  0  0  0
  145.7160   73.1930  220.4650 N   0  0  0  0  0  4  0  0  0  0  0  0
  146.3530   73.0810  221.5230 O   0  0  0  0  0  0  0  0  0  0  0  0
  146.2770   72.6660  219.3160 O   0  0  0  0  0  1  0  0  0  0  0  0
  144.3420   75.1660  220.0910 C   0  0  0  0  0  0  0  0  0  0  0  0
  143.1080   75.7990  220.0990 C   0  0  0  0  0  0  0  0  0  0  0  0
  139.5250   70.6600  223.8350 C   0  0  0  0  0  0  0  0  0  0  0  0
  139.2620   69.3030  223.8620 C   0  0  0  0  0  0  0  0  0  0  0  0
  139.5260   68.6000  225.0260 C   0  0  0  0  0  0  0  0  0  0  0  0
  140.0390   69.2040  226.1560 C   0  0  0  0  0  0  0  0  0  0  0  0
  140.3080   68.5230  227.3200 C   0  0  0  0  0  0  0  0  0  0  0  0
  140.8200   69.2190  228.3950 C   0  0  0  0  0  0  0  0  0  0  0  0
  141.0650   70.5790  228.3160 C   0  0  0  0  0  0  0  0  0  0  0  0
  140.8020   71.2780  227.1550 C   0  0  0  0  0  0  0  0  0  0  0  0
  140.2850   70.5740  226.0740 C   0  0  0  0  0  0  0  0  0  0  0  0
  140.0240   71.2470  224.9370 N   0  0  0  0  0  0  0  0  0  0  0  0
  137.7980   72.6370  223.5630 H   0  0  0  0  0  0  0  0  0  0  0  0
  138.4250   72.6339  220.5994 H   0  0  0  0  0  0  0  0  0  0  0  0
  136.9315   73.3366  221.3836 H   0  0  0  0  0  0  0  0  0  0  0  0
  140.0285   73.5305  218.9256 H   0  0  0  0  0  0  0  0  0  0  0  0
  138.4659   74.3392  218.6680 H   0  0  0  0  0  0  0  0  0  0  0  0
  141.1557   75.1893  217.8249 H   0  0  0  0  0  0  0  0  0  0  0  0
  139.6226   75.8797  217.3369 H   0  0  0  0  0  0  0  0  0  0  0  0
  141.2792   77.2611  218.9557 H   0  0  0  0  0  0  0  0  0  0  0  0
  139.5703   77.3562  219.2803 H   0  0  0  0  0  0  0  0  0  0  0  0
  140.6904   76.4608  221.3989 H   0  0  0  0  0  0  0  0  0  0  0  0
  141.1828   73.2723  221.1744 H   0  0  0  0  0  0  0  0  0  0  0  0
  143.3643   72.1348  221.1646 H   0  0  0  0  0  0  0  0  0  0  0  0
  145.2377   75.7225  219.7779 H   0  0  0  0  0  0  0  0  0  0  0  0
  143.0551   76.8528  219.7881 H   0  0  0  0  0  0  0  0  0  0  0  0
  138.8519   68.7925  222.9781 H   0  0  0  0  0  0  0  0  0  0  0  0
  139.3190   67.5199  225.0506 H   0  0  0  0  0  0  0  0  0  0  0  0
  140.1181   67.4419  227.3925 H   0  0  0  0  0  0  0  0  0  0  0  0
  141.0374   68.6841  229.3313 H   0  0  0  0  0  0  0  0  0  0  0  0
  141.4741   71.1091  229.1887 H   0  0  0  0  0  0  0  0  0  0  0  0
  140.9956   72.3587  227.0876 H   0  0  0  0  0  0  0  0  0  0  0  0
  1  2  2  0
  2  3  1  0
  3  4  1  0
  4  5  1  0
  5  6  2  0
  5  7  1  0
  7  8  1  0
  8  9  1  0
  9 10  1  0
 10 11  1  0
 11 12  1  0
 12 13  2  0
 13 14  1  0
 14 15  2  0
 15 16  1  0
 16 17  2  0
 16 18  1  0
 15 19  1  0
 19 20  2  0
  2 21  1  0
 21 22  2  0
 22 23  1  0
 23 24  2  0
 24 25  1  0
 25 26  2  0
 26 27  1  0
 27 28  2  0
 28 29  1  0
 29 30  2  0
 11  7  1  0
 20 12  1  0
 30 21  1  0
 29 24  1  0
  3 31  1  0
  4 32  1  0
  4 33  1  0
  8 34  1  0
  8 35  1  0
  9 36  1  0
  9 37  1  0
 10 38  1  0
 10 39  1  0
 11 40  1  1
 13 41  1  0
 14 42  1  0
 19 43  1  0
 20 44  1  0
 22 45  1  0
 23 46  1  0
 25 47  1  0
 26 48  1  0
 27 49  1  0
 28 50  1  0
M  CHG  2  16   1  18  -1
M  END
>  <smiles>  (19) 
O=C(NCC(=O)N1CCCC1c1ccc([N+](=O)[O-])cc1)c1ccc2ccccc2n1

>  <score_type>  (19) 
oracle

>  <origin>  (19) 
autodockgpu

>  <m_score__min__energy>  (19) 
-9.4299999999999997

>  <m_primary>  (19) 
energy

>  <rmsd>  (19) 
1.1371665268571447

>  <m_score__min__rmsd>  (19) 
1.1371665268571447

>  <meeko>  (19) 
{"free_energy": -8.61, "intermolecular_energy": -10.4, "internal_energy": -1.74, "cluster_size": 17, "cluster_id": 2, "rank_in_cluster": 14}

>  <energy>  (19) 
-8.82

>  <cluster_rmsd>  (19) 
1.46

>  <cluster>  (19) 
1

$$$$

     RDKit          3D

 50 53  0  0  0  0  0  0  0  0999 V2000
  140.7890   72.4870  221.9160 O   0  0  0  0  0  0  0  0  0  0  0  0
  139.8020   72.3130  222.6630 C   0  0  0  0  0  0  0  0  0  0  0  0
  138.5880   72.9930  222.3760 N   0  0  0  0  0  0  0  0  0  0  0  0
  138.5470   73.8590  221.2330 C   0  0  0  0  0  0  0  0  0  0  0  0
  138.8870   75.2520  221.5400 C   0  0  0  0  0  0  0  0  0  0  0  0
  138.1920   75.9710  222.3020 O   0  0  0  0  0  0  0  0  0  0  0  0
  140.0430   75.8520  220.9740 N   0  0  0  0  0  0  0  0  0  0  0  0
  141.3650   75.2780  220.8410 C   0  0  0  0  0  0  0  0  0  0  0  0
  142.0520   76.0070  219.7110 C   0  0  0  0  0  0  0  0  0  0  0  0
  140.9640   76.8540  219.1490 C   0  0  0  0  0  0  0  0  0  0  0  0
  140.1710   77.1960  220.3860 C   0  0  2  0  0  0  0  0  0  0  0  0
  140.8850   78.1320  221.2750 C   0  0  0  0  0  0  0  0  0  0  0  0
  141.0200   77.9050  222.6420 C   0  0  0  0  0  0  0  0  0  0  0  0
  141.6940   78.7930  223.4670 C   0  0  0  0  0  0  0  0  0  0  0  0
  142.2620   79.9470  222.9680 C   0  0  0  0  0  0  0  0  0  0  0  0
  142.9510   80.8570  223.8070 N   0  0  0  0  0  4  0  0  0  0  0  0
  142.3070   81.6480  224.5120 O   0  0  0  0  0  0  0  0  0  0  0  0
  144.3320   80.9070  223.8790 O   0  0  0  0  0  1  0  0  0  0  0  0
  142.1370   80.1860  221.6150 C   0  0  0  0  0  0  0  0  0  0  0  0
  141.4610   79.2910  220.7980 C   0  0  0  0  0  0  0  0  0  0  0  0
  139.8550   71.4240  223.8330 C   0  0  0  0  0  0  0  0  0  0  0  0
  139.3420   70.1440  223.7360 C   0  0  0  0  0  0  0  0  0  0  0  0
  139.4000   69.3210  224.8490 C   0  0  0  0  0  0  0  0  0  0  0  0
  139.9490   69.7330  226.0460 C   0  0  0  0  0  0  0  0  0  0  0  0
  140.0160   68.9300  227.1610 C   0  0  0  0  0  0  0  0  0  0  0  0
  140.5850   69.4350  228.3120 C   0  0  0  0  0  0  0  0  0  0  0  0
  141.0840   70.7260  228.3550 C   0  0  0  0  0  0  0  0  0  0  0  0
  141.0260   71.5440  227.2450 C   0  0  0  0  0  0  0  0  0  0  0  0
  140.4520   71.0320  226.0890 C   0  0  0  0  0  0  0  0  0  0  0  0
  140.3890   71.8230  225.0000 N   0  0  0  0  0  0  0  0  0  0  0  0
  137.7780   72.8320  223.0160 H   0  0  0  0  0  0  0  0  0  0  0  0
  139.2615   73.4831  220.4859 H   0  0  0  0  0  0  0  0  0  0  0  0
  137.5118   73.8538  220.8611 H   0  0  0  0  0  0  0  0  0  0  0  0
  141.9303   75.4112  221.7752 H   0  0  0  0  0  0  0  0  0  0  0  0
  141.3053   74.1995  220.6331 H   0  0  0  0  0  0  0  0  0  0  0  0
  142.8811   76.6254  220.0855 H   0  0  0  0  0  0  0  0  0  0  0  0
  142.5024   75.3311  218.9692 H   0  0  0  0  0  0  0  0  0  0  0  0
  141.3672   77.7578  218.6688 H   0  0  0  0  0  0  0  0  0  0  0  0
  140.3740   76.3590  218.3636 H   0  0  0  0  0  0  0  0  0  0  0  0
  139.2201   77.7163  220.1985 H   0  0  0  0  0  0  0  0  0  0  0  0
  140.5801   76.9967  223.0796 H   0  0  0  0  0  0  0  0  0  0  0  0
  141.7774   78.5726  224.5415 H   0  0  0  0  0  0  0  0  0  0  0  0
  142.5776   81.0950  221.1796 H   0  0  0  0  0  0  0  0  0  0  0  0
  141.3811   79.5154  219.7241 H   0  0  0  0  0  0  0  0  0  0  0  0
  138.8974   69.7866  222.7955 H   0  0  0  0  0  0  0  0  0  0  0  0
  138.9934   68.3015  224.7757 H   0  0  0  0  0  0  0  0  0  0  0  0
  139.6227   67.9030  227.1353 H   0  0  0  0  0  0  0  0  0  0  0  0
  140.6432   68.8020  229.2098 H   0  0  0  0  0  0  0  0  0  0  0  0
  141.5322   71.1043  229.2856 H   0  0  0  0  0  0  0  0  0  0  0  0
  141.4222   72.5697  227.2751 H   0  0  0  0  0  0  0  0  0  0  0  0
  1  2  2  0
  2  3  1  0
  3  4  1  0
  4  5  1  0
  5  6  2  0
  5  7  1  0
  7  8  1  0
  8  9  1  0
  9 10  1  0
 10 11  1  0
 11 12  1  0
 12 13  2  0
 13 14  1  0
 14 15  2  0
 15 16  1  0
 16 17  2  0
 16 18  1  0
 15 19  1  0
 19 20  2  0
  2 21  1  0
 21 22  2  0
 22 23  1  0
 23 24  2  0
 24 25  1  0
 25 26  2  0
 26 27  1  0
 27 28  2  0
 28 29  1  0
 29 30  2  0
 11  7  1  0
 20 12  1  0
 30 21  1  0
 29 24  1  0
  3 31  1  0
  4 32  1  0
  4 33  1  0
  8 34  1  0
  8 35  1  0
  9 36  1  0
  9 37  1  0
 10 38  1  0
 10 39  1  0
 11 40  1  6
 13 41  1  0
 14 42  1  0
 19 43  1  0
 20 44  1  0
 22 45  1  0
 23 46  1  0
 25 47  1  0
 26 48  1  0
 27 49  1  0
 28 50  1  0
M  CHG  2  16   1  18  -1
M  END
>  <smiles>  (20) 
O=C(NCC(=O)N1CCCC1c1ccc([N+](=O)[O-])cc1)c1ccc2ccccc2n1

>  <score_type>  (20) 
oracle

>  <origin>  (20) 
autodockgpu

>  <m_score__min__energy>  (20) 
-9.4299999999999997

>  <m_primary>  (20) 
energy

>  <rmsd>  (20) 
1.8221268657888183

>  <m_score__min__rmsd>  (20) 
1.8221268657888183

>  <meeko>  (20) 
{"free_energy": -9.22, "intermolecular_energy": -11.01, "internal_energy": -1.51, "cluster_size": 30, "cluster_id": 1, "rank_in_cluster": 5}

>  <energy>  (20) 
-8.78

>  <cluster_rmsd>  (20) 
1.93

>  <cluster>  (20) 
1

$$$$

     RDKit          3D

 50 53  0  0  0  0  0  0  0  0999 V2000
  138.5620   70.5430  221.7120 O   0  0  0  0  0  0  0  0  0  0  0  0
  139.0290   71.0380  222.7600 C   0  0  0  0  0  0  0  0  0  0  0  0
  139.2950   72.4340  222.8080 N   0  0  0  0  0  0  0  0  0  0  0  0
  139.0140   73.2200  221.6410 C   0  0  0  0  0  0  0  0  0  0  0  0
  139.8190   74.4410  221.5500 C   0  0  0  0  0  0  0  0  0  0  0  0
  141.0770   74.4320  221.5770 O   0  0  0  0  0  0  0  0  0  0  0  0
  139.1920   75.7090  221.4220 N   0  0  0  0  0  0  0  0  0  0  0  0
  138.9060   76.4380  220.2040 C   0  0  0  0  0  0  0  0  0  0  0  0
  137.7680   77.3820  220.5110 C   0  0  0  0  0  0  0  0  0  0  0  0
  137.3600   76.9780  221.8850 C   0  0  0  0  0  0  0  0  0  0  0  0
  138.6810   76.5800  222.4940 C   0  0  2  0  0  0  0  0  0  0  0  0
  139.5600   77.7370  222.7440 C   0  0  0  0  0  0  0  0  0  0  0  0
  139.0770   78.9480  223.2340 C   0  0  0  0  0  0  0  0  0  0  0  0
  139.9140   80.0290  223.4660 C   0  0  0  0  0  0  0  0  0  0  0  0
  141.2690   79.9530  223.2190 C   0  0  0  0  0  0  0  0  0  0  0  0
  142.1280   81.0560  223.4530 N   0  0  0  0  0  4  0  0  0  0  0  0
  141.8240   82.1740  223.0120 O   0  0  0  0  0  0  0  0  0  0  0  0
  143.3100   80.9420  224.1630 O   0  0  0  0  0  1  0  0  0  0  0  0
  141.7640   78.7610  222.7330 C   0  0  0  0  0  0  0  0  0  0  0  0
  140.9180   77.6850  222.5060 C   0  0  0  0  0  0  0  0  0  0  0  0
  139.3150   70.2240  223.9500 C   0  0  0  0  0  0  0  0  0  0  0  0
  138.9640   68.8860  223.9570 C   0  0  0  0  0  0  0  0  0  0  0  0
  139.2400   68.1350  225.0880 C   0  0  0  0  0  0  0  0  0  0  0  0
  139.8500   68.6720  226.2020 C   0  0  0  0  0  0  0  0  0  0  0  0
  140.1340   67.9410  227.3330 C   0  0  0  0  0  0  0  0  0  0  0  0
  140.7460   68.5710  228.3960 C   0  0  0  0  0  0  0  0  0  0  0  0
  141.0770   69.9140  228.3370 C   0  0  0  0  0  0  0  0  0  0  0  0
  140.8020   70.6620  227.2100 C   0  0  0  0  0  0  0  0  0  0  0  0
  140.1830   70.0240  226.1420 C   0  0  0  0  0  0  0  0  0  0  0  0
  139.9090   70.7440  225.0380 N   0  0  0  0  0  0  0  0  0  0  0  0
  139.6860   72.8240  223.6950 H   0  0  0  0  0  0  0  0  0  0  0  0
  139.2128   72.6049  220.7510 H   0  0  0  0  0  0  0  0  0  0  0  0
  137.9610   73.5313  221.7068 H   0  0  0  0  0  0  0  0  0  0  0  0
  139.7929   77.0061  219.8867 H   0  0  0  0  0  0  0  0  0  0  0  0
  138.6363   75.7501  219.3891 H   0  0  0  0  0  0  0  0  0  0  0  0
  138.1059   78.4286  220.4905 H   0  0  0  0  0  0  0  0  0  0  0  0
  136.9477   77.3246  219.7804 H   0  0  0  0  0  0  0  0  0  0  0  0
  136.9040   77.8173  222.4306 H   0  0  0  0  0  0  0  0  0  0  0  0
  136.6006   76.1825  221.9086 H   0  0  0  0  0  0  0  0  0  0  0  0
  138.6117   76.1088  223.4856 H   0  0  0  0  0  0  0  0  0  0  0  0
  138.0018   79.0497  223.4427 H   0  0  0  0  0  0  0  0  0  0  0  0
  139.4888   80.9660  223.8549 H   0  0  0  0  0  0  0  0  0  0  0  0
  142.8394   78.6625  222.5234 H   0  0  0  0  0  0  0  0  0  0  0  0
  141.3488   76.7496  222.1194 H   0  0  0  0  0  0  0  0  0  0  0  0
  138.4764   68.4283  223.0836 H   0  0  0  0  0  0  0  0  0  0  0  0
  138.9622   67.0707  225.0977 H   0  0  0  0  0  0  0  0  0  0  0  0
  139.8773   66.8728  227.3880 H   0  0  0  0  0  0  0  0  0  0  0  0
  140.9750   67.9970  229.3060 H   0  0  0  0  0  0  0  0  0  0  0  0
  141.5654   70.3911  229.1994 H   0  0  0  0  0  0  0  0  0  0  0  0
  141.0645   71.7290  227.1590 H   0  0  0  0  0  0  0  0  0  0  0  0
  1  2  2  0
  2  3  1  0
  3  4  1  0
  4  5  1  0
  5  6  2  0
  5  7  1  0
  7  8  1  0
  8  9  1  0
  9 10  1  0
 10 11  1  0
 11 12  1  0
 12 13  2  0
 13 14  1  0
 14 15  2  0
 15 16  1  0
 16 17  2  0
 16 18  1  0
 15 19  1  0
 19 20  2  0
  2 21  1  0
 21 22  2  0
 22 23  1  0
 23 24  2  0
 24 25  1  0
 25 26  2  0
 26 27  1  0
 27 28  2  0
 28 29  1  0
 29 30  2  0
 11  7  1  0
 20 12  1  0
 30 21  1  0
 29 24  1  0
  3 31  1  0
  4 32  1  0
  4 33  1  0
  8 34  1  0
  8 35  1  0
  9 36  1  0
  9 37  1  0
 10 38  1  0
 10 39  1  0
 11 40  1  1
 13 41  1  0
 14 42  1  0
 19 43  1  0
 20 44  1  0
 22 45  1  0
 23 46  1  0
 25 47  1  0
 26 48  1  0
 27 49  1  0
 28 50  1  0
M  CHG  2  16   1  18  -1
M  END
>  <smiles>  (21) 
O=C(NCC(=O)N1CCCC1c1ccc([N+](=O)[O-])cc1)c1ccc2ccccc2n1

>  <score_type>  (21) 
oracle

>  <origin>  (21) 
autodockgpu

>  <m_score__min__energy>  (21) 
-9.4299999999999997

>  <m_primary>  (21) 
energy

>  <rmsd>  (21) 
2.4216136365456045

>  <m_score__min__rmsd>  (21) 
2.4216136365456045

>  <meeko>  (21) 
{"free_energy": -8.65, "intermolecular_energy": -10.44, "internal_energy": -1.65, "cluster_size": 30, "cluster_id": 1, "rank_in_cluster": 25}

>  <energy>  (21) 
-8.71

>  <cluster_rmsd>  (21) 
0.82

>  <cluster>  (21) 
1

$$$$

     RDKit          3D

 50 53  0  0  0  0  0  0  0  0999 V2000
  140.8380   71.1790  221.4060 O   0  0  0  0  0  0  0  0  0  0  0  0
  140.2650   71.6510  222.4120 C   0  0  0  0  0  0  0  0  0  0  0  0
  139.7000   72.9530  222.3410 N   0  0  0  0  0  0  0  0  0  0  0  0
  139.8140   73.6770  221.1070 C   0  0  0  0  0  0  0  0  0  0  0  0
  140.7940   74.7660  221.1550 C   0  0  0  0  0  0  0  0  0  0  0  0
  140.7530   75.6810  222.0180 O   0  0  0  0  0  0  0  0  0  0  0  0
  141.8490   74.8280  220.2070 N   0  0  0  0  0  0  0  0  0  0  0  0
  141.7420   74.8780  218.7640 C   0  0  0  0  0  0  0  0  0  0  0  0
  143.0150   75.5060  218.2490 C   0  0  0  0  0  0  0  0  0  0  0  0
  143.7020   75.9420  219.4960 C   0  0  0  0  0  0  0  0  0  0  0  0
  143.2980   74.8580  220.4650 C   0  0  2  0  0  0  0  0  0  0  0  0
  143.9480   73.5670  220.1720 C   0  0  0  0  0  0  0  0  0  0  0  0
  145.3320   73.4320  220.0870 C   0  0  0  0  0  0  0  0  0  0  0  0
  145.9310   72.2120  219.8110 C   0  0  0  0  0  0  0  0  0  0  0  0
  145.1800   71.0730  219.6060 C   0  0  0  0  0  0  0  0  0  0  0  0
  145.7880   69.8250  219.3240 N   0  0  0  0  0  4  0  0  0  0  0  0
  146.6970   69.7630  218.4830 O   0  0  0  0  0  0  0  0  0  0  0  0
  145.4090   68.6520  219.9520 O   0  0  0  0  0  1  0  0  0  0  0  0
  143.8080   71.1910  219.6870 C   0  0  0  0  0  0  0  0  0  0  0  0
  143.2180   72.4150  219.9640 C   0  0  0  0  0  0  0  0  0  0  0  0
  140.1550   70.9010  223.6720 C   0  0  0  0  0  0  0  0  0  0  0  0
  139.5400   69.6620  223.6730 C   0  0  0  0  0  0  0  0  0  0  0  0
  139.4450   68.9710  224.8690 C   0  0  0  0  0  0  0  0  0  0  0  0
  139.9400   69.4730  226.0550 C   0  0  0  0  0  0  0  0  0  0  0  0
  139.8550   68.8000  227.2530 C   0  0  0  0  0  0  0  0  0  0  0  0
  140.3810   69.3880  228.3850 C   0  0  0  0  0  0  0  0  0  0  0  0
  140.9880   70.6310  228.3280 C   0  0  0  0  0  0  0  0  0  0  0  0
  141.0820   71.3190  227.1350 C   0  0  0  0  0  0  0  0  0  0  0  0
  140.5500   70.7240  225.9980 C   0  0  0  0  0  0  0  0  0  0  0  0
  140.6360   71.3870  224.8290 N   0  0  0  0  0  0  0  0  0  0  0  0
  139.2270   73.3250  223.1950 H   0  0  0  0  0  0  0  0  0  0  0  0
  140.1146   72.9730  220.3170 H   0  0  0  0  0  0  0  0  0  0  0  0
  138.8331   74.1337  220.9086 H   0  0  0  0  0  0  0  0  0  0  0  0
  141.6308   73.8618  218.3579 H   0  0  0  0  0  0  0  0  0  0  0  0
  140.8628   75.4626  218.4554 H   0  0  0  0  0  0  0  0  0  0  0  0
  143.6228   74.7729  217.6984 H   0  0  0  0  0  0  0  0  0  0  0  0
  142.8367   76.3295  217.5418 H   0  0  0  0  0  0  0  0  0  0  0  0
  144.7934   75.9734  219.3622 H   0  0  0  0  0  0  0  0  0  0  0  0
  143.4304   76.9565  219.8233 H   0  0  0  0  0  0  0  0  0  0  0  0
  143.5822   75.0408  221.5118 H   0  0  0  0  0  0  0  0  0  0  0  0
  145.9667   74.3168  220.2430 H   0  0  0  0  0  0  0  0  0  0  0  0
  147.0279   72.1512  219.7544 H   0  0  0  0  0  0  0  0  0  0  0  0
  143.1753   70.3049  219.5302 H   0  0  0  0  0  0  0  0  0  0  0  0
  142.1208   72.4697  220.0203 H   0  0  0  0  0  0  0  0  0  0  0  0
  139.1351   69.2349  222.7437 H   0  0  0  0  0  0  0  0  0  0  0  0
  138.9568   67.9853  224.8738 H   0  0  0  0  0  0  0  0  0  0  0  0
  139.3763   67.8111  227.3068 H   0  0  0  0  0  0  0  0  0  0  0  0
  140.3170   68.8607  229.3482 H   0  0  0  0  0  0  0  0  0  0  0  0
  141.4008   71.0761  229.2453 H   0  0  0  0  0  0  0  0  0  0  0  0
  141.5629   72.3071  227.0862 H   0  0  0  0  0  0  0  0  0  0  0  0
  1  2  2  0
  2  3  1  0
  3  4  1  0
  4  5  1  0
  5  6  2  0
  5  7  1  0
  7  8  1  0
  8  9  1  0
  9 10  1  0
 10 11  1  0
 11 12  1  0
 12 13  2  0
 13 14  1  0
 14 15  2  0
 15 16  1  0
 16 17  2  0
 16 18  1  0
 15 19  1  0
 19 20  2  0
  2 21  1  0
 21 22  2  0
 22 23  1  0
 23 24  2  0
 24 25  1  0
 25 26  2  0
 26 27  1  0
 27 28  2  0
 28 29  1  0
 29 30  2  0
 11  7  1  0
 20 12  1  0
 30 21  1  0
 29 24  1  0
  3 31  1  0
  4 32  1  0
  4 33  1  0
  8 34  1  0
  8 35  1  0
  9 36  1  0
  9 37  1  0
 10 38  1  0
 10 39  1  0
 11 40  1  1
 13 41  1  0
 14 42  1  0
 19 43  1  0
 20 44  1  0
 22 45  1  0
 23 46  1  0
 25 47  1  0
 26 48  1  0
 27 49  1  0
 28 50  1  0
M  CHG  2  16   1  18  -1
M  END
>  <smiles>  (22) 
O=C(NCC(=O)N1CCCC1c1ccc([N+](=O)[O-])cc1)c1ccc2ccccc2n1

>  <score_type>  (22) 
oracle

>  <origin>  (22) 
autodockgpu

>  <m_score__min__energy>  (22) 
-9.4299999999999997

>  <m_primary>  (22) 
energy

>  <rmsd>  (22) 
2.1195692059999023

>  <m_score__min__rmsd>  (22) 
2.1195692059999023

>  <meeko>  (22) 
{"free_energy": -9.22, "intermolecular_energy": -11.01, "internal_energy": -1.73, "cluster_size": 17, "cluster_id": 2, "rank_in_cluster": 2}

>  <energy>  (22) 
-8.7

>  <cluster_rmsd>  (22) 
0.84

>  <cluster>  (22) 
1

$$$$

     RDKit          3D

 50 53  0  0  0  0  0  0  0  0999 V2000
  139.2700   70.8600  221.4900 O   0  0  0  0  0  0  0  0  0  0  0  0
  139.5170   71.3870  222.5960 C   0  0  0  0  0  0  0  0  0  0  0  0
  139.6610   72.7990  222.6750 N   0  0  0  0  0  0  0  0  0  0  0  0
  139.5170   73.5650  221.4700 C   0  0  0  0  0  0  0  0  0  0  0  0
  139.4810   75.0120  221.6960 C   0  0  0  0  0  0  0  0  0  0  0  0
  138.7070   75.5530  222.5280 O   0  0  0  0  0  0  0  0  0  0  0  0
  140.3400   75.8770  220.9680 N   0  0  0  0  0  0  0  0  0  0  0  0
  141.6470   75.5750  220.4240 C   0  0  0  0  0  0  0  0  0  0  0  0
  141.8900   76.5440  219.2920 C   0  0  0  0  0  0  0  0  0  0  0  0
  140.5780   77.2370  219.1580 C   0  0  0  0  0  0  0  0  0  0  0  0
  140.1060   77.2800  220.5900 C   0  0  2  0  0  0  0  0  0  0  0  0
  140.8870   78.2220  221.4140 C   0  0  0  0  0  0  0  0  0  0  0  0
  141.4390   79.3880  220.8910 C   0  0  0  0  0  0  0  0  0  0  0  0
  142.1720   80.2660  221.6770 C   0  0  0  0  0  0  0  0  0  0  0  0
  142.3870   80.0210  223.0170 C   0  0  0  0  0  0  0  0  0  0  0  0
  143.1350   80.9140  223.8240 N   0  0  0  0  0  4  0  0  0  0  0  0
  142.5420   81.7290  224.5460 O   0  0  0  0  0  0  0  0  0  0  0  0
  144.5180   80.9200  223.8460 O   0  0  0  0  0  1  0  0  0  0  0  0
  141.8460   78.8690  223.5510 C   0  0  0  0  0  0  0  0  0  0  0  0
  141.1150   77.9980  222.7560 C   0  0  0  0  0  0  0  0  0  0  0  0
  139.6650   70.5930  223.8250 C   0  0  0  0  0  0  0  0  0  0  0  0
  139.2260   69.2820  223.8420 C   0  0  0  0  0  0  0  0  0  0  0  0
  139.3720   68.5490  225.0090 C   0  0  0  0  0  0  0  0  0  0  0  0
  139.9380   69.0800  226.1500 C   0  0  0  0  0  0  0  0  0  0  0  0
  140.0930   68.3680  227.3170 C   0  0  0  0  0  0  0  0  0  0  0  0
  140.6710   68.9900  228.4040 C   0  0  0  0  0  0  0  0  0  0  0  0
  141.0940   70.3060  228.3330 C   0  0  0  0  0  0  0  0  0  0  0  0
  140.9480   71.0350  227.1700 C   0  0  0  0  0  0  0  0  0  0  0  0
  140.3640   70.4060  226.0780 C   0  0  0  0  0  0  0  0  0  0  0  0
  140.2160   71.1080  224.9380 N   0  0  0  0  0  0  0  0  0  0  0  0
  139.8680   73.2150  223.6110 H   0  0  0  0  0  0  0  0  0  0  0  0
  140.3665   73.3372  220.8094 H   0  0  0  0  0  0  0  0  0  0  0  0
  138.5522   73.2842  221.0225 H   0  0  0  0  0  0  0  0  0  0  0  0
  142.4169   75.6999  221.1997 H   0  0  0  0  0  0  0  0  0  0  0  0
  141.6924   74.5356  220.0669 H   0  0  0  0  0  0  0  0  0  0  0  0
  142.6893   77.2559  219.5455 H   0  0  0  0  0  0  0  0  0  0  0  0
  142.2184   76.0534  218.3638 H   0  0  0  0  0  0  0  0  0  0  0  0
  140.6998   78.2495  218.7456 H   0  0  0  0  0  0  0  0  0  0  0  0
  139.8777   76.7377  218.4723 H   0  0  0  0  0  0  0  0  0  0  0  0
  139.0737   77.6339  220.7281 H   0  0  0  0  0  0  0  0  0  0  0  0
  141.2902   79.6197  219.8260 H   0  0  0  0  0  0  0  0  0  0  0  0
  142.5901   81.1760  221.2219 H   0  0  0  0  0  0  0  0  0  0  0  0
  141.9957   78.6394  224.6163 H   0  0  0  0  0  0  0  0  0  0  0  0
  140.6992   77.0893  223.2158 H   0  0  0  0  0  0  0  0  0  0  0  0
  138.7706   68.8305  222.9483 H   0  0  0  0  0  0  0  0  0  0  0  0
  139.0239   67.5057  225.0264 H   0  0  0  0  0  0  0  0  0  0  0  0
  139.7618   67.3211  227.3820 H   0  0  0  0  0  0  0  0  0  0  0  0
  140.7979   68.4310  229.3428 H   0  0  0  0  0  0  0  0  0  0  0  0
  141.5525   70.7771  229.2149 H   0  0  0  0  0  0  0  0  0  0  0  0
  141.2835   72.0809  227.1099 H   0  0  0  0  0  0  0  0  0  0  0  0
  1  2  2  0
  2  3  1  0
  3  4  1  0
  4  5  1  0
  5  6  2  0
  5  7  1  0
  7  8  1  0
  8  9  1  0
  9 10  1  0
 10 11  1  0
 11 12  1  0
 12 13  2  0
 13 14  1  0
 14 15  2  0
 15 16  1  0
 16 17  2  0
 16 18  1  0
 15 19  1  0
 19 20  2  0
  2 21  1  0
 21 22  2  0
 22 23  1  0
 23 24  2  0
 24 25  1  0
 25 26  2  0
 26 27  1  0
 27 28  2  0
 28 29  1  0
 29 30  2  0
 11  7  1  0
 20 12  1  0
 30 21  1  0
 29 24  1  0
  3 31  1  0
  4 32  1  0
  4 33  1  0
  8 34  1  0
  8 35  1  0
  9 36  1  0
  9 37  1  0
 10 38  1  0
 10 39  1  0
 11 40  1  6
 13 41  1  0
 14 42  1  0
 19 43  1  0
 20 44  1  0
 22 45  1  0
 23 46  1  0
 25 47  1  0
 26 48  1  0
 27 49  1  0
 28 50  1  0
M  CHG  2  16   1  18  -1
M  END
>  <smiles>  (23) 
O=C(NCC(=O)N1CCCC1c1ccc([N+](=O)[O-])cc1)c1ccc2ccccc2n1

>  <score_type>  (23) 
oracle

>  <origin>  (23) 
autodockgpu

>  <m_score__min__energy>  (23) 
-9.4299999999999997

>  <m_primary>  (23) 
energy

>  <rmsd>  (23) 
1.7396357181823117

>  <m_score__min__rmsd>  (23) 
1.7396357181823117

>  <meeko>  (23) 
{"free_energy": -9.07, "intermolecular_energy": -10.86, "internal_energy": -1.67, "cluster_size": 30, "cluster_id": 1, "rank_in_cluster": 13}

>  <energy>  (23) 
-8.67

>  <cluster_rmsd>  (23) 
1.93

>  <cluster>  (23) 
1

$$$$

     RDKit          3D

 50 53  0  0  0  0  0  0  0  0999 V2000
  140.6350   72.4280  221.9800 O   0  0  0  0  0  0  0  0  0  0  0  0
  139.6790   72.1900  222.7490 C   0  0  0  0  0  0  0  0  0  0  0  0
  138.4410   72.8560  222.5420 N   0  0  0  0  0  0  0  0  0  0  0  0
  138.3410   73.7830  221.4510 C   0  0  0  0  0  0  0  0  0  0  0  0
  139.1670   74.9810  221.6230 C   0  0  0  0  0  0  0  0  0  0  0  0
  139.2590   75.5950  222.7170 O   0  0  0  0  0  0  0  0  0  0  0  0
  139.9110   75.5050  220.5320 N   0  0  0  0  0  0  0  0  0  0  0  0
  139.5730   75.4580  219.1250 C   0  0  0  0  0  0  0  0  0  0  0  0
  140.3070   76.5950  218.4560 C   0  0  0  0  0  0  0  0  0  0  0  0
  140.8910   77.3400  219.6070 C   0  0  0  0  0  0  0  0  0  0  0  0
  141.1960   76.2210  220.5730 C   0  0  2  0  0  0  0  0  0  0  0  0
  142.3230   75.3800  220.1260 C   0  0  0  0  0  0  0  0  0  0  0  0
  142.7610   74.2750  220.8520 C   0  0  0  0  0  0  0  0  0  0  0  0
  143.8210   73.4920  220.4210 C   0  0  0  0  0  0  0  0  0  0  0  0
  144.4920   73.7740  219.2490 C   0  0  0  0  0  0  0  0  0  0  0  0
  145.5770   72.9770  218.8050 N   0  0  0  0  0  4  0  0  0  0  0  0
  145.9260   73.0260  217.6160 O   0  0  0  0  0  0  0  0  0  0  0  0
  146.2760   72.1320  219.6480 O   0  0  0  0  0  1  0  0  0  0  0  0
  144.0700   74.8660  218.5190 C   0  0  0  0  0  0  0  0  0  0  0  0
  143.0080   75.6430  218.9580 C   0  0  0  0  0  0  0  0  0  0  0  0
  139.7930   71.2400  223.8650 C   0  0  0  0  0  0  0  0  0  0  0  0
  139.3570   69.9380  223.6950 C   0  0  0  0  0  0  0  0  0  0  0  0
  139.4710   69.0570  224.7580 C   0  0  0  0  0  0  0  0  0  0  0  0
  140.0020   69.4310  225.9750 C   0  0  0  0  0  0  0  0  0  0  0  0
  140.1240   68.5700  227.0420 C   0  0  0  0  0  0  0  0  0  0  0  0
  140.6680   69.0420  228.2180 C   0  0  0  0  0  0  0  0  0  0  0  0
  141.0890   70.3560  228.3360 C   0  0  0  0  0  0  0  0  0  0  0  0
  140.9750   71.2320  227.2760 C   0  0  0  0  0  0  0  0  0  0  0  0
  140.4260   70.7540  226.0930 C   0  0  0  0  0  0  0  0  0  0  0  0
  140.3090   71.6010  225.0520 N   0  0  0  0  0  0  0  0  0  0  0  0
  137.6580   72.6400  223.1990 H   0  0  0  0  0  0  0  0  0  0  0  0
  138.6572   73.2717  220.5298 H   0  0  0  0  0  0  0  0  0  0  0  0
  137.2938   74.1165  221.4053 H   0  0  0  0  0  0  0  0  0  0  0  0
  139.8897   74.4975  218.6924 H   0  0  0  0  0  0  0  0  0  0  0  0
  138.4868   75.5524  218.9791 H   0  0  0  0  0  0  0  0  0  0  0  0
  141.0955   76.2180  217.7880 H   0  0  0  0  0  0  0  0  0  0  0  0
  139.6579   77.2165  217.8217 H   0  0  0  0  0  0  0  0  0  0  0  0
  141.8051   77.8774  219.3145 H   0  0  0  0  0  0  0  0  0  0  0  0
  140.2294   78.1167  220.0180 H   0  0  0  0  0  0  0  0  0  0  0  0
  141.5171   76.5459  221.5737 H   0  0  0  0  0  0  0  0  0  0  0  0
  142.2524   74.0166  221.7925 H   0  0  0  0  0  0  0  0  0  0  0  0
  144.1334   72.6281  221.0260 H   0  0  0  0  0  0  0  0  0  0  0  0
  144.5809   75.1231  217.5794 H   0  0  0  0  0  0  0  0  0  0  0  0
  142.6991   76.5053  218.3489 H   0  0  0  0  0  0  0  0  0  0  0  0
  138.9290   69.6095  222.7364 H   0  0  0  0  0  0  0  0  0  0  0  0
  139.1253   68.0210  224.6268 H   0  0  0  0  0  0  0  0  0  0  0  0
  139.7935   67.5242  226.9581 H   0  0  0  0  0  0  0  0  0  0  0  0
  140.7693   68.3629  229.0774 H   0  0  0  0  0  0  0  0  0  0  0  0
  141.5194   70.7056  229.2860 H   0  0  0  0  0  0  0  0  0  0  0  0
  141.3085   72.2764  227.3651 H   0  0  0  0  0  0  0  0  0  0  0  0
  1  2  2  0
  2  3  1  0
  3  4  1  0
  4  5  1  0
  5  6  2  0
  5  7  1  0
  7  8  1  0
  8  9  1  0
  9 10  1  0
 10 11  1  0
 11 12  1  0
 12 13  2  0
 13 14  1  0
 14 15  2  0
 15 16  1  0
 16 17  2  0
 16 18  1  0
 15 19  1  0
 19 20  2  0
  2 21  1  0
 21 22  2  0
 22 23  1  0
 23 24  2  0
 24 25  1  0
 25 26  2  0
 26 27  1  0
 27 28  2  0
 28 29  1  0
 29 30  2  0
 11  7  1  0
 20 12  1  0
 30 21  1  0
 29 24  1  0
  3 31  1  0
  4 32  1  0
  4 33  1  0
  8 34  1  0
  8 35  1  0
  9 36  1  0
  9 37  1  0
 10 38  1  0
 10 39  1  0
 11 40  1  1
 13 41  1  0
 14 42  1  0
 19 43  1  0
 20 44  1  0
 22 45  1  0
 23 46  1  0
 25 47  1  0
 26 48  1  0
 27 49  1  0
 28 50  1  0
M  CHG  2  16   1  18  -1
M  END
>  <smiles>  (24) 
O=C(NCC(=O)N1CCCC1c1ccc([N+](=O)[O-])cc1)c1ccc2ccccc2n1

>  <score_type>  (24) 
oracle

>  <origin>  (24) 
autodockgpu

>  <m_score__min__energy>  (24) 
-9.4299999999999997

>  <m_primary>  (24) 
energy

>  <rmsd>  (24) 
1.2041251442865657

>  <m_score__min__rmsd>  (24) 
1.2041251442865657

>  <meeko>  (24) 
{"free_energy": -8.6, "intermolecular_energy": -10.39, "internal_energy": -1.43, "cluster_size": 17, "cluster_id": 2, "rank_in_cluster": 15}

>  <energy>  (24) 
-8.66

>  <cluster_rmsd>  (24) 
1.96

>  <cluster>  (24) 
1

$$$$

     RDKit          3D

 50 53  0  0  0  0  0  0  0  0999 V2000
  139.1810   71.0650  221.3440 O   0  0  0  0  0  0  0  0  0  0  0  0
  139.4030   71.7430  222.3700 C   0  0  0  0  0  0  0  0  0  0  0  0
  139.3760   73.1610  222.2840 N   0  0  0  0  0  0  0  0  0  0  0  0
  139.0930   73.7590  221.0110 C   0  0  0  0  0  0  0  0  0  0  0  0
  140.1740   73.5990  220.0340 C   0  0  0  0  0  0  0  0  0  0  0  0
  140.1270   72.7620  219.0960 O   0  0  0  0  0  0  0  0  0  0  0  0
  141.3420   74.4040  220.1150 N   0  0  0  0  0  0  0  0  0  0  0  0
  142.5850   74.0970  220.7900 C   0  0  0  0  0  0  0  0  0  0  0  0
  143.6610   74.9260  220.1320 C   0  0  0  0  0  0  0  0  0  0  0  0
  142.9530   75.5350  218.9710 C   0  0  0  0  0  0  0  0  0  0  0  0
  141.5660   75.7360  219.5300 C   0  0  2  0  0  0  0  0  0  0  0  0
  141.5140   76.8090  220.5400 C   0  0  0  0  0  0  0  0  0  0  0  0
  141.9510   78.1050  220.2740 C   0  0  0  0  0  0  0  0  0  0  0  0
  141.8960   79.1060  221.2330 C   0  0  0  0  0  0  0  0  0  0  0  0
  141.4050   78.8610  222.4990 C   0  0  0  0  0  0  0  0  0  0  0  0
  141.3480   79.8800  223.4820 N   0  0  0  0  0  4  0  0  0  0  0  0
  142.3890   80.2460  224.0460 O   0  0  0  0  0  0  0  0  0  0  0  0
  140.1650   80.4980  223.8480 O   0  0  0  0  0  1  0  0  0  0  0  0
  140.9680   77.5820  222.7780 C   0  0  0  0  0  0  0  0  0  0  0  0
  141.0260   76.5890  221.8120 C   0  0  0  0  0  0  0  0  0  0  0  0
  139.6940   71.1200  223.6700 C   0  0  0  0  0  0  0  0  0  0  0  0
  139.4200   69.7770  223.8550 C   0  0  0  0  0  0  0  0  0  0  0  0
  139.7000   69.2070  225.0870 C   0  0  0  0  0  0  0  0  0  0  0  0
  140.2400   69.9300  226.1310 C   0  0  0  0  0  0  0  0  0  0  0  0
  140.5250   69.3820  227.3600 C   0  0  0  0  0  0  0  0  0  0  0  0
  141.0640   70.1890  228.3400 C   0  0  0  0  0  0  0  0  0  0  0  0
  141.3200   71.5290  228.1020 C   0  0  0  0  0  0  0  0  0  0  0  0
  141.0400   72.0950  226.8740 C   0  0  0  0  0  0  0  0  0  0  0  0
  140.4970   71.2790  225.8900 C   0  0  0  0  0  0  0  0  0  0  0  0
  140.2200   71.8210  224.6890 N   0  0  0  0  0  0  0  0  0  0  0  0
  139.5660   73.7050  223.1560 H   0  0  0  0  0  0  0  0  0  0  0  0
  138.1837   73.2938  220.6028 H   0  0  0  0  0  0  0  0  0  0  0  0
  138.9701   74.8386  221.1820 H   0  0  0  0  0  0  0  0  0  0  0  0
  142.5092   74.3544  221.8568 H   0  0  0  0  0  0  0  0  0  0  0  0
  142.8166   73.0241  220.7173 H   0  0  0  0  0  0  0  0  0  0  0  0
  144.0369   75.7008  220.8164 H   0  0  0  0  0  0  0  0  0  0  0  0
  144.5438   74.3378  219.8411 H   0  0  0  0  0  0  0  0  0  0  0  0
  143.4104   76.4919  218.6794 H   0  0  0  0  0  0  0  0  0  0  0  0
  142.9822   74.9217  218.0583 H   0  0  0  0  0  0  0  0  0  0  0  0
  140.8116   76.0560  218.7961 H   0  0  0  0  0  0  0  0  0  0  0  0
  142.3504   78.3409  219.2766 H   0  0  0  0  0  0  0  0  0  0  0  0
  142.2511   80.1156  220.9789 H   0  0  0  0  0  0  0  0  0  0  0  0
  140.5698   77.3481  223.7764 H   0  0  0  0  0  0  0  0  0  0  0  0
  140.6674   75.5818  222.0708 H   0  0  0  0  0  0  0  0  0  0  0  0
  138.9892   69.1743  223.0419 H   0  0  0  0  0  0  0  0  0  0  0  0
  139.4838   68.1391  225.2381 H   0  0  0  0  0  0  0  0  0  0  0  0
  140.3264   68.3183  227.5579 H   0  0  0  0  0  0  0  0  0  0  0  0
  141.2943   69.7612  229.3269 H   0  0  0  0  0  0  0  0  0  0  0  0
  141.7516   72.1500  228.9008 H   0  0  0  0  0  0  0  0  0  0  0  0
  141.2408   73.1592  226.6811 H   0  0  0  0  0  0  0  0  0  0  0  0
  1  2  2  0
  2  3  1  0
  3  4  1  0
  4  5  1  0
  5  6  2  0
  5  7  1  0
  7  8  1  0
  8  9  1  0
  9 10  1  0
 10 11  1  0
 11 12  1  0
 12 13  2  0
 13 14  1  0
 14 15  2  0
 15 16  1  0
 16 17  2  0
 16 18  1  0
 15 19  1  0
 19 20  2  0
  2 21  1  0
 21 22  2  0
 22 23  1  0
 23 24  2  0
 24 25  1  0
 25 26  2  0
 26 27  1  0
 27 28  2  0
 28 29  1  0
 29 30  2  0
 11  7  1  0
 20 12  1  0
 30 21  1  0
 29 24  1  0
  3 31  1  0
  4 32  1  0
  4 33  1  0
  8 34  1  0
  8 35  1  0
  9 36  1  0
  9 37  1  0
 10 38  1  0
 10 39  1  0
 11 40  1  6
 13 41  1  0
 14 42  1  0
 19 43  1  0
 20 44  1  0
 22 45  1  0
 23 46  1  0
 25 47  1  0
 26 48  1  0
 27 49  1  0
 28 50  1  0
M  CHG  2  16   1  18  -1
M  END
>  <smiles>  (25) 
O=C(NCC(=O)N1CCCC1c1ccc([N+](=O)[O-])cc1)c1ccc2ccccc2n1

>  <score_type>  (25) 
oracle

>  <origin>  (25) 
autodockgpu

>  <m_score__min__energy>  (25) 
-9.4299999999999997

>  <m_primary>  (25) 
energy

>  <rmsd>  (25) 
2.3464807034145414

>  <m_score__min__rmsd>  (25) 
2.3464807034145414

>  <meeko>  (25) 
{"free_energy": -8.48, "intermolecular_energy": -10.27, "internal_energy": -1.76, "cluster_size": 30, "cluster_id": 1, "rank_in_cluster": 29}

>  <energy>  (25) 
-8.65

>  <cluster_rmsd>  (25) 
0.78

>  <cluster>  (25) 
1

$$$$

     RDKit          3D

 50 53  0  0  0  0  0  0  0  0999 V2000
  138.7650   71.2960  221.7980 O   0  0  0  0  0  0  0  0  0  0  0  0
  139.6790   71.3870  222.6460 C   0  0  0  0  0  0  0  0  0  0  0  0
  140.7230   72.3290  222.4420 N   0  0  0  0  0  0  0  0  0  0  0  0
  140.6840   73.1410  221.2590 C   0  0  0  0  0  0  0  0  0  0  0  0
  140.2750   74.5250  221.5120 C   0  0  0  0  0  0  0  0  0  0  0  0
  139.4160   74.8350  222.3770 O   0  0  0  0  0  0  0  0  0  0  0  0
  140.8490   75.5920  220.7710 N   0  0  0  0  0  0  0  0  0  0  0  0
  142.1060   75.5970  220.0530 C   0  0  0  0  0  0  0  0  0  0  0  0
  142.0060   76.6700  218.9950 C   0  0  0  0  0  0  0  0  0  0  0  0
  140.5800   77.0910  219.0790 C   0  0  0  0  0  0  0  0  0  0  0  0
  140.3020   76.9420  220.5540 C   0  0  2  0  0  0  0  0  0  0  0  0
  140.9900   77.9640  221.3650 C   0  0  0  0  0  0  0  0  0  0  0  0
  141.4650   79.1530  220.8180 C   0  0  0  0  0  0  0  0  0  0  0  0
  142.1100   80.1070  221.5920 C   0  0  0  0  0  0  0  0  0  0  0  0
  142.3120   79.9180  222.9440 C   0  0  0  0  0  0  0  0  0  0  0  0
  142.9710   80.8880  223.7380 N   0  0  0  0  0  4  0  0  0  0  0  0
  144.2090   80.8790  223.8150 O   0  0  0  0  0  0  0  0  0  0  0  0
  142.2890   81.8630  224.4440 O   0  0  0  0  0  1  0  0  0  0  0  0
  141.8470   78.7440  223.5010 C   0  0  0  0  0  0  0  0  0  0  0  0
  141.2030   77.7970  222.7180 C   0  0  0  0  0  0  0  0  0  0  0  0
  139.7100   70.5490  223.8540 C   0  0  0  0  0  0  0  0  0  0  0  0
  139.0940   69.3110  223.8370 C   0  0  0  0  0  0  0  0  0  0  0  0
  139.1330   68.5360  224.9850 C   0  0  0  0  0  0  0  0  0  0  0  0
  139.7620   68.9550  226.1400 C   0  0  0  0  0  0  0  0  0  0  0  0
  139.8120   68.1990  227.2890 C   0  0  0  0  0  0  0  0  0  0  0  0
  140.4650   68.7080  228.3920 C   0  0  0  0  0  0  0  0  0  0  0  0
  141.0650   69.9550  228.3550 C   0  0  0  0  0  0  0  0  0  0  0  0
  141.0260   70.7260  227.2110 C   0  0  0  0  0  0  0  0  0  0  0  0
  140.3660   70.2110  226.1020 C   0  0  0  0  0  0  0  0  0  0  0  0
  140.3210   70.9550  224.9800 N   0  0  0  0  0  0  0  0  0  0  0  0
  141.4750   72.3860  223.1650 H   0  0  0  0  0  0  0  0  0  0  0  0
  141.6885   73.1514  220.8108 H   0  0  0  0  0  0  0  0  0  0  0  0
  139.9320   72.6993  220.5886 H   0  0  0  0  0  0  0  0  0  0  0  0
  142.9336   75.8217  220.7419 H   0  0  0  0  0  0  0  0  0  0  0  0
  142.3023   74.6147  219.5985 H   0  0  0  0  0  0  0  0  0  0  0  0
  142.6801   77.5100  219.2187 H   0  0  0  0  0  0  0  0  0  0  0  0
  142.2964   76.3198  217.9935 H   0  0  0  0  0  0  0  0  0  0  0  0
  140.4496   78.1325  218.7498 H   0  0  0  0  0  0  0  0  0  0  0  0
  139.9041   76.5074  218.4366 H   0  0  0  0  0  0  0  0  0  0  0  0
  139.2486   77.0708  220.8433 H   0  0  0  0  0  0  0  0  0  0  0  0
  141.3251   79.3411  219.7433 H   0  0  0  0  0  0  0  0  0  0  0  0
  142.4677   81.0330  221.1182 H   0  0  0  0  0  0  0  0  0  0  0  0
  141.9883   78.5574  224.5758 H   0  0  0  0  0  0  0  0  0  0  0  0
  140.8467   76.8729  223.1966 H   0  0  0  0  0  0  0  0  0  0  0  0
  138.5841   68.9494  222.9319 H   0  0  0  0  0  0  0  0  0  0  0  0
  138.6446   67.5504  224.9755 H   0  0  0  0  0  0  0  0  0  0  0  0
  139.3395   67.2064  227.3269 H   0  0  0  0  0  0  0  0  0  0  0  0
  140.5098   68.1133  229.3163 H   0  0  0  0  0  0  0  0  0  0  0  0
  141.5797   70.3364  229.2492 H   0  0  0  0  0  0  0  0  0  0  0  0
  141.5024   71.7169  227.1782 H   0  0  0  0  0  0  0  0  0  0  0  0
  1  2  2  0
  2  3  1  0
  3  4  1  0
  4  5  1  0
  5  6  2  0
  5  7  1  0
  7  8  1  0
  8  9  1  0
  9 10  1  0
 10 11  1  0
 11 12  1  0
 12 13  2  0
 13 14  1  0
 14 15  2  0
 15 16  1  0
 16 17  2  0
 16 18  1  0
 15 19  1  0
 19 20  2  0
  2 21  1  0
 21 22  2  0
 22 23  1  0
 23 24  2  0
 24 25  1  0
 25 26  2  0
 26 27  1  0
 27 28  2  0
 28 29  1  0
 29 30  2  0
 11  7  1  0
 20 12  1  0
 30 21  1  0
 29 24  1  0
  3 31  1  0
  4 32  1  0
  4 33  1  0
  8 34  1  0
  8 35  1  0
  9 36  1  0
  9 37  1  0
 10 38  1  0
 10 39  1  0
 11 40  1  6
 13 41  1  0
 14 42  1  0
 19 43  1  0
 20 44  1  0
 22 45  1  0
 23 46  1  0
 25 47  1  0
 26 48  1  0
 27 49  1  0
 28 50  1  0
M  CHG  2  16   1  18  -1
M  END
>  <smiles>  (26) 
O=C(NCC(=O)N1CCCC1c1ccc([N+](=O)[O-])cc1)c1ccc2ccccc2n1

>  <score_type>  (26) 
oracle

>  <origin>  (26) 
autodockgpu

>  <m_score__min__energy>  (26) 
-9.4299999999999997

>  <m_primary>  (26) 
energy

>  <rmsd>  (26) 
1.960831176437366

>  <m_score__min__rmsd>  (26) 
1.960831176437366

>  <meeko>  (26) 
{"free_energy": -9.1, "intermolecular_energy": -10.89, "internal_energy": -1.55, "cluster_size": 30, "cluster_id": 1, "rank_in_cluster": 12}

>  <energy>  (26) 
-8.64

>  <cluster_rmsd>  (26) 
0.85

>  <cluster>  (26) 
1

$$$$

     RDKit          3D

 50 53  0  0  0  0  0  0  0  0999 V2000
  141.0440   72.4370  222.0770 O   0  0  0  0  0  0  0  0  0  0  0  0
  140.0020   72.1910  222.7220 C   0  0  0  0  0  0  0  0  0  0  0  0
  138.8000   72.8680  222.3810 N   0  0  0  0  0  0  0  0  0  0  0  0
  138.8350   73.8150  221.3040 C   0  0  0  0  0  0  0  0  0  0  0  0
  139.2070   75.1690  221.7250 C   0  0  0  0  0  0  0  0  0  0  0  0
  138.6740   75.7490  222.7050 O   0  0  0  0  0  0  0  0  0  0  0  0
  140.2090   75.8900  221.0230 N   0  0  0  0  0  0  0  0  0  0  0  0
  141.5320   75.4350  220.6500 C   0  0  0  0  0  0  0  0  0  0  0  0
  141.9720   76.2740  219.4740 C   0  0  0  0  0  0  0  0  0  0  0  0
  140.7480   77.0560  219.1440 C   0  0  0  0  0  0  0  0  0  0  0  0
  140.1420   77.2680  220.5090 C   0  0  2  0  0  0  0  0  0  0  0  0
  140.9180   78.2140  221.3320 C   0  0  0  0  0  0  0  0  0  0  0  0
  141.4600   79.3850  220.8080 C   0  0  0  0  0  0  0  0  0  0  0  0
  142.1880   80.2680  221.5930 C   0  0  0  0  0  0  0  0  0  0  0  0
  142.4100   80.0220  222.9320 C   0  0  0  0  0  0  0  0  0  0  0  0
  143.1540   80.9200  223.7380 N   0  0  0  0  0  4  0  0  0  0  0  0
  142.5610   81.7900  224.3930 O   0  0  0  0  0  0  0  0  0  0  0  0
  144.5330   80.8710  223.8310 O   0  0  0  0  0  1  0  0  0  0  0  0
  141.8800   78.8650  223.4660 C   0  0  0  0  0  0  0  0  0  0  0  0
  141.1520   77.9900  222.6730 C   0  0  0  0  0  0  0  0  0  0  0  0
  139.9770   71.2200  223.8260 C   0  0  0  0  0  0  0  0  0  0  0  0
  139.3860   69.9840  223.6290 C   0  0  0  0  0  0  0  0  0  0  0  0
  139.3720   69.0830  224.6810 C   0  0  0  0  0  0  0  0  0  0  0  0
  139.9240   69.3720  225.9120 C   0  0  0  0  0  0  0  0  0  0  0  0
  139.9200   68.4890  226.9670 C   0  0  0  0  0  0  0  0  0  0  0  0
  140.4980   68.8740  228.1590 C   0  0  0  0  0  0  0  0  0  0  0  0
  141.0770   70.1240  228.3020 C   0  0  0  0  0  0  0  0  0  0  0  0
  141.0910   71.0220  227.2540 C   0  0  0  0  0  0  0  0  0  0  0  0
  140.5070   70.6310  226.0550 C   0  0  0  0  0  0  0  0  0  0  0  0
  140.5140   71.4990  225.0260 N   0  0  0  0  0  0  0  0  0  0  0  0
  137.9420   72.6450  222.9360 H   0  0  0  0  0  0  0  0  0  0  0  0
  139.5674   73.4686  220.5600 H   0  0  0  0  0  0  0  0  0  0  0  0
  137.8165   73.8735  220.8926 H   0  0  0  0  0  0  0  0  0  0  0  0
  142.2284   75.5684  221.4909 H   0  0  0  0  0  0  0  0  0  0  0  0
  141.5204   74.3668  220.3877 H   0  0  0  0  0  0  0  0  0  0  0  0
  142.8031   76.9389  219.7516 H   0  0  0  0  0  0  0  0  0  0  0  0
  142.3449   75.6755  218.6297 H   0  0  0  0  0  0  0  0  0  0  0  0
  141.0010   78.0132  218.6647 H   0  0  0  0  0  0  0  0  0  0  0  0
  140.0770   76.5546  218.4310 H   0  0  0  0  0  0  0  0  0  0  0  0
  139.1377   77.7167  220.5066 H   0  0  0  0  0  0  0  0  0  0  0  0
  141.3070   79.6162  219.7435 H   0  0  0  0  0  0  0  0  0  0  0  0
  142.5963   81.1826  221.1382 H   0  0  0  0  0  0  0  0  0  0  0  0
  142.0363   78.6345  224.5302 H   0  0  0  0  0  0  0  0  0  0  0  0
  140.7437   77.0782  223.1333 H   0  0  0  0  0  0  0  0  0  0  0  0
  138.9376   69.7231  222.6590 H   0  0  0  0  0  0  0  0  0  0  0  0
  138.9029   68.0997  224.5292 H   0  0  0  0  0  0  0  0  0  0  0  0
  139.4640   67.4935  226.8619 H   0  0  0  0  0  0  0  0  0  0  0  0
  140.4990   68.1768  229.0098 H   0  0  0  0  0  0  0  0  0  0  0  0
  141.5317   70.4048  229.2635 H   0  0  0  0  0  0  0  0  0  0  0  0
  141.5498   72.0156  227.3642 H   0  0  0  0  0  0  0  0  0  0  0  0
  1  2  2  0
  2  3  1  0
  3  4  1  0
  4  5  1  0
  5  6  2  0
  5  7  1  0
  7  8  1  0
  8  9  1  0
  9 10  1  0
 10 11  1  0
 11 12  1  0
 12 13  2  0
 13 14  1  0
 14 15  2  0
 15 16  1  0
 16 17  2  0
 16 18  1  0
 15 19  1  0
 19 20  2  0
  2 21  1  0
 21 22  2  0
 22 23  1  0
 23 24  2  0
 24 25  1  0
 25 26  2  0
 26 27  1  0
 27 28  2  0
 28 29  1  0
 29 30  2  0
 11  7  1  0
 20 12  1  0
 30 21  1  0
 29 24  1  0
  3 31  1  0
  4 32  1  0
  4 33  1  0
  8 34  1  0
  8 35  1  0
  9 36  1  0
  9 37  1  0
 10 38  1  0
 10 39  1  0
 11 40  1  6
 13 41  1  0
 14 42  1  0
 19 43  1  0
 20 44  1  0
 22 45  1  0
 23 46  1  0
 25 47  1  0
 26 48  1  0
 27 49  1  0
 28 50  1  0
M  CHG  2  16   1  18  -1
M  END
>  <smiles>  (27) 
O=C(NCC(=O)N1CCCC1c1ccc([N+](=O)[O-])cc1)c1ccc2ccccc2n1

>  <score_type>  (27) 
oracle

>  <origin>  (27) 
autodockgpu

>  <m_score__min__energy>  (27) 
-9.4299999999999997

>  <m_primary>  (27) 
energy

>  <rmsd>  (27) 
1.787001980541586

>  <m_score__min__rmsd>  (27) 
1.787001980541586

>  <meeko>  (27) 
{"free_energy": -9.24, "intermolecular_energy": -11.03, "internal_energy": -1.5, "cluster_size": 30, "cluster_id": 1, "rank_in_cluster": 4}

>  <energy>  (27) 
-8.62

>  <cluster_rmsd>  (27) 
1.9

>  <cluster>  (27) 
1

$$$$

     RDKit          3D

 50 53  0  0  0  0  0  0  0  0999 V2000
  138.8380   70.7600  221.5990 O   0  0  0  0  0  0  0  0  0  0  0  0
  139.2560   71.2480  222.6720 C   0  0  0  0  0  0  0  0  0  0  0  0
  139.5520   72.6360  222.7320 N   0  0  0  0  0  0  0  0  0  0  0  0
  139.3600   73.4250  221.5490 C   0  0  0  0  0  0  0  0  0  0  0  0
  140.0290   74.7280  221.5970 C   0  0  0  0  0  0  0  0  0  0  0  0
  141.2790   74.8500  221.6700 O   0  0  0  0  0  0  0  0  0  0  0  0
  139.2710   75.9280  221.5630 N   0  0  0  0  0  0  0  0  0  0  0  0
  138.7680   76.6250  220.3980 C   0  0  0  0  0  0  0  0  0  0  0  0
  137.5910   77.4540  220.8530 C   0  0  0  0  0  0  0  0  0  0  0  0
  137.3960   77.0130  222.2620 C   0  0  0  0  0  0  0  0  0  0  0  0
  138.8150   76.7450  222.6990 C   0  0  2  0  0  0  0  0  0  0  0  0
  139.6020   77.9830  222.8530 C   0  0  0  0  0  0  0  0  0  0  0  0
  140.9590   78.0470  222.5450 C   0  0  0  0  0  0  0  0  0  0  0  0
  141.6880   79.2170  222.6930 C   0  0  0  0  0  0  0  0  0  0  0  0
  141.0990   80.3760  223.1550 C   0  0  0  0  0  0  0  0  0  0  0  0
  141.8390   81.5740  223.3090 N   0  0  0  0  0  4  0  0  0  0  0  0
  141.8280   82.4220  222.4040 O   0  0  0  0  0  0  0  0  0  0  0  0
  142.5870   81.8490  224.4400 O   0  0  0  0  0  1  0  0  0  0  0  0
  139.7550   80.3300  223.4640 C   0  0  0  0  0  0  0  0  0  0  0  0
  139.0340   79.1540  223.3120 C   0  0  0  0  0  0  0  0  0  0  0  0
  139.4510   70.4300  223.8780 C   0  0  0  0  0  0  0  0  0  0  0  0
  139.0240   69.1150  223.8830 C   0  0  0  0  0  0  0  0  0  0  0  0
  139.2160   68.3610  225.0290 C   0  0  0  0  0  0  0  0  0  0  0  0
  139.8160   68.8740  226.1610 C   0  0  0  0  0  0  0  0  0  0  0  0
  140.0160   68.1400  227.3080 C   0  0  0  0  0  0  0  0  0  0  0  0
  140.6250   68.7450  228.3870 C   0  0  0  0  0  0  0  0  0  0  0  0
  141.0340   70.0660  228.3290 C   0  0  0  0  0  0  0  0  0  0  0  0
  140.8430   70.8170  227.1870 C   0  0  0  0  0  0  0  0  0  0  0  0
  140.2280   70.2040  226.1020 C   0  0  0  0  0  0  0  0  0  0  0  0
  140.0350   70.9270  224.9820 N   0  0  0  0  0  0  0  0  0  0  0  0
  139.9010   73.0200  223.6400 H   0  0  0  0  0  0  0  0  0  0  0  0
  139.7538   72.8635  220.6890 H   0  0  0  0  0  0  0  0  0  0  0  0
  138.2808   73.6198  221.4632 H   0  0  0  0  0  0  0  0  0  0  0  0
  139.5500   77.2764  219.9807 H   0  0  0  0  0  0  0  0  0  0  0  0
  138.4675   75.9137  219.6146 H   0  0  0  0  0  0  0  0  0  0  0  0
  137.8213   78.5285  220.8032 H   0  0  0  0  0  0  0  0  0  0  0  0
  136.6964   77.3168  220.2279 H   0  0  0  0  0  0  0  0  0  0  0  0
  136.9323   77.8045  222.8691 H   0  0  0  0  0  0  0  0  0  0  0  0
  136.7251   76.1480  222.3699 H   0  0  0  0  0  0  0  0  0  0  0  0
  138.9151   76.2690  223.6856 H   0  0  0  0  0  0  0  0  0  0  0  0
  141.4663   77.1442  222.1741 H   0  0  0  0  0  0  0  0  0  0  0  0
  142.7578   79.2213  222.4369 H   0  0  0  0  0  0  0  0  0  0  0  0
  139.2501   81.2343  223.8345 H   0  0  0  0  0  0  0  0  0  0  0  0
  137.9643   79.1553  223.5683 H   0  0  0  0  0  0  0  0  0  0  0  0
  138.5423   68.6771  222.9963 H   0  0  0  0  0  0  0  0  0  0  0  0
  138.8776   67.3144  225.0371 H   0  0  0  0  0  0  0  0  0  0  0  0
  139.6956   67.0891  227.3629 H   0  0  0  0  0  0  0  0  0  0  0  0
  140.7885   68.1682  229.3092 H   0  0  0  0  0  0  0  0  0  0  0  0
  141.5177   70.5233  229.2047 H   0  0  0  0  0  0  0  0  0  0  0  0
  141.1671   71.8670  227.1372 H   0  0  0  0  0  0  0  0  0  0  0  0
  1  2  2  0
  2  3  1  0
  3  4  1  0
  4  5  1  0
  5  6  2  0
  5  7  1  0
  7  8  1  0
  8  9  1  0
  9 10  1  0
 10 11  1  0
 11 12  1  0
 12 13  2  0
 13 14  1  0
 14 15  2  0
 15 16  1  0
 16 17  2  0
 16 18  1  0
 15 19  1  0
 19 20  2  0
  2 21  1  0
 21 22  2  0
 22 23  1  0
 23 24  2  0
 24 25  1  0
 25 26  2  0
 26 27  1  0
 27 28  2  0
 28 29  1  0
 29 30  2  0
 11  7  1  0
 20 12  1  0
 30 21  1  0
 29 24  1  0
  3 31  1  0
  4 32  1  0
  4 33  1  0
  8 34  1  0
  8 35  1  0
  9 36  1  0
  9 37  1  0
 10 38  1  0
 10 39  1  0
 11 40  1  1
 13 41  1  0
 14 42  1  0
 19 43  1  0
 20 44  1  0
 22 45  1  0
 23 46  1  0
 25 47  1  0
 26 48  1  0
 27 49  1  0
 28 50  1  0
M  CHG  2  16   1  18  -1
M  END
>  <smiles>  (28) 
O=C(NCC(=O)N1CCCC1c1ccc([N+](=O)[O-])cc1)c1ccc2ccccc2n1

>  <score_type>  (28) 
oracle

>  <origin>  (28) 
autodockgpu

>  <m_score__min__energy>  (28) 
-9.4299999999999997

>  <m_primary>  (28) 
energy

>  <rmsd>  (28) 
2.5315872912291097

>  <m_score__min__rmsd>  (28) 
2.5315872912291097

>  <meeko>  (28) 
{"free_energy": -8.7, "intermolecular_energy": -10.49, "internal_energy": -1.67, "cluster_size": 30, "cluster_id": 1, "rank_in_cluster": 22}

>  <energy>  (28) 
-8.61

>  <cluster_rmsd>  (28) 
1.94

>  <cluster>  (28) 
1

$$$$

     RDKit          3D

 50 53  0  0  0  0  0  0  0  0999 V2000
  140.4760   70.9740  221.3230 O   0  0  0  0  0  0  0  0  0  0  0  0
  140.1330   71.5290  222.3900 C   0  0  0  0  0  0  0  0  0  0  0  0
  139.7820   72.9060  222.3730 N   0  0  0  0  0  0  0  0  0  0  0  0
  139.8390   73.6070  221.1230 C   0  0  0  0  0  0  0  0  0  0  0  0
  140.7620   74.7450  221.1300 C   0  0  0  0  0  0  0  0  0  0  0  0
  140.6600   75.7010  221.9420 O   0  0  0  0  0  0  0  0  0  0  0  0
  141.8320   74.8100  220.1980 N   0  0  0  0  0  0  0  0  0  0  0  0
  141.7480   74.8700  218.7550 C   0  0  0  0  0  0  0  0  0  0  0  0
  143.0310   75.4970  218.2630 C   0  0  0  0  0  0  0  0  0  0  0  0
  143.7000   75.9220  219.5240 C   0  0  0  0  0  0  0  0  0  0  0  0
  143.2770   74.8330  220.4780 C   0  0  2  0  0  0  0  0  0  0  0  0
  143.9270   73.5420  220.1860 C   0  0  0  0  0  0  0  0  0  0  0  0
  145.3110   73.4040  220.1130 C   0  0  0  0  0  0  0  0  0  0  0  0
  145.9110   72.1840  219.8380 C   0  0  0  0  0  0  0  0  0  0  0  0
  145.1590   71.0470  219.6220 C   0  0  0  0  0  0  0  0  0  0  0  0
  145.7670   69.7990  219.3410 N   0  0  0  0  0  4  0  0  0  0  0  0
  146.6910   69.7390  218.5160 O   0  0  0  0  0  0  0  0  0  0  0  0
  145.3720   68.6220  219.9520 O   0  0  0  0  0  1  0  0  0  0  0  0
  143.7860   71.1670  219.6920 C   0  0  0  0  0  0  0  0  0  0  0  0
  143.1970   72.3920  219.9680 C   0  0  0  0  0  0  0  0  0  0  0  0
  140.0800   70.8010  223.6660 C   0  0  0  0  0  0  0  0  0  0  0  0
  139.5450   69.5260  223.6990 C   0  0  0  0  0  0  0  0  0  0  0  0
  139.5030   68.8570  224.9110 C   0  0  0  0  0  0  0  0  0  0  0  0
  139.9740   69.4150  226.0820 C   0  0  0  0  0  0  0  0  0  0  0  0
  139.9410   68.7650  227.2940 C   0  0  0  0  0  0  0  0  0  0  0  0
  140.4370   69.4090  228.4080 C   0  0  0  0  0  0  0  0  0  0  0  0
  140.9630   70.6870  228.3200 C   0  0  0  0  0  0  0  0  0  0  0  0
  141.0050   71.3530  227.1120 C   0  0  0  0  0  0  0  0  0  0  0  0
  140.5030   70.7010  225.9920 C   0  0  0  0  0  0  0  0  0  0  0  0
  140.5380   71.3420  224.8080 N   0  0  0  0  0  0  0  0  0  0  0  0
  139.5000   73.3460  223.2780 H   0  0  0  0  0  0  0  0  0  0  0  0
  140.1625   72.9017  220.3433 H   0  0  0  0  0  0  0  0  0  0  0  0
  138.8329   74.0089  220.9325 H   0  0  0  0  0  0  0  0  0  0  0  0
  141.6396   73.8568  218.3406 H   0  0  0  0  0  0  0  0  0  0  0  0
  140.8759   75.4601  218.4370 H   0  0  0  0  0  0  0  0  0  0  0  0
  143.6447   74.7655  217.7168 H   0  0  0  0  0  0  0  0  0  0  0  0
  142.8667   76.3256  217.5584 H   0  0  0  0  0  0  0  0  0  0  0  0
  144.7935   75.9504  219.4077 H   0  0  0  0  0  0  0  0  0  0  0  0
  143.4270   76.9351  219.8542 H   0  0  0  0  0  0  0  0  0  0  0  0
  143.5454   75.0074  221.5304 H   0  0  0  0  0  0  0  0  0  0  0  0
  145.9459   74.2870  220.2780 H   0  0  0  0  0  0  0  0  0  0  0  0
  147.0082   72.1214  219.7911 H   0  0  0  0  0  0  0  0  0  0  0  0
  143.1527   70.2828  219.5274 H   0  0  0  0  0  0  0  0  0  0  0  0
  142.0995   72.4490  220.0151 H   0  0  0  0  0  0  0  0  0  0  0  0
  139.1612   69.0536  222.7827 H   0  0  0  0  0  0  0  0  0  0  0  0
  139.0783   67.8428  224.9413 H   0  0  0  0  0  0  0  0  0  0  0  0
  139.5262   67.7493  227.3731 H   0  0  0  0  0  0  0  0  0  0  0  0
  140.4144   68.8992  229.3825 H   0  0  0  0  0  0  0  0  0  0  0  0
  141.3522   71.1775  229.2244 H   0  0  0  0  0  0  0  0  0  0  0  0
  141.4227   72.3679  227.0379 H   0  0  0  0  0  0  0  0  0  0  0  0
  1  2  2  0
  2  3  1  0
  3  4  1  0
  4  5  1  0
  5  6  2  0
  5  7  1  0
  7  8  1  0
  8  9  1  0
  9 10  1  0
 10 11  1  0
 11 12  1  0
 12 13  2  0
 13 14  1  0
 14 15  2  0
 15 16  1  0
 16 17  2  0
 16 18  1  0
 15 19  1  0
 19 20  2  0
  2 21  1  0
 21 22  2  0
 22 23  1  0
 23 24  2  0
 24 25  1  0
 25 26  2  0
 26 27  1  0
 27 28  2  0
 28 29  1  0
 29 30  2  0
 11  7  1  0
 20 12  1  0
 30 21  1  0
 29 24  1  0
  3 31  1  0
  4 32  1  0
  4 33  1  0
  8 34  1  0
  8 35  1  0
  9 36  1  0
  9 37  1  0
 10 38  1  0
 10 39  1  0
 11 40  1  1
 13 41  1  0
 14 42  1  0
 19 43  1  0
 20 44  1  0
 22 45  1  0
 23 46  1  0
 25 47  1  0
 26 48  1  0
 27 49  1  0
 28 50  1  0
M  CHG  2  16   1  18  -1
M  END
>  <smiles>  (29) 
O=C(NCC(=O)N1CCCC1c1ccc([N+](=O)[O-])cc1)c1ccc2ccccc2n1

>  <score_type>  (29) 
oracle

>  <origin>  (29) 
autodockgpu

>  <m_score__min__energy>  (29) 
-9.4299999999999997

>  <m_primary>  (29) 
energy

>  <rmsd>  (29) 
2.1137074693623354

>  <m_score__min__rmsd>  (29) 
2.1137074693623354

>  <meeko>  (29) 
{"free_energy": -9.13, "intermolecular_energy": -10.92, "internal_energy": -1.78, "cluster_size": 17, "cluster_id": 2, "rank_in_cluster": 5}

>  <energy>  (29) 
-8.48

>  <cluster_rmsd>  (29) 
1.98

>  <cluster>  (29) 
1

$$$$

     RDKit          3D

 50 53  0  0  0  0  0  0  0  0999 V2000
  140.5820   72.0820  221.5780 O   0  0  0  0  0  0  0  0  0  0  0  0
  139.7340   72.1550  222.4940 C   0  0  0  0  0  0  0  0  0  0  0  0
  138.6250   73.0310  222.3440 N   0  0  0  0  0  0  0  0  0  0  0  0
  138.5270   73.8040  221.1390 C   0  0  0  0  0  0  0  0  0  0  0  0
  138.8520   75.2210  221.3230 C   0  0  0  0  0  0  0  0  0  0  0  0
  138.0490   76.0440  221.8340 O   0  0  0  0  0  0  0  0  0  0  0  0
  140.1170   75.7270  220.9220 N   0  0  0  0  0  0  0  0  0  0  0  0
  141.4110   75.0940  221.0680 C   0  0  0  0  0  0  0  0  0  0  0  0
  142.3180   75.6970  220.0220 C   0  0  0  0  0  0  0  0  0  0  0  0
  141.3870   76.5340  219.2140 C   0  0  0  0  0  0  0  0  0  0  0  0
  140.4130   77.0100  220.2630 C   0  0  2  0  0  0  0  0  0  0  0  0
  141.0120   77.9910  221.1870 C   0  0  0  0  0  0  0  0  0  0  0  0
  140.9990   77.8180  222.5690 C   0  0  0  0  0  0  0  0  0  0  0  0
  141.5660   78.7480  223.4270 C   0  0  0  0  0  0  0  0  0  0  0  0
  142.1700   79.8930  222.9480 C   0  0  0  0  0  0  0  0  0  0  0  0
  142.7500   80.8470  223.8200 N   0  0  0  0  0  4  0  0  0  0  0  0
  143.9840   80.9040  223.9310 O   0  0  0  0  0  0  0  0  0  0  0  0
  141.9940   81.7320  224.5670 O   0  0  0  0  0  1  0  0  0  0  0  0
  142.1900   80.0790  221.5810 C   0  0  0  0  0  0  0  0  0  0  0  0
  141.6210   79.1420  220.7310 C   0  0  0  0  0  0  0  0  0  0  0  0
  139.8450   71.3600  223.7260 C   0  0  0  0  0  0  0  0  0  0  0  0
  139.4500   70.0340  223.7160 C   0  0  0  0  0  0  0  0  0  0  0  0
  139.5610   69.3010  224.8860 C   0  0  0  0  0  0  0  0  0  0  0  0
  140.0500   69.8450  226.0570 C   0  0  0  0  0  0  0  0  0  0  0  0
  140.1680   69.1330  227.2280 C   0  0  0  0  0  0  0  0  0  0  0  0
  140.6690   69.7680  228.3450 C   0  0  0  0  0  0  0  0  0  0  0  0
  141.0510   71.0980  228.3010 C   0  0  0  0  0  0  0  0  0  0  0  0
  140.9400   71.8270  227.1340 C   0  0  0  0  0  0  0  0  0  0  0  0
  140.4340   71.1840  226.0110 C   0  0  0  0  0  0  0  0  0  0  0  0
  140.3210   71.8870  224.8670 N   0  0  0  0  0  0  0  0  0  0  0  0
  137.9310   73.0740  223.1240 H   0  0  0  0  0  0  0  0  0  0  0  0
  139.2209   73.3815  220.3974 H   0  0  0  0  0  0  0  0  0  0  0  0
  137.4792   73.7537  220.8078 H   0  0  0  0  0  0  0  0  0  0  0  0
  141.8140   75.2857  222.0734 H   0  0  0  0  0  0  0  0  0  0  0  0
  141.3320   74.0046  220.9381 H   0  0  0  0  0  0  0  0  0  0  0  0
  143.1020   76.3133  220.4862 H   0  0  0  0  0  0  0  0  0  0  0  0
  142.8526   74.9434  219.4251 H   0  0  0  0  0  0  0  0  0  0  0  0
  141.9128   77.3776  218.7431 H   0  0  0  0  0  0  0  0  0  0  0  0
  140.9151   75.9964  218.3784 H   0  0  0  0  0  0  0  0  0  0  0  0
  139.5363   77.5476  219.8727 H   0  0  0  0  0  0  0  0  0  0  0  0
  140.5260   76.9191  222.9913 H   0  0  0  0  0  0  0  0  0  0  0  0
  141.5338   78.5696  224.5120 H   0  0  0  0  0  0  0  0  0  0  0  0
  142.6619   80.9795  221.1609 H   0  0  0  0  0  0  0  0  0  0  0  0
  141.6569   79.3245  219.6468 H   0  0  0  0  0  0  0  0  0  0  0  0
  139.0563   69.5719  222.7987 H   0  0  0  0  0  0  0  0  0  0  0  0
  139.2480   68.2465  224.8821 H   0  0  0  0  0  0  0  0  0  0  0  0
  139.8680   68.0756  227.2727 H   0  0  0  0  0  0  0  0  0  0  0  0
  140.7668   69.2083  229.2869 H   0  0  0  0  0  0  0  0  0  0  0  0
  141.4477   71.5796  229.2069 H   0  0  0  0  0  0  0  0  0  0  0  0
  141.2426   72.8838  227.0944 H   0  0  0  0  0  0  0  0  0  0  0  0
  1  2  2  0
  2  3  1  0
  3  4  1  0
  4  5  1  0
  5  6  2  0
  5  7  1  0
  7  8  1  0
  8  9  1  0
  9 10  1  0
 10 11  1  0
 11 12  1  0
 12 13  2  0
 13 14  1  0
 14 15  2  0
 15 16  1  0
 16 17  2  0
 16 18  1  0
 15 19  1  0
 19 20  2  0
  2 21  1  0
 21 22  2  0
 22 23  1  0
 23 24  2  0
 24 25  1  0
 25 26  2  0
 26 27  1  0
 27 28  2  0
 28 29  1  0
 29 30  2  0
 11  7  1  0
 20 12  1  0
 30 21  1  0
 29 24  1  0
  3 31  1  0
  4 32  1  0
  4 33  1  0
  8 34  1  0
  8 35  1  0
  9 36  1  0
  9 37  1  0
 10 38  1  0
 10 39  1  0
 11 40  1  6
 13 41  1  0
 14 42  1  0
 19 43  1  0
 20 44  1  0
 22 45  1  0
 23 46  1  0
 25 47  1  0
 26 48  1  0
 27 49  1  0
 28 50  1  0
M  CHG  2  16   1  18  -1
M  END
>  <smiles>  (30) 
O=C(NCC(=O)N1CCCC1c1ccc([N+](=O)[O-])cc1)c1ccc2ccccc2n1

>  <score_type>  (30) 
oracle

>  <origin>  (30) 
autodockgpu

>  <m_score__min__energy>  (30) 
-9.4299999999999997

>  <m_primary>  (30) 
energy

>  <rmsd>  (30) 
1.8886104069734941

>  <m_score__min__rmsd>  (30) 
1.8886104069734941

>  <meeko>  (30) 
{"free_energy": -9.25, "intermolecular_energy": -11.04, "internal_energy": -1.52, "cluster_size": 30, "cluster_id": 1, "rank_in_cluster": 2}

>  <energy>  (30) 
-8.44

>  <cluster_rmsd>  (30) 
1.26

>  <cluster>  (30) 
1

$$$$

     RDKit          3D

 50 53  0  0  0  0  0  0  0  0999 V2000
  139.4880   71.2710  221.2650 O   0  0  0  0  0  0  0  0  0  0  0  0
  139.5790   71.8870  222.3490 C   0  0  0  0  0  0  0  0  0  0  0  0
  139.5460   73.3080  222.3440 N   0  0  0  0  0  0  0  0  0  0  0  0
  139.4100   73.9800  221.0840 C   0  0  0  0  0  0  0  0  0  0  0  0
  140.5490   73.7750  220.1840 C   0  0  0  0  0  0  0  0  0  0  0  0
  140.6980   72.7300  219.5000 O   0  0  0  0  0  0  0  0  0  0  0  0
  141.5480   74.7750  220.0490 N   0  0  0  0  0  0  0  0  0  0  0  0
  142.9420   74.6940  220.4320 C   0  0  0  0  0  0  0  0  0  0  0  0
  143.6900   75.7040  219.5960 C   0  0  0  0  0  0  0  0  0  0  0  0
  142.6530   76.1800  218.6380 C   0  0  0  0  0  0  0  0  0  0  0  0
  141.4060   76.1280  219.4860 C   0  0  2  0  0  0  0  0  0  0  0  0
  141.3880   77.1720  220.5290 C   0  0  0  0  0  0  0  0  0  0  0  0
  141.7850   78.4820  220.2780 C   0  0  0  0  0  0  0  0  0  0  0  0
  141.7630   79.4550  221.2670 C   0  0  0  0  0  0  0  0  0  0  0  0
  141.3450   79.1650  222.5490 C   0  0  0  0  0  0  0  0  0  0  0  0
  141.3210   80.1540  223.5630 N   0  0  0  0  0  4  0  0  0  0  0  0
  142.3510   80.3910  224.2130 O   0  0  0  0  0  0  0  0  0  0  0  0
  140.1850   80.8820  223.8680 O   0  0  0  0  0  1  0  0  0  0  0  0
  140.9480   77.8700  222.8140 C   0  0  0  0  0  0  0  0  0  0  0  0
  140.9730   76.9050  221.8170 C   0  0  0  0  0  0  0  0  0  0  0  0
  139.7190   71.1880  223.6350 C   0  0  0  0  0  0  0  0  0  0  0  0
  139.3210   69.8680  223.7370 C   0  0  0  0  0  0  0  0  0  0  0  0
  139.4600   69.2270  224.9570 C   0  0  0  0  0  0  0  0  0  0  0  0
  139.9800   69.8560  226.0690 C   0  0  0  0  0  0  0  0  0  0  0  0
  140.1270   69.2350  227.2890 C   0  0  0  0  0  0  0  0  0  0  0  0
  140.6580   69.9520  228.3410 C   0  0  0  0  0  0  0  0  0  0  0  0
  141.0410   71.2730  228.1840 C   0  0  0  0  0  0  0  0  0  0  0  0
  140.9020   71.9110  226.9680 C   0  0  0  0  0  0  0  0  0  0  0  0
  140.3660   71.1860  225.9110 C   0  0  0  0  0  0  0  0  0  0  0  0
  140.2260   71.7990  224.7200 N   0  0  0  0  0  0  0  0  0  0  0  0
  139.6250   73.7990  223.2630 H   0  0  0  0  0  0  0  0  0  0  0  0
  138.5024   73.6069  220.5870 H   0  0  0  0  0  0  0  0  0  0  0  0
  139.3570   75.0579  221.2971 H   0  0  0  0  0  0  0  0  0  0  0  0
  143.0544   74.9308  221.5003 H   0  0  0  0  0  0  0  0  0  0  0  0
  143.3356   73.6801  220.2672 H   0  0  0  0  0  0  0  0  0  0  0  0
  144.0644   76.5314  220.2167 H   0  0  0  0  0  0  0  0  0  0  0  0
  144.5778   75.2842  219.1005 H   0  0  0  0  0  0  0  0  0  0  0  0
  142.8629   77.2042  218.2961 H   0  0  0  0  0  0  0  0  0  0  0  0
  142.5906   75.5844  217.7153 H   0  0  0  0  0  0  0  0  0  0  0  0
  140.4672   76.3106  218.9426 H   0  0  0  0  0  0  0  0  0  0  0  0
  142.1256   78.7535  219.2679 H   0  0  0  0  0  0  0  0  0  0  0  0
  142.0854   80.4782  221.0237 H   0  0  0  0  0  0  0  0  0  0  0  0
  140.6086   77.6003  223.8250 H   0  0  0  0  0  0  0  0  0  0  0  0
  140.6480   75.8837  222.0645 H   0  0  0  0  0  0  0  0  0  0  0  0
  138.9030   69.3383  222.8682 H   0  0  0  0  0  0  0  0  0  0  0  0
  139.1438   68.1769  225.0423 H   0  0  0  0  0  0  0  0  0  0  0  0
  139.8262   68.1854  227.4225 H   0  0  0  0  0  0  0  0  0  0  0  0
  140.7791   69.4663  229.3205 H   0  0  0  0  0  0  0  0  0  0  0  0
  141.4617   71.8215  229.0397 H   0  0  0  0  0  0  0  0  0  0  0  0
  141.2060   72.9604  226.8398 H   0  0  0  0  0  0  0  0  0  0  0  0
  1  2  2  0
  2  3  1  0
  3  4  1  0
  4  5  1  0
  5  6  2  0
  5  7  1  0
  7  8  1  0
  8  9  1  0
  9 10  1  0
 10 11  1  0
 11 12  1  0
 12 13  2  0
 13 14  1  0
 14 15  2  0
 15 16  1  0
 16 17  2  0
 16 18  1  0
 15 19  1  0
 19 20  2  0
  2 21  1  0
 21 22  2  0
 22 23  1  0
 23 24  2  0
 24 25  1  0
 25 26  2  0
 26 27  1  0
 27 28  2  0
 28 29  1  0
 29 30  2  0
 11  7  1  0
 20 12  1  0
 30 21  1  0
 29 24  1  0
  3 31  1  0
  4 32  1  0
  4 33  1  0
  8 34  1  0
  8 35  1  0
  9 36  1  0
  9 37  1  0
 10 38  1  0
 10 39  1  0
 11 40  1  6
 13 41  1  0
 14 42  1  0
 19 43  1  0
 20 44  1  0
 22 45  1  0
 23 46  1  0
 25 47  1  0
 26 48  1  0
 27 49  1  0
 28 50  1  0
M  CHG  2  16   1  18  -1
M  END
>  <smiles>  (31) 
O=C(NCC(=O)N1CCCC1c1ccc([N+](=O)[O-])cc1)c1ccc2ccccc2n1

>  <score_type>  (31) 
oracle

>  <origin>  (31) 
autodockgpu

>  <m_score__min__energy>  (31) 
-9.4299999999999997

>  <m_primary>  (31) 
energy

>  <rmsd>  (31) 
2.2202998018471596

>  <m_score__min__rmsd>  (31) 
2.2202998018471596

>  <meeko>  (31) 
{"free_energy": -8.67, "intermolecular_energy": -10.46, "internal_energy": -1.62, "cluster_size": 30, "cluster_id": 1, "rank_in_cluster": 23}

>  <energy>  (31) 
-9.22

>  <cluster_rmsd>  (31) 
0.0

>  <cluster>  (31) 
2

$$$$

     RDKit          3D

 50 53  0  0  0  0  0  0  0  0999 V2000
  140.3910   71.9200  221.7540 O   0  0  0  0  0  0  0  0  0  0  0  0
  139.5380   71.8820  222.6670 C   0  0  0  0  0  0  0  0  0  0  0  0
  138.3820   72.7020  222.5690 N   0  0  0  0  0  0  0  0  0  0  0  0
  138.2430   73.5480  221.4180 C   0  0  0  0  0  0  0  0  0  0  0  0
  138.6990   74.9230  221.6430 C   0  0  0  0  0  0  0  0  0  0  0  0
  137.9860   75.7940  222.2040 O   0  0  0  0  0  0  0  0  0  0  0  0
  139.9940   75.3280  221.2260 N   0  0  0  0  0  0  0  0  0  0  0  0
  141.2650   74.7240  221.5670 C   0  0  0  0  0  0  0  0  0  0  0  0
  142.2400   75.1030  220.4780 C   0  0  0  0  0  0  0  0  0  0  0  0
  141.3730   75.7740  219.4700 C   0  0  0  0  0  0  0  0  0  0  0  0
  140.3520   76.4550  220.3490 C   0  0  2  0  0  0  0  0  0  0  0  0
  140.9200   77.5920  221.0970 C   0  0  0  0  0  0  0  0  0  0  0  0
  141.4490   78.7130  220.4620 C   0  0  0  0  0  0  0  0  0  0  0  0
  141.9790   79.7760  221.1770 C   0  0  0  0  0  0  0  0  0  0  0  0
  142.0070   79.7700  222.5570 C   0  0  0  0  0  0  0  0  0  0  0  0
  142.5480   80.8540  223.2920 N   0  0  0  0  0  4  0  0  0  0  0  0
  141.9150   81.9170  223.3720 O   0  0  0  0  0  0  0  0  0  0  0  0
  143.7700   80.7820  223.9370 O   0  0  0  0  0  1  0  0  0  0  0  0
  141.4870   78.6670  223.2010 C   0  0  0  0  0  0  0  0  0  0  0  0
  140.9580   77.6090  222.4760 C   0  0  0  0  0  0  0  0  0  0  0  0
  139.6900   71.0130  223.8430 C   0  0  0  0  0  0  0  0  0  0  0  0
  139.2830   69.6930  223.7690 C   0  0  0  0  0  0  0  0  0  0  0  0
  139.4340   68.8890  224.8870 C   0  0  0  0  0  0  0  0  0  0  0  0
  139.9730   69.3570  226.0670 C   0  0  0  0  0  0  0  0  0  0  0  0
  140.1320   68.5740  227.1870 C   0  0  0  0  0  0  0  0  0  0  0  0
  140.6820   69.1360  228.3200 C   0  0  0  0  0  0  0  0  0  0  0  0
  141.0740   70.4640  228.3410 C   0  0  0  0  0  0  0  0  0  0  0  0
  140.9230   71.2640  227.2260 C   0  0  0  0  0  0  0  0  0  0  0  0
  140.3680   70.6940  226.0870 C   0  0  0  0  0  0  0  0  0  0  0  0
  140.2160   71.4660  224.9940 N   0  0  0  0  0  0  0  0  0  0  0  0
  137.6830   72.6520  223.3450 H   0  0  0  0  0  0  0  0  0  0  0  0
  138.8322   73.1162  220.5956 H   0  0  0  0  0  0  0  0  0  0  0  0
  137.1699   73.5981  221.1817 H   0  0  0  0  0  0  0  0  0  0  0  0
  141.6159   75.1047  222.5375 H   0  0  0  0  0  0  0  0  0  0  0  0
  141.1713   73.6309  221.6472 H   0  0  0  0  0  0  0  0  0  0  0  0
  143.0094   75.7911  220.8582 H   0  0  0  0  0  0  0  0  0  0  0  0
  142.7912   74.2424  220.0712 H   0  0  0  0  0  0  0  0  0  0  0  0
  141.9411   76.5045  218.8753 H   0  0  0  0  0  0  0  0  0  0  0  0
  140.9373   75.0881  218.7286 H   0  0  0  0  0  0  0  0  0  0  0  0
  139.5087   76.9143  219.8125 H   0  0  0  0  0  0  0  0  0  0  0  0
  141.4462   78.7562  219.3629 H   0  0  0  0  0  0  0  0  0  0  0  0
  142.3854   80.6417  220.6335 H   0  0  0  0  0  0  0  0  0  0  0  0
  141.4917   78.6256  224.3002 H   0  0  0  0  0  0  0  0  0  0  0  0
  140.5513   76.7465  223.0243 H   0  0  0  0  0  0  0  0  0  0  0  0
  138.8487   69.2903  222.8421 H   0  0  0  0  0  0  0  0  0  0  0  0
  139.1121   67.8386  224.8315 H   0  0  0  0  0  0  0  0  0  0  0  0
  139.8256   67.5176  227.1789 H   0  0  0  0  0  0  0  0  0  0  0  0
  140.8114   68.5193  229.2217 H   0  0  0  0  0  0  0  0  0  0  0  0
  141.5112   70.8868  229.2576 H   0  0  0  0  0  0  0  0  0  0  0  0
  141.2324   72.3195  227.2390 H   0  0  0  0  0  0  0  0  0  0  0  0
  1  2  2  0
  2  3  1  0
  3  4  1  0
  4  5  1  0
  5  6  2  0
  5  7  1  0
  7  8  1  0
  8  9  1  0
  9 10  1  0
 10 11  1  0
 11 12  1  0
 12 13  2  0
 13 14  1  0
 14 15  2  0
 15 16  1  0
 16 17  2  0
 16 18  1  0
 15 19  1  0
 19 20  2  0
  2 21  1  0
 21 22  2  0
 22 23  1  0
 23 24  2  0
 24 25  1  0
 25 26  2  0
 26 27  1  0
 27 28  2  0
 28 29  1  0
 29 30  2  0
 11  7  1  0
 20 12  1  0
 30 21  1  0
 29 24  1  0
  3 31  1  0
  4 32  1  0
  4 33  1  0
  8 34  1  0
  8 35  1  0
  9 36  1  0
  9 37  1  0
 10 38  1  0
 10 39  1  0
 11 40  1  6
 13 41  1  0
 14 42  1  0
 19 43  1  0
 20 44  1  0
 22 45  1  0
 23 46  1  0
 25 47  1  0
 26 48  1  0
 27 49  1  0
 28 50  1  0
M  CHG  2  16   1  18  -1
M  END
>  <smiles>  (32) 
O=C(NCC(=O)N1CCCC1c1ccc([N+](=O)[O-])cc1)c1ccc2ccccc2n1

>  <score_type>  (32) 
oracle

>  <origin>  (32) 
autodockgpu

>  <m_score__min__energy>  (32) 
-9.4299999999999997

>  <m_primary>  (32) 
energy

>  <rmsd>  (32) 
1.9838364398525243

>  <m_score__min__rmsd>  (32) 
1.9838364398525243

>  <meeko>  (32) 
{"free_energy": -8.92, "intermolecular_energy": -10.71, "internal_energy": -1.48, "cluster_size": 30, "cluster_id": 1, "rank_in_cluster": 18}

>  <energy>  (32) 
-9.22

>  <cluster_rmsd>  (32) 
0.34

>  <cluster>  (32) 
2

$$$$

     RDKit          3D

 50 53  0  0  0  0  0  0  0  0999 V2000
  140.5970   71.0320  221.3250 O   0  0  0  0  0  0  0  0  0  0  0  0
  140.1830   71.5740  222.3730 C   0  0  0  0  0  0  0  0  0  0  0  0
  139.7700   72.9330  222.3330 N   0  0  0  0  0  0  0  0  0  0  0  0
  139.8480   73.6310  221.0810 C   0  0  0  0  0  0  0  0  0  0  0  0
  140.7350   74.7970  221.1150 C   0  0  0  0  0  0  0  0  0  0  0  0
  140.5860   75.7440  221.9300 O   0  0  0  0  0  0  0  0  0  0  0  0
  141.8220   74.9010  220.2060 N   0  0  0  0  0  0  0  0  0  0  0  0
  141.7630   75.0490  218.7670 C   0  0  0  0  0  0  0  0  0  0  0  0
  143.0630   75.6840  218.3350 C   0  0  0  0  0  0  0  0  0  0  0  0
  143.7170   76.0230  219.6300 C   0  0  0  0  0  0  0  0  0  0  0  0
  143.2620   74.8850  220.5110 C   0  0  2  0  0  0  0  0  0  0  0  0
  143.8990   73.6040  220.1520 C   0  0  0  0  0  0  0  0  0  0  0  0
  143.1590   72.4730  219.8150 C   0  0  0  0  0  0  0  0  0  0  0  0
  143.7700   71.2740  219.4800 C   0  0  0  0  0  0  0  0  0  0  0  0
  145.1430   71.1470  219.4660 C   0  0  0  0  0  0  0  0  0  0  0  0
  145.7720   69.9240  219.1240 N   0  0  0  0  0  4  0  0  0  0  0  0
  145.5100   68.8990  219.7710 O   0  0  0  0  0  0  0  0  0  0  0  0
  146.6790   69.8160  218.0850 O   0  0  0  0  0  1  0  0  0  0  0  0
  145.8910   72.2590  219.7970 C   0  0  0  0  0  0  0  0  0  0  0  0
  145.2700   73.4540  220.1310 C   0  0  0  0  0  0  0  0  0  0  0  0
  140.1080   70.8500  223.6500 C   0  0  0  0  0  0  0  0  0  0  0  0
  139.5370   69.5910  223.6850 C   0  0  0  0  0  0  0  0  0  0  0  0
  139.4750   68.9250  224.8980 C   0  0  0  0  0  0  0  0  0  0  0  0
  139.9610   69.4710  226.0680 C   0  0  0  0  0  0  0  0  0  0  0  0
  139.9090   68.8240  227.2810 C   0  0  0  0  0  0  0  0  0  0  0  0
  140.4230   69.4560  228.3950 C   0  0  0  0  0  0  0  0  0  0  0  0
  140.9860   70.7180  228.3050 C   0  0  0  0  0  0  0  0  0  0  0  0
  141.0470   71.3810  227.0950 C   0  0  0  0  0  0  0  0  0  0  0  0
  140.5270   70.7420  225.9760 C   0  0  0  0  0  0  0  0  0  0  0  0
  140.5820   71.3800  224.7920 N   0  0  0  0  0  0  0  0  0  0  0  0
  139.4290   73.3640  223.2220 H   0  0  0  0  0  0  0  0  0  0  0  0
  140.2197   72.9332  220.3161 H   0  0  0  0  0  0  0  0  0  0  0  0
  138.8372   74.0005  220.8535 H   0  0  0  0  0  0  0  0  0  0  0  0
  141.6467   74.0645  218.2904 H   0  0  0  0  0  0  0  0  0  0  0  0
  140.9050   75.6706  218.4711 H   0  0  0  0  0  0  0  0  0  0  0  0
  143.6752   74.9769  217.7561 H   0  0  0  0  0  0  0  0  0  0  0  0
  142.9227   76.5557  217.6790 H   0  0  0  0  0  0  0  0  0  0  0  0
  144.8126   76.0415  219.5330 H   0  0  0  0  0  0  0  0  0  0  0  0
  143.4532   77.0188  220.0158 H   0  0  0  0  0  0  0  0  0  0  0  0
  143.5143   74.9918  221.5763 H   0  0  0  0  0  0  0  0  0  0  0  0
  142.0606   72.5325  219.8146 H   0  0  0  0  0  0  0  0  0  0  0  0
  143.1463   70.4060  219.2200 H   0  0  0  0  0  0  0  0  0  0  0  0
  146.9893   72.1972  219.7960 H   0  0  0  0  0  0  0  0  0  0  0  0
  145.8981   74.3190  220.3902 H   0  0  0  0  0  0  0  0  0  0  0  0
  139.1405   69.1283  222.7692 H   0  0  0  0  0  0  0  0  0  0  0  0
  139.0213   67.9234  224.9295 H   0  0  0  0  0  0  0  0  0  0  0  0
  139.4655   67.8206  227.3615 H   0  0  0  0  0  0  0  0  0  0  0  0
  140.3849   68.9490  229.3704 H   0  0  0  0  0  0  0  0  0  0  0  0
  141.3896   71.1984  229.2085 H   0  0  0  0  0  0  0  0  0  0  0  0
  141.4933   72.3836  227.0194 H   0  0  0  0  0  0  0  0  0  0  0  0
  1  2  2  0
  2  3  1  0
  3  4  1  0
  4  5  1  0
  5  6  2  0
  5  7  1  0
  7  8  1  0
  8  9  1  0
  9 10  1  0
 10 11  1  0
 11 12  1  0
 12 13  2  0
 13 14  1  0
 14 15  2  0
 15 16  1  0
 16 17  2  0
 16 18  1  0
 15 19  1  0
 19 20  2  0
  2 21  1  0
 21 22  2  0
 22 23  1  0
 23 24  2  0
 24 25  1  0
 25 26  2  0
 26 27  1  0
 27 28  2  0
 28 29  1  0
 29 30  2  0
 11  7  1  0
 20 12  1  0
 30 21  1  0
 29 24  1  0
  3 31  1  0
  4 32  1  0
  4 33  1  0
  8 34  1  0
  8 35  1  0
  9 36  1  0
  9 37  1  0
 10 38  1  0
 10 39  1  0
 11 40  1  1
 13 41  1  0
 14 42  1  0
 19 43  1  0
 20 44  1  0
 22 45  1  0
 23 46  1  0
 25 47  1  0
 26 48  1  0
 27 49  1  0
 28 50  1  0
M  CHG  2  16   1  18  -1
M  END
>  <smiles>  (33) 
O=C(NCC(=O)N1CCCC1c1ccc([N+](=O)[O-])cc1)c1ccc2ccccc2n1

>  <score_type>  (33) 
oracle

>  <origin>  (33) 
autodockgpu

>  <m_score__min__energy>  (33) 
-9.4299999999999997

>  <m_primary>  (33) 
energy

>  <rmsd>  (33) 
2.122267901596781

>  <m_score__min__rmsd>  (33) 
2.122267901596781

>  <meeko>  (33) 
{"free_energy": -8.97, "intermolecular_energy": -10.76, "internal_energy": -1.76, "cluster_size": 17, "cluster_id": 2, "rank_in_cluster": 9}

>  <energy>  (33) 
-9.21

>  <cluster_rmsd>  (33) 
0.32

>  <cluster>  (33) 
2

$$$$

     RDKit          3D

 50 53  0  0  0  0  0  0  0  0999 V2000
  140.3880   70.9910  221.3330 O   0  0  0  0  0  0  0  0  0  0  0  0
  140.0960   71.5490  222.4130 C   0  0  0  0  0  0  0  0  0  0  0  0
  139.7850   72.9360  222.4130 N   0  0  0  0  0  0  0  0  0  0  0  0
  139.8230   73.6420  221.1640 C   0  0  0  0  0  0  0  0  0  0  0  0
  140.7300   74.7930  221.1690 C   0  0  0  0  0  0  0  0  0  0  0  0
  140.6020   75.7590  221.9640 O   0  0  0  0  0  0  0  0  0  0  0  0
  141.8140   74.8580  220.2540 N   0  0  0  0  0  0  0  0  0  0  0  0
  141.7510   74.9520  218.8110 C   0  0  0  0  0  0  0  0  0  0  0  0
  143.0520   75.5660  218.3510 C   0  0  0  0  0  0  0  0  0  0  0  0
  143.7110   75.9510  219.6300 C   0  0  0  0  0  0  0  0  0  0  0  0
  143.2550   74.8490  220.5540 C   0  0  2  0  0  0  0  0  0  0  0  0
  143.8860   73.5530  220.2420 C   0  0  0  0  0  0  0  0  0  0  0  0
  143.1520   72.3750  220.1280 C   0  0  0  0  0  0  0  0  0  0  0  0
  143.7570   71.1630  219.8340 C   0  0  0  0  0  0  0  0  0  0  0  0
  145.1200   71.0680  219.6420 C   0  0  0  0  0  0  0  0  0  0  0  0
  145.7430   69.8320  219.3420 N   0  0  0  0  0  4  0  0  0  0  0  0
  146.6940   69.8020  218.5470 O   0  0  0  0  0  0  0  0  0  0  0  0
  145.3350   68.6350  219.9030 O   0  0  0  0  0  1  0  0  0  0  0  0
  145.8620   72.2270  219.7520 C   0  0  0  0  0  0  0  0  0  0  0  0
  145.2470   73.4350  220.0460 C   0  0  0  0  0  0  0  0  0  0  0  0
  140.0610   70.8170  223.6870 C   0  0  0  0  0  0  0  0  0  0  0  0
  139.5390   69.5370  223.7200 C   0  0  0  0  0  0  0  0  0  0  0  0
  139.5140   68.8630  224.9300 C   0  0  0  0  0  0  0  0  0  0  0  0
  139.9900   69.4220  226.0990 C   0  0  0  0  0  0  0  0  0  0  0  0
  139.9740   68.7670  227.3090 C   0  0  0  0  0  0  0  0  0  0  0  0
  140.4730   69.4130  228.4210 C   0  0  0  0  0  0  0  0  0  0  0  0
  140.9850   70.6970  228.3330 C   0  0  0  0  0  0  0  0  0  0  0  0
  141.0100   71.3670  227.1260 C   0  0  0  0  0  0  0  0  0  0  0  0
  140.5050   70.7140  226.0090 C   0  0  0  0  0  0  0  0  0  0  0  0
  140.5230   71.3590  224.8270 N   0  0  0  0  0  0  0  0  0  0  0  0
  139.5440   73.3800  223.3280 H   0  0  0  0  0  0  0  0  0  0  0  0
  140.1510   72.9440  220.3796 H   0  0  0  0  0  0  0  0  0  0  0  0
  138.8100   74.0299  220.9813 H   0  0  0  0  0  0  0  0  0  0  0  0
  141.6299   73.9506  218.3722 H   0  0  0  0  0  0  0  0  0  0  0  0
  140.8942   75.5651  218.4947 H   0  0  0  0  0  0  0  0  0  0  0  0
  143.6600   74.8355  217.7972 H   0  0  0  0  0  0  0  0  0  0  0  0
  142.9125   76.4129  217.6630 H   0  0  0  0  0  0  0  0  0  0  0  0
  144.8063   75.9619  219.5291 H   0  0  0  0  0  0  0  0  0  0  0  0
  143.4519   76.9615  219.9789 H   0  0  0  0  0  0  0  0  0  0  0  0
  143.5116   74.9956  221.6136 H   0  0  0  0  0  0  0  0  0  0  0  0
  142.0624   72.4072  220.2753 H   0  0  0  0  0  0  0  0  0  0  0  0
  143.1374   70.2578  219.7520 H   0  0  0  0  0  0  0  0  0  0  0  0
  146.9516   72.1921  219.6050 H   0  0  0  0  0  0  0  0  0  0  0  0
  145.8707   74.3375  220.1264 H   0  0  0  0  0  0  0  0  0  0  0  0
  139.1520   69.0642  222.8053 H   0  0  0  0  0  0  0  0  0  0  0  0
  139.0995   67.8446  224.9604 H   0  0  0  0  0  0  0  0  0  0  0  0
  139.5706   67.7467  227.3881 H   0  0  0  0  0  0  0  0  0  0  0  0
  140.4642   68.8998  229.3939 H   0  0  0  0  0  0  0  0  0  0  0  0
  141.3764   71.1889  229.2357 H   0  0  0  0  0  0  0  0  0  0  0  0
  141.4171   72.3861  227.0514 H   0  0  0  0  0  0  0  0  0  0  0  0
  1  2  2  0
  2  3  1  0
  3  4  1  0
  4  5  1  0
  5  6  2  0
  5  7  1  0
  7  8  1  0
  8  9  1  0
  9 10  1  0
 10 11  1  0
 11 12  1  0
 12 13  2  0
 13 14  1  0
 14 15  2  0
 15 16  1  0
 16 17  2  0
 16 18  1  0
 15 19  1  0
 19 20  2  0
  2 21  1  0
 21 22  2  0
 22 23  1  0
 23 24  2  0
 24 25  1  0
 25 26  2  0
 26 27  1  0
 27 28  2  0
 28 29  1  0
 29 30  2  0
 11  7  1  0
 20 12  1  0
 30 21  1  0
 29 24  1  0
  3 31  1  0
  4 32  1  0
  4 33  1  0
  8 34  1  0
  8 35  1  0
  9 36  1  0
  9 37  1  0
 10 38  1  0
 10 39  1  0
 11 40  1  1
 13 41  1  0
 14 42  1  0
 19 43  1  0
 20 44  1  0
 22 45  1  0
 23 46  1  0
 25 47  1  0
 26 48  1  0
 27 49  1  0
 28 50  1  0
M  CHG  2  16   1  18  -1
M  END
>  <smiles>  (34) 
O=C(NCC(=O)N1CCCC1c1ccc([N+](=O)[O-])cc1)c1ccc2ccccc2n1

>  <score_type>  (34) 
oracle

>  <origin>  (34) 
autodockgpu

>  <m_score__min__energy>  (34) 
-9.4299999999999997

>  <m_primary>  (34) 
energy

>  <rmsd>  (34) 
2.120946264541981

>  <m_score__min__rmsd>  (34) 
2.120946264541981

>  <meeko>  (34) 
{"free_energy": -9.07, "intermolecular_energy": -10.86, "internal_energy": -1.82, "cluster_size": 17, "cluster_id": 2, "rank_in_cluster": 7}

>  <energy>  (34) 
-9.13

>  <cluster_rmsd>  (34) 
0.33

>  <cluster>  (34) 
2

$$$$

     RDKit          3D

 50 53  0  0  0  0  0  0  0  0999 V2000
  140.2040   70.9250  221.1450 O   0  0  0  0  0  0  0  0  0  0  0  0
  140.0150   71.5940  222.1830 C   0  0  0  0  0  0  0  0  0  0  0  0
  139.7700   72.9890  222.0740 N   0  0  0  0  0  0  0  0  0  0  0  0
  139.7510   73.5750  220.7640 C   0  0  0  0  0  0  0  0  0  0  0  0
  140.4730   74.8480  220.6810 C   0  0  0  0  0  0  0  0  0  0  0  0
  140.0670   75.9000  221.2390 O   0  0  0  0  0  0  0  0  0  0  0  0
  141.6870   74.9400  219.9500 N   0  0  0  0  0  0  0  0  0  0  0  0
  141.8510   75.1260  218.5230 C   0  0  0  0  0  0  0  0  0  0  0  0
  143.2180   75.7300  218.3110 C   0  0  0  0  0  0  0  0  0  0  0  0
  143.6770   76.0160  219.6990 C   0  0  0  0  0  0  0  0  0  0  0  0
  143.0640   74.8710  220.4670 C   0  0  2  0  0  0  0  0  0  0  0  0
  143.7110   73.5800  220.1710 C   0  0  0  0  0  0  0  0  0  0  0  0
  142.9870   72.3990  220.0240 C   0  0  0  0  0  0  0  0  0  0  0  0
  143.6080   71.1910  219.7450 C   0  0  0  0  0  0  0  0  0  0  0  0
  144.9780   71.1040  219.6020 C   0  0  0  0  0  0  0  0  0  0  0  0
  145.6170   69.8720  219.3170 N   0  0  0  0  0  4  0  0  0  0  0  0
  146.5620   69.8430  218.5140 O   0  0  0  0  0  0  0  0  0  0  0  0
  145.2320   68.6790  219.9030 O   0  0  0  0  0  1  0  0  0  0  0  0
  145.7100   72.2650  219.7440 C   0  0  0  0  0  0  0  0  0  0  0  0
  145.0790   73.4690  220.0220 C   0  0  0  0  0  0  0  0  0  0  0  0
  140.0380   70.9840  223.5210 C   0  0  0  0  0  0  0  0  0  0  0  0
  139.5550   69.6990  223.6890 C   0  0  0  0  0  0  0  0  0  0  0  0
  139.5840   69.1410  224.9570 C   0  0  0  0  0  0  0  0  0  0  0  0
  140.0760   69.8200  226.0530 C   0  0  0  0  0  0  0  0  0  0  0  0
  140.1140   69.2820  227.3190 C   0  0  0  0  0  0  0  0  0  0  0  0
  140.6240   70.0420  228.3500 C   0  0  0  0  0  0  0  0  0  0  0  0
  141.0960   71.3250  228.1270 C   0  0  0  0  0  0  0  0  0  0  0  0
  141.0660   71.8800  226.8630 C   0  0  0  0  0  0  0  0  0  0  0  0
  140.5500   71.1110  225.8270 C   0  0  0  0  0  0  0  0  0  0  0  0
  140.5160   71.6430  224.5910 N   0  0  0  0  0  0  0  0  0  0  0  0
  139.6150   73.5270  222.9570 H   0  0  0  0  0  0  0  0  0  0  0  0
  140.2119   72.8670  220.0595 H   0  0  0  0  0  0  0  0  0  0  0  0
  138.6992   73.7837  220.5188 H   0  0  0  0  0  0  0  0  0  0  0  0
  141.7813   74.1579  218.0054 H   0  0  0  0  0  0  0  0  0  0  0  0
  141.0652   75.7817  218.1197 H   0  0  0  0  0  0  0  0  0  0  0  0
  143.8913   75.0185  217.8107 H   0  0  0  0  0  0  0  0  0  0  0  0
  143.2028   76.6217  217.6671 H   0  0  0  0  0  0  0  0  0  0  0  0
  144.7747   76.0033  219.7688 H   0  0  0  0  0  0  0  0  0  0  0  0
  143.3844   77.0094  220.0699 H   0  0  0  0  0  0  0  0  0  0  0  0
  143.1567   74.9433  221.5607 H   0  0  0  0  0  0  0  0  0  0  0  0
  141.8927   72.4255  220.1322 H   0  0  0  0  0  0  0  0  0  0  0  0
  142.9962   70.2834  219.6354 H   0  0  0  0  0  0  0  0  0  0  0  0
  146.8043   72.2357  219.6358 H   0  0  0  0  0  0  0  0  0  0  0  0
  145.6952   74.3740  220.1282 H   0  0  0  0  0  0  0  0  0  0  0  0
  139.1565   69.1323  222.8346 H   0  0  0  0  0  0  0  0  0  0  0  0
  139.2007   68.1192  225.0950 H   0  0  0  0  0  0  0  0  0  0  0  0
  139.7438   68.2630  227.5052 H   0  0  0  0  0  0  0  0  0  0  0  0
  140.6566   69.6226  229.3664 H   0  0  0  0  0  0  0  0  0  0  0  0
  141.4997   71.9090  228.9672 H   0  0  0  0  0  0  0  0  0  0  0  0
  141.4389   72.8989  226.6819 H   0  0  0  0  0  0  0  0  0  0  0  0
  1  2  2  0
  2  3  1  0
  3  4  1  0
  4  5  1  0
  5  6  2  0
  5  7  1  0
  7  8  1  0
  8  9  1  0
  9 10  1  0
 10 11  1  0
 11 12  1  0
 12 13  2  0
 13 14  1  0
 14 15  2  0
 15 16  1  0
 16 17  2  0
 16 18  1  0
 15 19  1  0
 19 20  2  0
  2 21  1  0
 21 22  2  0
 22 23  1  0
 23 24  2  0
 24 25  1  0
 25 26  2  0
 26 27  1  0
 27 28  2  0
 28 29  1  0
 29 30  2  0
 11  7  1  0
 20 12  1  0
 30 21  1  0
 29 24  1  0
  3 31  1  0
  4 32  1  0
  4 33  1  0
  8 34  1  0
  8 35  1  0
  9 36  1  0
  9 37  1  0
 10 38  1  0
 10 39  1  0
 11 40  1  1
 13 41  1  0
 14 42  1  0
 19 43  1  0
 20 44  1  0
 22 45  1  0
 23 46  1  0
 25 47  1  0
 26 48  1  0
 27 49  1  0
 28 50  1  0
M  CHG  2  16   1  18  -1
M  END
>  <smiles>  (35) 
O=C(NCC(=O)N1CCCC1c1ccc([N+](=O)[O-])cc1)c1ccc2ccccc2n1

>  <score_type>  (35) 
oracle

>  <origin>  (35) 
autodockgpu

>  <m_score__min__energy>  (35) 
-9.4299999999999997

>  <m_primary>  (35) 
energy

>  <rmsd>  (35) 
2.157259726658353

>  <m_score__min__rmsd>  (35) 
2.157259726658353

>  <meeko>  (35) 
{"free_energy": -8.74, "intermolecular_energy": -10.53, "internal_energy": -1.89, "cluster_size": 17, "cluster_id": 2, "rank_in_cluster": 12}

>  <energy>  (35) 
-9.13

>  <cluster_rmsd>  (35) 
0.44

>  <cluster>  (35) 
2

$$$$

     RDKit          3D

 50 53  0  0  0  0  0  0  0  0999 V2000
  139.3090   71.2100  221.3380 O   0  0  0  0  0  0  0  0  0  0  0  0
  139.4880   71.8610  222.3900 C   0  0  0  0  0  0  0  0  0  0  0  0
  139.4280   73.2800  222.3460 N   0  0  0  0  0  0  0  0  0  0  0  0
  139.1630   73.9100  221.0850 C   0  0  0  0  0  0  0  0  0  0  0  0
  140.2430   73.7450  220.1080 C   0  0  0  0  0  0  0  0  0  0  0  0
  140.2150   72.8720  219.2020 O   0  0  0  0  0  0  0  0  0  0  0  0
  141.3870   74.5860  220.1510 N   0  0  0  0  0  0  0  0  0  0  0  0
  142.6630   74.3150  220.7780 C   0  0  0  0  0  0  0  0  0  0  0  0
  143.6880   75.1810  220.0860 C   0  0  0  0  0  0  0  0  0  0  0  0
  142.9190   75.7730  218.9560 C   0  0  0  0  0  0  0  0  0  0  0  0
  141.5470   75.9270  219.5660 C   0  0  2  0  0  0  0  0  0  0  0  0
  141.4990   76.9930  220.5840 C   0  0  0  0  0  0  0  0  0  0  0  0
  141.0670   76.7600  221.8880 C   0  0  0  0  0  0  0  0  0  0  0  0
  141.0270   77.7710  222.8360 C   0  0  0  0  0  0  0  0  0  0  0  0
  141.4130   79.0590  222.5290 C   0  0  0  0  0  0  0  0  0  0  0  0
  141.3730   80.0960  223.4940 N   0  0  0  0  0  4  0  0  0  0  0  0
  140.2780   80.5350  223.8760 O   0  0  0  0  0  0  0  0  0  0  0  0
  142.5160   80.6500  224.0410 O   0  0  0  0  0  1  0  0  0  0  0  0
  141.8430   79.3070  221.2420 C   0  0  0  0  0  0  0  0  0  0  0  0
  141.8810   78.2890  220.3010 C   0  0  0  0  0  0  0  0  0  0  0  0
  139.7610   71.2050  223.6780 C   0  0  0  0  0  0  0  0  0  0  0  0
  139.4990   69.8550  223.8200 C   0  0  0  0  0  0  0  0  0  0  0  0
  139.7610   69.2540  225.0410 C   0  0  0  0  0  0  0  0  0  0  0  0
  140.2730   69.9540  226.1150 C   0  0  0  0  0  0  0  0  0  0  0  0
  140.5410   69.3740  227.3340 C   0  0  0  0  0  0  0  0  0  0  0  0
  141.0510   70.1600  228.3460 C   0  0  0  0  0  0  0  0  0  0  0  0
  141.2960   71.5090  228.1500 C   0  0  0  0  0  0  0  0  0  0  0  0
  141.0340   72.1060  226.9330 C   0  0  0  0  0  0  0  0  0  0  0  0
  140.5190   71.3110  225.9160 C   0  0  0  0  0  0  0  0  0  0  0  0
  140.2590   71.8840  224.7250 N   0  0  0  0  0  0  0  0  0  0  0  0
  139.5820   73.8010  223.2390 H   0  0  0  0  0  0  0  0  0  0  0  0
  138.2445   73.4743  220.6649 H   0  0  0  0  0  0  0  0  0  0  0  0
  139.0645   74.9885  221.2777 H   0  0  0  0  0  0  0  0  0  0  0  0
  142.6184   74.5646  221.8484 H   0  0  0  0  0  0  0  0  0  0  0  0
  142.9252   73.2503  220.6901 H   0  0  0  0  0  0  0  0  0  0  0  0
  144.0646   75.9638  220.7609 H   0  0  0  0  0  0  0  0  0  0  0  0
  144.5776   74.6225  219.7593 H   0  0  0  0  0  0  0  0  0  0  0  0
  143.3349   76.7456  218.6541 H   0  0  0  0  0  0  0  0  0  0  0  0
  142.9341   75.1654  218.0392 H   0  0  0  0  0  0  0  0  0  0  0  0
  140.7564   76.2260  218.8620 H   0  0  0  0  0  0  0  0  0  0  0  0
  140.7490   75.7463  222.1732 H   0  0  0  0  0  0  0  0  0  0  0  0
  140.6801   77.5410  223.8542 H   0  0  0  0  0  0  0  0  0  0  0  0
  142.1588   80.3221  220.9594 H   0  0  0  0  0  0  0  0  0  0  0  0
  142.2307   78.5245  219.2850 H   0  0  0  0  0  0  0  0  0  0  0  0
  139.0914   69.2705  222.9820 H   0  0  0  0  0  0  0  0  0  0  0  0
  139.5534   68.1802  225.1586 H   0  0  0  0  0  0  0  0  0  0  0  0
  140.3519   68.3029  227.4981 H   0  0  0  0  0  0  0  0  0  0  0  0
  141.2668   69.7079  229.3253 H   0  0  0  0  0  0  0  0  0  0  0  0
  141.7044   72.1122  228.9742 H   0  0  0  0  0  0  0  0  0  0  0  0
  141.2268   73.1771  226.7733 H   0  0  0  0  0  0  0  0  0  0  0  0
  1  2  2  0
  2  3  1  0
  3  4  1  0
  4  5  1  0
  5  6  2  0
  5  7  1  0
  7  8  1  0
  8  9  1  0
  9 10  1  0
 10 11  1  0
 11 12  1  0
 12 13  2  0
 13 14  1  0
 14 15  2  0
 15 16  1  0
 16 17  2  0
 16 18  1  0
 15 19  1  0
 19 20  2  0
  2 21  1  0
 21 22  2  0
 22 23  1  0
 23 24  2  0
 24 25  1  0
 25 26  2  0
 26 27  1  0
 27 28  2  0
 28 29  1  0
 29 30  2  0
 11  7  1  0
 20 12  1  0
 30 21  1  0
 29 24  1  0
  3 31  1  0
  4 32  1  0
  4 33  1  0
  8 34  1  0
  8 35  1  0
  9 36  1  0
  9 37  1  0
 10 38  1  0
 10 39  1  0
 11 40  1  6
 13 41  1  0
 14 42  1  0
 19 43  1  0
 20 44  1  0
 22 45  1  0
 23 46  1  0
 25 47  1  0
 26 48  1  0
 27 49  1  0
 28 50  1  0
M  CHG  2  16   1  18  -1
M  END
>  <smiles>  (36) 
O=C(NCC(=O)N1CCCC1c1ccc([N+](=O)[O-])cc1)c1ccc2ccccc2n1

>  <score_type>  (36) 
oracle

>  <origin>  (36) 
autodockgpu

>  <m_score__min__energy>  (36) 
-9.4299999999999997

>  <m_primary>  (36) 
energy

>  <rmsd>  (36) 
2.326756500985207

>  <m_score__min__rmsd>  (36) 
2.326756500985207

>  <meeko>  (36) 
{"free_energy": -8.61, "intermolecular_energy": -10.4, "internal_energy": -1.73, "cluster_size": 30, "cluster_id": 1, "rank_in_cluster": 28}

>  <energy>  (36) 
-9.12

>  <cluster_rmsd>  (36) 
0.2

>  <cluster>  (36) 
2

$$$$

     RDKit          3D

 50 53  0  0  0  0  0  0  0  0999 V2000
  140.3820   71.0800  221.6490 O   0  0  0  0  0  0  0  0  0  0  0  0
  139.7120   71.3110  222.6780 C   0  0  0  0  0  0  0  0  0  0  0  0
  138.8690   72.4550  222.7130 N   0  0  0  0  0  0  0  0  0  0  0  0
  138.8240   73.3030  221.5570 C   0  0  0  0  0  0  0  0  0  0  0  0
  139.5880   74.5440  221.7110 C   0  0  0  0  0  0  0  0  0  0  0  0
  140.8210   74.5600  221.9600 O   0  0  0  0  0  0  0  0  0  0  0  0
  138.9460   75.8050  221.5790 N   0  0  0  0  0  0  0  0  0  0  0  0
  138.5880   76.4930  220.3570 C   0  0  0  0  0  0  0  0  0  0  0  0
  137.4630   77.4410  220.6980 C   0  0  0  0  0  0  0  0  0  0  0  0
  137.1360   77.0800  222.1050 C   0  0  0  0  0  0  0  0  0  0  0  0
  138.4920   76.7070  222.6500 C   0  0  2  0  0  0  0  0  0  0  0  0
  139.3770   77.8760  222.8140 C   0  0  0  0  0  0  0  0  0  0  0  0
  140.7400   77.8240  222.5310 C   0  0  0  0  0  0  0  0  0  0  0  0
  141.5610   78.9300  222.6880 C   0  0  0  0  0  0  0  0  0  0  0  0
  141.0630   80.1370  223.1350 C   0  0  0  0  0  0  0  0  0  0  0  0
  141.8980   81.2700  223.2970 N   0  0  0  0  0  4  0  0  0  0  0  0
  142.7460   81.2810  224.2010 O   0  0  0  0  0  0  0  0  0  0  0  0
  141.8110   82.3840  222.4810 O   0  0  0  0  0  1  0  0  0  0  0  0
  139.7140   80.2040  223.4180 C   0  0  0  0  0  0  0  0  0  0  0  0
  138.9010   79.0920  223.2570 C   0  0  0  0  0  0  0  0  0  0  0  0
  139.7650   70.4360  223.8580 C   0  0  0  0  0  0  0  0  0  0  0  0
  139.2000   69.1760  223.7950 C   0  0  0  0  0  0  0  0  0  0  0  0
  139.2600   68.3660  224.9180 C   0  0  0  0  0  0  0  0  0  0  0  0
  139.8610   68.7710  226.0920 C   0  0  0  0  0  0  0  0  0  0  0  0
  139.9310   67.9810  227.2160 C   0  0  0  0  0  0  0  0  0  0  0  0
  140.5530   68.4780  228.3410 C   0  0  0  0  0  0  0  0  0  0  0  0
  141.1040   69.7490  228.3510 C   0  0  0  0  0  0  0  0  0  0  0  0
  141.0440   70.5550  227.2320 C   0  0  0  0  0  0  0  0  0  0  0  0
  140.4150   70.0500  226.1010 C   0  0  0  0  0  0  0  0  0  0  0  0
  140.3500   70.8290  225.0030 N   0  0  0  0  0  0  0  0  0  0  0  0
  138.3190   72.6270  223.5850 H   0  0  0  0  0  0  0  0  0  0  0  0
  139.2332   72.7464  220.7010 H   0  0  0  0  0  0  0  0  0  0  0  0
  137.7723   73.5877  221.4059 H   0  0  0  0  0  0  0  0  0  0  0  0
  139.4521   77.0548  219.9726 H   0  0  0  0  0  0  0  0  0  0  0  0
  138.2777   75.7784  219.5804 H   0  0  0  0  0  0  0  0  0  0  0  0
  137.7923   78.4880  220.6247 H   0  0  0  0  0  0  0  0  0  0  0  0
  136.6030   77.3559  220.0175 H   0  0  0  0  0  0  0  0  0  0  0  0
  136.7070   77.9347  222.6486 H   0  0  0  0  0  0  0  0  0  0  0  0
  136.3837   76.2828  222.1974 H   0  0  0  0  0  0  0  0  0  0  0  0
  138.4825   76.2669  223.6581 H   0  0  0  0  0  0  0  0  0  0  0  0
  141.1767   76.8799  222.1733 H   0  0  0  0  0  0  0  0  0  0  0  0
  142.6318   78.8437  222.4513 H   0  0  0  0  0  0  0  0  0  0  0  0
  139.2790   81.1492  223.7750 H   0  0  0  0  0  0  0  0  0  0  0  0
  137.8305   79.1840  223.4928 H   0  0  0  0  0  0  0  0  0  0  0  0
  138.7133   68.8239  222.8735 H   0  0  0  0  0  0  0  0  0  0  0  0
  138.8116   67.3626  224.8715 H   0  0  0  0  0  0  0  0  0  0  0  0
  139.4979   66.9698  227.2169 H   0  0  0  0  0  0  0  0  0  0  0  0
  140.6129   67.8553  229.2458 H   0  0  0  0  0  0  0  0  0  0  0  0
  141.5956   70.1206  229.2622 H   0  0  0  0  0  0  0  0  0  0  0  0
  141.4803   71.5648  227.2357 H   0  0  0  0  0  0  0  0  0  0  0  0
  1  2  2  0
  2  3  1  0
  3  4  1  0
  4  5  1  0
  5  6  2  0
  5  7  1  0
  7  8  1  0
  8  9  1  0
  9 10  1  0
 10 11  1  0
 11 12  1  0
 12 13  2  0
 13 14  1  0
 14 15  2  0
 15 16  1  0
 16 17  2  0
 16 18  1  0
 15 19  1  0
 19 20  2  0
  2 21  1  0
 21 22  2  0
 22 23  1  0
 23 24  2  0
 24 25  1  0
 25 26  2  0
 26 27  1  0
 27 28  2  0
 28 29  1  0
 29 30  2  0
 11  7  1  0
 20 12  1  0
 30 21  1  0
 29 24  1  0
  3 31  1  0
  4 32  1  0
  4 33  1  0
  8 34  1  0
  8 35  1  0
  9 36  1  0
  9 37  1  0
 10 38  1  0
 10 39  1  0
 11 40  1  1
 13 41  1  0
 14 42  1  0
 19 43  1  0
 20 44  1  0
 22 45  1  0
 23 46  1  0
 25 47  1  0
 26 48  1  0
 27 49  1  0
 28 50  1  0
M  CHG  2  16   1  18  -1
M  END
>  <smiles>  (37) 
O=C(NCC(=O)N1CCCC1c1ccc([N+](=O)[O-])cc1)c1ccc2ccccc2n1

>  <score_type>  (37) 
oracle

>  <origin>  (37) 
autodockgpu

>  <m_score__min__energy>  (37) 
-9.4299999999999997

>  <m_primary>  (37) 
energy

>  <rmsd>  (37) 
2.541752143625988

>  <m_score__min__rmsd>  (37) 
2.541752143625988

>  <meeko>  (37) 
{"free_energy": -8.98, "intermolecular_energy": -10.77, "internal_energy": -1.4, "cluster_size": 30, "cluster_id": 1, "rank_in_cluster": 16}

>  <energy>  (37) 
-9.07

>  <cluster_rmsd>  (37) 
0.46

>  <cluster>  (37) 
2

$$$$

     RDKit          3D

 50 53  0  0  0  0  0  0  0  0999 V2000
  140.4850   71.5400  221.2560 O   0  0  0  0  0  0  0  0  0  0  0  0
  140.1720   72.0900  222.3340 C   0  0  0  0  0  0  0  0  0  0  0  0
  139.8380   73.4710  222.3350 N   0  0  0  0  0  0  0  0  0  0  0  0
  139.8750   74.1810  221.0890 C   0  0  0  0  0  0  0  0  0  0  0  0
  138.5840   74.7590  220.7050 C   0  0  0  0  0  0  0  0  0  0  0  0
  137.8160   74.2170  219.8680 O   0  0  0  0  0  0  0  0  0  0  0  0
  138.1430   75.9810  221.2790 N   0  0  0  0  0  0  0  0  0  0  0  0
  137.3610   77.0240  220.6510 C   0  0  0  0  0  0  0  0  0  0  0  0
  136.6720   77.7870  221.7570 C   0  0  0  0  0  0  0  0  0  0  0  0
  136.9880   76.9800  222.9680 C   0  0  0  0  0  0  0  0  0  0  0  0
  138.3730   76.4740  222.6470 C   0  0  2  0  0  0  0  0  0  0  0  0
  139.3900   77.5420  222.6960 C   0  0  0  0  0  0  0  0  0  0  0  0
  140.6250   77.4240  222.0640 C   0  0  0  0  0  0  0  0  0  0  0  0
  141.5720   78.4350  222.1170 C   0  0  0  0  0  0  0  0  0  0  0  0
  141.3320   79.6090  222.8010 C   0  0  0  0  0  0  0  0  0  0  0  0
  142.2970   80.6450  222.8580 N   0  0  0  0  0  4  0  0  0  0  0  0
  142.1700   81.6400  222.1300 O   0  0  0  0  0  0  0  0  0  0  0  0
  143.3920   80.5990  223.7030 O   0  0  0  0  0  1  0  0  0  0  0  0
  140.1120   79.7410  223.4320 C   0  0  0  0  0  0  0  0  0  0  0  0
  139.1710   78.7240  223.3730 C   0  0  0  0  0  0  0  0  0  0  0  0
  140.1390   71.3540  223.6070 C   0  0  0  0  0  0  0  0  0  0  0  0
  139.6250   70.0700  223.6350 C   0  0  0  0  0  0  0  0  0  0  0  0
  139.6010   69.3930  224.8430 C   0  0  0  0  0  0  0  0  0  0  0  0
  140.0700   69.9510  226.0140 C   0  0  0  0  0  0  0  0  0  0  0  0
  140.0550   69.2940  227.2230 C   0  0  0  0  0  0  0  0  0  0  0  0
  140.5470   69.9390  228.3380 C   0  0  0  0  0  0  0  0  0  0  0  0
  141.0510   71.2270  228.2540 C   0  0  0  0  0  0  0  0  0  0  0  0
  141.0740   71.9010  227.0500 C   0  0  0  0  0  0  0  0  0  0  0  0
  140.5770   71.2470  225.9290 C   0  0  0  0  0  0  0  0  0  0  0  0
  140.5950   71.8960  224.7490 N   0  0  0  0  0  0  0  0  0  0  0  0
  139.5800   73.9080  223.2490 H   0  0  0  0  0  0  0  0  0  0  0  0
  140.6092   74.9956  221.1745 H   0  0  0  0  0  0  0  0  0  0  0  0
  140.1470   73.4530  220.3106 H   0  0  0  0  0  0  0  0  0  0  0  0
  138.0180   77.6970  220.0805 H   0  0  0  0  0  0  0  0  0  0  0  0
  136.6263   76.5968  219.9526 H   0  0  0  0  0  0  0  0  0  0  0  0
  137.0756   78.8065  221.8449 H   0  0  0  0  0  0  0  0  0  0  0  0
  135.5921   77.9126  221.5894 H   0  0  0  0  0  0  0  0  0  0  0  0
  136.9889   77.6021  223.8752 H   0  0  0  0  0  0  0  0  0  0  0  0
  136.2589   76.1830  223.1757 H   0  0  0  0  0  0  0  0  0  0  0  0
  138.7695   75.7277  223.3511 H   0  0  0  0  0  0  0  0  0  0  0  0
  140.8555   76.5036  221.5075 H   0  0  0  0  0  0  0  0  0  0  0  0
  142.5349   78.2984  221.6030 H   0  0  0  0  0  0  0  0  0  0  0  0
  139.8834   80.6625  223.9876 H   0  0  0  0  0  0  0  0  0  0  0  0
  138.2093   78.8657  223.8878 H   0  0  0  0  0  0  0  0  0  0  0  0
  139.2437   69.5971  222.7180 H   0  0  0  0  0  0  0  0  0  0  0  0
  139.1926   68.3720  224.8696 H   0  0  0  0  0  0  0  0  0  0  0  0
  139.6571   68.2713  227.2987 H   0  0  0  0  0  0  0  0  0  0  0  0
  140.5393   69.4230  229.3094 H   0  0  0  0  0  0  0  0  0  0  0  0
  141.4378   71.7186  229.1588 H   0  0  0  0  0  0  0  0  0  0  0  0
  141.4731   72.9236  226.9798 H   0  0  0  0  0  0  0  0  0  0  0  0
  1  2  2  0
  2  3  1  0
  3  4  1  0
  4  5  1  0
  5  6  2  0
  5  7  1  0
  7  8  1  0
  8  9  1  0
  9 10  1  0
 10 11  1  0
 11 12  1  0
 12 13  2  0
 13 14  1  0
 14 15  2  0
 15 16  1  0
 16 17  2  0
 16 18  1  0
 15 19  1  0
 19 20  2  0
  2 21  1  0
 21 22  2  0
 22 23  1  0
 23 24  2  0
 24 25  1  0
 25 26  2  0
 26 27  1  0
 27 28  2  0
 28 29  1  0
 29 30  2  0
 11  7  1  0
 20 12  1  0
 30 21  1  0
 29 24  1  0
  3 31  1  0
  4 32  1  0
  4 33  1  0
  8 34  1  0
  8 35  1  0
  9 36  1  0
  9 37  1  0
 10 38  1  0
 10 39  1  0
 11 40  1  1
 13 41  1  0
 14 42  1  0
 19 43  1  0
 20 44  1  0
 22 45  1  0
 23 46  1  0
 25 47  1  0
 26 48  1  0
 27 49  1  0
 28 50  1  0
M  CHG  2  16   1  18  -1
M  END
>  <smiles>  (38) 
O=C(NCC(=O)N1CCCC1c1ccc([N+](=O)[O-])cc1)c1ccc2ccccc2n1

>  <score_type>  (38) 
oracle

>  <origin>  (38) 
autodockgpu

>  <m_score__min__energy>  (38) 
-9.4299999999999997

>  <m_primary>  (38) 
energy

>  <rmsd>  (38) 
3.108926936485728

>  <m_score__min__rmsd>  (38) 
3.108926936485728

>  <meeko>  (38) 
{"free_energy": -8.44, "intermolecular_energy": -10.23, "internal_energy": -1.56, "cluster_size": 30, "cluster_id": 1, "rank_in_cluster": 30}

>  <energy>  (38) 
-8.99

>  <cluster_rmsd>  (38) 
0.47

>  <cluster>  (38) 
2

$$$$

     RDKit          3D

 50 53  0  0  0  0  0  0  0  0999 V2000
  139.5370   70.6100  221.3960 O   0  0  0  0  0  0  0  0  0  0  0  0
  139.6650   71.1720  222.5050 C   0  0  0  0  0  0  0  0  0  0  0  0
  139.7510   72.5900  222.5570 N   0  0  0  0  0  0  0  0  0  0  0  0
  139.6870   73.3210  221.3240 C   0  0  0  0  0  0  0  0  0  0  0  0
  140.5500   74.5060  221.3010 C   0  0  0  0  0  0  0  0  0  0  0  0
  140.4110   75.4670  222.1010 O   0  0  0  0  0  0  0  0  0  0  0  0
  141.6000   74.6120  220.3510 N   0  0  0  0  0  0  0  0  0  0  0  0
  141.4870   74.7020  218.9100 C   0  0  0  0  0  0  0  0  0  0  0  0
  142.7470   75.3650  218.4080 C   0  0  0  0  0  0  0  0  0  0  0  0
  143.4310   75.7780  219.6650 C   0  0  0  0  0  0  0  0  0  0  0  0
  143.0500   74.6600  220.6040 C   0  0  2  0  0  0  0  0  0  0  0  0
  143.7200   73.3890  220.2720 C   0  0  0  0  0  0  0  0  0  0  0  0
  143.0420   72.1730  220.2480 C   0  0  0  0  0  0  0  0  0  0  0  0
  143.6840   70.9840  219.9340 C   0  0  0  0  0  0  0  0  0  0  0  0
  145.0300   70.9540  219.6300 C   0  0  0  0  0  0  0  0  0  0  0  0
  145.6900   69.7420  219.3090 N   0  0  0  0  0  4  0  0  0  0  0  0
  145.3610   68.6940  219.8830 O   0  0  0  0  0  0  0  0  0  0  0  0
  146.7020   69.6710  218.3680 O   0  0  0  0  0  1  0  0  0  0  0  0
  145.7160   72.1510  219.6490 C   0  0  0  0  0  0  0  0  0  0  0  0
  145.0640   73.3340  219.9640 C   0  0  0  0  0  0  0  0  0  0  0  0
  139.7300   70.4130  223.7620 C   0  0  0  0  0  0  0  0  0  0  0  0
  139.2060   69.1340  223.8110 C   0  0  0  0  0  0  0  0  0  0  0  0
  139.2760   68.4350  225.0050 C   0  0  0  0  0  0  0  0  0  0  0  0
  139.8480   68.9670  226.1420 C   0  0  0  0  0  0  0  0  0  0  0  0
  139.9280   68.2880  227.3360 C   0  0  0  0  0  0  0  0  0  0  0  0
  140.5190   68.9080  228.4160 C   0  0  0  0  0  0  0  0  0  0  0  0
  141.0300   70.1910  228.3130 C   0  0  0  0  0  0  0  0  0  0  0  0
  140.9600   70.8870  227.1230 C   0  0  0  0  0  0  0  0  0  0  0  0
  140.3620   70.2590  226.0370 C   0  0  0  0  0  0  0  0  0  0  0  0
  140.2870   70.9290  224.8710 N   0  0  0  0  0  0  0  0  0  0  0  0
  139.8580   73.0360  223.4960 H   0  0  0  0  0  0  0  0  0  0  0  0
  139.9927   72.6518  220.5063 H   0  0  0  0  0  0  0  0  0  0  0  0
  138.6511   73.6730  221.2101 H   0  0  0  0  0  0  0  0  0  0  0  0
  141.3906   73.6962  218.4753 H   0  0  0  0  0  0  0  0  0  0  0  0
  140.5975   75.2814  218.6218 H   0  0  0  0  0  0  0  0  0  0  0  0
  143.3650   74.6576  217.8355 H   0  0  0  0  0  0  0  0  0  0  0  0
  142.5526   76.2043  217.7240 H   0  0  0  0  0  0  0  0  0  0  0  0
  144.5211   75.8328  219.5286 H   0  0  0  0  0  0  0  0  0  0  0  0
  143.1427   76.7778  220.0218 H   0  0  0  0  0  0  0  0  0  0  0  0
  143.3362   74.8182  221.6543 H   0  0  0  0  0  0  0  0  0  0  0  0
  141.9679   72.1547  220.4845 H   0  0  0  0  0  0  0  0  0  0  0  0
  143.1089   70.0464  219.9272 H   0  0  0  0  0  0  0  0  0  0  0  0
  146.7901   72.1672  219.4121 H   0  0  0  0  0  0  0  0  0  0  0  0
  145.6434   74.2690  219.9685 H   0  0  0  0  0  0  0  0  0  0  0  0
  138.7437   68.6816  222.9213 H   0  0  0  0  0  0  0  0  0  0  0  0
  138.8599   67.4176  225.0481 H   0  0  0  0  0  0  0  0  0  0  0  0
  139.5271   67.2677  227.4272 H   0  0  0  0  0  0  0  0  0  0  0  0
  140.5859   68.3747  229.3758 H   0  0  0  0  0  0  0  0  0  0  0  0
  141.4976   70.6614  229.1906 H   0  0  0  0  0  0  0  0  0  0  0  0
  141.3647   71.9062  227.0370 H   0  0  0  0  0  0  0  0  0  0  0  0
  1  2  2  0
  2  3  1  0
  3  4  1  0
  4  5  1  0
  5  6  2  0
  5  7  1  0
  7  8  1  0
  8  9  1  0
  9 10  1  0
 10 11  1  0
 11 12  1  0
 12 13  2  0
 13 14  1  0
 14 15  2  0
 15 16  1  0
 16 17  2  0
 16 18  1  0
 15 19  1  0
 19 20  2  0
  2 21  1  0
 21 22  2  0
 22 23  1  0
 23 24  2  0
 24 25  1  0
 25 26  2  0
 26 27  1  0
 27 28  2  0
 28 29  1  0
 29 30  2  0
 11  7  1  0
 20 12  1  0
 30 21  1  0
 29 24  1  0
  3 31  1  0
  4 32  1  0
  4 33  1  0
  8 34  1  0
  8 35  1  0
  9 36  1  0
  9 37  1  0
 10 38  1  0
 10 39  1  0
 11 40  1  1
 13 41  1  0
 14 42  1  0
 19 43  1  0
 20 44  1  0
 22 45  1  0
 23 46  1  0
 25 47  1  0
 26 48  1  0
 27 49  1  0
 28 50  1  0
M  CHG  2  16   1  18  -1
M  END
>  <smiles>  (39) 
O=C(NCC(=O)N1CCCC1c1ccc([N+](=O)[O-])cc1)c1ccc2ccccc2n1

>  <score_type>  (39) 
oracle

>  <origin>  (39) 
autodockgpu

>  <m_score__min__energy>  (39) 
-9.4299999999999997

>  <m_primary>  (39) 
energy

>  <rmsd>  (39) 
2.022157170625826

>  <m_score__min__rmsd>  (39) 
2.022157170625826

>  <meeko>  (39) 
{"free_energy": -8.88, "intermolecular_energy": -10.67, "internal_energy": -1.85, "cluster_size": 17, "cluster_id": 2, "rank_in_cluster": 10}

>  <energy>  (39) 
-8.97

>  <cluster_rmsd>  (39) 
0.43

>  <cluster>  (39) 
2

$$$$

     RDKit          3D

 50 53  0  0  0  0  0  0  0  0999 V2000
  139.6210   71.3380  221.2530 O   0  0  0  0  0  0  0  0  0  0  0  0
  139.6530   71.9560  222.3380 C   0  0  0  0  0  0  0  0  0  0  0  0
  139.5990   73.3760  222.3290 N   0  0  0  0  0  0  0  0  0  0  0  0
  139.5100   74.0450  221.0620 C   0  0  0  0  0  0  0  0  0  0  0  0
  140.6790   73.8320  220.2040 C   0  0  0  0  0  0  0  0  0  0  0  0
  140.8960   72.7480  219.6040 O   0  0  0  0  0  0  0  0  0  0  0  0
  141.6310   74.8690  220.0140 N   0  0  0  0  0  0  0  0  0  0  0  0
  143.0490   74.8340  220.3030 C   0  0  0  0  0  0  0  0  0  0  0  0
  143.7030   75.8780  219.4310 C   0  0  0  0  0  0  0  0  0  0  0  0
  142.5880   76.3260  218.5510 C   0  0  0  0  0  0  0  0  0  0  0  0
  141.4030   76.2210  219.4790 C   0  0  2  0  0  0  0  0  0  0  0  0
  141.4180   77.2530  220.5330 C   0  0  0  0  0  0  0  0  0  0  0  0
  141.0390   76.9830  221.8450 C   0  0  0  0  0  0  0  0  0  0  0  0
  141.0570   77.9620  222.8270 C   0  0  0  0  0  0  0  0  0  0  0  0
  141.4540   79.2530  222.5460 C   0  0  0  0  0  0  0  0  0  0  0  0
  141.4740   80.2570  223.5460 N   0  0  0  0  0  4  0  0  0  0  0  0
  140.4240   80.8450  223.8450 O   0  0  0  0  0  0  0  0  0  0  0  0
  142.6290   80.6190  224.2160 O   0  0  0  0  0  1  0  0  0  0  0  0
  141.8330   79.5370  221.2500 C   0  0  0  0  0  0  0  0  0  0  0  0
  141.8110   78.5500  220.2750 C   0  0  0  0  0  0  0  0  0  0  0  0
  139.7460   71.2620  223.6310 C   0  0  0  0  0  0  0  0  0  0  0  0
  139.2610   69.9720  223.7440 C   0  0  0  0  0  0  0  0  0  0  0  0
  139.3560   69.3340  224.9700 C   0  0  0  0  0  0  0  0  0  0  0  0
  139.9150   69.9370  226.0770 C   0  0  0  0  0  0  0  0  0  0  0  0
  140.0190   69.3190  227.3020 C   0  0  0  0  0  0  0  0  0  0  0  0
  140.5950   70.0090  228.3490 C   0  0  0  0  0  0  0  0  0  0  0  0
  141.0660   71.3000  228.1810 C   0  0  0  0  0  0  0  0  0  0  0  0
  140.9710   71.9350  226.9590 C   0  0  0  0  0  0  0  0  0  0  0  0
  140.3890   71.2380  225.9080 C   0  0  0  0  0  0  0  0  0  0  0  0
  140.2900   71.8480  224.7110 N   0  0  0  0  0  0  0  0  0  0  0  0
  139.6280   73.8700  223.2490 H   0  0  0  0  0  0  0  0  0  0  0  0
  138.6189   73.6740  220.5344 H   0  0  0  0  0  0  0  0  0  0  0  0
  139.4537   75.1238  221.2695 H   0  0  0  0  0  0  0  0  0  0  0  0
  143.2240   75.0646  221.3642 H   0  0  0  0  0  0  0  0  0  0  0  0
  143.4662   73.8364  220.1010 H   0  0  0  0  0  0  0  0  0  0  0  0
  144.0894   76.7121  220.0351 H   0  0  0  0  0  0  0  0  0  0  0  0
  144.5694   75.4949  218.8718 H   0  0  0  0  0  0  0  0  0  0  0  0
  142.7385   77.3605  218.2087 H   0  0  0  0  0  0  0  0  0  0  0  0
  142.4847   75.7375  217.6274 H   0  0  0  0  0  0  0  0  0  0  0  0
  140.4238   76.3750  219.0021 H   0  0  0  0  0  0  0  0  0  0  0  0
  140.7164   75.9653  222.1100 H   0  0  0  0  0  0  0  0  0  0  0  0
  140.7485   77.7039  223.8508 H   0  0  0  0  0  0  0  0  0  0  0  0
  142.1556   80.5553  220.9873 H   0  0  0  0  0  0  0  0  0  0  0  0
  142.1202   78.8129  219.2526 H   0  0  0  0  0  0  0  0  0  0  0  0
  138.8096   69.4635  222.8793 H   0  0  0  0  0  0  0  0  0  0  0  0
  138.9711   68.3078  225.0640 H   0  0  0  0  0  0  0  0  0  0  0  0
  139.6494   68.2928  227.4442 H   0  0  0  0  0  0  0  0  0  0  0  0
  140.6814   69.5254  229.3332 H   0  0  0  0  0  0  0  0  0  0  0  0
  141.5219   71.8266  229.0324 H   0  0  0  0  0  0  0  0  0  0  0  0
  141.3444   72.9606  226.8219 H   0  0  0  0  0  0  0  0  0  0  0  0
  1  2  2  0
  2  3  1  0
  3  4  1  0
  4  5  1  0
  5  6  2  0
  5  7  1  0
  7  8  1  0
  8  9  1  0
  9 10  1  0
 10 11  1  0
 11 12  1  0
 12 13  2  0
 13 14  1  0
 14 15  2  0
 15 16  1  0
 16 17  2  0
 16 18  1  0
 15 19  1  0
 19 20  2  0
  2 21  1  0
 21 22  2  0
 22 23  1  0
 23 24  2  0
 24 25  1  0
 25 26  2  0
 26 27  1  0
 27 28  2  0
 28 29  1  0
 29 30  2  0
 11  7  1  0
 20 12  1  0
 30 21  1  0
 29 24  1  0
  3 31  1  0
  4 32  1  0
  4 33  1  0
  8 34  1  0
  8 35  1  0
  9 36  1  0
  9 37  1  0
 10 38  1  0
 10 39  1  0
 11 40  1  6
 13 41  1  0
 14 42  1  0
 19 43  1  0
 20 44  1  0
 22 45  1  0
 23 46  1  0
 25 47  1  0
 26 48  1  0
 27 49  1  0
 28 50  1  0
M  CHG  2  16   1  18  -1
M  END
>  <smiles>  (40) 
O=C(NCC(=O)N1CCCC1c1ccc([N+](=O)[O-])cc1)c1ccc2ccccc2n1

>  <score_type>  (40) 
oracle

>  <origin>  (40) 
autodockgpu

>  <m_score__min__energy>  (40) 
-9.4299999999999997

>  <m_primary>  (40) 
energy

>  <rmsd>  (40) 
2.2243407051813358

>  <m_score__min__rmsd>  (40) 
2.2243407051813358

>  <meeko>  (40) 
{"free_energy": -8.78, "intermolecular_energy": -10.57, "internal_energy": -1.55, "cluster_size": 30, "cluster_id": 1, "rank_in_cluster": 20}

>  <energy>  (40) 
-8.88

>  <cluster_rmsd>  (40) 
0.71

>  <cluster>  (40) 
2

$$$$

     RDKit          3D

 50 53  0  0  0  0  0  0  0  0999 V2000
  138.4060   70.7550  221.8220 O   0  0  0  0  0  0  0  0  0  0  0  0
  139.0050   71.1690  222.8380 C   0  0  0  0  0  0  0  0  0  0  0  0
  139.4230   72.5270  222.8910 N   0  0  0  0  0  0  0  0  0  0  0  0
  139.1360   73.3710  221.7660 C   0  0  0  0  0  0  0  0  0  0  0  0
  139.8820   74.6330  221.7750 C   0  0  0  0  0  0  0  0  0  0  0  0
  141.1240   74.6890  221.9660 O   0  0  0  0  0  0  0  0  0  0  0  0
  139.2110   75.8660  221.5630 N   0  0  0  0  0  0  0  0  0  0  0  0
  138.9340   76.5190  220.3010 C   0  0  0  0  0  0  0  0  0  0  0  0
  137.7530   77.4320  220.5260 C   0  0  0  0  0  0  0  0  0  0  0  0
  137.3200   77.0860  221.9090 C   0  0  0  0  0  0  0  0  0  0  0  0
  138.6380   76.7720  222.5730 C   0  0  2  0  0  0  0  0  0  0  0  0
  139.4650   77.9740  222.7850 C   0  0  0  0  0  0  0  0  0  0  0  0
  140.8530   77.9540  222.6670 C   0  0  0  0  0  0  0  0  0  0  0  0
  141.6200   79.0920  222.8680 C   0  0  0  0  0  0  0  0  0  0  0  0
  141.0400   80.3000  223.1960 C   0  0  0  0  0  0  0  0  0  0  0  0
  141.8190   81.4650  223.4020 N   0  0  0  0  0  4  0  0  0  0  0  0
  141.8140   82.3650  222.5490 O   0  0  0  0  0  0  0  0  0  0  0  0
  142.5980   81.6510  224.5300 O   0  0  0  0  0  1  0  0  0  0  0  0
  139.6660   80.3360  223.3160 C   0  0  0  0  0  0  0  0  0  0  0  0
  138.9070   79.1930  223.1120 C   0  0  0  0  0  0  0  0  0  0  0  0
  139.2950   70.2960  223.9850 C   0  0  0  0  0  0  0  0  0  0  0  0
  138.9440   68.9600  223.9250 C   0  0  0  0  0  0  0  0  0  0  0  0
  139.2240   68.1520  225.0160 C   0  0  0  0  0  0  0  0  0  0  0  0
  139.8390   68.6330  226.1540 C   0  0  0  0  0  0  0  0  0  0  0  0
  140.1260   67.8470  227.2460 C   0  0  0  0  0  0  0  0  0  0  0  0
  140.7420   68.4220  228.3370 C   0  0  0  0  0  0  0  0  0  0  0  0
  141.0720   69.7670  228.3450 C   0  0  0  0  0  0  0  0  0  0  0  0
  140.7930   70.5700  227.2580 C   0  0  0  0  0  0  0  0  0  0  0  0
  140.1710   69.9870  226.1600 C   0  0  0  0  0  0  0  0  0  0  0  0
  139.8930   70.7620  225.0950 N   0  0  0  0  0  0  0  0  0  0  0  0
  139.9230   72.8490  223.7500 H   0  0  0  0  0  0  0  0  0  0  0  0
  139.3898   72.8233  220.8464 H   0  0  0  0  0  0  0  0  0  0  0  0
  138.0675   73.6270  221.8184 H   0  0  0  0  0  0  0  0  0  0  0  0
  139.8079   77.1042  219.9787 H   0  0  0  0  0  0  0  0  0  0  0  0
  138.7147   75.7798  219.5165 H   0  0  0  0  0  0  0  0  0  0  0  0
  138.0516   78.4885  220.4580 H   0  0  0  0  0  0  0  0  0  0  0  0
  136.9570   77.3032  219.7778 H   0  0  0  0  0  0  0  0  0  0  0  0
  136.8179   77.9349  222.3961 H   0  0  0  0  0  0  0  0  0  0  0  0
  136.5897   76.2647  221.9558 H   0  0  0  0  0  0  0  0  0  0  0  0
  138.5591   76.3508  223.5861 H   0  0  0  0  0  0  0  0  0  0  0  0
  141.3543   77.0099  222.4074 H   0  0  0  0  0  0  0  0  0  0  0  0
  142.7133   79.0301  222.7637 H   0  0  0  0  0  0  0  0  0  0  0  0
  139.1671   81.2812  223.5762 H   0  0  0  0  0  0  0  0  0  0  0  0
  137.8140   79.2612  223.2153 H   0  0  0  0  0  0  0  0  0  0  0  0
  138.4533   68.5473  223.0312 H   0  0  0  0  0  0  0  0  0  0  0  0
  138.9458   67.0886  224.9731 H   0  0  0  0  0  0  0  0  0  0  0  0
  139.8683   66.7776  227.2485 H   0  0  0  0  0  0  0  0  0  0  0  0
  140.9752   67.8024  229.2155 H   0  0  0  0  0  0  0  0  0  0  0  0
  141.5627   70.2006  229.2289 H   0  0  0  0  0  0  0  0  0  0  0  0
  141.0547   71.6384  227.2603 H   0  0  0  0  0  0  0  0  0  0  0  0
  1  2  2  0
  2  3  1  0
  3  4  1  0
  4  5  1  0
  5  6  2  0
  5  7  1  0
  7  8  1  0
  8  9  1  0
  9 10  1  0
 10 11  1  0
 11 12  1  0
 12 13  2  0
 13 14  1  0
 14 15  2  0
 15 16  1  0
 16 17  2  0
 16 18  1  0
 15 19  1  0
 19 20  2  0
  2 21  1  0
 21 22  2  0
 22 23  1  0
 23 24  2  0
 24 25  1  0
 25 26  2  0
 26 27  1  0
 27 28  2  0
 28 29  1  0
 29 30  2  0
 11  7  1  0
 20 12  1  0
 30 21  1  0
 29 24  1  0
  3 31  1  0
  4 32  1  0
  4 33  1  0
  8 34  1  0
  8 35  1  0
  9 36  1  0
  9 37  1  0
 10 38  1  0
 10 39  1  0
 11 40  1  1
 13 41  1  0
 14 42  1  0
 19 43  1  0
 20 44  1  0
 22 45  1  0
 23 46  1  0
 25 47  1  0
 26 48  1  0
 27 49  1  0
 28 50  1  0
M  CHG  2  16   1  18  -1
M  END
>  <smiles>  (41) 
O=C(NCC(=O)N1CCCC1c1ccc([N+](=O)[O-])cc1)c1ccc2ccccc2n1

>  <score_type>  (41) 
oracle

>  <origin>  (41) 
autodockgpu

>  <m_score__min__energy>  (41) 
-9.4299999999999997

>  <m_primary>  (41) 
energy

>  <rmsd>  (41) 
2.469356107013164

>  <m_score__min__rmsd>  (41) 
2.469356107013164

>  <meeko>  (41) 
{"free_energy": -8.64, "intermolecular_energy": -10.43, "internal_energy": -1.71, "cluster_size": 30, "cluster_id": 1, "rank_in_cluster": 26}

>  <energy>  (41) 
-8.87

>  <cluster_rmsd>  (41) 
0.72

>  <cluster>  (41) 
2

$$$$

     RDKit          3D

 50 53  0  0  0  0  0  0  0  0999 V2000
  138.8390   70.6100  221.5970 O   0  0  0  0  0  0  0  0  0  0  0  0
  139.4000   71.0870  222.6070 C   0  0  0  0  0  0  0  0  0  0  0  0
  139.9090   72.4120  222.5560 N   0  0  0  0  0  0  0  0  0  0  0  0
  139.7580   73.1520  221.3360 C   0  0  0  0  0  0  0  0  0  0  0  0
  140.5590   74.3790  221.2910 C   0  0  0  0  0  0  0  0  0  0  0  0
  140.3470   75.3590  222.0510 O   0  0  0  0  0  0  0  0  0  0  0  0
  141.6290   74.5070  220.3670 N   0  0  0  0  0  0  0  0  0  0  0  0
  141.5470   74.6280  218.9270 C   0  0  0  0  0  0  0  0  0  0  0  0
  142.8170   75.3030  218.4670 C   0  0  0  0  0  0  0  0  0  0  0  0
  143.4740   75.6880  219.7470 C   0  0  0  0  0  0  0  0  0  0  0  0
  143.0730   74.5500  220.6520 C   0  0  2  0  0  0  0  0  0  0  0  0
  143.7520   73.2870  220.3070 C   0  0  0  0  0  0  0  0  0  0  0  0
  143.0690   72.0780  220.2070 C   0  0  0  0  0  0  0  0  0  0  0  0
  143.7190   70.8970  219.8810 C   0  0  0  0  0  0  0  0  0  0  0  0
  145.0780   70.8670  219.6420 C   0  0  0  0  0  0  0  0  0  0  0  0
  145.7470   69.6630  219.3090 N   0  0  0  0  0  4  0  0  0  0  0  0
  145.4940   68.6270  219.9420 O   0  0  0  0  0  0  0  0  0  0  0  0
  146.6830   69.5860  218.2930 O   0  0  0  0  0  1  0  0  0  0  0  0
  145.7680   72.0580  219.7370 C   0  0  0  0  0  0  0  0  0  0  0  0
  145.1090   73.2340  220.0630 C   0  0  0  0  0  0  0  0  0  0  0  0
  139.5500   70.3200  223.8520 C   0  0  0  0  0  0  0  0  0  0  0  0
  139.0870   69.0180  223.9080 C   0  0  0  0  0  0  0  0  0  0  0  0
  139.2370   68.3110  225.0900 C   0  0  0  0  0  0  0  0  0  0  0  0
  139.8290   68.8590  226.2090 C   0  0  0  0  0  0  0  0  0  0  0  0
  139.9880   68.1720  227.3910 C   0  0  0  0  0  0  0  0  0  0  0  0
  140.5940   68.8090  228.4540 C   0  0  0  0  0  0  0  0  0  0  0  0
  141.0400   70.1150  228.3450 C   0  0  0  0  0  0  0  0  0  0  0  0
  140.8910   70.8180  227.1670 C   0  0  0  0  0  0  0  0  0  0  0  0
  140.2790   70.1740  226.0990 C   0  0  0  0  0  0  0  0  0  0  0  0
  140.1270   70.8500  224.9440 N   0  0  0  0  0  0  0  0  0  0  0  0
  140.3730   72.7880  223.4130 H   0  0  0  0  0  0  0  0  0  0  0  0
  140.0621   72.5072  220.4983 H   0  0  0  0  0  0  0  0  0  0  0  0
  138.7021   73.4534  221.2700 H   0  0  0  0  0  0  0  0  0  0  0  0
  141.4614   73.6317  218.4686 H   0  0  0  0  0  0  0  0  0  0  0  0
  140.6631   75.2126  218.6322 H   0  0  0  0  0  0  0  0  0  0  0  0
  143.4477   74.6091  217.8919 H   0  0  0  0  0  0  0  0  0  0  0  0
  142.6362   76.1575  217.7983 H   0  0  0  0  0  0  0  0  0  0  0  0
  144.5668   75.7453  219.6352 H   0  0  0  0  0  0  0  0  0  0  0  0
  143.1783   76.6798  220.1196 H   0  0  0  0  0  0  0  0  0  0  0  0
  143.3354   74.6852  221.7117 H   0  0  0  0  0  0  0  0  0  0  0  0
  141.9848   72.0589  220.3915 H   0  0  0  0  0  0  0  0  0  0  0  0
  143.1393   69.9647  219.8115 H   0  0  0  0  0  0  0  0  0  0  0  0
  146.8522   72.0750  219.5522 H   0  0  0  0  0  0  0  0  0  0  0  0
  145.6929   74.1638  220.1299 H   0  0  0  0  0  0  0  0  0  0  0  0
  138.6097   68.5535  223.0325 H   0  0  0  0  0  0  0  0  0  0  0  0
  138.8707   67.2749  225.1379 H   0  0  0  0  0  0  0  0  0  0  0  0
  139.6381   67.1335  227.4863 H   0  0  0  0  0  0  0  0  0  0  0  0
  140.7250   68.2702  229.4040 H   0  0  0  0  0  0  0  0  0  0  0  0
  141.5195   70.5987  229.2088 H   0  0  0  0  0  0  0  0  0  0  0  0
  141.2456   71.8554  227.0765 H   0  0  0  0  0  0  0  0  0  0  0  0
  1  2  2  0
  2  3  1  0
  3  4  1  0
  4  5  1  0
  5  6  2  0
  5  7  1  0
  7  8  1  0
  8  9  1  0
  9 10  1  0
 10 11  1  0
 11 12  1  0
 12 13  2  0
 13 14  1  0
 14 15  2  0
 15 16  1  0
 16 17  2  0
 16 18  1  0
 15 19  1  0
 19 20  2  0
  2 21  1  0
 21 22  2  0
 22 23  1  0
 23 24  2  0
 24 25  1  0
 25 26  2  0
 26 27  1  0
 27 28  2  0
 28 29  1  0
 29 30  2  0
 11  7  1  0
 20 12  1  0
 30 21  1  0
 29 24  1  0
  3 31  1  0
  4 32  1  0
  4 33  1  0
  8 34  1  0
  8 35  1  0
  9 36  1  0
  9 37  1  0
 10 38  1  0
 10 39  1  0
 11 40  1  1
 13 41  1  0
 14 42  1  0
 19 43  1  0
 20 44  1  0
 22 45  1  0
 23 46  1  0
 25 47  1  0
 26 48  1  0
 27 49  1  0
 28 50  1  0
M  CHG  2  16   1  18  -1
M  END
>  <smiles>  (42) 
O=C(NCC(=O)N1CCCC1c1ccc([N+](=O)[O-])cc1)c1ccc2ccccc2n1

>  <score_type>  (42) 
oracle

>  <origin>  (42) 
autodockgpu

>  <m_score__min__energy>  (42) 
-9.4299999999999997

>  <m_primary>  (42) 
energy

>  <rmsd>  (42) 
2.1003001650633477

>  <m_score__min__rmsd>  (42) 
2.1003001650633477

>  <meeko>  (42) 
{"free_energy": -8.66, "intermolecular_energy": -10.45, "internal_energy": -1.81, "cluster_size": 17, "cluster_id": 2, "rank_in_cluster": 13}

>  <energy>  (42) 
-8.74

>  <cluster_rmsd>  (42) 
0.63

>  <cluster>  (42) 
2

$$$$

     RDKit          3D

 50 53  0  0  0  0  0  0  0  0999 V2000
  140.1180   70.9160  221.3400 O   0  0  0  0  0  0  0  0  0  0  0  0
  139.9530   71.4890  222.4380 C   0  0  0  0  0  0  0  0  0  0  0  0
  139.7630   72.8970  222.4640 N   0  0  0  0  0  0  0  0  0  0  0  0
  139.7720   73.6070  221.2170 C   0  0  0  0  0  0  0  0  0  0  0  0
  140.7030   74.7390  221.1940 C   0  0  0  0  0  0  0  0  0  0  0  0
  140.5340   75.7750  221.8880 O   0  0  0  0  0  0  0  0  0  0  0  0
  141.8570   74.7050  220.3670 N   0  0  0  0  0  0  0  0  0  0  0  0
  141.9310   74.9250  218.9380 C   0  0  0  0  0  0  0  0  0  0  0  0
  143.3440   75.3580  218.6310 C   0  0  0  0  0  0  0  0  0  0  0  0
  143.9450   75.5270  219.9830 C   0  0  0  0  0  0  0  0  0  0  0  0
  143.2490   74.4400  220.7660 C   0  0  2  0  0  0  0  0  0  0  0  0
  143.6980   73.0900  220.3780 C   0  0  0  0  0  0  0  0  0  0  0  0
  144.9860   72.8370  219.9130 C   0  0  0  0  0  0  0  0  0  0  0  0
  145.3960   71.5620  219.5520 C   0  0  0  0  0  0  0  0  0  0  0  0
  144.5410   70.4830  219.6370 C   0  0  0  0  0  0  0  0  0  0  0  0
  144.9550   69.1780  219.2690 N   0  0  0  0  0  4  0  0  0  0  0  0
  145.5710   68.4780  220.0860 O   0  0  0  0  0  0  0  0  0  0  0  0
  144.7010   68.6390  218.0210 O   0  0  0  0  0  1  0  0  0  0  0  0
  143.2610   70.7160  220.0960 C   0  0  0  0  0  0  0  0  0  0  0  0
  142.8610   71.9950  220.4550 C   0  0  0  0  0  0  0  0  0  0  0  0
  139.9470   70.7520  223.7110 C   0  0  0  0  0  0  0  0  0  0  0  0
  139.4170   69.4750  223.7530 C   0  0  0  0  0  0  0  0  0  0  0  0
  139.4190   68.7970  224.9610 C   0  0  0  0  0  0  0  0  0  0  0  0
  139.9300   69.3480  226.1180 C   0  0  0  0  0  0  0  0  0  0  0  0
  139.9420   68.6890  227.3260 C   0  0  0  0  0  0  0  0  0  0  0  0
  140.4750   69.3270  228.4270 C   0  0  0  0  0  0  0  0  0  0  0  0
  140.9930   70.6070  228.3290 C   0  0  0  0  0  0  0  0  0  0  0  0
  140.9910   71.2820  227.1250 C   0  0  0  0  0  0  0  0  0  0  0  0
  140.4520   70.6360  226.0190 C   0  0  0  0  0  0  0  0  0  0  0  0
  140.4430   71.2860  224.8400 N   0  0  0  0  0  0  0  0  0  0  0  0
  139.6270   73.3520  223.3950 H   0  0  0  0  0  0  0  0  0  0  0  0
  140.0574   72.9055  220.4193 H   0  0  0  0  0  0  0  0  0  0  0  0
  138.7616   74.0168  221.0713 H   0  0  0  0  0  0  0  0  0  0  0  0
  141.6955   73.9950  218.3999 H   0  0  0  0  0  0  0  0  0  0  0  0
  141.2079   75.6908  218.6207 H   0  0  0  0  0  0  0  0  0  0  0  0
  143.8772   74.5873  218.0551 H   0  0  0  0  0  0  0  0  0  0  0  0
  143.3939   76.2699  218.0178 H   0  0  0  0  0  0  0  0  0  0  0  0
  145.0336   75.3704  219.9602 H   0  0  0  0  0  0  0  0  0  0  0  0
  143.8160   76.5342  220.4060 H   0  0  0  0  0  0  0  0  0  0  0  0
  143.4344   74.4559  221.8501 H   0  0  0  0  0  0  0  0  0  0  0  0
  145.6980   73.6713  219.8296 H   0  0  0  0  0  0  0  0  0  0  0  0
  146.4235   71.4083  219.1907 H   0  0  0  0  0  0  0  0  0  0  0  0
  142.5510   69.8799  220.1781 H   0  0  0  0  0  0  0  0  0  0  0  0
  141.8327   72.1429  220.8165 H   0  0  0  0  0  0  0  0  0  0  0  0
  139.0031   69.0081  222.8471 H   0  0  0  0  0  0  0  0  0  0  0  0
  138.9976   67.7817  224.9992 H   0  0  0  0  0  0  0  0  0  0  0  0
  139.5337   67.6712  227.4123 H   0  0  0  0  0  0  0  0  0  0  0  0
  140.4886   68.8104  229.3981 H   0  0  0  0  0  0  0  0  0  0  0  0
  141.4118   71.0927  229.2227 H   0  0  0  0  0  0  0  0  0  0  0  0
  141.4029   72.2987  227.0436 H   0  0  0  0  0  0  0  0  0  0  0  0
  1  2  2  0
  2  3  1  0
  3  4  1  0
  4  5  1  0
  5  6  2  0
  5  7  1  0
  7  8  1  0
  8  9  1  0
  9 10  1  0
 10 11  1  0
 11 12  1  0
 12 13  2  0
 13 14  1  0
 14 15  2  0
 15 16  1  0
 16 17  2  0
 16 18  1  0
 15 19  1  0
 19 20  2  0
  2 21  1  0
 21 22  2  0
 22 23  1  0
 23 24  2  0
 24 25  1  0
 25 26  2  0
 26 27  1  0
 27 28  2  0
 28 29  1  0
 29 30  2  0
 11  7  1  0
 20 12  1  0
 30 21  1  0
 29 24  1  0
  3 31  1  0
  4 32  1  0
  4 33  1  0
  8 34  1  0
  8 35  1  0
  9 36  1  0
  9 37  1  0
 10 38  1  0
 10 39  1  0
 11 40  1  1
 13 41  1  0
 14 42  1  0
 19 43  1  0
 20 44  1  0
 22 45  1  0
 23 46  1  0
 25 47  1  0
 26 48  1  0
 27 49  1  0
 28 50  1  0
M  CHG  2  16   1  18  -1
M  END
>  <smiles>  (43) 
O=C(NCC(=O)N1CCCC1c1ccc([N+](=O)[O-])cc1)c1ccc2ccccc2n1

>  <score_type>  (43) 
oracle

>  <origin>  (43) 
autodockgpu

>  <m_score__min__energy>  (43) 
-9.4299999999999997

>  <m_primary>  (43) 
energy

>  <rmsd>  (43) 
2.2868206326270784

>  <m_score__min__rmsd>  (43) 
2.2868206326270784

>  <meeko>  (43) 
{"free_energy": -8.48, "intermolecular_energy": -10.27, "internal_energy": -1.94, "cluster_size": 17, "cluster_id": 2, "rank_in_cluster": 17}

>  <energy>  (43) 
-8.66

>  <cluster_rmsd>  (43) 
0.87

>  <cluster>  (43) 
2

$$$$

     RDKit          3D

 50 53  0  0  0  0  0  0  0  0999 V2000
  139.4310   71.2580  221.2860 O   0  0  0  0  0  0  0  0  0  0  0  0
  139.5700   71.8990  222.3500 C   0  0  0  0  0  0  0  0  0  0  0  0
  139.4990   73.3180  222.3190 N   0  0  0  0  0  0  0  0  0  0  0  0
  139.2720   73.9600  221.0560 C   0  0  0  0  0  0  0  0  0  0  0  0
  140.3610   73.7660  220.0950 C   0  0  0  0  0  0  0  0  0  0  0  0
  140.3850   72.8120  219.2750 O   0  0  0  0  0  0  0  0  0  0  0  0
  141.4550   74.6710  220.0550 N   0  0  0  0  0  0  0  0  0  0  0  0
  142.7920   74.4680  220.5700 C   0  0  0  0  0  0  0  0  0  0  0  0
  143.7050   75.3980  219.8080 C   0  0  0  0  0  0  0  0  0  0  0  0
  142.8110   75.9560  218.7550 C   0  0  0  0  0  0  0  0  0  0  0  0
  141.4890   76.0250  219.4790 C   0  0  2  0  0  0  0  0  0  0  0  0
  141.4660   77.0760  220.5130 C   0  0  0  0  0  0  0  0  0  0  0  0
  141.8570   78.3870  220.2510 C   0  0  0  0  0  0  0  0  0  0  0  0
  141.8300   79.3670  221.2320 C   0  0  0  0  0  0  0  0  0  0  0  0
  141.4140   79.0850  222.5180 C   0  0  0  0  0  0  0  0  0  0  0  0
  141.3850   80.0830  223.5240 N   0  0  0  0  0  4  0  0  0  0  0  0
  140.3040   80.5950  223.8470 O   0  0  0  0  0  0  0  0  0  0  0  0
  142.5260   80.5200  224.1740 O   0  0  0  0  0  1  0  0  0  0  0  0
  141.0240   77.7910  222.7930 C   0  0  0  0  0  0  0  0  0  0  0  0
  141.0540   76.8180  221.8040 C   0  0  0  0  0  0  0  0  0  0  0  0
  139.8040   71.2310  223.6390 C   0  0  0  0  0  0  0  0  0  0  0  0
  139.4950   69.8900  223.7750 C   0  0  0  0  0  0  0  0  0  0  0  0
  139.7220   69.2790  224.9980 C   0  0  0  0  0  0  0  0  0  0  0  0
  140.2440   69.9580  226.0790 C   0  0  0  0  0  0  0  0  0  0  0  0
  140.4770   69.3670  227.3000 C   0  0  0  0  0  0  0  0  0  0  0  0
  141.0020   70.1330  228.3200 C   0  0  0  0  0  0  0  0  0  0  0  0
  141.2940   71.4730  228.1310 C   0  0  0  0  0  0  0  0  0  0  0  0
  141.0680   72.0810  226.9130 C   0  0  0  0  0  0  0  0  0  0  0  0
  140.5380   71.3070  225.8870 C   0  0  0  0  0  0  0  0  0  0  0  0
  140.3130   71.8900  224.6950 N   0  0  0  0  0  0  0  0  0  0  0  0
  139.6190   73.8300  223.2220 H   0  0  0  0  0  0  0  0  0  0  0  0
  138.3474   73.5534  220.6205 H   0  0  0  0  0  0  0  0  0  0  0  0
  139.2028   75.0403  221.2512 H   0  0  0  0  0  0  0  0  0  0  0  0
  142.8230   74.7044  221.6439 H   0  0  0  0  0  0  0  0  0  0  0  0
  143.1057   73.4211  220.4454 H   0  0  0  0  0  0  0  0  0  0  0  0
  144.0924   76.1943  220.4606 H   0  0  0  0  0  0  0  0  0  0  0  0
  144.5941   74.8949  219.4001 H   0  0  0  0  0  0  0  0  0  0  0  0
  143.1445   76.9538  218.4337 H   0  0  0  0  0  0  0  0  0  0  0  0
  142.7830   75.3590  217.8315 H   0  0  0  0  0  0  0  0  0  0  0  0
  140.6265   76.2855  218.8479 H   0  0  0  0  0  0  0  0  0  0  0  0
  142.1963   78.6522  219.2388 H   0  0  0  0  0  0  0  0  0  0  0  0
  142.1465   80.3900  220.9803 H   0  0  0  0  0  0  0  0  0  0  0  0
  140.6859   77.5277  223.8061 H   0  0  0  0  0  0  0  0  0  0  0  0
  140.7355   75.7969  222.0606 H   0  0  0  0  0  0  0  0  0  0  0  0
  139.0782   69.3208  222.9310 H   0  0  0  0  0  0  0  0  0  0  0  0
  139.4767   68.2126  225.1108 H   0  0  0  0  0  0  0  0  0  0  0  0
  140.2487   68.3029  227.4596 H   0  0  0  0  0  0  0  0  0  0  0  0
  141.1919   69.6713  229.3002 H   0  0  0  0  0  0  0  0  0  0  0  0
  141.7114   72.0604  228.9621 H   0  0  0  0  0  0  0  0  0  0  0  0
  141.3000   73.1451  226.7587 H   0  0  0  0  0  0  0  0  0  0  0  0
  1  2  2  0
  2  3  1  0
  3  4  1  0
  4  5  1  0
  5  6  2  0
  5  7  1  0
  7  8  1  0
  8  9  1  0
  9 10  1  0
 10 11  1  0
 11 12  1  0
 12 13  2  0
 13 14  1  0
 14 15  2  0
 15 16  1  0
 16 17  2  0
 16 18  1  0
 15 19  1  0
 19 20  2  0
  2 21  1  0
 21 22  2  0
 22 23  1  0
 23 24  2  0
 24 25  1  0
 25 26  2  0
 26 27  1  0
 27 28  2  0
 28 29  1  0
 29 30  2  0
 11  7  1  0
 20 12  1  0
 30 21  1  0
 29 24  1  0
  3 31  1  0
  4 32  1  0
  4 33  1  0
  8 34  1  0
  8 35  1  0
  9 36  1  0
  9 37  1  0
 10 38  1  0
 10 39  1  0
 11 40  1  6
 13 41  1  0
 14 42  1  0
 19 43  1  0
 20 44  1  0
 22 45  1  0
 23 46  1  0
 25 47  1  0
 26 48  1  0
 27 49  1  0
 28 50  1  0
M  CHG  2  16   1  18  -1
M  END
>  <smiles>  (44) 
O=C(NCC(=O)N1CCCC1c1ccc([N+](=O)[O-])cc1)c1ccc2ccccc2n1

>  <score_type>  (44) 
oracle

>  <origin>  (44) 
autodockgpu

>  <m_score__min__energy>  (44) 
-9.4299999999999997

>  <m_primary>  (44) 
energy

>  <rmsd>  (44) 
2.2837734286306954

>  <m_score__min__rmsd>  (44) 
2.2837734286306954

>  <meeko>  (44) 
{"free_energy": -8.66, "intermolecular_energy": -10.45, "internal_energy": -1.69, "cluster_size": 30, "cluster_id": 1, "rank_in_cluster": 24}

>  <energy>  (44) 
-8.61

>  <cluster_rmsd>  (44) 
1.81

>  <cluster>  (44) 
2

$$$$

     RDKit          3D

 50 53  0  0  0  0  0  0  0  0999 V2000
  140.3040   71.2540  221.4030 O   0  0  0  0  0  0  0  0  0  0  0  0
  139.6570   71.6080  222.4110 C   0  0  0  0  0  0  0  0  0  0  0  0
  138.7730   72.7170  222.3130 N   0  0  0  0  0  0  0  0  0  0  0  0
  138.6620   73.3880  221.0500 C   0  0  0  0  0  0  0  0  0  0  0  0
  138.7070   74.8490  221.1570 C   0  0  0  0  0  0  0  0  0  0  0  0
  137.8050   75.5200  221.7220 O   0  0  0  0  0  0  0  0  0  0  0  0
  139.7990   75.5770  220.6150 N   0  0  0  0  0  0  0  0  0  0  0  0
  139.8970   76.1820  219.3030 C   0  0  0  0  0  0  0  0  0  0  0  0
  140.9240   77.2850  219.4010 C   0  0  0  0  0  0  0  0  0  0  0  0
  141.2170   77.3420  220.8600 C   0  0  0  0  0  0  0  0  0  0  0  0
  141.0870   75.8910  221.2560 C   0  0  2  0  0  0  0  0  0  0  0  0
  142.1910   75.0630  220.7360 C   0  0  0  0  0  0  0  0  0  0  0  0
  142.1940   73.6740  220.8420 C   0  0  0  0  0  0  0  0  0  0  0  0
  143.2380   72.9060  220.3490 C   0  0  0  0  0  0  0  0  0  0  0  0
  144.3250   73.4860  219.7280 C   0  0  0  0  0  0  0  0  0  0  0  0
  145.3940   72.7050  219.2230 N   0  0  0  0  0  4  0  0  0  0  0  0
  145.5780   72.6380  217.9990 O   0  0  0  0  0  0  0  0  0  0  0  0
  146.2590   72.0030  220.0440 O   0  0  0  0  0  1  0  0  0  0  0  0
  144.3370   74.8610  219.6150 C   0  0  0  0  0  0  0  0  0  0  0  0
  143.2870   75.6200  220.1110 C   0  0  0  0  0  0  0  0  0  0  0  0
  139.7790   70.9140  223.7020 C   0  0  0  0  0  0  0  0  0  0  0  0
  139.3880   69.5910  223.8000 C   0  0  0  0  0  0  0  0  0  0  0  0
  139.5100   68.9540  225.0240 C   0  0  0  0  0  0  0  0  0  0  0  0
  140.0060   69.5900  226.1440 C   0  0  0  0  0  0  0  0  0  0  0  0
  140.1350   68.9730  227.3670 C   0  0  0  0  0  0  0  0  0  0  0  0
  140.6420   69.6960  228.4260 C   0  0  0  0  0  0  0  0  0  0  0  0
  141.0190   71.0200  228.2730 C   0  0  0  0  0  0  0  0  0  0  0  0
  140.8980   71.6540  227.0530 C   0  0  0  0  0  0  0  0  0  0  0  0
  140.3860   70.9220  225.9890 C   0  0  0  0  0  0  0  0  0  0  0  0
  140.2620   71.5310  224.7940 N   0  0  0  0  0  0  0  0  0  0  0  0
  138.2440   72.9940  223.1710 H   0  0  0  0  0  0  0  0  0  0  0  0
  139.4928   73.0604  220.4078 H   0  0  0  0  0  0  0  0  0  0  0  0
  137.6801   73.1250  220.6296 H   0  0  0  0  0  0  0  0  0  0  0  0
  140.2170   75.4324  218.5643 H   0  0  0  0  0  0  0  0  0  0  0  0
  138.9235   76.5796  218.9803 H   0  0  0  0  0  0  0  0  0  0  0  0
  141.8279   77.0357  218.8258 H   0  0  0  0  0  0  0  0  0  0  0  0
  140.5710   78.2433  218.9922 H   0  0  0  0  0  0  0  0  0  0  0  0
  142.2323   77.7201  221.0505 H   0  0  0  0  0  0  0  0  0  0  0  0
  140.5563   78.0188  221.4217 H   0  0  0  0  0  0  0  0  0  0  0  0
  141.1282   75.6989  222.3383 H   0  0  0  0  0  0  0  0  0  0  0  0
  141.3451   73.1728  221.3300 H   0  0  0  0  0  0  0  0  0  0  0  0
  143.1988   71.8118  220.4552 H   0  0  0  0  0  0  0  0  0  0  0  0
  145.1872   75.3601  219.1270 H   0  0  0  0  0  0  0  0  0  0  0  0
  143.3305   76.7136  220.0010 H   0  0  0  0  0  0  0  0  0  0  0  0
  138.9890   69.0564  222.9253 H   0  0  0  0  0  0  0  0  0  0  0  0
  139.1999   67.9018  225.1064 H   0  0  0  0  0  0  0  0  0  0  0  0
  139.8389   67.9217  227.4976 H   0  0  0  0  0  0  0  0  0  0  0  0
  140.7488   69.2133  229.4086 H   0  0  0  0  0  0  0  0  0  0  0  0
  141.4200   71.5733  229.1350 H   0  0  0  0  0  0  0  0  0  0  0  0
  141.1973   72.7050  226.9272 H   0  0  0  0  0  0  0  0  0  0  0  0
  1  2  2  0
  2  3  1  0
  3  4  1  0
  4  5  1  0
  5  6  2  0
  5  7  1  0
  7  8  1  0
  8  9  1  0
  9 10  1  0
 10 11  1  0
 11 12  1  0
 12 13  2  0
 13 14  1  0
 14 15  2  0
 15 16  1  0
 16 17  2  0
 16 18  1  0
 15 19  1  0
 19 20  2  0
  2 21  1  0
 21 22  2  0
 22 23  1  0
 23 24  2  0
 24 25  1  0
 25 26  2  0
 26 27  1  0
 27 28  2  0
 28 29  1  0
 29 30  2  0
 11  7  1  0
 20 12  1  0
 30 21  1  0
 29 24  1  0
  3 31  1  0
  4 32  1  0
  4 33  1  0
  8 34  1  0
  8 35  1  0
  9 36  1  0
  9 37  1  0
 10 38  1  0
 10 39  1  0
 11 40  1  1
 13 41  1  0
 14 42  1  0
 19 43  1  0
 20 44  1  0
 22 45  1  0
 23 46  1  0
 25 47  1  0
 26 48  1  0
 27 49  1  0
 28 50  1  0
M  CHG  2  16   1  18  -1
M  END
>  <smiles>  (45) 
O=C(NCC(=O)N1CCCC1c1ccc([N+](=O)[O-])cc1)c1ccc2ccccc2n1

>  <score_type>  (45) 
oracle

>  <origin>  (45) 
autodockgpu

>  <m_score__min__energy>  (45) 
-9.4299999999999997

>  <m_primary>  (45) 
energy

>  <rmsd>  (45) 
1.6330142771601317

>  <m_score__min__rmsd>  (45) 
1.6330142771601317

>  <meeko>  (45) 
{"free_energy": -8.53, "intermolecular_energy": -10.32, "internal_energy": -1.65, "cluster_size": 17, "cluster_id": 2, "rank_in_cluster": 16}

>  <energy>  (45) 
-8.6

>  <cluster_rmsd>  (45) 
1.63

>  <cluster>  (45) 
2

$$$$

     RDKit          3D

 50 53  0  0  0  0  0  0  0  0999 V2000
  140.5740   71.7310  221.8770 O   0  0  0  0  0  0  0  0  0  0  0  0
  139.7000   71.7170  222.7710 C   0  0  0  0  0  0  0  0  0  0  0  0
  138.6220   72.6390  222.6990 N   0  0  0  0  0  0  0  0  0  0  0  0
  138.5820   73.5560  221.5960 C   0  0  0  0  0  0  0  0  0  0  0  0
  139.5820   74.6230  221.6850 C   0  0  0  0  0  0  0  0  0  0  0  0
  140.7790   74.4110  222.0100 O   0  0  0  0  0  0  0  0  0  0  0  0
  139.2270   75.9680  221.3980 N   0  0  0  0  0  0  0  0  0  0  0  0
  139.3230   76.6590  220.1290 C   0  0  0  0  0  0  0  0  0  0  0  0
  138.3310   77.7970  220.1700 C   0  0  0  0  0  0  0  0  0  0  0  0
  137.5920   77.5520  221.4400 C   0  0  0  0  0  0  0  0  0  0  0  0
  138.6750   76.9760  222.3190 C   0  0  2  0  0  0  0  0  0  0  0  0
  139.6770   77.9830  222.7160 C   0  0  0  0  0  0  0  0  0  0  0  0
  139.3220   79.2690  223.1140 C   0  0  0  0  0  0  0  0  0  0  0  0
  140.2740   80.2070  223.4850 C   0  0  0  0  0  0  0  0  0  0  0  0
  141.6200   79.9060  223.4760 C   0  0  0  0  0  0  0  0  0  0  0  0
  142.5970   80.8610  223.8540 N   0  0  0  0  0  4  0  0  0  0  0  0
  142.2470   81.8930  224.4470 O   0  0  0  0  0  0  0  0  0  0  0  0
  143.9440   80.6950  223.5900 O   0  0  0  0  0  1  0  0  0  0  0  0
  141.9880   78.6350  223.0840 C   0  0  0  0  0  0  0  0  0  0  0  0
  141.0280   77.7040  222.7150 C   0  0  0  0  0  0  0  0  0  0  0  0
  139.7510   70.7750  223.8980 C   0  0  0  0  0  0  0  0  0  0  0  0
  139.1820   69.5210  223.7610 C   0  0  0  0  0  0  0  0  0  0  0  0
  139.2390   68.6470  224.8340 C   0  0  0  0  0  0  0  0  0  0  0  0
  139.8400   68.9820  226.0300 C   0  0  0  0  0  0  0  0  0  0  0  0
  139.9070   68.1270  227.1060 C   0  0  0  0  0  0  0  0  0  0  0  0
  140.5300   68.5560  228.2590 C   0  0  0  0  0  0  0  0  0  0  0  0
  141.0840   69.8220  228.3440 C   0  0  0  0  0  0  0  0  0  0  0  0
  141.0270   70.6920  227.2740 C   0  0  0  0  0  0  0  0  0  0  0  0
  140.3980   70.2570  226.1140 C   0  0  0  0  0  0  0  0  0  0  0  0
  140.3360   71.0980  225.0640 N   0  0  0  0  0  0  0  0  0  0  0  0
  137.9040   72.6080  223.4590 H   0  0  0  0  0  0  0  0  0  0  0  0
  138.7568   72.9919  220.6680 H   0  0  0  0  0  0  0  0  0  0  0  0
  137.5933   74.0378  221.6122 H   0  0  0  0  0  0  0  0  0  0  0  0
  140.3413   77.0504  219.9880 H   0  0  0  0  0  0  0  0  0  0  0  0
  139.1047   75.9777  219.2934 H   0  0  0  0  0  0  0  0  0  0  0  0
  138.8453   78.7691  220.1931 H   0  0  0  0  0  0  0  0  0  0  0  0
  137.6757   77.8327  219.2872 H   0  0  0  0  0  0  0  0  0  0  0  0
  137.1919   78.4876  221.8579 H   0  0  0  0  0  0  0  0  0  0  0  0
  136.7146   76.8983  221.3267 H   0  0  0  0  0  0  0  0  0  0  0  0
  138.3282   76.5843  223.2866 H   0  0  0  0  0  0  0  0  0  0  0  0
  138.2583   79.5486  223.1348 H   0  0  0  0  0  0  0  0  0  0  0  0
  139.9488   81.2118  223.7928 H   0  0  0  0  0  0  0  0  0  0  0  0
  143.0523   78.3576  223.0640 H   0  0  0  0  0  0  0  0  0  0  0  0
  141.3582   76.7005  222.4085 H   0  0  0  0  0  0  0  0  0  0  0  0
  138.6950   69.2247  222.8203 H   0  0  0  0  0  0  0  0  0  0  0  0
  138.7885   67.6490  224.7288 H   0  0  0  0  0  0  0  0  0  0  0  0
  139.4711   67.1187  227.0475 H   0  0  0  0  0  0  0  0  0  0  0  0
  140.5878   67.8811  229.1257 H   0  0  0  0  0  0  0  0  0  0  0  0
  141.5756   70.1384  229.2758 H   0  0  0  0  0  0  0  0  0  0  0  0
  141.4660   71.6986  227.3377 H   0  0  0  0  0  0  0  0  0  0  0  0
  1  2  2  0
  2  3  1  0
  3  4  1  0
  4  5  1  0
  5  6  2  0
  5  7  1  0
  7  8  1  0
  8  9  1  0
  9 10  1  0
 10 11  1  0
 11 12  1  0
 12 13  2  0
 13 14  1  0
 14 15  2  0
 15 16  1  0
 16 17  2  0
 16 18  1  0
 15 19  1  0
 19 20  2  0
  2 21  1  0
 21 22  2  0
 22 23  1  0
 23 24  2  0
 24 25  1  0
 25 26  2  0
 26 27  1  0
 27 28  2  0
 28 29  1  0
 29 30  2  0
 11  7  1  0
 20 12  1  0
 30 21  1  0
 29 24  1  0
  3 31  1  0
  4 32  1  0
  4 33  1  0
  8 34  1  0
  8 35  1  0
  9 36  1  0
  9 37  1  0
 10 38  1  0
 10 39  1  0
 11 40  1  1
 13 41  1  0
 14 42  1  0
 19 43  1  0
 20 44  1  0
 22 45  1  0
 23 46  1  0
 25 47  1  0
 26 48  1  0
 27 49  1  0
 28 50  1  0
M  CHG  2  16   1  18  -1
M  END
>  <smiles>  (46) 
O=C(NCC(=O)N1CCCC1c1ccc([N+](=O)[O-])cc1)c1ccc2ccccc2n1

>  <score_type>  (46) 
oracle

>  <origin>  (46) 
autodockgpu

>  <m_score__min__energy>  (46) 
-9.4299999999999997

>  <m_primary>  (46) 
energy

>  <rmsd>  (46) 
2.291625374324332

>  <m_score__min__rmsd>  (46) 
2.291625374324332

>  <meeko>  (46) 
{"free_energy": -9.43, "intermolecular_energy": -11.22, "internal_energy": -1.3, "cluster_size": 30, "cluster_id": 1, "rank_in_cluster": 1}

>  <energy>  (46) 
-8.53

>  <cluster_rmsd>  (46) 
1.65

>  <cluster>  (46) 
2

$$$$

     RDKit          3D

 50 53  0  0  0  0  0  0  0  0999 V2000
  138.6470   70.2160  221.4810 O   0  0  0  0  0  0  0  0  0  0  0  0
  138.9130   70.9960  222.4210 C   0  0  0  0  0  0  0  0  0  0  0  0
  138.8050   72.3970  222.2100 N   0  0  0  0  0  0  0  0  0  0  0  0
  138.3950   72.8610  220.9160 C   0  0  0  0  0  0  0  0  0  0  0  0
  138.3360   74.3210  220.8070 C   0  0  0  0  0  0  0  0  0  0  0  0
  137.4320   75.0090  221.3470 O   0  0  0  0  0  0  0  0  0  0  0  0
  139.3240   75.0290  220.0720 N   0  0  0  0  0  0  0  0  0  0  0  0
  139.4930   75.0790  218.6350 C   0  0  0  0  0  0  0  0  0  0  0  0
  140.2430   76.3510  218.3220 C   0  0  0  0  0  0  0  0  0  0  0  0
  140.2930   77.0430  219.6400 C   0  0  0  0  0  0  0  0  0  0  0  0
  140.4070   75.8790  220.5940 C   0  0  2  0  0  0  0  0  0  0  0  0
  141.7230   75.2180  220.5240 C   0  0  0  0  0  0  0  0  0  0  0  0
  141.9070   73.8840  220.8810 C   0  0  0  0  0  0  0  0  0  0  0  0
  143.1510   73.2740  220.8110 C   0  0  0  0  0  0  0  0  0  0  0  0
  144.2660   73.9650  220.3840 C   0  0  0  0  0  0  0  0  0  0  0  0
  145.5390   73.3460  220.3110 N   0  0  0  0  0  4  0  0  0  0  0  0
  146.3000   73.3930  221.2880 O   0  0  0  0  0  0  0  0  0  0  0  0
  145.9810   72.6790  219.1820 O   0  0  0  0  0  1  0  0  0  0  0  0
  144.1000   75.2870  220.0270 C   0  0  0  0  0  0  0  0  0  0  0  0
  142.8520   75.8880  220.0990 C   0  0  0  0  0  0  0  0  0  0  0  0
  139.3340   70.5110  223.7430 C   0  0  0  0  0  0  0  0  0  0  0  0
  139.1610   69.1760  224.0630 C   0  0  0  0  0  0  0  0  0  0  0  0
  139.5630   68.7380  225.3140 C   0  0  0  0  0  0  0  0  0  0  0  0
  140.1280   69.5820  226.2480 C   0  0  0  0  0  0  0  0  0  0  0  0
  140.5340   69.1640  227.4950 C   0  0  0  0  0  0  0  0  0  0  0  0
  141.0880   70.0870  228.3580 C   0  0  0  0  0  0  0  0  0  0  0  0
  141.2390   71.4120  227.9870 C   0  0  0  0  0  0  0  0  0  0  0  0
  140.8380   71.8480  226.7400 C   0  0  0  0  0  0  0  0  0  0  0  0
  140.2800   70.9160  225.8740 C   0  0  0  0  0  0  0  0  0  0  0  0
  139.8850   71.3310  224.6550 N   0  0  0  0  0  0  0  0  0  0  0  0
  139.0330   73.0280  223.0110 H   0  0  0  0  0  0  0  0  0  0  0  0
  139.1101   72.4853  220.1694 H   0  0  0  0  0  0  0  0  0  0  0  0
  137.3757   72.4838  220.7465 H   0  0  0  0  0  0  0  0  0  0  0  0
  140.0689   74.2069  218.2919 H   0  0  0  0  0  0  0  0  0  0  0  0
  138.5187   75.0625  218.1247 H   0  0  0  0  0  0  0  0  0  0  0  0
  141.2554   76.1322  217.9516 H   0  0  0  0  0  0  0  0  0  0  0  0
  139.7664   76.9527  217.5341 H   0  0  0  0  0  0  0  0  0  0  0  0
  141.1673   77.7067  219.7113 H   0  0  0  0  0  0  0  0  0  0  0  0
  139.4292   77.6959  219.8341 H   0  0  0  0  0  0  0  0  0  0  0  0
  140.3230   76.1410  221.6590 H   0  0  0  0  0  0  0  0  0  0  0  0
  141.0426   73.2986  221.2277 H   0  0  0  0  0  0  0  0  0  0  0  0
  143.2503   72.2178  221.1019 H   0  0  0  0  0  0  0  0  0  0  0  0
  144.9662   75.8706  219.6817 H   0  0  0  0  0  0  0  0  0  0  0  0
  142.7583   76.9438  219.8048 H   0  0  0  0  0  0  0  0  0  0  0  0
  138.7141   68.4779  223.3398 H   0  0  0  0  0  0  0  0  0  0  0  0
  139.4267   67.6776  225.5726 H   0  0  0  0  0  0  0  0  0  0  0  0
  140.4188   68.1129  227.7981 H   0  0  0  0  0  0  0  0  0  0  0  0
  141.4151   69.7646  229.3575 H   0  0  0  0  0  0  0  0  0  0  0  0
  141.6842   72.1267  228.6948 H   0  0  0  0  0  0  0  0  0  0  0  0
  140.9566   72.9001  226.4416 H   0  0  0  0  0  0  0  0  0  0  0  0
  1  2  2  0
  2  3  1  0
  3  4  1  0
  4  5  1  0
  5  6  2  0
  5  7  1  0
  7  8  1  0
  8  9  1  0
  9 10  1  0
 10 11  1  0
 11 12  1  0
 12 13  2  0
 13 14  1  0
 14 15  2  0
 15 16  1  0
 16 17  2  0
 16 18  1  0
 15 19  1  0
 19 20  2  0
  2 21  1  0
 21 22  2  0
 22 23  1  0
 23 24  2  0
 24 25  1  0
 25 26  2  0
 26 27  1  0
 27 28  2  0
 28 29  1  0
 29 30  2  0
 11  7  1  0
 20 12  1  0
 30 21  1  0
 29 24  1  0
  3 31  1  0
  4 32  1  0
  4 33  1  0
  8 34  1  0
  8 35  1  0
  9 36  1  0
  9 37  1  0
 10 38  1  0
 10 39  1  0
 11 40  1  1
 13 41  1  0
 14 42  1  0
 19 43  1  0
 20 44  1  0
 22 45  1  0
 23 46  1  0
 25 47  1  0
 26 48  1  0
 27 49  1  0
 28 50  1  0
M  CHG  2  16   1  18  -1
M  END
>  <smiles>  (47) 
O=C(NCC(=O)N1CCCC1c1ccc([N+](=O)[O-])cc1)c1ccc2ccccc2n1

>  <score_type>  (47) 
oracle

>  <origin>  (47) 
autodockgpu

>  <m_score__min__energy>  (47) 
-9.4299999999999997

>  <m_primary>  (47) 
energy

>  <rmsd>  (47) 
1.3369038205211488

>  <m_score__min__rmsd>  (47) 
1.3369038205211488

>  <meeko>  (47) 
{"free_energy": -8.39, "intermolecular_energy": -10.18, "internal_energy": -1.8, "cluster_size": 2, "cluster_id": 3, "rank_in_cluster": 1}

>  <energy>  (47) 
-8.48

>  <cluster_rmsd>  (47) 
0.76

>  <cluster>  (47) 
2

$$$$

     RDKit          3D

 50 53  0  0  0  0  0  0  0  0999 V2000
  141.2370   71.6610  222.0280 O   0  0  0  0  0  0  0  0  0  0  0  0
  140.3750   71.8560  222.9120 C   0  0  0  0  0  0  0  0  0  0  0  0
  139.2890   72.7300  222.6400 N   0  0  0  0  0  0  0  0  0  0  0  0
  139.2280   73.3580  221.3520 C   0  0  0  0  0  0  0  0  0  0  0  0
  139.2960   74.8210  221.4090 C   0  0  0  0  0  0  0  0  0  0  0  0
  138.3860   75.5270  221.9150 O   0  0  0  0  0  0  0  0  0  0  0  0
  140.4220   75.5100  220.8840 N   0  0  0  0  0  0  0  0  0  0  0  0
  141.7920   75.0480  220.8170 C   0  0  0  0  0  0  0  0  0  0  0  0
  142.4650   75.8180  219.7070 C   0  0  0  0  0  0  0  0  0  0  0  0
  141.3350   76.5650  219.0850 C   0  0  0  0  0  0  0  0  0  0  0  0
  140.4620   76.8530  220.2820 C   0  0  2  0  0  0  0  0  0  0  0  0
  141.0550   77.8560  221.1850 C   0  0  0  0  0  0  0  0  0  0  0  0
  141.0940   77.6850  222.5670 C   0  0  0  0  0  0  0  0  0  0  0  0
  141.6550   78.6360  223.4060 C   0  0  0  0  0  0  0  0  0  0  0  0
  142.2010   79.8000  222.9070 C   0  0  0  0  0  0  0  0  0  0  0  0
  142.7750   80.7750  223.7610 N   0  0  0  0  0  4  0  0  0  0  0  0
  144.0090   80.8660  223.8440 O   0  0  0  0  0  0  0  0  0  0  0  0
  142.0120   81.6460  224.5180 O   0  0  0  0  0  1  0  0  0  0  0  0
  142.1710   79.9850  221.5400 C   0  0  0  0  0  0  0  0  0  0  0  0
  141.6090   79.0270  220.7100 C   0  0  0  0  0  0  0  0  0  0  0  0
  140.4480   71.2080  224.2300 C   0  0  0  0  0  0  0  0  0  0  0  0
  140.9980   71.8960  225.2960 C   0  0  0  0  0  0  0  0  0  0  0  0
  141.0580   71.2690  226.5300 C   0  0  0  0  0  0  0  0  0  0  0  0
  140.5900   69.9870  226.7320 C   0  0  0  0  0  0  0  0  0  0  0  0
  140.6410   69.3490  227.9500 C   0  0  0  0  0  0  0  0  0  0  0  0
  140.1470   68.0650  228.0490 C   0  0  0  0  0  0  0  0  0  0  0  0
  139.6050   67.4200  226.9490 C   0  0  0  0  0  0  0  0  0  0  0  0
  139.5460   68.0460  225.7210 C   0  0  0  0  0  0  0  0  0  0  0  0
  140.0450   69.3390  225.6240 C   0  0  0  0  0  0  0  0  0  0  0  0
  139.9930   69.9590  224.4300 N   0  0  0  0  0  0  0  0  0  0  0  0
  138.5820   72.8760  223.3960 H   0  0  0  0  0  0  0  0  0  0  0  0
  140.0716   72.9939  220.7472 H   0  0  0  0  0  0  0  0  0  0  0  0
  138.2543   73.0971  220.9116 H   0  0  0  0  0  0  0  0  0  0  0  0
  142.3022   75.2396  221.7725 H   0  0  0  0  0  0  0  0  0  0  0  0
  141.8318   73.9659  220.6234 H   0  0  0  0  0  0  0  0  0  0  0  0
  143.2225   76.5080  220.1072 H   0  0  0  0  0  0  0  0  0  0  0  0
  143.0024   75.1734  218.9959 H   0  0  0  0  0  0  0  0  0  0  0  0
  141.6822   77.4940  218.6093 H   0  0  0  0  0  0  0  0  0  0  0  0
  140.8238   76.0136  218.2821 H   0  0  0  0  0  0  0  0  0  0  0  0
  139.4796   77.2884  220.0467 H   0  0  0  0  0  0  0  0  0  0  0  0
  140.6680   76.7702  223.0049 H   0  0  0  0  0  0  0  0  0  0  0  0
  141.6647   78.4584  224.4915 H   0  0  0  0  0  0  0  0  0  0  0  0
  142.5969   80.9010  221.1046 H   0  0  0  0  0  0  0  0  0  0  0  0
  141.6046   79.2085  219.6251 H   0  0  0  0  0  0  0  0  0  0  0  0
  141.3798   72.9195  225.1670 H   0  0  0  0  0  0  0  0  0  0  0  0
  141.4949   71.8135  227.3801 H   0  0  0  0  0  0  0  0  0  0  0  0
  141.0681   69.8539  228.8290 H   0  0  0  0  0  0  0  0  0  0  0  0
  140.1839   67.5444  229.0173 H   0  0  0  0  0  0  0  0  0  0  0  0
  139.2170   66.3963  227.0561 H   0  0  0  0  0  0  0  0  0  0  0  0
  139.1170   67.5369  224.8454 H   0  0  0  0  0  0  0  0  0  0  0  0
  1  2  2  0
  2  3  1  0
  3  4  1  0
  4  5  1  0
  5  6  2  0
  5  7  1  0
  7  8  1  0
  8  9  1  0
  9 10  1  0
 10 11  1  0
 11 12  1  0
 12 13  2  0
 13 14  1  0
 14 15  2  0
 15 16  1  0
 16 17  2  0
 16 18  1  0
 15 19  1  0
 19 20  2  0
  2 21  1  0
 21 22  2  0
 22 23  1  0
 23 24  2  0
 24 25  1  0
 25 26  2  0
 26 27  1  0
 27 28  2  0
 28 29  1  0
 29 30  2  0
 11  7  1  0
 20 12  1  0
 30 21  1  0
 29 24  1  0
  3 31  1  0
  4 32  1  0
  4 33  1  0
  8 34  1  0
  8 35  1  0
  9 36  1  0
  9 37  1  0
 10 38  1  0
 10 39  1  0
 11 40  1  6
 13 41  1  0
 14 42  1  0
 19 43  1  0
 20 44  1  0
 22 45  1  0
 23 46  1  0
 25 47  1  0
 26 48  1  0
 27 49  1  0
 28 50  1  0
M  CHG  2  16   1  18  -1
M  END
>  <smiles>  (48) 
O=C(NCC(=O)N1CCCC1c1ccc([N+](=O)[O-])cc1)c1ccc2ccccc2n1

>  <score_type>  (48) 
oracle

>  <origin>  (48) 
autodockgpu

>  <m_score__min__energy>  (48) 
-9.4299999999999997

>  <m_primary>  (48) 
energy

>  <rmsd>  (48) 
2.9898632044707494

>  <m_score__min__rmsd>  (48) 
2.9898632044707494

>  <meeko>  (48) 
{"free_energy": -9.21, "intermolecular_energy": -11.0, "internal_energy": -1.49, "cluster_size": 30, "cluster_id": 1, "rank_in_cluster": 7}

>  <energy>  (48) 
-8.39

>  <cluster_rmsd>  (48) 
0.0

>  <cluster>  (48) 
3

$$$$

     RDKit          3D

 50 53  0  0  0  0  0  0  0  0999 V2000
  137.6130   75.8450  222.5940 O   0  0  0  0  0  0  0  0  0  0  0  0
  138.8020   76.1630  222.3750 C   0  0  0  0  0  0  0  0  0  0  0  0
  139.6750   75.2130  221.7800 N   0  0  0  0  0  0  0  0  0  0  0  0
  139.1510   73.9170  221.4560 C   0  0  0  0  0  0  0  0  0  0  0  0
  139.7970   72.8240  222.1860 C   0  0  0  0  0  0  0  0  0  0  0  0
  141.0290   72.8070  222.4400 O   0  0  0  0  0  0  0  0  0  0  0  0
  139.0350   71.7170  222.6470 N   0  0  0  0  0  0  0  0  0  0  0  0
  137.6490   71.7070  223.0630 C   0  0  0  0  0  0  0  0  0  0  0  0
  137.1480   70.2920  222.8980 C   0  0  0  0  0  0  0  0  0  0  0  0
  138.2810   69.6140  222.2080 C   0  0  0  0  0  0  0  0  0  0  0  0
  139.4720   70.3200  222.8080 C   0  0  2  0  0  0  0  0  0  0  0  0
  139.6900   69.9590  224.2210 C   0  0  0  0  0  0  0  0  0  0  0  0
  140.3240   70.8140  225.1190 C   0  0  0  0  0  0  0  0  0  0  0  0
  140.5230   70.4630  226.4460 C   0  0  0  0  0  0  0  0  0  0  0  0
  140.1010   69.2440  226.9370 C   0  0  0  0  0  0  0  0  0  0  0  0
  140.3030   68.8810  228.2920 N   0  0  0  0  0  4  0  0  0  0  0  0
  139.4730   69.2220  229.1480 O   0  0  0  0  0  0  0  0  0  0  0  0
  141.3990   68.1500  228.7130 O   0  0  0  0  0  1  0  0  0  0  0  0
  139.4720   68.3860  226.0600 C   0  0  0  0  0  0  0  0  0  0  0  0
  139.2770   68.7470  224.7350 C   0  0  0  0  0  0  0  0  0  0  0  0
  139.3300   77.4930  222.7130 C   0  0  0  0  0  0  0  0  0  0  0  0
  138.4490   78.5180  223.0070 C   0  0  0  0  0  0  0  0  0  0  0  0
  138.9650   79.7650  223.3230 C   0  0  0  0  0  0  0  0  0  0  0  0
  140.3210   80.0180  223.3530 C   0  0  0  0  0  0  0  0  0  0  0  0
  140.8510   81.2490  223.6650 C   0  0  0  0  0  0  0  0  0  0  0  0
  142.2220   81.4010  223.6680 C   0  0  0  0  0  0  0  0  0  0  0  0
  143.0600   80.3410  223.3660 C   0  0  0  0  0  0  0  0  0  0  0  0
  142.5450   79.0990  223.0520 C   0  0  0  0  0  0  0  0  0  0  0  0
  141.1630   78.9500  223.0490 C   0  0  0  0  0  0  0  0  0  0  0  0
  140.6500   77.7430  222.7430 N   0  0  0  0  0  0  0  0  0  0  0  0
  140.6650   75.5030  221.6080 H   0  0  0  0  0  0  0  0  0  0  0  0
  138.0770   73.9068  221.6935 H   0  0  0  0  0  0  0  0  0  0  0  0
  139.3445   73.7491  220.3863 H   0  0  0  0  0  0  0  0  0  0  0  0
  137.5684   72.0158  224.1157 H   0  0  0  0  0  0  0  0  0  0  0  0
  137.0531   72.4071  222.4590 H   0  0  0  0  0  0  0  0  0  0  0  0
  136.9451   69.8280  223.8745 H   0  0  0  0  0  0  0  0  0  0  0  0
  136.2013   70.2293  222.3413 H   0  0  0  0  0  0  0  0  0  0  0  0
  138.2993   68.5370  222.4308 H   0  0  0  0  0  0  0  0  0  0  0  0
  138.2341   69.6720  221.1105 H   0  0  0  0  0  0  0  0  0  0  0  0
  140.4388   70.0768  222.3430 H   0  0  0  0  0  0  0  0  0  0  0  0
  140.6766   71.7944  224.7663 H   0  0  0  0  0  0  0  0  0  0  0  0
  141.0273   71.1704  227.1207 H   0  0  0  0  0  0  0  0  0  0  0  0
  139.1214   67.4055  226.4146 H   0  0  0  0  0  0  0  0  0  0  0  0
  138.7712   68.0362  224.0650 H   0  0  0  0  0  0  0  0  0  0  0  0
  137.3625   78.3472  222.9904 H   0  0  0  0  0  0  0  0  0  0  0  0
  138.2680   80.5828  223.5584 H   0  0  0  0  0  0  0  0  0  0  0  0
  140.1932   82.0966  223.9076 H   0  0  0  0  0  0  0  0  0  0  0  0
  142.6569   82.3809  223.9145 H   0  0  0  0  0  0  0  0  0  0  0  0
  144.1498   80.4902  223.3764 H   0  0  0  0  0  0  0  0  0  0  0  0
  143.2073   78.2542  222.8118 H   0  0  0  0  0  0  0  0  0  0  0  0
  1  2  2  0
  2  3  1  0
  3  4  1  0
  4  5  1  0
  5  6  2  0
  5  7  1  0
  7  8  1  0
  8  9  1  0
  9 10  1  0
 10 11  1  0
 11 12  1  0
 12 13  2  0
 13 14  1  0
 14 15  2  0
 15 16  1  0
 16 17  2  0
 16 18  1  0
 15 19  1  0
 19 20  2  0
  2 21  1  0
 21 22  2  0
 22 23  1  0
 23 24  2  0
 24 25  1  0
 25 26  2  0
 26 27  1  0
 27 28  2  0
 28 29  1  0
 29 30  2  0
 11  7  1  0
 20 12  1  0
 30 21  1  0
 29 24  1  0
  3 31  1  0
  4 32  1  0
  4 33  1  0
  8 34  1  0
  8 35  1  0
  9 36  1  0
  9 37  1  0
 10 38  1  0
 10 39  1  0
 11 40  1  6
 13 41  1  0
 14 42  1  0
 19 43  1  0
 20 44  1  0
 22 45  1  0
 23 46  1  0
 25 47  1  0
 26 48  1  0
 27 49  1  0
 28 50  1  0
M  CHG  2  16   1  18  -1
M  END
>  <smiles>  (49) 
O=C(NCC(=O)N1CCCC1c1ccc([N+](=O)[O-])cc1)c1ccc2ccccc2n1

>  <score_type>  (49) 
oracle

>  <origin>  (49) 
autodockgpu

>  <m_score__min__energy>  (49) 
-9.4299999999999997

>  <m_primary>  (49) 
energy

>  <rmsd>  (49) 
8.372325848459312

>  <m_score__min__rmsd>  (49) 
8.372325848459312

>  <meeko>  (49) 
{"free_energy": -8.37, "intermolecular_energy": -10.16, "internal_energy": -1.74, "cluster_size": 1, "cluster_id": 4, "rank_in_cluster": 1}

>  <energy>  (49) 
-7.86

>  <cluster_rmsd>  (49) 
1.5

>  <cluster>  (49) 
3

$$$$

     RDKit          3D

 50 53  0  0  0  0  0  0  0  0999 V2000
  141.2360   72.6280  222.3950 O   0  0  0  0  0  0  0  0  0  0  0  0
  140.2360   72.2920  223.0640 C   0  0  0  0  0  0  0  0  0  0  0  0
  138.9500   72.7430  222.6630 N   0  0  0  0  0  0  0  0  0  0  0  0
  138.8540   73.5740  221.4970 C   0  0  0  0  0  0  0  0  0  0  0  0
  139.0800   74.9960  221.7710 C   0  0  0  0  0  0  0  0  0  0  0  0
  138.3980   75.6460  222.6050 O   0  0  0  0  0  0  0  0  0  0  0  0
  140.1020   75.7080  221.0880 N   0  0  0  0  0  0  0  0  0  0  0  0
  141.4290   75.2410  220.7460 C   0  0  0  0  0  0  0  0  0  0  0  0
  141.9000   76.0720  219.5760 C   0  0  0  0  0  0  0  0  0  0  0  0
  140.6890   76.8610  219.2160 C   0  0  0  0  0  0  0  0  0  0  0  0
  140.0550   77.0830  220.5660 C   0  0  2  0  0  0  0  0  0  0  0  0
  140.8200   78.0280  221.4010 C   0  0  0  0  0  0  0  0  0  0  0  0
  141.0680   77.7960  222.7520 C   0  0  0  0  0  0  0  0  0  0  0  0
  141.7890   78.6920  223.5270 C   0  0  0  0  0  0  0  0  0  0  0  0
  142.2950   79.8590  222.9910 C   0  0  0  0  0  0  0  0  0  0  0  0
  143.0320   80.7780  223.7790 N   0  0  0  0  0  4  0  0  0  0  0  0
  142.4310   81.6310  224.4490 O   0  0  0  0  0  0  0  0  0  0  0  0
  144.4140   80.7690  223.8370 O   0  0  0  0  0  1  0  0  0  0  0  0
  142.0580   80.1030  221.6540 C   0  0  0  0  0  0  0  0  0  0  0  0
  141.3360   79.2000  220.8880 C   0  0  0  0  0  0  0  0  0  0  0  0
  140.3450   71.4400  224.2580 C   0  0  0  0  0  0  0  0  0  0  0  0
  141.0810   71.8830  225.3420 C   0  0  0  0  0  0  0  0  0  0  0  0
  141.1730   71.0660  226.4580 C   0  0  0  0  0  0  0  0  0  0  0  0
  140.5580   69.8330  226.5250 C   0  0  0  0  0  0  0  0  0  0  0  0
  140.6370   69.0090  227.6240 C   0  0  0  0  0  0  0  0  0  0  0  0
  139.9870   67.7930  227.5930 C   0  0  0  0  0  0  0  0  0  0  0  0
  139.2630   67.3980  226.4810 C   0  0  0  0  0  0  0  0  0  0  0  0
  139.1720   68.2130  225.3700 C   0  0  0  0  0  0  0  0  0  0  0  0
  139.8290   69.4360  225.4050 C   0  0  0  0  0  0  0  0  0  0  0  0
  139.7470   70.2380  224.3260 N   0  0  0  0  0  0  0  0  0  0  0  0
  138.1290   72.4480  223.2390 H   0  0  0  0  0  0  0  0  0  0  0  0
  139.6043   73.2368  220.7667 H   0  0  0  0  0  0  0  0  0  0  0  0
  137.8268   73.4778  221.1154 H   0  0  0  0  0  0  0  0  0  0  0  0
  142.1082   75.3729  221.6011 H   0  0  0  0  0  0  0  0  0  0  0  0
  141.4153   74.1716  220.4885 H   0  0  0  0  0  0  0  0  0  0  0  0
  142.7295   76.7325  219.8687 H   0  0  0  0  0  0  0  0  0  0  0  0
  142.2867   75.4671  218.7426 H   0  0  0  0  0  0  0  0  0  0  0  0
  140.9591   77.8144  218.7384 H   0  0  0  0  0  0  0  0  0  0  0  0
  140.0303   76.3612  218.4906 H   0  0  0  0  0  0  0  0  0  0  0  0
  139.0537   77.5377  220.5396 H   0  0  0  0  0  0  0  0  0  0  0  0
  140.6814   76.8770  223.2168 H   0  0  0  0  0  0  0  0  0  0  0  0
  141.9611   78.4682  224.5901 H   0  0  0  0  0  0  0  0  0  0  0  0
  142.4454   81.0226  221.1911 H   0  0  0  0  0  0  0  0  0  0  0  0
  141.1675   79.4282  219.8252 H   0  0  0  0  0  0  0  0  0  0  0  0
  141.5822   72.8619  225.3190 H   0  0  0  0  0  0  0  0  0  0  0  0
  141.7581   71.4137  227.3222 H   0  0  0  0  0  0  0  0  0  0  0  0
  141.2089   69.3149  228.5124 H   0  0  0  0  0  0  0  0  0  0  0  0
  140.0448   67.1262  228.4659 H   0  0  0  0  0  0  0  0  0  0  0  0
  138.7540   66.4229  226.4825 H   0  0  0  0  0  0  0  0  0  0  0  0
  138.5971   67.9032  224.4849 H   0  0  0  0  0  0  0  0  0  0  0  0
  1  2  2  0
  2  3  1  0
  3  4  1  0
  4  5  1  0
  5  6  2  0
  5  7  1  0
  7  8  1  0
  8  9  1  0
  9 10  1  0
 10 11  1  0
 11 12  1  0
 12 13  2  0
 13 14  1  0
 14 15  2  0
 15 16  1  0
 16 17  2  0
 16 18  1  0
 15 19  1  0
 19 20  2  0
  2 21  1  0
 21 22  2  0
 22 23  1  0
 23 24  2  0
 24 25  1  0
 25 26  2  0
 26 27  1  0
 27 28  2  0
 28 29  1  0
 29 30  2  0
 11  7  1  0
 20 12  1  0
 30 21  1  0
 29 24  1  0
  3 31  1  0
  4 32  1  0
  4 33  1  0
  8 34  1  0
  8 35  1  0
  9 36  1  0
  9 37  1  0
 10 38  1  0
 10 39  1  0
 11 40  1  6
 13 41  1  0
 14 42  1  0
 19 43  1  0
 20 44  1  0
 22 45  1  0
 23 46  1  0
 25 47  1  0
 26 48  1  0
 27 49  1  0
 28 50  1  0
M  CHG  2  16   1  18  -1
M  END
>  <smiles>  (50) 
O=C(NCC(=O)N1CCCC1c1ccc([N+](=O)[O-])cc1)c1ccc2ccccc2n1

>  <score_type>  (50) 
oracle

>  <origin>  (50) 
autodockgpu

>  <m_score__min__energy>  (50) 
-9.4299999999999997

>  <m_primary>  (50) 
energy

>  <rmsd>  (50) 
2.9497387511376223

>  <m_score__min__rmsd>  (50) 
2.9497387511376223

>  <meeko>  (50) 
{"free_energy": -8.95, "intermolecular_energy": -10.74, "internal_energy": -1.6, "cluster_size": 30, "cluster_id": 1, "rank_in_cluster": 17}

>  <energy>  (50) 
-8.37

>  <cluster_rmsd>  (50) 
0.0

>  <cluster>  (50) 
4

$$$$

     RDKit          3D

 50 53  0  0  0  0  0  0  0  0999 V2000
  140.9090   71.8920  221.8070 O   0  0  0  0  0  0  0  0  0  0  0  0
  139.9490   71.9430  222.6470 C   0  0  0  0  0  0  0  0  0  0  0  0
  138.8900   72.8630  222.4090 N   0  0  0  0  0  0  0  0  0  0  0  0
  138.9800   73.6800  221.2190 C   0  0  0  0  0  0  0  0  0  0  0  0
  139.8780   74.8430  221.4180 C   0  0  0  0  0  0  0  0  0  0  0  0
  141.1280   74.7430  221.3340 O   0  0  0  0  0  0  0  0  0  0  0  0
  139.3530   76.1260  221.7140 N   0  0  0  0  0  0  0  0  0  0  0  0
  138.4250   76.5090  222.7880 C   0  0  0  0  0  0  0  0  0  0  0  0
  137.6020   77.6620  222.2390 C   0  0  0  0  0  0  0  0  0  0  0  0
  138.2070   77.9930  220.8890 C   0  0  0  0  0  0  0  0  0  0  0  0
  139.5940   77.4010  221.0230 C   0  0  1  0  0  0  0  0  0  0  0  0
  140.4760   78.2650  221.8230 C   0  0  0  0  0  0  0  0  0  0  0  0
  141.0540   77.9650  223.0130 C   0  0  0  0  0  0  0  0  0  0  0  0
  141.8890   78.8620  223.6930 C   0  0  0  0  0  0  0  0  0  0  0  0
  142.1640   80.1090  223.1710 C   0  0  0  0  0  0  0  0  0  0  0  0
  143.0160   80.9920  223.8880 N   0  0  0  0  0  4  0  0  0  0  0  0
  142.5250   81.8970  224.5940 O   0  0  0  0  0  0  0  0  0  0  0  0
  144.4000   80.8740  223.8210 O   0  0  0  0  0  1  0  0  0  0  0  0
  141.5820   80.4240  221.9630 C   0  0  0  0  0  0  0  0  0  0  0  0
  140.7550   79.5320  221.2930 C   0  0  0  0  0  0  0  0  0  0  0  0
  139.9300   71.0830  223.8280 C   0  0  0  0  0  0  0  0  0  0  0  0
  139.2890   69.8530  223.7280 C   0  0  0  0  0  0  0  0  0  0  0  0
  139.2430   69.0060  224.8140 C   0  0  0  0  0  0  0  0  0  0  0  0
  139.8270   69.3570  226.0130 C   0  0  0  0  0  0  0  0  0  0  0  0
  139.8110   68.5470  227.1310 C   0  0  0  0  0  0  0  0  0  0  0  0
  140.4000   68.9130  228.3230 C   0  0  0  0  0  0  0  0  0  0  0  0
  141.0290   70.1490  228.3800 C   0  0  0  0  0  0  0  0  0  0  0  0
  141.0480   70.9700  227.2520 C   0  0  0  0  0  0  0  0  0  0  0  0
  140.4530   70.5880  226.0640 C   0  0  0  0  0  0  0  0  0  0  0  0
  140.4990   71.4230  224.9960 N   0  0  0  0  0  0  0  0  0  0  0  0
  138.0700   72.9430  223.0800 H   0  0  0  0  0  0  0  0  0  0  0  0
  139.3698   73.0659  220.3938 H   0  0  0  0  0  0  0  0  0  0  0  0
  137.9740   74.0597  220.9872 H   0  0  0  0  0  0  0  0  0  0  0  0
  137.7718   75.6631  223.0484 H   0  0  0  0  0  0  0  0  0  0  0  0
  138.9641   76.7982  223.7022 H   0  0  0  0  0  0  0  0  0  0  0  0
  136.5500   77.3617  222.1244 H   0  0  0  0  0  0  0  0  0  0  0  0
  137.6186   78.5299  222.9146 H   0  0  0  0  0  0  0  0  0  0  0  0
  137.6456   77.5188  220.0705 H   0  0  0  0  0  0  0  0  0  0  0  0
  138.2001   79.0660  220.6467 H   0  0  0  0  0  0  0  0  0  0  0  0
  140.0981   77.2845  220.0523 H   0  0  0  0  0  0  0  0  0  0  0  0
  140.8598   76.9796  223.4616 H   0  0  0  0  0  0  0  0  0  0  0  0
  142.3312   78.5676  224.6562 H   0  0  0  0  0  0  0  0  0  0  0  0
  141.7778   81.4100  221.5164 H   0  0  0  0  0  0  0  0  0  0  0  0
  140.3114   79.8249  220.3300 H   0  0  0  0  0  0  0  0  0  0  0  0
  138.8176   69.5554  222.7797 H   0  0  0  0  0  0  0  0  0  0  0  0
  138.7330   68.0356  224.7232 H   0  0  0  0  0  0  0  0  0  0  0  0
  139.3083   67.5706  227.0684 H   0  0  0  0  0  0  0  0  0  0  0  0
  140.3723   68.2481  229.1988 H   0  0  0  0  0  0  0  0  0  0  0  0
  141.5110   70.4803  229.3116 H   0  0  0  0  0  0  0  0  0  0  0  0
  141.5498   71.9472  227.3095 H   0  0  0  0  0  0  0  0  0  0  0  0
  1  2  2  0
  2  3  1  0
  3  4  1  0
  4  5  1  0
  5  6  2  0
  5  7  1  0
  7  8  1  0
  8  9  1  0
  9 10  1  0
 10 11  1  0
 11 12  1  0
 12 13  2  0
 13 14  1  0
 14 15  2  0
 15 16  1  0
 16 17  2  0
 16 18  1  0
 15 19  1  0
 19 20  2  0
  2 21  1  0
 21 22  2  0
 22 23  1  0
 23 24  2  0
 24 25  1  0
 25 26  2  0
 26 27  1  0
 27 28  2  0
 28 29  1  0
 29 30  2  0
 11  7  1  0
 20 12  1  0
 30 21  1  0
 29 24  1  0
  3 31  1  0
  4 32  1  0
  4 33  1  0
  8 34  1  0
  8 35  1  0
  9 36  1  0
  9 37  1  0
 10 38  1  0
 10 39  1  0
 11 40  1  6
 13 41  1  0
 14 42  1  0
 19 43  1  0
 20 44  1  0
 22 45  1  0
 23 46  1  0
 25 47  1  0
 26 48  1  0
 27 49  1  0
 28 50  1  0
M  CHG  2  16   1  18  -1
M  END
>  <smiles>  (51) 
O=C(NCC(=O)N1CCCC1c1ccc([N+](=O)[O-])cc1)c1ccc2ccccc2n1

>  <score_type>  (51) 
oracle

>  <origin>  (51) 
autodockgpu

>  <m_score__min__energy>  (51) 
-9.4499999999999993

>  <m_primary>  (51) 
energy

>  <rmsd>  (51) 
2.5262236283571196

>  <m_score__min__rmsd>  (51) 
2.5262236283571196

>  <meeko>  (51) 
{"free_energy": -9.2, "intermolecular_energy": -10.98, "internal_energy": -1.27, "cluster_size": 8, "cluster_id": 1, "rank_in_cluster": 2}

>  <energy>  (51) 
-9.45

>  <cluster_rmsd>  (51) 
0.0

>  <cluster>  (51) 
1

$$$$

     RDKit          3D

 50 53  0  0  0  0  0  0  0  0999 V2000
  139.7090   71.0300  221.2330 O   0  0  0  0  0  0  0  0  0  0  0  0
  139.6900   71.6780  222.3320 C   0  0  0  0  0  0  0  0  0  0  0  0
  139.5350   73.0910  222.2830 N   0  0  0  0  0  0  0  0  0  0  0  0
  139.4090   73.6960  220.9740 C   0  0  0  0  0  0  0  0  0  0  0  0
  140.6770   74.3280  220.5370 C   0  0  0  0  0  0  0  0  0  0  0  0
  141.7790   73.7240  220.5980 O   0  0  0  0  0  0  0  0  0  0  0  0
  140.6940   75.6500  220.0270 N   0  0  0  0  0  0  0  0  0  0  0  0
  139.6160   76.3810  219.3470 C   0  0  0  0  0  0  0  0  0  0  0  0
  140.3010   77.3170  218.3640 C   0  0  0  0  0  0  0  0  0  0  0  0
  141.7860   77.1790  218.6330 C   0  0  0  0  0  0  0  0  0  0  0  0
  141.7920   76.6270  220.0420 C   0  0  1  0  0  0  0  0  0  0  0  0
  141.5340   77.6810  221.0370 C   0  0  0  0  0  0  0  0  0  0  0  0
  141.0500   77.5180  222.2940 C   0  0  0  0  0  0  0  0  0  0  0  0
  140.8480   78.5940  223.1690 C   0  0  0  0  0  0  0  0  0  0  0  0
  141.1380   79.8860  222.7830 C   0  0  0  0  0  0  0  0  0  0  0  0
  140.9210   80.9520  223.6970 N   0  0  0  0  0  4  0  0  0  0  0  0
  139.7600   81.2400  224.0560 O   0  0  0  0  0  0  0  0  0  0  0  0
  141.9810   81.6920  224.2070 O   0  0  0  0  0  1  0  0  0  0  0  0
  141.6300   80.0630  221.5080 C   0  0  0  0  0  0  0  0  0  0  0  0
  141.8280   78.9940  220.6440 C   0  0  0  0  0  0  0  0  0  0  0  0
  139.8240   70.9940  223.6170 C   0  0  0  0  0  0  0  0  0  0  0  0
  139.4100   69.6690  223.6970 C   0  0  0  0  0  0  0  0  0  0  0  0
  139.5160   68.9810  224.8860 C   0  0  0  0  0  0  0  0  0  0  0  0
  140.0290   69.5870  226.0130 C   0  0  0  0  0  0  0  0  0  0  0  0
  140.1570   68.9440  227.2280 C   0  0  0  0  0  0  0  0  0  0  0  0
  140.6730   69.5640  228.3470 C   0  0  0  0  0  0  0  0  0  0  0  0
  141.0740   70.8880  228.2250 C   0  0  0  0  0  0  0  0  0  0  0  0
  140.9470   71.5400  226.9980 C   0  0  0  0  0  0  0  0  0  0  0  0
  140.4270   70.9030  225.8860 C   0  0  0  0  0  0  0  0  0  0  0  0
  140.3240   71.5820  224.7160 N   0  0  0  0  0  0  0  0  0  0  0  0
  139.5140   73.6740  223.1700 H   0  0  0  0  0  0  0  0  0  0  0  0
  139.1294   72.9187  220.2476 H   0  0  0  0  0  0  0  0  0  0  0  0
  138.6380   74.4785  221.0309 H   0  0  0  0  0  0  0  0  0  0  0  0
  138.9571   75.6808  218.8126 H   0  0  0  0  0  0  0  0  0  0  0  0
  138.9906   76.9350  220.0625 H   0  0  0  0  0  0  0  0  0  0  0  0
  140.0697   77.0229  217.3296 H   0  0  0  0  0  0  0  0  0  0  0  0
  139.9608   78.3557  218.4880 H   0  0  0  0  0  0  0  0  0  0  0  0
  142.2583   76.4805  217.9266 H   0  0  0  0  0  0  0  0  0  0  0  0
  142.3498   78.1165  218.5181 H   0  0  0  0  0  0  0  0  0  0  0  0
  142.7628   76.1910  220.3202 H   0  0  0  0  0  0  0  0  0  0  0  0
  140.8068   76.5024  222.6396 H   0  0  0  0  0  0  0  0  0  0  0  0
  140.4526   78.4054  224.1780 H   0  0  0  0  0  0  0  0  0  0  0  0
  141.8727   81.0796  221.1650 H   0  0  0  0  0  0  0  0  0  0  0  0
  142.2222   79.1807  219.6342 H   0  0  0  0  0  0  0  0  0  0  0  0
  138.9968   69.1688  222.8087 H   0  0  0  0  0  0  0  0  0  0  0  0
  139.1865   67.9328  224.9368 H   0  0  0  0  0  0  0  0  0  0  0  0
  139.8346   67.8953  227.3069 H   0  0  0  0  0  0  0  0  0  0  0  0
  140.7638   69.0280  229.3033 H   0  0  0  0  0  0  0  0  0  0  0  0
  141.4903   71.4208  229.0927 H   0  0  0  0  0  0  0  0  0  0  0  0
  141.2690   72.5884  226.9129 H   0  0  0  0  0  0  0  0  0  0  0  0
  1  2  2  0
  2  3  1  0
  3  4  1  0
  4  5  1  0
  5  6  2  0
  5  7  1  0
  7  8  1  0
  8  9  1  0
  9 10  1  0
 10 11  1  0
 11 12  1  0
 12 13  2  0
 13 14  1  0
 14 15  2  0
 15 16  1  0
 16 17  2  0
 16 18  1  0
 15 19  1  0
 19 20  2  0
  2 21  1  0
 21 22  2  0
 22 23  1  0
 23 24  2  0
 24 25  1  0
 25 26  2  0
 26 27  1  0
 27 28  2  0
 28 29  1  0
 29 30  2  0
 11  7  1  0
 20 12  1  0
 30 21  1  0
 29 24  1  0
  3 31  1  0
  4 32  1  0
  4 33  1  0
  8 34  1  0
  8 35  1  0
  9 36  1  0
  9 37  1  0
 10 38  1  0
 10 39  1  0
 11 40  1  1
 13 41  1  0
 14 42  1  0
 19 43  1  0
 20 44  1  0
 22 45  1  0
 23 46  1  0
 25 47  1  0
 26 48  1  0
 27 49  1  0
 28 50  1  0
M  CHG  2  16   1  18  -1
M  END
>  <smiles>  (52) 
O=C(NCC(=O)N1CCCC1c1ccc([N+](=O)[O-])cc1)c1ccc2ccccc2n1

>  <score_type>  (52) 
oracle

>  <origin>  (52) 
autodockgpu

>  <m_score__min__energy>  (52) 
-9.4499999999999993

>  <m_primary>  (52) 
energy

>  <rmsd>  (52) 
1.197592484557524

>  <m_score__min__rmsd>  (52) 
1.197592484557524

>  <meeko>  (52) 
{"free_energy": -8.23, "intermolecular_energy": -10.02, "internal_energy": -1.49, "cluster_size": 8, "cluster_id": 1, "rank_in_cluster": 8}

>  <energy>  (52) 
-9.2

>  <cluster_rmsd>  (52) 
0.41

>  <cluster>  (52) 
1

$$$$

     RDKit          3D

 50 53  0  0  0  0  0  0  0  0999 V2000
  138.0300   70.1740  221.6410 O   0  0  0  0  0  0  0  0  0  0  0  0
  138.3820   70.9690  222.5750 C   0  0  0  0  0  0  0  0  0  0  0  0
  138.2290   72.3680  222.3670 N   0  0  0  0  0  0  0  0  0  0  0  0
  137.6790   72.7900  221.0970 C   0  0  0  0  0  0  0  0  0  0  0  0
  138.7270   73.3290  220.1970 C   0  0  0  0  0  0  0  0  0  0  0  0
  138.9070   72.8780  219.0370 O   0  0  0  0  0  0  0  0  0  0  0  0
  139.5740   74.3850  220.6160 N   0  0  0  0  0  0  0  0  0  0  0  0
  139.7950   74.8950  221.9770 C   0  0  0  0  0  0  0  0  0  0  0  0
  140.0840   76.3800  221.8270 C   0  0  0  0  0  0  0  0  0  0  0  0
  140.1590   76.6340  220.3340 C   0  0  0  0  0  0  0  0  0  0  0  0
  140.4440   75.2450  219.8020 C   0  0  1  0  0  0  0  0  0  0  0  0
  141.8570   74.8760  219.9840 C   0  0  0  0  0  0  0  0  0  0  0  0
  142.9370   75.6840  219.8480 C   0  0  0  0  0  0  0  0  0  0  0  0
  144.2480   75.2330  220.0550 C   0  0  0  0  0  0  0  0  0  0  0  0
  144.4980   73.9250  220.4110 C   0  0  0  0  0  0  0  0  0  0  0  0
  145.8400   73.5010  220.6130 N   0  0  0  0  0  4  0  0  0  0  0  0
  146.3190   73.4700  221.7660 O   0  0  0  0  0  0  0  0  0  0  0  0
  146.6430   73.1150  219.5450 O   0  0  0  0  0  1  0  0  0  0  0  0
  143.4080   73.0940  220.5520 C   0  0  0  0  0  0  0  0  0  0  0  0
  142.1110   73.5460  220.3470 C   0  0  0  0  0  0  0  0  0  0  0  0
  138.9310   70.4650  223.8330 C   0  0  0  0  0  0  0  0  0  0  0  0
  138.8790   69.0940  224.0630 C   0  0  0  0  0  0  0  0  0  0  0  0
  139.3830   68.5690  225.2340 C   0  0  0  0  0  0  0  0  0  0  0  0
  139.9450   69.3850  226.1920 C   0  0  0  0  0  0  0  0  0  0  0  0
  140.4650   68.9120  227.3810 C   0  0  0  0  0  0  0  0  0  0  0  0
  141.0230   69.7420  228.3310 C   0  0  0  0  0  0  0  0  0  0  0  0
  141.0540   71.1040  228.0620 C   0  0  0  0  0  0  0  0  0  0  0  0
  140.5310   71.5850  226.8610 C   0  0  0  0  0  0  0  0  0  0  0  0
  139.9740   70.7390  225.9200 C   0  0  0  0  0  0  0  0  0  0  0  0
  139.4790   71.2570  224.7680 N   0  0  0  0  0  0  0  0  0  0  0  0
  138.5080   73.0690  223.1150 H   0  0  0  0  0  0  0  0  0  0  0  0
  137.2013   71.9266  220.6109 H   0  0  0  0  0  0  0  0  0  0  0  0
  136.9477   73.5890  221.2887 H   0  0  0  0  0  0  0  0  0  0  0  0
  138.8970   74.7409  222.5933 H   0  0  0  0  0  0  0  0  0  0  0  0
  140.6253   74.3713  222.4733 H   0  0  0  0  0  0  0  0  0  0  0  0
  139.2762   76.9755  222.2774 H   0  0  0  0  0  0  0  0  0  0  0  0
  141.0169   76.6657  222.3350 H   0  0  0  0  0  0  0  0  0  0  0  0
  139.2072   77.0251  219.9452 H   0  0  0  0  0  0  0  0  0  0  0  0
  140.9082   77.3859  220.0454 H   0  0  0  0  0  0  0  0  0  0  0  0
  140.2552   75.1598  218.7217 H   0  0  0  0  0  0  0  0  0  0  0  0
  142.7783   76.7348  219.5641 H   0  0  0  0  0  0  0  0  0  0  0  0
  145.0883   75.9321  219.9317 H   0  0  0  0  0  0  0  0  0  0  0  0
  143.5697   72.0433  220.8348 H   0  0  0  0  0  0  0  0  0  0  0  0
  141.2692   72.8490  220.4715 H   0  0  0  0  0  0  0  0  0  0  0  0
  138.4349   68.4274  223.3091 H   0  0  0  0  0  0  0  0  0  0  0  0
  139.3359   67.4836  225.4061 H   0  0  0  0  0  0  0  0  0  0  0  0
  140.4329   67.8303  227.5782 H   0  0  0  0  0  0  0  0  0  0  0  0
  141.4297   69.3386  229.2700 H   0  0  0  0  0  0  0  0  0  0  0  0
  141.4893   71.8012  228.7930 H   0  0  0  0  0  0  0  0  0  0  0  0
  140.5627   72.6656  226.6576 H   0  0  0  0  0  0  0  0  0  0  0  0
  1  2  2  0
  2  3  1  0
  3  4  1  0
  4  5  1  0
  5  6  2  0
  5  7  1  0
  7  8  1  0
  8  9  1  0
  9 10  1  0
 10 11  1  0
 11 12  1  0
 12 13  2  0
 13 14  1  0
 14 15  2  0
 15 16  1  0
 16 17  2  0
 16 18  1  0
 15 19  1  0
 19 20  2  0
  2 21  1  0
 21 22  2  0
 22 23  1  0
 23 24  2  0
 24 25  1  0
 25 26  2  0
 26 27  1  0
 27 28  2  0
 28 29  1  0
 29 30  2  0
 11  7  1  0
 20 12  1  0
 30 21  1  0
 29 24  1  0
  3 31  1  0
  4 32  1  0
  4 33  1  0
  8 34  1  0
  8 35  1  0
  9 36  1  0
  9 37  1  0
 10 38  1  0
 10 39  1  0
 11 40  1  6
 13 41  1  0
 14 42  1  0
 19 43  1  0
 20 44  1  0
 22 45  1  0
 23 46  1  0
 25 47  1  0
 26 48  1  0
 27 49  1  0
 28 50  1  0
M  CHG  2  16   1  18  -1
M  END
>  <smiles>  (53) 
O=C(NCC(=O)N1CCCC1c1ccc([N+](=O)[O-])cc1)c1ccc2ccccc2n1

>  <score_type>  (53) 
oracle

>  <origin>  (53) 
autodockgpu

>  <m_score__min__energy>  (53) 
-9.4499999999999993

>  <m_primary>  (53) 
energy

>  <rmsd>  (53) 
2.1799572863792473

>  <m_score__min__rmsd>  (53) 
2.1799572863792473

>  <meeko>  (53) 
{"free_energy": -8.58, "intermolecular_energy": -10.37, "internal_energy": -1.67, "cluster_size": 37, "cluster_id": 2, "rank_in_cluster": 35}

>  <energy>  (53) 
-8.88

>  <cluster_rmsd>  (53) 
0.74

>  <cluster>  (53) 
1

$$$$

     RDKit          3D

 50 53  0  0  0  0  0  0  0  0999 V2000
  140.7700   73.1910  222.4030 O   0  0  0  0  0  0  0  0  0  0  0  0
  139.8360   72.3490  222.6200 C   0  0  0  0  0  0  0  0  0  0  0  0
  138.7710   72.2620  221.6810 N   0  0  0  0  0  0  0  0  0  0  0  0
  138.8270   73.1430  220.5350 C   0  0  0  0  0  0  0  0  0  0  0  0
  138.5600   74.5520  220.9130 C   0  0  0  0  0  0  0  0  0  0  0  0
  137.3950   74.9790  221.1150 O   0  0  0  0  0  0  0  0  0  0  0  0
  139.6210   75.4800  221.0610 N   0  0  0  0  0  0  0  0  0  0  0  0
  140.1430   76.0820  222.2960 C   0  0  0  0  0  0  0  0  0  0  0  0
  140.6340   77.4680  221.9110 C   0  0  0  0  0  0  0  0  0  0  0  0
  140.4990   77.5470  220.4040 C   0  0  0  0  0  0  0  0  0  0  0  0
  140.4680   76.0820  220.0220 C   0  0  1  0  0  0  0  0  0  0  0  0
  141.8150   75.4900  220.0430 C   0  0  0  0  0  0  0  0  0  0  0  0
  142.9990   76.1520  220.0710 C   0  0  0  0  0  0  0  0  0  0  0  0
  144.2330   75.4890  220.0980 C   0  0  0  0  0  0  0  0  0  0  0  0
  144.2980   74.1110  220.0980 C   0  0  0  0  0  0  0  0  0  0  0  0
  145.5670   73.4720  220.1270 N   0  0  0  0  0  4  0  0  0  0  0  0
  146.3050   73.5930  221.1260 O   0  0  0  0  0  0  0  0  0  0  0  0
  146.0120   72.7050  219.0560 O   0  0  0  0  0  1  0  0  0  0  0  0
  143.1010   73.4290  220.0700 C   0  0  0  0  0  0  0  0  0  0  0  0
  141.8810   74.0900  220.0430 C   0  0  0  0  0  0  0  0  0  0  0  0
  139.8490   71.4910  223.8040 C   0  0  0  0  0  0  0  0  0  0  0  0
  139.2270   70.2500  223.7160 C   0  0  0  0  0  0  0  0  0  0  0  0
  139.2130   69.4050  224.8050 C   0  0  0  0  0  0  0  0  0  0  0  0
  139.8100   69.7690  225.9930 C   0  0  0  0  0  0  0  0  0  0  0  0
  139.8250   68.9600  227.1130 C   0  0  0  0  0  0  0  0  0  0  0  0
  140.4270   69.3390  228.2940 C   0  0  0  0  0  0  0  0  0  0  0  0
  141.0370   70.5850  228.3390 C   0  0  0  0  0  0  0  0  0  0  0  0
  141.0240   71.4040  227.2090 C   0  0  0  0  0  0  0  0  0  0  0  0
  140.4160   71.0090  226.0320 C   0  0  0  0  0  0  0  0  0  0  0  0
  140.4310   71.8430  224.9610 N   0  0  0  0  0  0  0  0  0  0  0  0
  137.9700   71.5770  221.8190 H   0  0  0  0  0  0  0  0  0  0  0  0
  139.8283   73.0784  220.0843 H   0  0  0  0  0  0  0  0  0  0  0  0
  138.0523   72.8267  219.8210 H   0  0  0  0  0  0  0  0  0  0  0  0
  139.3472   76.1547  223.0519 H   0  0  0  0  0  0  0  0  0  0  0  0
  140.9506   75.4745  222.7304 H   0  0  0  0  0  0  0  0  0  0  0  0
  140.0168   78.2409  222.3924 H   0  0  0  0  0  0  0  0  0  0  0  0
  141.6718   77.6355  222.2349 H   0  0  0  0  0  0  0  0  0  0  0  0
  139.5699   78.0577  220.1108 H   0  0  0  0  0  0  0  0  0  0  0  0
  141.2995   78.1199  219.9131 H   0  0  0  0  0  0  0  0  0  0  0  0
  140.0912   75.9190  219.0015 H   0  0  0  0  0  0  0  0  0  0  0  0
  142.9897   77.2520  220.0726 H   0  0  0  0  0  0  0  0  0  0  0  0
  145.1633   76.0756  220.1195 H   0  0  0  0  0  0  0  0  0  0  0  0
  143.1128   72.3291  220.0690 H   0  0  0  0  0  0  0  0  0  0  0  0
  140.9497   73.5050  220.0212 H   0  0  0  0  0  0  0  0  0  0  0  0
  138.7456   69.9424  222.7760 H   0  0  0  0  0  0  0  0  0  0  0  0
  138.7182   68.4259  224.7248 H   0  0  0  0  0  0  0  0  0  0  0  0
  139.3377   67.9752  227.0603 H   0  0  0  0  0  0  0  0  0  0  0  0
  140.4240   68.6758  229.1716 H   0  0  0  0  0  0  0  0  0  0  0  0
  141.5289   70.9257  229.2620 H   0  0  0  0  0  0  0  0  0  0  0  0
  141.5103   72.3896  227.2562 H   0  0  0  0  0  0  0  0  0  0  0  0
  1  2  2  0
  2  3  1  0
  3  4  1  0
  4  5  1  0
  5  6  2  0
  5  7  1  0
  7  8  1  0
  8  9  1  0
  9 10  1  0
 10 11  1  0
 11 12  1  0
 12 13  2  0
 13 14  1  0
 14 15  2  0
 15 16  1  0
 16 17  2  0
 16 18  1  0
 15 19  1  0
 19 20  2  0
  2 21  1  0
 21 22  2  0
 22 23  1  0
 23 24  2  0
 24 25  1  0
 25 26  2  0
 26 27  1  0
 27 28  2  0
 28 29  1  0
 29 30  2  0
 11  7  1  0
 20 12  1  0
 30 21  1  0
 29 24  1  0
  3 31  1  0
  4 32  1  0
  4 33  1  0
  8 34  1  0
  8 35  1  0
  9 36  1  0
  9 37  1  0
 10 38  1  0
 10 39  1  0
 11 40  1  6
 13 41  1  0
 14 42  1  0
 19 43  1  0
 20 44  1  0
 22 45  1  0
 23 46  1  0
 25 47  1  0
 26 48  1  0
 27 49  1  0
 28 50  1  0
M  CHG  2  16   1  18  -1
M  END
>  <smiles>  (54) 
O=C(NCC(=O)N1CCCC1c1ccc([N+](=O)[O-])cc1)c1ccc2ccccc2n1

>  <score_type>  (54) 
oracle

>  <origin>  (54) 
autodockgpu

>  <m_score__min__energy>  (54) 
-9.4499999999999993

>  <m_primary>  (54) 
energy

>  <rmsd>  (54) 
2.3391403117008926

>  <m_score__min__rmsd>  (54) 
2.3391403117008926

>  <meeko>  (54) 
{"free_energy": -8.95, "intermolecular_energy": -10.74, "internal_energy": -1.68, "cluster_size": 37, "cluster_id": 2, "rank_in_cluster": 25}

>  <energy>  (54) 
-8.84

>  <cluster_rmsd>  (54) 
0.76

>  <cluster>  (54) 
1

$$$$

     RDKit          3D

 50 53  0  0  0  0  0  0  0  0999 V2000
  141.0090   72.8360  222.5590 O   0  0  0  0  0  0  0  0  0  0  0  0
  139.9170   72.2770  222.9110 C   0  0  0  0  0  0  0  0  0  0  0  0
  138.7170   72.6560  222.2480 N   0  0  0  0  0  0  0  0  0  0  0  0
  138.8250   73.6590  221.2100 C   0  0  0  0  0  0  0  0  0  0  0  0
  138.8720   75.0300  221.7750 C   0  0  0  0  0  0  0  0  0  0  0  0
  137.9500   75.4850  222.4990 O   0  0  0  0  0  0  0  0  0  0  0  0
  139.9710   75.8870  221.5150 N   0  0  0  0  0  0  0  0  0  0  0  0
  140.7000   76.7490  222.4560 C   0  0  0  0  0  0  0  0  0  0  0  0
  141.1650   77.9500  221.6490 C   0  0  0  0  0  0  0  0  0  0  0  0
  140.7950   77.6460  220.2110 C   0  0  0  0  0  0  0  0  0  0  0  0
  140.6600   76.1390  220.2410 C   0  0  1  0  0  0  0  0  0  0  0  0
  141.9750   75.4780  220.2240 C   0  0  0  0  0  0  0  0  0  0  0  0
  143.1860   76.0710  220.0770 C   0  0  0  0  0  0  0  0  0  0  0  0
  144.3850   75.3480  220.0830 C   0  0  0  0  0  0  0  0  0  0  0  0
  144.3860   73.9780  220.2410 C   0  0  0  0  0  0  0  0  0  0  0  0
  145.6220   73.2760  220.2430 N   0  0  0  0  0  4  0  0  0  0  0  0
  146.0290   72.7260  219.1980 O   0  0  0  0  0  0  0  0  0  0  0  0
  146.3980   73.1840  221.3920 O   0  0  0  0  0  1  0  0  0  0  0  0
  143.1610   73.3640  220.3910 C   0  0  0  0  0  0  0  0  0  0  0  0
  141.9750   74.0860  220.3840 C   0  0  0  0  0  0  0  0  0  0  0  0
  139.8890   71.2700  223.9700 C   0  0  0  0  0  0  0  0  0  0  0  0
  139.1970   70.0880  223.7280 C   0  0  0  0  0  0  0  0  0  0  0  0
  139.1420   69.1080  224.6950 C   0  0  0  0  0  0  0  0  0  0  0  0
  139.7650   69.2770  225.9130 C   0  0  0  0  0  0  0  0  0  0  0  0
  139.7410   68.3270  226.9150 C   0  0  0  0  0  0  0  0  0  0  0  0
  140.3690   68.5110  228.1290 C   0  0  0  0  0  0  0  0  0  0  0  0
  141.0480   69.7060  228.3300 C   0  0  0  0  0  0  0  0  0  0  0  0
  141.0750   70.6670  227.3190 C   0  0  0  0  0  0  0  0  0  0  0  0
  140.4400   70.4660  226.1080 C   0  0  0  0  0  0  0  0  0  0  0  0
  140.4960   71.4320  225.1570 N   0  0  0  0  0  0  0  0  0  0  0  0
  137.7840   72.2200  222.5060 H   0  0  0  0  0  0  0  0  0  0  0  0
  139.7449   73.4788  220.6344 H   0  0  0  0  0  0  0  0  0  0  0  0
  137.9363   73.5835  220.5662 H   0  0  0  0  0  0  0  0  0  0  0  0
  140.0366   77.0706  223.2724 H   0  0  0  0  0  0  0  0  0  0  0  0
  141.5477   76.2188  222.9146 H   0  0  0  0  0  0  0  0  0  0  0  0
  140.6554   78.8627  221.9914 H   0  0  0  0  0  0  0  0  0  0  0  0
  142.2456   78.1217  221.7626 H   0  0  0  0  0  0  0  0  0  0  0  0
  139.8469   78.1280  219.9304 H   0  0  0  0  0  0  0  0  0  0  0  0
  141.5245   78.0144  219.4748 H   0  0  0  0  0  0  0  0  0  0  0  0
  140.1216   75.7458  219.3660 H   0  0  0  0  0  0  0  0  0  0  0  0
  143.2278   77.1626  219.9480 H   0  0  0  0  0  0  0  0  0  0  0  0
  145.3397   75.8803  219.9599 H   0  0  0  0  0  0  0  0  0  0  0  0
  143.1220   72.2723  220.5198 H   0  0  0  0  0  0  0  0  0  0  0  0
  141.0189   73.5560  220.5062 H   0  0  0  0  0  0  0  0  0  0  0  0
  138.6925   69.9352  222.7625 H   0  0  0  0  0  0  0  0  0  0  0  0
  138.5927   68.1768  224.4920 H   0  0  0  0  0  0  0  0  0  0  0  0
  139.1994   67.3861  226.7378 H   0  0  0  0  0  0  0  0  0  0  0  0
  140.3334   67.7382  228.9110 H   0  0  0  0  0  0  0  0  0  0  0  0
  141.5630   69.8941  229.2836 H   0  0  0  0  0  0  0  0  0  0  0  0
  141.6159   71.6094  227.4902 H   0  0  0  0  0  0  0  0  0  0  0  0
  1  2  2  0
  2  3  1  0
  3  4  1  0
  4  5  1  0
  5  6  2  0
  5  7  1  0
  7  8  1  0
  8  9  1  0
  9 10  1  0
 10 11  1  0
 11 12  1  0
 12 13  2  0
 13 14  1  0
 14 15  2  0
 15 16  1  0
 16 17  2  0
 16 18  1  0
 15 19  1  0
 19 20  2  0
  2 21  1  0
 21 22  2  0
 22 23  1  0
 23 24  2  0
 24 25  1  0
 25 26  2  0
 26 27  1  0
 27 28  2  0
 28 29  1  0
 29 30  2  0
 11  7  1  0
 20 12  1  0
 30 21  1  0
 29 24  1  0
  3 31  1  0
  4 32  1  0
  4 33  1  0
  8 34  1  0
  8 35  1  0
  9 36  1  0
  9 37  1  0
 10 38  1  0
 10 39  1  0
 11 40  1  6
 13 41  1  0
 14 42  1  0
 19 43  1  0
 20 44  1  0
 22 45  1  0
 23 46  1  0
 25 47  1  0
 26 48  1  0
 27 49  1  0
 28 50  1  0
M  CHG  2  16   1  18  -1
M  END
>  <smiles>  (55) 
O=C(NCC(=O)N1CCCC1c1ccc([N+](=O)[O-])cc1)c1ccc2ccccc2n1

>  <score_type>  (55) 
oracle

>  <origin>  (55) 
autodockgpu

>  <m_score__min__energy>  (55) 
-9.4499999999999993

>  <m_primary>  (55) 
energy

>  <rmsd>  (55) 
2.3801589163408337

>  <m_score__min__rmsd>  (55) 
2.3801589163408337

>  <meeko>  (55) 
{"free_energy": -9.25, "intermolecular_energy": -11.03, "internal_energy": -1.58, "cluster_size": 37, "cluster_id": 2, "rank_in_cluster": 8}

>  <energy>  (55) 
-8.74

>  <cluster_rmsd>  (55) 
1.03

>  <cluster>  (55) 
1

$$$$

     RDKit          3D

 50 53  0  0  0  0  0  0  0  0999 V2000
  139.7720   71.1030  221.2260 O   0  0  0  0  0  0  0  0  0  0  0  0
  139.5460   71.7560  222.2990 C   0  0  0  0  0  0  0  0  0  0  0  0
  139.0140   73.0710  222.1930 N   0  0  0  0  0  0  0  0  0  0  0  0
  138.7640   73.5770  220.8600 C   0  0  0  0  0  0  0  0  0  0  0  0
  138.6840   75.0570  220.8420 C   0  0  0  0  0  0  0  0  0  0  0  0
  137.6030   75.6640  220.6290 O   0  0  0  0  0  0  0  0  0  0  0  0
  139.8360   75.8520  221.0650 N   0  0  0  0  0  0  0  0  0  0  0  0
  140.3550   76.3710  222.3380 C   0  0  0  0  0  0  0  0  0  0  0  0
  141.0250   77.6950  222.0080 C   0  0  0  0  0  0  0  0  0  0  0  0
  140.9840   77.8110  220.4970 C   0  0  0  0  0  0  0  0  0  0  0  0
  140.8040   76.3650  220.0850 C   0  0  1  0  0  0  0  0  0  0  0  0
  142.0690   75.6180  220.1660 C   0  0  0  0  0  0  0  0  0  0  0  0
  143.3200   76.1050  219.9670 C   0  0  0  0  0  0  0  0  0  0  0  0
  144.4660   75.3070  220.0770 C   0  0  0  0  0  0  0  0  0  0  0  0
  144.3700   73.9690  220.3980 C   0  0  0  0  0  0  0  0  0  0  0  0
  145.5530   73.1890  220.5010 N   0  0  0  0  0  4  0  0  0  0  0  0
  146.1520   73.1040  221.5940 O   0  0  0  0  0  0  0  0  0  0  0  0
  146.0680   72.5100  219.4030 O   0  0  0  0  0  1  0  0  0  0  0  0
  143.1040   73.4640  220.6010 C   0  0  0  0  0  0  0  0  0  0  0  0
  141.9710   74.2590  220.4910 C   0  0  0  0  0  0  0  0  0  0  0  0
  139.8240   71.1750  223.6110 C   0  0  0  0  0  0  0  0  0  0  0  0
  139.5530   69.8240  223.7970 C   0  0  0  0  0  0  0  0  0  0  0  0
  139.7980   69.2300  225.0160 C   0  0  0  0  0  0  0  0  0  0  0  0
  140.3130   69.9560  226.0680 C   0  0  0  0  0  0  0  0  0  0  0  0
  140.5780   69.4110  227.3090 C   0  0  0  0  0  0  0  0  0  0  0  0
  141.0940   70.1510  228.3520 C   0  0  0  0  0  0  0  0  0  0  0  0
  141.3510   71.4970  228.1240 C   0  0  0  0  0  0  0  0  0  0  0  0
  141.0860   72.0500  226.8710 C   0  0  0  0  0  0  0  0  0  0  0  0
  140.5680   71.2940  225.8370 C   0  0  0  0  0  0  0  0  0  0  0  0
  140.3270   71.8810  224.6370 N   0  0  0  0  0  0  0  0  0  0  0  0
  138.8090   73.6530  223.0570 H   0  0  0  0  0  0  0  0  0  0  0  0
  139.5815   73.2560  220.1976 H   0  0  0  0  0  0  0  0  0  0  0  0
  137.7986   73.1770  220.5166 H   0  0  0  0  0  0  0  0  0  0  0  0
  139.5323   76.5262  223.0514 H   0  0  0  0  0  0  0  0  0  0  0  0
  141.0608   75.6668  222.8027 H   0  0  0  0  0  0  0  0  0  0  0  0
  140.4765   78.5283  222.4715 H   0  0  0  0  0  0  0  0  0  0  0  0
  142.0557   77.7344  222.3901 H   0  0  0  0  0  0  0  0  0  0  0  0
  140.1384   78.4312  220.1649 H   0  0  0  0  0  0  0  0  0  0  0  0
  141.8714   78.2932  220.0611 H   0  0  0  0  0  0  0  0  0  0  0  0
  140.4683   76.2620  219.0426 H   0  0  0  0  0  0  0  0  0  0  0  0
  143.4387   77.1678  219.7093 H   0  0  0  0  0  0  0  0  0  0  0  0
  145.4564   75.7537  219.9050 H   0  0  0  0  0  0  0  0  0  0  0  0
  142.9877   72.4007  220.8575 H   0  0  0  0  0  0  0  0  0  0  0  0
  140.9796   73.8141  220.6620 H   0  0  0  0  0  0  0  0  0  0  0  0
  139.1420   69.2278  222.9690 H   0  0  0  0  0  0  0  0  0  0  0  0
  139.5793   68.1605  225.1514 H   0  0  0  0  0  0  0  0  0  0  0  0
  140.3690   68.3434  227.4721 H   0  0  0  0  0  0  0  0  0  0  0  0
  141.2952   69.6913  229.3309 H   0  0  0  0  0  0  0  0  0  0  0  0
  141.7620   72.1245  228.9286 H   0  0  0  0  0  0  0  0  0  0  0  0
  141.2951   73.1166  226.7016 H   0  0  0  0  0  0  0  0  0  0  0  0
  1  2  2  0
  2  3  1  0
  3  4  1  0
  4  5  1  0
  5  6  2  0
  5  7  1  0
  7  8  1  0
  8  9  1  0
  9 10  1  0
 10 11  1  0
 11 12  1  0
 12 13  2  0
 13 14  1  0
 14 15  2  0
 15 16  1  0
 16 17  2  0
 16 18  1  0
 15 19  1  0
 19 20  2  0
  2 21  1  0
 21 22  2  0
 22 23  1  0
 23 24  2  0
 24 25  1  0
 25 26  2  0
 26 27  1  0
 27 28  2  0
 28 29  1  0
 29 30  2  0
 11  7  1  0
 20 12  1  0
 30 21  1  0
 29 24  1  0
  3 31  1  0
  4 32  1  0
  4 33  1  0
  8 34  1  0
  8 35  1  0
  9 36  1  0
  9 37  1  0
 10 38  1  0
 10 39  1  0
 11 40  1  6
 13 41  1  0
 14 42  1  0
 19 43  1  0
 20 44  1  0
 22 45  1  0
 23 46  1  0
 25 47  1  0
 26 48  1  0
 27 49  1  0
 28 50  1  0
M  CHG  2  16   1  18  -1
M  END
>  <smiles>  (56) 
O=C(NCC(=O)N1CCCC1c1ccc([N+](=O)[O-])cc1)c1ccc2ccccc2n1

>  <score_type>  (56) 
oracle

>  <origin>  (56) 
autodockgpu

>  <m_score__min__energy>  (56) 
-9.4499999999999993

>  <m_primary>  (56) 
energy

>  <rmsd>  (56) 
2.323420083549351

>  <m_score__min__rmsd>  (56) 
2.323420083549351

>  <meeko>  (56) 
{"free_energy": -9.16, "intermolecular_energy": -10.95, "internal_energy": -1.75, "cluster_size": 37, "cluster_id": 2, "rank_in_cluster": 13}

>  <energy>  (56) 
-8.71

>  <cluster_rmsd>  (56) 
1.36

>  <cluster>  (56) 
1

$$$$

     RDKit          3D

 50 53  0  0  0  0  0  0  0  0999 V2000
  140.3450   71.4210  221.2290 O   0  0  0  0  0  0  0  0  0  0  0  0
  139.6630   71.8650  222.2130 C   0  0  0  0  0  0  0  0  0  0  0  0
  138.7480   72.9280  221.9780 N   0  0  0  0  0  0  0  0  0  0  0  0
  138.6560   73.4340  220.6250 C   0  0  0  0  0  0  0  0  0  0  0  0
  138.6260   74.9160  220.5940 C   0  0  0  0  0  0  0  0  0  0  0  0
  137.6110   75.5550  220.2140 O   0  0  0  0  0  0  0  0  0  0  0  0
  139.7530   75.6760  220.9950 N   0  0  0  0  0  0  0  0  0  0  0  0
  140.1930   76.0070  222.3570 C   0  0  0  0  0  0  0  0  0  0  0  0
  140.8620   77.3690  222.2620 C   0  0  0  0  0  0  0  0  0  0  0  0
  140.9030   77.7020  220.7840 C   0  0  0  0  0  0  0  0  0  0  0  0
  140.7660   76.3310  220.1570 C   0  0  1  0  0  0  0  0  0  0  0  0
  142.0360   75.5870  220.2010 C   0  0  0  0  0  0  0  0  0  0  0  0
  143.2830   76.0880  220.0200 C   0  0  0  0  0  0  0  0  0  0  0  0
  144.4330   75.2910  220.0910 C   0  0  0  0  0  0  0  0  0  0  0  0
  144.3440   73.9400  220.3530 C   0  0  0  0  0  0  0  0  0  0  0  0
  145.5310   73.1610  220.4190 N   0  0  0  0  0  4  0  0  0  0  0  0
  146.2110   73.1460  221.4660 O   0  0  0  0  0  0  0  0  0  0  0  0
  145.9610   72.4070  219.3320 O   0  0  0  0  0  1  0  0  0  0  0  0
  143.0810   73.4200  220.5380 C   0  0  0  0  0  0  0  0  0  0  0  0
  141.9440   74.2140  220.4660 C   0  0  0  0  0  0  0  0  0  0  0  0
  139.8120   71.3010  223.5530 C   0  0  0  0  0  0  0  0  0  0  0  0
  139.2700   70.0440  223.7950 C   0  0  0  0  0  0  0  0  0  0  0  0
  139.3840   69.4690  225.0430 C   0  0  0  0  0  0  0  0  0  0  0  0
  140.0340   70.1240  226.0680 C   0  0  0  0  0  0  0  0  0  0  0  0
  140.1770   69.5940  227.3350 C   0  0  0  0  0  0  0  0  0  0  0  0
  140.8300   70.2610  228.3500 C   0  0  0  0  0  0  0  0  0  0  0  0
  141.3570   71.5140  228.0660 C   0  0  0  0  0  0  0  0  0  0  0  0
  141.2140   72.0520  226.7870 C   0  0  0  0  0  0  0  0  0  0  0  0
  140.5570   71.3690  225.7800 C   0  0  0  0  0  0  0  0  0  0  0  0
  140.4450   71.9360  224.5520 N   0  0  0  0  0  0  0  0  0  0  0  0
  138.1590   73.3320  222.7650 H   0  0  0  0  0  0  0  0  0  0  0  0
  139.5278   73.0832  220.0533 H   0  0  0  0  0  0  0  0  0  0  0  0
  137.7193   73.0630  220.1834 H   0  0  0  0  0  0  0  0  0  0  0  0
  139.3297   76.0519  223.0372 H   0  0  0  0  0  0  0  0  0  0  0  0
  140.8818   75.2466  222.7538 H   0  0  0  0  0  0  0  0  0  0  0  0
  140.2770   78.1229  222.8092 H   0  0  0  0  0  0  0  0  0  0  0  0
  141.8690   77.3591  222.7046 H   0  0  0  0  0  0  0  0  0  0  0  0
  140.0686   78.3591  220.4977 H   0  0  0  0  0  0  0  0  0  0  0  0
  141.8069   78.2468  220.4738 H   0  0  0  0  0  0  0  0  0  0  0  0
  140.4900   76.3787  219.0933 H   0  0  0  0  0  0  0  0  0  0  0  0
  143.3960   77.1617  219.8093 H   0  0  0  0  0  0  0  0  0  0  0  0
  145.4208   75.7493  219.9356 H   0  0  0  0  0  0  0  0  0  0  0  0
  142.9706   72.3460  220.7486 H   0  0  0  0  0  0  0  0  0  0  0  0
  140.9549   73.7577  220.6195 H   0  0  0  0  0  0  0  0  0  0  0  0
  138.7489   69.5067  222.9889 H   0  0  0  0  0  0  0  0  0  0  0  0
  138.9506   68.4742  225.2236 H   0  0  0  0  0  0  0  0  0  0  0  0
  139.7533   68.6004  227.5429 H   0  0  0  0  0  0  0  0  0  0  0  0
  140.9301   69.8156  229.3508 H   0  0  0  0  0  0  0  0  0  0  0  0
  141.8854   72.0804  228.8470 H   0  0  0  0  0  0  0  0  0  0  0  0
  141.6349   73.0457  226.5738 H   0  0  0  0  0  0  0  0  0  0  0  0
  1  2  2  0
  2  3  1  0
  3  4  1  0
  4  5  1  0
  5  6  2  0
  5  7  1  0
  7  8  1  0
  8  9  1  0
  9 10  1  0
 10 11  1  0
 11 12  1  0
 12 13  2  0
 13 14  1  0
 14 15  2  0
 15 16  1  0
 16 17  2  0
 16 18  1  0
 15 19  1  0
 19 20  2  0
  2 21  1  0
 21 22  2  0
 22 23  1  0
 23 24  2  0
 24 25  1  0
 25 26  2  0
 26 27  1  0
 27 28  2  0
 28 29  1  0
 29 30  2  0
 11  7  1  0
 20 12  1  0
 30 21  1  0
 29 24  1  0
  3 31  1  0
  4 32  1  0
  4 33  1  0
  8 34  1  0
  8 35  1  0
  9 36  1  0
  9 37  1  0
 10 38  1  0
 10 39  1  0
 11 40  1  6
 13 41  1  0
 14 42  1  0
 19 43  1  0
 20 44  1  0
 22 45  1  0
 23 46  1  0
 25 47  1  0
 26 48  1  0
 27 49  1  0
 28 50  1  0
M  CHG  2  16   1  18  -1
M  END
>  <smiles>  (57) 
O=C(NCC(=O)N1CCCC1c1ccc([N+](=O)[O-])cc1)c1ccc2ccccc2n1

>  <score_type>  (57) 
oracle

>  <origin>  (57) 
autodockgpu

>  <m_score__min__energy>  (57) 
-9.4499999999999993

>  <m_primary>  (57) 
energy

>  <rmsd>  (57) 
2.3603364812861334

>  <m_score__min__rmsd>  (57) 
2.3603364812861334

>  <meeko>  (57) 
{"free_energy": -9.0, "intermolecular_energy": -10.79, "internal_energy": -1.76, "cluster_size": 37, "cluster_id": 2, "rank_in_cluster": 23}

>  <energy>  (57) 
-8.63

>  <cluster_rmsd>  (57) 
1.07

>  <cluster>  (57) 
1

$$$$

     RDKit          3D

 50 53  0  0  0  0  0  0  0  0999 V2000
  137.7240   71.0130  222.1270 O   0  0  0  0  0  0  0  0  0  0  0  0
  138.6230   71.4140  222.9390 C   0  0  0  0  0  0  0  0  0  0  0  0
  139.1900   72.7030  222.7400 N   0  0  0  0  0  0  0  0  0  0  0  0
  138.6980   73.4740  221.6190 C   0  0  0  0  0  0  0  0  0  0  0  0
  138.7140   74.9290  221.9050 C   0  0  0  0  0  0  0  0  0  0  0  0
  137.7400   75.5140  222.4460 O   0  0  0  0  0  0  0  0  0  0  0  0
  139.8400   75.7240  221.5760 N   0  0  0  0  0  0  0  0  0  0  0  0
  140.5690   76.6740  222.4280 C   0  0  0  0  0  0  0  0  0  0  0  0
  141.0850   77.7600  221.4990 C   0  0  0  0  0  0  0  0  0  0  0  0
  140.7410   77.2980  220.0970 C   0  0  0  0  0  0  0  0  0  0  0  0
  140.5660   75.8080  220.3000 C   0  0  1  0  0  0  0  0  0  0  0  0
  141.8630   75.1190  220.3950 C   0  0  0  0  0  0  0  0  0  0  0  0
  142.0840   73.8450  220.8040 C   0  0  0  0  0  0  0  0  0  0  0  0
  143.3640   73.2790  220.8490 C   0  0  0  0  0  0  0  0  0  0  0  0
  144.4740   74.0060  220.4730 C   0  0  0  0  0  0  0  0  0  0  0  0
  145.7590   73.4000  220.5320 N   0  0  0  0  0  4  0  0  0  0  0  0
  146.4010   73.3990  221.6020 O   0  0  0  0  0  0  0  0  0  0  0  0
  146.3250   72.8000  219.4120 O   0  0  0  0  0  1  0  0  0  0  0  0
  144.2610   75.3020  220.0560 C   0  0  0  0  0  0  0  0  0  0  0  0
  142.9900   75.8580  220.0130 C   0  0  0  0  0  0  0  0  0  0  0  0
  139.0680   70.5740  224.0510 C   0  0  0  0  0  0  0  0  0  0  0  0
  138.8680   69.2010  223.9510 C   0  0  0  0  0  0  0  0  0  0  0  0
  139.2700   68.3680  224.9730 C   0  0  0  0  0  0  0  0  0  0  0  0
  139.8740   68.8730  226.1040 C   0  0  0  0  0  0  0  0  0  0  0  0
  140.2960   68.0840  227.1560 C   0  0  0  0  0  0  0  0  0  0  0  0
  140.8990   68.6040  228.2820 C   0  0  0  0  0  0  0  0  0  0  0  0
  141.0800   69.9800  228.3400 C   0  0  0  0  0  0  0  0  0  0  0  0
  140.6550   70.7800  227.2790 C   0  0  0  0  0  0  0  0  0  0  0  0
  140.0520   70.2420  226.1580 C   0  0  0  0  0  0  0  0  0  0  0  0
  139.6570   71.0640  225.1530 N   0  0  0  0  0  0  0  0  0  0  0  0
  139.9420   73.0800  223.3890 H   0  0  0  0  0  0  0  0  0  0  0  0
  139.3338   73.2757  220.7435 H   0  0  0  0  0  0  0  0  0  0  0  0
  137.6574   73.1737  221.4266 H   0  0  0  0  0  0  0  0  0  0  0  0
  139.8951   77.1053  223.1828 H   0  0  0  0  0  0  0  0  0  0  0  0
  141.3913   76.1817  222.9679 H   0  0  0  0  0  0  0  0  0  0  0  0
  140.5923   78.7186  221.7186 H   0  0  0  0  0  0  0  0  0  0  0  0
  142.1668   77.9179  221.6204 H   0  0  0  0  0  0  0  0  0  0  0  0
  139.8126   77.7655  219.7371 H   0  0  0  0  0  0  0  0  0  0  0  0
  141.4967   77.5604  219.3420 H   0  0  0  0  0  0  0  0  0  0  0  0
  140.0385   75.3269  219.4632 H   0  0  0  0  0  0  0  0  0  0  0  0
  141.2241   73.2323  221.1125 H   0  0  0  0  0  0  0  0  0  0  0  0
  143.4859   72.2400  221.1890 H   0  0  0  0  0  0  0  0  0  0  0  0
  145.1225   75.9130  219.7486 H   0  0  0  0  0  0  0  0  0  0  0  0
  142.8656   76.8968  219.6731 H   0  0  0  0  0  0  0  0  0  0  0  0
  138.3884   68.7795  223.0552 H   0  0  0  0  0  0  0  0  0  0  0  0
  139.1062   67.2839  224.8845 H   0  0  0  0  0  0  0  0  0  0  0  0
  140.1450   66.9962  227.0932 H   0  0  0  0  0  0  0  0  0  0  0  0
  141.2253   67.9518  229.1055 H   0  0  0  0  0  0  0  0  0  0  0  0
  141.5568   70.4373  229.2195 H   0  0  0  0  0  0  0  0  0  0  0  0
  140.8039   71.8684  227.3363 H   0  0  0  0  0  0  0  0  0  0  0  0
  1  2  2  0
  2  3  1  0
  3  4  1  0
  4  5  1  0
  5  6  2  0
  5  7  1  0
  7  8  1  0
  8  9  1  0
  9 10  1  0
 10 11  1  0
 11 12  1  0
 12 13  2  0
 13 14  1  0
 14 15  2  0
 15 16  1  0
 16 17  2  0
 16 18  1  0
 15 19  1  0
 19 20  2  0
  2 21  1  0
 21 22  2  0
 22 23  1  0
 23 24  2  0
 24 25  1  0
 25 26  2  0
 26 27  1  0
 27 28  2  0
 28 29  1  0
 29 30  2  0
 11  7  1  0
 20 12  1  0
 30 21  1  0
 29 24  1  0
  3 31  1  0
  4 32  1  0
  4 33  1  0
  8 34  1  0
  8 35  1  0
  9 36  1  0
  9 37  1  0
 10 38  1  0
 10 39  1  0
 11 40  1  6
 13 41  1  0
 14 42  1  0
 19 43  1  0
 20 44  1  0
 22 45  1  0
 23 46  1  0
 25 47  1  0
 26 48  1  0
 27 49  1  0
 28 50  1  0
M  CHG  2  16   1  18  -1
M  END
>  <smiles>  (58) 
O=C(NCC(=O)N1CCCC1c1ccc([N+](=O)[O-])cc1)c1ccc2ccccc2n1

>  <score_type>  (58) 
oracle

>  <origin>  (58) 
autodockgpu

>  <m_score__min__energy>  (58) 
-9.4499999999999993

>  <m_primary>  (58) 
energy

>  <rmsd>  (58) 
2.268153816912987

>  <m_score__min__rmsd>  (58) 
2.268153816912987

>  <meeko>  (58) 
{"free_energy": -9.14, "intermolecular_energy": -10.93, "internal_energy": -1.53, "cluster_size": 37, "cluster_id": 2, "rank_in_cluster": 17}

>  <energy>  (58) 
-8.23

>  <cluster_rmsd>  (58) 
1.52

>  <cluster>  (58) 
1

$$$$

     RDKit          3D

 50 53  0  0  0  0  0  0  0  0999 V2000
  140.6020   71.8000  221.4550 O   0  0  0  0  0  0  0  0  0  0  0  0
  139.8290   72.0450  222.4400 C   0  0  0  0  0  0  0  0  0  0  0  0
  138.8540   73.0720  222.2970 N   0  0  0  0  0  0  0  0  0  0  0  0
  138.8110   73.7690  221.0300 C   0  0  0  0  0  0  0  0  0  0  0  0
  138.7170   75.2370  221.2140 C   0  0  0  0  0  0  0  0  0  0  0  0
  137.6140   75.8220  221.3660 O   0  0  0  0  0  0  0  0  0  0  0  0
  139.8820   76.0450  221.2260 N   0  0  0  0  0  0  0  0  0  0  0  0
  140.4940   76.7490  222.3620 C   0  0  0  0  0  0  0  0  0  0  0  0
  141.1360   78.0000  221.7820 C   0  0  0  0  0  0  0  0  0  0  0  0
  140.9810   77.8810  220.2790 C   0  0  0  0  0  0  0  0  0  0  0  0
  140.7730   76.3910  220.1100 C   0  0  1  0  0  0  0  0  0  0  0  0
  142.0420   75.6520  220.2110 C   0  0  0  0  0  0  0  0  0  0  0  0
  143.2860   76.1250  219.9480 C   0  0  0  0  0  0  0  0  0  0  0  0
  144.4370   75.3380  220.0850 C   0  0  0  0  0  0  0  0  0  0  0  0
  144.3520   74.0260  220.5020 C   0  0  0  0  0  0  0  0  0  0  0  0
  145.5400   73.2560  220.6300 N   0  0  0  0  0  4  0  0  0  0  0  0
  146.0780   73.1200  221.7490 O   0  0  0  0  0  0  0  0  0  0  0  0
  146.1250   72.6420  219.5280 O   0  0  0  0  0  1  0  0  0  0  0  0
  143.0930   73.5350  220.7720 C   0  0  0  0  0  0  0  0  0  0  0  0
  141.9550   74.3190  220.6340 C   0  0  0  0  0  0  0  0  0  0  0  0
  139.9350   71.2960  223.6910 C   0  0  0  0  0  0  0  0  0  0  0  0
  139.5260   69.9660  223.6910 C   0  0  0  0  0  0  0  0  0  0  0  0
  139.6060   69.2180  224.8450 C   0  0  0  0  0  0  0  0  0  0  0  0
  140.0890   69.7660  226.0140 C   0  0  0  0  0  0  0  0  0  0  0  0
  140.1910   69.0610  227.1970 C   0  0  0  0  0  0  0  0  0  0  0  0
  140.6760   69.6240  228.3590 C   0  0  0  0  0  0  0  0  0  0  0  0
  141.0730   70.9540  228.3160 C   0  0  0  0  0  0  0  0  0  0  0  0
  140.9730   71.6690  227.1210 C   0  0  0  0  0  0  0  0  0  0  0  0
  140.4830   71.0890  225.9660 C   0  0  0  0  0  0  0  0  0  0  0  0
  140.4060   71.8280  224.8300 N   0  0  0  0  0  0  0  0  0  0  0  0
  138.1890   73.3140  223.0900 H   0  0  0  0  0  0  0  0  0  0  0  0
  139.7264   73.5385  220.4652 H   0  0  0  0  0  0  0  0  0  0  0  0
  137.9162   73.4340  220.4848 H   0  0  0  0  0  0  0  0  0  0  0  0
  139.7266   77.0209  223.1017 H   0  0  0  0  0  0  0  0  0  0  0  0
  141.2334   76.1178  222.8767 H   0  0  0  0  0  0  0  0  0  0  0  0
  140.6229   78.9005  222.1504 H   0  0  0  0  0  0  0  0  0  0  0  0
  142.1924   78.0878  222.0756 H   0  0  0  0  0  0  0  0  0  0  0  0
  140.1117   78.4508  219.9190 H   0  0  0  0  0  0  0  0  0  0  0  0
  141.8325   78.2809  219.7088 H   0  0  0  0  0  0  0  0  0  0  0  0
  140.3604   76.1321  219.1237 H   0  0  0  0  0  0  0  0  0  0  0  0
  143.3953   77.1674  219.6141 H   0  0  0  0  0  0  0  0  0  0  0  0
  145.4216   75.7722  219.8570 H   0  0  0  0  0  0  0  0  0  0  0  0
  142.9864   72.4925  221.1063 H   0  0  0  0  0  0  0  0  0  0  0  0
  140.9693   73.8865  220.8605 H   0  0  0  0  0  0  0  0  0  0  0  0
  139.1380   69.5110  222.7677 H   0  0  0  0  0  0  0  0  0  0  0  0
  139.2795   68.1676  224.8335 H   0  0  0  0  0  0  0  0  0  0  0  0
  139.8727   68.0082  227.2133 H   0  0  0  0  0  0  0  0  0  0  0  0
  140.7459   69.0394  229.2881 H   0  0  0  0  0  0  0  0  0  0  0  0
  141.4649   71.4425  229.2203 H   0  0  0  0  0  0  0  0  0  0  0  0
  141.2925   72.7213  227.0981 H   0  0  0  0  0  0  0  0  0  0  0  0
  1  2  2  0
  2  3  1  0
  3  4  1  0
  4  5  1  0
  5  6  2  0
  5  7  1  0
  7  8  1  0
  8  9  1  0
  9 10  1  0
 10 11  1  0
 11 12  1  0
 12 13  2  0
 13 14  1  0
 14 15  2  0
 15 16  1  0
 16 17  2  0
 16 18  1  0
 15 19  1  0
 19 20  2  0
  2 21  1  0
 21 22  2  0
 22 23  1  0
 23 24  2  0
 24 25  1  0
 25 26  2  0
 26 27  1  0
 27 28  2  0
 28 29  1  0
 29 30  2  0
 11  7  1  0
 20 12  1  0
 30 21  1  0
 29 24  1  0
  3 31  1  0
  4 32  1  0
  4 33  1  0
  8 34  1  0
  8 35  1  0
  9 36  1  0
  9 37  1  0
 10 38  1  0
 10 39  1  0
 11 40  1  6
 13 41  1  0
 14 42  1  0
 19 43  1  0
 20 44  1  0
 22 45  1  0
 23 46  1  0
 25 47  1  0
 26 48  1  0
 27 49  1  0
 28 50  1  0
M  CHG  2  16   1  18  -1
M  END
>  <smiles>  (59) 
O=C(NCC(=O)N1CCCC1c1ccc([N+](=O)[O-])cc1)c1ccc2ccccc2n1

>  <score_type>  (59) 
oracle

>  <origin>  (59) 
autodockgpu

>  <m_score__min__energy>  (59) 
-9.4499999999999993

>  <m_primary>  (59) 
energy

>  <rmsd>  (59) 
2.3146652695748013

>  <m_score__min__rmsd>  (59) 
2.3146652695748013

>  <meeko>  (59) 
{"free_energy": -9.32, "intermolecular_energy": -11.11, "internal_energy": -1.71, "cluster_size": 37, "cluster_id": 2, "rank_in_cluster": 3}

>  <energy>  (59) 
-9.4

>  <cluster_rmsd>  (59) 
0.0

>  <cluster>  (59) 
2

$$$$

     RDKit          3D

 50 53  0  0  0  0  0  0  0  0999 V2000
  139.7160   71.2680  221.2170 O   0  0  0  0  0  0  0  0  0  0  0  0
  139.7070   71.9290  222.3080 C   0  0  0  0  0  0  0  0  0  0  0  0
  139.5420   73.3410  222.2440 N   0  0  0  0  0  0  0  0  0  0  0  0
  139.3940   73.9290  220.9310 C   0  0  0  0  0  0  0  0  0  0  0  0
  139.9570   75.3000  220.8770 C   0  0  0  0  0  0  0  0  0  0  0  0
  141.0280   75.5570  220.2710 O   0  0  0  0  0  0  0  0  0  0  0  0
  139.3000   76.3830  221.5130 N   0  0  0  0  0  0  0  0  0  0  0  0
  138.6110   76.3980  222.8110 C   0  0  0  0  0  0  0  0  0  0  0  0
  137.4860   77.4120  222.6760 C   0  0  0  0  0  0  0  0  0  0  0  0
  137.6740   78.0540  221.3170 C   0  0  0  0  0  0  0  0  0  0  0  0
  139.1340   77.7640  221.0400 C   0  0  1  0  0  0  0  0  0  0  0  0
  140.0170   78.6770  221.7850 C   0  0  0  0  0  0  0  0  0  0  0  0
  139.6810   79.8700  222.3360 C   0  0  0  0  0  0  0  0  0  0  0  0
  140.6000   80.6620  223.0370 C   0  0  0  0  0  0  0  0  0  0  0  0
  141.9070   80.2550  223.1990 C   0  0  0  0  0  0  0  0  0  0  0  0
  142.8120   81.0840  223.9160 N   0  0  0  0  0  4  0  0  0  0  0  0
  142.3780   82.0060  224.6370 O   0  0  0  0  0  0  0  0  0  0  0  0
  144.1870   80.8920  223.8330 O   0  0  0  0  0  1  0  0  0  0  0  0
  142.2590   79.0450  222.6430 C   0  0  0  0  0  0  0  0  0  0  0  0
  141.3450   78.2630  221.9500 C   0  0  0  0  0  0  0  0  0  0  0  0
  139.8630   71.2620  223.5990 C   0  0  0  0  0  0  0  0  0  0  0  0
  139.5050   69.9200  223.6870 C   0  0  0  0  0  0  0  0  0  0  0  0
  139.6330   69.2470  224.8820 C   0  0  0  0  0  0  0  0  0  0  0  0
  140.1160   69.8820  226.0060 C   0  0  0  0  0  0  0  0  0  0  0  0
  140.2650   69.2540  227.2280 C   0  0  0  0  0  0  0  0  0  0  0  0
  140.7490   69.9040  228.3430 C   0  0  0  0  0  0  0  0  0  0  0  0
  141.0960   71.2420  228.2130 C   0  0  0  0  0  0  0  0  0  0  0  0
  140.9470   71.8790  226.9800 C   0  0  0  0  0  0  0  0  0  0  0  0
  140.4600   71.2130  225.8710 C   0  0  0  0  0  0  0  0  0  0  0  0
  140.3340   71.8780  224.6950 N   0  0  0  0  0  0  0  0  0  0  0  0
  139.5290   73.9340  223.1260 H   0  0  0  0  0  0  0  0  0  0  0  0
  139.9184   73.2992  220.1973 H   0  0  0  0  0  0  0  0  0  0  0  0
  138.3199   73.9903  220.7020 H   0  0  0  0  0  0  0  0  0  0  0  0
  138.2029   75.4022  223.0387 H   0  0  0  0  0  0  0  0  0  0  0  0
  139.2972   76.6637  223.6286 H   0  0  0  0  0  0  0  0  0  0  0  0
  136.5087   76.9102  222.7313 H   0  0  0  0  0  0  0  0  0  0  0  0
  137.5121   78.1575  223.4844 H   0  0  0  0  0  0  0  0  0  0  0  0
  137.0227   77.5908  220.5611 H   0  0  0  0  0  0  0  0  0  0  0  0
  137.4180   79.1234  221.2890 H   0  0  0  0  0  0  0  0  0  0  0  0
  139.3977   77.8986  219.9806 H   0  0  0  0  0  0  0  0  0  0  0  0
  138.6470   80.2296  222.2284 H   0  0  0  0  0  0  0  0  0  0  0  0
  140.2740   81.6219  223.4640 H   0  0  0  0  0  0  0  0  0  0  0  0
  143.2939   78.6881  222.7512 H   0  0  0  0  0  0  0  0  0  0  0  0
  141.6690   77.3023  221.5233 H   0  0  0  0  0  0  0  0  0  0  0  0
  139.1190   69.3956  222.8004 H   0  0  0  0  0  0  0  0  0  0  0  0
  139.3454   68.1869  224.9402 H   0  0  0  0  0  0  0  0  0  0  0  0
  139.9863   68.1934  227.3143 H   0  0  0  0  0  0  0  0  0  0  0  0
  140.8567   69.3799  229.3041 H   0  0  0  0  0  0  0  0  0  0  0  0
  141.4867   71.7978  229.0781 H   0  0  0  0  0  0  0  0  0  0  0  0
  141.2246   72.9394  226.8884 H   0  0  0  0  0  0  0  0  0  0  0  0
  1  2  2  0
  2  3  1  0
  3  4  1  0
  4  5  1  0
  5  6  2  0
  5  7  1  0
  7  8  1  0
  8  9  1  0
  9 10  1  0
 10 11  1  0
 11 12  1  0
 12 13  2  0
 13 14  1  0
 14 15  2  0
 15 16  1  0
 16 17  2  0
 16 18  1  0
 15 19  1  0
 19 20  2  0
  2 21  1  0
 21 22  2  0
 22 23  1  0
 23 24  2  0
 24 25  1  0
 25 26  2  0
 26 27  1  0
 27 28  2  0
 28 29  1  0
 29 30  2  0
 11  7  1  0
 20 12  1  0
 30 21  1  0
 29 24  1  0
  3 31  1  0
  4 32  1  0
  4 33  1  0
  8 34  1  0
  8 35  1  0
  9 36  1  0
  9 37  1  0
 10 38  1  0
 10 39  1  0
 11 40  1  6
 13 41  1  0
 14 42  1  0
 19 43  1  0
 20 44  1  0
 22 45  1  0
 23 46  1  0
 25 47  1  0
 26 48  1  0
 27 49  1  0
 28 50  1  0
M  CHG  2  16   1  18  -1
M  END
>  <smiles>  (60) 
O=C(NCC(=O)N1CCCC1c1ccc([N+](=O)[O-])cc1)c1ccc2ccccc2n1

>  <score_type>  (60) 
oracle

>  <origin>  (60) 
autodockgpu

>  <m_score__min__energy>  (60) 
-9.4499999999999993

>  <m_primary>  (60) 
energy

>  <rmsd>  (60) 
2.7486858681017297

>  <m_score__min__rmsd>  (60) 
2.7486858681017297

>  <meeko>  (60) 
{"free_energy": -8.74, "intermolecular_energy": -10.53, "internal_energy": -1.5, "cluster_size": 8, "cluster_id": 1, "rank_in_cluster": 5}

>  <energy>  (60) 
-9.38

>  <cluster_rmsd>  (60) 
0.36

>  <cluster>  (60) 
2

$$$$

     RDKit          3D

 50 53  0  0  0  0  0  0  0  0999 V2000
  140.6360   71.6060  221.6910 O   0  0  0  0  0  0  0  0  0  0  0  0
  139.8670   71.8380  222.6830 C   0  0  0  0  0  0  0  0  0  0  0  0
  138.7950   72.7560  222.5090 N   0  0  0  0  0  0  0  0  0  0  0  0
  138.6520   73.3640  221.2040 C   0  0  0  0  0  0  0  0  0  0  0  0
  138.5580   74.8420  221.2940 C   0  0  0  0  0  0  0  0  0  0  0  0
  137.4550   75.4340  221.4120 O   0  0  0  0  0  0  0  0  0  0  0  0
  139.7220   75.6490  221.2520 N   0  0  0  0  0  0  0  0  0  0  0  0
  140.3290   76.4360  222.3350 C   0  0  0  0  0  0  0  0  0  0  0  0
  140.9720   77.6410  221.6670 C   0  0  0  0  0  0  0  0  0  0  0  0
  140.8240   77.4110  220.1760 C   0  0  0  0  0  0  0  0  0  0  0  0
  140.6180   75.9120  220.1160 C   0  0  1  0  0  0  0  0  0  0  0  0
  141.8870   75.1850  220.2780 C   0  0  0  0  0  0  0  0  0  0  0  0
  142.0480   73.9070  220.7050 C   0  0  0  0  0  0  0  0  0  0  0  0
  143.3070   73.3020  220.8150 C   0  0  0  0  0  0  0  0  0  0  0  0
  144.4560   73.9920  220.4880 C   0  0  0  0  0  0  0  0  0  0  0  0
  145.7160   73.3470  220.6120 N   0  0  0  0  0  4  0  0  0  0  0  0
  146.3250   73.3700  221.7020 O   0  0  0  0  0  0  0  0  0  0  0  0
  146.2960   72.6840  219.5370 O   0  0  0  0  0  1  0  0  0  0  0  0
  144.3030   75.2910  220.0530 C   0  0  0  0  0  0  0  0  0  0  0  0
  143.0540   75.8860  219.9460 C   0  0  0  0  0  0  0  0  0  0  0  0
  140.0760   71.1830  223.9730 C   0  0  0  0  0  0  0  0  0  0  0  0
  140.7260   71.9010  224.9720 C   0  0  0  0  0  0  0  0  0  0  0  0
  140.9460   71.3270  226.2050 C   0  0  0  0  0  0  0  0  0  0  0  0
  140.5320   70.0390  226.4720 C   0  0  0  0  0  0  0  0  0  0  0  0
  140.7270   69.4170  227.6900 C   0  0  0  0  0  0  0  0  0  0  0  0
  140.3070   68.1280  227.9420 C   0  0  0  0  0  0  0  0  0  0  0  0
  139.6630   67.4470  226.9180 C   0  0  0  0  0  0  0  0  0  0  0  0
  139.4630   68.0730  225.6870 C   0  0  0  0  0  0  0  0  0  0  0  0
  139.8910   69.3660  225.4510 C   0  0  0  0  0  0  0  0  0  0  0  0
  139.6730   69.9290  224.2360 N   0  0  0  0  0  0  0  0  0  0  0  0
  138.1290   72.9820  223.3050 H   0  0  0  0  0  0  0  0  0  0  0  0
  139.5253   73.0992  220.5898 H   0  0  0  0  0  0  0  0  0  0  0  0
  137.7226   72.9885  220.7509 H   0  0  0  0  0  0  0  0  0  0  0  0
  139.5585   76.7609  223.0496 H   0  0  0  0  0  0  0  0  0  0  0  0
  141.0670   75.8454  222.8977 H   0  0  0  0  0  0  0  0  0  0  0  0
  140.4563   78.5656  221.9655 H   0  0  0  0  0  0  0  0  0  0  0  0
  142.0270   77.7516  221.9580 H   0  0  0  0  0  0  0  0  0  0  0  0
  139.9559   77.9517  219.7710 H   0  0  0  0  0  0  0  0  0  0  0  0
  141.6779   77.7687  219.5819 H   0  0  0  0  0  0  0  0  0  0  0  0
  140.2103   75.5799  219.1498 H   0  0  0  0  0  0  0  0  0  0  0  0
  141.1556   73.3234  220.9752 H   0  0  0  0  0  0  0  0  0  0  0  0
  143.3803   72.2624  221.1670 H   0  0  0  0  0  0  0  0  0  0  0  0
  145.1967   75.8727  219.7829 H   0  0  0  0  0  0  0  0  0  0  0  0
  142.9787   76.9256  219.5946 H   0  0  0  0  0  0  0  0  0  0  0  0
  141.0649   72.9291  224.7769 H   0  0  0  0  0  0  0  0  0  0  0  0
  141.4594   71.9046  226.9879 H   0  0  0  0  0  0  0  0  0  0  0  0
  141.2377   69.9721  228.4907 H   0  0  0  0  0  0  0  0  0  0  0  0
  140.4765   67.6556  228.9208 H   0  0  0  0  0  0  0  0  0  0  0  0
  139.3113   66.4168  227.0765 H   0  0  0  0  0  0  0  0  0  0  0  0
  138.9513   67.5231  224.8834 H   0  0  0  0  0  0  0  0  0  0  0  0
  1  2  2  0
  2  3  1  0
  3  4  1  0
  4  5  1  0
  5  6  2  0
  5  7  1  0
  7  8  1  0
  8  9  1  0
  9 10  1  0
 10 11  1  0
 11 12  1  0
 12 13  2  0
 13 14  1  0
 14 15  2  0
 15 16  1  0
 16 17  2  0
 16 18  1  0
 15 19  1  0
 19 20  2  0
  2 21  1  0
 21 22  2  0
 22 23  1  0
 23 24  2  0
 24 25  1  0
 25 26  2  0
 26 27  1  0
 27 28  2  0
 28 29  1  0
 29 30  2  0
 11  7  1  0
 20 12  1  0
 30 21  1  0
 29 24  1  0
  3 31  1  0
  4 32  1  0
  4 33  1  0
  8 34  1  0
  8 35  1  0
  9 36  1  0
  9 37  1  0
 10 38  1  0
 10 39  1  0
 11 40  1  6
 13 41  1  0
 14 42  1  0
 19 43  1  0
 20 44  1  0
 22 45  1  0
 23 46  1  0
 25 47  1  0
 26 48  1  0
 27 49  1  0
 28 50  1  0
M  CHG  2  16   1  18  -1
M  END
>  <smiles>  (61) 
O=C(NCC(=O)N1CCCC1c1ccc([N+](=O)[O-])cc1)c1ccc2ccccc2n1

>  <score_type>  (61) 
oracle

>  <origin>  (61) 
autodockgpu

>  <m_score__min__energy>  (61) 
-9.4499999999999993

>  <m_primary>  (61) 
energy

>  <rmsd>  (61) 
3.164136032328567

>  <m_score__min__rmsd>  (61) 
3.164136032328567

>  <meeko>  (61) 
{"free_energy": -9.27, "intermolecular_energy": -11.06, "internal_energy": -1.71, "cluster_size": 37, "cluster_id": 2, "rank_in_cluster": 5}

>  <energy>  (61) 
-9.32

>  <cluster_rmsd>  (61) 
0.64

>  <cluster>  (61) 
2

$$$$

     RDKit          3D

 50 53  0  0  0  0  0  0  0  0999 V2000
  139.2680   70.3280  221.8800 O   0  0  0  0  0  0  0  0  0  0  0  0
  139.0650   71.1400  222.8440 C   0  0  0  0  0  0  0  0  0  0  0  0
  138.2950   72.3090  222.5930 N   0  0  0  0  0  0  0  0  0  0  0  0
  137.7910   72.4920  221.2490 C   0  0  0  0  0  0  0  0  0  0  0  0
  138.8580   72.9380  220.3190 C   0  0  0  0  0  0  0  0  0  0  0  0
  139.0920   72.3420  219.2370 O   0  0  0  0  0  0  0  0  0  0  0  0
  139.6610   74.0660  220.6210 N   0  0  0  0  0  0  0  0  0  0  0  0
  139.8580   74.7280  221.9180 C   0  0  0  0  0  0  0  0  0  0  0  0
  140.0880   76.1980  221.6080 C   0  0  0  0  0  0  0  0  0  0  0  0
  140.1570   76.2920  220.0970 C   0  0  0  0  0  0  0  0  0  0  0  0
  140.4980   74.8670  219.7160 C   0  0  1  0  0  0  0  0  0  0  0  0
  141.9240   74.5760  219.9360 C   0  0  0  0  0  0  0  0  0  0  0  0
  142.9570   75.4520  219.8670 C   0  0  0  0  0  0  0  0  0  0  0  0
  144.2850   75.0720  220.1040 C   0  0  0  0  0  0  0  0  0  0  0  0
  144.6030   73.7680  220.4210 C   0  0  0  0  0  0  0  0  0  0  0  0
  145.9610   73.4180  220.6550 N   0  0  0  0  0  4  0  0  0  0  0  0
  146.6800   73.0380  219.7070 O   0  0  0  0  0  0  0  0  0  0  0  0
  146.5160   73.4880  221.9280 O   0  0  0  0  0  1  0  0  0  0  0  0
  143.5610   72.8690  220.4930 C   0  0  0  0  0  0  0  0  0  0  0  0
  142.2470   73.2510  220.2580 C   0  0  0  0  0  0  0  0  0  0  0  0
  139.6080   70.8850  224.1770 C   0  0  0  0  0  0  0  0  0  0  0  0
  140.3930   71.8730  224.7610 C   0  0  0  0  0  0  0  0  0  0  0  0
  140.9280   71.6800  226.0160 C   0  0  0  0  0  0  0  0  0  0  0  0
  140.6980   70.5140  226.7140 C   0  0  0  0  0  0  0  0  0  0  0  0
  141.2080   70.2690  227.9730 C   0  0  0  0  0  0  0  0  0  0  0  0
  140.9690   69.0970  228.6580 C   0  0  0  0  0  0  0  0  0  0  0  0
  140.1800   68.1360  228.0390 C   0  0  0  0  0  0  0  0  0  0  0  0
  139.6620   68.3800  226.7670 C   0  0  0  0  0  0  0  0  0  0  0  0
  139.9120   69.5620  226.0940 C   0  0  0  0  0  0  0  0  0  0  0  0
  139.3840   69.7500  224.8580 N   0  0  0  0  0  0  0  0  0  0  0  0
  138.0990   73.0150  223.3620 H   0  0  0  0  0  0  0  0  0  0  0  0
  137.3805   71.5370  220.8890 H   0  0  0  0  0  0  0  0  0  0  0  0
  137.0134   73.2695  221.2771 H   0  0  0  0  0  0  0  0  0  0  0  0
  138.9653   74.6057  222.5490 H   0  0  0  0  0  0  0  0  0  0  0  0
  140.7072   74.2945  222.4665 H   0  0  0  0  0  0  0  0  0  0  0  0
  139.2558   76.8059  221.9926 H   0  0  0  0  0  0  0  0  0  0  0  0
  141.0074   76.5738  222.0808 H   0  0  0  0  0  0  0  0  0  0  0  0
  139.1915   76.6011  219.6700 H   0  0  0  0  0  0  0  0  0  0  0  0
  140.8772   77.0373  219.7284 H   0  0  0  0  0  0  0  0  0  0  0  0
  140.3156   74.6590  218.6514 H   0  0  0  0  0  0  0  0  0  0  0  0
  142.7443   76.5015  219.6153 H   0  0  0  0  0  0  0  0  0  0  0  0
  145.0848   75.8242  220.0362 H   0  0  0  0  0  0  0  0  0  0  0  0
  143.7763   71.8198  220.7436 H   0  0  0  0  0  0  0  0  0  0  0  0
  141.4456   72.5005  220.3257 H   0  0  0  0  0  0  0  0  0  0  0  0
  140.5873   72.8108  224.2199 H   0  0  0  0  0  0  0  0  0  0  0  0
  141.5480   72.4684  226.4677 H   0  0  0  0  0  0  0  0  0  0  0  0
  141.8307   71.0407  228.4492 H   0  0  0  0  0  0  0  0  0  0  0  0
  141.3888   68.9285  229.6607 H   0  0  0  0  0  0  0  0  0  0  0  0
  139.9644   67.1860  228.5500 H   0  0  0  0  0  0  0  0  0  0  0  0
  139.0382   67.6119  226.2865 H   0  0  0  0  0  0  0  0  0  0  0  0
  1  2  2  0
  2  3  1  0
  3  4  1  0
  4  5  1  0
  5  6  2  0
  5  7  1  0
  7  8  1  0
  8  9  1  0
  9 10  1  0
 10 11  1  0
 11 12  1  0
 12 13  2  0
 13 14  1  0
 14 15  2  0
 15 16  1  0
 16 17  2  0
 16 18  1  0
 15 19  1  0
 19 20  2  0
  2 21  1  0
 21 22  2  0
 22 23  1  0
 23 24  2  0
 24 25  1  0
 25 26  2  0
 26 27  1  0
 27 28  2  0
 28 29  1  0
 29 30  2  0
 11  7  1  0
 20 12  1  0
 30 21  1  0
 29 24  1  0
  3 31  1  0
  4 32  1  0
  4 33  1  0
  8 34  1  0
  8 35  1  0
  9 36  1  0
  9 37  1  0
 10 38  1  0
 10 39  1  0
 11 40  1  6
 13 41  1  0
 14 42  1  0
 19 43  1  0
 20 44  1  0
 22 45  1  0
 23 46  1  0
 25 47  1  0
 26 48  1  0
 27 49  1  0
 28 50  1  0
M  CHG  2  16   1  18  -1
M  END
>  <smiles>  (62) 
O=C(NCC(=O)N1CCCC1c1ccc([N+](=O)[O-])cc1)c1ccc2ccccc2n1

>  <score_type>  (62) 
oracle

>  <origin>  (62) 
autodockgpu

>  <m_score__min__energy>  (62) 
-9.4499999999999993

>  <m_primary>  (62) 
energy

>  <rmsd>  (62) 
3.0860400376748074

>  <m_score__min__rmsd>  (62) 
3.0860400376748074

>  <meeko>  (62) 
{"free_energy": -8.64, "intermolecular_energy": -10.43, "internal_energy": -1.67, "cluster_size": 37, "cluster_id": 2, "rank_in_cluster": 33}

>  <energy>  (62) 
-9.31

>  <cluster_rmsd>  (62) 
0.62

>  <cluster>  (62) 
2

$$$$

     RDKit          3D

 50 53  0  0  0  0  0  0  0  0999 V2000
  140.9920   72.5130  222.1800 O   0  0  0  0  0  0  0  0  0  0  0  0
  139.9230   72.2910  222.8410 C   0  0  0  0  0  0  0  0  0  0  0  0
  138.7520   73.0230  222.5010 N   0  0  0  0  0  0  0  0  0  0  0  0
  138.8600   73.9760  221.4180 C   0  0  0  0  0  0  0  0  0  0  0  0
  139.1190   75.3480  221.9180 C   0  0  0  0  0  0  0  0  0  0  0  0
  138.4220   75.8690  222.8270 O   0  0  0  0  0  0  0  0  0  0  0  0
  140.1720   76.1310  221.3840 N   0  0  0  0  0  0  0  0  0  0  0  0
  141.0540   77.0760  222.0840 C   0  0  0  0  0  0  0  0  0  0  0  0
  141.3990   78.1560  221.0710 C   0  0  0  0  0  0  0  0  0  0  0  0
  140.7980   77.6940  219.7590 C   0  0  0  0  0  0  0  0  0  0  0  0
  140.6500   76.2060  219.9970 C   0  0  1  0  0  0  0  0  0  0  0  0
  141.9370   75.5050  219.8530 C   0  0  0  0  0  0  0  0  0  0  0  0
  142.8430   75.6570  218.8560 C   0  0  0  0  0  0  0  0  0  0  0  0
  144.0490   74.9440  218.8180 C   0  0  0  0  0  0  0  0  0  0  0  0
  144.3700   74.0410  219.8100 C   0  0  0  0  0  0  0  0  0  0  0  0
  145.6020   73.3350  219.7390 N   0  0  0  0  0  4  0  0  0  0  0  0
  146.3960   73.3670  220.7020 O   0  0  0  0  0  0  0  0  0  0  0  0
  145.9490   72.6010  218.6110 O   0  0  0  0  0  1  0  0  0  0  0  0
  143.4560   73.8790  220.8280 C   0  0  0  0  0  0  0  0  0  0  0  0
  142.2630   74.5880  220.8610 C   0  0  0  0  0  0  0  0  0  0  0  0
  139.8930   71.3090  223.9240 C   0  0  0  0  0  0  0  0  0  0  0  0
  139.2210   70.1120  223.7000 C   0  0  0  0  0  0  0  0  0  0  0  0
  139.1640   69.1550  224.6900 C   0  0  0  0  0  0  0  0  0  0  0  0
  139.7670   69.3620  225.9120 C   0  0  0  0  0  0  0  0  0  0  0  0
  139.7400   68.4370  226.9380 C   0  0  0  0  0  0  0  0  0  0  0  0
  140.3480   68.6590  228.1550 C   0  0  0  0  0  0  0  0  0  0  0  0
  141.0080   69.8670  228.3370 C   0  0  0  0  0  0  0  0  0  0  0  0
  141.0380   70.8030  227.3030 C   0  0  0  0  0  0  0  0  0  0  0  0
  140.4230   70.5650  226.0880 C   0  0  0  0  0  0  0  0  0  0  0  0
  140.4800   71.5080  225.1150 N   0  0  0  0  0  0  0  0  0  0  0  0
  137.8380   72.8730  223.0230 H   0  0  0  0  0  0  0  0  0  0  0  0
  139.6877   73.6746  220.7592 H   0  0  0  0  0  0  0  0  0  0  0  0
  137.9048   73.9846  220.8725 H   0  0  0  0  0  0  0  0  0  0  0  0
  140.5346   77.5148  222.9487 H   0  0  0  0  0  0  0  0  0  0  0  0
  141.9575   76.5774  222.4649 H   0  0  0  0  0  0  0  0  0  0  0  0
  140.9635   79.1195  221.3742 H   0  0  0  0  0  0  0  0  0  0  0  0
  142.4859   78.3045  220.9899 H   0  0  0  0  0  0  0  0  0  0  0  0
  139.8234   78.1696  219.5747 H   0  0  0  0  0  0  0  0  0  0  0  0
  141.4037   77.9472  218.8764 H   0  0  0  0  0  0  0  0  0  0  0  0
  139.9722   75.7282  219.2742 H   0  0  0  0  0  0  0  0  0  0  0  0
  142.6231   76.3674  218.0455 H   0  0  0  0  0  0  0  0  0  0  0  0
  144.7493   75.1068  217.9855 H   0  0  0  0  0  0  0  0  0  0  0  0
  143.6778   73.1679  221.6374 H   0  0  0  0  0  0  0  0  0  0  0  0
  141.5615   74.4271  221.6928 H   0  0  0  0  0  0  0  0  0  0  0  0
  138.7341   69.9289  222.7308 H   0  0  0  0  0  0  0  0  0  0  0  0
  138.6295   68.2121  224.5022 H   0  0  0  0  0  0  0  0  0  0  0  0
  139.2122   67.4854  226.7772 H   0  0  0  0  0  0  0  0  0  0  0  0
  140.3116   67.9047  228.9549 H   0  0  0  0  0  0  0  0  0  0  0  0
  141.5056   70.0853  229.2934 H   0  0  0  0  0  0  0  0  0  0  0  0
  141.5651   71.7559  227.4586 H   0  0  0  0  0  0  0  0  0  0  0  0
  1  2  2  0
  2  3  1  0
  3  4  1  0
  4  5  1  0
  5  6  2  0
  5  7  1  0
  7  8  1  0
  8  9  1  0
  9 10  1  0
 10 11  1  0
 11 12  1  0
 12 13  2  0
 13 14  1  0
 14 15  2  0
 15 16  1  0
 16 17  2  0
 16 18  1  0
 15 19  1  0
 19 20  2  0
  2 21  1  0
 21 22  2  0
 22 23  1  0
 23 24  2  0
 24 25  1  0
 25 26  2  0
 26 27  1  0
 27 28  2  0
 28 29  1  0
 29 30  2  0
 11  7  1  0
 20 12  1  0
 30 21  1  0
 29 24  1  0
  3 31  1  0
  4 32  1  0
  4 33  1  0
  8 34  1  0
  8 35  1  0
  9 36  1  0
  9 37  1  0
 10 38  1  0
 10 39  1  0
 11 40  1  6
 13 41  1  0
 14 42  1  0
 19 43  1  0
 20 44  1  0
 22 45  1  0
 23 46  1  0
 25 47  1  0
 26 48  1  0
 27 49  1  0
 28 50  1  0
M  CHG  2  16   1  18  -1
M  END
>  <smiles>  (63) 
O=C(NCC(=O)N1CCCC1c1ccc([N+](=O)[O-])cc1)c1ccc2ccccc2n1

>  <score_type>  (63) 
oracle

>  <origin>  (63) 
autodockgpu

>  <m_score__min__energy>  (63) 
-9.4499999999999993

>  <m_primary>  (63) 
energy

>  <rmsd>  (63) 
2.2900436604610146

>  <m_score__min__rmsd>  (63) 
2.2900436604610146

>  <meeko>  (63) 
{"free_energy": -9.15, "intermolecular_energy": -10.94, "internal_energy": -1.52, "cluster_size": 37, "cluster_id": 2, "rank_in_cluster": 15}

>  <energy>  (63) 
-9.27

>  <cluster_rmsd>  (63) 
0.68

>  <cluster>  (63) 
2

$$$$

     RDKit          3D

 50 53  0  0  0  0  0  0  0  0999 V2000
  137.7630   70.8990  222.0440 O   0  0  0  0  0  0  0  0  0  0  0  0
  138.6070   71.3530  222.8870 C   0  0  0  0  0  0  0  0  0  0  0  0
  139.1080   72.6710  222.7000 N   0  0  0  0  0  0  0  0  0  0  0  0
  138.6170   73.4080  221.5560 C   0  0  0  0  0  0  0  0  0  0  0  0
  138.5900   74.8690  221.8140 C   0  0  0  0  0  0  0  0  0  0  0  0
  137.5920   75.4370  222.3250 O   0  0  0  0  0  0  0  0  0  0  0  0
  139.7010   75.6860  221.4890 N   0  0  0  0  0  0  0  0  0  0  0  0
  140.4190   76.6370  222.3500 C   0  0  0  0  0  0  0  0  0  0  0  0
  140.9110   77.7440  221.4320 C   0  0  0  0  0  0  0  0  0  0  0  0
  140.5660   77.2950  220.0260 C   0  0  0  0  0  0  0  0  0  0  0  0
  140.4180   75.7990  220.2110 C   0  0  1  0  0  0  0  0  0  0  0  0
  141.7270   75.1310  220.2890 C   0  0  0  0  0  0  0  0  0  0  0  0
  141.9850   73.8960  220.7860 C   0  0  0  0  0  0  0  0  0  0  0  0
  143.2740   73.3460  220.8060 C   0  0  0  0  0  0  0  0  0  0  0  0
  144.3520   74.0500  220.3130 C   0  0  0  0  0  0  0  0  0  0  0  0
  145.6460   73.4610  220.3490 N   0  0  0  0  0  4  0  0  0  0  0  0
  146.2840   73.4230  221.4220 O   0  0  0  0  0  0  0  0  0  0  0  0
  146.2250   72.9200  219.2070 O   0  0  0  0  0  1  0  0  0  0  0  0
  144.1010   75.3060  219.8060 C   0  0  0  0  0  0  0  0  0  0  0  0
  142.8220   75.8470  219.7880 C   0  0  0  0  0  0  0  0  0  0  0  0
  139.0550   70.5460  224.0200 C   0  0  0  0  0  0  0  0  0  0  0  0
  138.8670   69.1690  223.9550 C   0  0  0  0  0  0  0  0  0  0  0  0
  139.2720   68.3660  224.9980 C   0  0  0  0  0  0  0  0  0  0  0  0
  139.8680   68.9040  226.1180 C   0  0  0  0  0  0  0  0  0  0  0  0
  140.2930   68.1440  227.1910 C   0  0  0  0  0  0  0  0  0  0  0  0
  140.8880   68.6980  228.3050 C   0  0  0  0  0  0  0  0  0  0  0  0
  141.0570   70.0760  228.3290 C   0  0  0  0  0  0  0  0  0  0  0  0
  140.6300   70.8460  227.2470 C   0  0  0  0  0  0  0  0  0  0  0  0
  140.0350   70.2750  226.1380 C   0  0  0  0  0  0  0  0  0  0  0  0
  139.6370   71.0680  225.1120 N   0  0  0  0  0  0  0  0  0  0  0  0
  139.8120   73.0930  223.3740 H   0  0  0  0  0  0  0  0  0  0  0  0
  139.2737   73.2101  220.6960 H   0  0  0  0  0  0  0  0  0  0  0  0
  137.5881   73.0772  221.3512 H   0  0  0  0  0  0  0  0  0  0  0  0
  139.7423   77.0468  223.1144 H   0  0  0  0  0  0  0  0  0  0  0  0
  141.2526   76.1518  222.8789 H   0  0  0  0  0  0  0  0  0  0  0  0
  140.4037   78.6912  221.6674 H   0  0  0  0  0  0  0  0  0  0  0  0
  141.9908   77.9183  221.5489 H   0  0  0  0  0  0  0  0  0  0  0  0
  139.6274   77.7511  219.6780 H   0  0  0  0  0  0  0  0  0  0  0  0
  141.3119   77.5805  219.2697 H   0  0  0  0  0  0  0  0  0  0  0  0
  139.8940   75.3195  219.3710 H   0  0  0  0  0  0  0  0  0  0  0  0
  141.1507   73.3031  221.1889 H   0  0  0  0  0  0  0  0  0  0  0  0
  143.4277   72.3388  221.2207 H   0  0  0  0  0  0  0  0  0  0  0  0
  144.9371   75.8971  219.4041 H   0  0  0  0  0  0  0  0  0  0  0  0
  142.6662   76.8540  219.3736 H   0  0  0  0  0  0  0  0  0  0  0  0
  138.3940   68.7208  223.0688 H   0  0  0  0  0  0  0  0  0  0  0  0
  139.1174   67.2787  224.9361 H   0  0  0  0  0  0  0  0  0  0  0  0
  140.1511   67.0538  227.1552 H   0  0  0  0  0  0  0  0  0  0  0  0
  141.2174   68.0698  229.1457 H   0  0  0  0  0  0  0  0  0  0  0  0
  141.5263   70.5591  229.1987 H   0  0  0  0  0  0  0  0  0  0  0  0
  140.7706   71.9366  227.2773 H   0  0  0  0  0  0  0  0  0  0  0  0
  1  2  2  0
  2  3  1  0
  3  4  1  0
  4  5  1  0
  5  6  2  0
  5  7  1  0
  7  8  1  0
  8  9  1  0
  9 10  1  0
 10 11  1  0
 11 12  1  0
 12 13  2  0
 13 14  1  0
 14 15  2  0
 15 16  1  0
 16 17  2  0
 16 18  1  0
 15 19  1  0
 19 20  2  0
  2 21  1  0
 21 22  2  0
 22 23  1  0
 23 24  2  0
 24 25  1  0
 25 26  2  0
 26 27  1  0
 27 28  2  0
 28 29  1  0
 29 30  2  0
 11  7  1  0
 20 12  1  0
 30 21  1  0
 29 24  1  0
  3 31  1  0
  4 32  1  0
  4 33  1  0
  8 34  1  0
  8 35  1  0
  9 36  1  0
  9 37  1  0
 10 38  1  0
 10 39  1  0
 11 40  1  6
 13 41  1  0
 14 42  1  0
 19 43  1  0
 20 44  1  0
 22 45  1  0
 23 46  1  0
 25 47  1  0
 26 48  1  0
 27 49  1  0
 28 50  1  0
M  CHG  2  16   1  18  -1
M  END
>  <smiles>  (64) 
O=C(NCC(=O)N1CCCC1c1ccc([N+](=O)[O-])cc1)c1ccc2ccccc2n1

>  <score_type>  (64) 
oracle

>  <origin>  (64) 
autodockgpu

>  <m_score__min__energy>  (64) 
-9.4499999999999993

>  <m_primary>  (64) 
energy

>  <rmsd>  (64) 
2.2265373867426086

>  <m_score__min__rmsd>  (64) 
2.2265373867426086

>  <meeko>  (64) 
{"free_energy": -9.11, "intermolecular_energy": -10.9, "internal_energy": -1.58, "cluster_size": 37, "cluster_id": 2, "rank_in_cluster": 19}

>  <energy>  (64) 
-9.25

>  <cluster_rmsd>  (64) 
0.72

>  <cluster>  (64) 
2

$$$$

     RDKit          3D

 50 53  0  0  0  0  0  0  0  0999 V2000
  140.6530   73.0110  222.2980 O   0  0  0  0  0  0  0  0  0  0  0  0
  139.6770   72.2450  222.5940 C   0  0  0  0  0  0  0  0  0  0  0  0
  138.5760   72.1720  221.6960 N   0  0  0  0  0  0  0  0  0  0  0  0
  138.6470   72.9810  220.4980 C   0  0  0  0  0  0  0  0  0  0  0  0
  138.4300   74.4180  220.7920 C   0  0  0  0  0  0  0  0  0  0  0  0
  137.2800   74.9260  220.8250 O   0  0  0  0  0  0  0  0  0  0  0  0
  139.5240   75.2810  221.0500 N   0  0  0  0  0  0  0  0  0  0  0  0
  140.0160   75.7710  222.3460 C   0  0  0  0  0  0  0  0  0  0  0  0
  140.5850   77.1550  222.0820 C   0  0  0  0  0  0  0  0  0  0  0  0
  140.5210   77.3450  220.5790 C   0  0  0  0  0  0  0  0  0  0  0  0
  140.4420   75.9130  220.0930 C   0  0  1  0  0  0  0  0  0  0  0  0
  141.7600   75.2570  220.1280 C   0  0  0  0  0  0  0  0  0  0  0  0
  142.0080   73.9270  220.2200 C   0  0  0  0  0  0  0  0  0  0  0  0
  143.3060   73.4020  220.2370 C   0  0  0  0  0  0  0  0  0  0  0  0
  144.4070   74.2290  220.1590 C   0  0  0  0  0  0  0  0  0  0  0  0
  145.7100   73.6620  220.1780 N   0  0  0  0  0  4  0  0  0  0  0  0
  146.4010   73.7210  221.2160 O   0  0  0  0  0  0  0  0  0  0  0  0
  146.2410   73.0350  219.0570 O   0  0  0  0  0  1  0  0  0  0  0  0
  144.1660   75.5830  220.0650 C   0  0  0  0  0  0  0  0  0  0  0  0
  142.8770   76.0990  220.0490 C   0  0  0  0  0  0  0  0  0  0  0  0
  139.6780   71.4570  223.8260 C   0  0  0  0  0  0  0  0  0  0  0  0
  138.9100   70.2980  223.8590 C   0  0  0  0  0  0  0  0  0  0  0  0
  138.8780   69.5220  224.9970 C   0  0  0  0  0  0  0  0  0  0  0  0
  139.6010   69.8740  226.1170 C   0  0  0  0  0  0  0  0  0  0  0  0
  139.6060   69.1320  227.2820 C   0  0  0  0  0  0  0  0  0  0  0  0
  140.3350   69.4980  228.3930 C   0  0  0  0  0  0  0  0  0  0  0  0
  141.0880   70.6620  228.3180 C   0  0  0  0  0  0  0  0  0  0  0  0
  141.0870   71.4130  227.1420 C   0  0  0  0  0  0  0  0  0  0  0  0
  140.3500   71.0320  226.0360 C   0  0  0  0  0  0  0  0  0  0  0  0
  140.3830   71.7980  224.9170 N   0  0  0  0  0  0  0  0  0  0  0  0
  137.7400   71.5490  221.8990 H   0  0  0  0  0  0  0  0  0  0  0  0
  139.6404   72.8566  220.0424 H   0  0  0  0  0  0  0  0  0  0  0  0
  137.8539   72.6481  219.8123 H   0  0  0  0  0  0  0  0  0  0  0  0
  139.1907   75.8290  223.0710 H   0  0  0  0  0  0  0  0  0  0  0  0
  140.7754   75.0973  222.7695 H   0  0  0  0  0  0  0  0  0  0  0  0
  139.9821   77.9211  222.5915 H   0  0  0  0  0  0  0  0  0  0  0  0
  141.6137   77.2499  222.4598 H   0  0  0  0  0  0  0  0  0  0  0  0
  139.6295   77.9183  220.2847 H   0  0  0  0  0  0  0  0  0  0  0  0
  141.3671   77.9120  220.1636 H   0  0  0  0  0  0  0  0  0  0  0  0
  140.1042   75.8396  219.0487 H   0  0  0  0  0  0  0  0  0  0  0  0
  141.1564   73.2336  220.2837 H   0  0  0  0  0  0  0  0  0  0  0  0
  143.4497   72.3141  220.3137 H   0  0  0  0  0  0  0  0  0  0  0  0
  145.0192   76.2744  220.0008 H   0  0  0  0  0  0  0  0  0  0  0  0
  142.7305   77.1865  219.9730 H   0  0  0  0  0  0  0  0  0  0  0  0
  138.3271   70.0003  222.9749 H   0  0  0  0  0  0  0  0  0  0  0  0
  138.2664   68.6078  225.0122 H   0  0  0  0  0  0  0  0  0  0  0  0
  139.0041   68.2123  227.3248 H   0  0  0  0  0  0  0  0  0  0  0  0
  140.3207   68.8883  229.3084 H   0  0  0  0  0  0  0  0  0  0  0  0
  141.6832   70.9910  229.1825 H   0  0  0  0  0  0  0  0  0  0  0  0
  141.6886   72.3326  227.0936 H   0  0  0  0  0  0  0  0  0  0  0  0
  1  2  2  0
  2  3  1  0
  3  4  1  0
  4  5  1  0
  5  6  2  0
  5  7  1  0
  7  8  1  0
  8  9  1  0
  9 10  1  0
 10 11  1  0
 11 12  1  0
 12 13  2  0
 13 14  1  0
 14 15  2  0
 15 16  1  0
 16 17  2  0
 16 18  1  0
 15 19  1  0
 19 20  2  0
  2 21  1  0
 21 22  2  0
 22 23  1  0
 23 24  2  0
 24 25  1  0
 25 26  2  0
 26 27  1  0
 27 28  2  0
 28 29  1  0
 29 30  2  0
 11  7  1  0
 20 12  1  0
 30 21  1  0
 29 24  1  0
  3 31  1  0
  4 32  1  0
  4 33  1  0
  8 34  1  0
  8 35  1  0
  9 36  1  0
  9 37  1  0
 10 38  1  0
 10 39  1  0
 11 40  1  6
 13 41  1  0
 14 42  1  0
 19 43  1  0
 20 44  1  0
 22 45  1  0
 23 46  1  0
 25 47  1  0
 26 48  1  0
 27 49  1  0
 28 50  1  0
M  CHG  2  16   1  18  -1
M  END
>  <smiles>  (65) 
O=C(NCC(=O)N1CCCC1c1ccc([N+](=O)[O-])cc1)c1ccc2ccccc2n1

>  <score_type>  (65) 
oracle

>  <origin>  (65) 
autodockgpu

>  <m_score__min__energy>  (65) 
-9.4499999999999993

>  <m_primary>  (65) 
energy

>  <rmsd>  (65) 
2.3727662636169176

>  <m_score__min__rmsd>  (65) 
2.3727662636169176

>  <meeko>  (65) 
{"free_energy": -8.88, "intermolecular_energy": -10.67, "internal_energy": -1.55, "cluster_size": 37, "cluster_id": 2, "rank_in_cluster": 26}

>  <energy>  (65) 
-9.25

>  <cluster_rmsd>  (65) 
0.73

>  <cluster>  (65) 
2

$$$$

     RDKit          3D

 50 53  0  0  0  0  0  0  0  0999 V2000
  140.6530   71.7750  221.9820 O   0  0  0  0  0  0  0  0  0  0  0  0
  139.7180   71.7290  222.8490 C   0  0  0  0  0  0  0  0  0  0  0  0
  138.6220   72.6260  222.7120 N   0  0  0  0  0  0  0  0  0  0  0  0
  138.6500   73.5350  221.5860 C   0  0  0  0  0  0  0  0  0  0  0  0
  139.5970   74.6550  221.8070 C   0  0  0  0  0  0  0  0  0  0  0  0
  140.8310   74.4650  221.9560 O   0  0  0  0  0  0  0  0  0  0  0  0
  139.1400   75.9950  221.8600 N   0  0  0  0  0  0  0  0  0  0  0  0
  138.1250   76.5800  222.7470 C   0  0  0  0  0  0  0  0  0  0  0  0
  137.4610   77.6910  221.9490 C   0  0  0  0  0  0  0  0  0  0  0  0
  138.2440   77.7900  220.6550 C   0  0  0  0  0  0  0  0  0  0  0  0
  139.5570   77.1420  221.0410 C   0  0  1  0  0  0  0  0  0  0  0  0
  140.4020   78.0580  221.8230 C   0  0  0  0  0  0  0  0  0  0  0  0
  141.0670   77.7760  222.9710 C   0  0  0  0  0  0  0  0  0  0  0  0
  141.8570   78.7230  223.6370 C   0  0  0  0  0  0  0  0  0  0  0  0
  141.9940   80.0040  223.1440 C   0  0  0  0  0  0  0  0  0  0  0  0
  142.8030   80.9390  223.8450 N   0  0  0  0  0  4  0  0  0  0  0  0
  144.0470   80.8250  223.8280 O   0  0  0  0  0  0  0  0  0  0  0  0
  142.2380   81.9910  224.5580 O   0  0  0  0  0  1  0  0  0  0  0  0
  141.3220   80.3010  221.9780 C   0  0  0  0  0  0  0  0  0  0  0  0
  140.5410   79.3590  221.3220 C   0  0  0  0  0  0  0  0  0  0  0  0
  139.7610   70.7810  223.9600 C   0  0  0  0  0  0  0  0  0  0  0  0
  139.1610   69.5390  223.7820 C   0  0  0  0  0  0  0  0  0  0  0  0
  139.1750   68.6110  224.8000 C   0  0  0  0  0  0  0  0  0  0  0  0
  139.7800   68.8910  226.0070 C   0  0  0  0  0  0  0  0  0  0  0  0
  139.8230   67.9970  227.0590 C   0  0  0  0  0  0  0  0  0  0  0  0
  140.4320   68.2930  228.2610 C   0  0  0  0  0  0  0  0  0  0  0  0
  141.0200   69.5440  228.3970 C   0  0  0  0  0  0  0  0  0  0  0  0
  140.9780   70.4480  227.3360 C   0  0  0  0  0  0  0  0  0  0  0  0
  140.3630   70.1360  226.1380 C   0  0  0  0  0  0  0  0  0  0  0  0
  140.3500   71.0510  225.1360 N   0  0  0  0  0  0  0  0  0  0  0  0
  137.8200   72.6260  223.4080 H   0  0  0  0  0  0  0  0  0  0  0  0
  138.9581   72.9800  220.6877 H   0  0  0  0  0  0  0  0  0  0  0  0
  137.6422   73.9581  221.4624 H   0  0  0  0  0  0  0  0  0  0  0  0
  137.3836   75.8195  223.0333 H   0  0  0  0  0  0  0  0  0  0  0  0
  138.5739   76.9636  223.6751 H   0  0  0  0  0  0  0  0  0  0  0  0
  136.4100   77.4401  221.7432 H   0  0  0  0  0  0  0  0  0  0  0  0
  137.4633   78.6435  222.4991 H   0  0  0  0  0  0  0  0  0  0  0  0
  137.7480   77.2383  219.8428 H   0  0  0  0  0  0  0  0  0  0  0  0
  138.3476   78.8163  220.2729 H   0  0  0  0  0  0  0  0  0  0  0  0
  140.1615   76.8587  220.1667 H   0  0  0  0  0  0  0  0  0  0  0  0
  140.9831   76.7648  223.3958 H   0  0  0  0  0  0  0  0  0  0  0  0
  142.3748   78.4408  224.5656 H   0  0  0  0  0  0  0  0  0  0  0  0
  141.4068   81.3129  221.5551 H   0  0  0  0  0  0  0  0  0  0  0  0
  140.0225   79.6389  220.3931 H   0  0  0  0  0  0  0  0  0  0  0  0
  138.6740   69.2971  222.8258 H   0  0  0  0  0  0  0  0  0  0  0  0
  138.6965   67.6323  224.6478 H   0  0  0  0  0  0  0  0  0  0  0  0
  139.3532   67.0103  226.9335 H   0  0  0  0  0  0  0  0  0  0  0  0
  140.4513   67.5631  229.0837 H   0  0  0  0  0  0  0  0  0  0  0  0
  141.5171   69.8207  229.3384 H   0  0  0  0  0  0  0  0  0  0  0  0
  141.4468   71.4359  227.4556 H   0  0  0  0  0  0  0  0  0  0  0  0
  1  2  2  0
  2  3  1  0
  3  4  1  0
  4  5  1  0
  5  6  2  0
  5  7  1  0
  7  8  1  0
  8  9  1  0
  9 10  1  0
 10 11  1  0
 11 12  1  0
 12 13  2  0
 13 14  1  0
 14 15  2  0
 15 16  1  0
 16 17  2  0
 16 18  1  0
 15 19  1  0
 19 20  2  0
  2 21  1  0
 21 22  2  0
 22 23  1  0
 23 24  2  0
 24 25  1  0
 25 26  2  0
 26 27  1  0
 27 28  2  0
 28 29  1  0
 29 30  2  0
 11  7  1  0
 20 12  1  0
 30 21  1  0
 29 24  1  0
  3 31  1  0
  4 32  1  0
  4 33  1  0
  8 34  1  0
  8 35  1  0
  9 36  1  0
  9 37  1  0
 10 38  1  0
 10 39  1  0
 11 40  1  6
 13 41  1  0
 14 42  1  0
 19 43  1  0
 20 44  1  0
 22 45  1  0
 23 46  1  0
 25 47  1  0
 26 48  1  0
 27 49  1  0
 28 50  1  0
M  CHG  2  16   1  18  -1
M  END
>  <smiles>  (66) 
O=C(NCC(=O)N1CCCC1c1ccc([N+](=O)[O-])cc1)c1ccc2ccccc2n1

>  <score_type>  (66) 
oracle

>  <origin>  (66) 
autodockgpu

>  <m_score__min__energy>  (66) 
-9.4499999999999993

>  <m_primary>  (66) 
energy

>  <rmsd>  (66) 
2.4852983179436143

>  <m_score__min__rmsd>  (66) 
2.4852983179436143

>  <meeko>  (66) 
{"free_energy": -9.45, "intermolecular_energy": -11.24, "internal_energy": -1.31, "cluster_size": 8, "cluster_id": 1, "rank_in_cluster": 1}

>  <energy>  (66) 
-9.25

>  <cluster_rmsd>  (66) 
0.44

>  <cluster>  (66) 
2

$$$$

     RDKit          3D

 50 53  0  0  0  0  0  0  0  0999 V2000
  141.0510   72.2980  221.7620 O   0  0  0  0  0  0  0  0  0  0  0  0
  140.0290   72.3130  222.5260 C   0  0  0  0  0  0  0  0  0  0  0  0
  138.9290   73.1430  222.1710 N   0  0  0  0  0  0  0  0  0  0  0  0
  139.0520   73.9170  220.9540 C   0  0  0  0  0  0  0  0  0  0  0  0
  139.8380   75.1560  221.1680 C   0  0  0  0  0  0  0  0  0  0  0  0
  141.0660   75.2200  220.9060 O   0  0  0  0  0  0  0  0  0  0  0  0
  139.2270   76.3260  221.6820 N   0  0  0  0  0  0  0  0  0  0  0  0
  138.4960   76.4960  222.9470 C   0  0  0  0  0  0  0  0  0  0  0  0
  137.4400   77.5560  222.6810 C   0  0  0  0  0  0  0  0  0  0  0  0
  137.7110   78.0630  221.2780 C   0  0  0  0  0  0  0  0  0  0  0  0
  139.1600   77.6670  221.0850 C   0  0  1  0  0  0  0  0  0  0  0  0
  140.0700   78.5910  221.7810 C   0  0  0  0  0  0  0  0  0  0  0  0
  140.0190   79.9470  221.7770 C   0  0  0  0  0  0  0  0  0  0  0  0
  140.9340   80.7380  222.4840 C   0  0  0  0  0  0  0  0  0  0  0  0
  141.9420   80.1620  223.2280 C   0  0  0  0  0  0  0  0  0  0  0  0
  142.8520   80.9940  223.9340 N   0  0  0  0  0  4  0  0  0  0  0  0
  144.0830   80.8160  223.8150 O   0  0  0  0  0  0  0  0  0  0  0  0
  142.4020   82.0160  224.7630 O   0  0  0  0  0  1  0  0  0  0  0  0
  142.0030   78.7850  223.2390 C   0  0  0  0  0  0  0  0  0  0  0  0
  141.0950   78.0050  222.5360 C   0  0  0  0  0  0  0  0  0  0  0  0
  139.9800   71.5020  223.7410 C   0  0  0  0  0  0  0  0  0  0  0  0
  139.3110   70.2840  223.6850 C   0  0  0  0  0  0  0  0  0  0  0  0
  139.2370   69.4830  224.8040 C   0  0  0  0  0  0  0  0  0  0  0  0
  139.8200   69.8680  225.9920 C   0  0  0  0  0  0  0  0  0  0  0  0
  139.7760   69.1040  227.1410 C   0  0  0  0  0  0  0  0  0  0  0  0
  140.3640   69.5030  228.3230 C   0  0  0  0  0  0  0  0  0  0  0  0
  141.0220   70.7260  228.3360 C   0  0  0  0  0  0  0  0  0  0  0  0
  141.0690   71.5000  227.1760 C   0  0  0  0  0  0  0  0  0  0  0  0
  140.4740   71.0850  226.0000 C   0  0  0  0  0  0  0  0  0  0  0  0
  140.5480   71.8750  224.8990 N   0  0  0  0  0  0  0  0  0  0  0  0
  138.0570   73.1900  222.7760 H   0  0  0  0  0  0  0  0  0  0  0  0
  139.5540   73.3039  220.1910 H   0  0  0  0  0  0  0  0  0  0  0  0
  138.0417   74.2044  220.6273 H   0  0  0  0  0  0  0  0  0  0  0  0
  138.0211   75.5494  223.2442 H   0  0  0  0  0  0  0  0  0  0  0  0
  139.1690   76.7938  223.7645 H   0  0  0  0  0  0  0  0  0  0  0  0
  136.4329   77.1178  222.7425 H   0  0  0  0  0  0  0  0  0  0  0  0
  137.4847   78.3681  223.4216 H   0  0  0  0  0  0  0  0  0  0  0  0
  137.0591   77.5715  220.5408 H   0  0  0  0  0  0  0  0  0  0  0  0
  137.5198   79.1382  221.1463 H   0  0  0  0  0  0  0  0  0  0  0  0
  139.4672   77.6915  220.0291 H   0  0  0  0  0  0  0  0  0  0  0  0
  139.2285   80.4445  221.1960 H   0  0  0  0  0  0  0  0  0  0  0  0
  140.8471   81.8339  222.4450 H   0  0  0  0  0  0  0  0  0  0  0  0
  142.7939   78.2900  223.8216 H   0  0  0  0  0  0  0  0  0  0  0  0
  141.1814   76.9090  222.5721 H   0  0  0  0  0  0  0  0  0  0  0  0
  138.8399   69.9593  222.7455 H   0  0  0  0  0  0  0  0  0  0  0  0
  138.7047   68.5220  224.7481 H   0  0  0  0  0  0  0  0  0  0  0  0
  139.2507   68.1379  227.1126 H   0  0  0  0  0  0  0  0  0  0  0  0
  140.3136   68.8744  229.2243 H   0  0  0  0  0  0  0  0  0  0  0  0
  141.5045   71.0833  229.2577 H   0  0  0  0  0  0  0  0  0  0  0  0
  141.5938   72.4665  227.1983 H   0  0  0  0  0  0  0  0  0  0  0  0
  1  2  2  0
  2  3  1  0
  3  4  1  0
  4  5  1  0
  5  6  2  0
  5  7  1  0
  7  8  1  0
  8  9  1  0
  9 10  1  0
 10 11  1  0
 11 12  1  0
 12 13  2  0
 13 14  1  0
 14 15  2  0
 15 16  1  0
 16 17  2  0
 16 18  1  0
 15 19  1  0
 19 20  2  0
  2 21  1  0
 21 22  2  0
 22 23  1  0
 23 24  2  0
 24 25  1  0
 25 26  2  0
 26 27  1  0
 27 28  2  0
 28 29  1  0
 29 30  2  0
 11  7  1  0
 20 12  1  0
 30 21  1  0
 29 24  1  0
  3 31  1  0
  4 32  1  0
  4 33  1  0
  8 34  1  0
  8 35  1  0
  9 36  1  0
  9 37  1  0
 10 38  1  0
 10 39  1  0
 11 40  1  6
 13 41  1  0
 14 42  1  0
 19 43  1  0
 20 44  1  0
 22 45  1  0
 23 46  1  0
 25 47  1  0
 26 48  1  0
 27 49  1  0
 28 50  1  0
M  CHG  2  16   1  18  -1
M  END
>  <smiles>  (67) 
O=C(NCC(=O)N1CCCC1c1ccc([N+](=O)[O-])cc1)c1ccc2ccccc2n1

>  <score_type>  (67) 
oracle

>  <origin>  (67) 
autodockgpu

>  <m_score__min__energy>  (67) 
-9.4499999999999993

>  <m_primary>  (67) 
energy

>  <rmsd>  (67) 
2.7795194504653944

>  <m_score__min__rmsd>  (67) 
2.7795194504653944

>  <meeko>  (67) 
{"free_energy": -8.84, "intermolecular_energy": -10.63, "internal_energy": -1.34, "cluster_size": 8, "cluster_id": 1, "rank_in_cluster": 4}

>  <energy>  (67) 
-9.23

>  <cluster_rmsd>  (67) 
0.64

>  <cluster>  (67) 
2

$$$$

     RDKit          3D

 50 53  0  0  0  0  0  0  0  0999 V2000
  140.6070   73.2670  222.7210 O   0  0  0  0  0  0  0  0  0  0  0  0
  139.8760   72.2510  222.9710 C   0  0  0  0  0  0  0  0  0  0  0  0
  138.7850   71.9710  222.1030 N   0  0  0  0  0  0  0  0  0  0  0  0
  138.5830   72.8690  220.9860 C   0  0  0  0  0  0  0  0  0  0  0  0
  138.5460   74.2860  221.4200 C   0  0  0  0  0  0  0  0  0  0  0  0
  137.5980   74.7510  222.1020 O   0  0  0  0  0  0  0  0  0  0  0  0
  139.5920   75.1790  221.0780 N   0  0  0  0  0  0  0  0  0  0  0  0
  140.1570   76.2750  221.8790 C   0  0  0  0  0  0  0  0  0  0  0  0
  140.5990   77.3360  220.8840 C   0  0  0  0  0  0  0  0  0  0  0  0
  140.3920   76.7240  219.5130 C   0  0  0  0  0  0  0  0  0  0  0  0
  140.3760   75.2460  219.8370 C   0  0  1  0  0  0  0  0  0  0  0  0
  141.7360   74.7250  220.0540 C   0  0  0  0  0  0  0  0  0  0  0  0
  142.0800   73.4670  220.4250 C   0  0  0  0  0  0  0  0  0  0  0  0
  143.4120   73.0690  220.5970 C   0  0  0  0  0  0  0  0  0  0  0  0
  144.4480   73.9560  220.3930 C   0  0  0  0  0  0  0  0  0  0  0  0
  145.7880   73.5180  220.5760 N   0  0  0  0  0  4  0  0  0  0  0  0
  146.4030   72.9760  219.6340 O   0  0  0  0  0  0  0  0  0  0  0  0
  146.4400   73.6800  221.7940 O   0  0  0  0  0  1  0  0  0  0  0  0
  144.1100   75.2370  220.0160 C   0  0  0  0  0  0  0  0  0  0  0  0
  142.7880   75.6270  219.8460 C   0  0  0  0  0  0  0  0  0  0  0  0
  140.1440   71.3900  224.1210 C   0  0  0  0  0  0  0  0  0  0  0  0
  141.0240   71.8560  225.0930 C   0  0  0  0  0  0  0  0  0  0  0  0
  141.3100   71.0810  226.1960 C   0  0  0  0  0  0  0  0  0  0  0  0
  140.7350   69.8390  226.3590 C   0  0  0  0  0  0  0  0  0  0  0  0
  140.9850   69.0230  227.4450 C   0  0  0  0  0  0  0  0  0  0  0  0
  140.4020   67.7820  227.5930 C   0  0  0  0  0  0  0  0  0  0  0  0
  139.5300   67.3550  226.6000 C   0  0  0  0  0  0  0  0  0  0  0  0
  139.2730   68.1780  225.5030 C   0  0  0  0  0  0  0  0  0  0  0  0
  139.8670   69.4190  225.3700 C   0  0  0  0  0  0  0  0  0  0  0  0
  139.5840   70.1800  224.2820 N   0  0  0  0  0  0  0  0  0  0  0  0
  138.1470   71.1380  222.2700 H   0  0  0  0  0  0  0  0  0  0  0  0
  139.4071   72.7373  220.2694 H   0  0  0  0  0  0  0  0  0  0  0  0
  137.6149   72.6273  220.5231 H   0  0  0  0  0  0  0  0  0  0  0  0
  139.3953   76.6830  222.5597 H   0  0  0  0  0  0  0  0  0  0  0  0
  140.9970   75.9293  222.4993 H   0  0  0  0  0  0  0  0  0  0  0  0
  139.9881   78.2440  220.9949 H   0  0  0  0  0  0  0  0  0  0  0  0
  141.6468   77.6305  221.0432 H   0  0  0  0  0  0  0  0  0  0  0  0
  139.4391   77.0476  219.0690 H   0  0  0  0  0  0  0  0  0  0  0  0
  141.1557   77.0115  218.7754 H   0  0  0  0  0  0  0  0  0  0  0  0
  139.9556   74.6402  219.0208 H   0  0  0  0  0  0  0  0  0  0  0  0
  141.2818   72.7301  220.5977 H   0  0  0  0  0  0  0  0  0  0  0  0
  143.6346   72.0349  220.8989 H   0  0  0  0  0  0  0  0  0  0  0  0
  144.9101   75.9722  219.8447 H   0  0  0  0  0  0  0  0  0  0  0  0
  142.5631   76.6603  219.5433 H   0  0  0  0  0  0  0  0  0  0  0  0
  141.4923   72.8450  224.9807 H   0  0  0  0  0  0  0  0  0  0  0  0
  142.0076   71.4592  226.9578 H   0  0  0  0  0  0  0  0  0  0  0  0
  141.6770   69.3773  228.2232 H   0  0  0  0  0  0  0  0  0  0  0  0
  140.6202   67.1518  228.4678 H   0  0  0  0  0  0  0  0  0  0  0  0
  139.0437   66.3714  226.6781 H   0  0  0  0  0  0  0  0  0  0  0  0
  138.5793   67.8300  224.7234 H   0  0  0  0  0  0  0  0  0  0  0  0
  1  2  2  0
  2  3  1  0
  3  4  1  0
  4  5  1  0
  5  6  2  0
  5  7  1  0
  7  8  1  0
  8  9  1  0
  9 10  1  0
 10 11  1  0
 11 12  1  0
 12 13  2  0
 13 14  1  0
 14 15  2  0
 15 16  1  0
 16 17  2  0
 16 18  1  0
 15 19  1  0
 19 20  2  0
  2 21  1  0
 21 22  2  0
 22 23  1  0
 23 24  2  0
 24 25  1  0
 25 26  2  0
 26 27  1  0
 27 28  2  0
 28 29  1  0
 29 30  2  0
 11  7  1  0
 20 12  1  0
 30 21  1  0
 29 24  1  0
  3 31  1  0
  4 32  1  0
  4 33  1  0
  8 34  1  0
  8 35  1  0
  9 36  1  0
  9 37  1  0
 10 38  1  0
 10 39  1  0
 11 40  1  6
 13 41  1  0
 14 42  1  0
 19 43  1  0
 20 44  1  0
 22 45  1  0
 23 46  1  0
 25 47  1  0
 26 48  1  0
 27 49  1  0
 28 50  1  0
M  CHG  2  16   1  18  -1
M  END
>  <smiles>  (68) 
O=C(NCC(=O)N1CCCC1c1ccc([N+](=O)[O-])cc1)c1ccc2ccccc2n1

>  <score_type>  (68) 
oracle

>  <origin>  (68) 
autodockgpu

>  <m_score__min__energy>  (68) 
-9.4499999999999993

>  <m_primary>  (68) 
energy

>  <rmsd>  (68) 
3.122662305490054

>  <m_score__min__rmsd>  (68) 
3.122662305490054

>  <meeko>  (68) 
{"free_energy": -8.81, "intermolecular_energy": -10.6, "internal_energy": -1.58, "cluster_size": 37, "cluster_id": 2, "rank_in_cluster": 30}

>  <energy>  (68) 
-9.22

>  <cluster_rmsd>  (68) 
0.83

>  <cluster>  (68) 
2

$$$$

     RDKit          3D

 50 53  0  0  0  0  0  0  0  0999 V2000
  140.3910   74.8450  220.3040 O   0  0  0  0  0  0  0  0  0  0  0  0
  140.0590   75.5650  221.3050 C   0  0  0  0  0  0  0  0  0  0  0  0
  139.1390   75.0300  222.2490 N   0  0  0  0  0  0  0  0  0  0  0  0
  138.6430   73.6930  222.0030 C   0  0  0  0  0  0  0  0  0  0  0  0
  139.6450   72.6610  222.3610 C   0  0  0  0  0  0  0  0  0  0  0  0
  140.8800   72.9010  222.3570 O   0  0  0  0  0  0  0  0  0  0  0  0
  139.2440   71.3510  222.7230 N   0  0  0  0  0  0  0  0  0  0  0  0
  139.6910   70.0690  222.1590 C   0  0  0  0  0  0  0  0  0  0  0  0
  138.5020   69.1270  222.2670 C   0  0  0  0  0  0  0  0  0  0  0  0
  137.4440   69.8890  223.0400 C   0  0  0  0  0  0  0  0  0  0  0  0
  138.2770   70.9360  223.7490 C   0  0  1  0  0  0  0  0  0  0  0  0
  138.9720   70.3730  224.9180 C   0  0  0  0  0  0  0  0  0  0  0  0
  138.6520   69.2380  225.5900 C   0  0  0  0  0  0  0  0  0  0  0  0
  139.3880   68.7820  226.6920 C   0  0  0  0  0  0  0  0  0  0  0  0
  140.4870   69.4800  227.1480 C   0  0  0  0  0  0  0  0  0  0  0  0
  141.2110   68.9880  228.2680 N   0  0  0  0  0  4  0  0  0  0  0  0
  141.2050   67.7670  228.5280 O   0  0  0  0  0  0  0  0  0  0  0  0
  141.9330   69.8430  229.0920 O   0  0  0  0  0  1  0  0  0  0  0  0
  140.8200   70.6340  226.4720 C   0  0  0  0  0  0  0  0  0  0  0  0
  140.0880   71.0820  225.3810 C   0  0  0  0  0  0  0  0  0  0  0  0
  140.6050   76.9080  221.4850 C   0  0  0  0  0  0  0  0  0  0  0  0
  140.7810   77.6980  220.3530 C   0  0  0  0  0  0  0  0  0  0  0  0
  141.2920   78.9720  220.4700 C   0  0  0  0  0  0  0  0  0  0  0  0
  141.6380   79.4870  221.7010 C   0  0  0  0  0  0  0  0  0  0  0  0
  142.1540   80.7560  221.8750 C   0  0  0  0  0  0  0  0  0  0  0  0
  142.4950   81.2570  223.1140 C   0  0  0  0  0  0  0  0  0  0  0  0
  142.3040   80.4360  224.2180 C   0  0  0  0  0  0  0  0  0  0  0  0
  141.7820   79.1540  224.0460 C   0  0  0  0  0  0  0  0  0  0  0  0
  141.4460   78.6670  222.7960 C   0  0  0  0  0  0  0  0  0  0  0  0
  140.9420   77.4120  222.6830 N   0  0  0  0  0  0  0  0  0  0  0  0
  138.8330   75.5910  223.0970 H   0  0  0  0  0  0  0  0  0  0  0  0
  137.7362   73.5331  222.6048 H   0  0  0  0  0  0  0  0  0  0  0  0
  138.4252   73.6008  220.9287 H   0  0  0  0  0  0  0  0  0  0  0  0
  139.9839   70.1958  221.1063 H   0  0  0  0  0  0  0  0  0  0  0  0
  140.5669   69.6759  222.6958 H   0  0  0  0  0  0  0  0  0  0  0  0
  138.1299   68.8627  221.2662 H   0  0  0  0  0  0  0  0  0  0  0  0
  138.7733   68.1866  222.7691 H   0  0  0  0  0  0  0  0  0  0  0  0
  136.7089   70.3511  222.3647 H   0  0  0  0  0  0  0  0  0  0  0  0
  136.8458   69.2608  223.7164 H   0  0  0  0  0  0  0  0  0  0  0  0
  137.6691   71.7656  224.1390 H   0  0  0  0  0  0  0  0  0  0  0  0
  137.7816   68.6537  225.2569 H   0  0  0  0  0  0  0  0  0  0  0  0
  139.0852   67.8547  227.2004 H   0  0  0  0  0  0  0  0  0  0  0  0
  141.6909   71.2167  226.8067 H   0  0  0  0  0  0  0  0  0  0  0  0
  140.3892   72.0092  224.8715 H   0  0  0  0  0  0  0  0  0  0  0  0
  140.5114   77.3041  219.3620 H   0  0  0  0  0  0  0  0  0  0  0  0
  141.4259   79.5872  219.5680 H   0  0  0  0  0  0  0  0  0  0  0  0
  142.2989   81.3929  220.9899 H   0  0  0  0  0  0  0  0  0  0  0  0
  142.9042   82.2721  223.2241 H   0  0  0  0  0  0  0  0  0  0  0  0
  142.5636   80.7956  225.2246 H   0  0  0  0  0  0  0  0  0  0  0  0
  141.6337   78.5135  224.9279 H   0  0  0  0  0  0  0  0  0  0  0  0
  1  2  2  0
  2  3  1  0
  3  4  1  0
  4  5  1  0
  5  6  2  0
  5  7  1  0
  7  8  1  0
  8  9  1  0
  9 10  1  0
 10 11  1  0
 11 12  1  0
 12 13  2  0
 13 14  1  0
 14 15  2  0
 15 16  1  0
 16 17  2  0
 16 18  1  0
 15 19  1  0
 19 20  2  0
  2 21  1  0
 21 22  2  0
 22 23  1  0
 23 24  2  0
 24 25  1  0
 25 26  2  0
 26 27  1  0
 27 28  2  0
 28 29  1  0
 29 30  2  0
 11  7  1  0
 20 12  1  0
 30 21  1  0
 29 24  1  0
  3 31  1  0
  4 32  1  0
  4 33  1  0
  8 34  1  0
  8 35  1  0
  9 36  1  0
  9 37  1  0
 10 38  1  0
 10 39  1  0
 11 40  1  1
 13 41  1  0
 14 42  1  0
 19 43  1  0
 20 44  1  0
 22 45  1  0
 23 46  1  0
 25 47  1  0
 26 48  1  0
 27 49  1  0
 28 50  1  0
M  CHG  2  16   1  18  -1
M  END
>  <smiles>  (69) 
O=C(NCC(=O)N1CCCC1c1ccc([N+](=O)[O-])cc1)c1ccc2ccccc2n1

>  <score_type>  (69) 
oracle

>  <origin>  (69) 
autodockgpu

>  <m_score__min__energy>  (69) 
-9.4499999999999993

>  <m_primary>  (69) 
energy

>  <rmsd>  (69) 
8.327849987065523

>  <m_score__min__rmsd>  (69) 
8.327849987065523

>  <meeko>  (69) 
{"free_energy": -8.21, "intermolecular_energy": -10.0, "internal_energy": -1.44, "cluster_size": 2, "cluster_id": 3, "rank_in_cluster": 1}

>  <energy>  (69) 
-9.18

>  <cluster_rmsd>  (69) 
0.81

>  <cluster>  (69) 
2

$$$$

     RDKit          3D

 50 53  0  0  0  0  0  0  0  0999 V2000
  140.6930   74.3800  222.0590 O   0  0  0  0  0  0  0  0  0  0  0  0
  139.7380   75.2160  221.9250 C   0  0  0  0  0  0  0  0  0  0  0  0
  138.5200   74.7660  221.3440 N   0  0  0  0  0  0  0  0  0  0  0  0
  138.4520   73.3770  220.9440 C   0  0  0  0  0  0  0  0  0  0  0  0
  137.7640   72.5460  221.9620 C   0  0  0  0  0  0  0  0  0  0  0  0
  136.6750   72.8970  222.4840 O   0  0  0  0  0  0  0  0  0  0  0  0
  138.3160   71.3130  222.3880 N   0  0  0  0  0  0  0  0  0  0  0  0
  139.4960   70.6090  221.8650 C   0  0  0  0  0  0  0  0  0  0  0  0
  139.2130   69.1260  222.0440 C   0  0  0  0  0  0  0  0  0  0  0  0
  137.9100   69.0480  222.8140 C   0  0  0  0  0  0  0  0  0  0  0  0
  137.8500   70.4170  223.4570 C   0  0  1  0  0  0  0  0  0  0  0  0
  138.7370   70.5030  224.6280 C   0  0  0  0  0  0  0  0  0  0  0  0
  139.6920   71.4370  224.8640 C   0  0  0  0  0  0  0  0  0  0  0  0
  140.4810   71.4330  226.0220 C   0  0  0  0  0  0  0  0  0  0  0  0
  140.3160   70.4640  226.9890 C   0  0  0  0  0  0  0  0  0  0  0  0
  141.1330   70.4910  228.1510 N   0  0  0  0  0  4  0  0  0  0  0  0
  141.4510   69.4240  228.7160 O   0  0  0  0  0  0  0  0  0  0  0  0
  141.5930   71.6910  228.6820 O   0  0  0  0  0  1  0  0  0  0  0  0
  139.3480   69.5100  226.7590 C   0  0  0  0  0  0  0  0  0  0  0  0
  138.5690   69.5170  225.6100 C   0  0  0  0  0  0  0  0  0  0  0  0
  139.8820   76.6060  222.3540 C   0  0  0  0  0  0  0  0  0  0  0  0
  138.7250   77.3280  222.6280 C   0  0  0  0  0  0  0  0  0  0  0  0
  138.8090   78.6410  223.0360 C   0  0  0  0  0  0  0  0  0  0  0  0
  140.0310   79.2630  223.1800 C   0  0  0  0  0  0  0  0  0  0  0  0
  140.1720   80.5760  223.5860 C   0  0  0  0  0  0  0  0  0  0  0  0
  141.4010   81.1830  223.7250 C   0  0  0  0  0  0  0  0  0  0  0  0
  142.5310   80.4270  223.4420 C   0  0  0  0  0  0  0  0  0  0  0  0
  142.3930   79.1000  223.0330 C   0  0  0  0  0  0  0  0  0  0  0  0
  141.1520   78.5070  222.8980 C   0  0  0  0  0  0  0  0  0  0  0  0
  141.0720   77.2130  222.4960 N   0  0  0  0  0  0  0  0  0  0  0  0
  137.6970   75.4250  221.2110 H   0  0  0  0  0  0  0  0  0  0  0  0
  137.9013   73.3060  219.9944 H   0  0  0  0  0  0  0  0  0  0  0  0
  139.4799   73.0015  220.8325 H   0  0  0  0  0  0  0  0  0  0  0  0
  139.6409   70.8446  220.8004 H   0  0  0  0  0  0  0  0  0  0  0  0
  140.4122   70.9109  222.3936 H   0  0  0  0  0  0  0  0  0  0  0  0
  139.1104   68.6341  221.0655 H   0  0  0  0  0  0  0  0  0  0  0  0
  140.0305   68.6177  222.5762 H   0  0  0  0  0  0  0  0  0  0  0  0
  137.0558   68.8836  222.1407 H   0  0  0  0  0  0  0  0  0  0  0  0
  137.8650   68.2156  223.5317 H   0  0  0  0  0  0  0  0  0  0  0  0
  136.8452   70.6649  223.8298 H   0  0  0  0  0  0  0  0  0  0  0  0
  139.8533   72.2284  224.1172 H   0  0  0  0  0  0  0  0  0  0  0  0
  141.2429   72.2140  226.1616 H   0  0  0  0  0  0  0  0  0  0  0  0
  139.1882   68.7201  227.5077 H   0  0  0  0  0  0  0  0  0  0  0  0
  137.8075   68.7360  225.4679 H   0  0  0  0  0  0  0  0  0  0  0  0
  137.7407   76.8493  222.5186 H   0  0  0  0  0  0  0  0  0  0  0  0
  137.8872   79.2017  223.2501 H   0  0  0  0  0  0  0  0  0  0  0  0
  139.2666   81.1603  223.8072 H   0  0  0  0  0  0  0  0  0  0  0  0
  141.4843   82.2308  224.0491 H   0  0  0  0  0  0  0  0  0  0  0  0
  143.5318   80.8729  223.5399 H   0  0  0  0  0  0  0  0  0  0  0  0
  143.2953   78.5107  222.8124 H   0  0  0  0  0  0  0  0  0  0  0  0
  1  2  2  0
  2  3  1  0
  3  4  1  0
  4  5  1  0
  5  6  2  0
  5  7  1  0
  7  8  1  0
  8  9  1  0
  9 10  1  0
 10 11  1  0
 11 12  1  0
 12 13  2  0
 13 14  1  0
 14 15  2  0
 15 16  1  0
 16 17  2  0
 16 18  1  0
 15 19  1  0
 19 20  2  0
  2 21  1  0
 21 22  2  0
 22 23  1  0
 23 24  2  0
 24 25  1  0
 25 26  2  0
 26 27  1  0
 27 28  2  0
 28 29  1  0
 29 30  2  0
 11  7  1  0
 20 12  1  0
 30 21  1  0
 29 24  1  0
  3 31  1  0
  4 32  1  0
  4 33  1  0
  8 34  1  0
  8 35  1  0
  9 36  1  0
  9 37  1  0
 10 38  1  0
 10 39  1  0
 11 40  1  1
 13 41  1  0
 14 42  1  0
 19 43  1  0
 20 44  1  0
 22 45  1  0
 23 46  1  0
 25 47  1  0
 26 48  1  0
 27 49  1  0
 28 50  1  0
M  CHG  2  16   1  18  -1
M  END
>  <smiles>  (70) 
O=C(NCC(=O)N1CCCC1c1ccc([N+](=O)[O-])cc1)c1ccc2ccccc2n1

>  <score_type>  (70) 
oracle

>  <origin>  (70) 
autodockgpu

>  <m_score__min__energy>  (70) 
-9.4499999999999993

>  <m_primary>  (70) 
energy

>  <rmsd>  (70) 
8.124339841673653

>  <m_score__min__rmsd>  (70) 
8.124339841673653

>  <meeko>  (70) 
{"free_energy": -8.18, "intermolecular_energy": -9.97, "internal_energy": -1.47, "cluster_size": 2, "cluster_id": 3, "rank_in_cluster": 2}

>  <energy>  (70) 
-9.17

>  <cluster_rmsd>  (70) 
0.77

>  <cluster>  (70) 
2

$$$$

     RDKit          3D

 50 53  0  0  0  0  0  0  0  0999 V2000
  138.5100   70.5690  221.3510 O   0  0  0  0  0  0  0  0  0  0  0  0
  138.7680   71.4210  222.2650 C   0  0  0  0  0  0  0  0  0  0  0  0
  138.4410   72.7860  222.0310 N   0  0  0  0  0  0  0  0  0  0  0  0
  137.8310   73.1090  220.7590 C   0  0  0  0  0  0  0  0  0  0  0  0
  138.4560   74.3030  220.1380 C   0  0  0  0  0  0  0  0  0  0  0  0
  138.0700   74.7580  219.0320 O   0  0  0  0  0  0  0  0  0  0  0  0
  139.5240   74.9810  220.7770 N   0  0  0  0  0  0  0  0  0  0  0  0
  139.7660   75.1530  222.2170 C   0  0  0  0  0  0  0  0  0  0  0  0
  140.4630   76.4960  222.3670 C   0  0  0  0  0  0  0  0  0  0  0  0
  140.7240   76.9820  220.9550 C   0  0  0  0  0  0  0  0  0  0  0  0
  140.6580   75.6900  220.1690 C   0  0  1  0  0  0  0  0  0  0  0  0
  141.8960   74.9070  220.3130 C   0  0  0  0  0  0  0  0  0  0  0  0
  142.0000   73.5950  220.6420 C   0  0  0  0  0  0  0  0  0  0  0  0
  143.2340   72.9380  220.7450 C   0  0  0  0  0  0  0  0  0  0  0  0
  144.4150   73.6100  220.5110 C   0  0  0  0  0  0  0  0  0  0  0  0
  145.6490   72.9130  220.6240 N   0  0  0  0  0  4  0  0  0  0  0  0
  146.0360   72.1740  219.6950 O   0  0  0  0  0  0  0  0  0  0  0  0
  146.4440   73.0330  221.7580 O   0  0  0  0  0  1  0  0  0  0  0  0
  144.3220   74.9430  220.1760 C   0  0  0  0  0  0  0  0  0  0  0  0
  143.0970   75.5890  220.0760 C   0  0  0  0  0  0  0  0  0  0  0  0
  139.3870   71.0160  223.5260 C   0  0  0  0  0  0  0  0  0  0  0  0
  140.3480   71.8550  224.0800 C   0  0  0  0  0  0  0  0  0  0  0  0
  140.9610   71.5170  225.2670 C   0  0  0  0  0  0  0  0  0  0  0  0
  140.6360   70.3500  225.9250 C   0  0  0  0  0  0  0  0  0  0  0  0
  141.2180   69.9640  227.1170 C   0  0  0  0  0  0  0  0  0  0  0  0
  140.8820   68.7940  227.7640 C   0  0  0  0  0  0  0  0  0  0  0  0
  139.9180   67.9850  227.1770 C   0  0  0  0  0  0  0  0  0  0  0  0
  139.3270   68.3720  225.9740 C   0  0  0  0  0  0  0  0  0  0  0  0
  139.6760   69.5500  225.3380 C   0  0  0  0  0  0  0  0  0  0  0  0
  139.0720   69.8810  224.1690 N   0  0  0  0  0  0  0  0  0  0  0  0
  138.6380   73.5320  222.7600 H   0  0  0  0  0  0  0  0  0  0  0  0
  137.9476   72.2517  220.0798 H   0  0  0  0  0  0  0  0  0  0  0  0
  136.7680   73.3308  220.9349 H   0  0  0  0  0  0  0  0  0  0  0  0
  138.8136   75.1530  222.7674 H   0  0  0  0  0  0  0  0  0  0  0  0
  140.3774   74.3340  222.6236 H   0  0  0  0  0  0  0  0  0  0  0  0
  139.8165   77.2059  222.9037 H   0  0  0  0  0  0  0  0  0  0  0  0
  141.3947   76.4078  222.9450 H   0  0  0  0  0  0  0  0  0  0  0  0
  139.9507   77.6917  220.6258 H   0  0  0  0  0  0  0  0  0  0  0  0
  141.6719   77.5278  220.8385 H   0  0  0  0  0  0  0  0  0  0  0  0
  140.5398   75.8588  219.0885 H   0  0  0  0  0  0  0  0  0  0  0  0
  141.0798   73.0243  220.8356 H   0  0  0  0  0  0  0  0  0  0  0  0
  143.2605   71.8723  221.0161 H   0  0  0  0  0  0  0  0  0  0  0  0
  145.2437   75.5113  219.9824 H   0  0  0  0  0  0  0  0  0  0  0  0
  143.0688   76.6550  219.8060 H   0  0  0  0  0  0  0  0  0  0  0  0
  140.6194   72.7907  223.5694 H   0  0  0  0  0  0  0  0  0  0  0  0
  141.7203   72.1878  225.6955 H   0  0  0  0  0  0  0  0  0  0  0  0
  141.9802   70.6165  227.5680 H   0  0  0  0  0  0  0  0  0  0  0  0
  141.3611   68.5109  228.7128 H   0  0  0  0  0  0  0  0  0  0  0  0
  139.6213   67.0419  227.6591 H   0  0  0  0  0  0  0  0  0  0  0  0
  138.5636   67.7236  225.5193 H   0  0  0  0  0  0  0  0  0  0  0  0
  1  2  2  0
  2  3  1  0
  3  4  1  0
  4  5  1  0
  5  6  2  0
  5  7  1  0
  7  8  1  0
  8  9  1  0
  9 10  1  0
 10 11  1  0
 11 12  1  0
 12 13  2  0
 13 14  1  0
 14 15  2  0
 15 16  1  0
 16 17  2  0
 16 18  1  0
 15 19  1  0
 19 20  2  0
  2 21  1  0
 21 22  2  0
 22 23  1  0
 23 24  2  0
 24 25  1  0
 25 26  2  0
 26 27  1  0
 27 28  2  0
 28 29  1  0
 29 30  2  0
 11  7  1  0
 20 12  1  0
 30 21  1  0
 29 24  1  0
  3 31  1  0
  4 32  1  0
  4 33  1  0
  8 34  1  0
  8 35  1  0
  9 36  1  0
  9 37  1  0
 10 38  1  0
 10 39  1  0
 11 40  1  6
 13 41  1  0
 14 42  1  0
 19 43  1  0
 20 44  1  0
 22 45  1  0
 23 46  1  0
 25 47  1  0
 26 48  1  0
 27 49  1  0
 28 50  1  0
M  CHG  2  16   1  18  -1
M  END
>  <smiles>  (71) 
O=C(NCC(=O)N1CCCC1c1ccc([N+](=O)[O-])cc1)c1ccc2ccccc2n1

>  <score_type>  (71) 
oracle

>  <origin>  (71) 
autodockgpu

>  <m_score__min__energy>  (71) 
-9.4499999999999993

>  <m_primary>  (71) 
energy

>  <rmsd>  (71) 
3.0726818987334448

>  <m_score__min__rmsd>  (71) 
3.0726818987334448

>  <meeko>  (71) 
{"free_energy": -8.34, "intermolecular_energy": -10.13, "internal_energy": -1.43, "cluster_size": 37, "cluster_id": 2, "rank_in_cluster": 37}

>  <energy>  (71) 
-9.16

>  <cluster_rmsd>  (71) 
0.85

>  <cluster>  (71) 
2

$$$$

     RDKit          3D

 50 53  0  0  0  0  0  0  0  0999 V2000
  140.9230   72.8700  222.6140 O   0  0  0  0  0  0  0  0  0  0  0  0
  139.8400   72.2740  222.9310 C   0  0  0  0  0  0  0  0  0  0  0  0
  138.6430   72.6390  222.2550 N   0  0  0  0  0  0  0  0  0  0  0  0
  138.7430   73.6710  221.2460 C   0  0  0  0  0  0  0  0  0  0  0  0
  138.7720   75.0260  221.8470 C   0  0  0  0  0  0  0  0  0  0  0  0
  137.8750   75.4260  222.6330 O   0  0  0  0  0  0  0  0  0  0  0  0
  139.8230   75.9310  221.5550 N   0  0  0  0  0  0  0  0  0  0  0  0
  140.5840   76.7780  222.4840 C   0  0  0  0  0  0  0  0  0  0  0  0
  140.9570   78.0270  221.7010 C   0  0  0  0  0  0  0  0  0  0  0  0
  140.5030   77.7700  220.2780 C   0  0  0  0  0  0  0  0  0  0  0  0
  140.4190   76.2590  220.2520 C   0  0  1  0  0  0  0  0  0  0  0  0
  141.7500   75.6450  220.1220 C   0  0  0  0  0  0  0  0  0  0  0  0
  142.8470   76.1890  219.5370 C   0  0  0  0  0  0  0  0  0  0  0  0
  144.0770   75.5210  219.4730 C   0  0  0  0  0  0  0  0  0  0  0  0
  144.2270   74.2600  220.0110 C   0  0  0  0  0  0  0  0  0  0  0  0
  145.4890   73.6110  219.9290 N   0  0  0  0  0  4  0  0  0  0  0  0
  145.8780   73.1380  218.8410 O   0  0  0  0  0  0  0  0  0  0  0  0
  146.3120   73.4890  221.0430 O   0  0  0  0  0  1  0  0  0  0  0  0
  143.1190   73.6980  220.6080 C   0  0  0  0  0  0  0  0  0  0  0  0
  141.9030   74.3640  220.6690 C   0  0  0  0  0  0  0  0  0  0  0  0
  139.8190   71.2390  223.9630 C   0  0  0  0  0  0  0  0  0  0  0  0
  139.1130   70.0700  223.7000 C   0  0  0  0  0  0  0  0  0  0  0  0
  139.0630   69.0650  224.6420 C   0  0  0  0  0  0  0  0  0  0  0  0
  139.7070   69.1960  225.8530 C   0  0  0  0  0  0  0  0  0  0  0  0
  139.6900   68.2200  226.8310 C   0  0  0  0  0  0  0  0  0  0  0  0
  140.3400   68.3660  228.0380 C   0  0  0  0  0  0  0  0  0  0  0  0
  141.0330   69.5480  228.2600 C   0  0  0  0  0  0  0  0  0  0  0  0
  141.0540   70.5350  227.2750 C   0  0  0  0  0  0  0  0  0  0  0  0
  140.3970   70.3730  226.0690 C   0  0  0  0  0  0  0  0  0  0  0  0
  140.4470   71.3640  225.1430 N   0  0  0  0  0  0  0  0  0  0  0  0
  137.7170   72.1720  222.4840 H   0  0  0  0  0  0  0  0  0  0  0  0
  139.6670   73.5172  220.6694 H   0  0  0  0  0  0  0  0  0  0  0  0
  137.8571   73.6029  220.5976 H   0  0  0  0  0  0  0  0  0  0  0  0
  139.9654   77.0427  223.3542 H   0  0  0  0  0  0  0  0  0  0  0  0
  141.4762   76.2590  222.8644 H   0  0  0  0  0  0  0  0  0  0  0  0
  140.4425   78.9069  222.1147 H   0  0  0  0  0  0  0  0  0  0  0  0
  142.0368   78.2308  221.7521 H   0  0  0  0  0  0  0  0  0  0  0  0
  139.5234   78.2297  220.0802 H   0  0  0  0  0  0  0  0  0  0  0  0
  141.1699   78.1938  219.5127 H   0  0  0  0  0  0  0  0  0  0  0  0
  139.8375   75.8837  219.3970 H   0  0  0  0  0  0  0  0  0  0  0  0
  142.7675   77.1935  219.0959 H   0  0  0  0  0  0  0  0  0  0  0  0
  144.9347   76.0090  218.9870 H   0  0  0  0  0  0  0  0  0  0  0  0
  143.2009   72.6934  221.0485 H   0  0  0  0  0  0  0  0  0  0  0  0
  141.0443   73.8779  221.1552 H   0  0  0  0  0  0  0  0  0  0  0  0
  138.5934   69.9472  222.7382 H   0  0  0  0  0  0  0  0  0  0  0  0
  138.5008   68.1450  224.4238 H   0  0  0  0  0  0  0  0  0  0  0  0
  139.1358   67.2895  226.6388 H   0  0  0  0  0  0  0  0  0  0  0  0
  140.3104   67.5726  228.7994 H   0  0  0  0  0  0  0  0  0  0  0  0
  141.5642   69.7058  229.2102 H   0  0  0  0  0  0  0  0  0  0  0  0
  141.6077   71.4668  227.4623 H   0  0  0  0  0  0  0  0  0  0  0  0
  1  2  2  0
  2  3  1  0
  3  4  1  0
  4  5  1  0
  5  6  2  0
  5  7  1  0
  7  8  1  0
  8  9  1  0
  9 10  1  0
 10 11  1  0
 11 12  1  0
 12 13  2  0
 13 14  1  0
 14 15  2  0
 15 16  1  0
 16 17  2  0
 16 18  1  0
 15 19  1  0
 19 20  2  0
  2 21  1  0
 21 22  2  0
 22 23  1  0
 23 24  2  0
 24 25  1  0
 25 26  2  0
 26 27  1  0
 27 28  2  0
 28 29  1  0
 29 30  2  0
 11  7  1  0
 20 12  1  0
 30 21  1  0
 29 24  1  0
  3 31  1  0
  4 32  1  0
  4 33  1  0
  8 34  1  0
  8 35  1  0
  9 36  1  0
  9 37  1  0
 10 38  1  0
 10 39  1  0
 11 40  1  6
 13 41  1  0
 14 42  1  0
 19 43  1  0
 20 44  1  0
 22 45  1  0
 23 46  1  0
 25 47  1  0
 26 48  1  0
 27 49  1  0
 28 50  1  0
M  CHG  2  16   1  18  -1
M  END
>  <smiles>  (72) 
O=C(NCC(=O)N1CCCC1c1ccc([N+](=O)[O-])cc1)c1ccc2ccccc2n1

>  <score_type>  (72) 
oracle

>  <origin>  (72) 
autodockgpu

>  <m_score__min__energy>  (72) 
-9.4499999999999993

>  <m_primary>  (72) 
energy

>  <rmsd>  (72) 
2.404793130056062

>  <m_score__min__rmsd>  (72) 
2.404793130056062

>  <meeko>  (72) 
{"free_energy": -9.03, "intermolecular_energy": -10.82, "internal_energy": -1.51, "cluster_size": 37, "cluster_id": 2, "rank_in_cluster": 22}

>  <energy>  (72) 
-9.16

>  <cluster_rmsd>  (72) 
0.72

>  <cluster>  (72) 
2

$$$$

     RDKit          3D

 50 53  0  0  0  0  0  0  0  0999 V2000
  139.1520   70.8240  221.3190 O   0  0  0  0  0  0  0  0  0  0  0  0
  139.2100   71.5780  222.3460 C   0  0  0  0  0  0  0  0  0  0  0  0
  138.9190   72.9620  222.1890 N   0  0  0  0  0  0  0  0  0  0  0  0
  138.5720   73.4160  220.8590 C   0  0  0  0  0  0  0  0  0  0  0  0
  138.5820   74.8960  220.7650 C   0  0  0  0  0  0  0  0  0  0  0  0
  137.5540   75.5520  220.4570 O   0  0  0  0  0  0  0  0  0  0  0  0
  139.7640   75.6340  221.0220 N   0  0  0  0  0  0  0  0  0  0  0  0
  140.2650   76.1380  222.3080 C   0  0  0  0  0  0  0  0  0  0  0  0
  141.0120   77.4240  221.9920 C   0  0  0  0  0  0  0  0  0  0  0  0
  141.0280   77.5280  220.4800 C   0  0  0  0  0  0  0  0  0  0  0  0
  140.7890   76.0890  220.0720 C   0  0  1  0  0  0  0  0  0  0  0  0
  142.0130   75.2810  220.2020 C   0  0  0  0  0  0  0  0  0  0  0  0
  142.0900   73.9540  220.4730 C   0  0  0  0  0  0  0  0  0  0  0  0
  143.3120   73.2740  220.5680 C   0  0  0  0  0  0  0  0  0  0  0  0
  144.5070   73.9370  220.3860 C   0  0  0  0  0  0  0  0  0  0  0  0
  145.7280   73.2150  220.4890 N   0  0  0  0  0  4  0  0  0  0  0  0
  146.3440   73.1820  221.5750 O   0  0  0  0  0  0  0  0  0  0  0  0
  146.2600   72.5370  219.3980 O   0  0  0  0  0  1  0  0  0  0  0  0
  144.4400   75.2850  220.1110 C   0  0  0  0  0  0  0  0  0  0  0  0
  143.2270   75.9550  220.0180 C   0  0  0  0  0  0  0  0  0  0  0  0
  139.5690   71.0440  223.6590 C   0  0  0  0  0  0  0  0  0  0  0  0
  139.3420   69.6920  223.8960 C   0  0  0  0  0  0  0  0  0  0  0  0
  139.6630   69.1410  225.1180 C   0  0  0  0  0  0  0  0  0  0  0  0
  140.2100   69.9110  226.1220 C   0  0  0  0  0  0  0  0  0  0  0  0
  140.5500   69.4090  227.3630 C   0  0  0  0  0  0  0  0  0  0  0  0
  141.0970   70.1930  228.3570 C   0  0  0  0  0  0  0  0  0  0  0  0
  141.3070   71.5370  228.0790 C   0  0  0  0  0  0  0  0  0  0  0  0
  140.9660   72.0470  226.8260 C   0  0  0  0  0  0  0  0  0  0  0  0
  140.4180   71.2470  225.8400 C   0  0  0  0  0  0  0  0  0  0  0  0
  140.1030   71.7920  224.6380 N   0  0  0  0  0  0  0  0  0  0  0  0
  138.9550   73.6300  223.0140 H   0  0  0  0  0  0  0  0  0  0  0  0
  139.2997   73.0083  220.1419 H   0  0  0  0  0  0  0  0  0  0  0  0
  137.5549   73.0646  220.6310 H   0  0  0  0  0  0  0  0  0  0  0  0
  139.4273   76.3407  222.9915 H   0  0  0  0  0  0  0  0  0  0  0  0
  140.9184   75.4035  222.8016 H   0  0  0  0  0  0  0  0  0  0  0  0
  140.4909   78.2879  222.4304 H   0  0  0  0  0  0  0  0  0  0  0  0
  142.0298   77.4153  222.4092 H   0  0  0  0  0  0  0  0  0  0  0  0
  140.2266   78.1870  220.1147 H   0  0  0  0  0  0  0  0  0  0  0  0
  141.9531   77.9607  220.0714 H   0  0  0  0  0  0  0  0  0  0  0  0
  140.4833   75.9929  219.0197 H   0  0  0  0  0  0  0  0  0  0  0  0
  141.1577   73.3900  220.6240 H   0  0  0  0  0  0  0  0  0  0  0  0
  143.3176   72.1968  220.7908 H   0  0  0  0  0  0  0  0  0  0  0  0
  145.3737   75.8468  219.9608 H   0  0  0  0  0  0  0  0  0  0  0  0
  143.2196   77.0324  219.7963 H   0  0  0  0  0  0  0  0  0  0  0  0
  138.9057   69.0618  223.1070 H   0  0  0  0  0  0  0  0  0  0  0  0
  139.4799   68.0708  225.2947 H   0  0  0  0  0  0  0  0  0  0  0  0
  140.3777   68.3418  227.5665 H   0  0  0  0  0  0  0  0  0  0  0  0
  141.3582   69.7678  229.3373 H   0  0  0  0  0  0  0  0  0  0  0  0
  141.7408   72.1975  228.8442 H   0  0  0  0  0  0  0  0  0  0  0  0
  141.1375   73.1132  226.6169 H   0  0  0  0  0  0  0  0  0  0  0  0
  1  2  2  0
  2  3  1  0
  3  4  1  0
  4  5  1  0
  5  6  2  0
  5  7  1  0
  7  8  1  0
  8  9  1  0
  9 10  1  0
 10 11  1  0
 11 12  1  0
 12 13  2  0
 13 14  1  0
 14 15  2  0
 15 16  1  0
 16 17  2  0
 16 18  1  0
 15 19  1  0
 19 20  2  0
  2 21  1  0
 21 22  2  0
 22 23  1  0
 23 24  2  0
 24 25  1  0
 25 26  2  0
 26 27  1  0
 27 28  2  0
 28 29  1  0
 29 30  2  0
 11  7  1  0
 20 12  1  0
 30 21  1  0
 29 24  1  0
  3 31  1  0
  4 32  1  0
  4 33  1  0
  8 34  1  0
  8 35  1  0
  9 36  1  0
  9 37  1  0
 10 38  1  0
 10 39  1  0
 11 40  1  6
 13 41  1  0
 14 42  1  0
 19 43  1  0
 20 44  1  0
 22 45  1  0
 23 46  1  0
 25 47  1  0
 26 48  1  0
 27 49  1  0
 28 50  1  0
M  CHG  2  16   1  18  -1
M  END
>  <smiles>  (73) 
O=C(NCC(=O)N1CCCC1c1ccc([N+](=O)[O-])cc1)c1ccc2ccccc2n1

>  <score_type>  (73) 
oracle

>  <origin>  (73) 
autodockgpu

>  <m_score__min__energy>  (73) 
-9.4499999999999993

>  <m_primary>  (73) 
energy

>  <rmsd>  (73) 
2.274410831290627

>  <m_score__min__rmsd>  (73) 
2.274410831290627

>  <meeko>  (73) 
{"free_energy": -9.1, "intermolecular_energy": -10.89, "internal_energy": -1.77, "cluster_size": 37, "cluster_id": 2, "rank_in_cluster": 20}

>  <energy>  (73) 
-9.15

>  <cluster_rmsd>  (73) 
0.64

>  <cluster>  (73) 
2

$$$$

     RDKit          3D

 50 53  0  0  0  0  0  0  0  0999 V2000
  135.5910   77.2390  223.4700 O   0  0  0  0  0  0  0  0  0  0  0  0
  135.7140   76.0050  223.7710 C   0  0  0  0  0  0  0  0  0  0  0  0
  136.7620   75.2600  223.1610 N   0  0  0  0  0  0  0  0  0  0  0  0
  137.6210   75.9660  222.2350 C   0  0  0  0  0  0  0  0  0  0  0  0
  138.9330   75.2920  222.0800 C   0  0  0  0  0  0  0  0  0  0  0  0
  139.0720   74.0560  222.2590 O   0  0  0  0  0  0  0  0  0  0  0  0
  140.0900   76.0260  221.7210 N   0  0  0  0  0  0  0  0  0  0  0  0
  140.8970   76.9280  222.5560 C   0  0  0  0  0  0  0  0  0  0  0  0
  141.4420   77.9920  221.6170 C   0  0  0  0  0  0  0  0  0  0  0  0
  141.0300   77.5600  220.2240 C   0  0  0  0  0  0  0  0  0  0  0  0
  140.7790   76.0810  220.4240 C   0  0  1  0  0  0  0  0  0  0  0  0
  142.0390   75.3210  220.4730 C   0  0  0  0  0  0  0  0  0  0  0  0
  142.1980   74.0260  220.8460 C   0  0  0  0  0  0  0  0  0  0  0  0
  143.4470   73.3910  220.8500 C   0  0  0  0  0  0  0  0  0  0  0  0
  144.5870   74.0670  220.4680 C   0  0  0  0  0  0  0  0  0  0  0  0
  145.8370   73.3910  220.4840 N   0  0  0  0  0  4  0  0  0  0  0  0
  146.2530   72.8220  219.4530 O   0  0  0  0  0  0  0  0  0  0  0  0
  146.6200   73.3480  221.6320 O   0  0  0  0  0  1  0  0  0  0  0  0
  144.4370   75.3830  220.0880 C   0  0  0  0  0  0  0  0  0  0  0  0
  143.1970   76.0080  220.0860 C   0  0  0  0  0  0  0  0  0  0  0  0
  134.8050   75.3610  224.7170 C   0  0  0  0  0  0  0  0  0  0  0  0
  133.9650   76.1750  225.4700 C   0  0  0  0  0  0  0  0  0  0  0  0
  133.0900   75.6160  226.3760 C   0  0  0  0  0  0  0  0  0  0  0  0
  133.0290   74.2510  226.5540 C   0  0  0  0  0  0  0  0  0  0  0  0
  132.1710   73.6390  227.4470 C   0  0  0  0  0  0  0  0  0  0  0  0
  132.1230   72.2710  227.6140 C   0  0  0  0  0  0  0  0  0  0  0  0
  132.9780   71.4950  226.8430 C   0  0  0  0  0  0  0  0  0  0  0  0
  133.8460   72.1100  225.9390 C   0  0  0  0  0  0  0  0  0  0  0  0
  133.8820   73.4830  225.7850 C   0  0  0  0  0  0  0  0  0  0  0  0
  134.7440   74.0310  224.8920 N   0  0  0  0  0  0  0  0  0  0  0  0
  136.9040   74.2300  223.3790 H   0  0  0  0  0  0  0  0  0  0  0  0
  137.1258   76.0119  221.2538 H   0  0  0  0  0  0  0  0  0  0  0  0
  137.7994   76.9752  222.6346 H   0  0  0  0  0  0  0  0  0  0  0  0
  140.2720   77.3893  223.3349 H   0  0  0  0  0  0  0  0  0  0  0  0
  141.7077   76.3873  223.0664 H   0  0  0  0  0  0  0  0  0  0  0  0
  141.0090   78.9741  221.8577 H   0  0  0  0  0  0  0  0  0  0  0  0
  142.5341   78.0903  221.7051 H   0  0  0  0  0  0  0  0  0  0  0  0
  140.1184   78.0808  219.8957 H   0  0  0  0  0  0  0  0  0  0  0  0
  141.7756   77.7857  219.4473 H   0  0  0  0  0  0  0  0  0  0  0  0
  140.1990   75.6365  219.6018 H   0  0  0  0  0  0  0  0  0  0  0  0
  141.3123   73.4527  221.1572 H   0  0  0  0  0  0  0  0  0  0  0  0
  143.5194   72.3387  221.1622 H   0  0  0  0  0  0  0  0  0  0  0  0
  145.3242   75.9544  219.7776 H   0  0  0  0  0  0  0  0  0  0  0  0
  143.1227   77.0606  219.7752 H   0  0  0  0  0  0  0  0  0  0  0  0
  133.9993   77.2670  225.3420 H   0  0  0  0  0  0  0  0  0  0  0  0
  132.4303   76.2693  226.9660 H   0  0  0  0  0  0  0  0  0  0  0  0
  131.4990   74.2682  228.0491 H   0  0  0  0  0  0  0  0  0  0  0  0
  131.4306   71.8101  228.3338 H   0  0  0  0  0  0  0  0  0  0  0  0
  132.9715   70.3997  226.9441 H   0  0  0  0  0  0  0  0  0  0  0  0
  134.5190   71.4854  225.3333 H   0  0  0  0  0  0  0  0  0  0  0  0
  1  2  2  0
  2  3  1  0
  3  4  1  0
  4  5  1  0
  5  6  2  0
  5  7  1  0
  7  8  1  0
  8  9  1  0
  9 10  1  0
 10 11  1  0
 11 12  1  0
 12 13  2  0
 13 14  1  0
 14 15  2  0
 15 16  1  0
 16 17  2  0
 16 18  1  0
 15 19  1  0
 19 20  2  0
  2 21  1  0
 21 22  2  0
 22 23  1  0
 23 24  2  0
 24 25  1  0
 25 26  2  0
 26 27  1  0
 27 28  2  0
 28 29  1  0
 29 30  2  0
 11  7  1  0
 20 12  1  0
 30 21  1  0
 29 24  1  0
  3 31  1  0
  4 32  1  0
  4 33  1  0
  8 34  1  0
  8 35  1  0
  9 36  1  0
  9 37  1  0
 10 38  1  0
 10 39  1  0
 11 40  1  6
 13 41  1  0
 14 42  1  0
 19 43  1  0
 20 44  1  0
 22 45  1  0
 23 46  1  0
 25 47  1  0
 26 48  1  0
 27 49  1  0
 28 50  1  0
M  CHG  2  16   1  18  -1
M  END
>  <smiles>  (74) 
O=C(NCC(=O)N1CCCC1c1ccc([N+](=O)[O-])cc1)c1ccc2ccccc2n1

>  <score_type>  (74) 
oracle

>  <origin>  (74) 
autodockgpu

>  <m_score__min__energy>  (74) 
-9.4499999999999993

>  <m_primary>  (74) 
energy

>  <rmsd>  (74) 
6.276185439025667

>  <m_score__min__rmsd>  (74) 
6.276185439025667

>  <meeko>  (74) 
{"free_energy": -8.15, "intermolecular_energy": -9.94, "internal_energy": -1.72, "cluster_size": 3, "cluster_id": 4, "rank_in_cluster": 2}

>  <energy>  (74) 
-9.14

>  <cluster_rmsd>  (74) 
0.72

>  <cluster>  (74) 
2

$$$$

     RDKit          3D

 50 53  0  0  0  0  0  0  0  0999 V2000
  135.5420   77.3590  223.4740 O   0  0  0  0  0  0  0  0  0  0  0  0
  135.7230   76.1350  223.7850 C   0  0  0  0  0  0  0  0  0  0  0  0
  136.8130   75.4400  223.1920 N   0  0  0  0  0  0  0  0  0  0  0  0
  137.6470   76.1820  222.2700 C   0  0  0  0  0  0  0  0  0  0  0  0
  138.9920   75.5730  222.1340 C   0  0  0  0  0  0  0  0  0  0  0  0
  139.2020   74.3580  222.3810 O   0  0  0  0  0  0  0  0  0  0  0  0
  140.1030   76.3470  221.7170 N   0  0  0  0  0  0  0  0  0  0  0  0
  141.0110   77.1600  222.5380 C   0  0  0  0  0  0  0  0  0  0  0  0
  141.4460   78.3200  221.6580 C   0  0  0  0  0  0  0  0  0  0  0  0
  140.8660   78.0350  220.2870 C   0  0  0  0  0  0  0  0  0  0  0  0
  140.6300   76.5410  220.3590 C   0  0  1  0  0  0  0  0  0  0  0  0
  141.8820   75.7880  220.1760 C   0  0  0  0  0  0  0  0  0  0  0  0
  142.9190   76.1110  219.3640 C   0  0  0  0  0  0  0  0  0  0  0  0
  144.0750   75.3260  219.2690 C   0  0  0  0  0  0  0  0  0  0  0  0
  144.2100   74.1700  220.0100 C   0  0  0  0  0  0  0  0  0  0  0  0
  145.3970   73.3980  219.8890 N   0  0  0  0  0  4  0  0  0  0  0  0
  146.2070   73.3450  220.8380 O   0  0  0  0  0  0  0  0  0  0  0  0
  145.6820   72.6910  218.7260 O   0  0  0  0  0  1  0  0  0  0  0  0
  143.1620   73.8320  220.8380 C   0  0  0  0  0  0  0  0  0  0  0  0
  142.0180   74.6140  220.9290 C   0  0  0  0  0  0  0  0  0  0  0  0
  134.8370   75.4530  224.7260 C   0  0  0  0  0  0  0  0  0  0  0  0
  133.9840   76.2330  225.5010 C   0  0  0  0  0  0  0  0  0  0  0  0
  133.1300   75.6380  226.4030 C   0  0  0  0  0  0  0  0  0  0  0  0
  133.1020   74.2680  226.5550 C   0  0  0  0  0  0  0  0  0  0  0  0
  132.2650   73.6210  227.4430 C   0  0  0  0  0  0  0  0  0  0  0  0
  132.2480   72.2490  227.5840 C   0  0  0  0  0  0  0  0  0  0  0  0
  133.1150   71.5070  226.7910 C   0  0  0  0  0  0  0  0  0  0  0  0
  133.9600   72.1590  225.8930 C   0  0  0  0  0  0  0  0  0  0  0  0
  133.9640   73.5350  225.7640 C   0  0  0  0  0  0  0  0  0  0  0  0
  134.8070   74.1190  224.8750 N   0  0  0  0  0  0  0  0  0  0  0  0
  137.0050   74.4200  223.4180 H   0  0  0  0  0  0  0  0  0  0  0  0
  137.1612   76.1970  221.2832 H   0  0  0  0  0  0  0  0  0  0  0  0
  137.7709   77.2013  222.6645 H   0  0  0  0  0  0  0  0  0  0  0  0
  140.4882   77.5329  223.4311 H   0  0  0  0  0  0  0  0  0  0  0  0
  141.8736   76.5730  222.8864 H   0  0  0  0  0  0  0  0  0  0  0  0
  141.0520   79.2686  222.0515 H   0  0  0  0  0  0  0  0  0  0  0  0
  142.5414   78.4149  221.6236 H   0  0  0  0  0  0  0  0  0  0  0  0
  139.9253   78.5825  220.1277 H   0  0  0  0  0  0  0  0  0  0  0  0
  141.5142   78.3454  219.4542 H   0  0  0  0  0  0  0  0  0  0  0  0
  139.9518   76.1815  219.5711 H   0  0  0  0  0  0  0  0  0  0  0  0
  142.8495   77.0252  218.7562 H   0  0  0  0  0  0  0  0  0  0  0  0
  144.8867   75.6354  218.5941 H   0  0  0  0  0  0  0  0  0  0  0  0
  143.2334   72.9169  221.4441 H   0  0  0  0  0  0  0  0  0  0  0  0
  141.2051   74.3068  221.6034 H   0  0  0  0  0  0  0  0  0  0  0  0
  133.9918   77.3277  225.3929 H   0  0  0  0  0  0  0  0  0  0  0  0
  132.4608   76.2647  227.0107 H   0  0  0  0  0  0  0  0  0  0  0  0
  131.5848   74.2240  228.0625 H   0  0  0  0  0  0  0  0  0  0  0  0
  131.5714   71.7590  228.2996 H   0  0  0  0  0  0  0  0  0  0  0  0
  133.1348   70.4101  226.8711 H   0  0  0  0  0  0  0  0  0  0  0  0
  134.6421   71.5615  225.2703 H   0  0  0  0  0  0  0  0  0  0  0  0
  1  2  2  0
  2  3  1  0
  3  4  1  0
  4  5  1  0
  5  6  2  0
  5  7  1  0
  7  8  1  0
  8  9  1  0
  9 10  1  0
 10 11  1  0
 11 12  1  0
 12 13  2  0
 13 14  1  0
 14 15  2  0
 15 16  1  0
 16 17  2  0
 16 18  1  0
 15 19  1  0
 19 20  2  0
  2 21  1  0
 21 22  2  0
 22 23  1  0
 23 24  2  0
 24 25  1  0
 25 26  2  0
 26 27  1  0
 27 28  2  0
 28 29  1  0
 29 30  2  0
 11  7  1  0
 20 12  1  0
 30 21  1  0
 29 24  1  0
  3 31  1  0
  4 32  1  0
  4 33  1  0
  8 34  1  0
  8 35  1  0
  9 36  1  0
  9 37  1  0
 10 38  1  0
 10 39  1  0
 11 40  1  6
 13 41  1  0
 14 42  1  0
 19 43  1  0
 20 44  1  0
 22 45  1  0
 23 46  1  0
 25 47  1  0
 26 48  1  0
 27 49  1  0
 28 50  1  0
M  CHG  2  16   1  18  -1
M  END
>  <smiles>  (75) 
O=C(NCC(=O)N1CCCC1c1ccc([N+](=O)[O-])cc1)c1ccc2ccccc2n1

>  <score_type>  (75) 
oracle

>  <origin>  (75) 
autodockgpu

>  <m_score__min__energy>  (75) 
-9.4499999999999993

>  <m_primary>  (75) 
energy

>  <rmsd>  (75) 
6.289723334359972

>  <m_score__min__rmsd>  (75) 
6.289723334359972

>  <meeko>  (75) 
{"free_energy": -8.05, "intermolecular_energy": -9.84, "internal_energy": -1.8, "cluster_size": 3, "cluster_id": 4, "rank_in_cluster": 3}

>  <energy>  (75) 
-9.14

>  <cluster_rmsd>  (75) 
0.8

>  <cluster>  (75) 
2

$$$$

     RDKit          3D

 50 53  0  0  0  0  0  0  0  0999 V2000
  138.2300   70.7460  221.8040 O   0  0  0  0  0  0  0  0  0  0  0  0
  138.8500   71.2510  222.7990 C   0  0  0  0  0  0  0  0  0  0  0  0
  139.1980   72.6290  222.7500 N   0  0  0  0  0  0  0  0  0  0  0  0
  138.8190   73.3650  221.5630 C   0  0  0  0  0  0  0  0  0  0  0  0
  138.8250   74.8290  221.7990 C   0  0  0  0  0  0  0  0  0  0  0  0
  137.8340   75.4300  222.2860 O   0  0  0  0  0  0  0  0  0  0  0  0
  139.9620   75.6130  221.4810 N   0  0  0  0  0  0  0  0  0  0  0  0
  140.6790   76.5710  222.3340 C   0  0  0  0  0  0  0  0  0  0  0  0
  141.2190   77.6420  221.4000 C   0  0  0  0  0  0  0  0  0  0  0  0
  140.9000   77.1610  219.9980 C   0  0  0  0  0  0  0  0  0  0  0  0
  140.7130   75.6750  220.2200 C   0  0  1  0  0  0  0  0  0  0  0  0
  142.0050   74.9810  220.3500 C   0  0  0  0  0  0  0  0  0  0  0  0
  142.2090   73.7040  220.7620 C   0  0  0  0  0  0  0  0  0  0  0  0
  143.4860   73.1330  220.8430 C   0  0  0  0  0  0  0  0  0  0  0  0
  144.6090   73.8580  220.5020 C   0  0  0  0  0  0  0  0  0  0  0  0
  145.8880   73.2470  220.5970 N   0  0  0  0  0  4  0  0  0  0  0  0
  146.3540   72.6180  219.6240 O   0  0  0  0  0  0  0  0  0  0  0  0
  146.6450   73.3320  221.7600 O   0  0  0  0  0  1  0  0  0  0  0  0
  144.4130   75.1560  220.0830 C   0  0  0  0  0  0  0  0  0  0  0  0
  143.1460   75.7170  220.0050 C   0  0  0  0  0  0  0  0  0  0  0  0
  139.1990   70.4420  223.9650 C   0  0  0  0  0  0  0  0  0  0  0  0
  138.9050   69.0820  223.9260 C   0  0  0  0  0  0  0  0  0  0  0  0
  139.2150   68.2770  225.0000 C   0  0  0  0  0  0  0  0  0  0  0  0
  139.8160   68.7970  226.1270 C   0  0  0  0  0  0  0  0  0  0  0  0
  140.1480   68.0350  227.2300 C   0  0  0  0  0  0  0  0  0  0  0  0
  140.7500   68.5700  228.3490 C   0  0  0  0  0  0  0  0  0  0  0  0
  141.0250   69.9310  228.3470 C   0  0  0  0  0  0  0  0  0  0  0  0
  140.6930   70.7030  227.2330 C   0  0  0  0  0  0  0  0  0  0  0  0
  140.0890   70.1510  226.1190 C   0  0  0  0  0  0  0  0  0  0  0  0
  139.7850   70.9460  225.0620 N   0  0  0  0  0  0  0  0  0  0  0  0
  139.7150   73.0950  223.5530 H   0  0  0  0  0  0  0  0  0  0  0  0
  139.5298   73.1312  220.7567 H   0  0  0  0  0  0  0  0  0  0  0  0
  137.7968   73.0668  221.2869 H   0  0  0  0  0  0  0  0  0  0  0  0
  139.9926   77.0160  223.0694 H   0  0  0  0  0  0  0  0  0  0  0  0
  141.4880   76.0822  222.8967 H   0  0  0  0  0  0  0  0  0  0  0  0
  140.7268   78.6060  221.5962 H   0  0  0  0  0  0  0  0  0  0  0  0
  142.2989   77.7970  221.5406 H   0  0  0  0  0  0  0  0  0  0  0  0
  139.9814   77.6279  219.6129 H   0  0  0  0  0  0  0  0  0  0  0  0
  141.6716   77.4083  219.2541 H   0  0  0  0  0  0  0  0  0  0  0  0
  140.1991   75.1840  219.3805 H   0  0  0  0  0  0  0  0  0  0  0  0
  141.3381   73.0937  221.0432 H   0  0  0  0  0  0  0  0  0  0  0  0
  143.5945   72.0925  221.1831 H   0  0  0  0  0  0  0  0  0  0  0  0
  145.2853   75.7646  219.8024 H   0  0  0  0  0  0  0  0  0  0  0  0
  143.0357   76.7578  219.6664 H   0  0  0  0  0  0  0  0  0  0  0  0
  138.4244   68.6494  223.0361 H   0  0  0  0  0  0  0  0  0  0  0  0
  138.9796   67.2033  224.9580 H   0  0  0  0  0  0  0  0  0  0  0  0
  139.9231   66.9583  227.2151 H   0  0  0  0  0  0  0  0  0  0  0  0
  141.0039   67.9399  229.2142 H   0  0  0  0  0  0  0  0  0  0  0  0
  141.5028   70.3989  229.2204 H   0  0  0  0  0  0  0  0  0  0  0  0
  140.9180   71.7797  227.2416 H   0  0  0  0  0  0  0  0  0  0  0  0
  1  2  2  0
  2  3  1  0
  3  4  1  0
  4  5  1  0
  5  6  2  0
  5  7  1  0
  7  8  1  0
  8  9  1  0
  9 10  1  0
 10 11  1  0
 11 12  1  0
 12 13  2  0
 13 14  1  0
 14 15  2  0
 15 16  1  0
 16 17  2  0
 16 18  1  0
 15 19  1  0
 19 20  2  0
  2 21  1  0
 21 22  2  0
 22 23  1  0
 23 24  2  0
 24 25  1  0
 25 26  2  0
 26 27  1  0
 27 28  2  0
 28 29  1  0
 29 30  2  0
 11  7  1  0
 20 12  1  0
 30 21  1  0
 29 24  1  0
  3 31  1  0
  4 32  1  0
  4 33  1  0
  8 34  1  0
  8 35  1  0
  9 36  1  0
  9 37  1  0
 10 38  1  0
 10 39  1  0
 11 40  1  6
 13 41  1  0
 14 42  1  0
 19 43  1  0
 20 44  1  0
 22 45  1  0
 23 46  1  0
 25 47  1  0
 26 48  1  0
 27 49  1  0
 28 50  1  0
M  CHG  2  16   1  18  -1
M  END
>  <smiles>  (76) 
O=C(NCC(=O)N1CCCC1c1ccc([N+](=O)[O-])cc1)c1ccc2ccccc2n1

>  <score_type>  (76) 
oracle

>  <origin>  (76) 
autodockgpu

>  <m_score__min__energy>  (76) 
-9.4499999999999993

>  <m_primary>  (76) 
energy

>  <rmsd>  (76) 
2.216788046996251

>  <m_score__min__rmsd>  (76) 
2.216788046996251

>  <meeko>  (76) 
{"free_energy": -9.25, "intermolecular_energy": -11.04, "internal_energy": -1.56, "cluster_size": 37, "cluster_id": 2, "rank_in_cluster": 6}

>  <energy>  (76) 
-9.13

>  <cluster_rmsd>  (76) 
0.77

>  <cluster>  (76) 
2

$$$$

     RDKit          3D

 50 53  0  0  0  0  0  0  0  0999 V2000
  140.1500   71.3590  221.2260 O   0  0  0  0  0  0  0  0  0  0  0  0
  139.5720   71.8290  222.2620 C   0  0  0  0  0  0  0  0  0  0  0  0
  138.7180   72.9570  222.1090 N   0  0  0  0  0  0  0  0  0  0  0  0
  138.5650   73.4910  220.7730 C   0  0  0  0  0  0  0  0  0  0  0  0
  138.5600   74.9740  220.7730 C   0  0  0  0  0  0  0  0  0  0  0  0
  137.5190   75.6380  220.5330 O   0  0  0  0  0  0  0  0  0  0  0  0
  139.7420   75.7060  221.0460 N   0  0  0  0  0  0  0  0  0  0  0  0
  140.2220   76.2190  222.3370 C   0  0  0  0  0  0  0  0  0  0  0  0
  140.9830   77.4970  222.0240 C   0  0  0  0  0  0  0  0  0  0  0  0
  141.0290   77.5870  220.5110 C   0  0  0  0  0  0  0  0  0  0  0  0
  140.7880   76.1460  220.1120 C   0  0  1  0  0  0  0  0  0  0  0  0
  142.0030   75.3310  220.2720 C   0  0  0  0  0  0  0  0  0  0  0  0
  142.0710   74.0350  220.6670 C   0  0  0  0  0  0  0  0  0  0  0  0
  143.2840   73.3440  220.7790 C   0  0  0  0  0  0  0  0  0  0  0  0
  144.4820   73.9620  220.4890 C   0  0  0  0  0  0  0  0  0  0  0  0
  145.6940   73.2310  220.6140 N   0  0  0  0  0  4  0  0  0  0  0  0
  146.1860   72.6610  219.6180 O   0  0  0  0  0  0  0  0  0  0  0  0
  146.3550   73.1330  221.8330 O   0  0  0  0  0  1  0  0  0  0  0  0
  144.4250   75.2800  220.0880 C   0  0  0  0  0  0  0  0  0  0  0  0
  143.2200   75.9600  219.9770 C   0  0  0  0  0  0  0  0  0  0  0  0
  139.7780   71.2330  223.5810 C   0  0  0  0  0  0  0  0  0  0  0  0
  139.3660   69.9180  223.7730 C   0  0  0  0  0  0  0  0  0  0  0  0
  139.5380   69.3110  224.9980 C   0  0  0  0  0  0  0  0  0  0  0  0
  140.1160   69.9880  226.0500 C   0  0  0  0  0  0  0  0  0  0  0  0
  140.3120   69.4270  227.2970 C   0  0  0  0  0  0  0  0  0  0  0  0
  140.8920   70.1180  228.3400 C   0  0  0  0  0  0  0  0  0  0  0  0
  141.2890   71.4280  228.1060 C   0  0  0  0  0  0  0  0  0  0  0  0
  141.0930   71.9970  226.8470 C   0  0  0  0  0  0  0  0  0  0  0  0
  140.5100   71.2900  225.8130 C   0  0  0  0  0  0  0  0  0  0  0  0
  140.3420   71.8900  224.6070 N   0  0  0  0  0  0  0  0  0  0  0  0
  138.2160   73.3850  222.9410 H   0  0  0  0  0  0  0  0  0  0  0  0
  139.3996   73.1372  220.1498 H   0  0  0  0  0  0  0  0  0  0  0  0
  137.6005   73.1445  220.3733 H   0  0  0  0  0  0  0  0  0  0  0  0
  139.3728   76.4332  223.0026 H   0  0  0  0  0  0  0  0  0  0  0  0
  140.8613   75.4850  222.8494 H   0  0  0  0  0  0  0  0  0  0  0  0
  140.4590   78.3681  222.4443 H   0  0  0  0  0  0  0  0  0  0  0  0
  141.9924   77.4858  222.4610 H   0  0  0  0  0  0  0  0  0  0  0  0
  140.2394   78.2479  220.1241 H   0  0  0  0  0  0  0  0  0  0  0  0
  141.9647   78.0098  220.1164 H   0  0  0  0  0  0  0  0  0  0  0  0
  140.5016   76.0429  219.0549 H   0  0  0  0  0  0  0  0  0  0  0  0
  141.1371   73.5063  220.9087 H   0  0  0  0  0  0  0  0  0  0  0  0
  143.2810   72.2928  221.1031 H   0  0  0  0  0  0  0  0  0  0  0  0
  145.3605   75.8072  219.8494 H   0  0  0  0  0  0  0  0  0  0  0  0
  143.2204   77.0108  219.6518 H   0  0  0  0  0  0  0  0  0  0  0  0
  138.9020   69.3618  222.9452 H   0  0  0  0  0  0  0  0  0  0  0  0
  139.2091   68.2707  225.1383 H   0  0  0  0  0  0  0  0  0  0  0  0
  139.9927   68.3878  227.4647 H   0  0  0  0  0  0  0  0  0  0  0  0
  141.0353   69.6475  229.3239 H   0  0  0  0  0  0  0  0  0  0  0  0
  141.7563   72.0151  228.9103 H   0  0  0  0  0  0  0  0  0  0  0  0
  141.4110   73.0356  226.6732 H   0  0  0  0  0  0  0  0  0  0  0  0
  1  2  2  0
  2  3  1  0
  3  4  1  0
  4  5  1  0
  5  6  2  0
  5  7  1  0
  7  8  1  0
  8  9  1  0
  9 10  1  0
 10 11  1  0
 11 12  1  0
 12 13  2  0
 13 14  1  0
 14 15  2  0
 15 16  1  0
 16 17  2  0
 16 18  1  0
 15 19  1  0
 19 20  2  0
  2 21  1  0
 21 22  2  0
 22 23  1  0
 23 24  2  0
 24 25  1  0
 25 26  2  0
 26 27  1  0
 27 28  2  0
 28 29  1  0
 29 30  2  0
 11  7  1  0
 20 12  1  0
 30 21  1  0
 29 24  1  0
  3 31  1  0
  4 32  1  0
  4 33  1  0
  8 34  1  0
  8 35  1  0
  9 36  1  0
  9 37  1  0
 10 38  1  0
 10 39  1  0
 11 40  1  6
 13 41  1  0
 14 42  1  0
 19 43  1  0
 20 44  1  0
 22 45  1  0
 23 46  1  0
 25 47  1  0
 26 48  1  0
 27 49  1  0
 28 50  1  0
M  CHG  2  16   1  18  -1
M  END
>  <smiles>  (77) 
O=C(NCC(=O)N1CCCC1c1ccc([N+](=O)[O-])cc1)c1ccc2ccccc2n1

>  <score_type>  (77) 
oracle

>  <origin>  (77) 
autodockgpu

>  <m_score__min__energy>  (77) 
-9.4499999999999993

>  <m_primary>  (77) 
energy

>  <rmsd>  (77) 
2.293159846807186

>  <m_score__min__rmsd>  (77) 
2.293159846807186

>  <meeko>  (77) 
{"free_energy": -9.22, "intermolecular_energy": -11.01, "internal_energy": -1.8, "cluster_size": 37, "cluster_id": 2, "rank_in_cluster": 10}

>  <energy>  (77) 
-9.11

>  <cluster_rmsd>  (77) 
0.82

>  <cluster>  (77) 
2

$$$$

     RDKit          3D

 50 53  0  0  0  0  0  0  0  0999 V2000
  137.9590   70.9490  221.9540 O   0  0  0  0  0  0  0  0  0  0  0  0
  138.7710   71.3640  222.8470 C   0  0  0  0  0  0  0  0  0  0  0  0
  139.2940   72.6810  222.7270 N   0  0  0  0  0  0  0  0  0  0  0  0
  138.8600   73.4630  221.5900 C   0  0  0  0  0  0  0  0  0  0  0  0
  138.7750   74.9070  221.9160 C   0  0  0  0  0  0  0  0  0  0  0  0
  137.8020   75.3920  222.5490 O   0  0  0  0  0  0  0  0  0  0  0  0
  139.7990   75.8040  221.5220 N   0  0  0  0  0  0  0  0  0  0  0  0
  140.5300   76.7760  222.3480 C   0  0  0  0  0  0  0  0  0  0  0  0
  140.8680   77.9370  221.4270 C   0  0  0  0  0  0  0  0  0  0  0  0
  140.4280   77.5040  220.0420 C   0  0  0  0  0  0  0  0  0  0  0  0
  140.3900   75.9980  220.1910 C   0  0  1  0  0  0  0  0  0  0  0  0
  141.7400   75.4150  220.1320 C   0  0  0  0  0  0  0  0  0  0  0  0
  142.8240   75.9250  219.4950 C   0  0  0  0  0  0  0  0  0  0  0  0
  144.0730   75.2910  219.5090 C   0  0  0  0  0  0  0  0  0  0  0  0
  144.2580   74.1020  220.1820 C   0  0  0  0  0  0  0  0  0  0  0  0
  145.5390   73.4870  220.1750 N   0  0  0  0  0  4  0  0  0  0  0  0
  145.9930   73.0020  219.1180 O   0  0  0  0  0  0  0  0  0  0  0  0
  146.3100   73.4120  221.3300 O   0  0  0  0  0  1  0  0  0  0  0  0
  143.1630   73.5750  220.8330 C   0  0  0  0  0  0  0  0  0  0  0  0
  141.9270   74.2060  220.8170 C   0  0  0  0  0  0  0  0  0  0  0  0
  139.1620   70.5130  223.9690 C   0  0  0  0  0  0  0  0  0  0  0  0
  138.9190   69.1470  223.8680 C   0  0  0  0  0  0  0  0  0  0  0  0
  139.2690   68.3030  224.8990 C   0  0  0  0  0  0  0  0  0  0  0  0
  139.8630   68.7910  226.0440 C   0  0  0  0  0  0  0  0  0  0  0  0
  140.2350   67.9900  227.1060 C   0  0  0  0  0  0  0  0  0  0  0  0
  140.8280   68.4920  228.2440 C   0  0  0  0  0  0  0  0  0  0  0  0
  141.0530   69.8610  228.3050 C   0  0  0  0  0  0  0  0  0  0  0  0
  140.6800   70.6730  227.2330 C   0  0  0  0  0  0  0  0  0  0  0  0
  140.0860   70.1530  226.0990 C   0  0  0  0  0  0  0  0  0  0  0  0
  139.7420   70.9850  225.0840 N   0  0  0  0  0  0  0  0  0  0  0  0
  139.9730   73.0710  223.4450 H   0  0  0  0  0  0  0  0  0  0  0  0
  139.5778   73.3251  220.7679 H   0  0  0  0  0  0  0  0  0  0  0  0
  137.8565   73.1179  221.3002 H   0  0  0  0  0  0  0  0  0  0  0  0
  139.8998   77.1200  223.1814 H   0  0  0  0  0  0  0  0  0  0  0  0
  141.4360   76.3321  222.7863 H   0  0  0  0  0  0  0  0  0  0  0  0
  140.3252   78.8424  221.7362 H   0  0  0  0  0  0  0  0  0  0  0  0
  141.9408   78.1783  221.4551 H   0  0  0  0  0  0  0  0  0  0  0  0
  139.4358   77.9076  219.7917 H   0  0  0  0  0  0  0  0  0  0  0  0
  141.0848   77.8570  219.2333 H   0  0  0  0  0  0  0  0  0  0  0  0
  139.8231   75.5082  219.3855 H   0  0  0  0  0  0  0  0  0  0  0  0
  142.7180   76.8726  218.9466 H   0  0  0  0  0  0  0  0  0  0  0  0
  144.9189   75.7486  218.9751 H   0  0  0  0  0  0  0  0  0  0  0  0
  143.2720   72.6273  221.3807 H   0  0  0  0  0  0  0  0  0  0  0  0
  141.0800   73.7501  221.3506 H   0  0  0  0  0  0  0  0  0  0  0  0
  138.4460   68.7396  222.9623 H   0  0  0  0  0  0  0  0  0  0  0  0
  139.0719   67.2247  224.8077 H   0  0  0  0  0  0  0  0  0  0  0  0
  140.0504   66.9076  227.0407 H   0  0  0  0  0  0  0  0  0  0  0  0
  141.1134   67.8310  229.0757 H   0  0  0  0  0  0  0  0  0  0  0  0
  141.5236   70.3038  229.1952 H   0  0  0  0  0  0  0  0  0  0  0  0
  140.8638   71.7559  227.2924 H   0  0  0  0  0  0  0  0  0  0  0  0
  1  2  2  0
  2  3  1  0
  3  4  1  0
  4  5  1  0
  5  6  2  0
  5  7  1  0
  7  8  1  0
  8  9  1  0
  9 10  1  0
 10 11  1  0
 11 12  1  0
 12 13  2  0
 13 14  1  0
 14 15  2  0
 15 16  1  0
 16 17  2  0
 16 18  1  0
 15 19  1  0
 19 20  2  0
  2 21  1  0
 21 22  2  0
 22 23  1  0
 23 24  2  0
 24 25  1  0
 25 26  2  0
 26 27  1  0
 27 28  2  0
 28 29  1  0
 29 30  2  0
 11  7  1  0
 20 12  1  0
 30 21  1  0
 29 24  1  0
  3 31  1  0
  4 32  1  0
  4 33  1  0
  8 34  1  0
  8 35  1  0
  9 36  1  0
  9 37  1  0
 10 38  1  0
 10 39  1  0
 11 40  1  6
 13 41  1  0
 14 42  1  0
 19 43  1  0
 20 44  1  0
 22 45  1  0
 23 46  1  0
 25 47  1  0
 26 48  1  0
 27 49  1  0
 28 50  1  0
M  CHG  2  16   1  18  -1
M  END
>  <smiles>  (78) 
O=C(NCC(=O)N1CCCC1c1ccc([N+](=O)[O-])cc1)c1ccc2ccccc2n1

>  <score_type>  (78) 
oracle

>  <origin>  (78) 
autodockgpu

>  <m_score__min__energy>  (78) 
-9.4499999999999993

>  <m_primary>  (78) 
energy

>  <rmsd>  (78) 
2.2543882468514176

>  <m_score__min__rmsd>  (78) 
2.2543882468514176

>  <meeko>  (78) 
{"free_energy": -8.95, "intermolecular_energy": -10.74, "internal_energy": -1.58, "cluster_size": 37, "cluster_id": 2, "rank_in_cluster": 24}

>  <energy>  (78) 
-9.1

>  <cluster_rmsd>  (78) 
0.91

>  <cluster>  (78) 
2

$$$$

     RDKit          3D

 50 53  0  0  0  0  0  0  0  0999 V2000
  135.5480   77.3920  223.4500 O   0  0  0  0  0  0  0  0  0  0  0  0
  135.7360   76.1700  223.7660 C   0  0  0  0  0  0  0  0  0  0  0  0
  136.8440   75.4860  223.1950 N   0  0  0  0  0  0  0  0  0  0  0  0
  137.6870   76.2350  222.2880 C   0  0  0  0  0  0  0  0  0  0  0  0
  139.0080   75.5870  222.1040 C   0  0  0  0  0  0  0  0  0  0  0  0
  139.1880   74.3630  222.3310 O   0  0  0  0  0  0  0  0  0  0  0  0
  140.1290   76.3320  221.6620 N   0  0  0  0  0  0  0  0  0  0  0  0
  140.9790   77.2490  222.4340 C   0  0  0  0  0  0  0  0  0  0  0  0
  141.4460   78.3130  221.4530 C   0  0  0  0  0  0  0  0  0  0  0  0
  140.9450   77.8660  220.0940 C   0  0  0  0  0  0  0  0  0  0  0  0
  140.7280   76.3850  220.3200 C   0  0  1  0  0  0  0  0  0  0  0  0
  141.9970   75.6410  220.2900 C   0  0  0  0  0  0  0  0  0  0  0  0
  143.1910   76.0800  219.8170 C   0  0  0  0  0  0  0  0  0  0  0  0
  144.3480   75.2910  219.8420 C   0  0  0  0  0  0  0  0  0  0  0  0
  144.3230   74.0120  220.3570 C   0  0  0  0  0  0  0  0  0  0  0  0
  145.5160   73.2390  220.3670 N   0  0  0  0  0  4  0  0  0  0  0  0
  146.1660   73.1080  221.4240 O   0  0  0  0  0  0  0  0  0  0  0  0
  145.9820   72.6180  219.2140 O   0  0  0  0  0  1  0  0  0  0  0  0
  143.1150   73.5550  220.8400 C   0  0  0  0  0  0  0  0  0  0  0  0
  141.9710   74.3410  220.8130 C   0  0  0  0  0  0  0  0  0  0  0  0
  134.8390   75.4810  224.6920 C   0  0  0  0  0  0  0  0  0  0  0  0
  133.9580   76.2530  225.4430 C   0  0  0  0  0  0  0  0  0  0  0  0
  133.0930   75.6500  226.3290 C   0  0  0  0  0  0  0  0  0  0  0  0
  133.0820   74.2810  226.4900 C   0  0  0  0  0  0  0  0  0  0  0  0
  132.2360   73.6260  227.3640 C   0  0  0  0  0  0  0  0  0  0  0  0
  132.2370   72.2550  227.5130 C   0  0  0  0  0  0  0  0  0  0  0  0
  133.1320   71.5220  226.7450 C   0  0  0  0  0  0  0  0  0  0  0  0
  133.9880   72.1800  225.8610 C   0  0  0  0  0  0  0  0  0  0  0  0
  133.9740   73.5560  225.7230 C   0  0  0  0  0  0  0  0  0  0  0  0
  134.8260   74.1480  224.8490 N   0  0  0  0  0  0  0  0  0  0  0  0
  137.0420   74.4680  223.4270 H   0  0  0  0  0  0  0  0  0  0  0  0
  137.1855   76.3053  221.3115 H   0  0  0  0  0  0  0  0  0  0  0  0
  137.8523   77.2332  222.7196 H   0  0  0  0  0  0  0  0  0  0  0  0
  140.4026   77.7084  223.2505 H   0  0  0  0  0  0  0  0  0  0  0  0
  141.8291   76.7217  222.8916 H   0  0  0  0  0  0  0  0  0  0  0  0
  141.0185   79.2917  221.7165 H   0  0  0  0  0  0  0  0  0  0  0  0
  142.5402   78.4248  221.4657 H   0  0  0  0  0  0  0  0  0  0  0  0
  140.0062   78.3727  219.8260 H   0  0  0  0  0  0  0  0  0  0  0  0
  141.6323   78.0958  219.2665 H   0  0  0  0  0  0  0  0  0  0  0  0
  140.1005   75.9272  219.5411 H   0  0  0  0  0  0  0  0  0  0  0  0
  143.2524   77.0951  219.3977 H   0  0  0  0  0  0  0  0  0  0  0  0
  145.2900   75.6974  219.4452 H   0  0  0  0  0  0  0  0  0  0  0  0
  143.0562   72.5394  221.2583 H   0  0  0  0  0  0  0  0  0  0  0  0
  141.0278   73.9365  221.2090 H   0  0  0  0  0  0  0  0  0  0  0  0
  133.9524   77.3470  225.3288 H   0  0  0  0  0  0  0  0  0  0  0  0
  132.4005   76.2702  226.9170 H   0  0  0  0  0  0  0  0  0  0  0  0
  131.5334   74.2219  227.9651 H   0  0  0  0  0  0  0  0  0  0  0  0
  131.5520   71.7589  228.2164 H   0  0  0  0  0  0  0  0  0  0  0  0
  133.1661   70.4261  226.8332 H   0  0  0  0  0  0  0  0  0  0  0  0
  134.6926   71.5886  225.2579 H   0  0  0  0  0  0  0  0  0  0  0  0
  1  2  2  0
  2  3  1  0
  3  4  1  0
  4  5  1  0
  5  6  2  0
  5  7  1  0
  7  8  1  0
  8  9  1  0
  9 10  1  0
 10 11  1  0
 11 12  1  0
 12 13  2  0
 13 14  1  0
 14 15  2  0
 15 16  1  0
 16 17  2  0
 16 18  1  0
 15 19  1  0
 19 20  2  0
  2 21  1  0
 21 22  2  0
 22 23  1  0
 23 24  2  0
 24 25  1  0
 25 26  2  0
 26 27  1  0
 27 28  2  0
 28 29  1  0
 29 30  2  0
 11  7  1  0
 20 12  1  0
 30 21  1  0
 29 24  1  0
  3 31  1  0
  4 32  1  0
  4 33  1  0
  8 34  1  0
  8 35  1  0
  9 36  1  0
  9 37  1  0
 10 38  1  0
 10 39  1  0
 11 40  1  6
 13 41  1  0
 14 42  1  0
 19 43  1  0
 20 44  1  0
 22 45  1  0
 23 46  1  0
 25 47  1  0
 26 48  1  0
 27 49  1  0
 28 50  1  0
M  CHG  2  16   1  18  -1
M  END
>  <smiles>  (79) 
O=C(NCC(=O)N1CCCC1c1ccc([N+](=O)[O-])cc1)c1ccc2ccccc2n1

>  <score_type>  (79) 
oracle

>  <origin>  (79) 
autodockgpu

>  <m_score__min__energy>  (79) 
-9.4499999999999993

>  <m_primary>  (79) 
energy

>  <rmsd>  (79) 
6.276757473611925

>  <m_score__min__rmsd>  (79) 
6.276757473611925

>  <meeko>  (79) 
{"free_energy": -8.17, "intermolecular_energy": -9.96, "internal_energy": -1.84, "cluster_size": 3, "cluster_id": 4, "rank_in_cluster": 1}

>  <energy>  (79) 
-9.04

>  <cluster_rmsd>  (79) 
0.85

>  <cluster>  (79) 
2

$$$$

     RDKit          3D

 50 53  0  0  0  0  0  0  0  0999 V2000
  140.6370   73.0440  222.7120 O   0  0  0  0  0  0  0  0  0  0  0  0
  139.6620   72.2450  222.9150 C   0  0  0  0  0  0  0  0  0  0  0  0
  138.5210   72.3400  222.0720 N   0  0  0  0  0  0  0  0  0  0  0  0
  138.5500   73.3470  221.0330 C   0  0  0  0  0  0  0  0  0  0  0  0
  138.5410   74.7180  221.5970 C   0  0  0  0  0  0  0  0  0  0  0  0
  137.5780   75.1530  222.2790 O   0  0  0  0  0  0  0  0  0  0  0  0
  139.6300   75.6000  221.3850 N   0  0  0  0  0  0  0  0  0  0  0  0
  140.2980   76.4770  222.3560 C   0  0  0  0  0  0  0  0  0  0  0  0
  140.7710   77.6890  221.5700 C   0  0  0  0  0  0  0  0  0  0  0  0
  140.4690   77.3790  220.1180 C   0  0  0  0  0  0  0  0  0  0  0  0
  140.3670   75.8690  220.1420 C   0  0  1  0  0  0  0  0  0  0  0  0
  141.6960   75.2380  220.1800 C   0  0  0  0  0  0  0  0  0  0  0  0
  141.9850   73.9620  220.5410 C   0  0  0  0  0  0  0  0  0  0  0  0
  143.2910   73.4540  220.5340 C   0  0  0  0  0  0  0  0  0  0  0  0
  144.3560   74.2430  220.1550 C   0  0  0  0  0  0  0  0  0  0  0  0
  145.6680   73.6950  220.1600 N   0  0  0  0  0  4  0  0  0  0  0  0
  146.3640   73.7520  221.1950 O   0  0  0  0  0  0  0  0  0  0  0  0
  146.2010   73.0900  219.0280 O   0  0  0  0  0  1  0  0  0  0  0  0
  144.0740   75.5410  219.7870 C   0  0  0  0  0  0  0  0  0  0  0  0
  142.7790   76.0400  219.7950 C   0  0  0  0  0  0  0  0  0  0  0  0
  139.7080   71.2520  223.9870 C   0  0  0  0  0  0  0  0  0  0  0  0
  139.0860   70.0270  223.7690 C   0  0  0  0  0  0  0  0  0  0  0  0
  139.1010   69.0590  224.7490 C   0  0  0  0  0  0  0  0  0  0  0  0
  139.7270   69.2820  225.9560 C   0  0  0  0  0  0  0  0  0  0  0  0
  139.7730   68.3460  226.9710 C   0  0  0  0  0  0  0  0  0  0  0  0
  140.4030   68.5840  228.1740 C   0  0  0  0  0  0  0  0  0  0  0  0
  141.0120   69.8200  228.3520 C   0  0  0  0  0  0  0  0  0  0  0  0
  140.9680   70.7670  227.3280 C   0  0  0  0  0  0  0  0  0  0  0  0
  140.3310   70.5120  226.1280 C   0  0  0  0  0  0  0  0  0  0  0  0
  140.3180   71.4670  225.1640 N   0  0  0  0  0  0  0  0  0  0  0  0
  137.6840   71.6980  222.2020 H   0  0  0  0  0  0  0  0  0  0  0  0
  139.4627   73.2143  220.4335 H   0  0  0  0  0  0  0  0  0  0  0  0
  137.6495   73.2256  220.4130 H   0  0  0  0  0  0  0  0  0  0  0  0
  139.5929   76.7831  223.1428 H   0  0  0  0  0  0  0  0  0  0  0  0
  141.1367   75.9653  222.8507 H   0  0  0  0  0  0  0  0  0  0  0  0
  140.2278   78.5901  221.8909 H   0  0  0  0  0  0  0  0  0  0  0  0
  141.8418   77.8839  221.7295 H   0  0  0  0  0  0  0  0  0  0  0  0
  139.5229   77.8399  219.7979 H   0  0  0  0  0  0  0  0  0  0  0  0
  141.2202   77.7649  219.4132 H   0  0  0  0  0  0  0  0  0  0  0  0
  139.8753   75.4645  219.2450 H   0  0  0  0  0  0  0  0  0  0  0  0
  141.1622   73.3010  220.8511 H   0  0  0  0  0  0  0  0  0  0  0  0
  143.4688   72.4111  220.8351 H   0  0  0  0  0  0  0  0  0  0  0  0
  144.8988   76.2001  219.4782 H   0  0  0  0  0  0  0  0  0  0  0  0
  142.5995   77.0827  219.4941 H   0  0  0  0  0  0  0  0  0  0  0  0
  138.5809   69.8308  222.8117 H   0  0  0  0  0  0  0  0  0  0  0  0
  138.6060   68.0940  224.5653 H   0  0  0  0  0  0  0  0  0  0  0  0
  139.2875   67.3717  226.8130 H   0  0  0  0  0  0  0  0  0  0  0  0
  140.4228   67.8210  228.9662 H   0  0  0  0  0  0  0  0  0  0  0  0
  141.5267   70.0512  229.2963 H   0  0  0  0  0  0  0  0  0  0  0  0
  141.4532   71.7425  227.4798 H   0  0  0  0  0  0  0  0  0  0  0  0
  1  2  2  0
  2  3  1  0
  3  4  1  0
  4  5  1  0
  5  6  2  0
  5  7  1  0
  7  8  1  0
  8  9  1  0
  9 10  1  0
 10 11  1  0
 11 12  1  0
 12 13  2  0
 13 14  1  0
 14 15  2  0
 15 16  1  0
 16 17  2  0
 16 18  1  0
 15 19  1  0
 19 20  2  0
  2 21  1  0
 21 22  2  0
 22 23  1  0
 23 24  2  0
 24 25  1  0
 25 26  2  0
 26 27  1  0
 27 28  2  0
 28 29  1  0
 29 30  2  0
 11  7  1  0
 20 12  1  0
 30 21  1  0
 29 24  1  0
  3 31  1  0
  4 32  1  0
  4 33  1  0
  8 34  1  0
  8 35  1  0
  9 36  1  0
  9 37  1  0
 10 38  1  0
 10 39  1  0
 11 40  1  6
 13 41  1  0
 14 42  1  0
 19 43  1  0
 20 44  1  0
 22 45  1  0
 23 46  1  0
 25 47  1  0
 26 48  1  0
 27 49  1  0
 28 50  1  0
M  CHG  2  16   1  18  -1
M  END
>  <smiles>  (80) 
O=C(NCC(=O)N1CCCC1c1ccc([N+](=O)[O-])cc1)c1ccc2ccccc2n1

>  <score_type>  (80) 
oracle

>  <origin>  (80) 
autodockgpu

>  <m_score__min__energy>  (80) 
-9.4499999999999993

>  <m_primary>  (80) 
energy

>  <rmsd>  (80) 
2.3023103867869508

>  <m_score__min__rmsd>  (80) 
2.3023103867869508

>  <meeko>  (80) 
{"free_energy": -9.31, "intermolecular_energy": -11.1, "internal_energy": -1.58, "cluster_size": 37, "cluster_id": 2, "rank_in_cluster": 4}

>  <energy>  (80) 
-9.03

>  <cluster_rmsd>  (80) 
0.55

>  <cluster>  (80) 
2

$$$$

     RDKit          3D

 50 53  0  0  0  0  0  0  0  0999 V2000
  138.6520   70.7220  221.5630 O   0  0  0  0  0  0  0  0  0  0  0  0
  139.0300   71.3750  222.5930 C   0  0  0  0  0  0  0  0  0  0  0  0
  139.0990   72.7930  222.5090 N   0  0  0  0  0  0  0  0  0  0  0  0
  138.7300   73.3980  221.2470 C   0  0  0  0  0  0  0  0  0  0  0  0
  138.6590   74.8760  221.3470 C   0  0  0  0  0  0  0  0  0  0  0  0
  137.5670   75.4830  221.4930 O   0  0  0  0  0  0  0  0  0  0  0  0
  139.8330   75.6670  221.2810 N   0  0  0  0  0  0  0  0  0  0  0  0
  140.4780   76.4360  222.3550 C   0  0  0  0  0  0  0  0  0  0  0  0
  141.1220   77.6370  221.6810 C   0  0  0  0  0  0  0  0  0  0  0  0
  140.9330   77.4220  220.1920 C   0  0  0  0  0  0  0  0  0  0  0  0
  140.7040   75.9270  220.1260 C   0  0  1  0  0  0  0  0  0  0  0  0
  141.9660   75.1800  220.2500 C   0  0  0  0  0  0  0  0  0  0  0  0
  142.1110   73.8640  220.5460 C   0  0  0  0  0  0  0  0  0  0  0  0
  143.3650   73.2440  220.6310 C   0  0  0  0  0  0  0  0  0  0  0  0
  144.5250   73.9590  220.4150 C   0  0  0  0  0  0  0  0  0  0  0  0
  145.7800   73.2980  220.5100 N   0  0  0  0  0  4  0  0  0  0  0  0
  146.3080   72.8110  219.4890 O   0  0  0  0  0  0  0  0  0  0  0  0
  146.4420   73.1790  221.7270 O   0  0  0  0  0  1  0  0  0  0  0  0
  144.3890   75.2970  220.1140 C   0  0  0  0  0  0  0  0  0  0  0  0
  143.1440   75.9060  220.0310 C   0  0  0  0  0  0  0  0  0  0  0  0
  139.3870   70.6900  223.8340 C   0  0  0  0  0  0  0  0  0  0  0  0
  139.1930   69.3140  223.8990 C   0  0  0  0  0  0  0  0  0  0  0  0
  139.5140   68.6240  225.0470 C   0  0  0  0  0  0  0  0  0  0  0  0
  140.0300   69.2760  226.1460 C   0  0  0  0  0  0  0  0  0  0  0  0
  140.3690   68.6320  227.3210 C   0  0  0  0  0  0  0  0  0  0  0  0
  140.8850   69.2990  228.4120 C   0  0  0  0  0  0  0  0  0  0  0  0
  141.0640   70.6720  228.3050 C   0  0  0  0  0  0  0  0  0  0  0  0
  140.7230   71.3250  227.1200 C   0  0  0  0  0  0  0  0  0  0  0  0
  140.2070   70.6410  226.0350 C   0  0  0  0  0  0  0  0  0  0  0  0
  139.8910   71.3230  224.9050 N   0  0  0  0  0  0  0  0  0  0  0  0
  139.4080   73.3790  223.3390 H   0  0  0  0  0  0  0  0  0  0  0  0
  139.4801   73.1276  220.4892 H   0  0  0  0  0  0  0  0  0  0  0  0
  137.7339   73.0251  220.9663 H   0  0  0  0  0  0  0  0  0  0  0  0
  139.7302   76.7661  223.0910 H   0  0  0  0  0  0  0  0  0  0  0  0
  141.2208   75.8301  222.8945 H   0  0  0  0  0  0  0  0  0  0  0  0
  140.6279   78.5665  222.0001 H   0  0  0  0  0  0  0  0  0  0  0  0
  142.1856   77.7295  221.9461 H   0  0  0  0  0  0  0  0  0  0  0  0
  140.0628   77.9783  219.8135 H   0  0  0  0  0  0  0  0  0  0  0  0
  141.7764   77.7726  219.5790 H   0  0  0  0  0  0  0  0  0  0  0  0
  140.2675   75.6091  219.1677 H   0  0  0  0  0  0  0  0  0  0  0  0
  141.2094   73.2602  220.7263 H   0  0  0  0  0  0  0  0  0  0  0  0
  143.4252   72.1727  220.8732 H   0  0  0  0  0  0  0  0  0  0  0  0
  145.2919   75.8992  219.9345 H   0  0  0  0  0  0  0  0  0  0  0  0
  143.0815   76.9772  219.7891 H   0  0  0  0  0  0  0  0  0  0  0  0
  138.7824   68.7760  223.0319 H   0  0  0  0  0  0  0  0  0  0  0  0
  139.3561   67.5361  225.0872 H   0  0  0  0  0  0  0  0  0  0  0  0
  140.2213   67.5441  227.3885 H   0  0  0  0  0  0  0  0  0  0  0  0
  141.1460   68.7618  229.3357 H   0  0  0  0  0  0  0  0  0  0  0  0
  141.4732   71.2428  229.1516 H   0  0  0  0  0  0  0  0  0  0  0  0
  140.8686   72.4129  227.0471 H   0  0  0  0  0  0  0  0  0  0  0  0
  1  2  2  0
  2  3  1  0
  3  4  1  0
  4  5  1  0
  5  6  2  0
  5  7  1  0
  7  8  1  0
  8  9  1  0
  9 10  1  0
 10 11  1  0
 11 12  1  0
 12 13  2  0
 13 14  1  0
 14 15  2  0
 15 16  1  0
 16 17  2  0
 16 18  1  0
 15 19  1  0
 19 20  2  0
  2 21  1  0
 21 22  2  0
 22 23  1  0
 23 24  2  0
 24 25  1  0
 25 26  2  0
 26 27  1  0
 27 28  2  0
 28 29  1  0
 29 30  2  0
 11  7  1  0
 20 12  1  0
 30 21  1  0
 29 24  1  0
  3 31  1  0
  4 32  1  0
  4 33  1  0
  8 34  1  0
  8 35  1  0
  9 36  1  0
  9 37  1  0
 10 38  1  0
 10 39  1  0
 11 40  1  6
 13 41  1  0
 14 42  1  0
 19 43  1  0
 20 44  1  0
 22 45  1  0
 23 46  1  0
 25 47  1  0
 26 48  1  0
 27 49  1  0
 28 50  1  0
M  CHG  2  16   1  18  -1
M  END
>  <smiles>  (81) 
O=C(NCC(=O)N1CCCC1c1ccc([N+](=O)[O-])cc1)c1ccc2ccccc2n1

>  <score_type>  (81) 
oracle

>  <origin>  (81) 
autodockgpu

>  <m_score__min__energy>  (81) 
-9.4499999999999993

>  <m_primary>  (81) 
energy

>  <rmsd>  (81) 
2.206873587518665

>  <m_score__min__rmsd>  (81) 
2.206873587518665

>  <meeko>  (81) 
{"free_energy": -9.16, "intermolecular_energy": -10.95, "internal_energy": -1.65, "cluster_size": 37, "cluster_id": 2, "rank_in_cluster": 14}

>  <energy>  (81) 
-9.0

>  <cluster_rmsd>  (81) 
0.91

>  <cluster>  (81) 
2

$$$$

     RDKit          3D

 50 53  0  0  0  0  0  0  0  0999 V2000
  141.4450   72.3880  221.9630 O   0  0  0  0  0  0  0  0  0  0  0  0
  140.4030   72.3770  222.7010 C   0  0  0  0  0  0  0  0  0  0  0  0
  139.4010   73.3600  222.4730 N   0  0  0  0  0  0  0  0  0  0  0  0
  139.6380   74.3100  221.4070 C   0  0  0  0  0  0  0  0  0  0  0  0
  138.7550   75.4960  221.5220 C   0  0  0  0  0  0  0  0  0  0  0  0
  137.6960   75.4750  222.2000 O   0  0  0  0  0  0  0  0  0  0  0  0
  139.0750   76.7090  220.8630 N   0  0  0  0  0  0  0  0  0  0  0  0
  138.2130   77.8760  220.6280 C   0  0  0  0  0  0  0  0  0  0  0  0
  138.6790   78.4820  219.3140 C   0  0  0  0  0  0  0  0  0  0  0  0
  139.9130   77.6980  218.9150 C   0  0  0  0  0  0  0  0  0  0  0  0
  140.3450   77.1110  220.2420 C   0  0  1  0  0  0  0  0  0  0  0  0
  141.0360   78.1090  221.0750 C   0  0  0  0  0  0  0  0  0  0  0  0
  141.5870   79.2770  220.6620 C   0  0  0  0  0  0  0  0  0  0  0  0
  142.2180   80.1660  221.5430 C   0  0  0  0  0  0  0  0  0  0  0  0
  142.3070   79.8850  222.8910 C   0  0  0  0  0  0  0  0  0  0  0  0
  142.9540   80.8090  223.7550 N   0  0  0  0  0  4  0  0  0  0  0  0
  144.2000   80.8300  223.8260 O   0  0  0  0  0  0  0  0  0  0  0  0
  142.2250   81.7010  224.5340 O   0  0  0  0  0  1  0  0  0  0  0  0
  141.7500   78.7000  223.3210 C   0  0  0  0  0  0  0  0  0  0  0  0
  141.1260   77.8230  222.4440 C   0  0  0  0  0  0  0  0  0  0  0  0
  140.2360   71.3830  223.7590 C   0  0  0  0  0  0  0  0  0  0  0  0
  139.5530   70.2110  223.4510 C   0  0  0  0  0  0  0  0  0  0  0  0
  139.3690   69.2430  224.4140 C   0  0  0  0  0  0  0  0  0  0  0  0
  139.8530   69.4150  225.6930 C   0  0  0  0  0  0  0  0  0  0  0  0
  139.6970   68.4770  226.6960 C   0  0  0  0  0  0  0  0  0  0  0  0
  140.1870   68.6640  227.9710 C   0  0  0  0  0  0  0  0  0  0  0  0
  140.8610   69.8480  228.2370 C   0  0  0  0  0  0  0  0  0  0  0  0
  141.0220   70.7970  227.2270 C   0  0  0  0  0  0  0  0  0  0  0  0
  140.5240   70.5940  225.9530 C   0  0  0  0  0  0  0  0  0  0  0  0
  140.7070   71.5480  225.0060 N   0  0  0  0  0  0  0  0  0  0  0  0
  138.5170   73.3930  223.0610 H   0  0  0  0  0  0  0  0  0  0  0  0
  140.6862   74.6406  221.4508 H   0  0  0  0  0  0  0  0  0  0  0  0
  139.4208   73.8126  220.4502 H   0  0  0  0  0  0  0  0  0  0  0  0
  137.1604   77.5652  220.5538 H   0  0  0  0  0  0  0  0  0  0  0  0
  138.2812   78.6005  221.4529 H   0  0  0  0  0  0  0  0  0  0  0  0
  137.8968   78.3824  218.5470 H   0  0  0  0  0  0  0  0  0  0  0  0
  138.8959   79.5555  219.4166 H   0  0  0  0  0  0  0  0  0  0  0  0
  139.6695   76.9094  218.1878 H   0  0  0  0  0  0  0  0  0  0  0  0
  140.6870   78.3038  218.4212 H   0  0  0  0  0  0  0  0  0  0  0  0
  141.0575   76.2812  220.1248 H   0  0  0  0  0  0  0  0  0  0  0  0
  141.5369   79.5369  219.5943 H   0  0  0  0  0  0  0  0  0  0  0  0
  142.6483   81.1008  221.1543 H   0  0  0  0  0  0  0  0  0  0  0  0
  141.8012   78.4418  224.3890 H   0  0  0  0  0  0  0  0  0  0  0  0
  140.6949   76.8876  222.8303 H   0  0  0  0  0  0  0  0  0  0  0  0
  139.1587   70.0566  222.4358 H   0  0  0  0  0  0  0  0  0  0  0  0
  138.8282   68.3198  224.1585 H   0  0  0  0  0  0  0  0  0  0  0  0
  139.1606   67.5441  226.4679 H   0  0  0  0  0  0  0  0  0  0  0  0
  140.0485   67.9009  228.7510 H   0  0  0  0  0  0  0  0  0  0  0  0
  141.2671   70.0376  229.2415 H   0  0  0  0  0  0  0  0  0  0  0  0
  141.5590   71.7308  227.4499 H   0  0  0  0  0  0  0  0  0  0  0  0
  1  2  2  0
  2  3  1  0
  3  4  1  0
  4  5  1  0
  5  6  2  0
  5  7  1  0
  7  8  1  0
  8  9  1  0
  9 10  1  0
 10 11  1  0
 11 12  1  0
 12 13  2  0
 13 14  1  0
 14 15  2  0
 15 16  1  0
 16 17  2  0
 16 18  1  0
 15 19  1  0
 19 20  2  0
  2 21  1  0
 21 22  2  0
 22 23  1  0
 23 24  2  0
 24 25  1  0
 25 26  2  0
 26 27  1  0
 27 28  2  0
 28 29  1  0
 29 30  2  0
 11  7  1  0
 20 12  1  0
 30 21  1  0
 29 24  1  0
  3 31  1  0
  4 32  1  0
  4 33  1  0
  8 34  1  0
  8 35  1  0
  9 36  1  0
  9 37  1  0
 10 38  1  0
 10 39  1  0
 11 40  1  6
 13 41  1  0
 14 42  1  0
 19 43  1  0
 20 44  1  0
 22 45  1  0
 23 46  1  0
 25 47  1  0
 26 48  1  0
 27 49  1  0
 28 50  1  0
M  CHG  2  16   1  18  -1
M  END
>  <smiles>  (82) 
O=C(NCC(=O)N1CCCC1c1ccc([N+](=O)[O-])cc1)c1ccc2ccccc2n1

>  <score_type>  (82) 
oracle

>  <origin>  (82) 
autodockgpu

>  <m_score__min__energy>  (82) 
-9.4499999999999993

>  <m_primary>  (82) 
energy

>  <rmsd>  (82) 
2.0049133637739787

>  <m_score__min__rmsd>  (82) 
2.0049133637739787

>  <meeko>  (82) 
{"free_energy": -8.63, "intermolecular_energy": -10.42, "internal_energy": -1.7, "cluster_size": 8, "cluster_id": 1, "rank_in_cluster": 7}

>  <energy>  (82) 
-8.95

>  <cluster_rmsd>  (82) 
0.79

>  <cluster>  (82) 
2

$$$$

     RDKit          3D

 50 53  0  0  0  0  0  0  0  0999 V2000
  140.2720   71.4430  221.2850 O   0  0  0  0  0  0  0  0  0  0  0  0
  139.7160   71.8910  222.3430 C   0  0  0  0  0  0  0  0  0  0  0  0
  138.9130   73.0610  222.2420 N   0  0  0  0  0  0  0  0  0  0  0  0
  138.7840   73.6620  220.9330 C   0  0  0  0  0  0  0  0  0  0  0  0
  138.6910   75.1400  221.0140 C   0  0  0  0  0  0  0  0  0  0  0  0
  137.5880   75.7430  220.9720 O   0  0  0  0  0  0  0  0  0  0  0  0
  139.8560   75.9370  221.1450 N   0  0  0  0  0  0  0  0  0  0  0  0
  140.4160   76.5450  222.3600 C   0  0  0  0  0  0  0  0  0  0  0  0
  141.0880   77.8330  221.9120 C   0  0  0  0  0  0  0  0  0  0  0  0
  141.0040   77.8350  220.3990 C   0  0  0  0  0  0  0  0  0  0  0  0
  140.7990   76.3640  220.1020 C   0  0  1  0  0  0  0  0  0  0  0  0
  142.0600   75.6120  220.2030 C   0  0  0  0  0  0  0  0  0  0  0  0
  143.3100   76.0740  219.9480 C   0  0  0  0  0  0  0  0  0  0  0  0
  144.4520   75.2730  220.0850 C   0  0  0  0  0  0  0  0  0  0  0  0
  144.3510   73.9590  220.4920 C   0  0  0  0  0  0  0  0  0  0  0  0
  145.5310   73.1760  220.6190 N   0  0  0  0  0  4  0  0  0  0  0  0
  146.0920   73.0690  221.7300 O   0  0  0  0  0  0  0  0  0  0  0  0
  146.0810   72.5170  219.5260 O   0  0  0  0  0  1  0  0  0  0  0  0
  143.0860   73.4800  220.7530 C   0  0  0  0  0  0  0  0  0  0  0  0
  141.9580   74.2770  220.6160 C   0  0  0  0  0  0  0  0  0  0  0  0
  139.8950   71.2260  223.6320 C   0  0  0  0  0  0  0  0  0  0  0  0
  139.5460   69.8830  223.7270 C   0  0  0  0  0  0  0  0  0  0  0  0
  139.6960   69.2120  224.9210 C   0  0  0  0  0  0  0  0  0  0  0  0
  140.1910   69.8510  226.0370 C   0  0  0  0  0  0  0  0  0  0  0  0
  140.3620   69.2260  227.2570 C   0  0  0  0  0  0  0  0  0  0  0  0
  140.8600   69.8800  228.3640 C   0  0  0  0  0  0  0  0  0  0  0  0
  141.1960   71.2200  228.2260 C   0  0  0  0  0  0  0  0  0  0  0  0
  141.0260   71.8540  226.9950 C   0  0  0  0  0  0  0  0  0  0  0  0
  140.5260   71.1840  225.8950 C   0  0  0  0  0  0  0  0  0  0  0  0
  140.3790   71.8470  224.7200 N   0  0  0  0  0  0  0  0  0  0  0  0
  138.4310   73.4720  223.0950 H   0  0  0  0  0  0  0  0  0  0  0  0
  139.6631   73.3928  220.3291 H   0  0  0  0  0  0  0  0  0  0  0  0
  137.8587   73.2852  220.4727 H   0  0  0  0  0  0  0  0  0  0  0  0
  139.6155   76.7627  223.0824 H   0  0  0  0  0  0  0  0  0  0  0  0
  141.1286   75.8702  222.8568 H   0  0  0  0  0  0  0  0  0  0  0  0
  140.5607   78.7049  222.3265 H   0  0  0  0  0  0  0  0  0  0  0  0
  142.1297   77.8898  222.2607 H   0  0  0  0  0  0  0  0  0  0  0  0
  140.1547   78.4379  220.0452 H   0  0  0  0  0  0  0  0  0  0  0  0
  141.8829   78.2728  219.9031 H   0  0  0  0  0  0  0  0  0  0  0  0
  140.4316   76.1862  219.0805 H   0  0  0  0  0  0  0  0  0  0  0  0
  143.4318   77.1172  219.6212 H   0  0  0  0  0  0  0  0  0  0  0  0
  145.4424   75.6981  219.8649 H   0  0  0  0  0  0  0  0  0  0  0  0
  142.9665   72.4363  221.0792 H   0  0  0  0  0  0  0  0  0  0  0  0
  140.9669   73.8533  220.8354 H   0  0  0  0  0  0  0  0  0  0  0  0
  139.1494   69.3554  222.8470 H   0  0  0  0  0  0  0  0  0  0  0  0
  139.4163   68.1500  224.9843 H   0  0  0  0  0  0  0  0  0  0  0  0
  140.0900   68.1641  227.3490 H   0  0  0  0  0  0  0  0  0  0  0  0
  140.9868   69.3578  229.3238 H   0  0  0  0  0  0  0  0  0  0  0  0
  141.5950   71.7800  229.0846 H   0  0  0  0  0  0  0  0  0  0  0  0
  141.2973   72.9156  226.8975 H   0  0  0  0  0  0  0  0  0  0  0  0
  1  2  2  0
  2  3  1  0
  3  4  1  0
  4  5  1  0
  5  6  2  0
  5  7  1  0
  7  8  1  0
  8  9  1  0
  9 10  1  0
 10 11  1  0
 11 12  1  0
 12 13  2  0
 13 14  1  0
 14 15  2  0
 15 16  1  0
 16 17  2  0
 16 18  1  0
 15 19  1  0
 19 20  2  0
  2 21  1  0
 21 22  2  0
 22 23  1  0
 23 24  2  0
 24 25  1  0
 25 26  2  0
 26 27  1  0
 27 28  2  0
 28 29  1  0
 29 30  2  0
 11  7  1  0
 20 12  1  0
 30 21  1  0
 29 24  1  0
  3 31  1  0
  4 32  1  0
  4 33  1  0
  8 34  1  0
  8 35  1  0
  9 36  1  0
  9 37  1  0
 10 38  1  0
 10 39  1  0
 11 40  1  6
 13 41  1  0
 14 42  1  0
 19 43  1  0
 20 44  1  0
 22 45  1  0
 23 46  1  0
 25 47  1  0
 26 48  1  0
 27 49  1  0
 28 50  1  0
M  CHG  2  16   1  18  -1
M  END
>  <smiles>  (83) 
O=C(NCC(=O)N1CCCC1c1ccc([N+](=O)[O-])cc1)c1ccc2ccccc2n1

>  <score_type>  (83) 
oracle

>  <origin>  (83) 
autodockgpu

>  <m_score__min__energy>  (83) 
-9.4499999999999993

>  <m_primary>  (83) 
energy

>  <rmsd>  (83) 
2.310288097997192

>  <m_score__min__rmsd>  (83) 
2.310288097997192

>  <meeko>  (83) 
{"free_energy": -9.25, "intermolecular_energy": -11.04, "internal_energy": -1.74, "cluster_size": 37, "cluster_id": 2, "rank_in_cluster": 7}

>  <energy>  (83) 
-8.95

>  <cluster_rmsd>  (83) 
0.9

>  <cluster>  (83) 
2

$$$$

     RDKit          3D

 50 53  0  0  0  0  0  0  0  0999 V2000
  141.1030   71.6140  221.8130 O   0  0  0  0  0  0  0  0  0  0  0  0
  140.2130   71.8230  222.7040 C   0  0  0  0  0  0  0  0  0  0  0  0
  139.1520   72.7210  222.4030 N   0  0  0  0  0  0  0  0  0  0  0  0
  139.1590   73.3370  221.0930 C   0  0  0  0  0  0  0  0  0  0  0  0
  139.9150   74.6130  221.0910 C   0  0  0  0  0  0  0  0  0  0  0  0
  141.1040   74.6830  220.6850 O   0  0  0  0  0  0  0  0  0  0  0  0
  139.3190   75.8130  221.5520 N   0  0  0  0  0  0  0  0  0  0  0  0
  138.4810   76.0190  222.7410 C   0  0  0  0  0  0  0  0  0  0  0  0
  137.5110   77.1330  222.3820 C   0  0  0  0  0  0  0  0  0  0  0  0
  137.9430   77.6280  221.0160 C   0  0  0  0  0  0  0  0  0  0  0  0
  139.3800   77.1570  220.9600 C   0  0  1  0  0  0  0  0  0  0  0  0
  140.2660   78.0300  221.7460 C   0  0  0  0  0  0  0  0  0  0  0  0
  141.0640   77.6660  222.7810 C   0  0  0  0  0  0  0  0  0  0  0  0
  141.8810   78.5790  223.4610 C   0  0  0  0  0  0  0  0  0  0  0  0
  141.9080   79.9100  223.1010 C   0  0  0  0  0  0  0  0  0  0  0  0
  142.7480   80.8090  223.8130 N   0  0  0  0  0  4  0  0  0  0  0  0
  143.9860   80.6430  223.8080 O   0  0  0  0  0  0  0  0  0  0  0  0
  142.2200   81.8810  224.5240 O   0  0  0  0  0  1  0  0  0  0  0  0
  141.1010   80.2910  222.0510 C   0  0  0  0  0  0  0  0  0  0  0  0
  140.2940   79.3820  221.3800 C   0  0  0  0  0  0  0  0  0  0  0  0
  140.2740   71.1620  224.0060 C   0  0  0  0  0  0  0  0  0  0  0  0
  140.7750   71.8870  225.0820 C   0  0  0  0  0  0  0  0  0  0  0  0
  140.8530   71.3080  226.3300 C   0  0  0  0  0  0  0  0  0  0  0  0
  140.4400   70.0090  226.5360 C   0  0  0  0  0  0  0  0  0  0  0  0
  140.4950   69.3810  227.7650 C   0  0  0  0  0  0  0  0  0  0  0  0
  140.0790   68.0800  227.9550 C   0  0  0  0  0  0  0  0  0  0  0  0
  139.5860   67.3920  226.8550 C   0  0  0  0  0  0  0  0  0  0  0  0
  139.5270   68.0240  225.6120 C   0  0  0  0  0  0  0  0  0  0  0  0
  139.9500   69.3290  225.4390 C   0  0  0  0  0  0  0  0  0  0  0  0
  139.8720   69.8970  224.2090 N   0  0  0  0  0  0  0  0  0  0  0  0
  138.3880   72.9280  223.1110 H   0  0  0  0  0  0  0  0  0  0  0  0
  139.6254   72.6451  220.3762 H   0  0  0  0  0  0  0  0  0  0  0  0
  138.1183   73.5545  220.8107 H   0  0  0  0  0  0  0  0  0  0  0  0
  137.9316   75.0979  222.9857 H   0  0  0  0  0  0  0  0  0  0  0  0
  139.0872   76.2806  223.6208 H   0  0  0  0  0  0  0  0  0  0  0  0
  136.4816   76.7474  222.3424 H   0  0  0  0  0  0  0  0  0  0  0  0
  137.5246   77.9400  223.1294 H   0  0  0  0  0  0  0  0  0  0  0  0
  137.3405   77.1735  220.2157 H   0  0  0  0  0  0  0  0  0  0  0  0
  137.8224   78.7122  220.8750 H   0  0  0  0  0  0  0  0  0  0  0  0
  139.7879   77.1673  219.9385 H   0  0  0  0  0  0  0  0  0  0  0  0
  141.0699   76.6129  223.0988 H   0  0  0  0  0  0  0  0  0  0  0  0
  142.5094   78.2293  224.2933 H   0  0  0  0  0  0  0  0  0  0  0  0
  141.0960   81.3448  221.7356 H   0  0  0  0  0  0  0  0  0  0  0  0
  139.6658   79.7294  220.5466 H   0  0  0  0  0  0  0  0  0  0  0  0
  141.1096   72.9247  224.9365 H   0  0  0  0  0  0  0  0  0  0  0  0
  141.2505   71.8907  227.1740 H   0  0  0  0  0  0  0  0  0  0  0  0
  140.8864   69.9412  228.6270 H   0  0  0  0  0  0  0  0  0  0  0  0
  140.1360   67.6036  228.9449 H   0  0  0  0  0  0  0  0  0  0  0  0
  139.2430   66.3524  226.9625 H   0  0  0  0  0  0  0  0  0  0  0  0
  139.1337   67.4694  224.7473 H   0  0  0  0  0  0  0  0  0  0  0  0
  1  2  2  0
  2  3  1  0
  3  4  1  0
  4  5  1  0
  5  6  2  0
  5  7  1  0
  7  8  1  0
  8  9  1  0
  9 10  1  0
 10 11  1  0
 11 12  1  0
 12 13  2  0
 13 14  1  0
 14 15  2  0
 15 16  1  0
 16 17  2  0
 16 18  1  0
 15 19  1  0
 19 20  2  0
  2 21  1  0
 21 22  2  0
 22 23  1  0
 23 24  2  0
 24 25  1  0
 25 26  2  0
 26 27  1  0
 27 28  2  0
 28 29  1  0
 29 30  2  0
 11  7  1  0
 20 12  1  0
 30 21  1  0
 29 24  1  0
  3 31  1  0
  4 32  1  0
  4 33  1  0
  8 34  1  0
  8 35  1  0
  9 36  1  0
  9 37  1  0
 10 38  1  0
 10 39  1  0
 11 40  1  6
 13 41  1  0
 14 42  1  0
 19 43  1  0
 20 44  1  0
 22 45  1  0
 23 46  1  0
 25 47  1  0
 26 48  1  0
 27 49  1  0
 28 50  1  0
M  CHG  2  16   1  18  -1
M  END
>  <smiles>  (84) 
O=C(NCC(=O)N1CCCC1c1ccc([N+](=O)[O-])cc1)c1ccc2ccccc2n1

>  <score_type>  (84) 
oracle

>  <origin>  (84) 
autodockgpu

>  <m_score__min__energy>  (84) 
-9.4499999999999993

>  <m_primary>  (84) 
energy

>  <rmsd>  (84) 
3.417703769518972

>  <m_score__min__rmsd>  (84) 
3.417703769518972

>  <meeko>  (84) 
{"free_energy": -8.88, "intermolecular_energy": -10.67, "internal_energy": -1.36, "cluster_size": 8, "cluster_id": 1, "rank_in_cluster": 3}

>  <energy>  (84) 
-8.88

>  <cluster_rmsd>  (84) 
0.95

>  <cluster>  (84) 
2

$$$$

     RDKit          3D

 50 53  0  0  0  0  0  0  0  0999 V2000
  139.7740   70.4980  221.4640 O   0  0  0  0  0  0  0  0  0  0  0  0
  139.5510   71.3040  222.4280 C   0  0  0  0  0  0  0  0  0  0  0  0
  138.9230   72.5470  222.1410 N   0  0  0  0  0  0  0  0  0  0  0  0
  138.5790   72.8090  220.7600 C   0  0  0  0  0  0  0  0  0  0  0  0
  138.5140   74.2640  220.4770 C   0  0  0  0  0  0  0  0  0  0  0  0
  137.5530   74.7790  219.8520 O   0  0  0  0  0  0  0  0  0  0  0  0
  139.5460   75.1350  220.9070 N   0  0  0  0  0  0  0  0  0  0  0  0
  139.9310   75.4880  222.2800 C   0  0  0  0  0  0  0  0  0  0  0  0
  140.4470   76.9170  222.2170 C   0  0  0  0  0  0  0  0  0  0  0  0
  140.4680   77.2800  220.7450 C   0  0  0  0  0  0  0  0  0  0  0  0
  140.4900   75.9140  220.0930 C   0  0  1  0  0  0  0  0  0  0  0  0
  141.8330   75.3140  220.1410 C   0  0  0  0  0  0  0  0  0  0  0  0
  143.0190   75.9500  219.9670 C   0  0  0  0  0  0  0  0  0  0  0  0
  144.2490   75.2830  220.0420 C   0  0  0  0  0  0  0  0  0  0  0  0
  144.3080   73.9300  220.3000 C   0  0  0  0  0  0  0  0  0  0  0  0
  145.5740   73.2870  220.3690 N   0  0  0  0  0  4  0  0  0  0  0  0
  146.0450   72.7250  219.3580 O   0  0  0  0  0  0  0  0  0  0  0  0
  146.3090   73.2660  221.5490 O   0  0  0  0  0  1  0  0  0  0  0  0
  143.1090   73.2740  220.4780 C   0  0  0  0  0  0  0  0  0  0  0  0
  141.8920   73.9390  220.4030 C   0  0  0  0  0  0  0  0  0  0  0  0
  139.9290   70.9660  223.7990 C   0  0  0  0  0  0  0  0  0  0  0  0
  140.6850   71.8910  224.5140 C   0  0  0  0  0  0  0  0  0  0  0  0
  141.0660   71.6190  225.8100 C   0  0  0  0  0  0  0  0  0  0  0  0
  140.7100   70.4360  226.4210 C   0  0  0  0  0  0  0  0  0  0  0  0
  141.0640   70.1140  227.7160 C   0  0  0  0  0  0  0  0  0  0  0  0
  140.7000   68.9260  228.3130 C   0  0  0  0  0  0  0  0  0  0  0  0
  139.9470   68.0310  227.5660 C   0  0  0  0  0  0  0  0  0  0  0  0
  139.5850   68.3530  226.2570 C   0  0  0  0  0  0  0  0  0  0  0  0
  139.9590   69.5490  225.6730 C   0  0  0  0  0  0  0  0  0  0  0  0
  139.5830   69.8150  224.3970 N   0  0  0  0  0  0  0  0  0  0  0  0
  138.7180   73.2510  222.9100 H   0  0  0  0  0  0  0  0  0  0  0  0
  139.3406   72.3532  220.1103 H   0  0  0  0  0  0  0  0  0  0  0  0
  137.5859   72.3774  220.5662 H   0  0  0  0  0  0  0  0  0  0  0  0
  139.0602   75.4254  222.9491 H   0  0  0  0  0  0  0  0  0  0  0  0
  140.6948   74.8010  222.6732 H   0  0  0  0  0  0  0  0  0  0  0  0
  139.7763   77.5918  222.7691 H   0  0  0  0  0  0  0  0  0  0  0  0
  141.4439   77.0096  222.6727 H   0  0  0  0  0  0  0  0  0  0  0  0
  139.5697   77.8466  220.4588 H   0  0  0  0  0  0  0  0  0  0  0  0
  141.3098   77.9265  220.4562 H   0  0  0  0  0  0  0  0  0  0  0  0
  140.2219   75.9510  219.0268 H   0  0  0  0  0  0  0  0  0  0  0  0
  143.0147   77.0302  219.7592 H   0  0  0  0  0  0  0  0  0  0  0  0
  145.1814   75.8473  219.8928 H   0  0  0  0  0  0  0  0  0  0  0  0
  143.1161   72.1937  220.6852 H   0  0  0  0  0  0  0  0  0  0  0  0
  140.9585   73.3765  220.5519 H   0  0  0  0  0  0  0  0  0  0  0  0
  140.9787   72.8409  224.0434 H   0  0  0  0  0  0  0  0  0  0  0  0
  141.6633   72.3572  226.3653 H   0  0  0  0  0  0  0  0  0  0  0  0
  141.6606   70.8345  228.2948 H   0  0  0  0  0  0  0  0  0  0  0  0
  140.9964   68.6951  229.3468 H   0  0  0  0  0  0  0  0  0  0  0  0
  139.6365   67.0710  228.0041 H   0  0  0  0  0  0  0  0  0  0  0  0
  138.9867   67.6366  225.6750 H   0  0  0  0  0  0  0  0  0  0  0  0
  1  2  2  0
  2  3  1  0
  3  4  1  0
  4  5  1  0
  5  6  2  0
  5  7  1  0
  7  8  1  0
  8  9  1  0
  9 10  1  0
 10 11  1  0
 11 12  1  0
 12 13  2  0
 13 14  1  0
 14 15  2  0
 15 16  1  0
 16 17  2  0
 16 18  1  0
 15 19  1  0
 19 20  2  0
  2 21  1  0
 21 22  2  0
 22 23  1  0
 23 24  2  0
 24 25  1  0
 25 26  2  0
 26 27  1  0
 27 28  2  0
 28 29  1  0
 29 30  2  0
 11  7  1  0
 20 12  1  0
 30 21  1  0
 29 24  1  0
  3 31  1  0
  4 32  1  0
  4 33  1  0
  8 34  1  0
  8 35  1  0
  9 36  1  0
  9 37  1  0
 10 38  1  0
 10 39  1  0
 11 40  1  6
 13 41  1  0
 14 42  1  0
 19 43  1  0
 20 44  1  0
 22 45  1  0
 23 46  1  0
 25 47  1  0
 26 48  1  0
 27 49  1  0
 28 50  1  0
M  CHG  2  16   1  18  -1
M  END
>  <smiles>  (85) 
O=C(NCC(=O)N1CCCC1c1ccc([N+](=O)[O-])cc1)c1ccc2ccccc2n1

>  <score_type>  (85) 
oracle

>  <origin>  (85) 
autodockgpu

>  <m_score__min__energy>  (85) 
-9.4499999999999993

>  <m_primary>  (85) 
energy

>  <rmsd>  (85) 
3.125990209355166

>  <m_score__min__rmsd>  (85) 
3.125990209355166

>  <meeko>  (85) 
{"free_energy": -8.81, "intermolecular_energy": -10.6, "internal_energy": -1.67, "cluster_size": 37, "cluster_id": 2, "rank_in_cluster": 29}

>  <energy>  (85) 
-8.85

>  <cluster_rmsd>  (85) 
0.91

>  <cluster>  (85) 
2

$$$$

     RDKit          3D

 50 53  0  0  0  0  0  0  0  0999 V2000
  140.9610   72.7780  222.0340 O   0  0  0  0  0  0  0  0  0  0  0  0
  139.9120   72.5170  222.7110 C   0  0  0  0  0  0  0  0  0  0  0  0
  138.7090   73.2040  222.3870 N   0  0  0  0  0  0  0  0  0  0  0  0
  138.7650   74.1580  221.3010 C   0  0  0  0  0  0  0  0  0  0  0  0
  139.1150   75.5170  221.7810 C   0  0  0  0  0  0  0  0  0  0  0  0
  138.4700   76.0870  222.6970 O   0  0  0  0  0  0  0  0  0  0  0  0
  140.2020   76.2300  221.2170 N   0  0  0  0  0  0  0  0  0  0  0  0
  141.0680   77.2310  221.8560 C   0  0  0  0  0  0  0  0  0  0  0  0
  141.4720   78.1990  220.7560 C   0  0  0  0  0  0  0  0  0  0  0  0
  140.9210   77.6130  219.4710 C   0  0  0  0  0  0  0  0  0  0  0  0
  140.7400   76.1580  219.8510 C   0  0  1  0  0  0  0  0  0  0  0  0
  142.0210   75.4330  219.8360 C   0  0  0  0  0  0  0  0  0  0  0  0
  142.5430   74.6760  220.8330 C   0  0  0  0  0  0  0  0  0  0  0  0
  143.7730   74.0160  220.7140 C   0  0  0  0  0  0  0  0  0  0  0  0
  144.5180   74.1090  219.5560 C   0  0  0  0  0  0  0  0  0  0  0  0
  145.7610   73.4260  219.4690 N   0  0  0  0  0  4  0  0  0  0  0  0
  145.9460   72.5780  218.5720 O   0  0  0  0  0  0  0  0  0  0  0  0
  146.7900   73.6830  220.3690 O   0  0  0  0  0  1  0  0  0  0  0  0
  143.9960   74.8760  218.5370 C   0  0  0  0  0  0  0  0  0  0  0  0
  142.7770   75.5280  218.6600 C   0  0  0  0  0  0  0  0  0  0  0  0
  139.9340   71.5380  223.7960 C   0  0  0  0  0  0  0  0  0  0  0  0
  139.3900   70.2810  223.5520 C   0  0  0  0  0  0  0  0  0  0  0  0
  139.3880   69.3240  224.5440 C   0  0  0  0  0  0  0  0  0  0  0  0
  139.9200   69.5900  225.7870 C   0  0  0  0  0  0  0  0  0  0  0  0
  139.9430   68.6670  226.8150 C   0  0  0  0  0  0  0  0  0  0  0  0
  140.4790   68.9480  228.0540 C   0  0  0  0  0  0  0  0  0  0  0  0
  141.0110   70.2140  228.2560 C   0  0  0  0  0  0  0  0  0  0  0  0
  140.9900   71.1480  227.2200 C   0  0  0  0  0  0  0  0  0  0  0  0
  140.4490   70.8500  225.9830 C   0  0  0  0  0  0  0  0  0  0  0  0
  140.4520   71.7940  225.0080 N   0  0  0  0  0  0  0  0  0  0  0  0
  137.8090   73.0220  222.9230 H   0  0  0  0  0  0  0  0  0  0  0  0
  139.5249   73.8292  220.5767 H   0  0  0  0  0  0  0  0  0  0  0  0
  137.7698   74.2051  220.8348 H   0  0  0  0  0  0  0  0  0  0  0  0
  140.5194   77.7607  222.6488 H   0  0  0  0  0  0  0  0  0  0  0  0
  141.9468   76.7635  222.3240 H   0  0  0  0  0  0  0  0  0  0  0  0
  141.0383   79.1928  220.9413 H   0  0  0  0  0  0  0  0  0  0  0  0
  142.5635   78.3270  220.7085 H   0  0  0  0  0  0  0  0  0  0  0  0
  139.9627   78.0781  219.1965 H   0  0  0  0  0  0  0  0  0  0  0  0
  141.5680   77.7690  218.5952 H   0  0  0  0  0  0  0  0  0  0  0  0
  140.0867   75.6164  219.1511 H   0  0  0  0  0  0  0  0  0  0  0  0
  141.9785   74.5764  221.7718 H   0  0  0  0  0  0  0  0  0  0  0  0
  144.1501   73.4155  221.5550 H   0  0  0  0  0  0  0  0  0  0  0  0
  144.5619   74.9743  217.5989 H   0  0  0  0  0  0  0  0  0  0  0  0
  142.3980   76.1293  217.8204 H   0  0  0  0  0  0  0  0  0  0  0  0
  138.9608   70.0505  222.5658 H   0  0  0  0  0  0  0  0  0  0  0  0
  138.9554   68.3334  224.3404 H   0  0  0  0  0  0  0  0  0  0  0  0
  139.5168   67.6685  226.6380 H   0  0  0  0  0  0  0  0  0  0  0  0
  140.4848   68.1943  228.8552 H   0  0  0  0  0  0  0  0  0  0  0  0
  141.4478   70.4800  229.2299 H   0  0  0  0  0  0  0  0  0  0  0  0
  141.4151   72.1479  227.3918 H   0  0  0  0  0  0  0  0  0  0  0  0
  1  2  2  0
  2  3  1  0
  3  4  1  0
  4  5  1  0
  5  6  2  0
  5  7  1  0
  7  8  1  0
  8  9  1  0
  9 10  1  0
 10 11  1  0
 11 12  1  0
 12 13  2  0
 13 14  1  0
 14 15  2  0
 15 16  1  0
 16 17  2  0
 16 18  1  0
 15 19  1  0
 19 20  2  0
  2 21  1  0
 21 22  2  0
 22 23  1  0
 23 24  2  0
 24 25  1  0
 25 26  2  0
 26 27  1  0
 27 28  2  0
 28 29  1  0
 29 30  2  0
 11  7  1  0
 20 12  1  0
 30 21  1  0
 29 24  1  0
  3 31  1  0
  4 32  1  0
  4 33  1  0
  8 34  1  0
  8 35  1  0
  9 36  1  0
  9 37  1  0
 10 38  1  0
 10 39  1  0
 11 40  1  6
 13 41  1  0
 14 42  1  0
 19 43  1  0
 20 44  1  0
 22 45  1  0
 23 46  1  0
 25 47  1  0
 26 48  1  0
 27 49  1  0
 28 50  1  0
M  CHG  2  16   1  18  -1
M  END
>  <smiles>  (86) 
O=C(NCC(=O)N1CCCC1c1ccc([N+](=O)[O-])cc1)c1ccc2ccccc2n1

>  <score_type>  (86) 
oracle

>  <origin>  (86) 
autodockgpu

>  <m_score__min__energy>  (86) 
-9.4499999999999993

>  <m_primary>  (86) 
energy

>  <rmsd>  (86) 
2.229387720481533

>  <m_score__min__rmsd>  (86) 
2.229387720481533

>  <meeko>  (86) 
{"free_energy": -9.04, "intermolecular_energy": -10.83, "internal_energy": -1.58, "cluster_size": 37, "cluster_id": 2, "rank_in_cluster": 21}

>  <energy>  (86) 
-8.84

>  <cluster_rmsd>  (86) 
0.8

>  <cluster>  (86) 
2

$$$$

     RDKit          3D

 50 53  0  0  0  0  0  0  0  0999 V2000
  140.6940   73.0650  222.7180 O   0  0  0  0  0  0  0  0  0  0  0  0
  139.8340   72.1230  222.7730 C   0  0  0  0  0  0  0  0  0  0  0  0
  138.8760   72.0190  221.7270 N   0  0  0  0  0  0  0  0  0  0  0  0
  138.9470   72.9990  220.6650 C   0  0  0  0  0  0  0  0  0  0  0  0
  138.7020   74.3720  221.1690 C   0  0  0  0  0  0  0  0  0  0  0  0
  137.5810   74.7300  221.6110 O   0  0  0  0  0  0  0  0  0  0  0  0
  139.7350   75.3420  221.1690 N   0  0  0  0  0  0  0  0  0  0  0  0
  140.2510   76.1270  222.2990 C   0  0  0  0  0  0  0  0  0  0  0  0
  140.6950   77.4590  221.7160 C   0  0  0  0  0  0  0  0  0  0  0  0
  140.5410   77.3210  220.2150 C   0  0  0  0  0  0  0  0  0  0  0  0
  140.5520   75.8170  220.0430 C   0  0  1  0  0  0  0  0  0  0  0  0
  141.9170   75.2730  220.1270 C   0  0  0  0  0  0  0  0  0  0  0  0
  143.0790   75.9550  219.9690 C   0  0  0  0  0  0  0  0  0  0  0  0
  144.3340   75.3410  220.0790 C   0  0  0  0  0  0  0  0  0  0  0  0
  144.4430   73.9940  220.3570 C   0  0  0  0  0  0  0  0  0  0  0  0
  145.7310   73.4040  220.4610 N   0  0  0  0  0  4  0  0  0  0  0  0
  146.3560   73.4540  221.5410 O   0  0  0  0  0  0  0  0  0  0  0  0
  146.3220   72.7650  219.3770 O   0  0  0  0  0  1  0  0  0  0  0  0
  143.2680   73.2920  220.5190 C   0  0  0  0  0  0  0  0  0  0  0  0
  142.0270   73.9050  220.4090 C   0  0  0  0  0  0  0  0  0  0  0  0
  139.8260   71.1700  223.8810 C   0  0  0  0  0  0  0  0  0  0  0  0
  139.1500   69.9680  223.7020 C   0  0  0  0  0  0  0  0  0  0  0  0
  139.1130   69.0360  224.7160 C   0  0  0  0  0  0  0  0  0  0  0  0
  139.7410   69.2740  225.9200 C   0  0  0  0  0  0  0  0  0  0  0  0
  139.7360   68.3750  226.9690 C   0  0  0  0  0  0  0  0  0  0  0  0
  140.3700   68.6270  228.1670 C   0  0  0  0  0  0  0  0  0  0  0  0
  141.0340   69.8390  228.3050 C   0  0  0  0  0  0  0  0  0  0  0  0
  141.0420   70.7480  227.2470 C   0  0  0  0  0  0  0  0  0  0  0  0
  140.4010   70.4800  226.0520 C   0  0  0  0  0  0  0  0  0  0  0  0
  140.4390   71.3980  225.0540 N   0  0  0  0  0  0  0  0  0  0  0  0
  138.1400   71.2520  221.7300 H   0  0  0  0  0  0  0  0  0  0  0  0
  139.9476   72.9596  220.2097 H   0  0  0  0  0  0  0  0  0  0  0  0
  138.1681   72.7608  219.9257 H   0  0  0  0  0  0  0  0  0  0  0  0
  139.4613   76.2822  223.0488 H   0  0  0  0  0  0  0  0  0  0  0  0
  141.0817   75.6106  222.8023 H   0  0  0  0  0  0  0  0  0  0  0  0
  140.0597   78.2738  222.0935 H   0  0  0  0  0  0  0  0  0  0  0  0
  141.7306   77.7005  221.9975 H   0  0  0  0  0  0  0  0  0  0  0  0
  139.5931   77.7575  219.8672 H   0  0  0  0  0  0  0  0  0  0  0  0
  141.3176   77.8426  219.6364 H   0  0  0  0  0  0  0  0  0  0  0  0
  140.1699   75.5016  219.0609 H   0  0  0  0  0  0  0  0  0  0  0  0
  143.0345   77.0312  219.7460 H   0  0  0  0  0  0  0  0  0  0  0  0
  145.2452   75.9417  219.9417 H   0  0  0  0  0  0  0  0  0  0  0  0
  143.3147   72.2158  220.7417 H   0  0  0  0  0  0  0  0  0  0  0  0
  141.1144   73.3062  220.5456 H   0  0  0  0  0  0  0  0  0  0  0  0
  138.6433   69.7607  222.7479 H   0  0  0  0  0  0  0  0  0  0  0  0
  138.5750   68.0889  224.5628 H   0  0  0  0  0  0  0  0  0  0  0  0
  139.2049   67.4199  226.8433 H   0  0  0  0  0  0  0  0  0  0  0  0
  140.3506   67.8929  228.9860 H   0  0  0  0  0  0  0  0  0  0  0  0
  141.5516   70.0812  229.2449 H   0  0  0  0  0  0  0  0  0  0  0  0
  141.5728   71.7040  227.3669 H   0  0  0  0  0  0  0  0  0  0  0  0
  1  2  2  0
  2  3  1  0
  3  4  1  0
  4  5  1  0
  5  6  2  0
  5  7  1  0
  7  8  1  0
  8  9  1  0
  9 10  1  0
 10 11  1  0
 11 12  1  0
 12 13  2  0
 13 14  1  0
 14 15  2  0
 15 16  1  0
 16 17  2  0
 16 18  1  0
 15 19  1  0
 19 20  2  0
  2 21  1  0
 21 22  2  0
 22 23  1  0
 23 24  2  0
 24 25  1  0
 25 26  2  0
 26 27  1  0
 27 28  2  0
 28 29  1  0
 29 30  2  0
 11  7  1  0
 20 12  1  0
 30 21  1  0
 29 24  1  0
  3 31  1  0
  4 32  1  0
  4 33  1  0
  8 34  1  0
  8 35  1  0
  9 36  1  0
  9 37  1  0
 10 38  1  0
 10 39  1  0
 11 40  1  6
 13 41  1  0
 14 42  1  0
 19 43  1  0
 20 44  1  0
 22 45  1  0
 23 46  1  0
 25 47  1  0
 26 48  1  0
 27 49  1  0
 28 50  1  0
M  CHG  2  16   1  18  -1
M  END
>  <smiles>  (87) 
O=C(NCC(=O)N1CCCC1c1ccc([N+](=O)[O-])cc1)c1ccc2ccccc2n1

>  <score_type>  (87) 
oracle

>  <origin>  (87) 
autodockgpu

>  <m_score__min__energy>  (87) 
-9.4499999999999993

>  <m_primary>  (87) 
energy

>  <rmsd>  (87) 
2.305538072802965

>  <m_score__min__rmsd>  (87) 
2.305538072802965

>  <meeko>  (87) 
{"free_energy": -9.14, "intermolecular_energy": -10.93, "internal_energy": -1.63, "cluster_size": 37, "cluster_id": 2, "rank_in_cluster": 16}

>  <energy>  (87) 
-8.81

>  <cluster_rmsd>  (87) 
0.98

>  <cluster>  (87) 
2

$$$$

     RDKit          3D

 50 53  0  0  0  0  0  0  0  0999 V2000
  138.5330   70.7550  221.5620 O   0  0  0  0  0  0  0  0  0  0  0  0
  139.0050   71.4370  222.5310 C   0  0  0  0  0  0  0  0  0  0  0  0
  139.1410   72.8440  222.3670 N   0  0  0  0  0  0  0  0  0  0  0  0
  138.7270   73.4030  221.0980 C   0  0  0  0  0  0  0  0  0  0  0  0
  138.6430   74.8830  221.1520 C   0  0  0  0  0  0  0  0  0  0  0  0
  137.5410   75.4890  221.1600 O   0  0  0  0  0  0  0  0  0  0  0  0
  139.8160   75.6770  221.1980 N   0  0  0  0  0  0  0  0  0  0  0  0
  140.3980   76.3820  222.3480 C   0  0  0  0  0  0  0  0  0  0  0  0
  141.0730   77.6220  221.7820 C   0  0  0  0  0  0  0  0  0  0  0  0
  140.9670   77.4950  220.2760 C   0  0  0  0  0  0  0  0  0  0  0  0
  140.7470   76.0060  220.1090 C   0  0  1  0  0  0  0  0  0  0  0  0
  142.0040   75.2540  220.2570 C   0  0  0  0  0  0  0  0  0  0  0  0
  142.1400   73.9530  220.6150 C   0  0  0  0  0  0  0  0  0  0  0  0
  143.3890   73.3270  220.7190 C   0  0  0  0  0  0  0  0  0  0  0  0
  144.5530   74.0190  220.4570 C   0  0  0  0  0  0  0  0  0  0  0  0
  145.8030   73.3520  220.5720 N   0  0  0  0  0  4  0  0  0  0  0  0
  146.2870   72.7590  219.5850 O   0  0  0  0  0  0  0  0  0  0  0  0
  146.5080   73.3420  221.7700 O   0  0  0  0  0  1  0  0  0  0  0  0
  144.4260   75.3410  220.0920 C   0  0  0  0  0  0  0  0  0  0  0  0
  143.1860   75.9580  219.9910 C   0  0  0  0  0  0  0  0  0  0  0  0
  139.4010   70.7980  223.7850 C   0  0  0  0  0  0  0  0  0  0  0  0
  139.2210   69.4240  223.9020 C   0  0  0  0  0  0  0  0  0  0  0  0
  139.5790   68.7750  225.0630 C   0  0  0  0  0  0  0  0  0  0  0  0
  140.1180   69.4690  226.1260 C   0  0  0  0  0  0  0  0  0  0  0  0
  140.4940   68.8680  227.3110 C   0  0  0  0  0  0  0  0  0  0  0  0
  141.0330   69.5760  228.3650 C   0  0  0  0  0  0  0  0  0  0  0  0
  141.1960   70.9460  228.2080 C   0  0  0  0  0  0  0  0  0  0  0  0
  140.8180   71.5550  227.0110 C   0  0  0  0  0  0  0  0  0  0  0  0
  140.2790   70.8310  225.9640 C   0  0  0  0  0  0  0  0  0  0  0  0
  139.9280   71.4720  224.8210 N   0  0  0  0  0  0  0  0  0  0  0  0
  139.5290   73.4540  223.1450 H   0  0  0  0  0  0  0  0  0  0  0  0
  139.4565   73.1152  220.3267 H   0  0  0  0  0  0  0  0  0  0  0  0
  137.7270   73.0111  220.8604 H   0  0  0  0  0  0  0  0  0  0  0  0
  139.6097   76.6674  223.0602 H   0  0  0  0  0  0  0  0  0  0  0  0
  141.1131   75.7462  222.8905 H   0  0  0  0  0  0  0  0  0  0  0  0
  140.5580   78.5305  222.1275 H   0  0  0  0  0  0  0  0  0  0  0  0
  142.1200   77.7000  222.1102 H   0  0  0  0  0  0  0  0  0  0  0  0
  140.1170   78.0726  219.8836 H   0  0  0  0  0  0  0  0  0  0  0  0
  141.8418   77.8812  219.7323 H   0  0  0  0  0  0  0  0  0  0  0  0
  140.3636   75.7454  219.1115 H   0  0  0  0  0  0  0  0  0  0  0  0
  141.2349   73.3668  220.8321 H   0  0  0  0  0  0  0  0  0  0  0  0
  143.4421   72.2686  221.0138 H   0  0  0  0  0  0  0  0  0  0  0  0
  145.3326   75.9247  219.8743 H   0  0  0  0  0  0  0  0  0  0  0  0
  143.1308   77.0167  219.6974 H   0  0  0  0  0  0  0  0  0  0  0  0
  138.7915   68.8539  223.0650 H   0  0  0  0  0  0  0  0  0  0  0  0
  139.4329   67.6877  225.1435 H   0  0  0  0  0  0  0  0  0  0  0  0
  140.3583   67.7817  227.4187 H   0  0  0  0  0  0  0  0  0  0  0  0
  141.3239   69.0722  229.2986 H   0  0  0  0  0  0  0  0  0  0  0  0
  141.6214   71.5487  229.0240 H   0  0  0  0  0  0  0  0  0  0  0  0
  140.9525   72.6408  226.8973 H   0  0  0  0  0  0  0  0  0  0  0  0
  1  2  2  0
  2  3  1  0
  3  4  1  0
  4  5  1  0
  5  6  2  0
  5  7  1  0
  7  8  1  0
  8  9  1  0
  9 10  1  0
 10 11  1  0
 11 12  1  0
 12 13  2  0
 13 14  1  0
 14 15  2  0
 15 16  1  0
 16 17  2  0
 16 18  1  0
 15 19  1  0
 19 20  2  0
  2 21  1  0
 21 22  2  0
 22 23  1  0
 23 24  2  0
 24 25  1  0
 25 26  2  0
 26 27  1  0
 27 28  2  0
 28 29  1  0
 29 30  2  0
 11  7  1  0
 20 12  1  0
 30 21  1  0
 29 24  1  0
  3 31  1  0
  4 32  1  0
  4 33  1  0
  8 34  1  0
  8 35  1  0
  9 36  1  0
  9 37  1  0
 10 38  1  0
 10 39  1  0
 11 40  1  6
 13 41  1  0
 14 42  1  0
 19 43  1  0
 20 44  1  0
 22 45  1  0
 23 46  1  0
 25 47  1  0
 26 48  1  0
 27 49  1  0
 28 50  1  0
M  CHG  2  16   1  18  -1
M  END
>  <smiles>  (88) 
O=C(NCC(=O)N1CCCC1c1ccc([N+](=O)[O-])cc1)c1ccc2ccccc2n1

>  <score_type>  (88) 
oracle

>  <origin>  (88) 
autodockgpu

>  <m_score__min__energy>  (88) 
-9.4499999999999993

>  <m_primary>  (88) 
energy

>  <rmsd>  (88) 
2.222072615678792

>  <m_score__min__rmsd>  (88) 
2.222072615678792

>  <meeko>  (88) 
{"free_energy": -9.18, "intermolecular_energy": -10.97, "internal_energy": -1.69, "cluster_size": 37, "cluster_id": 2, "rank_in_cluster": 11}

>  <energy>  (88) 
-8.81

>  <cluster_rmsd>  (88) 
0.97

>  <cluster>  (88) 
2

$$$$

     RDKit          3D

 50 53  0  0  0  0  0  0  0  0999 V2000
  140.7410   72.0790  222.0740 O   0  0  0  0  0  0  0  0  0  0  0  0
  139.7340   71.9250  222.8430 C   0  0  0  0  0  0  0  0  0  0  0  0
  138.5750   72.7160  222.6080 N   0  0  0  0  0  0  0  0  0  0  0  0
  138.6240   73.6470  221.5020 C   0  0  0  0  0  0  0  0  0  0  0  0
  138.6830   75.0530  221.9700 C   0  0  0  0  0  0  0  0  0  0  0  0
  137.7690   75.5620  222.6680 O   0  0  0  0  0  0  0  0  0  0  0  0
  139.7840   75.8830  221.6440 N   0  0  0  0  0  0  0  0  0  0  0  0
  140.5460   76.7790  222.5260 C   0  0  0  0  0  0  0  0  0  0  0  0
  141.0040   77.9360  221.6530 C   0  0  0  0  0  0  0  0  0  0  0  0
  140.5960   77.5700  220.2400 C   0  0  0  0  0  0  0  0  0  0  0  0
  140.4450   76.0670  220.3440 C   0  0  1  0  0  0  0  0  0  0  0  0
  141.7520   75.3900  220.3270 C   0  0  0  0  0  0  0  0  0  0  0  0
  142.0450   74.1660  220.8330 C   0  0  0  0  0  0  0  0  0  0  0  0
  143.3270   73.6050  220.7560 C   0  0  0  0  0  0  0  0  0  0  0  0
  144.3630   74.2860  220.1520 C   0  0  0  0  0  0  0  0  0  0  0  0
  145.6510   73.6880  220.0920 N   0  0  0  0  0  4  0  0  0  0  0  0
  146.3930   73.7010  221.0960 O   0  0  0  0  0  0  0  0  0  0  0  0
  146.1100   73.0800  218.9290 O   0  0  0  0  0  1  0  0  0  0  0  0
  144.0760   75.5310  219.6350 C   0  0  0  0  0  0  0  0  0  0  0  0
  142.8040   76.0820  219.7130 C   0  0  0  0  0  0  0  0  0  0  0  0
  139.7600   70.9610  223.9420 C   0  0  0  0  0  0  0  0  0  0  0  0
  139.0820   69.7590  223.7710 C   0  0  0  0  0  0  0  0  0  0  0  0
  139.0770   68.8180  224.7780 C   0  0  0  0  0  0  0  0  0  0  0  0
  139.7390   69.0470  225.9660 C   0  0  0  0  0  0  0  0  0  0  0  0
  139.7670   68.1380  227.0060 C   0  0  0  0  0  0  0  0  0  0  0  0
  140.4330   68.3820  228.1880 C   0  0  0  0  0  0  0  0  0  0  0  0
  141.0980   69.5940  228.3170 C   0  0  0  0  0  0  0  0  0  0  0  0
  141.0720   70.5140  227.2680 C   0  0  0  0  0  0  0  0  0  0  0  0
  140.3990   70.2540  226.0890 C   0  0  0  0  0  0  0  0  0  0  0  0
  140.4050   71.1810  225.0990 N   0  0  0  0  0  0  0  0  0  0  0  0
  137.7120   72.6240  223.2210 H   0  0  0  0  0  0  0  0  0  0  0  0
  139.5179   73.4350  220.8970 H   0  0  0  0  0  0  0  0  0  0  0  0
  137.7067   73.5218  220.9079 H   0  0  0  0  0  0  0  0  0  0  0  0
  139.9068   77.1460  223.3426 H   0  0  0  0  0  0  0  0  0  0  0  0
  141.3991   76.2602  222.9877 H   0  0  0  0  0  0  0  0  0  0  0  0
  140.5125   78.8695  221.9645 H   0  0  0  0  0  0  0  0  0  0  0  0
  142.0887   78.1002  221.7328 H   0  0  0  0  0  0  0  0  0  0  0  0
  139.6468   78.0500  219.9596 H   0  0  0  0  0  0  0  0  0  0  0  0
  141.3115   77.8948  219.4702 H   0  0  0  0  0  0  0  0  0  0  0  0
  139.8814   75.6400  219.5014 H   0  0  0  0  0  0  0  0  0  0  0  0
  141.2452   73.5913  221.3229 H   0  0  0  0  0  0  0  0  0  0  0  0
  143.5094   72.6079  221.1832 H   0  0  0  0  0  0  0  0  0  0  0  0
  144.8776   76.1045  219.1466 H   0  0  0  0  0  0  0  0  0  0  0  0
  142.6192   77.0786  219.2855 H   0  0  0  0  0  0  0  0  0  0  0  0
  138.5486   69.5588  222.8301 H   0  0  0  0  0  0  0  0  0  0  0  0
  138.5372   67.8707  224.6321 H   0  0  0  0  0  0  0  0  0  0  0  0
  139.2369   67.1817  226.8861 H   0  0  0  0  0  0  0  0  0  0  0  0
  140.4374   67.6416  229.0015 H   0  0  0  0  0  0  0  0  0  0  0  0
  141.6436   69.8283  229.2430 H   0  0  0  0  0  0  0  0  0  0  0  0
  141.6012   71.4715  227.3825 H   0  0  0  0  0  0  0  0  0  0  0  0
  1  2  2  0
  2  3  1  0
  3  4  1  0
  4  5  1  0
  5  6  2  0
  5  7  1  0
  7  8  1  0
  8  9  1  0
  9 10  1  0
 10 11  1  0
 11 12  1  0
 12 13  2  0
 13 14  1  0
 14 15  2  0
 15 16  1  0
 16 17  2  0
 16 18  1  0
 15 19  1  0
 19 20  2  0
  2 21  1  0
 21 22  2  0
 22 23  1  0
 23 24  2  0
 24 25  1  0
 25 26  2  0
 26 27  1  0
 27 28  2  0
 28 29  1  0
 29 30  2  0
 11  7  1  0
 20 12  1  0
 30 21  1  0
 29 24  1  0
  3 31  1  0
  4 32  1  0
  4 33  1  0
  8 34  1  0
  8 35  1  0
  9 36  1  0
  9 37  1  0
 10 38  1  0
 10 39  1  0
 11 40  1  6
 13 41  1  0
 14 42  1  0
 19 43  1  0
 20 44  1  0
 22 45  1  0
 23 46  1  0
 25 47  1  0
 26 48  1  0
 27 49  1  0
 28 50  1  0
M  CHG  2  16   1  18  -1
M  END
>  <smiles>  (89) 
O=C(NCC(=O)N1CCCC1c1ccc([N+](=O)[O-])cc1)c1ccc2ccccc2n1

>  <score_type>  (89) 
oracle

>  <origin>  (89) 
autodockgpu

>  <m_score__min__energy>  (89) 
-9.4499999999999993

>  <m_primary>  (89) 
energy

>  <rmsd>  (89) 
2.352385896209344

>  <m_score__min__rmsd>  (89) 
2.352385896209344

>  <meeko>  (89) 
{"free_energy": -9.38, "intermolecular_energy": -11.17, "internal_energy": -1.59, "cluster_size": 37, "cluster_id": 2, "rank_in_cluster": 2}

>  <energy>  (89) 
-8.68

>  <cluster_rmsd>  (89) 
1.05

>  <cluster>  (89) 
2

$$$$

     RDKit          3D

 50 53  0  0  0  0  0  0  0  0999 V2000
  140.8640   71.6850  221.9060 O   0  0  0  0  0  0  0  0  0  0  0  0
  139.9360   71.7080  222.7820 C   0  0  0  0  0  0  0  0  0  0  0  0
  138.8970   72.6690  222.6430 N   0  0  0  0  0  0  0  0  0  0  0  0
  138.9690   73.5590  221.5040 C   0  0  0  0  0  0  0  0  0  0  0  0
  138.9720   74.9830  221.9190 C   0  0  0  0  0  0  0  0  0  0  0  0
  138.0470   75.4770  222.6140 O   0  0  0  0  0  0  0  0  0  0  0  0
  140.0290   75.8480  221.5440 N   0  0  0  0  0  0  0  0  0  0  0  0
  140.7260   76.8490  222.3650 C   0  0  0  0  0  0  0  0  0  0  0  0
  141.1320   77.9620  221.4120 C   0  0  0  0  0  0  0  0  0  0  0  0
  140.7650   77.4700  220.0260 C   0  0  0  0  0  0  0  0  0  0  0  0
  140.6980   75.9730  220.2410 C   0  0  1  0  0  0  0  0  0  0  0  0
  142.0410   75.3720  220.2870 C   0  0  0  0  0  0  0  0  0  0  0  0
  143.2170   75.9790  219.9920 C   0  0  0  0  0  0  0  0  0  0  0  0
  144.4490   75.3160  220.0770 C   0  0  0  0  0  0  0  0  0  0  0  0
  144.5180   73.9960  220.4720 C   0  0  0  0  0  0  0  0  0  0  0  0
  145.7840   73.3550  220.5470 N   0  0  0  0  0  4  0  0  0  0  0  0
  146.2880   72.8450  219.5250 O   0  0  0  0  0  0  0  0  0  0  0  0
  146.4850   73.2810  221.7460 O   0  0  0  0  0  1  0  0  0  0  0  0
  143.3280   73.3710  220.7740 C   0  0  0  0  0  0  0  0  0  0  0  0
  142.1100   74.0310  220.6880 C   0  0  0  0  0  0  0  0  0  0  0  0
  139.9330   70.7740  223.9070 C   0  0  0  0  0  0  0  0  0  0  0  0
  139.3030   69.5460  223.7330 C   0  0  0  0  0  0  0  0  0  0  0  0
  139.2720   68.6320  224.7630 C   0  0  0  0  0  0  0  0  0  0  0  0
  139.8610   68.9120  225.9780 C   0  0  0  0  0  0  0  0  0  0  0  0
  139.8600   68.0320  227.0420 C   0  0  0  0  0  0  0  0  0  0  0  0
  140.4540   68.3270  228.2510 C   0  0  0  0  0  0  0  0  0  0  0  0
  141.0720   69.5630  228.3830 C   0  0  0  0  0  0  0  0  0  0  0  0
  141.0750   70.4540  227.3090 C   0  0  0  0  0  0  0  0  0  0  0  0
  140.4750   70.1430  226.1040 C   0  0  0  0  0  0  0  0  0  0  0  0
  140.5060   71.0450  225.0900 N   0  0  0  0  0  0  0  0  0  0  0  0
  138.1030   72.7280  223.3470 H   0  0  0  0  0  0  0  0  0  0  0  0
  139.8929   73.3487  220.9453 H   0  0  0  0  0  0  0  0  0  0  0  0
  138.0813   73.3865  220.8778 H   0  0  0  0  0  0  0  0  0  0  0  0
  140.0547   77.2388  223.1444 H   0  0  0  0  0  0  0  0  0  0  0  0
  141.5993   76.4156  222.8743 H   0  0  0  0  0  0  0  0  0  0  0  0
  140.5855   78.8871  221.6477 H   0  0  0  0  0  0  0  0  0  0  0  0
  142.2049   78.1919  221.4901 H   0  0  0  0  0  0  0  0  0  0  0  0
  139.7941   77.8726  219.7014 H   0  0  0  0  0  0  0  0  0  0  0  0
  141.4713   77.7777  219.2408 H   0  0  0  0  0  0  0  0  0  0  0  0
  140.1717   75.4529  219.4270 H   0  0  0  0  0  0  0  0  0  0  0  0
  143.2037   77.0319  219.6738 H   0  0  0  0  0  0  0  0  0  0  0  0
  145.3738   75.8558  219.8252 H   0  0  0  0  0  0  0  0  0  0  0  0
  143.3436   72.3183  221.0926 H   0  0  0  0  0  0  0  0  0  0  0  0
  141.1840   73.4928  220.9386 H   0  0  0  0  0  0  0  0  0  0  0  0
  138.8284   69.3043  222.7705 H   0  0  0  0  0  0  0  0  0  0  0  0
  138.7701   67.6646  224.6142 H   0  0  0  0  0  0  0  0  0  0  0  0
  139.3657   67.0568  226.9204 H   0  0  0  0  0  0  0  0  0  0  0  0
  140.4386   67.6073  229.0827 H   0  0  0  0  0  0  0  0  0  0  0  0
  141.5576   69.8390  229.3306 H   0  0  0  0  0  0  0  0  0  0  0  0
  141.5684   71.4303  227.4250 H   0  0  0  0  0  0  0  0  0  0  0  0
  1  2  2  0
  2  3  1  0
  3  4  1  0
  4  5  1  0
  5  6  2  0
  5  7  1  0
  7  8  1  0
  8  9  1  0
  9 10  1  0
 10 11  1  0
 11 12  1  0
 12 13  2  0
 13 14  1  0
 14 15  2  0
 15 16  1  0
 16 17  2  0
 16 18  1  0
 15 19  1  0
 19 20  2  0
  2 21  1  0
 21 22  2  0
 22 23  1  0
 23 24  2  0
 24 25  1  0
 25 26  2  0
 26 27  1  0
 27 28  2  0
 28 29  1  0
 29 30  2  0
 11  7  1  0
 20 12  1  0
 30 21  1  0
 29 24  1  0
  3 31  1  0
  4 32  1  0
  4 33  1  0
  8 34  1  0
  8 35  1  0
  9 36  1  0
  9 37  1  0
 10 38  1  0
 10 39  1  0
 11 40  1  6
 13 41  1  0
 14 42  1  0
 19 43  1  0
 20 44  1  0
 22 45  1  0
 23 46  1  0
 25 47  1  0
 26 48  1  0
 27 49  1  0
 28 50  1  0
M  CHG  2  16   1  18  -1
M  END
>  <smiles>  (90) 
O=C(NCC(=O)N1CCCC1c1ccc([N+](=O)[O-])cc1)c1ccc2ccccc2n1

>  <score_type>  (90) 
oracle

>  <origin>  (90) 
autodockgpu

>  <m_score__min__energy>  (90) 
-9.4499999999999993

>  <m_primary>  (90) 
energy

>  <rmsd>  (90) 
2.2958880154535675

>  <m_score__min__rmsd>  (90) 
2.2958880154535675

>  <meeko>  (90) 
{"free_energy": -9.4, "intermolecular_energy": -11.19, "internal_energy": -1.65, "cluster_size": 37, "cluster_id": 2, "rank_in_cluster": 1}

>  <energy>  (90) 
-8.66

>  <cluster_rmsd>  (90) 
1.21

>  <cluster>  (90) 
2

$$$$

     RDKit          3D

 50 53  0  0  0  0  0  0  0  0999 V2000
  140.6620   73.0560  222.2660 O   0  0  0  0  0  0  0  0  0  0  0  0
  139.6460   72.5090  222.8120 C   0  0  0  0  0  0  0  0  0  0  0  0
  138.3510   72.8660  222.3420 N   0  0  0  0  0  0  0  0  0  0  0  0
  138.2820   73.8320  221.2680 C   0  0  0  0  0  0  0  0  0  0  0  0
  138.7650   75.1670  221.6970 C   0  0  0  0  0  0  0  0  0  0  0  0
  138.2640   75.7730  222.6790 O   0  0  0  0  0  0  0  0  0  0  0  0
  139.8200   75.8160  221.0100 N   0  0  0  0  0  0  0  0  0  0  0  0
  139.8080   76.4040  219.6630 C   0  0  0  0  0  0  0  0  0  0  0  0
  141.2170   76.2310  219.1180 C   0  0  0  0  0  0  0  0  0  0  0  0
  142.0330   75.6650  220.2630 C   0  0  0  0  0  0  0  0  0  0  0  0
  141.1970   76.0630  221.4610 C   0  0  1  0  0  0  0  0  0  0  0  0
  141.3830   77.4830  221.8020 C   0  0  0  0  0  0  0  0  0  0  0  0
  141.8180   78.4710  220.9800 C   0  0  0  0  0  0  0  0  0  0  0  0
  141.9530   79.7990  221.4050 C   0  0  0  0  0  0  0  0  0  0  0  0
  141.6440   80.1650  222.6980 C   0  0  0  0  0  0  0  0  0  0  0  0
  141.7920   81.5220  223.0940 N   0  0  0  0  0  4  0  0  0  0  0  0
  142.2770   81.7970  224.2110 O   0  0  0  0  0  0  0  0  0  0  0  0
  141.4070   82.5640  222.2580 O   0  0  0  0  0  1  0  0  0  0  0  0
  141.2010   79.1690  223.5410 C   0  0  0  0  0  0  0  0  0  0  0  0
  141.0700   77.8540  223.1170 C   0  0  0  0  0  0  0  0  0  0  0  0
  139.7980   71.5400  223.8950 C   0  0  0  0  0  0  0  0  0  0  0  0
  139.4080   70.2260  223.6530 C   0  0  0  0  0  0  0  0  0  0  0  0
  139.5310   69.2750  224.6430 C   0  0  0  0  0  0  0  0  0  0  0  0
  140.0390   69.6020  225.8820 C   0  0  0  0  0  0  0  0  0  0  0  0
  140.1850   68.6880  226.9070 C   0  0  0  0  0  0  0  0  0  0  0  0
  140.6950   69.0310  228.1420 C   0  0  0  0  0  0  0  0  0  0  0  0
  141.0720   70.3520  228.3410 C   0  0  0  0  0  0  0  0  0  0  0  0
  140.9270   71.2780  227.3070 C   0  0  0  0  0  0  0  0  0  0  0  0
  140.4140   70.9170  226.0750 C   0  0  0  0  0  0  0  0  0  0  0  0
  140.2930   71.8560  225.1020 N   0  0  0  0  0  0  0  0  0  0  0  0
  137.4750   72.4390  222.7650 H   0  0  0  0  0  0  0  0  0  0  0  0
  138.9040   73.4800  220.4318 H   0  0  0  0  0  0  0  0  0  0  0  0
  137.2296   73.9305  220.9634 H   0  0  0  0  0  0  0  0  0  0  0  0
  139.0835   75.8790  219.0231 H   0  0  0  0  0  0  0  0  0  0  0  0
  139.5129   77.4634  219.6883 H   0  0  0  0  0  0  0  0  0  0  0  0
  141.2161   75.5345  218.2666 H   0  0  0  0  0  0  0  0  0  0  0  0
  141.6319   77.1831  218.7556 H   0  0  0  0  0  0  0  0  0  0  0  0
  142.1282   74.5719  220.1857 H   0  0  0  0  0  0  0  0  0  0  0  0
  143.0687   76.0338  220.2986 H   0  0  0  0  0  0  0  0  0  0  0  0
  141.4677   75.5039  222.3688 H   0  0  0  0  0  0  0  0  0  0  0  0
  142.0744   78.2196  219.9403 H   0  0  0  0  0  0  0  0  0  0  0  0
  142.3108   80.5610  220.6969 H   0  0  0  0  0  0  0  0  0  0  0  0
  140.9438   79.4235  224.5798 H   0  0  0  0  0  0  0  0  0  0  0  0
  140.7147   77.0903  223.8245 H   0  0  0  0  0  0  0  0  0  0  0  0
  139.0010   69.9461  222.6701 H   0  0  0  0  0  0  0  0  0  0  0  0
  139.2191   68.2396  224.4414 H   0  0  0  0  0  0  0  0  0  0  0  0
  139.8826   67.6450  226.7316 H   0  0  0  0  0  0  0  0  0  0  0  0
  140.7994   68.2831  228.9419 H   0  0  0  0  0  0  0  0  0  0  0  0
  141.4838   70.6680  229.3108 H   0  0  0  0  0  0  0  0  0  0  0  0
  141.2287   72.3221  227.4767 H   0  0  0  0  0  0  0  0  0  0  0  0
  1  2  2  0
  2  3  1  0
  3  4  1  0
  4  5  1  0
  5  6  2  0
  5  7  1  0
  7  8  1  0
  8  9  1  0
  9 10  1  0
 10 11  1  0
 11 12  1  0
 12 13  2  0
 13 14  1  0
 14 15  2  0
 15 16  1  0
 16 17  2  0
 16 18  1  0
 15 19  1  0
 19 20  2  0
  2 21  1  0
 21 22  2  0
 22 23  1  0
 23 24  2  0
 24 25  1  0
 25 26  2  0
 26 27  1  0
 27 28  2  0
 28 29  1  0
 29 30  2  0
 11  7  1  0
 20 12  1  0
 30 21  1  0
 29 24  1  0
  3 31  1  0
  4 32  1  0
  4 33  1  0
  8 34  1  0
  8 35  1  0
  9 36  1  0
  9 37  1  0
 10 38  1  0
 10 39  1  0
 11 40  1  1
 13 41  1  0
 14 42  1  0
 19 43  1  0
 20 44  1  0
 22 45  1  0
 23 46  1  0
 25 47  1  0
 26 48  1  0
 27 49  1  0
 28 50  1  0
M  CHG  2  16   1  18  -1
M  END
>  <smiles>  (91) 
O=C(NCC(=O)N1CCCC1c1ccc([N+](=O)[O-])cc1)c1ccc2ccccc2n1

>  <score_type>  (91) 
oracle

>  <origin>  (91) 
autodockgpu

>  <m_score__min__energy>  (91) 
-9.4499999999999993

>  <m_primary>  (91) 
energy

>  <rmsd>  (91) 
1.6890245606986525

>  <m_score__min__rmsd>  (91) 
1.6890245606986525

>  <meeko>  (91) 
{"free_energy": -8.71, "intermolecular_energy": -10.5, "internal_energy": -1.36, "cluster_size": 8, "cluster_id": 1, "rank_in_cluster": 6}

>  <energy>  (91) 
-8.64

>  <cluster_rmsd>  (91) 
1.17

>  <cluster>  (91) 
2

$$$$

     RDKit          3D

 50 53  0  0  0  0  0  0  0  0999 V2000
  140.4970   71.8790  221.4390 O   0  0  0  0  0  0  0  0  0  0  0  0
  139.6430   72.0960  222.3620 C   0  0  0  0  0  0  0  0  0  0  0  0
  138.6060   73.0390  222.1170 N   0  0  0  0  0  0  0  0  0  0  0  0
  138.5950   73.6870  220.8230 C   0  0  0  0  0  0  0  0  0  0  0  0
  138.5710   75.1640  220.9500 C   0  0  0  0  0  0  0  0  0  0  0  0
  137.5020   75.8230  220.8830 O   0  0  0  0  0  0  0  0  0  0  0  0
  139.7670   75.8970  221.1540 N   0  0  0  0  0  0  0  0  0  0  0  0
  140.3110   76.4280  222.4120 C   0  0  0  0  0  0  0  0  0  0  0  0
  141.0590   77.6980  222.0420 C   0  0  0  0  0  0  0  0  0  0  0  0
  141.0320   77.7640  220.5280 C   0  0  0  0  0  0  0  0  0  0  0  0
  140.7680   76.3180  220.1640 C   0  0  1  0  0  0  0  0  0  0  0  0
  141.9870   75.5010  220.2780 C   0  0  0  0  0  0  0  0  0  0  0  0
  142.0620   74.1870  220.6070 C   0  0  0  0  0  0  0  0  0  0  0  0
  143.2790   73.4970  220.6800 C   0  0  0  0  0  0  0  0  0  0  0  0
  144.4730   74.1350  220.4170 C   0  0  0  0  0  0  0  0  0  0  0  0
  145.6890   73.4040  220.5010 N   0  0  0  0  0  4  0  0  0  0  0  0
  146.1830   72.8940  219.4730 O   0  0  0  0  0  0  0  0  0  0  0  0
  146.3510   73.2400  221.7120 O   0  0  0  0  0  1  0  0  0  0  0  0
  144.4080   75.4700  220.0830 C   0  0  0  0  0  0  0  0  0  0  0  0
  143.2000   76.1500  220.0110 C   0  0  0  0  0  0  0  0  0  0  0  0
  139.7200   71.4000  223.6450 C   0  0  0  0  0  0  0  0  0  0  0  0
  139.1010   70.1590  223.7520 C   0  0  0  0  0  0  0  0  0  0  0  0
  139.1460   69.4630  224.9400 C   0  0  0  0  0  0  0  0  0  0  0  0
  139.8000   69.9780  226.0390 C   0  0  0  0  0  0  0  0  0  0  0  0
  139.8750   69.3230  227.2530 C   0  0  0  0  0  0  0  0  0  0  0  0
  140.5330   69.8520  228.3430 C   0  0  0  0  0  0  0  0  0  0  0  0
  141.1370   71.0930  228.1950 C   0  0  0  0  0  0  0  0  0  0  0  0
  141.0630   71.7570  226.9700 C   0  0  0  0  0  0  0  0  0  0  0  0
  140.4000   71.2130  225.8860 C   0  0  0  0  0  0  0  0  0  0  0  0
  140.3570   71.9000  224.7160 N   0  0  0  0  0  0  0  0  0  0  0  0
  137.8720   73.2550  222.8540 H   0  0  0  0  0  0  0  0  0  0  0  0
  139.4979   73.3914  220.2685 H   0  0  0  0  0  0  0  0  0  0  0  0
  137.6852   73.3736  220.2901 H   0  0  0  0  0  0  0  0  0  0  0  0
  139.4961   76.6555  223.1150 H   0  0  0  0  0  0  0  0  0  0  0  0
  140.9724   75.6997  222.9041 H   0  0  0  0  0  0  0  0  0  0  0  0
  140.5583   78.5774  222.4732 H   0  0  0  0  0  0  0  0  0  0  0  0
  142.0884   77.6902  222.4296 H   0  0  0  0  0  0  0  0  0  0  0  0
  140.2264   78.4216  220.1693 H   0  0  0  0  0  0  0  0  0  0  0  0
  141.9487   78.1772  220.0820 H   0  0  0  0  0  0  0  0  0  0  0  0
  140.4309   76.1991  219.1237 H   0  0  0  0  0  0  0  0  0  0  0  0
  141.1314   73.6424  220.8248 H   0  0  0  0  0  0  0  0  0  0  0  0
  143.2823   72.4309  220.9510 H   0  0  0  0  0  0  0  0  0  0  0  0
  145.3402   76.0127  219.8671 H   0  0  0  0  0  0  0  0  0  0  0  0
  143.1948   77.2160  219.7399 H   0  0  0  0  0  0  0  0  0  0  0  0
  138.5742   69.7322  222.8858 H   0  0  0  0  0  0  0  0  0  0  0  0
  138.6531   68.4823  225.0128 H   0  0  0  0  0  0  0  0  0  0  0  0
  139.3906   68.3406  227.3540 H   0  0  0  0  0  0  0  0  0  0  0  0
  140.5779   69.3086  229.2983 H   0  0  0  0  0  0  0  0  0  0  0  0
  141.6718   71.5511  229.0400 H   0  0  0  0  0  0  0  0  0  0  0  0
  141.5453   72.7399  226.8641 H   0  0  0  0  0  0  0  0  0  0  0  0
  1  2  2  0
  2  3  1  0
  3  4  1  0
  4  5  1  0
  5  6  2  0
  5  7  1  0
  7  8  1  0
  8  9  1  0
  9 10  1  0
 10 11  1  0
 11 12  1  0
 12 13  2  0
 13 14  1  0
 14 15  2  0
 15 16  1  0
 16 17  2  0
 16 18  1  0
 15 19  1  0
 19 20  2  0
  2 21  1  0
 21 22  2  0
 22 23  1  0
 23 24  2  0
 24 25  1  0
 25 26  2  0
 26 27  1  0
 27 28  2  0
 28 29  1  0
 29 30  2  0
 11  7  1  0
 20 12  1  0
 30 21  1  0
 29 24  1  0
  3 31  1  0
  4 32  1  0
  4 33  1  0
  8 34  1  0
  8 35  1  0
  9 36  1  0
  9 37  1  0
 10 38  1  0
 10 39  1  0
 11 40  1  6
 13 41  1  0
 14 42  1  0
 19 43  1  0
 20 44  1  0
 22 45  1  0
 23 46  1  0
 25 47  1  0
 26 48  1  0
 27 49  1  0
 28 50  1  0
M  CHG  2  16   1  18  -1
M  END
>  <smiles>  (92) 
O=C(NCC(=O)N1CCCC1c1ccc([N+](=O)[O-])cc1)c1ccc2ccccc2n1

>  <score_type>  (92) 
oracle

>  <origin>  (92) 
autodockgpu

>  <m_score__min__energy>  (92) 
-9.4499999999999993

>  <m_primary>  (92) 
energy

>  <rmsd>  (92) 
2.3389209779413638

>  <m_score__min__rmsd>  (92) 
2.3389209779413638

>  <meeko>  (92) 
{"free_energy": -9.13, "intermolecular_energy": -10.92, "internal_energy": -1.73, "cluster_size": 37, "cluster_id": 2, "rank_in_cluster": 18}

>  <energy>  (92) 
-8.62

>  <cluster_rmsd>  (92) 
1.21

>  <cluster>  (92) 
2

$$$$

     RDKit          3D

 50 53  0  0  0  0  0  0  0  0999 V2000
  138.8490   70.5000  221.3740 O   0  0  0  0  0  0  0  0  0  0  0  0
  138.6490   71.1780  222.4360 C   0  0  0  0  0  0  0  0  0  0  0  0
  137.9430   72.4090  222.3320 N   0  0  0  0  0  0  0  0  0  0  0  0
  137.4970   72.8050  221.0140 C   0  0  0  0  0  0  0  0  0  0  0  0
  138.6170   73.3130  220.1850 C   0  0  0  0  0  0  0  0  0  0  0  0
  138.8610   72.8540  219.0390 O   0  0  0  0  0  0  0  0  0  0  0  0
  139.4640   74.3460  220.6590 N   0  0  0  0  0  0  0  0  0  0  0  0
  139.6980   74.7700  222.0460 C   0  0  0  0  0  0  0  0  0  0  0  0
  139.9780   76.2630  221.9860 C   0  0  0  0  0  0  0  0  0  0  0  0
  140.0340   76.6100  220.5110 C   0  0  0  0  0  0  0  0  0  0  0  0
  140.3190   75.2600  219.8900 C   0  0  1  0  0  0  0  0  0  0  0  0
  141.7360   74.8880  220.0320 C   0  0  0  0  0  0  0  0  0  0  0  0
  142.8100   75.7120  219.9470 C   0  0  0  0  0  0  0  0  0  0  0  0
  144.1250   75.2560  220.1080 C   0  0  0  0  0  0  0  0  0  0  0  0
  144.3880   73.9270  220.3650 C   0  0  0  0  0  0  0  0  0  0  0  0
  145.7340   73.4990  220.5230 N   0  0  0  0  0  4  0  0  0  0  0  0
  146.3410   72.9810  219.5630 O   0  0  0  0  0  0  0  0  0  0  0  0
  146.4000   73.6440  221.7350 O   0  0  0  0  0  1  0  0  0  0  0  0
  143.3040   73.0800  220.4540 C   0  0  0  0  0  0  0  0  0  0  0  0
  142.0020   73.5370  220.2930 C   0  0  0  0  0  0  0  0  0  0  0  0
  139.1320   70.7110  223.7350 C   0  0  0  0  0  0  0  0  0  0  0  0
  138.9750   69.3640  224.0420 C   0  0  0  0  0  0  0  0  0  0  0  0
  139.4140   68.8750  225.2540 C   0  0  0  0  0  0  0  0  0  0  0  0
  140.0120   69.7040  226.1780 C   0  0  0  0  0  0  0  0  0  0  0  0
  140.4690   69.2660  227.4060 C   0  0  0  0  0  0  0  0  0  0  0  0
  141.0660   70.1080  228.3200 C   0  0  0  0  0  0  0  0  0  0  0  0
  141.2030   71.4450  227.9740 C   0  0  0  0  0  0  0  0  0  0  0  0
  140.7430   71.8910  226.7340 C   0  0  0  0  0  0  0  0  0  0  0  0
  140.1470   71.0330  225.8290 C   0  0  0  0  0  0  0  0  0  0  0  0
  139.7160   71.5170  224.6370 N   0  0  0  0  0  0  0  0  0  0  0  0
  137.7540   73.0090  223.1880 H   0  0  0  0  0  0  0  0  0  0  0  0
  137.0490   71.9343  220.5128 H   0  0  0  0  0  0  0  0  0  0  0  0
  136.7617   73.6149  221.1300 H   0  0  0  0  0  0  0  0  0  0  0  0
  138.8079   74.5725  222.6614 H   0  0  0  0  0  0  0  0  0  0  0  0
  140.5363   74.2207  222.4993 H   0  0  0  0  0  0  0  0  0  0  0  0
  139.1727   76.8247  222.4820 H   0  0  0  0  0  0  0  0  0  0  0  0
  140.9154   76.5217  222.5002 H   0  0  0  0  0  0  0  0  0  0  0  0
  139.0758   77.0195  220.1586 H   0  0  0  0  0  0  0  0  0  0  0  0
  140.7763   77.3824  220.2614 H   0  0  0  0  0  0  0  0  0  0  0  0
  140.1172   75.2419  218.8088 H   0  0  0  0  0  0  0  0  0  0  0  0
  142.6421   76.7799  219.7438 H   0  0  0  0  0  0  0  0  0  0  0  0
  144.9594   75.9683  220.0282 H   0  0  0  0  0  0  0  0  0  0  0  0
  143.4747   72.0127  220.6581 H   0  0  0  0  0  0  0  0  0  0  0  0
  141.1659   72.8266  220.3717 H   0  0  0  0  0  0  0  0  0  0  0  0
  138.4997   68.6873  223.3166 H   0  0  0  0  0  0  0  0  0  0  0  0
  139.2850   67.8077  225.4867 H   0  0  0  0  0  0  0  0  0  0  0  0
  140.3519   68.2033  227.6648 H   0  0  0  0  0  0  0  0  0  0  0  0
  141.4218   69.7327  229.2909 H   0  0  0  0  0  0  0  0  0  0  0  0
  141.6726   72.1510  228.6748 H   0  0  0  0  0  0  0  0  0  0  0  0
  140.8577   72.9527  226.4702 H   0  0  0  0  0  0  0  0  0  0  0  0
  1  2  2  0
  2  3  1  0
  3  4  1  0
  4  5  1  0
  5  6  2  0
  5  7  1  0
  7  8  1  0
  8  9  1  0
  9 10  1  0
 10 11  1  0
 11 12  1  0
 12 13  2  0
 13 14  1  0
 14 15  2  0
 15 16  1  0
 16 17  2  0
 16 18  1  0
 15 19  1  0
 19 20  2  0
  2 21  1  0
 21 22  2  0
 22 23  1  0
 23 24  2  0
 24 25  1  0
 25 26  2  0
 26 27  1  0
 27 28  2  0
 28 29  1  0
 29 30  2  0
 11  7  1  0
 20 12  1  0
 30 21  1  0
 29 24  1  0
  3 31  1  0
  4 32  1  0
  4 33  1  0
  8 34  1  0
  8 35  1  0
  9 36  1  0
  9 37  1  0
 10 38  1  0
 10 39  1  0
 11 40  1  6
 13 41  1  0
 14 42  1  0
 19 43  1  0
 20 44  1  0
 22 45  1  0
 23 46  1  0
 25 47  1  0
 26 48  1  0
 27 49  1  0
 28 50  1  0
M  CHG  2  16   1  18  -1
M  END
>  <smiles>  (93) 
O=C(NCC(=O)N1CCCC1c1ccc([N+](=O)[O-])cc1)c1ccc2ccccc2n1

>  <score_type>  (93) 
oracle

>  <origin>  (93) 
autodockgpu

>  <m_score__min__energy>  (93) 
-9.4499999999999993

>  <m_primary>  (93) 
energy

>  <rmsd>  (93) 
2.2473314800505397

>  <m_score__min__rmsd>  (93) 
2.2473314800505397

>  <meeko>  (93) 
{"free_energy": -8.66, "intermolecular_energy": -10.45, "internal_energy": -1.73, "cluster_size": 37, "cluster_id": 2, "rank_in_cluster": 32}

>  <energy>  (93) 
-8.58

>  <cluster_rmsd>  (93) 
1.24

>  <cluster>  (93) 
2

$$$$

     RDKit          3D

 50 53  0  0  0  0  0  0  0  0999 V2000
  140.8440   72.9930  222.7500 O   0  0  0  0  0  0  0  0  0  0  0  0
  140.1140   71.9880  223.0440 C   0  0  0  0  0  0  0  0  0  0  0  0
  139.1360   71.5620  222.1030 N   0  0  0  0  0  0  0  0  0  0  0  0
  139.0410   72.3060  220.8660 C   0  0  0  0  0  0  0  0  0  0  0  0
  138.5940   73.7010  221.0980 C   0  0  0  0  0  0  0  0  0  0  0  0
  137.4020   73.9810  221.3830 O   0  0  0  0  0  0  0  0  0  0  0  0
  139.5060   74.7830  221.0060 N   0  0  0  0  0  0  0  0  0  0  0  0
  139.9050   75.7330  222.0540 C   0  0  0  0  0  0  0  0  0  0  0  0
  140.1990   77.0430  221.3410 C   0  0  0  0  0  0  0  0  0  0  0  0
  140.0890   76.7380  219.8600 C   0  0  0  0  0  0  0  0  0  0  0  0
  140.2810   75.2360  219.8420 C   0  0  1  0  0  0  0  0  0  0  0  0
  141.6990   74.8700  219.9890 C   0  0  0  0  0  0  0  0  0  0  0  0
  142.7700   75.6960  219.8900 C   0  0  0  0  0  0  0  0  0  0  0  0
  144.0870   75.2460  220.0570 C   0  0  0  0  0  0  0  0  0  0  0  0
  144.3530   73.9210  220.3340 C   0  0  0  0  0  0  0  0  0  0  0  0
  145.7010   73.5000  220.4970 N   0  0  0  0  0  4  0  0  0  0  0  0
  146.2390   73.5500  221.6230 O   0  0  0  0  0  0  0  0  0  0  0  0
  146.4440   73.0270  219.4210 O   0  0  0  0  0  1  0  0  0  0  0  0
  143.2720   73.0740  220.4370 C   0  0  0  0  0  0  0  0  0  0  0  0
  141.9690   73.5240  220.2710 C   0  0  0  0  0  0  0  0  0  0  0  0
  140.2700   71.2860  224.3170 C   0  0  0  0  0  0  0  0  0  0  0  0
  140.9820   71.9210  225.3290 C   0  0  0  0  0  0  0  0  0  0  0  0
  141.1570   71.3000  226.5470 C   0  0  0  0  0  0  0  0  0  0  0  0
  140.6340   70.0480  226.7860 C   0  0  0  0  0  0  0  0  0  0  0  0
  140.7790   69.3810  227.9870 C   0  0  0  0  0  0  0  0  0  0  0  0
  140.2490   68.1280  228.2110 C   0  0  0  0  0  0  0  0  0  0  0  0
  139.5450   67.5290  227.1740 C   0  0  0  0  0  0  0  0  0  0  0  0
  139.3960   68.2000  225.9600 C   0  0  0  0  0  0  0  0  0  0  0  0
  139.9340   69.4570  225.7520 C   0  0  0  0  0  0  0  0  0  0  0  0
  139.7600   70.0660  224.5520 N   0  0  0  0  0  0  0  0  0  0  0  0
  138.5040   70.7310  222.3030 H   0  0  0  0  0  0  0  0  0  0  0  0
  140.0296   72.3239  220.3839 H   0  0  0  0  0  0  0  0  0  0  0  0
  138.2983   71.8102  220.2237 H   0  0  0  0  0  0  0  0  0  0  0  0
  139.0889   75.8672  222.7793 H   0  0  0  0  0  0  0  0  0  0  0  0
  140.7813   75.3725  222.6127 H   0  0  0  0  0  0  0  0  0  0  0  0
  139.4654   77.8100  221.6301 H   0  0  0  0  0  0  0  0  0  0  0  0
  141.1938   77.4329  221.6023 H   0  0  0  0  0  0  0  0  0  0  0  0
  139.1025   77.0211  219.4643 H   0  0  0  0  0  0  0  0  0  0  0  0
  140.8085   77.2881  219.2357 H   0  0  0  0  0  0  0  0  0  0  0  0
  139.9567   74.7801  218.8949 H   0  0  0  0  0  0  0  0  0  0  0  0
  142.5986   76.7601  219.6702 H   0  0  0  0  0  0  0  0  0  0  0  0
  144.9197   75.9590  219.9660 H   0  0  0  0  0  0  0  0  0  0  0  0
  143.4458   72.0104  220.6571 H   0  0  0  0  0  0  0  0  0  0  0  0
  141.1351   72.8125  220.3623 H   0  0  0  0  0  0  0  0  0  0  0  0
  141.4064   72.9211  225.1570 H   0  0  0  0  0  0  0  0  0  0  0  0
  141.7225   71.8115  227.3398 H   0  0  0  0  0  0  0  0  0  0  0  0
  141.3400   69.8693  228.7974 H   0  0  0  0  0  0  0  0  0  0  0  0
  140.3792   67.6200  229.1779 H   0  0  0  0  0  0  0  0  0  0  0  0
  139.1066   66.5293  227.3096 H   0  0  0  0  0  0  0  0  0  0  0  0
  138.8356   67.7163  225.1464 H   0  0  0  0  0  0  0  0  0  0  0  0
  1  2  2  0
  2  3  1  0
  3  4  1  0
  4  5  1  0
  5  6  2  0
  5  7  1  0
  7  8  1  0
  8  9  1  0
  9 10  1  0
 10 11  1  0
 11 12  1  0
 12 13  2  0
 13 14  1  0
 14 15  2  0
 15 16  1  0
 16 17  2  0
 16 18  1  0
 15 19  1  0
 19 20  2  0
  2 21  1  0
 21 22  2  0
 22 23  1  0
 23 24  2  0
 24 25  1  0
 25 26  2  0
 26 27  1  0
 27 28  2  0
 28 29  1  0
 29 30  2  0
 11  7  1  0
 20 12  1  0
 30 21  1  0
 29 24  1  0
  3 31  1  0
  4 32  1  0
  4 33  1  0
  8 34  1  0
  8 35  1  0
  9 36  1  0
  9 37  1  0
 10 38  1  0
 10 39  1  0
 11 40  1  6
 13 41  1  0
 14 42  1  0
 19 43  1  0
 20 44  1  0
 22 45  1  0
 23 46  1  0
 25 47  1  0
 26 48  1  0
 27 49  1  0
 28 50  1  0
M  CHG  2  16   1  18  -1
M  END
>  <smiles>  (94) 
O=C(NCC(=O)N1CCCC1c1ccc([N+](=O)[O-])cc1)c1ccc2ccccc2n1

>  <score_type>  (94) 
oracle

>  <origin>  (94) 
autodockgpu

>  <m_score__min__energy>  (94) 
-9.4499999999999993

>  <m_primary>  (94) 
energy

>  <rmsd>  (94) 
3.2322201871714067

>  <m_score__min__rmsd>  (94) 
3.2322201871714067

>  <meeko>  (94) 
{"free_energy": -8.68, "intermolecular_energy": -10.47, "internal_energy": -1.87, "cluster_size": 37, "cluster_id": 2, "rank_in_cluster": 31}

>  <energy>  (94) 
-8.35

>  <cluster_rmsd>  (94) 
1.13

>  <cluster>  (94) 
2

$$$$

     RDKit          3D

 50 53  0  0  0  0  0  0  0  0999 V2000
  140.3750   70.9610  221.5680 O   0  0  0  0  0  0  0  0  0  0  0  0
  139.6900   71.4100  222.5470 C   0  0  0  0  0  0  0  0  0  0  0  0
  138.6390   72.3290  222.2730 N   0  0  0  0  0  0  0  0  0  0  0  0
  138.4220   72.6890  220.8880 C   0  0  0  0  0  0  0  0  0  0  0  0
  138.3140   74.1580  220.7140 C   0  0  0  0  0  0  0  0  0  0  0  0
  137.2640   74.7030  220.2880 O   0  0  0  0  0  0  0  0  0  0  0  0
  139.4030   75.0100  221.0240 N   0  0  0  0  0  0  0  0  0  0  0  0
  139.8270   75.5080  222.3400 C   0  0  0  0  0  0  0  0  0  0  0  0
  140.4300   76.8820  222.0930 C   0  0  0  0  0  0  0  0  0  0  0  0
  140.4540   77.0540  220.5870 C   0  0  0  0  0  0  0  0  0  0  0  0
  140.3830   75.6180  220.1130 C   0  0  1  0  0  0  0  0  0  0  0  0
  141.6870   74.9450  220.2310 C   0  0  0  0  0  0  0  0  0  0  0  0
  141.9110   73.6530  220.5800 C   0  0  0  0  0  0  0  0  0  0  0  0
  143.1990   73.1050  220.6540 C   0  0  0  0  0  0  0  0  0  0  0  0
  144.3110   73.8690  220.3710 C   0  0  0  0  0  0  0  0  0  0  0  0
  145.6020   73.2800  220.4560 N   0  0  0  0  0  4  0  0  0  0  0  0
  146.1060   72.7320  219.4530 O   0  0  0  0  0  0  0  0  0  0  0  0
  146.3270   73.2990  221.6420 O   0  0  0  0  0  1  0  0  0  0  0  0
  144.0950   75.1830  220.0150 C   0  0  0  0  0  0  0  0  0  0  0  0
  142.8170   75.7210  219.9430 C   0  0  0  0  0  0  0  0  0  0  0  0
  139.9720   70.9980  223.9210 C   0  0  0  0  0  0  0  0  0  0  0  0
  140.6960   71.8700  224.7280 C   0  0  0  0  0  0  0  0  0  0  0  0
  140.9870   71.5260  226.0300 C   0  0  0  0  0  0  0  0  0  0  0  0
  140.5690   70.3230  226.5570 C   0  0  0  0  0  0  0  0  0  0  0  0
  140.8330   69.9300  227.8540 C   0  0  0  0  0  0  0  0  0  0  0  0
  140.4080   68.7220  228.3660 C   0  0  0  0  0  0  0  0  0  0  0  0
  139.6880   67.8820  227.5280 C   0  0  0  0  0  0  0  0  0  0  0  0
  139.4200   68.2760  226.2160 C   0  0  0  0  0  0  0  0  0  0  0  0
  139.8530   69.4910  225.7190 C   0  0  0  0  0  0  0  0  0  0  0  0
  139.5650   69.8270  224.4360 N   0  0  0  0  0  0  0  0  0  0  0  0
  138.0420   72.7310  223.0540 H   0  0  0  0  0  0  0  0  0  0  0  0
  139.2662   72.3199  220.2871 H   0  0  0  0  0  0  0  0  0  0  0  0
  137.4759   72.2341  220.5594 H   0  0  0  0  0  0  0  0  0  0  0  0
  138.9627   75.5857  223.0160 H   0  0  0  0  0  0  0  0  0  0  0  0
  140.5513   74.8291  222.8138 H   0  0  0  0  0  0  0  0  0  0  0  0
  139.8100   77.6624  222.5584 H   0  0  0  0  0  0  0  0  0  0  0  0
  141.4367   76.9680  222.5278 H   0  0  0  0  0  0  0  0  0  0  0  0
  139.5887   77.6354  220.2360 H   0  0  0  0  0  0  0  0  0  0  0  0
  141.3304   77.6045  220.2143 H   0  0  0  0  0  0  0  0  0  0  0  0
  140.1046   75.5366  219.0519 H   0  0  0  0  0  0  0  0  0  0  0  0
  141.0488   73.0111  220.8138 H   0  0  0  0  0  0  0  0  0  0  0  0
  143.3242   72.0507  220.9419 H   0  0  0  0  0  0  0  0  0  0  0  0
  144.9587   75.8229  219.7816 H   0  0  0  0  0  0  0  0  0  0  0  0
  142.6897   76.7749  219.6548 H   0  0  0  0  0  0  0  0  0  0  0  0
  141.0366   72.8356  224.3259 H   0  0  0  0  0  0  0  0  0  0  0  0
  141.5617   72.2221  226.6585 H   0  0  0  0  0  0  0  0  0  0  0  0
  141.4051   70.6075  228.5049 H   0  0  0  0  0  0  0  0  0  0  0  0
  140.6322   68.4339  229.4037 H   0  0  0  0  0  0  0  0  0  0  0  0
  139.3299   66.9094  227.8964 H   0  0  0  0  0  0  0  0  0  0  0  0
  138.8492   67.6019  225.5604 H   0  0  0  0  0  0  0  0  0  0  0  0
  1  2  2  0
  2  3  1  0
  3  4  1  0
  4  5  1  0
  5  6  2  0
  5  7  1  0
  7  8  1  0
  8  9  1  0
  9 10  1  0
 10 11  1  0
 11 12  1  0
 12 13  2  0
 13 14  1  0
 14 15  2  0
 15 16  1  0
 16 17  2  0
 16 18  1  0
 15 19  1  0
 19 20  2  0
  2 21  1  0
 21 22  2  0
 22 23  1  0
 23 24  2  0
 24 25  1  0
 25 26  2  0
 26 27  1  0
 27 28  2  0
 28 29  1  0
 29 30  2  0
 11  7  1  0
 20 12  1  0
 30 21  1  0
 29 24  1  0
  3 31  1  0
  4 32  1  0
  4 33  1  0
  8 34  1  0
  8 35  1  0
  9 36  1  0
  9 37  1  0
 10 38  1  0
 10 39  1  0
 11 40  1  6
 13 41  1  0
 14 42  1  0
 19 43  1  0
 20 44  1  0
 22 45  1  0
 23 46  1  0
 25 47  1  0
 26 48  1  0
 27 49  1  0
 28 50  1  0
M  CHG  2  16   1  18  -1
M  END
>  <smiles>  (95) 
O=C(NCC(=O)N1CCCC1c1ccc([N+](=O)[O-])cc1)c1ccc2ccccc2n1

>  <score_type>  (95) 
oracle

>  <origin>  (95) 
autodockgpu

>  <m_score__min__energy>  (95) 
-9.4499999999999993

>  <m_primary>  (95) 
energy

>  <rmsd>  (95) 
3.1517321623530044

>  <m_score__min__rmsd>  (95) 
3.1517321623530044

>  <meeko>  (95) 
{"free_energy": -8.85, "intermolecular_energy": -10.64, "internal_energy": -1.82, "cluster_size": 37, "cluster_id": 2, "rank_in_cluster": 27}

>  <energy>  (95) 
-8.34

>  <cluster_rmsd>  (95) 
1.22

>  <cluster>  (95) 
2

$$$$

     RDKit          3D

 50 53  0  0  0  0  0  0  0  0999 V2000
  137.4260   70.9860  222.0880 O   0  0  0  0  0  0  0  0  0  0  0  0
  138.5410   71.3470  222.5930 C   0  0  0  0  0  0  0  0  0  0  0  0
  139.3040   72.3360  221.9120 N   0  0  0  0  0  0  0  0  0  0  0  0
  138.7530   72.8640  220.6830 C   0  0  0  0  0  0  0  0  0  0  0  0
  138.5710   74.3340  220.7510 C   0  0  0  0  0  0  0  0  0  0  0  0
  137.4500   74.8760  220.5700 O   0  0  0  0  0  0  0  0  0  0  0  0
  139.6650   75.1920  221.0270 N   0  0  0  0  0  0  0  0  0  0  0  0
  140.0770   75.7620  222.3170 C   0  0  0  0  0  0  0  0  0  0  0  0
  140.6980   77.1130  221.9980 C   0  0  0  0  0  0  0  0  0  0  0  0
  140.7440   77.1970  220.4860 C   0  0  0  0  0  0  0  0  0  0  0  0
  140.6640   75.7360  220.0960 C   0  0  1  0  0  0  0  0  0  0  0  0
  141.9590   75.0580  220.2710 C   0  0  0  0  0  0  0  0  0  0  0  0
  142.1630   73.7800  220.6790 C   0  0  0  0  0  0  0  0  0  0  0  0
  143.4440   73.2250  220.8050 C   0  0  0  0  0  0  0  0  0  0  0  0
  144.5690   73.9670  220.5140 C   0  0  0  0  0  0  0  0  0  0  0  0
  145.8530   73.3720  220.6530 N   0  0  0  0  0  4  0  0  0  0  0  0
  146.3890   72.8090  219.6750 O   0  0  0  0  0  0  0  0  0  0  0  0
  146.5350   73.4010  221.8640 O   0  0  0  0  0  1  0  0  0  0  0  0
  144.3730   75.2660  220.0980 C   0  0  0  0  0  0  0  0  0  0  0  0
  143.1020   75.8120  219.9750 C   0  0  0  0  0  0  0  0  0  0  0  0
  139.0310   70.7660  223.8410 C   0  0  0  0  0  0  0  0  0  0  0  0
  138.8220   69.4070  224.0540 C   0  0  0  0  0  0  0  0  0  0  0  0
  139.2650   68.8110  225.2150 C   0  0  0  0  0  0  0  0  0  0  0  0
  139.9200   69.5440  226.1820 C   0  0  0  0  0  0  0  0  0  0  0  0
  140.3850   68.9970  227.3620 C   0  0  0  0  0  0  0  0  0  0  0  0
  141.0370   69.7430  228.3210 C   0  0  0  0  0  0  0  0  0  0  0  0
  141.2250   71.0960  228.0700 C   0  0  0  0  0  0  0  0  0  0  0  0
  140.7580   71.6510  226.8780 C   0  0  0  0  0  0  0  0  0  0  0  0
  140.1050   70.8890  225.9270 C   0  0  0  0  0  0  0  0  0  0  0  0
  139.6690   71.4770  224.7850 N   0  0  0  0  0  0  0  0  0  0  0  0
  140.2390   72.6690  222.2930 H   0  0  0  0  0  0  0  0  0  0  0  0
  139.4373   72.6274  219.8549 H   0  0  0  0  0  0  0  0  0  0  0  0
  137.7670   72.4033  220.5233 H   0  0  0  0  0  0  0  0  0  0  0  0
  139.2049   75.8879  222.9754 H   0  0  0  0  0  0  0  0  0  0  0  0
  140.7875   75.1049  222.8398 H   0  0  0  0  0  0  0  0  0  0  0  0
  140.0804   77.9254  222.4085 H   0  0  0  0  0  0  0  0  0  0  0  0
  141.7000   77.2137  222.4406 H   0  0  0  0  0  0  0  0  0  0  0  0
  139.8897   77.7654  220.0896 H   0  0  0  0  0  0  0  0  0  0  0  0
  141.6309   77.7164  220.0939 H   0  0  0  0  0  0  0  0  0  0  0  0
  140.3990   75.5954  219.0377 H   0  0  0  0  0  0  0  0  0  0  0  0
  141.2899   73.1558  220.9200 H   0  0  0  0  0  0  0  0  0  0  0  0
  143.5532   72.1832  221.1406 H   0  0  0  0  0  0  0  0  0  0  0  0
  145.2477   75.8878  219.8566 H   0  0  0  0  0  0  0  0  0  0  0  0
  142.9909   76.8537  219.6396 H   0  0  0  0  0  0  0  0  0  0  0  0
  138.3016   68.8064  223.2934 H   0  0  0  0  0  0  0  0  0  0  0  0
  139.0937   67.7359  225.3724 H   0  0  0  0  0  0  0  0  0  0  0  0
  140.2289   67.9234  227.5439 H   0  0  0  0  0  0  0  0  0  0  0  0
  141.3960   69.2822  229.2531 H   0  0  0  0  0  0  0  0  0  0  0  0
  141.7403   71.7279  228.8084 H   0  0  0  0  0  0  0  0  0  0  0  0
  140.9136   72.7236  226.6899 H   0  0  0  0  0  0  0  0  0  0  0  0
  1  2  2  0
  2  3  1  0
  3  4  1  0
  4  5  1  0
  5  6  2  0
  5  7  1  0
  7  8  1  0
  8  9  1  0
  9 10  1  0
 10 11  1  0
 11 12  1  0
 12 13  2  0
 13 14  1  0
 14 15  2  0
 15 16  1  0
 16 17  2  0
 16 18  1  0
 15 19  1  0
 19 20  2  0
  2 21  1  0
 21 22  2  0
 22 23  1  0
 23 24  2  0
 24 25  1  0
 25 26  2  0
 26 27  1  0
 27 28  2  0
 28 29  1  0
 29 30  2  0
 11  7  1  0
 20 12  1  0
 30 21  1  0
 29 24  1  0
  3 31  1  0
  4 32  1  0
  4 33  1  0
  8 34  1  0
  8 35  1  0
  9 36  1  0
  9 37  1  0
 10 38  1  0
 10 39  1  0
 11 40  1  6
 13 41  1  0
 14 42  1  0
 19 43  1  0
 20 44  1  0
 22 45  1  0
 23 46  1  0
 25 47  1  0
 26 48  1  0
 27 49  1  0
 28 50  1  0
M  CHG  2  16   1  18  -1
M  END
>  <smiles>  (96) 
O=C(NCC(=O)N1CCCC1c1ccc([N+](=O)[O-])cc1)c1ccc2ccccc2n1

>  <score_type>  (96) 
oracle

>  <origin>  (96) 
autodockgpu

>  <m_score__min__energy>  (96) 
-9.4499999999999993

>  <m_primary>  (96) 
energy

>  <rmsd>  (96) 
2.264877734063676

>  <m_score__min__rmsd>  (96) 
2.264877734063676

>  <meeko>  (96) 
{"free_energy": -8.35, "intermolecular_energy": -10.14, "internal_energy": -1.66, "cluster_size": 37, "cluster_id": 2, "rank_in_cluster": 36}

>  <energy>  (96) 
-8.21

>  <cluster_rmsd>  (96) 
0.0

>  <cluster>  (96) 
3

$$$$

     RDKit          3D

 50 53  0  0  0  0  0  0  0  0999 V2000
  138.5430   70.7400  221.6750 O   0  0  0  0  0  0  0  0  0  0  0  0
  139.0390   71.2570  222.7310 C   0  0  0  0  0  0  0  0  0  0  0  0
  139.3120   72.6530  222.7380 N   0  0  0  0  0  0  0  0  0  0  0  0
  139.0020   73.3920  221.5330 C   0  0  0  0  0  0  0  0  0  0  0  0
  138.9110   74.8490  221.7910 C   0  0  0  0  0  0  0  0  0  0  0  0
  137.8870   75.3740  222.3000 O   0  0  0  0  0  0  0  0  0  0  0  0
  139.9870   75.7140  221.4710 N   0  0  0  0  0  0  0  0  0  0  0  0
  140.6630   76.6910  222.3360 C   0  0  0  0  0  0  0  0  0  0  0  0
  141.1090   77.8210  221.4230 C   0  0  0  0  0  0  0  0  0  0  0  0
  140.7850   77.3630  220.0150 C   0  0  0  0  0  0  0  0  0  0  0  0
  140.6990   75.8620  220.1940 C   0  0  1  0  0  0  0  0  0  0  0  0
  142.0350   75.2500  220.2710 C   0  0  0  0  0  0  0  0  0  0  0  0
  143.2220   75.8390  219.9810 C   0  0  0  0  0  0  0  0  0  0  0  0
  144.4460   75.1660  220.0960 C   0  0  0  0  0  0  0  0  0  0  0  0
  144.4960   73.8530  220.5180 C   0  0  0  0  0  0  0  0  0  0  0  0
  145.7540   73.2020  220.6240 N   0  0  0  0  0  4  0  0  0  0  0  0
  146.3100   72.7470  219.6020 O   0  0  0  0  0  0  0  0  0  0  0  0
  146.3900   73.0550  221.8510 O   0  0  0  0  0  1  0  0  0  0  0  0
  143.2950   73.2450  220.8150 C   0  0  0  0  0  0  0  0  0  0  0  0
  142.0850   73.9160  220.6990 C   0  0  0  0  0  0  0  0  0  0  0  0
  139.3250   70.4430  223.9110 C   0  0  0  0  0  0  0  0  0  0  0  0
  138.9630   69.1000  223.8800 C   0  0  0  0  0  0  0  0  0  0  0  0
  139.2110   68.2910  224.9670 C   0  0  0  0  0  0  0  0  0  0  0  0
  139.8190   68.7910  226.0990 C   0  0  0  0  0  0  0  0  0  0  0  0
  140.0920   68.0240  227.2150 C   0  0  0  0  0  0  0  0  0  0  0  0
  140.7010   68.5390  228.3400 C   0  0  0  0  0  0  0  0  0  0  0  0
  141.0470   69.8840  228.3300 C   0  0  0  0  0  0  0  0  0  0  0  0
  140.7740   70.6610  227.2030 C   0  0  0  0  0  0  0  0  0  0  0  0
  140.1620   70.1280  226.0840 C   0  0  0  0  0  0  0  0  0  0  0  0
  139.9180   70.9270  225.0140 N   0  0  0  0  0  0  0  0  0  0  0  0
  139.7260   73.1290  223.5920 H   0  0  0  0  0  0  0  0  0  0  0  0
  139.7927   73.2103  220.7901 H   0  0  0  0  0  0  0  0  0  0  0  0
  138.0254   73.0480  221.1617 H   0  0  0  0  0  0  0  0  0  0  0  0
  139.9687   77.0691  223.1009 H   0  0  0  0  0  0  0  0  0  0  0  0
  141.5157   76.2394  222.8641 H   0  0  0  0  0  0  0  0  0  0  0  0
  140.5619   78.7451  221.6611 H   0  0  0  0  0  0  0  0  0  0  0  0
  142.1803   78.0403  221.5421 H   0  0  0  0  0  0  0  0  0  0  0  0
  139.8288   77.7810  219.6672 H   0  0  0  0  0  0  0  0  0  0  0  0
  141.5197   77.6819  219.2610 H   0  0  0  0  0  0  0  0  0  0  0  0
  140.1956   75.3643  219.3521 H   0  0  0  0  0  0  0  0  0  0  0  0
  143.2240   76.8856  219.6424 H   0  0  0  0  0  0  0  0  0  0  0  0
  145.3796   75.6915  219.8465 H   0  0  0  0  0  0  0  0  0  0  0  0
  143.2953   72.1984  221.1536 H   0  0  0  0  0  0  0  0  0  0  0  0
  141.1501   73.3922  220.9471 H   0  0  0  0  0  0  0  0  0  0  0  0
  138.4775   68.6831  222.9853 H   0  0  0  0  0  0  0  0  0  0  0  0
  138.9198   67.2308  224.9314 H   0  0  0  0  0  0  0  0  0  0  0  0
  139.8125   66.9601  227.2059 H   0  0  0  0  0  0  0  0  0  0  0  0
  140.9059   67.9058  229.2158 H   0  0  0  0  0  0  0  0  0  0  0  0
  141.5343   70.3353  229.2069 H   0  0  0  0  0  0  0  0  0  0  0  0
  141.0531   71.7250  227.2054 H   0  0  0  0  0  0  0  0  0  0  0  0
  1  2  2  0
  2  3  1  0
  3  4  1  0
  4  5  1  0
  5  6  2  0
  5  7  1  0
  7  8  1  0
  8  9  1  0
  9 10  1  0
 10 11  1  0
 11 12  1  0
 12 13  2  0
 13 14  1  0
 14 15  2  0
 15 16  1  0
 16 17  2  0
 16 18  1  0
 15 19  1  0
 19 20  2  0
  2 21  1  0
 21 22  2  0
 22 23  1  0
 23 24  2  0
 24 25  1  0
 25 26  2  0
 26 27  1  0
 27 28  2  0
 28 29  1  0
 29 30  2  0
 11  7  1  0
 20 12  1  0
 30 21  1  0
 29 24  1  0
  3 31  1  0
  4 32  1  0
  4 33  1  0
  8 34  1  0
  8 35  1  0
  9 36  1  0
  9 37  1  0
 10 38  1  0
 10 39  1  0
 11 40  1  6
 13 41  1  0
 14 42  1  0
 19 43  1  0
 20 44  1  0
 22 45  1  0
 23 46  1  0
 25 47  1  0
 26 48  1  0
 27 49  1  0
 28 50  1  0
M  CHG  2  16   1  18  -1
M  END
>  <smiles>  (97) 
O=C(NCC(=O)N1CCCC1c1ccc([N+](=O)[O-])cc1)c1ccc2ccccc2n1

>  <score_type>  (97) 
oracle

>  <origin>  (97) 
autodockgpu

>  <m_score__min__energy>  (97) 
-9.4499999999999993

>  <m_primary>  (97) 
energy

>  <rmsd>  (97) 
2.224921312479416

>  <m_score__min__rmsd>  (97) 
2.224921312479416

>  <meeko>  (97) 
{"free_energy": -9.23, "intermolecular_energy": -11.02, "internal_energy": -1.62, "cluster_size": 37, "cluster_id": 2, "rank_in_cluster": 9}

>  <energy>  (97) 
-8.18

>  <cluster_rmsd>  (97) 
1.47

>  <cluster>  (97) 
3

$$$$

     RDKit          3D

 50 53  0  0  0  0  0  0  0  0999 V2000
  141.1050   72.1320  222.0930 O   0  0  0  0  0  0  0  0  0  0  0  0
  140.1420   72.0510  222.9260 C   0  0  0  0  0  0  0  0  0  0  0  0
  138.9200   72.7100  222.6160 N   0  0  0  0  0  0  0  0  0  0  0  0
  138.8590   73.4310  221.3630 C   0  0  0  0  0  0  0  0  0  0  0  0
  138.7960   74.8970  221.5750 C   0  0  0  0  0  0  0  0  0  0  0  0
  137.7500   75.4680  221.9780 O   0  0  0  0  0  0  0  0  0  0  0  0
  139.9240   75.7180  221.3290 N   0  0  0  0  0  0  0  0  0  0  0  0
  140.6880   76.5330  222.2840 C   0  0  0  0  0  0  0  0  0  0  0  0
  141.1950   77.7320  221.5000 C   0  0  0  0  0  0  0  0  0  0  0  0
  140.8090   77.4720  220.0570 C   0  0  0  0  0  0  0  0  0  0  0  0
  140.6190   75.9700  220.0580 C   0  0  1  0  0  0  0  0  0  0  0  0
  141.9080   75.2610  220.0220 C   0  0  0  0  0  0  0  0  0  0  0  0
  142.3570   74.3370  220.9070 C   0  0  0  0  0  0  0  0  0  0  0  0
  143.6040   73.7120  220.7760 C   0  0  0  0  0  0  0  0  0  0  0  0
  144.4430   74.0150  219.7240 C   0  0  0  0  0  0  0  0  0  0  0  0
  145.7010   73.3620  219.6220 N   0  0  0  0  0  4  0  0  0  0  0  0
  146.2040   73.1460  218.5000 O   0  0  0  0  0  0  0  0  0  0  0  0
  146.3940   72.9510  220.7550 O   0  0  0  0  0  1  0  0  0  0  0  0
  143.9960   74.9540  218.8190 C   0  0  0  0  0  0  0  0  0  0  0  0
  142.7590   75.5710  218.9530 C   0  0  0  0  0  0  0  0  0  0  0  0
  140.2810   71.3020  224.1740 C   0  0  0  0  0  0  0  0  0  0  0  0
  140.9570   71.9100  225.2270 C   0  0  0  0  0  0  0  0  0  0  0  0
  141.1140   71.2450  226.4240 C   0  0  0  0  0  0  0  0  0  0  0  0
  140.6090   69.9750  226.6010 C   0  0  0  0  0  0  0  0  0  0  0  0
  140.7380   69.2640  227.7790 C   0  0  0  0  0  0  0  0  0  0  0  0
  140.2280   67.9940  227.9400 C   0  0  0  0  0  0  0  0  0  0  0  0
  139.5600   67.4240  226.8650 C   0  0  0  0  0  0  0  0  0  0  0  0
  139.4270   68.1390  225.6740 C   0  0  0  0  0  0  0  0  0  0  0  0
  139.9460   69.4120  225.5280 C   0  0  0  0  0  0  0  0  0  0  0  0
  139.7900   70.0650  224.3490 N   0  0  0  0  0  0  0  0  0  0  0  0
  138.0900   72.6720  223.2780 H   0  0  0  0  0  0  0  0  0  0  0  0
  139.7561   73.1947  220.7720 H   0  0  0  0  0  0  0  0  0  0  0  0
  137.9452   73.1220  220.8343 H   0  0  0  0  0  0  0  0  0  0  0  0
  140.0399   76.8624  223.1095 H   0  0  0  0  0  0  0  0  0  0  0  0
  141.5169   75.9622  222.7279 H   0  0  0  0  0  0  0  0  0  0  0  0
  140.7212   78.6559  221.8632 H   0  0  0  0  0  0  0  0  0  0  0  0
  142.2816   77.8606  221.6126 H   0  0  0  0  0  0  0  0  0  0  0  0
  139.8783   77.9941  219.7903 H   0  0  0  0  0  0  0  0  0  0  0  0
  141.5485   77.8288  219.3250 H   0  0  0  0  0  0  0  0  0  0  0  0
  140.0641   75.6144  219.1773 H   0  0  0  0  0  0  0  0  0  0  0  0
  141.7176   74.0678  221.7606 H   0  0  0  0  0  0  0  0  0  0  0  0
  143.9187   72.9686  221.5232 H   0  0  0  0  0  0  0  0  0  0  0  0
  144.6373   75.2222  217.9665 H   0  0  0  0  0  0  0  0  0  0  0  0
  142.4422   76.3153  218.2076 H   0  0  0  0  0  0  0  0  0  0  0  0
  141.3669   72.9233  225.1041 H   0  0  0  0  0  0  0  0  0  0  0  0
  141.6502   71.7351  227.2500 H   0  0  0  0  0  0  0  0  0  0  0  0
  141.2690   69.7305  228.6218 H   0  0  0  0  0  0  0  0  0  0  0  0
  140.3463   67.4501  228.8888 H   0  0  0  0  0  0  0  0  0  0  0  0
  139.1370   66.4123  226.9516 H   0  0  0  0  0  0  0  0  0  0  0  0
  138.8951   67.6775  224.8290 H   0  0  0  0  0  0  0  0  0  0  0  0
  1  2  2  0
  2  3  1  0
  3  4  1  0
  4  5  1  0
  5  6  2  0
  5  7  1  0
  7  8  1  0
  8  9  1  0
  9 10  1  0
 10 11  1  0
 11 12  1  0
 12 13  2  0
 13 14  1  0
 14 15  2  0
 15 16  1  0
 16 17  2  0
 16 18  1  0
 15 19  1  0
 19 20  2  0
  2 21  1  0
 21 22  2  0
 22 23  1  0
 23 24  2  0
 24 25  1  0
 25 26  2  0
 26 27  1  0
 27 28  2  0
 28 29  1  0
 29 30  2  0
 11  7  1  0
 20 12  1  0
 30 21  1  0
 29 24  1  0
  3 31  1  0
  4 32  1  0
  4 33  1  0
  8 34  1  0
  8 35  1  0
  9 36  1  0
  9 37  1  0
 10 38  1  0
 10 39  1  0
 11 40  1  6
 13 41  1  0
 14 42  1  0
 19 43  1  0
 20 44  1  0
 22 45  1  0
 23 46  1  0
 25 47  1  0
 26 48  1  0
 27 49  1  0
 28 50  1  0
M  CHG  2  16   1  18  -1
M  END
>  <smiles>  (98) 
O=C(NCC(=O)N1CCCC1c1ccc([N+](=O)[O-])cc1)c1ccc2ccccc2n1

>  <score_type>  (98) 
oracle

>  <origin>  (98) 
autodockgpu

>  <m_score__min__energy>  (98) 
-9.4499999999999993

>  <m_primary>  (98) 
energy

>  <rmsd>  (98) 
3.223336744314265

>  <m_score__min__rmsd>  (98) 
3.223336744314265

>  <meeko>  (98) 
{"free_energy": -8.84, "intermolecular_energy": -10.63, "internal_energy": -1.6, "cluster_size": 37, "cluster_id": 2, "rank_in_cluster": 28}

>  <energy>  (98) 
-8.17

>  <cluster_rmsd>  (98) 
0.0

>  <cluster>  (98) 
4

$$$$

     RDKit          3D

 50 53  0  0  0  0  0  0  0  0999 V2000
  140.4520   71.8700  221.4360 O   0  0  0  0  0  0  0  0  0  0  0  0
  139.6450   72.0380  222.4110 C   0  0  0  0  0  0  0  0  0  0  0  0
  138.5680   72.9520  222.2480 N   0  0  0  0  0  0  0  0  0  0  0  0
  138.4650   73.6310  220.9740 C   0  0  0  0  0  0  0  0  0  0  0  0
  138.3890   75.1020  221.1400 C   0  0  0  0  0  0  0  0  0  0  0  0
  137.2930   75.7200  221.1270 O   0  0  0  0  0  0  0  0  0  0  0  0
  139.5620   75.8760  221.3220 N   0  0  0  0  0  0  0  0  0  0  0  0
  140.1490   76.3640  222.5780 C   0  0  0  0  0  0  0  0  0  0  0  0
  140.8230   77.6840  222.2400 C   0  0  0  0  0  0  0  0  0  0  0  0
  140.7120   77.8280  220.7360 C   0  0  0  0  0  0  0  0  0  0  0  0
  140.4900   76.3930  220.3070 C   0  0  1  0  0  0  0  0  0  0  0  0
  141.7470   75.6260  220.3140 C   0  0  0  0  0  0  0  0  0  0  0  0
  141.9310   74.3640  220.7750 C   0  0  0  0  0  0  0  0  0  0  0  0
  143.1730   73.7180  220.7270 C   0  0  0  0  0  0  0  0  0  0  0  0
  144.2810   74.3490  220.2000 C   0  0  0  0  0  0  0  0  0  0  0  0
  145.5250   73.6640  220.1670 N   0  0  0  0  0  4  0  0  0  0  0  0
  146.2620   73.6590  221.1750 O   0  0  0  0  0  0  0  0  0  0  0  0
  145.9490   72.9910  219.0270 O   0  0  0  0  0  1  0  0  0  0  0  0
  144.1040   75.6330  219.7290 C   0  0  0  0  0  0  0  0  0  0  0  0
  142.8710   76.2680  219.7780 C   0  0  0  0  0  0  0  0  0  0  0  0
  139.8160   71.3140  223.6690 C   0  0  0  0  0  0  0  0  0  0  0  0
  139.3770   69.9950  223.7270 C   0  0  0  0  0  0  0  0  0  0  0  0
  139.5160   69.2710  224.8910 C   0  0  0  0  0  0  0  0  0  0  0  0
  140.0870   69.8330  226.0130 C   0  0  0  0  0  0  0  0  0  0  0  0
  140.2500   69.1510  227.2030 C   0  0  0  0  0  0  0  0  0  0  0  0
  140.8240   69.7280  228.3170 C   0  0  0  0  0  0  0  0  0  0  0  0
  141.2490   71.0460  228.2160 C   0  0  0  0  0  0  0  0  0  0  0  0
  141.0860   71.7360  227.0150 C   0  0  0  0  0  0  0  0  0  0  0  0
  140.5080   71.1440  225.9080 C   0  0  0  0  0  0  0  0  0  0  0  0
  140.3730   71.8590  224.7620 N   0  0  0  0  0  0  0  0  0  0  0  0
  137.8700   73.1270  223.0300 H   0  0  0  0  0  0  0  0  0  0  0  0
  139.3493   73.3861  220.3673 H   0  0  0  0  0  0  0  0  0  0  0  0
  137.5417   73.2940  220.4801 H   0  0  0  0  0  0  0  0  0  0  0  0
  139.3636   76.5180  223.3326 H   0  0  0  0  0  0  0  0  0  0  0  0
  140.8652   75.6411  222.9958 H   0  0  0  0  0  0  0  0  0  0  0  0
  140.3101   78.5165  222.7438 H   0  0  0  0  0  0  0  0  0  0  0  0
  141.8712   77.7015  222.5732 H   0  0  0  0  0  0  0  0  0  0  0  0
  139.8613   78.4667  220.4558 H   0  0  0  0  0  0  0  0  0  0  0  0
  141.5853   78.3048  220.2669 H   0  0  0  0  0  0  0  0  0  0  0  0
  140.1033   76.3143  219.2802 H   0  0  0  0  0  0  0  0  0  0  0  0
  141.0718   73.8269  221.2031 H   0  0  0  0  0  0  0  0  0  0  0  0
  143.2663   72.6930  221.1151 H   0  0  0  0  0  0  0  0  0  0  0  0
  144.9646   76.1691  219.3024 H   0  0  0  0  0  0  0  0  0  0  0  0
  142.7746   77.2926  219.3895 H   0  0  0  0  0  0  0  0  0  0  0  0
  138.9182   69.5295  222.8422 H   0  0  0  0  0  0  0  0  0  0  0  0
  139.1661   68.2287  224.9256 H   0  0  0  0  0  0  0  0  0  0  0  0
  139.9088   68.1071  227.2649 H   0  0  0  0  0  0  0  0  0  0  0  0
  140.9410   69.1630  229.2535 H   0  0  0  0  0  0  0  0  0  0  0  0
  141.7126   71.5442  229.0802 H   0  0  0  0  0  0  0  0  0  0  0  0
  141.4267   72.7797  226.9470 H   0  0  0  0  0  0  0  0  0  0  0  0
  1  2  2  0
  2  3  1  0
  3  4  1  0
  4  5  1  0
  5  6  2  0
  5  7  1  0
  7  8  1  0
  8  9  1  0
  9 10  1  0
 10 11  1  0
 11 12  1  0
 12 13  2  0
 13 14  1  0
 14 15  2  0
 15 16  1  0
 16 17  2  0
 16 18  1  0
 15 19  1  0
 19 20  2  0
  2 21  1  0
 21 22  2  0
 22 23  1  0
 23 24  2  0
 24 25  1  0
 25 26  2  0
 26 27  1  0
 27 28  2  0
 28 29  1  0
 29 30  2  0
 11  7  1  0
 20 12  1  0
 30 21  1  0
 29 24  1  0
  3 31  1  0
  4 32  1  0
  4 33  1  0
  8 34  1  0
  8 35  1  0
  9 36  1  0
  9 37  1  0
 10 38  1  0
 10 39  1  0
 11 40  1  6
 13 41  1  0
 14 42  1  0
 19 43  1  0
 20 44  1  0
 22 45  1  0
 23 46  1  0
 25 47  1  0
 26 48  1  0
 27 49  1  0
 28 50  1  0
M  CHG  2  16   1  18  -1
M  END
>  <smiles>  (99) 
O=C(NCC(=O)N1CCCC1c1ccc([N+](=O)[O-])cc1)c1ccc2ccccc2n1

>  <score_type>  (99) 
oracle

>  <origin>  (99) 
autodockgpu

>  <m_score__min__energy>  (99) 
-9.4499999999999993

>  <m_primary>  (99) 
energy

>  <rmsd>  (99) 
2.384583510690646

>  <m_score__min__rmsd>  (99) 
2.384583510690646

>  <meeko>  (99) 
{"free_energy": -9.17, "intermolecular_energy": -10.96, "internal_energy": -1.74, "cluster_size": 37, "cluster_id": 2, "rank_in_cluster": 12}

>  <energy>  (99) 
-8.15

>  <cluster_rmsd>  (99) 
0.28

>  <cluster>  (99) 
4

$$$$

     RDKit          3D

 50 53  0  0  0  0  0  0  0  0999 V2000
  138.9920   70.6810  221.3650 O   0  0  0  0  0  0  0  0  0  0  0  0
  138.6660   71.2820  222.4430 C   0  0  0  0  0  0  0  0  0  0  0  0
  137.8410   72.4370  222.3510 N   0  0  0  0  0  0  0  0  0  0  0  0
  137.4270   72.8500  221.0280 C   0  0  0  0  0  0  0  0  0  0  0  0
  138.5820   73.2670  220.1970 C   0  0  0  0  0  0  0  0  0  0  0  0
  138.8080   72.7620  219.0670 O   0  0  0  0  0  0  0  0  0  0  0  0
  139.4840   74.2620  220.6500 N   0  0  0  0  0  0  0  0  0  0  0  0
  139.6810   74.7610  222.0180 C   0  0  0  0  0  0  0  0  0  0  0  0
  140.0830   76.2210  221.8770 C   0  0  0  0  0  0  0  0  0  0  0  0
  140.2400   76.4610  220.3890 C   0  0  0  0  0  0  0  0  0  0  0  0
  140.4470   75.0530  219.8720 C   0  0  1  0  0  0  0  0  0  0  0  0
  141.8210   74.5840  220.1170 C   0  0  0  0  0  0  0  0  0  0  0  0
  142.2010   73.3500  220.5320 C   0  0  0  0  0  0  0  0  0  0  0  0
  143.5440   73.0000  220.7280 C   0  0  0  0  0  0  0  0  0  0  0  0
  144.5530   73.9120  220.5020 C   0  0  0  0  0  0  0  0  0  0  0  0
  145.9040   73.5240  220.7110 N   0  0  0  0  0  4  0  0  0  0  0  0
  146.4090   73.6040  221.8500 O   0  0  0  0  0  0  0  0  0  0  0  0
  146.6890   73.0510  219.6650 O   0  0  0  0  0  1  0  0  0  0  0  0
  144.1780   75.1700  220.0800 C   0  0  0  0  0  0  0  0  0  0  0  0
  142.8460   75.5110  219.8880 C   0  0  0  0  0  0  0  0  0  0  0  0
  139.1240   70.8030  223.7450 C   0  0  0  0  0  0  0  0  0  0  0  0
  138.8290   69.4900  224.0980 C   0  0  0  0  0  0  0  0  0  0  0  0
  139.2390   68.9920  225.3160 C   0  0  0  0  0  0  0  0  0  0  0  0
  139.9460   69.7770  226.2020 C   0  0  0  0  0  0  0  0  0  0  0  0
  140.3810   69.3270  227.4330 C   0  0  0  0  0  0  0  0  0  0  0  0
  141.0880   70.1250  228.3080 C   0  0  0  0  0  0  0  0  0  0  0  0
  141.3620   71.4280  227.9170 C   0  0  0  0  0  0  0  0  0  0  0  0
  140.9240   71.8850  226.6730 C   0  0  0  0  0  0  0  0  0  0  0  0
  140.2170   71.0720  225.8080 C   0  0  0  0  0  0  0  0  0  0  0  0
  139.8140   71.5650  224.6090 N   0  0  0  0  0  0  0  0  0  0  0  0
  137.5430   72.9710  223.2200 H   0  0  0  0  0  0  0  0  0  0  0  0
  136.9183   72.0086  220.5348 H   0  0  0  0  0  0  0  0  0  0  0  0
  136.7517   73.7118  221.1335 H   0  0  0  0  0  0  0  0  0  0  0  0
  138.7480   74.6753  222.5943 H   0  0  0  0  0  0  0  0  0  0  0  0
  140.4483   74.1813  222.5521 H   0  0  0  0  0  0  0  0  0  0  0  0
  139.3018   76.8756  222.2908 H   0  0  0  0  0  0  0  0  0  0  0  0
  141.0116   76.4412  222.4240 H   0  0  0  0  0  0  0  0  0  0  0  0
  139.3364   76.9175  219.9588 H   0  0  0  0  0  0  0  0  0  0  0  0
  141.0533   77.1556  220.1318 H   0  0  0  0  0  0  0  0  0  0  0  0
  140.2992   74.9765  218.7846 H   0  0  0  0  0  0  0  0  0  0  0  0
  141.4248   72.5942  220.7222 H   0  0  0  0  0  0  0  0  0  0  0  0
  143.7963   71.9843  221.0666 H   0  0  0  0  0  0  0  0  0  0  0  0
  144.9558   75.9243  219.8902 H   0  0  0  0  0  0  0  0  0  0  0  0
  142.5911   76.5264  219.5503 H   0  0  0  0  0  0  0  0  0  0  0  0
  138.2673   68.8480  223.4035 H   0  0  0  0  0  0  0  0  0  0  0  0
  138.9986   67.9529  225.5852 H   0  0  0  0  0  0  0  0  0  0  0  0
  140.1547   68.2915  227.7272 H   0  0  0  0  0  0  0  0  0  0  0  0
  141.4234   69.7415  229.2829 H   0  0  0  0  0  0  0  0  0  0  0  0
  141.9225   72.0984  228.5852 H   0  0  0  0  0  0  0  0  0  0  0  0
  141.1475   72.9195  226.3734 H   0  0  0  0  0  0  0  0  0  0  0  0
  1  2  2  0
  2  3  1  0
  3  4  1  0
  4  5  1  0
  5  6  2  0
  5  7  1  0
  7  8  1  0
  8  9  1  0
  9 10  1  0
 10 11  1  0
 11 12  1  0
 12 13  2  0
 13 14  1  0
 14 15  2  0
 15 16  1  0
 16 17  2  0
 16 18  1  0
 15 19  1  0
 19 20  2  0
  2 21  1  0
 21 22  2  0
 22 23  1  0
 23 24  2  0
 24 25  1  0
 25 26  2  0
 26 27  1  0
 27 28  2  0
 28 29  1  0
 29 30  2  0
 11  7  1  0
 20 12  1  0
 30 21  1  0
 29 24  1  0
  3 31  1  0
  4 32  1  0
  4 33  1  0
  8 34  1  0
  8 35  1  0
  9 36  1  0
  9 37  1  0
 10 38  1  0
 10 39  1  0
 11 40  1  6
 13 41  1  0
 14 42  1  0
 19 43  1  0
 20 44  1  0
 22 45  1  0
 23 46  1  0
 25 47  1  0
 26 48  1  0
 27 49  1  0
 28 50  1  0
M  CHG  2  16   1  18  -1
M  END
>  <smiles>  (100) 
O=C(NCC(=O)N1CCCC1c1ccc([N+](=O)[O-])cc1)c1ccc2ccccc2n1

>  <score_type>  (100) 
oracle

>  <origin>  (100) 
autodockgpu

>  <m_score__min__energy>  (100) 
-9.4499999999999993

>  <m_primary>  (100) 
energy

>  <rmsd>  (100) 
2.239143085032487

>  <m_score__min__rmsd>  (100) 
2.239143085032487

>  <meeko>  (100) 
{"free_energy": -8.62, "intermolecular_energy": -10.41, "internal_energy": -1.73, "cluster_size": 37, "cluster_id": 2, "rank_in_cluster": 34}

>  <energy>  (100) 
-8.05

>  <cluster_rmsd>  (100) 
0.27

>  <cluster>  (100) 
4

$$$$
