
     RDKit          3D

 53 56  0  0  0  0  0  0  0  0999 V2000
  138.7660   71.5430  221.3440 O   0  0  0  0  0  0  0  0  0  0  0  0
  138.3930   71.7420  222.5330 C   0  0  0  0  0  0  0  0  0  0  0  0
  137.4250   72.7960  222.7210 N   0  0  0  0  0  0  0  0  0  0  0  0
  137.0060   73.4910  221.5640 C   0  0  0  0  0  0  0  0  0  0  0  0
  137.4300   74.8520  221.3290 C   0  0  0  0  0  0  0  0  0  0  0  0
  136.5110   75.7500  221.5630 O   0  0  0  0  0  0  0  0  0  0  0  0
  138.6810   75.3480  220.8880 N   0  0  0  0  0  0  0  0  0  0  0  0
  139.2550   76.6720  220.9540 C   0  0  0  0  0  0  0  0  0  0  0  0
  140.4170   76.5920  219.9320 C   0  0  1  0  0  0  0  0  0  0  0  0
  141.3800   77.6990  220.1750 C   0  0  2  0  0  0  0  0  0  0  0  0
  142.6970   77.1660  220.2770 O   0  0  0  0  0  0  0  0  0  0  0  0
  141.1240   78.5210  221.3700 C   0  0  0  0  0  0  0  0  0  0  0  0
  141.4550   78.2120  222.6540 C   0  0  0  0  0  0  0  0  0  0  0  0
  141.1760   79.0090  223.7530 C   0  0  0  0  0  0  0  0  0  0  0  0
  140.5080   80.2100  223.5290 C   0  0  0  0  0  0  0  0  0  0  0  0
  140.1590   80.5510  222.2400 C   0  0  0  0  0  0  0  0  0  0  0  0
  140.4550   79.7280  221.1620 C   0  0  0  0  0  0  0  0  0  0  0  0
  140.9710   75.2390  220.3510 C   0  0  1  0  0  0  0  0  0  0  0  0
  141.3350   75.3550  221.6850 O   0  0  0  0  0  0  0  0  0  0  0  0
  139.6690   74.4280  220.2650 C   0  0  0  0  0  0  0  0  0  0  0  0
  138.8970   70.9650  223.6520 C   0  0  0  0  0  0  0  0  0  0  0  0
  138.6880   69.5930  223.6030 C   0  0  0  0  0  0  0  0  0  0  0  0
  139.1310   68.7700  224.6170 C   0  0  0  0  0  0  0  0  0  0  0  0
  139.7920   69.3340  225.6950 C   0  0  0  0  0  0  0  0  0  0  0  0
  140.2150   68.4700  226.6790 C   0  0  0  0  0  0  0  0  0  0  0  0
  140.8900   69.0050  227.7820 C   0  0  0  0  0  0  0  0  0  0  0  0
  141.4620   67.9600  229.0740 Cl  0  0  0  0  0  0  0  0  0  0  0  0
  141.1040   70.3880  227.8350 C   0  0  0  0  0  0  0  0  0  0  0  0
  140.6550   71.2170  226.8150 C   0  0  0  0  0  0  0  0  0  0  0  0
  139.9890   70.6980  225.7270 C   0  0  0  0  0  0  0  0  0  0  0  0
  139.5400   71.4900  224.7060 N   0  0  0  0  0  0  0  0  0  0  0  0
  137.1440   72.9400  223.7060 H   0  0  0  0  0  0  0  0  0  0  0  0
  137.3492   72.9012  220.7012 H   0  0  0  0  0  0  0  0  0  0  0  0
  135.9218   73.5943  221.7182 H   0  0  0  0  0  0  0  0  0  0  0  0
  138.5212   77.4373  220.6609 H   0  0  0  0  0  0  0  0  0  0  0  0
  139.5823   76.9555  221.9652 H   0  0  0  0  0  0  0  0  0  0  0  0
  140.1628   76.6829  218.8657 H   0  0  0  0  0  0  0  0  0  0  0  0
  141.2563   78.3706  219.3127 H   0  0  0  0  0  0  0  0  0  0  0  0
  142.8610   76.8170  221.1760 H   0  0  0  0  0  0  0  0  0  0  0  0
  141.9812   77.2625  222.8317 H   0  0  0  0  0  0  0  0  0  0  0  0
  141.4721   78.7033  224.7673 H   0  0  0  0  0  0  0  0  0  0  0  0
  140.2624   80.8769  224.3686 H   0  0  0  0  0  0  0  0  0  0  0  0
  139.6322   81.4999  222.0608 H   0  0  0  0  0  0  0  0  0  0  0  0
  140.1625   80.0270  220.1446 H   0  0  0  0  0  0  0  0  0  0  0  0
  141.8247   74.8385  219.7846 H   0  0  0  0  0  0  0  0  0  0  0  0
  142.2430   75.6880  221.7920 H   0  0  0  0  0  0  0  0  0  0  0  0
  139.4049   74.2082  219.2201 H   0  0  0  0  0  0  0  0  0  0  0  0
  139.7283   73.4462  220.7575 H   0  0  0  0  0  0  0  0  0  0  0  0
  138.1610   69.1559  222.7421 H   0  0  0  0  0  0  0  0  0  0  0  0
  138.9621   67.6840  224.5702 H   0  0  0  0  0  0  0  0  0  0  0  0
  140.0278   67.3889  226.6008 H   0  0  0  0  0  0  0  0  0  0  0  0
  141.6342   70.8231  228.6950 H   0  0  0  0  0  0  0  0  0  0  0  0
  140.8334   72.3007  226.8769 H   0  0  0  0  0  0  0  0  0  0  0  0
  1  2  2  0
  2  3  1  0
  3  4  1  0
  4  5  1  0
  5  6  2  0
  5  7  1  0
  7  8  1  0
  8  9  1  0
  9 10  1  0
 10 11  1  0
 10 12  1  0
 12 13  2  0
 13 14  1  0
 14 15  2  0
 15 16  1  0
 16 17  2  0
  9 18  1  0
 18 19  1  0
 18 20  1  0
  2 21  1  0
 21 22  2  0
 22 23  1  0
 23 24  2  0
 24 25  1  0
 25 26  2  0
 26 27  1  0
 26 28  1  0
 28 29  2  0
 29 30  1  0
 30 31  2  0
 20  7  1  0
 31 21  1  0
 17 12  1  0
 30 24  1  0
  3 32  1  0
  4 33  1  0
  4 34  1  0
  8 35  1  0
  8 36  1  0
  9 37  1  6
 10 38  1  6
 11 39  1  0
 13 40  1  0
 14 41  1  0
 15 42  1  0
 16 43  1  0
 17 44  1  0
 18 45  1  6
 19 46  1  0
 20 47  1  0
 20 48  1  0
 22 49  1  0
 23 50  1  0
 25 51  1  0
 28 52  1  0
 29 53  1  0
M  END
>  <smiles>  (1) 
O=C(NCC(=O)N1C[C@@H]([C@H](O)c2ccccc2)[C@@H](O)C1)c1ccc2cc(Cl)ccc2n1

>  <score_type>  (1) 
oracle

>  <origin>  (1) 
autodockgpu

>  <m_score__min__energy>  (1) 
-8.5299999999999994

>  <m_primary>  (1) 
energy

>  <rmsd>  (1) 
2.367443550432675

>  <m_score__min__rmsd>  (1) 
2.367443550432675

>  <meeko>  (1) 
{"free_energy": -7.97, "intermolecular_energy": -10.35, "internal_energy": -2.3, "cluster_size": 15, "cluster_id": 3, "rank_in_cluster": 8}

>  <energy>  (1) 
-8.53

>  <cluster_rmsd>  (1) 
0.0

>  <cluster>  (1) 
1

$$$$

     RDKit          3D

 53 56  0  0  0  0  0  0  0  0999 V2000
  139.6480   71.9410  220.7230 O   0  0  0  0  0  0  0  0  0  0  0  0
  139.6720   72.4030  221.8980 C   0  0  0  0  0  0  0  0  0  0  0  0
  139.5360   73.8350  222.0120 N   0  0  0  0  0  0  0  0  0  0  0  0
  139.3970   74.5620  220.8080 C   0  0  0  0  0  0  0  0  0  0  0  0
  140.4020   74.4740  219.7740 C   0  0  0  0  0  0  0  0  0  0  0  0
  139.9380   74.6100  218.5600 O   0  0  0  0  0  0  0  0  0  0  0  0
  141.7980   74.2650  219.8830 N   0  0  0  0  0  0  0  0  0  0  0  0
  142.5860   73.0570  219.8110 C   0  0  0  0  0  0  0  0  0  0  0  0
  143.9390   73.4930  220.4280 C   0  0  1  0  0  0  0  0  0  0  0  0
  145.0030   72.5270  220.0460 C   0  0  2  0  0  0  0  0  0  0  0  0
  145.9760   73.1880  219.2440 O   0  0  0  0  0  0  0  0  0  0  0  0
  144.5500   71.3260  219.3240 C   0  0  0  0  0  0  0  0  0  0  0  0
  144.6450   71.1020  217.9840 C   0  0  0  0  0  0  0  0  0  0  0  0
  144.1860   69.9620  217.3420 C   0  0  0  0  0  0  0  0  0  0  0  0
  143.5850   68.9770  218.1220 C   0  0  0  0  0  0  0  0  0  0  0  0
  143.4750   69.1750  219.4820 C   0  0  0  0  0  0  0  0  0  0  0  0
  143.9460   70.3300  220.0920 C   0  0  0  0  0  0  0  0  0  0  0  0
  144.0780   74.8240  219.7040 C   0  0  1  0  0  0  0  0  0  0  0  0
  144.0890   74.5380  218.3470 O   0  0  0  0  0  0  0  0  0  0  0  0
  142.7120   75.4230  220.0720 C   0  0  0  0  0  0  0  0  0  0  0  0
  139.8270   71.5580  223.0690 C   0  0  0  0  0  0  0  0  0  0  0  0
  139.4120   70.2390  222.9450 C   0  0  0  0  0  0  0  0  0  0  0  0
  139.5180   69.3580  224.0010 C   0  0  0  0  0  0  0  0  0  0  0  0
  140.0480   69.8100  225.1970 C   0  0  0  0  0  0  0  0  0  0  0  0
  140.1350   68.8910  226.2180 C   0  0  0  0  0  0  0  0  0  0  0  0
  140.6680   69.3120  227.4410 C   0  0  0  0  0  0  0  0  0  0  0  0
  140.8120   68.1930  228.7880 Cl  0  0  0  0  0  0  0  0  0  0  0  0
  141.0890   70.6420  227.5710 C   0  0  0  0  0  0  0  0  0  0  0  0
  140.9780   71.5300  226.5080 C   0  0  0  0  0  0  0  0  0  0  0  0
  140.4540   71.1230  225.3020 C   0  0  0  0  0  0  0  0  0  0  0  0
  140.3370   71.9750  224.2380 N   0  0  0  0  0  0  0  0  0  0  0  0
  139.5660   74.1850  222.9860 H   0  0  0  0  0  0  0  0  0  0  0  0
  138.4490   74.2388  220.3533 H   0  0  0  0  0  0  0  0  0  0  0  0
  139.4785   75.6071  221.1414 H   0  0  0  0  0  0  0  0  0  0  0  0
  142.1256   72.2480  220.3971 H   0  0  0  0  0  0  0  0  0  0  0  0
  142.6809   72.6589  218.7900 H   0  0  0  0  0  0  0  0  0  0  0  0
  144.0032   73.5475  221.5248 H   0  0  0  0  0  0  0  0  0  0  0  0
  145.4109   72.1687  221.0027 H   0  0  0  0  0  0  0  0  0  0  0  0
  145.9620   74.1530  219.4070 H   0  0  0  0  0  0  0  0  0  0  0  0
  145.1192   71.8801  217.3678 H   0  0  0  0  0  0  0  0  0  0  0  0
  144.2928   69.8397  216.2540 H   0  0  0  0  0  0  0  0  0  0  0  0
  143.2037   68.0546  217.6597 H   0  0  0  0  0  0  0  0  0  0  0  0
  143.0018   68.3977  220.0999 H   0  0  0  0  0  0  0  0  0  0  0  0
  143.8430   70.4596  221.1795 H   0  0  0  0  0  0  0  0  0  0  0  0
  144.9536   75.4462  219.9409 H   0  0  0  0  0  0  0  0  0  0  0  0
  144.9790   74.6090  217.9610 H   0  0  0  0  0  0  0  0  0  0  0  0
  142.6989   75.7751  221.1140 H   0  0  0  0  0  0  0  0  0  0  0  0
  142.4397   76.3025  219.4700 H   0  0  0  0  0  0  0  0  0  0  0  0
  138.9921   69.8911  221.9897 H   0  0  0  0  0  0  0  0  0  0  0  0
  139.1871   68.3144  223.8945 H   0  0  0  0  0  0  0  0  0  0  0  0
  139.7949   67.8545  226.0763 H   0  0  0  0  0  0  0  0  0  0  0  0
  141.5124   70.9873  228.5257 H   0  0  0  0  0  0  0  0  0  0  0  0
  141.3128   72.5705  226.6317 H   0  0  0  0  0  0  0  0  0  0  0  0
  1  2  2  0
  2  3  1  0
  3  4  1  0
  4  5  1  0
  5  6  2  0
  5  7  1  0
  7  8  1  0
  8  9  1  0
  9 10  1  0
 10 11  1  0
 10 12  1  0
 12 13  2  0
 13 14  1  0
 14 15  2  0
 15 16  1  0
 16 17  2  0
  9 18  1  0
 18 19  1  0
 18 20  1  0
  2 21  1  0
 21 22  2  0
 22 23  1  0
 23 24  2  0
 24 25  1  0
 25 26  2  0
 26 27  1  0
 26 28  1  0
 28 29  2  0
 29 30  1  0
 30 31  2  0
 20  7  1  0
 31 21  1  0
 17 12  1  0
 30 24  1  0
  3 32  1  0
  4 33  1  0
  4 34  1  0
  8 35  1  0
  8 36  1  0
  9 37  1  1
 10 38  1  1
 11 39  1  0
 13 40  1  0
 14 41  1  0
 15 42  1  0
 16 43  1  0
 17 44  1  0
 18 45  1  1
 19 46  1  0
 20 47  1  0
 20 48  1  0
 22 49  1  0
 23 50  1  0
 25 51  1  0
 28 52  1  0
 29 53  1  0
M  END
>  <smiles>  (2) 
O=C(NCC(=O)N1C[C@@H]([C@H](O)c2ccccc2)[C@@H](O)C1)c1ccc2cc(Cl)ccc2n1

>  <score_type>  (2) 
oracle

>  <origin>  (2) 
autodockgpu

>  <m_score__min__energy>  (2) 
-8.5299999999999994

>  <m_primary>  (2) 
energy

>  <rmsd>  (2) 
2.998415099276844

>  <m_score__min__rmsd>  (2) 
2.998415099276844

>  <meeko>  (2) 
{"free_energy": -8.0, "intermolecular_energy": -10.39, "internal_energy": -2.43, "cluster_size": 4, "cluster_id": 4, "rank_in_cluster": 2}

>  <energy>  (2) 
-8.51

>  <cluster_rmsd>  (2) 
0.16

>  <cluster>  (2) 
1

$$$$

     RDKit          3D

 53 56  0  0  0  0  0  0  0  0999 V2000
  136.2090   75.6060  221.4010 O   0  0  0  0  0  0  0  0  0  0  0  0
  137.2730   75.2480  221.9810 C   0  0  0  0  0  0  0  0  0  0  0  0
  137.3520   73.8550  222.3440 N   0  0  0  0  0  0  0  0  0  0  0  0
  136.2400   73.0450  222.0200 C   0  0  0  0  0  0  0  0  0  0  0  0
  136.2600   71.6250  222.2860 C   0  0  0  0  0  0  0  0  0  0  0  0
  135.1070   71.0320  222.1260 O   0  0  0  0  0  0  0  0  0  0  0  0
  137.3330   70.7940  222.6890 N   0  0  0  0  0  0  0  0  0  0  0  0
  137.8930   70.5330  223.9940 C   0  0  0  0  0  0  0  0  0  0  0  0
  139.2650   69.8970  223.6570 C   0  0  1  0  0  0  0  0  0  0  0  0
  139.7910   69.1710  224.8440 C   0  0  2  0  0  0  0  0  0  0  0  0
  138.8050   68.2600  225.3170 O   0  0  0  0  0  0  0  0  0  0  0  0
  140.2190   70.0140  225.9730 C   0  0  0  0  0  0  0  0  0  0  0  0
  140.7260   71.2750  225.8970 C   0  0  0  0  0  0  0  0  0  0  0  0
  141.1360   72.0270  226.9880 C   0  0  0  0  0  0  0  0  0  0  0  0
  141.0220   71.4500  228.2500 C   0  0  0  0  0  0  0  0  0  0  0  0
  140.5120   70.1740  228.3600 C   0  0  0  0  0  0  0  0  0  0  0  0
  140.1110   69.4510  227.2450 C   0  0  0  0  0  0  0  0  0  0  0  0
  138.7930   68.9510  222.5630 C   0  0  1  0  0  0  0  0  0  0  0  0
  137.8540   68.1100  223.1430 O   0  0  0  0  0  0  0  0  0  0  0  0
  138.0600   69.9750  221.6830 C   0  0  0  0  0  0  0  0  0  0  0  0
  138.3550   76.1720  222.2690 C   0  0  0  0  0  0  0  0  0  0  0  0
  139.6450   75.7110  222.0460 C   0  0  0  0  0  0  0  0  0  0  0  0
  140.7400   76.5140  222.2890 C   0  0  0  0  0  0  0  0  0  0  0  0
  140.5350   77.7970  222.7640 C   0  0  0  0  0  0  0  0  0  0  0  0
  141.6590   78.5590  222.9880 C   0  0  0  0  0  0  0  0  0  0  0  0
  141.4890   79.8630  223.4660 C   0  0  0  0  0  0  0  0  0  0  0  0
  142.8800   80.8920  223.7720 Cl  0  0  0  0  0  0  0  0  0  0  0  0
  140.1890   80.3340  223.6920 C   0  0  0  0  0  0  0  0  0  0  0  0
  139.0880   79.5230  223.4500 C   0  0  0  0  0  0  0  0  0  0  0  0
  139.2470   78.2380  222.9810 C   0  0  0  0  0  0  0  0  0  0  0  0
  138.1800   77.4200  222.7300 N   0  0  0  0  0  0  0  0  0  0  0  0
  138.2320   73.5930  222.8240 H   0  0  0  0  0  0  0  0  0  0  0  0
  135.3809   73.4558  222.5705 H   0  0  0  0  0  0  0  0  0  0  0  0
  136.2165   73.0886  220.9211 H   0  0  0  0  0  0  0  0  0  0  0  0
  138.0177   71.4647  224.5654 H   0  0  0  0  0  0  0  0  0  0  0  0
  137.2570   69.8905  224.6206 H   0  0  0  0  0  0  0  0  0  0  0  0
  140.0818   70.5753  223.3695 H   0  0  0  0  0  0  0  0  0  0  0  0
  140.6988   68.6659  224.4824 H   0  0  0  0  0  0  0  0  0  0  0  0
  138.8990   67.3890  224.8810 H   0  0  0  0  0  0  0  0  0  0  0  0
  140.8170   71.7299  224.8996 H   0  0  0  0  0  0  0  0  0  0  0  0
  141.5371   73.0433  226.8607 H   0  0  0  0  0  0  0  0  0  0  0  0
  141.3346   72.0047  229.1470 H   0  0  0  0  0  0  0  0  0  0  0  0
  140.4205   69.7173  229.3565 H   0  0  0  0  0  0  0  0  0  0  0  0
  139.7082   68.4344  227.3642 H   0  0  0  0  0  0  0  0  0  0  0  0
  139.5518   68.3373  222.0554 H   0  0  0  0  0  0  0  0  0  0  0  0
  137.7200   68.3010  224.0870 H   0  0  0  0  0  0  0  0  0  0  0  0
  138.7704   70.5877  221.1086 H   0  0  0  0  0  0  0  0  0  0  0  0
  137.4026   69.5175  220.9290 H   0  0  0  0  0  0  0  0  0  0  0  0
  139.7967   74.6887  221.6694 H   0  0  0  0  0  0  0  0  0  0  0  0
  141.7587   76.1405  222.1082 H   0  0  0  0  0  0  0  0  0  0  0  0
  142.6636   78.1539  222.7965 H   0  0  0  0  0  0  0  0  0  0  0  0
  140.0387   81.3577  224.0653 H   0  0  0  0  0  0  0  0  0  0  0  0
  138.0759   79.9120  223.6353 H   0  0  0  0  0  0  0  0  0  0  0  0
  1  2  2  0
  2  3  1  0
  3  4  1  0
  4  5  1  0
  5  6  2  0
  5  7  1  0
  7  8  1  0
  8  9  1  0
  9 10  1  0
 10 11  1  0
 10 12  1  0
 12 13  2  0
 13 14  1  0
 14 15  2  0
 15 16  1  0
 16 17  2  0
  9 18  1  0
 18 19  1  0
 18 20  1  0
  2 21  1  0
 21 22  2  0
 22 23  1  0
 23 24  2  0
 24 25  1  0
 25 26  2  0
 26 27  1  0
 26 28  1  0
 28 29  2  0
 29 30  1  0
 30 31  2  0
 20  7  1  0
 31 21  1  0
 17 12  1  0
 30 24  1  0
  3 32  1  0
  4 33  1  0
  4 34  1  0
  8 35  1  0
  8 36  1  0
  9 37  1  6
 10 38  1  6
 11 39  1  0
 13 40  1  0
 14 41  1  0
 15 42  1  0
 16 43  1  0
 17 44  1  0
 18 45  1  6
 19 46  1  0
 20 47  1  0
 20 48  1  0
 22 49  1  0
 23 50  1  0
 25 51  1  0
 28 52  1  0
 29 53  1  0
M  END
>  <smiles>  (3) 
O=C(NCC(=O)N1C[C@@H]([C@H](O)c2ccccc2)[C@@H](O)C1)c1ccc2cc(Cl)ccc2n1

>  <score_type>  (3) 
oracle

>  <origin>  (3) 
autodockgpu

>  <m_score__min__energy>  (3) 
-8.5299999999999994

>  <m_primary>  (3) 
energy

>  <rmsd>  (3) 
8.121857757975704

>  <m_score__min__rmsd>  (3) 
8.121857757975704

>  <meeko>  (3) 
{"free_energy": -8.23, "intermolecular_energy": -10.62, "internal_energy": -2.02, "cluster_size": 16, "cluster_id": 2, "rank_in_cluster": 2}

>  <energy>  (3) 
-8.29

>  <cluster_rmsd>  (3) 
0.29

>  <cluster>  (3) 
1

$$$$

     RDKit          3D

 53 56  0  0  0  0  0  0  0  0999 V2000
  139.5700   73.0270  221.4260 O   0  0  0  0  0  0  0  0  0  0  0  0
  138.7200   72.3060  222.0200 C   0  0  0  0  0  0  0  0  0  0  0  0
  137.3850   72.3320  221.4760 N   0  0  0  0  0  0  0  0  0  0  0  0
  137.1700   73.1580  220.3480 C   0  0  0  0  0  0  0  0  0  0  0  0
  137.3640   74.5870  220.4350 C   0  0  0  0  0  0  0  0  0  0  0  0
  136.2560   75.2790  220.4580 O   0  0  0  0  0  0  0  0  0  0  0  0
  138.5630   75.3360  220.4980 N   0  0  0  0  0  0  0  0  0  0  0  0
  139.2030   76.0140  221.6020 C   0  0  0  0  0  0  0  0  0  0  0  0
  140.2060   76.9560  220.8900 C   0  0  1  0  0  0  0  0  0  0  0  0
  141.2460   77.4070  221.8530 C   0  0  2  0  0  0  0  0  0  0  0  0
  141.4370   76.4050  222.8470 O   0  0  0  0  0  0  0  0  0  0  0  0
  140.9780   78.6850  222.5340 C   0  0  0  0  0  0  0  0  0  0  0  0
  139.7590   79.1670  222.9020 C   0  0  0  0  0  0  0  0  0  0  0  0
  139.5510   80.3890  223.5250 C   0  0  0  0  0  0  0  0  0  0  0  0
  140.6670   81.1780  223.7910 C   0  0  0  0  0  0  0  0  0  0  0  0
  141.9150   80.7160  223.4300 C   0  0  0  0  0  0  0  0  0  0  0  0
  142.0860   79.4880  222.8070 C   0  0  0  0  0  0  0  0  0  0  0  0
  140.7480   75.9570  219.8790 C   0  0  1  0  0  0  0  0  0  0  0  0
  141.3000   74.9130  220.6070 O   0  0  0  0  0  0  0  0  0  0  0  0
  139.4100   75.4910  219.2850 C   0  0  0  0  0  0  0  0  0  0  0  0
  139.0530   71.4980  223.1790 C   0  0  0  0  0  0  0  0  0  0  0  0
  138.4600   70.2450  223.2570 C   0  0  0  0  0  0  0  0  0  0  0  0
  138.7140   69.4020  224.3190 C   0  0  0  0  0  0  0  0  0  0  0  0
  139.5750   69.8260  225.3170 C   0  0  0  0  0  0  0  0  0  0  0  0
  139.7970   68.9480  226.3530 C   0  0  0  0  0  0  0  0  0  0  0  0
  140.6640   69.3410  227.3780 C   0  0  0  0  0  0  0  0  0  0  0  0
  140.9970   68.2700  228.7300 Cl  0  0  0  0  0  0  0  0  0  0  0  0
  141.2660   70.6040  227.3040 C   0  0  0  0  0  0  0  0  0  0  0  0
  141.0070   71.4530  226.2350 C   0  0  0  0  0  0  0  0  0  0  0  0
  140.1540   71.0730  225.2230 C   0  0  0  0  0  0  0  0  0  0  0  0
  139.8850   71.8880  224.1580 N   0  0  0  0  0  0  0  0  0  0  0  0
  136.7090   71.7380  221.9870 H   0  0  0  0  0  0  0  0  0  0  0  0
  137.8463   72.7961  219.5596 H   0  0  0  0  0  0  0  0  0  0  0  0
  136.0870   73.0664  220.1787 H   0  0  0  0  0  0  0  0  0  0  0  0
  138.4726   76.5863  222.1928 H   0  0  0  0  0  0  0  0  0  0  0  0
  139.6813   75.3280  222.3166 H   0  0  0  0  0  0  0  0  0  0  0  0
  139.8102   77.8884  220.4610 H   0  0  0  0  0  0  0  0  0  0  0  0
  142.1424   77.5737  221.2376 H   0  0  0  0  0  0  0  0  0  0  0  0
  142.0010   75.6820  222.5060 H   0  0  0  0  0  0  0  0  0  0  0  0
  138.8775   78.5440  222.6906 H   0  0  0  0  0  0  0  0  0  0  0  0
  138.5395   80.7230  223.7993 H   0  0  0  0  0  0  0  0  0  0  0  0
  140.5547   82.1559  224.2821 H   0  0  0  0  0  0  0  0  0  0  0  0
  142.7979   81.3371  223.6414 H   0  0  0  0  0  0  0  0  0  0  0  0
  143.0943   79.1478  222.5286 H   0  0  0  0  0  0  0  0  0  0  0  0
  141.4950   76.3165  219.1560 H   0  0  0  0  0  0  0  0  0  0  0  0
  140.8650   74.7940  221.4690 H   0  0  0  0  0  0  0  0  0  0  0  0
  138.9931   76.2453  218.6015 H   0  0  0  0  0  0  0  0  0  0  0  0
  139.4903   74.5738  218.6831 H   0  0  0  0  0  0  0  0  0  0  0  0
  137.7766   69.9192  222.4590 H   0  0  0  0  0  0  0  0  0  0  0  0
  138.2408   68.4104  224.3720 H   0  0  0  0  0  0  0  0  0  0  0  0
  139.3061   67.9639  226.3746 H   0  0  0  0  0  0  0  0  0  0  0  0
  141.9515   70.9271  228.1013 H   0  0  0  0  0  0  0  0  0  0  0  0
  141.4893   72.4409  226.1967 H   0  0  0  0  0  0  0  0  0  0  0  0
  1  2  2  0
  2  3  1  0
  3  4  1  0
  4  5  1  0
  5  6  2  0
  5  7  1  0
  7  8  1  0
  8  9  1  0
  9 10  1  0
 10 11  1  0
 10 12  1  0
 12 13  2  0
 13 14  1  0
 14 15  2  0
 15 16  1  0
 16 17  2  0
  9 18  1  0
 18 19  1  0
 18 20  1  0
  2 21  1  0
 21 22  2  0
 22 23  1  0
 23 24  2  0
 24 25  1  0
 25 26  2  0
 26 27  1  0
 26 28  1  0
 28 29  2  0
 29 30  1  0
 30 31  2  0
 20  7  1  0
 31 21  1  0
 17 12  1  0
 30 24  1  0
  3 32  1  0
  4 33  1  0
  4 34  1  0
  8 35  1  0
  8 36  1  0
  9 37  1  6
 10 38  1  6
 11 39  1  0
 13 40  1  0
 14 41  1  0
 15 42  1  0
 16 43  1  0
 17 44  1  0
 18 45  1  6
 19 46  1  0
 20 47  1  0
 20 48  1  0
 22 49  1  0
 23 50  1  0
 25 51  1  0
 28 52  1  0
 29 53  1  0
M  END
>  <smiles>  (4) 
O=C(NCC(=O)N1C[C@@H]([C@H](O)c2ccccc2)[C@@H](O)C1)c1ccc2cc(Cl)ccc2n1

>  <score_type>  (4) 
oracle

>  <origin>  (4) 
autodockgpu

>  <m_score__min__energy>  (4) 
-8.5299999999999994

>  <m_primary>  (4) 
energy

>  <rmsd>  (4) 
2.7929660486364343

>  <m_score__min__rmsd>  (4) 
2.7929660486364343

>  <meeko>  (4) 
{"free_energy": -6.87, "intermolecular_energy": -9.25, "internal_energy": -2.77, "cluster_size": 15, "cluster_id": 3, "rank_in_cluster": 15}

>  <energy>  (4) 
-8.13

>  <cluster_rmsd>  (4) 
1.04

>  <cluster>  (4) 
1

$$$$

     RDKit          3D

 53 56  0  0  0  0  0  0  0  0999 V2000
  139.5210   71.7700  221.3690 O   0  0  0  0  0  0  0  0  0  0  0  0
  138.9630   71.8730  222.4970 C   0  0  0  0  0  0  0  0  0  0  0  0
  137.7620   72.6720  222.5340 N   0  0  0  0  0  0  0  0  0  0  0  0
  137.3440   73.2530  221.3160 C   0  0  0  0  0  0  0  0  0  0  0  0
  137.5980   74.6490  221.0390 C   0  0  0  0  0  0  0  0  0  0  0  0
  136.5280   75.3460  220.7650 O   0  0  0  0  0  0  0  0  0  0  0  0
  138.8220   75.3600  221.0240 N   0  0  0  0  0  0  0  0  0  0  0  0
  139.3230   76.4060  221.8840 C   0  0  0  0  0  0  0  0  0  0  0  0
  140.4910   77.0000  221.0570 C   0  0  1  0  0  0  0  0  0  0  0  0
  141.3930   77.7810  221.9450 C   0  0  2  0  0  0  0  0  0  0  0  0
  141.4500   77.1620  223.2250 O   0  0  0  0  0  0  0  0  0  0  0  0
  141.0360   79.1980  222.1350 C   0  0  0  0  0  0  0  0  0  0  0  0
  140.0030   79.6810  222.8780 C   0  0  0  0  0  0  0  0  0  0  0  0
  139.6900   81.0250  223.0130 C   0  0  0  0  0  0  0  0  0  0  0  0
  140.4890   81.9460  222.3410 C   0  0  0  0  0  0  0  0  0  0  0  0
  141.5440   81.4870  221.5800 C   0  0  0  0  0  0  0  0  0  0  0  0
  141.8270   80.1330  221.4670 C   0  0  0  0  0  0  0  0  0  0  0  0
  141.1160   75.6880  220.6080 C   0  0  1  0  0  0  0  0  0  0  0  0
  141.4700   75.0010  221.7600 O   0  0  0  0  0  0  0  0  0  0  0  0
  139.8600   75.0350  220.0100 C   0  0  0  0  0  0  0  0  0  0  0  0
  139.4870   71.2340  223.6910 C   0  0  0  0  0  0  0  0  0  0  0  0
  140.5150   71.8930  224.3520 C   0  0  0  0  0  0  0  0  0  0  0  0
  141.0790   71.3660  225.4950 C   0  0  0  0  0  0  0  0  0  0  0  0
  140.6030   70.1600  225.9800 C   0  0  0  0  0  0  0  0  0  0  0  0
  141.1970   69.6790  227.1240 C   0  0  0  0  0  0  0  0  0  0  0  0
  140.7400   68.4630  227.6440 C   0  0  0  0  0  0  0  0  0  0  0  0
  141.4500   67.7900  229.1040 Cl  0  0  0  0  0  0  0  0  0  0  0  0
  139.7030   67.7940  226.9810 C   0  0  0  0  0  0  0  0  0  0  0  0
  139.1380   68.3240  225.8280 C   0  0  0  0  0  0  0  0  0  0  0  0
  139.5830   69.5190  225.3100 C   0  0  0  0  0  0  0  0  0  0  0  0
  139.0420   70.0650  224.1790 N   0  0  0  0  0  0  0  0  0  0  0  0
  137.3320   72.7440  223.4730 H   0  0  0  0  0  0  0  0  0  0  0  0
  137.8285   72.6798  220.5118 H   0  0  0  0  0  0  0  0  0  0  0  0
  136.2471   73.2130  221.3888 H   0  0  0  0  0  0  0  0  0  0  0  0
  138.5496   77.1637  222.0783 H   0  0  0  0  0  0  0  0  0  0  0  0
  139.6315   76.0440  222.8759 H   0  0  0  0  0  0  0  0  0  0  0  0
  140.2354   77.6989  220.2469 H   0  0  0  0  0  0  0  0  0  0  0  0
  142.3635   77.7792  221.4273 H   0  0  0  0  0  0  0  0  0  0  0  0
  142.1070   76.4360  223.2300 H   0  0  0  0  0  0  0  0  0  0  0  0
  139.3716   78.9535  223.4091 H   0  0  0  0  0  0  0  0  0  0  0  0
  138.8399   81.3522  223.6297 H   0  0  0  0  0  0  0  0  0  0  0  0
  140.2821   83.0238  222.4158 H   0  0  0  0  0  0  0  0  0  0  0  0
  142.1774   82.2129  221.0490 H   0  0  0  0  0  0  0  0  0  0  0  0
  142.6744   79.7973  220.8512 H   0  0  0  0  0  0  0  0  0  0  0  0
  141.9921   75.7399  219.9449 H   0  0  0  0  0  0  0  0  0  0  0  0
  142.2210   75.4130  222.2200 H   0  0  0  0  0  0  0  0  0  0  0  0
  139.6115   75.4713  219.0313 H   0  0  0  0  0  0  0  0  0  0  0  0
  139.9705   73.9568  219.8221 H   0  0  0  0  0  0  0  0  0  0  0  0
  140.8855   72.8507  223.9577 H   0  0  0  0  0  0  0  0  0  0  0  0
  141.8930   71.8949  226.0123 H   0  0  0  0  0  0  0  0  0  0  0  0
  142.0086   70.2349  227.6162 H   0  0  0  0  0  0  0  0  0  0  0  0
  139.3318   66.8377  227.3781 H   0  0  0  0  0  0  0  0  0  0  0  0
  138.3250   67.7820  225.3228 H   0  0  0  0  0  0  0  0  0  0  0  0
  1  2  2  0
  2  3  1  0
  3  4  1  0
  4  5  1  0
  5  6  2  0
  5  7  1  0
  7  8  1  0
  8  9  1  0
  9 10  1  0
 10 11  1  0
 10 12  1  0
 12 13  2  0
 13 14  1  0
 14 15  2  0
 15 16  1  0
 16 17  2  0
  9 18  1  0
 18 19  1  0
 18 20  1  0
  2 21  1  0
 21 22  2  0
 22 23  1  0
 23 24  2  0
 24 25  1  0
 25 26  2  0
 26 27  1  0
 26 28  1  0
 28 29  2  0
 29 30  1  0
 30 31  2  0
 20  7  1  0
 31 21  1  0
 17 12  1  0
 30 24  1  0
  3 32  1  0
  4 33  1  0
  4 34  1  0
  8 35  1  0
  8 36  1  0
  9 37  1  6
 10 38  1  6
 11 39  1  0
 13 40  1  0
 14 41  1  0
 15 42  1  0
 16 43  1  0
 17 44  1  0
 18 45  1  6
 19 46  1  0
 20 47  1  0
 20 48  1  0
 22 49  1  0
 23 50  1  0
 25 51  1  0
 28 52  1  0
 29 53  1  0
M  END
>  <smiles>  (5) 
O=C(NCC(=O)N1C[C@@H]([C@H](O)c2ccccc2)[C@@H](O)C1)c1ccc2cc(Cl)ccc2n1

>  <score_type>  (5) 
oracle

>  <origin>  (5) 
autodockgpu

>  <m_score__min__energy>  (5) 
-8.5299999999999994

>  <m_primary>  (5) 
energy

>  <rmsd>  (5) 
3.570580313749696

>  <m_score__min__rmsd>  (5) 
3.570580313749696

>  <meeko>  (5) 
{"free_energy": -8.18, "intermolecular_energy": -10.56, "internal_energy": -2.25, "cluster_size": 15, "cluster_id": 3, "rank_in_cluster": 2}

>  <energy>  (5) 
-8.12

>  <cluster_rmsd>  (5) 
0.91

>  <cluster>  (5) 
1

$$$$

     RDKit          3D

 53 56  0  0  0  0  0  0  0  0999 V2000
  134.6350   70.5930  227.1250 O   0  0  0  0  0  0  0  0  0  0  0  0
  133.6140   71.0690  226.5550 C   0  0  0  0  0  0  0  0  0  0  0  0
  132.9630   70.2000  225.6050 N   0  0  0  0  0  0  0  0  0  0  0  0
  133.5350   68.9220  225.4110 C   0  0  0  0  0  0  0  0  0  0  0  0
  134.5740   68.7220  224.4270 C   0  0  0  0  0  0  0  0  0  0  0  0
  134.3580   67.7240  223.6120 O   0  0  0  0  0  0  0  0  0  0  0  0
  135.7750   69.4410  224.2190 N   0  0  0  0  0  0  0  0  0  0  0  0
  137.0990   69.2590  224.7680 C   0  0  0  0  0  0  0  0  0  0  0  0
  137.7870   70.6130  224.4600 C   0  0  1  0  0  0  0  0  0  0  0  0
  139.2630   70.4620  224.5550 C   0  0  2  0  0  0  0  0  0  0  0  0
  139.6320   69.1460  224.1570 O   0  0  0  0  0  0  0  0  0  0  0  0
  139.8510   70.7240  225.8800 C   0  0  0  0  0  0  0  0  0  0  0  0
  139.6270   70.0150  227.0200 C   0  0  0  0  0  0  0  0  0  0  0  0
  140.1870   70.3090  228.2540 C   0  0  0  0  0  0  0  0  0  0  0  0
  141.0380   71.4080  228.3320 C   0  0  0  0  0  0  0  0  0  0  0  0
  141.2850   72.1460  227.1940 C   0  0  0  0  0  0  0  0  0  0  0  0
  140.7060   71.8220  225.9750 C   0  0  0  0  0  0  0  0  0  0  0  0
  137.3120   70.7660  223.0230 C   0  0  1  0  0  0  0  0  0  0  0  0
  137.7890   69.6640  222.3270 O   0  0  0  0  0  0  0  0  0  0  0  0
  135.8060   70.5820  223.2640 C   0  0  0  0  0  0  0  0  0  0  0  0
  133.1150   72.4040  226.8300 C   0  0  0  0  0  0  0  0  0  0  0  0
  131.8720   72.4920  227.4420 C   0  0  0  0  0  0  0  0  0  0  0  0
  131.3130   73.7170  227.7440 C   0  0  0  0  0  0  0  0  0  0  0  0
  132.0130   74.8670  227.4260 C   0  0  0  0  0  0  0  0  0  0  0  0
  131.4130   76.0630  227.7510 C   0  0  0  0  0  0  0  0  0  0  0  0
  132.0940   77.2470  227.4460 C   0  0  0  0  0  0  0  0  0  0  0  0
  131.3900   78.8090  227.8350 Cl  0  0  0  0  0  0  0  0  0  0  0  0
  133.3490   77.1640  226.8290 C   0  0  0  0  0  0  0  0  0  0  0  0
  133.9090   75.9300  226.5220 C   0  0  0  0  0  0  0  0  0  0  0  0
  133.2450   74.7610  226.8180 C   0  0  0  0  0  0  0  0  0  0  0  0
  133.7760   73.5330  226.5300 N   0  0  0  0  0  0  0  0  0  0  0  0
  132.1330   70.6190  225.1490 H   0  0  0  0  0  0  0  0  0  0  0  0
  133.9563   68.6156  226.3799 H   0  0  0  0  0  0  0  0  0  0  0  0
  132.6966   68.3363  225.0058 H   0  0  0  0  0  0  0  0  0  0  0  0
  137.0567   69.0734  225.8514 H   0  0  0  0  0  0  0  0  0  0  0  0
  137.6308   68.3939  224.3452 H   0  0  0  0  0  0  0  0  0  0  0  0
  137.5576   71.4614  225.1215 H   0  0  0  0  0  0  0  0  0  0  0  0
  139.6651   71.2375  223.8865 H   0  0  0  0  0  0  0  0  0  0  0  0
  139.0020   68.7950  223.4950 H   0  0  0  0  0  0  0  0  0  0  0  0
  138.9539   69.1472  226.9580 H   0  0  0  0  0  0  0  0  0  0  0  0
  139.9666   69.6955  229.1400 H   0  0  0  0  0  0  0  0  0  0  0  0
  141.5067   71.6837  229.2882 H   0  0  0  0  0  0  0  0  0  0  0  0
  141.9582   73.0139  227.2537 H   0  0  0  0  0  0  0  0  0  0  0  0
  140.9212   72.4307  225.0844 H   0  0  0  0  0  0  0  0  0  0  0  0
  137.6039   71.6788  222.4830 H   0  0  0  0  0  0  0  0  0  0  0  0
  138.7580   69.6700  222.2470 H   0  0  0  0  0  0  0  0  0  0  0  0
  135.3602   71.4847  223.7072 H   0  0  0  0  0  0  0  0  0  0  0  0
  135.2313   70.4019  222.3435 H   0  0  0  0  0  0  0  0  0  0  0  0
  131.3242   71.5709  227.6900 H   0  0  0  0  0  0  0  0  0  0  0  0
  130.3277   73.7780  228.2293 H   0  0  0  0  0  0  0  0  0  0  0  0
  130.4263   76.0871  228.2367 H   0  0  0  0  0  0  0  0  0  0  0  0
  133.8971   78.0859  226.5849 H   0  0  0  0  0  0  0  0  0  0  0  0
  134.8951   75.8866  226.0365 H   0  0  0  0  0  0  0  0  0  0  0  0
  1  2  2  0
  2  3  1  0
  3  4  1  0
  4  5  1  0
  5  6  2  0
  5  7  1  0
  7  8  1  0
  8  9  1  0
  9 10  1  0
 10 11  1  0
 10 12  1  0
 12 13  2  0
 13 14  1  0
 14 15  2  0
 15 16  1  0
 16 17  2  0
  9 18  1  0
 18 19  1  0
 18 20  1  0
  2 21  1  0
 21 22  2  0
 22 23  1  0
 23 24  2  0
 24 25  1  0
 25 26  2  0
 26 27  1  0
 26 28  1  0
 28 29  2  0
 29 30  1  0
 30 31  2  0
 20  7  1  0
 31 21  1  0
 17 12  1  0
 30 24  1  0
  3 32  1  0
  4 33  1  0
  4 34  1  0
  8 35  1  0
  8 36  1  0
  9 37  1  1
 10 38  1  6
 11 39  1  0
 13 40  1  0
 14 41  1  0
 15 42  1  0
 16 43  1  0
 17 44  1  0
 18 45  1  6
 19 46  1  0
 20 47  1  0
 20 48  1  0
 22 49  1  0
 23 50  1  0
 25 51  1  0
 28 52  1  0
 29 53  1  0
M  END
>  <smiles>  (6) 
O=C(NCC(=O)N1C[C@@H]([C@H](O)c2ccccc2)[C@@H](O)C1)c1ccc2cc(Cl)ccc2n1

>  <score_type>  (6) 
oracle

>  <origin>  (6) 
autodockgpu

>  <m_score__min__energy>  (6) 
-8.5299999999999994

>  <m_primary>  (6) 
energy

>  <rmsd>  (6) 
9.138218263307255

>  <m_score__min__rmsd>  (6) 
9.138218263307255

>  <meeko>  (6) 
{"free_energy": -7.91, "intermolecular_energy": -10.3, "internal_energy": -2.33, "cluster_size": 10, "cluster_id": 1, "rank_in_cluster": 9}

>  <energy>  (6) 
-7.97

>  <cluster_rmsd>  (6) 
1.17

>  <cluster>  (6) 
1

$$$$

     RDKit          3D

 53 56  0  0  0  0  0  0  0  0999 V2000
  137.6240   74.1840  220.6430 O   0  0  0  0  0  0  0  0  0  0  0  0
  137.6430   74.7560  221.7680 C   0  0  0  0  0  0  0  0  0  0  0  0
  136.6310   74.3320  222.7050 N   0  0  0  0  0  0  0  0  0  0  0  0
  135.7310   73.3340  222.2660 C   0  0  0  0  0  0  0  0  0  0  0  0
  136.0270   71.9350  222.4700 C   0  0  0  0  0  0  0  0  0  0  0  0
  134.9870   71.1490  222.3900 O   0  0  0  0  0  0  0  0  0  0  0  0
  137.2630   71.3000  222.7390 N   0  0  0  0  0  0  0  0  0  0  0  0
  137.8200   70.7880  223.9690 C   0  0  0  0  0  0  0  0  0  0  0  0
  139.3230   70.6330  223.6270 C   0  0  1  0  0  0  0  0  0  0  0  0
  139.9730   69.7220  224.6060 C   0  0  2  0  0  0  0  0  0  0  0  0
  139.1270   68.6030  224.8450 O   0  0  0  0  0  0  0  0  0  0  0  0
  140.3210   70.3220  225.9060 C   0  0  0  0  0  0  0  0  0  0  0  0
  139.9670   69.8550  227.1350 C   0  0  0  0  0  0  0  0  0  0  0  0
  140.3010   70.4630  228.3350 C   0  0  0  0  0  0  0  0  0  0  0  0
  141.0500   71.6360  228.2800 C   0  0  0  0  0  0  0  0  0  0  0  0
  141.4240   72.1330  227.0490 C   0  0  0  0  0  0  0  0  0  0  0  0
  141.0720   71.4970  225.8670 C   0  0  0  0  0  0  0  0  0  0  0  0
  139.1590   69.9900  222.2580 C   0  0  1  0  0  0  0  0  0  0  0  0
  138.4520   68.8130  222.4550 O   0  0  0  0  0  0  0  0  0  0  0  0
  138.2190   71.0310  221.6320 C   0  0  0  0  0  0  0  0  0  0  0  0
  138.6170   75.7770  222.1110 C   0  0  0  0  0  0  0  0  0  0  0  0
  139.9530   75.4540  221.9200 C   0  0  0  0  0  0  0  0  0  0  0  0
  140.9530   76.3570  222.2150 C   0  0  0  0  0  0  0  0  0  0  0  0
  140.6040   77.6020  222.7100 C   0  0  0  0  0  0  0  0  0  0  0  0
  141.6370   78.4670  222.9860 C   0  0  0  0  0  0  0  0  0  0  0  0
  141.3210   79.7360  223.4840 C   0  0  0  0  0  0  0  0  0  0  0  0
  142.5900   80.8940  223.8560 Cl  0  0  0  0  0  0  0  0  0  0  0  0
  139.9740   80.0680  223.6780 C   0  0  0  0  0  0  0  0  0  0  0  0
  138.9680   79.1560  223.3830 C   0  0  0  0  0  0  0  0  0  0  0  0
  139.2710   77.9050  222.8930 C   0  0  0  0  0  0  0  0  0  0  0  0
  138.3010   76.9900  222.5910 N   0  0  0  0  0  0  0  0  0  0  0  0
  136.6670   74.8230  223.6160 H   0  0  0  0  0  0  0  0  0  0  0  0
  134.7735   73.5298  222.7709 H   0  0  0  0  0  0  0  0  0  0  0  0
  135.7658   73.4357  221.1713 H   0  0  0  0  0  0  0  0  0  0  0  0
  137.6731   71.4980  224.7962 H   0  0  0  0  0  0  0  0  0  0  0  0
  137.3505   69.8509  224.3027 H   0  0  0  0  0  0  0  0  0  0  0  0
  139.9446   71.5403  223.6471 H   0  0  0  0  0  0  0  0  0  0  0  0
  140.9273   69.4419  224.1360 H   0  0  0  0  0  0  0  0  0  0  0  0
  138.4510   68.5230  224.1430 H   0  0  0  0  0  0  0  0  0  0  0  0
  139.3739   68.9296  227.1787 H   0  0  0  0  0  0  0  0  0  0  0  0
  139.9854   70.0340  229.2975 H   0  0  0  0  0  0  0  0  0  0  0  0
  141.3388   72.1580  229.2042 H   0  0  0  0  0  0  0  0  0  0  0  0
  142.0171   73.0582  227.0030 H   0  0  0  0  0  0  0  0  0  0  0  0
  141.3848   71.9188  224.9004 H   0  0  0  0  0  0  0  0  0  0  0  0
  140.0715   69.7633  221.6871 H   0  0  0  0  0  0  0  0  0  0  0  0
  139.0230   68.0830  222.7510 H   0  0  0  0  0  0  0  0  0  0  0  0
  138.7661   71.9420  221.3477 H   0  0  0  0  0  0  0  0  0  0  0  0
  137.7353   70.6875  220.7057 H   0  0  0  0  0  0  0  0  0  0  0  0
  140.2188   74.4616  221.5269 H   0  0  0  0  0  0  0  0  0  0  0  0
  142.0094   76.0926  222.0597 H   0  0  0  0  0  0  0  0  0  0  0  0
  142.6829   78.1695  222.8198 H   0  0  0  0  0  0  0  0  0  0  0  0
  139.7097   81.0619  224.0683 H   0  0  0  0  0  0  0  0  0  0  0  0
  137.9165   79.4367  223.5428 H   0  0  0  0  0  0  0  0  0  0  0  0
  1  2  2  0
  2  3  1  0
  3  4  1  0
  4  5  1  0
  5  6  2  0
  5  7  1  0
  7  8  1  0
  8  9  1  0
  9 10  1  0
 10 11  1  0
 10 12  1  0
 12 13  2  0
 13 14  1  0
 14 15  2  0
 15 16  1  0
 16 17  2  0
  9 18  1  0
 18 19  1  0
 18 20  1  0
  2 21  1  0
 21 22  2  0
 22 23  1  0
 23 24  2  0
 24 25  1  0
 25 26  2  0
 26 27  1  0
 26 28  1  0
 28 29  2  0
 29 30  1  0
 30 31  2  0
 20  7  1  0
 31 21  1  0
 17 12  1  0
 30 24  1  0
  3 32  1  0
  4 33  1  0
  4 34  1  0
  8 35  1  0
  8 36  1  0
  9 37  1  6
 10 38  1  6
 11 39  1  0
 13 40  1  0
 14 41  1  0
 15 42  1  0
 16 43  1  0
 17 44  1  0
 18 45  1  6
 19 46  1  0
 20 47  1  0
 20 48  1  0
 22 49  1  0
 23 50  1  0
 25 51  1  0
 28 52  1  0
 29 53  1  0
M  END
>  <smiles>  (7) 
O=C(NCC(=O)N1C[C@@H]([C@H](O)c2ccccc2)[C@@H](O)C1)c1ccc2cc(Cl)ccc2n1

>  <score_type>  (7) 
oracle

>  <origin>  (7) 
autodockgpu

>  <m_score__min__energy>  (7) 
-8.5299999999999994

>  <m_primary>  (7) 
energy

>  <rmsd>  (7) 
7.785755404461441

>  <m_score__min__rmsd>  (7) 
7.785755404461441

>  <meeko>  (7) 
{"free_energy": -7.82, "intermolecular_energy": -10.2, "internal_energy": -2.45, "cluster_size": 16, "cluster_id": 2, "rank_in_cluster": 8}

>  <energy>  (7) 
-7.94

>  <cluster_rmsd>  (7) 
1.18

>  <cluster>  (7) 
1

$$$$

     RDKit          3D

 53 56  0  0  0  0  0  0  0  0999 V2000
  137.6140   74.1790  220.6820 O   0  0  0  0  0  0  0  0  0  0  0  0
  137.6340   74.7580  221.8030 C   0  0  0  0  0  0  0  0  0  0  0  0
  136.6260   74.3390  222.7450 N   0  0  0  0  0  0  0  0  0  0  0  0
  135.7270   73.3360  222.3150 C   0  0  0  0  0  0  0  0  0  0  0  0
  136.1580   71.9610  222.2000 C   0  0  0  0  0  0  0  0  0  0  0  0
  135.2620   71.1570  221.6940 O   0  0  0  0  0  0  0  0  0  0  0  0
  137.3940   71.3670  222.5520 N   0  0  0  0  0  0  0  0  0  0  0  0
  137.8970   70.9010  223.8230 C   0  0  0  0  0  0  0  0  0  0  0  0
  139.4190   70.7790  223.5650 C   0  0  1  0  0  0  0  0  0  0  0  0
  140.0390   69.9100  224.6010 C   0  0  2  0  0  0  0  0  0  0  0  0
  139.1720   68.8170  224.8830 O   0  0  0  0  0  0  0  0  0  0  0  0
  140.3760   70.5710  225.8740 C   0  0  0  0  0  0  0  0  0  0  0  0
  141.1100   71.7070  226.0280 C   0  0  0  0  0  0  0  0  0  0  0  0
  141.4210   72.2840  227.2500 C   0  0  0  0  0  0  0  0  0  0  0  0
  140.9480   71.6580  228.4000 C   0  0  0  0  0  0  0  0  0  0  0  0
  140.2010   70.5060  228.2760 C   0  0  0  0  0  0  0  0  0  0  0  0
  139.9100   69.9550  227.0360 C   0  0  0  0  0  0  0  0  0  0  0  0
  139.3470   70.0970  222.2070 C   0  0  1  0  0  0  0  0  0  0  0  0
  138.6610   68.9070  222.3960 O   0  0  0  0  0  0  0  0  0  0  0  0
  138.4150   71.0970  221.5040 C   0  0  0  0  0  0  0  0  0  0  0  0
  138.6060   75.7850  222.1360 C   0  0  0  0  0  0  0  0  0  0  0  0
  139.9410   75.4740  221.9190 C   0  0  0  0  0  0  0  0  0  0  0  0
  140.9390   76.3830  222.2040 C   0  0  0  0  0  0  0  0  0  0  0  0
  140.5890   77.6200  222.7140 C   0  0  0  0  0  0  0  0  0  0  0  0
  141.6200   78.4920  222.9790 C   0  0  0  0  0  0  0  0  0  0  0  0
  141.3030   79.7540  223.4930 C   0  0  0  0  0  0  0  0  0  0  0  0
  142.5690   80.9190  223.8520 Cl  0  0  0  0  0  0  0  0  0  0  0  0
  139.9570   80.0730  223.7140 C   0  0  0  0  0  0  0  0  0  0  0  0
  138.9540   79.1560  223.4300 C   0  0  0  0  0  0  0  0  0  0  0  0
  139.2580   77.9120  222.9240 C   0  0  0  0  0  0  0  0  0  0  0  0
  138.2890   76.9910  222.6320 N   0  0  0  0  0  0  0  0  0  0  0  0
  136.6620   74.8360  223.6520 H   0  0  0  0  0  0  0  0  0  0  0  0
  134.8852   73.3436  223.0230 H   0  0  0  0  0  0  0  0  0  0  0  0
  135.5242   73.6184  221.2714 H   0  0  0  0  0  0  0  0  0  0  0  0
  137.6875   71.6270  224.6224 H   0  0  0  0  0  0  0  0  0  0  0  0
  137.4347   69.9601  224.1561 H   0  0  0  0  0  0  0  0  0  0  0  0
  140.0139   71.7038  223.5937 H   0  0  0  0  0  0  0  0  0  0  0  0
  140.9962   69.5920  224.1620 H   0  0  0  0  0  0  0  0  0  0  0  0
  138.5600   68.6580  224.1360 H   0  0  0  0  0  0  0  0  0  0  0  0
  141.4826   72.2021  225.1192 H   0  0  0  0  0  0  0  0  0  0  0  0
  142.0206   73.2043  227.3087 H   0  0  0  0  0  0  0  0  0  0  0  0
  141.1672   72.0766  229.3934 H   0  0  0  0  0  0  0  0  0  0  0  0
  139.8258   70.0106  229.1836 H   0  0  0  0  0  0  0  0  0  0  0  0
  139.3127   69.0337  226.9693 H   0  0  0  0  0  0  0  0  0  0  0  0
  140.2950   69.8806  221.6928 H   0  0  0  0  0  0  0  0  0  0  0  0
  139.2170   68.2200  222.8020 H   0  0  0  0  0  0  0  0  0  0  0  0
  138.9528   72.0152  221.2255 H   0  0  0  0  0  0  0  0  0  0  0  0
  137.9911   70.7180  220.5624 H   0  0  0  0  0  0  0  0  0  0  0  0
  140.2077   74.4870  221.5133 H   0  0  0  0  0  0  0  0  0  0  0  0
  141.9946   76.1283  222.0286 H   0  0  0  0  0  0  0  0  0  0  0  0
  142.6651   78.2046  222.7918 H   0  0  0  0  0  0  0  0  0  0  0  0
  139.6917   81.0614  224.1172 H   0  0  0  0  0  0  0  0  0  0  0  0
  137.9034   79.4266  223.6115 H   0  0  0  0  0  0  0  0  0  0  0  0
  1  2  2  0
  2  3  1  0
  3  4  1  0
  4  5  1  0
  5  6  2  0
  5  7  1  0
  7  8  1  0
  8  9  1  0
  9 10  1  0
 10 11  1  0
 10 12  1  0
 12 13  2  0
 13 14  1  0
 14 15  2  0
 15 16  1  0
 16 17  2  0
  9 18  1  0
 18 19  1  0
 18 20  1  0
  2 21  1  0
 21 22  2  0
 22 23  1  0
 23 24  2  0
 24 25  1  0
 25 26  2  0
 26 27  1  0
 26 28  1  0
 28 29  2  0
 29 30  1  0
 30 31  2  0
 20  7  1  0
 31 21  1  0
 17 12  1  0
 30 24  1  0
  3 32  1  0
  4 33  1  0
  4 34  1  0
  8 35  1  0
  8 36  1  0
  9 37  1  6
 10 38  1  6
 11 39  1  0
 13 40  1  0
 14 41  1  0
 15 42  1  0
 16 43  1  0
 17 44  1  0
 18 45  1  6
 19 46  1  0
 20 47  1  0
 20 48  1  0
 22 49  1  0
 23 50  1  0
 25 51  1  0
 28 52  1  0
 29 53  1  0
M  END
>  <smiles>  (8) 
O=C(NCC(=O)N1C[C@@H]([C@H](O)c2ccccc2)[C@@H](O)C1)c1ccc2cc(Cl)ccc2n1

>  <score_type>  (8) 
oracle

>  <origin>  (8) 
autodockgpu

>  <m_score__min__energy>  (8) 
-8.5299999999999994

>  <m_primary>  (8) 
energy

>  <rmsd>  (8) 
7.730201908619923

>  <m_score__min__rmsd>  (8) 
7.730201908619923

>  <meeko>  (8) 
{"free_energy": -7.76, "intermolecular_energy": -10.15, "internal_energy": -2.49, "cluster_size": 16, "cluster_id": 2, "rank_in_cluster": 12}

>  <energy>  (8) 
-7.94

>  <cluster_rmsd>  (8) 
1.13

>  <cluster>  (8) 
1

$$$$

     RDKit          3D

 53 56  0  0  0  0  0  0  0  0999 V2000
  137.1510   71.1190  221.3960 O   0  0  0  0  0  0  0  0  0  0  0  0
  137.8070   71.6840  222.3150 C   0  0  0  0  0  0  0  0  0  0  0  0
  137.9490   73.1150  222.1980 N   0  0  0  0  0  0  0  0  0  0  0  0
  137.3470   73.7270  221.0750 C   0  0  0  0  0  0  0  0  0  0  0  0
  138.1410   74.4900  220.1390 C   0  0  0  0  0  0  0  0  0  0  0  0
  137.7310   74.4150  218.9010 O   0  0  0  0  0  0  0  0  0  0  0  0
  139.2820   75.2960  220.3650 N   0  0  0  0  0  0  0  0  0  0  0  0
  139.5470   76.3090  221.3600 C   0  0  0  0  0  0  0  0  0  0  0  0
  140.7700   77.0560  220.7700 C   0  0  1  0  0  0  0  0  0  0  0  0
  141.4490   77.8370  221.8390 C   0  0  2  0  0  0  0  0  0  0  0  0
  141.2340   77.2040  223.0960 O   0  0  0  0  0  0  0  0  0  0  0  0
  141.0430   79.2470  221.9590 C   0  0  0  0  0  0  0  0  0  0  0  0
  141.3950   80.2660  221.1270 C   0  0  0  0  0  0  0  0  0  0  0  0
  141.0040   81.5870  221.2900 C   0  0  0  0  0  0  0  0  0  0  0  0
  140.1960   81.8930  222.3820 C   0  0  0  0  0  0  0  0  0  0  0  0
  139.8230   80.8820  223.2420 C   0  0  0  0  0  0  0  0  0  0  0  0
  140.2330   79.5700  223.0480 C   0  0  0  0  0  0  0  0  0  0  0  0
  141.5730   75.8370  220.3450 C   0  0  1  0  0  0  0  0  0  0  0  0
  141.8050   75.0940  221.4930 O   0  0  0  0  0  0  0  0  0  0  0  0
  140.4900   75.1340  219.5130 C   0  0  0  0  0  0  0  0  0  0  0  0
  138.3890   70.9510  223.4250 C   0  0  0  0  0  0  0  0  0  0  0  0
  138.0720   69.6020  223.5160 C   0  0  0  0  0  0  0  0  0  0  0  0
  138.5750   68.8200  224.5350 C   0  0  0  0  0  0  0  0  0  0  0  0
  139.4080   69.4020  225.4740 C   0  0  0  0  0  0  0  0  0  0  0  0
  139.8860   68.5790  226.4680 C   0  0  0  0  0  0  0  0  0  0  0  0
  140.7330   69.1330  227.4340 C   0  0  0  0  0  0  0  0  0  0  0  0
  141.3830   68.1410  228.7300 Cl  0  0  0  0  0  0  0  0  0  0  0  0
  141.0570   70.4930  227.3470 C   0  0  0  0  0  0  0  0  0  0  0  0
  140.5470   71.2810  226.3220 C   0  0  0  0  0  0  0  0  0  0  0  0
  139.7120   70.7430  225.3690 C   0  0  0  0  0  0  0  0  0  0  0  0
  139.1980   71.4940  224.3470 N   0  0  0  0  0  0  0  0  0  0  0  0
  138.4970   73.5490  222.9620 H   0  0  0  0  0  0  0  0  0  0  0  0
  136.8670   72.9228  220.4980 H   0  0  0  0  0  0  0  0  0  0  0  0
  136.6993   74.4915  221.5289 H   0  0  0  0  0  0  0  0  0  0  0  0
  138.6873   76.9854  221.4758 H   0  0  0  0  0  0  0  0  0  0  0  0
  139.7300   75.8973  222.3635 H   0  0  0  0  0  0  0  0  0  0  0  0
  140.5805   77.7922  219.9749 H   0  0  0  0  0  0  0  0  0  0  0  0
  142.5086   77.8511  221.5439 H   0  0  0  0  0  0  0  0  0  0  0  0
  141.8280   76.4330  223.2020 H   0  0  0  0  0  0  0  0  0  0  0  0
  142.0344   80.0247  220.2650 H   0  0  0  0  0  0  0  0  0  0  0  0
  141.3213   82.3659  220.5810 H   0  0  0  0  0  0  0  0  0  0  0  0
  139.8603   82.9260  222.5559 H   0  0  0  0  0  0  0  0  0  0  0  0
  139.1837   81.1213  224.1046 H   0  0  0  0  0  0  0  0  0  0  0  0
  139.9194   78.7855  223.7525 H   0  0  0  0  0  0  0  0  0  0  0  0
  142.5327   76.0095  219.8358 H   0  0  0  0  0  0  0  0  0  0  0  0
  142.3190   75.5870  222.1550 H   0  0  0  0  0  0  0  0  0  0  0  0
  140.3575   75.6230  218.5366 H   0  0  0  0  0  0  0  0  0  0  0  0
  140.7261   74.0857  219.2777 H   0  0  0  0  0  0  0  0  0  0  0  0
  137.4092   69.1498  222.7635 H   0  0  0  0  0  0  0  0  0  0  0  0
  138.3183   67.7523  224.5999 H   0  0  0  0  0  0  0  0  0  0  0  0
  139.6097   67.5148  226.5021 H   0  0  0  0  0  0  0  0  0  0  0  0
  141.7227   70.9425  228.0985 H   0  0  0  0  0  0  0  0  0  0  0  0
  140.8137   72.3470  226.2717 H   0  0  0  0  0  0  0  0  0  0  0  0
  1  2  2  0
  2  3  1  0
  3  4  1  0
  4  5  1  0
  5  6  2  0
  5  7  1  0
  7  8  1  0
  8  9  1  0
  9 10  1  0
 10 11  1  0
 10 12  1  0
 12 13  2  0
 13 14  1  0
 14 15  2  0
 15 16  1  0
 16 17  2  0
  9 18  1  0
 18 19  1  0
 18 20  1  0
  2 21  1  0
 21 22  2  0
 22 23  1  0
 23 24  2  0
 24 25  1  0
 25 26  2  0
 26 27  1  0
 26 28  1  0
 28 29  2  0
 29 30  1  0
 30 31  2  0
 20  7  1  0
 31 21  1  0
 17 12  1  0
 30 24  1  0
  3 32  1  0
  4 33  1  0
  4 34  1  0
  8 35  1  0
  8 36  1  0
  9 37  1  6
 10 38  1  6
 11 39  1  0
 13 40  1  0
 14 41  1  0
 15 42  1  0
 16 43  1  0
 17 44  1  0
 18 45  1  6
 19 46  1  0
 20 47  1  0
 20 48  1  0
 22 49  1  0
 23 50  1  0
 25 51  1  0
 28 52  1  0
 29 53  1  0
M  END
>  <smiles>  (9) 
O=C(NCC(=O)N1C[C@@H]([C@H](O)c2ccccc2)[C@@H](O)C1)c1ccc2cc(Cl)ccc2n1

>  <score_type>  (9) 
oracle

>  <origin>  (9) 
autodockgpu

>  <m_score__min__energy>  (9) 
-8.5299999999999994

>  <m_primary>  (9) 
energy

>  <rmsd>  (9) 
2.7649484402266378

>  <m_score__min__rmsd>  (9) 
2.7649484402266378

>  <meeko>  (9) 
{"free_energy": -7.76, "intermolecular_energy": -10.15, "internal_energy": -2.24, "cluster_size": 15, "cluster_id": 3, "rank_in_cluster": 13}

>  <energy>  (9) 
-7.91

>  <cluster_rmsd>  (9) 
1.14

>  <cluster>  (9) 
1

$$$$

     RDKit          3D

 53 56  0  0  0  0  0  0  0  0999 V2000
  137.0210   73.9140  220.4540 O   0  0  0  0  0  0  0  0  0  0  0  0
  137.3420   74.2360  221.6320 C   0  0  0  0  0  0  0  0  0  0  0  0
  136.6490   73.5350  222.6850 N   0  0  0  0  0  0  0  0  0  0  0  0
  135.6890   72.5750  222.2910 C   0  0  0  0  0  0  0  0  0  0  0  0
  136.0600   71.1880  222.1280 C   0  0  0  0  0  0  0  0  0  0  0  0
  135.1870   70.4730  221.4700 O   0  0  0  0  0  0  0  0  0  0  0  0
  137.2150   70.5010  222.5700 N   0  0  0  0  0  0  0  0  0  0  0  0
  137.7300   70.2660  223.8990 C   0  0  0  0  0  0  0  0  0  0  0  0
  139.1960   69.8450  223.6290 C   0  0  1  0  0  0  0  0  0  0  0  0
  139.7510   69.1520  224.8220 C   0  0  2  0  0  0  0  0  0  0  0  0
  138.8200   68.1760  225.2780 O   0  0  0  0  0  0  0  0  0  0  0  0
  140.1040   70.0170  225.9600 C   0  0  0  0  0  0  0  0  0  0  0  0
  140.8590   71.1500  225.9140 C   0  0  0  0  0  0  0  0  0  0  0  0
  141.1840   71.9250  227.0160 C   0  0  0  0  0  0  0  0  0  0  0  0
  140.7070   71.5160  228.2580 C   0  0  0  0  0  0  0  0  0  0  0  0
  139.9400   70.3730  228.3380 C   0  0  0  0  0  0  0  0  0  0  0  0
  139.6340   69.6210  227.2120 C   0  0  0  0  0  0  0  0  0  0  0  0
  138.9290   68.8890  222.4760 C   0  0  1  0  0  0  0  0  0  0  0  0
  138.0890   67.9000  222.9670 O   0  0  0  0  0  0  0  0  0  0  0  0
  138.1100   69.8360  221.5860 C   0  0  0  0  0  0  0  0  0  0  0  0
  138.3440   75.2460  221.9220 C   0  0  0  0  0  0  0  0  0  0  0  0
  139.6690   74.8910  221.7020 C   0  0  0  0  0  0  0  0  0  0  0  0
  140.6930   75.7820  221.9470 C   0  0  0  0  0  0  0  0  0  0  0  0
  140.3820   77.0450  222.4190 C   0  0  0  0  0  0  0  0  0  0  0  0
  141.4390   77.8960  222.6450 C   0  0  0  0  0  0  0  0  0  0  0  0
  141.1610   79.1830  223.1200 C   0  0  0  0  0  0  0  0  0  0  0  0
  142.4620   80.3240  223.4280 Cl  0  0  0  0  0  0  0  0  0  0  0  0
  139.8270   79.5460  223.3420 C   0  0  0  0  0  0  0  0  0  0  0  0
  138.7960   78.6470  223.0990 C   0  0  0  0  0  0  0  0  0  0  0  0
  139.0610   77.3790  222.6320 C   0  0  0  0  0  0  0  0  0  0  0  0
  138.0650   76.4760  222.3800 N   0  0  0  0  0  0  0  0  0  0  0  0
  136.9280   73.8250  223.6390 H   0  0  0  0  0  0  0  0  0  0  0  0
  134.8901   72.6003  223.0467 H   0  0  0  0  0  0  0  0  0  0  0  0
  135.4372   72.8847  221.2660 H   0  0  0  0  0  0  0  0  0  0  0  0
  137.6862   71.1807  224.5085 H   0  0  0  0  0  0  0  0  0  0  0  0
  137.1573   69.5139  224.4615 H   0  0  0  0  0  0  0  0  0  0  0  0
  139.9225   70.6432  223.4168 H   0  0  0  0  0  0  0  0  0  0  0  0
  140.6960   68.7103  224.4728 H   0  0  0  0  0  0  0  0  0  0  0  0
  138.0800   68.0800  224.6440 H   0  0  0  0  0  0  0  0  0  0  0  0
  141.2374   71.4725  224.9328 H   0  0  0  0  0  0  0  0  0  0  0  0
  141.7977   72.8320  226.9127 H   0  0  0  0  0  0  0  0  0  0  0  0
  140.9387   72.0966  229.1631 H   0  0  0  0  0  0  0  0  0  0  0  0
  139.5611   70.0489  229.3185 H   0  0  0  0  0  0  0  0  0  0  0  0
  139.0208   68.7127  227.3072 H   0  0  0  0  0  0  0  0  0  0  0  0
  139.7957   68.4102  221.9969 H   0  0  0  0  0  0  0  0  0  0  0  0
  138.5800   67.1720  223.3840 H   0  0  0  0  0  0  0  0  0  0  0  0
  138.7579   70.5666  221.0796 H   0  0  0  0  0  0  0  0  0  0  0  0
  137.5704   69.3228  220.7764 H   0  0  0  0  0  0  0  0  0  0  0  0
  139.9050   73.8843  221.3268 H   0  0  0  0  0  0  0  0  0  0  0  0
  141.7396   75.4933  221.7701 H   0  0  0  0  0  0  0  0  0  0  0  0
  142.4740   77.5740  222.4576 H   0  0  0  0  0  0  0  0  0  0  0  0
  139.5926   80.5546  223.7131 H   0  0  0  0  0  0  0  0  0  0  0  0
  137.7551   78.9519  223.2819 H   0  0  0  0  0  0  0  0  0  0  0  0
  1  2  2  0
  2  3  1  0
  3  4  1  0
  4  5  1  0
  5  6  2  0
  5  7  1  0
  7  8  1  0
  8  9  1  0
  9 10  1  0
 10 11  1  0
 10 12  1  0
 12 13  2  0
 13 14  1  0
 14 15  2  0
 15 16  1  0
 16 17  2  0
  9 18  1  0
 18 19  1  0
 18 20  1  0
  2 21  1  0
 21 22  2  0
 22 23  1  0
 23 24  2  0
 24 25  1  0
 25 26  2  0
 26 27  1  0
 26 28  1  0
 28 29  2  0
 29 30  1  0
 30 31  2  0
 20  7  1  0
 31 21  1  0
 17 12  1  0
 30 24  1  0
  3 32  1  0
  4 33  1  0
  4 34  1  0
  8 35  1  0
  8 36  1  0
  9 37  1  6
 10 38  1  6
 11 39  1  0
 13 40  1  0
 14 41  1  0
 15 42  1  0
 16 43  1  0
 17 44  1  0
 18 45  1  6
 19 46  1  0
 20 47  1  0
 20 48  1  0
 22 49  1  0
 23 50  1  0
 25 51  1  0
 28 52  1  0
 29 53  1  0
M  END
>  <smiles>  (10) 
O=C(NCC(=O)N1C[C@@H]([C@H](O)c2ccccc2)[C@@H](O)C1)c1ccc2cc(Cl)ccc2n1

>  <score_type>  (10) 
oracle

>  <origin>  (10) 
autodockgpu

>  <m_score__min__energy>  (10) 
-8.5299999999999994

>  <m_primary>  (10) 
energy

>  <rmsd>  (10) 
7.867286874814338

>  <m_score__min__rmsd>  (10) 
7.867286874814338

>  <meeko>  (10) 
{"free_energy": -8.0, "intermolecular_energy": -10.38, "internal_energy": -2.29, "cluster_size": 16, "cluster_id": 2, "rank_in_cluster": 4}

>  <energy>  (10) 
-7.67

>  <cluster_rmsd>  (10) 
0.81

>  <cluster>  (10) 
1

$$$$

     RDKit          3D

 53 56  0  0  0  0  0  0  0  0999 V2000
  136.0810   71.8570  224.0030 O   0  0  0  0  0  0  0  0  0  0  0  0
  134.8720   72.1220  224.2500 C   0  0  0  0  0  0  0  0  0  0  0  0
  133.9080   71.1600  223.7730 N   0  0  0  0  0  0  0  0  0  0  0  0
  134.4150   70.0360  223.0820 C   0  0  0  0  0  0  0  0  0  0  0  0
  135.3200   69.1170  223.7350 C   0  0  0  0  0  0  0  0  0  0  0  0
  134.7280   68.1620  224.4000 O   0  0  0  0  0  0  0  0  0  0  0  0
  136.7350   69.1020  223.7570 N   0  0  0  0  0  0  0  0  0  0  0  0
  137.6690   69.1710  224.8570 C   0  0  0  0  0  0  0  0  0  0  0  0
  139.0010   69.5330  224.1540 C   0  0  1  0  0  0  0  0  0  0  0  0
  140.1460   69.2220  225.0500 C   0  0  2  0  0  0  0  0  0  0  0  0
  139.9410   67.9510  225.6570 O   0  0  0  0  0  0  0  0  0  0  0  0
  140.4110   70.2030  226.1160 C   0  0  0  0  0  0  0  0  0  0  0  0
  141.2130   71.3000  226.0270 C   0  0  0  0  0  0  0  0  0  0  0  0
  141.4500   72.1890  227.0650 C   0  0  0  0  0  0  0  0  0  0  0  0
  140.8250   71.9410  228.2840 C   0  0  0  0  0  0  0  0  0  0  0  0
  140.0070   70.8370  228.4050 C   0  0  0  0  0  0  0  0  0  0  0  0
  139.7920   69.9690  227.3440 C   0  0  0  0  0  0  0  0  0  0  0  0
  138.8940   68.5580  222.9910 C   0  0  1  0  0  0  0  0  0  0  0  0
  138.8190   67.2880  223.5440 O   0  0  0  0  0  0  0  0  0  0  0  0
  137.4990   68.9600  222.4890 C   0  0  0  0  0  0  0  0  0  0  0  0
  134.4630   73.3160  224.9670 C   0  0  0  0  0  0  0  0  0  0  0  0
  135.2140   74.4630  224.7480 C   0  0  0  0  0  0  0  0  0  0  0  0
  134.9040   75.6490  225.3820 C   0  0  0  0  0  0  0  0  0  0  0  0
  133.8260   75.6800  226.2490 C   0  0  0  0  0  0  0  0  0  0  0  0
  133.5570   76.8860  226.8540 C   0  0  0  0  0  0  0  0  0  0  0  0
  132.4720   76.9560  227.7350 C   0  0  0  0  0  0  0  0  0  0  0  0
  132.0690   78.4640  228.5410 Cl  0  0  0  0  0  0  0  0  0  0  0  0
  131.7110   75.8020  227.9590 C   0  0  0  0  0  0  0  0  0  0  0  0
  132.0250   74.6080  227.3220 C   0  0  0  0  0  0  0  0  0  0  0  0
  133.0920   74.5310  226.4550 C   0  0  0  0  0  0  0  0  0  0  0  0
  133.4210   73.3700  225.8120 N   0  0  0  0  0  0  0  0  0  0  0  0
  132.9250   71.4080  223.9830 H   0  0  0  0  0  0  0  0  0  0  0  0
  133.5445   69.4453  222.7606 H   0  0  0  0  0  0  0  0  0  0  0  0
  135.0449   70.4897  222.3027 H   0  0  0  0  0  0  0  0  0  0  0  0
  137.3765   69.9496  225.5769 H   0  0  0  0  0  0  0  0  0  0  0  0
  137.7237   68.2404  225.4409 H   0  0  0  0  0  0  0  0  0  0  0  0
  139.1564   70.5845  223.8707 H   0  0  0  0  0  0  0  0  0  0  0  0
  141.0276   69.2432  224.3924 H   0  0  0  0  0  0  0  0  0  0  0  0
  140.3200   67.2370  225.1040 H   0  0  0  0  0  0  0  0  0  0  0  0
  141.7077   71.4948  225.0640 H   0  0  0  0  0  0  0  0  0  0  0  0
  142.1087   73.0595  226.9297 H   0  0  0  0  0  0  0  0  0  0  0  0
  140.9813   72.6158  229.1385 H   0  0  0  0  0  0  0  0  0  0  0  0
  139.5123   70.6396  229.3675 H   0  0  0  0  0  0  0  0  0  0  0  0
  139.1338   69.0969  227.4712 H   0  0  0  0  0  0  0  0  0  0  0  0
  139.6964   68.5697  222.2386 H   0  0  0  0  0  0  0  0  0  0  0  0
  138.9730   67.2930  224.5040 H   0  0  0  0  0  0  0  0  0  0  0  0
  137.5331   69.9102  221.9359 H   0  0  0  0  0  0  0  0  0  0  0  0
  137.0578   68.2367  221.7875 H   0  0  0  0  0  0  0  0  0  0  0  0
  136.0699   74.4259  224.0580 H   0  0  0  0  0  0  0  0  0  0  0  0
  135.5032   76.5536  225.2013 H   0  0  0  0  0  0  0  0  0  0  0  0
  134.1778   77.7710  226.6508 H   0  0  0  0  0  0  0  0  0  0  0  0
  130.8542   75.8414  228.6477 H   0  0  0  0  0  0  0  0  0  0  0  0
  131.4139   73.7134  227.5125 H   0  0  0  0  0  0  0  0  0  0  0  0
  1  2  2  0
  2  3  1  0
  3  4  1  0
  4  5  1  0
  5  6  2  0
  5  7  1  0
  7  8  1  0
  8  9  1  0
  9 10  1  0
 10 11  1  0
 10 12  1  0
 12 13  2  0
 13 14  1  0
 14 15  2  0
 15 16  1  0
 16 17  2  0
  9 18  1  0
 18 19  1  0
 18 20  1  0
  2 21  1  0
 21 22  2  0
 22 23  1  0
 23 24  2  0
 24 25  1  0
 25 26  2  0
 26 27  1  0
 26 28  1  0
 28 29  2  0
 29 30  1  0
 30 31  2  0
 20  7  1  0
 31 21  1  0
 17 12  1  0
 30 24  1  0
  3 32  1  0
  4 33  1  0
  4 34  1  0
  8 35  1  0
  8 36  1  0
  9 37  1  6
 10 38  1  6
 11 39  1  0
 13 40  1  0
 14 41  1  0
 15 42  1  0
 16 43  1  0
 17 44  1  0
 18 45  1  6
 19 46  1  0
 20 47  1  0
 20 48  1  0
 22 49  1  0
 23 50  1  0
 25 51  1  0
 28 52  1  0
 29 53  1  0
M  END
>  <smiles>  (11) 
O=C(NCC(=O)N1C[C@@H]([C@H](O)c2ccccc2)[C@@H](O)C1)c1ccc2cc(Cl)ccc2n1

>  <score_type>  (11) 
oracle

>  <origin>  (11) 
autodockgpu

>  <m_score__min__energy>  (11) 
-8.5299999999999994

>  <m_primary>  (11) 
energy

>  <rmsd>  (11) 
8.766014256788797

>  <m_score__min__rmsd>  (11) 
8.766014256788797

>  <meeko>  (11) 
{"free_energy": -7.94, "intermolecular_energy": -10.33, "internal_energy": -2.38, "cluster_size": 10, "cluster_id": 1, "rank_in_cluster": 7}

>  <energy>  (11) 
-8.26

>  <cluster_rmsd>  (11) 
0.0

>  <cluster>  (11) 
2

$$$$

     RDKit          3D

 53 56  0  0  0  0  0  0  0  0999 V2000
  133.1630   70.4280  225.6670 O   0  0  0  0  0  0  0  0  0  0  0  0
  133.4920   71.4370  224.9850 C   0  0  0  0  0  0  0  0  0  0  0  0
  133.8850   71.1740  223.6220 N   0  0  0  0  0  0  0  0  0  0  0  0
  133.8640   69.8240  223.2000 C   0  0  0  0  0  0  0  0  0  0  0  0
  134.8870   68.9010  223.6370 C   0  0  0  0  0  0  0  0  0  0  0  0
  134.4270   67.7650  224.0900 O   0  0  0  0  0  0  0  0  0  0  0  0
  136.2950   69.0460  223.6440 N   0  0  0  0  0  0  0  0  0  0  0  0
  137.2580   68.9150  224.7130 C   0  0  0  0  0  0  0  0  0  0  0  0
  138.5130   69.6110  224.1300 C   0  0  1  0  0  0  0  0  0  0  0  0
  139.7200   69.2000  224.8940 C   0  0  2  0  0  0  0  0  0  0  0  0
  139.5370   67.8790  225.3940 O   0  0  0  0  0  0  0  0  0  0  0  0
  140.0920   70.0710  226.0230 C   0  0  0  0  0  0  0  0  0  0  0  0
  139.6900   69.9370  227.3170 C   0  0  0  0  0  0  0  0  0  0  0  0
  140.0500   70.7940  228.3460 C   0  0  0  0  0  0  0  0  0  0  0  0
  140.8790   71.8680  228.0340 C   0  0  0  0  0  0  0  0  0  0  0  0
  141.3020   72.0300  226.7310 C   0  0  0  0  0  0  0  0  0  0  0  0
  140.9220   71.1520  225.7260 C   0  0  0  0  0  0  0  0  0  0  0  0
  138.4680   68.9920  222.7410 C   0  0  1  0  0  0  0  0  0  0  0  0
  138.5560   67.6180  222.9160 O   0  0  0  0  0  0  0  0  0  0  0  0
  137.0190   69.3520  222.3810 C   0  0  0  0  0  0  0  0  0  0  0  0
  133.4810   72.7850  225.5250 C   0  0  0  0  0  0  0  0  0  0  0  0
  134.5480   73.6040  225.1820 C   0  0  0  0  0  0  0  0  0  0  0  0
  134.6280   74.9010  225.6440 C   0  0  0  0  0  0  0  0  0  0  0  0
  133.6210   75.3800  226.4640 C   0  0  0  0  0  0  0  0  0  0  0  0
  133.7450   76.6810  226.8960 C   0  0  0  0  0  0  0  0  0  0  0  0
  132.7440   77.2000  227.7240 C   0  0  0  0  0  0  0  0  0  0  0  0
  132.8370   78.8540  228.3120 Cl  0  0  0  0  0  0  0  0  0  0  0  0
  131.6650   76.3790  228.0730 C   0  0  0  0  0  0  0  0  0  0  0  0
  131.5870   75.0710  227.6090 C   0  0  0  0  0  0  0  0  0  0  0  0
  132.5690   74.5530  226.7950 C   0  0  0  0  0  0  0  0  0  0  0  0
  132.5160   73.2710  226.3210 N   0  0  0  0  0  0  0  0  0  0  0  0
  134.1560   72.0190  223.0890 H   0  0  0  0  0  0  0  0  0  0  0  0
  132.9014   69.4061  223.5297 H   0  0  0  0  0  0  0  0  0  0  0  0
  134.0473   69.9010  222.1181 H   0  0  0  0  0  0  0  0  0  0  0  0
  136.9102   69.4234  225.6244 H   0  0  0  0  0  0  0  0  0  0  0  0
  137.4376   67.8719  225.0125 H   0  0  0  0  0  0  0  0  0  0  0  0
  138.5400   70.7104  224.1520 H   0  0  0  0  0  0  0  0  0  0  0  0
  140.5454   69.2719  224.1704 H   0  0  0  0  0  0  0  0  0  0  0  0
  139.7320   67.2160  224.7010 H   0  0  0  0  0  0  0  0  0  0  0  0
  139.0336   69.0894  227.5634 H   0  0  0  0  0  0  0  0  0  0  0  0
  139.6928   70.6308  229.3735 H   0  0  0  0  0  0  0  0  0  0  0  0
  141.1920   72.5768  228.8148 H   0  0  0  0  0  0  0  0  0  0  0  0
  141.9577   72.8774  226.4822 H   0  0  0  0  0  0  0  0  0  0  0  0
  141.2750   71.3083  224.6960 H   0  0  0  0  0  0  0  0  0  0  0  0
  139.2338   69.3060  222.0164 H   0  0  0  0  0  0  0  0  0  0  0  0
  138.5470   67.3640  223.8550 H   0  0  0  0  0  0  0  0  0  0  0  0
  136.9265   70.4156  222.1161 H   0  0  0  0  0  0  0  0  0  0  0  0
  136.6327   68.8060  221.5077 H   0  0  0  0  0  0  0  0  0  0  0  0
  135.3431   73.2119  224.5308 H   0  0  0  0  0  0  0  0  0  0  0  0
  135.4767   75.5432  225.3659 H   0  0  0  0  0  0  0  0  0  0  0  0
  134.6074   77.2956  226.5984 H   0  0  0  0  0  0  0  0  0  0  0  0
  130.8695   76.7737  228.7221 H   0  0  0  0  0  0  0  0  0  0  0  0
  130.7308   74.4426  227.8955 H   0  0  0  0  0  0  0  0  0  0  0  0
  1  2  2  0
  2  3  1  0
  3  4  1  0
  4  5  1  0
  5  6  2  0
  5  7  1  0
  7  8  1  0
  8  9  1  0
  9 10  1  0
 10 11  1  0
 10 12  1  0
 12 13  2  0
 13 14  1  0
 14 15  2  0
 15 16  1  0
 16 17  2  0
  9 18  1  0
 18 19  1  0
 18 20  1  0
  2 21  1  0
 21 22  2  0
 22 23  1  0
 23 24  2  0
 24 25  1  0
 25 26  2  0
 26 27  1  0
 26 28  1  0
 28 29  2  0
 29 30  1  0
 30 31  2  0
 20  7  1  0
 31 21  1  0
 17 12  1  0
 30 24  1  0
  3 32  1  0
  4 33  1  0
  4 34  1  0
  8 35  1  0
  8 36  1  0
  9 37  1  6
 10 38  1  6
 11 39  1  0
 13 40  1  0
 14 41  1  0
 15 42  1  0
 16 43  1  0
 17 44  1  0
 18 45  1  6
 19 46  1  0
 20 47  1  0
 20 48  1  0
 22 49  1  0
 23 50  1  0
 25 51  1  0
 28 52  1  0
 29 53  1  0
M  END
>  <smiles>  (12) 
O=C(NCC(=O)N1C[C@@H]([C@H](O)c2ccccc2)[C@@H](O)C1)c1ccc2cc(Cl)ccc2n1

>  <score_type>  (12) 
oracle

>  <origin>  (12) 
autodockgpu

>  <m_score__min__energy>  (12) 
-8.5299999999999994

>  <m_primary>  (12) 
energy

>  <rmsd>  (12) 
8.904825716406739

>  <m_score__min__rmsd>  (12) 
8.904825716406739

>  <meeko>  (12) 
{"free_energy": -7.67, "intermolecular_energy": -10.06, "internal_energy": -2.14, "cluster_size": 10, "cluster_id": 1, "rank_in_cluster": 10}

>  <energy>  (12) 
-8.23

>  <cluster_rmsd>  (12) 
0.44

>  <cluster>  (12) 
2

$$$$

     RDKit          3D

 53 56  0  0  0  0  0  0  0  0999 V2000
  134.3720   70.3430  227.2810 O   0  0  0  0  0  0  0  0  0  0  0  0
  133.4910   70.9310  226.5930 C   0  0  0  0  0  0  0  0  0  0  0  0
  132.9490   70.1770  225.4890 N   0  0  0  0  0  0  0  0  0  0  0  0
  133.4610   68.8740  225.2930 C   0  0  0  0  0  0  0  0  0  0  0  0
  134.5520   68.6420  224.3750 C   0  0  0  0  0  0  0  0  0  0  0  0
  134.3600   67.6440  223.5540 O   0  0  0  0  0  0  0  0  0  0  0  0
  135.7810   69.3290  224.2360 N   0  0  0  0  0  0  0  0  0  0  0  0
  137.0900   69.0540  224.7810 C   0  0  0  0  0  0  0  0  0  0  0  0
  137.8320   70.4010  224.5890 C   0  0  1  0  0  0  0  0  0  0  0  0
  139.3000   70.1870  224.6850 C   0  0  2  0  0  0  0  0  0  0  0  0
  139.5950   68.8140  224.4530 O   0  0  0  0  0  0  0  0  0  0  0  0
  139.9230   70.5820  225.9600 C   0  0  0  0  0  0  0  0  0  0  0  0
  139.8110   69.9330  227.1520 C   0  0  0  0  0  0  0  0  0  0  0  0
  140.4000   70.3530  228.3360 C   0  0  0  0  0  0  0  0  0  0  0  0
  141.1590   71.5190  228.3030 C   0  0  0  0  0  0  0  0  0  0  0  0
  141.2910   72.1980  227.1100 C   0  0  0  0  0  0  0  0  0  0  0  0
  140.6870   71.7490  225.9440 C   0  0  0  0  0  0  0  0  0  0  0  0
  137.3800   70.6850  223.1640 C   0  0  1  0  0  0  0  0  0  0  0  0
  137.8250   69.6250  222.3880 O   0  0  0  0  0  0  0  0  0  0  0  0
  135.8660   70.5400  223.3760 C   0  0  0  0  0  0  0  0  0  0  0  0
  133.0430   72.2810  226.8840 C   0  0  0  0  0  0  0  0  0  0  0  0
  131.8340   72.4060  227.5560 C   0  0  0  0  0  0  0  0  0  0  0  0
  131.3240   73.6460  227.8790 C   0  0  0  0  0  0  0  0  0  0  0  0
  132.0390   74.7760  227.5200 C   0  0  0  0  0  0  0  0  0  0  0  0
  131.4890   75.9890  227.8670 C   0  0  0  0  0  0  0  0  0  0  0  0
  132.1860   77.1530  227.5240 C   0  0  0  0  0  0  0  0  0  0  0  0
  131.5450   78.7350  227.9380 Cl  0  0  0  0  0  0  0  0  0  0  0  0
  133.4060   77.0320  226.8470 C   0  0  0  0  0  0  0  0  0  0  0  0
  133.9170   75.7830  226.5190 C   0  0  0  0  0  0  0  0  0  0  0  0
  133.2370   74.6330  226.8530 C   0  0  0  0  0  0  0  0  0  0  0  0
  133.7190   73.3900  226.5470 N   0  0  0  0  0  0  0  0  0  0  0  0
  132.2350   70.6870  224.9390 H   0  0  0  0  0  0  0  0  0  0  0  0
  133.7971   68.5168  226.2776 H   0  0  0  0  0  0  0  0  0  0  0  0
  132.6211   68.3493  224.8142 H   0  0  0  0  0  0  0  0  0  0  0  0
  137.0273   68.7845  225.8456 H   0  0  0  0  0  0  0  0  0  0  0  0
  137.5945   68.2058  224.2951 H   0  0  0  0  0  0  0  0  0  0  0  0
  137.6268   71.2023  225.3142 H   0  0  0  0  0  0  0  0  0  0  0  0
  139.7288   70.8501  223.9192 H   0  0  0  0  0  0  0  0  0  0  0  0
  139.2270   68.5210  223.5950 H   0  0  0  0  0  0  0  0  0  0  0  0
  139.2115   69.0111  227.1780 H   0  0  0  0  0  0  0  0  0  0  0  0
  140.2714   69.7840  229.2686 H   0  0  0  0  0  0  0  0  0  0  0  0
  141.6465   71.8935  229.2152 H   0  0  0  0  0  0  0  0  0  0  0  0
  141.8908   73.1197  227.0819 H   0  0  0  0  0  0  0  0  0  0  0  0
  140.8106   72.3130  225.0077 H   0  0  0  0  0  0  0  0  0  0  0  0
  137.7113   71.6259  222.7004 H   0  0  0  0  0  0  0  0  0  0  0  0
  138.7650   69.4260  222.5380 H   0  0  0  0  0  0  0  0  0  0  0  0
  135.4490   71.4209  223.8860 H   0  0  0  0  0  0  0  0  0  0  0  0
  135.2960   70.4558  222.4390 H   0  0  0  0  0  0  0  0  0  0  0  0
  131.2741   71.5012  227.8352 H   0  0  0  0  0  0  0  0  0  0  0  0
  130.3662   73.7357  228.4124 H   0  0  0  0  0  0  0  0  0  0  0  0
  130.5279   76.0421  228.3994 H   0  0  0  0  0  0  0  0  0  0  0  0
  133.9665   77.9375  226.5716 H   0  0  0  0  0  0  0  0  0  0  0  0
  134.8766   75.7114  225.9859 H   0  0  0  0  0  0  0  0  0  0  0  0
  1  2  2  0
  2  3  1  0
  3  4  1  0
  4  5  1  0
  5  6  2  0
  5  7  1  0
  7  8  1  0
  8  9  1  0
  9 10  1  0
 10 11  1  0
 10 12  1  0
 12 13  2  0
 13 14  1  0
 14 15  2  0
 15 16  1  0
 16 17  2  0
  9 18  1  0
 18 19  1  0
 18 20  1  0
  2 21  1  0
 21 22  2  0
 22 23  1  0
 23 24  2  0
 24 25  1  0
 25 26  2  0
 26 27  1  0
 26 28  1  0
 28 29  2  0
 29 30  1  0
 30 31  2  0
 20  7  1  0
 31 21  1  0
 17 12  1  0
 30 24  1  0
  3 32  1  0
  4 33  1  0
  4 34  1  0
  8 35  1  0
  8 36  1  0
  9 37  1  1
 10 38  1  6
 11 39  1  0
 13 40  1  0
 14 41  1  0
 15 42  1  0
 16 43  1  0
 17 44  1  0
 18 45  1  6
 19 46  1  0
 20 47  1  0
 20 48  1  0
 22 49  1  0
 23 50  1  0
 25 51  1  0
 28 52  1  0
 29 53  1  0
M  END
>  <smiles>  (13) 
O=C(NCC(=O)N1C[C@@H]([C@H](O)c2ccccc2)[C@@H](O)C1)c1ccc2cc(Cl)ccc2n1

>  <score_type>  (13) 
oracle

>  <origin>  (13) 
autodockgpu

>  <m_score__min__energy>  (13) 
-8.5299999999999994

>  <m_primary>  (13) 
energy

>  <rmsd>  (13) 
9.188602183119484

>  <m_score__min__rmsd>  (13) 
9.188602183119484

>  <meeko>  (13) 
{"free_energy": -8.13, "intermolecular_energy": -10.51, "internal_energy": -2.26, "cluster_size": 10, "cluster_id": 1, "rank_in_cluster": 4}

>  <energy>  (13) 
-8.2

>  <cluster_rmsd>  (13) 
0.46

>  <cluster>  (13) 
2

$$$$

     RDKit          3D

 53 56  0  0  0  0  0  0  0  0999 V2000
  140.6130   73.9620  222.0170 O   0  0  0  0  0  0  0  0  0  0  0  0
  140.0370   72.8380  222.0080 C   0  0  0  0  0  0  0  0  0  0  0  0
  139.3380   72.5000  220.7920 N   0  0  0  0  0  0  0  0  0  0  0  0
  139.3660   73.4570  219.7510 C   0  0  0  0  0  0  0  0  0  0  0  0
  138.6040   74.6800  219.8550 C   0  0  0  0  0  0  0  0  0  0  0  0
  137.9660   75.0100  218.7630 O   0  0  0  0  0  0  0  0  0  0  0  0
  138.4490   75.5610  220.9510 N   0  0  0  0  0  0  0  0  0  0  0  0
  138.9360   76.9040  221.1680 C   0  0  0  0  0  0  0  0  0  0  0  0
  138.7710   77.0860  222.6970 C   0  0  1  0  0  0  0  0  0  0  0  0
  138.8060   78.5320  223.0410 C   0  0  2  0  0  0  0  0  0  0  0  0
  138.0610   79.2670  222.0750 O   0  0  0  0  0  0  0  0  0  0  0  0
  140.1460   79.1350  223.1420 C   0  0  0  0  0  0  0  0  0  0  0  0
  141.3370   78.4940  222.9870 C   0  0  0  0  0  0  0  0  0  0  0  0
  142.5790   79.0970  223.1110 C   0  0  0  0  0  0  0  0  0  0  0  0
  142.6110   80.4550  223.4170 C   0  0  0  0  0  0  0  0  0  0  0  0
  141.4210   81.1320  223.5800 C   0  0  0  0  0  0  0  0  0  0  0  0
  140.1950   80.4950  223.4480 C   0  0  0  0  0  0  0  0  0  0  0  0
  137.3750   76.4940  222.8280 C   0  0  1  0  0  0  0  0  0  0  0  0
  136.5420   77.2610  222.0270 O   0  0  0  0  0  0  0  0  0  0  0  0
  137.6350   75.1520  222.1270 C   0  0  0  0  0  0  0  0  0  0  0  0
  140.0700   71.9330  223.1430 C   0  0  0  0  0  0  0  0  0  0  0  0
  139.5370   70.6670  222.9460 C   0  0  0  0  0  0  0  0  0  0  0  0
  139.5220   69.7350  223.9630 C   0  0  0  0  0  0  0  0  0  0  0  0
  140.0500   70.0820  225.1940 C   0  0  0  0  0  0  0  0  0  0  0  0
  140.0140   69.1170  226.1740 C   0  0  0  0  0  0  0  0  0  0  0  0
  140.5410   69.4320  227.4310 C   0  0  0  0  0  0  0  0  0  0  0  0
  140.5310   68.2470  228.7290 Cl  0  0  0  0  0  0  0  0  0  0  0  0
  141.0810   70.7080  227.6350 C   0  0  0  0  0  0  0  0  0  0  0  0
  141.0920   71.6470  226.6110 C   0  0  0  0  0  0  0  0  0  0  0  0
  140.5740   71.3450  225.3720 C   0  0  0  0  0  0  0  0  0  0  0  0
  140.5760   72.2480  224.3450 N   0  0  0  0  0  0  0  0  0  0  0  0
  138.8710   71.5770  220.8170 H   0  0  0  0  0  0  0  0  0  0  0  0
  140.4180   73.7518  219.6229 H   0  0  0  0  0  0  0  0  0  0  0  0
  138.8742   72.9307  218.9197 H   0  0  0  0  0  0  0  0  0  0  0  0
  139.9907   76.9960  220.8696 H   0  0  0  0  0  0  0  0  0  0  0  0
  138.3995   77.6623  220.5788 H   0  0  0  0  0  0  0  0  0  0  0  0
  139.5346   76.6338  223.3469 H   0  0  0  0  0  0  0  0  0  0  0  0
  138.3705   78.5885  224.0496 H   0  0  0  0  0  0  0  0  0  0  0  0
  137.4820   78.6710  221.5580 H   0  0  0  0  0  0  0  0  0  0  0  0
  141.3120   77.4210  222.7462 H   0  0  0  0  0  0  0  0  0  0  0  0
  143.5069   78.5227  222.9725 H   0  0  0  0  0  0  0  0  0  0  0  0
  143.5714   80.9799  223.5271 H   0  0  0  0  0  0  0  0  0  0  0  0
  141.4439   82.2050  223.8210 H   0  0  0  0  0  0  0  0  0  0  0  0
  139.2625   81.0623  223.5846 H   0  0  0  0  0  0  0  0  0  0  0  0
  136.9379   76.4325  223.8355 H   0  0  0  0  0  0  0  0  0  0  0  0
  136.2820   78.0950  222.4550 H   0  0  0  0  0  0  0  0  0  0  0  0
  138.1938   74.4640  222.7784 H   0  0  0  0  0  0  0  0  0  0  0  0
  136.7162   74.6096  221.8595 H   0  0  0  0  0  0  0  0  0  0  0  0
  139.1198   70.4024  221.9632 H   0  0  0  0  0  0  0  0  0  0  0  0
  139.0977   68.7336  223.7982 H   0  0  0  0  0  0  0  0  0  0  0  0
  139.5827   68.1249  225.9746 H   0  0  0  0  0  0  0  0  0  0  0  0
  141.5013   70.9698  228.6173 H   0  0  0  0  0  0  0  0  0  0  0  0
  141.5199   72.6440  226.7926 H   0  0  0  0  0  0  0  0  0  0  0  0
  1  2  2  0
  2  3  1  0
  3  4  1  0
  4  5  1  0
  5  6  2  0
  5  7  1  0
  7  8  1  0
  8  9  1  0
  9 10  1  0
 10 11  1  0
 10 12  1  0
 12 13  2  0
 13 14  1  0
 14 15  2  0
 15 16  1  0
 16 17  2  0
  9 18  1  0
 18 19  1  0
 18 20  1  0
  2 21  1  0
 21 22  2  0
 22 23  1  0
 23 24  2  0
 24 25  1  0
 25 26  2  0
 26 27  1  0
 26 28  1  0
 28 29  2  0
 29 30  1  0
 30 31  2  0
 20  7  1  0
 31 21  1  0
 17 12  1  0
 30 24  1  0
  3 32  1  0
  4 33  1  0
  4 34  1  0
  8 35  1  0
  8 36  1  0
  9 37  1  1
 10 38  1  1
 11 39  1  0
 13 40  1  0
 14 41  1  0
 15 42  1  0
 16 43  1  0
 17 44  1  0
 18 45  1  1
 19 46  1  0
 20 47  1  0
 20 48  1  0
 22 49  1  0
 23 50  1  0
 25 51  1  0
 28 52  1  0
 29 53  1  0
M  END
>  <smiles>  (14) 
O=C(NCC(=O)N1C[C@@H]([C@H](O)c2ccccc2)[C@@H](O)C1)c1ccc2cc(Cl)ccc2n1

>  <score_type>  (14) 
oracle

>  <origin>  (14) 
autodockgpu

>  <m_score__min__energy>  (14) 
-8.5299999999999994

>  <m_primary>  (14) 
energy

>  <rmsd>  (14) 
3.6465007218752095

>  <m_score__min__rmsd>  (14) 
3.6465007218752095

>  <meeko>  (14) 
{"free_energy": -7.69, "intermolecular_energy": -10.08, "internal_energy": -2.35, "cluster_size": 4, "cluster_id": 5, "rank_in_cluster": 1}

>  <energy>  (14) 
-8.0

>  <cluster_rmsd>  (14) 
0.75

>  <cluster>  (14) 
2

$$$$

     RDKit          3D

 53 56  0  0  0  0  0  0  0  0999 V2000
  136.3930   75.3940  221.2490 O   0  0  0  0  0  0  0  0  0  0  0  0
  137.4380   75.0770  221.8830 C   0  0  0  0  0  0  0  0  0  0  0  0
  137.5330   73.6960  222.2880 N   0  0  0  0  0  0  0  0  0  0  0  0
  136.4540   72.8520  221.9400 C   0  0  0  0  0  0  0  0  0  0  0  0
  136.6230   71.4180  221.9020 C   0  0  0  0  0  0  0  0  0  0  0  0
  135.6800   70.7820  221.2610 O   0  0  0  0  0  0  0  0  0  0  0  0
  137.6490   70.6120  222.4510 N   0  0  0  0  0  0  0  0  0  0  0  0
  138.0640   70.4020  223.8180 C   0  0  0  0  0  0  0  0  0  0  0  0
  139.4680   69.7670  223.6570 C   0  0  1  0  0  0  0  0  0  0  0  0
  139.8640   69.0890  224.9200 C   0  0  2  0  0  0  0  0  0  0  0  0
  138.8330   68.1910  225.3180 O   0  0  0  0  0  0  0  0  0  0  0  0
  140.1660   69.9750  226.0560 C   0  0  0  0  0  0  0  0  0  0  0  0
  139.6710   69.8710  227.3200 C   0  0  0  0  0  0  0  0  0  0  0  0
  139.9680   70.7420  228.3570 C   0  0  0  0  0  0  0  0  0  0  0  0
  140.8330   71.7990  228.0870 C   0  0  0  0  0  0  0  0  0  0  0  0
  141.3510   71.9320  226.8160 C   0  0  0  0  0  0  0  0  0  0  0  0
  141.0320   71.0400  225.8010 C   0  0  0  0  0  0  0  0  0  0  0  0
  139.1250   68.7800  222.5520 C   0  0  1  0  0  0  0  0  0  0  0  0
  138.1330   67.9500  223.0550 O   0  0  0  0  0  0  0  0  0  0  0  0
  138.4880   69.7650  221.5600 C   0  0  0  0  0  0  0  0  0  0  0  0
  138.4860   76.0340  222.1910 C   0  0  0  0  0  0  0  0  0  0  0  0
  139.7920   75.6280  221.9480 C   0  0  0  0  0  0  0  0  0  0  0  0
  140.8570   76.4650  222.2070 C   0  0  0  0  0  0  0  0  0  0  0  0
  140.6060   77.7270  222.7190 C   0  0  0  0  0  0  0  0  0  0  0  0
  141.7010   78.5240  222.9570 C   0  0  0  0  0  0  0  0  0  0  0  0
  141.4850   79.8080  223.4720 C   0  0  0  0  0  0  0  0  0  0  0  0
  142.8370   80.8810  223.7980 Cl  0  0  0  0  0  0  0  0  0  0  0  0
  140.1700   80.2220  223.7180 C   0  0  0  0  0  0  0  0  0  0  0  0
  139.0980   79.3760  223.4600 C   0  0  0  0  0  0  0  0  0  0  0  0
  139.3030   78.1120  222.9540 C   0  0  0  0  0  0  0  0  0  0  0  0
  138.2660   77.2610  222.6870 N   0  0  0  0  0  0  0  0  0  0  0  0
  138.3970   73.4680  222.8120 H   0  0  0  0  0  0  0  0  0  0  0  0
  135.6504   73.0548  222.6632 H   0  0  0  0  0  0  0  0  0  0  0  0
  136.2738   73.1061  220.8850 H   0  0  0  0  0  0  0  0  0  0  0  0
  138.1203   71.3543  224.3657 H   0  0  0  0  0  0  0  0  0  0  0  0
  137.3663   69.7759  224.3935 H   0  0  0  0  0  0  0  0  0  0  0  0
  140.3083   70.4419  223.4370 H   0  0  0  0  0  0  0  0  0  0  0  0
  140.8065   68.5762  224.6775 H   0  0  0  0  0  0  0  0  0  0  0  0
  138.9760   67.3050  224.9290 H   0  0  0  0  0  0  0  0  0  0  0  0
  138.9868   69.0366  227.5337 H   0  0  0  0  0  0  0  0  0  0  0  0
  139.5351   70.6027  229.3586 H   0  0  0  0  0  0  0  0  0  0  0  0
  141.0993   72.5176  228.8761 H   0  0  0  0  0  0  0  0  0  0  0  0
  142.0347   72.7664  226.6007 H   0  0  0  0  0  0  0  0  0  0  0  0
  141.4612   71.1723  224.7968 H   0  0  0  0  0  0  0  0  0  0  0  0
  139.9389   68.1568  222.1529 H   0  0  0  0  0  0  0  0  0  0  0  0
  138.4950   67.1420  223.4580 H   0  0  0  0  0  0  0  0  0  0  0  0
  139.2539   70.3641  221.0458 H   0  0  0  0  0  0  0  0  0  0  0  0
  137.9208   69.2752  220.7548 H   0  0  0  0  0  0  0  0  0  0  0  0
  139.9797   74.6228  221.5425 H   0  0  0  0  0  0  0  0  0  0  0  0
  141.8880   76.1359  222.0103 H   0  0  0  0  0  0  0  0  0  0  0  0
  142.7188   78.1627  222.7485 H   0  0  0  0  0  0  0  0  0  0  0  0
  139.9834   81.2287  224.1202 H   0  0  0  0  0  0  0  0  0  0  0  0
  138.0732   79.7205  223.6626 H   0  0  0  0  0  0  0  0  0  0  0  0
  1  2  2  0
  2  3  1  0
  3  4  1  0
  4  5  1  0
  5  6  2  0
  5  7  1  0
  7  8  1  0
  8  9  1  0
  9 10  1  0
 10 11  1  0
 10 12  1  0
 12 13  2  0
 13 14  1  0
 14 15  2  0
 15 16  1  0
 16 17  2  0
  9 18  1  0
 18 19  1  0
 18 20  1  0
  2 21  1  0
 21 22  2  0
 22 23  1  0
 23 24  2  0
 24 25  1  0
 25 26  2  0
 26 27  1  0
 26 28  1  0
 28 29  2  0
 29 30  1  0
 30 31  2  0
 20  7  1  0
 31 21  1  0
 17 12  1  0
 30 24  1  0
  3 32  1  0
  4 33  1  0
  4 34  1  0
  8 35  1  0
  8 36  1  0
  9 37  1  6
 10 38  1  6
 11 39  1  0
 13 40  1  0
 14 41  1  0
 15 42  1  0
 16 43  1  0
 17 44  1  0
 18 45  1  6
 19 46  1  0
 20 47  1  0
 20 48  1  0
 22 49  1  0
 23 50  1  0
 25 51  1  0
 28 52  1  0
 29 53  1  0
M  END
>  <smiles>  (15) 
O=C(NCC(=O)N1C[C@@H]([C@H](O)c2ccccc2)[C@@H](O)C1)c1ccc2cc(Cl)ccc2n1

>  <score_type>  (15) 
oracle

>  <origin>  (15) 
autodockgpu

>  <m_score__min__energy>  (15) 
-8.5299999999999994

>  <m_primary>  (15) 
energy

>  <rmsd>  (15) 
8.084403110820954

>  <m_score__min__rmsd>  (15) 
8.084403110820954

>  <meeko>  (15) 
{"free_energy": -8.26, "intermolecular_energy": -10.65, "internal_energy": -1.93, "cluster_size": 16, "cluster_id": 2, "rank_in_cluster": 1}

>  <energy>  (15) 
-7.98

>  <cluster_rmsd>  (15) 
0.75

>  <cluster>  (15) 
2

$$$$

     RDKit          3D

 53 56  0  0  0  0  0  0  0  0999 V2000
  139.1720   71.5690  221.3020 O   0  0  0  0  0  0  0  0  0  0  0  0
  138.7540   71.8340  222.4630 C   0  0  0  0  0  0  0  0  0  0  0  0
  137.6790   72.7930  222.5400 N   0  0  0  0  0  0  0  0  0  0  0  0
  137.2150   73.3320  221.3190 C   0  0  0  0  0  0  0  0  0  0  0  0
  137.6710   74.6260  220.8650 C   0  0  0  0  0  0  0  0  0  0  0  0
  136.7240   75.5180  220.7460 O   0  0  0  0  0  0  0  0  0  0  0  0
  138.9760   75.0620  220.5360 N   0  0  0  0  0  0  0  0  0  0  0  0
  139.5740   76.3770  220.5650 C   0  0  0  0  0  0  0  0  0  0  0  0
  140.8430   76.1950  219.6950 C   0  0  1  0  0  0  0  0  0  0  0  0
  141.8020   77.3000  219.9620 C   0  0  2  0  0  0  0  0  0  0  0  0
  143.1040   76.7600  220.1610 O   0  0  0  0  0  0  0  0  0  0  0  0
  141.4810   78.1630  221.1110 C   0  0  0  0  0  0  0  0  0  0  0  0
  141.4500   77.7910  222.4210 C   0  0  0  0  0  0  0  0  0  0  0  0
  141.1220   78.6340  223.4720 C   0  0  0  0  0  0  0  0  0  0  0  0
  140.8020   79.9540  223.1670 C   0  0  0  0  0  0  0  0  0  0  0  0
  140.8250   80.3610  221.8490 C   0  0  0  0  0  0  0  0  0  0  0  0
  141.1580   79.4890  220.8220 C   0  0  0  0  0  0  0  0  0  0  0  0
  141.3090   74.8710  220.2810 C   0  0  1  0  0  0  0  0  0  0  0  0
  141.5210   75.0880  221.6350 O   0  0  0  0  0  0  0  0  0  0  0  0
  140.0050   74.0770  220.1070 C   0  0  0  0  0  0  0  0  0  0  0  0
  139.3120   71.2200  223.6550 C   0  0  0  0  0  0  0  0  0  0  0  0
  140.3620   71.8890  224.2690 C   0  0  0  0  0  0  0  0  0  0  0  0
  140.9580   71.3870  225.4060 C   0  0  0  0  0  0  0  0  0  0  0  0
  140.4920   70.1950  225.9330 C   0  0  0  0  0  0  0  0  0  0  0  0
  141.1190   69.7370  227.0700 C   0  0  0  0  0  0  0  0  0  0  0  0
  140.6720   68.5360  227.6330 C   0  0  0  0  0  0  0  0  0  0  0  0
  141.4230   67.8940  229.0860 Cl  0  0  0  0  0  0  0  0  0  0  0  0
  139.6120   67.8570  227.0180 C   0  0  0  0  0  0  0  0  0  0  0  0
  139.0150   68.3630  225.8700 C   0  0  0  0  0  0  0  0  0  0  0  0
  139.4490   69.5430  225.3100 C   0  0  0  0  0  0  0  0  0  0  0  0
  138.8760   70.0650  224.1830 N   0  0  0  0  0  0  0  0  0  0  0  0
  137.3620   72.9950  223.5050 H   0  0  0  0  0  0  0  0  0  0  0  0
  137.4846   72.6102  220.5339 H   0  0  0  0  0  0  0  0  0  0  0  0
  136.1463   73.5029  221.5159 H   0  0  0  0  0  0  0  0  0  0  0  0
  138.8994   77.1289  220.1297 H   0  0  0  0  0  0  0  0  0  0  0  0
  139.7906   76.7351  221.5823 H   0  0  0  0  0  0  0  0  0  0  0  0
  140.7149   76.2047  218.6025 H   0  0  0  0  0  0  0  0  0  0  0  0
  141.7398   77.9440  219.0724 H   0  0  0  0  0  0  0  0  0  0  0  0
  143.7160   77.4450  220.4980 H   0  0  0  0  0  0  0  0  0  0  0  0
  141.7031   76.7480  222.6622 H   0  0  0  0  0  0  0  0  0  0  0  0
  141.1149   78.2722  224.5108 H   0  0  0  0  0  0  0  0  0  0  0  0
  140.5347   80.6622  223.9652 H   0  0  0  0  0  0  0  0  0  0  0  0
  140.5728   81.4037  221.6058 H   0  0  0  0  0  0  0  0  0  0  0  0
  141.1673   79.8432  219.7806 H   0  0  0  0  0  0  0  0  0  0  0  0
  142.2114   74.4117  219.8512 H   0  0  0  0  0  0  0  0  0  0  0  0
  142.3000   75.6450  221.8030 H   0  0  0  0  0  0  0  0  0  0  0  0
  139.8576   73.7775  219.0589 H   0  0  0  0  0  0  0  0  0  0  0  0
  139.9813   73.1373  220.6784 H   0  0  0  0  0  0  0  0  0  0  0  0
  140.7244   72.8354  223.8411 H   0  0  0  0  0  0  0  0  0  0  0  0
  141.7892   71.9242  225.8860 H   0  0  0  0  0  0  0  0  0  0  0  0
  141.9484   70.2995  227.5235 H   0  0  0  0  0  0  0  0  0  0  0  0
  139.2483   66.9125  227.4490 H   0  0  0  0  0  0  0  0  0  0  0  0
  138.1847   67.8134  225.4026 H   0  0  0  0  0  0  0  0  0  0  0  0
  1  2  2  0
  2  3  1  0
  3  4  1  0
  4  5  1  0
  5  6  2  0
  5  7  1  0
  7  8  1  0
  8  9  1  0
  9 10  1  0
 10 11  1  0
 10 12  1  0
 12 13  2  0
 13 14  1  0
 14 15  2  0
 15 16  1  0
 16 17  2  0
  9 18  1  0
 18 19  1  0
 18 20  1  0
  2 21  1  0
 21 22  2  0
 22 23  1  0
 23 24  2  0
 24 25  1  0
 25 26  2  0
 26 27  1  0
 26 28  1  0
 28 29  2  0
 29 30  1  0
 30 31  2  0
 20  7  1  0
 31 21  1  0
 17 12  1  0
 30 24  1  0
  3 32  1  0
  4 33  1  0
  4 34  1  0
  8 35  1  0
  8 36  1  0
  9 37  1  6
 10 38  1  6
 11 39  1  0
 13 40  1  0
 14 41  1  0
 15 42  1  0
 16 43  1  0
 17 44  1  0
 18 45  1  6
 19 46  1  0
 20 47  1  0
 20 48  1  0
 22 49  1  0
 23 50  1  0
 25 51  1  0
 28 52  1  0
 29 53  1  0
M  END
>  <smiles>  (16) 
O=C(NCC(=O)N1C[C@@H]([C@H](O)c2ccccc2)[C@@H](O)C1)c1ccc2cc(Cl)ccc2n1

>  <score_type>  (16) 
oracle

>  <origin>  (16) 
autodockgpu

>  <m_score__min__energy>  (16) 
-8.5299999999999994

>  <m_primary>  (16) 
energy

>  <rmsd>  (16) 
3.1036471183820544

>  <m_score__min__rmsd>  (16) 
3.1036471183820544

>  <meeko>  (16) 
{"free_energy": -8.0, "intermolecular_energy": -10.39, "internal_energy": -1.74, "cluster_size": 15, "cluster_id": 3, "rank_in_cluster": 7}

>  <energy>  (16) 
-7.88

>  <cluster_rmsd>  (16) 
0.83

>  <cluster>  (16) 
2

$$$$

     RDKit          3D

 53 56  0  0  0  0  0  0  0  0999 V2000
  137.6110   74.1960  220.6270 O   0  0  0  0  0  0  0  0  0  0  0  0
  137.6510   74.7480  221.7620 C   0  0  0  0  0  0  0  0  0  0  0  0
  136.6660   74.2980  222.7150 N   0  0  0  0  0  0  0  0  0  0  0  0
  135.7650   73.2990  222.2790 C   0  0  0  0  0  0  0  0  0  0  0  0
  136.1900   71.9230  222.1660 C   0  0  0  0  0  0  0  0  0  0  0  0
  135.3000   71.1270  221.6360 O   0  0  0  0  0  0  0  0  0  0  0  0
  137.4150   71.3200  222.5390 N   0  0  0  0  0  0  0  0  0  0  0  0
  137.8920   70.8530  223.8190 C   0  0  0  0  0  0  0  0  0  0  0  0
  139.4180   70.7170  223.5870 C   0  0  1  0  0  0  0  0  0  0  0  0
  140.0140   69.8470  224.6360 C   0  0  2  0  0  0  0  0  0  0  0  0
  139.1170   68.7800  224.9300 O   0  0  0  0  0  0  0  0  0  0  0  0
  140.3650   70.5140  225.9010 C   0  0  0  0  0  0  0  0  0  0  0  0
  141.0790   71.6650  226.0390 C   0  0  0  0  0  0  0  0  0  0  0  0
  141.4050   72.2490  227.2530 C   0  0  0  0  0  0  0  0  0  0  0  0
  140.9710   71.6140  228.4140 C   0  0  0  0  0  0  0  0  0  0  0  0
  140.2450   70.4470  228.3070 C   0  0  0  0  0  0  0  0  0  0  0  0
  139.9370   69.8900  227.0730 C   0  0  0  0  0  0  0  0  0  0  0  0
  139.3620   70.0330  222.2300 C   0  0  1  0  0  0  0  0  0  0  0  0
  138.6630   68.8480  222.4110 O   0  0  0  0  0  0  0  0  0  0  0  0
  138.4510   71.0390  221.5100 C   0  0  0  0  0  0  0  0  0  0  0  0
  138.6230   75.7730  222.1000 C   0  0  0  0  0  0  0  0  0  0  0  0
  139.9590   75.4590  221.8880 C   0  0  0  0  0  0  0  0  0  0  0  0
  140.9570   76.3660  222.1770 C   0  0  0  0  0  0  0  0  0  0  0  0
  140.6070   77.6050  222.6860 C   0  0  0  0  0  0  0  0  0  0  0  0
  141.6380   78.4750  222.9560 C   0  0  0  0  0  0  0  0  0  0  0  0
  141.3210   79.7370  223.4690 C   0  0  0  0  0  0  0  0  0  0  0  0
  142.5880   80.9000  223.8330 Cl  0  0  0  0  0  0  0  0  0  0  0  0
  139.9750   80.0590  223.6830 C   0  0  0  0  0  0  0  0  0  0  0  0
  138.9710   79.1430  223.3950 C   0  0  0  0  0  0  0  0  0  0  0  0
  139.2750   77.8980  222.8900 C   0  0  0  0  0  0  0  0  0  0  0  0
  138.3060   76.9790  222.5940 N   0  0  0  0  0  0  0  0  0  0  0  0
  136.7190   74.7730  223.6330 H   0  0  0  0  0  0  0  0  0  0  0  0
  134.9189   73.3101  222.9819 H   0  0  0  0  0  0  0  0  0  0  0  0
  135.5700   73.5827  221.2343 H   0  0  0  0  0  0  0  0  0  0  0  0
  137.6753   71.5828  224.6130 H   0  0  0  0  0  0  0  0  0  0  0  0
  137.4159   69.9170  224.1464 H   0  0  0  0  0  0  0  0  0  0  0  0
  140.0209   71.6364  223.6233 H   0  0  0  0  0  0  0  0  0  0  0  0
  140.9643   69.5004  224.2038 H   0  0  0  0  0  0  0  0  0  0  0  0
  138.5240   68.6070  224.1720 H   0  0  0  0  0  0  0  0  0  0  0  0
  141.4214   72.1670  225.1221 H   0  0  0  0  0  0  0  0  0  0  0  0
  141.9864   73.1817  227.2979 H   0  0  0  0  0  0  0  0  0  0  0  0
  141.2041   72.0375  229.4021 H   0  0  0  0  0  0  0  0  0  0  0  0
  139.9008   69.9441  229.2228 H   0  0  0  0  0  0  0  0  0  0  0  0
  139.3560   68.9575  227.0196 H   0  0  0  0  0  0  0  0  0  0  0  0
  140.3161   69.8074  221.7312 H   0  0  0  0  0  0  0  0  0  0  0  0
  139.1980   68.1680  222.8550 H   0  0  0  0  0  0  0  0  0  0  0  0
  139.0014   71.9520  221.2390 H   0  0  0  0  0  0  0  0  0  0  0  0
  138.0398   70.6614  220.5622 H   0  0  0  0  0  0  0  0  0  0  0  0
  140.2254   74.4715  221.4833 H   0  0  0  0  0  0  0  0  0  0  0  0
  142.0129   76.1094  222.0060 H   0  0  0  0  0  0  0  0  0  0  0  0
  142.6835   78.1859  222.7733 H   0  0  0  0  0  0  0  0  0  0  0  0
  139.7097   81.0485  224.0837 H   0  0  0  0  0  0  0  0  0  0  0  0
  137.9201   79.4153  223.5725 H   0  0  0  0  0  0  0  0  0  0  0  0
  1  2  2  0
  2  3  1  0
  3  4  1  0
  4  5  1  0
  5  6  2  0
  5  7  1  0
  7  8  1  0
  8  9  1  0
  9 10  1  0
 10 11  1  0
 10 12  1  0
 12 13  2  0
 13 14  1  0
 14 15  2  0
 15 16  1  0
 16 17  2  0
  9 18  1  0
 18 19  1  0
 18 20  1  0
  2 21  1  0
 21 22  2  0
 22 23  1  0
 23 24  2  0
 24 25  1  0
 25 26  2  0
 26 27  1  0
 26 28  1  0
 28 29  2  0
 29 30  1  0
 30 31  2  0
 20  7  1  0
 31 21  1  0
 17 12  1  0
 30 24  1  0
  3 32  1  0
  4 33  1  0
  4 34  1  0
  8 35  1  0
  8 36  1  0
  9 37  1  6
 10 38  1  6
 11 39  1  0
 13 40  1  0
 14 41  1  0
 15 42  1  0
 16 43  1  0
 17 44  1  0
 18 45  1  6
 19 46  1  0
 20 47  1  0
 20 48  1  0
 22 49  1  0
 23 50  1  0
 25 51  1  0
 28 52  1  0
 29 53  1  0
M  END
>  <smiles>  (17) 
O=C(NCC(=O)N1C[C@@H]([C@H](O)c2ccccc2)[C@@H](O)C1)c1ccc2cc(Cl)ccc2n1

>  <score_type>  (17) 
oracle

>  <origin>  (17) 
autodockgpu

>  <m_score__min__energy>  (17) 
-8.5299999999999994

>  <m_primary>  (17) 
energy

>  <rmsd>  (17) 
7.743688709024152

>  <m_score__min__rmsd>  (17) 
7.743688709024152

>  <meeko>  (17) 
{"free_energy": -7.8, "intermolecular_energy": -10.19, "internal_energy": -2.47, "cluster_size": 16, "cluster_id": 2, "rank_in_cluster": 11}

>  <energy>  (17) 
-7.84

>  <cluster_rmsd>  (17) 
0.88

>  <cluster>  (17) 
2

$$$$

     RDKit          3D

 53 56  0  0  0  0  0  0  0  0999 V2000
  139.5580   71.4550  221.2040 O   0  0  0  0  0  0  0  0  0  0  0  0
  139.0730   71.7290  222.3370 C   0  0  0  0  0  0  0  0  0  0  0  0
  137.9880   72.6790  222.3420 N   0  0  0  0  0  0  0  0  0  0  0  0
  137.5900   73.2020  221.0910 C   0  0  0  0  0  0  0  0  0  0  0  0
  138.5580   73.8020  220.2020 C   0  0  0  0  0  0  0  0  0  0  0  0
  138.6870   73.1890  219.0550 O   0  0  0  0  0  0  0  0  0  0  0  0
  139.3760   74.9410  220.3890 N   0  0  0  0  0  0  0  0  0  0  0  0
  139.7060   75.6880  221.5810 C   0  0  0  0  0  0  0  0  0  0  0  0
  140.2690   77.0130  221.0100 C   0  0  1  0  0  0  0  0  0  0  0  0
  141.0550   77.7210  222.0560 C   0  0  2  0  0  0  0  0  0  0  0  0
  141.4480   76.7920  223.0620 O   0  0  0  0  0  0  0  0  0  0  0  0
  140.3780   78.8510  222.7130 C   0  0  0  0  0  0  0  0  0  0  0  0
  140.9660   79.9800  223.1960 C   0  0  0  0  0  0  0  0  0  0  0  0
  140.2900   81.0130  223.8270 C   0  0  0  0  0  0  0  0  0  0  0  0
  138.9120   80.8870  223.9780 C   0  0  0  0  0  0  0  0  0  0  0  0
  138.2870   79.7550  223.4990 C   0  0  0  0  0  0  0  0  0  0  0  0
  138.9960   78.7400  222.8720 C   0  0  0  0  0  0  0  0  0  0  0  0
  141.1540   76.4150  219.9270 C   0  0  1  0  0  0  0  0  0  0  0  0
  142.0650   75.5890  220.5690 O   0  0  0  0  0  0  0  0  0  0  0  0
  140.0980   75.5390  219.2340 C   0  0  0  0  0  0  0  0  0  0  0  0
  139.5670   71.1320  223.5640 C   0  0  0  0  0  0  0  0  0  0  0  0
  140.4620   71.8880  224.3090 C   0  0  0  0  0  0  0  0  0  0  0  0
  140.9880   71.4080  225.4910 C   0  0  0  0  0  0  0  0  0  0  0  0
  140.6080   70.1510  225.9290 C   0  0  0  0  0  0  0  0  0  0  0  0
  141.1580   69.7200  227.1150 C   0  0  0  0  0  0  0  0  0  0  0  0
  140.7940   68.4550  227.5900 C   0  0  0  0  0  0  0  0  0  0  0  0
  141.4550   67.8410  229.0980 Cl  0  0  0  0  0  0  0  0  0  0  0  0
  139.8910   67.6880  226.8430 C   0  0  0  0  0  0  0  0  0  0  0  0
  139.3650   68.1710  225.6510 C   0  0  0  0  0  0  0  0  0  0  0  0
  139.7190   69.4140  225.1760 C   0  0  0  0  0  0  0  0  0  0  0  0
  139.2130   69.9160  224.0080 N   0  0  0  0  0  0  0  0  0  0  0  0
  137.6150   72.8890  223.2850 H   0  0  0  0  0  0  0  0  0  0  0  0
  137.1257   72.3729  220.5369 H   0  0  0  0  0  0  0  0  0  0  0  0
  136.9533   74.0538  221.3721 H   0  0  0  0  0  0  0  0  0  0  0  0
  138.8117   75.8695  222.1952 H   0  0  0  0  0  0  0  0  0  0  0  0
  140.4117   75.1638  222.2423 H   0  0  0  0  0  0  0  0  0  0  0  0
  139.5442   77.7631  220.6607 H   0  0  0  0  0  0  0  0  0  0  0  0
  141.9104   78.1537  221.5164 H   0  0  0  0  0  0  0  0  0  0  0  0
  141.9600   76.0550  222.6720 H   0  0  0  0  0  0  0  0  0  0  0  0
  142.0550   80.0797  223.0771 H   0  0  0  0  0  0  0  0  0  0  0  0
  140.8240   81.9013  224.1955 H   0  0  0  0  0  0  0  0  0  0  0  0
  138.3301   81.6789  224.4722 H   0  0  0  0  0  0  0  0  0  0  0  0
  137.1980   79.6538  223.6169 H   0  0  0  0  0  0  0  0  0  0  0  0
  138.4690   77.8487  222.5006 H   0  0  0  0  0  0  0  0  0  0  0  0
  141.7047   77.1097  219.2757 H   0  0  0  0  0  0  0  0  0  0  0  0
  142.4950   76.0300  221.3220 H   0  0  0  0  0  0  0  0  0  0  0  0
  139.4227   76.1454  218.6125 H   0  0  0  0  0  0  0  0  0  0  0  0
  140.5254   74.7934  218.5474 H   0  0  0  0  0  0  0  0  0  0  0  0
  140.7565   72.8856  223.9513 H   0  0  0  0  0  0  0  0  0  0  0  0
  141.6968   72.0135  226.0749 H   0  0  0  0  0  0  0  0  0  0  0  0
  141.8638   70.3522  227.6737 H   0  0  0  0  0  0  0  0  0  0  0  0
  139.5949   66.6920  227.2040 H   0  0  0  0  0  0  0  0  0  0  0  0
  138.6570   67.5526  225.0797 H   0  0  0  0  0  0  0  0  0  0  0  0
  1  2  2  0
  2  3  1  0
  3  4  1  0
  4  5  1  0
  5  6  2  0
  5  7  1  0
  7  8  1  0
  8  9  1  0
  9 10  1  0
 10 11  1  0
 10 12  1  0
 12 13  2  0
 13 14  1  0
 14 15  2  0
 15 16  1  0
 16 17  2  0
  9 18  1  0
 18 19  1  0
 18 20  1  0
  2 21  1  0
 21 22  2  0
 22 23  1  0
 23 24  2  0
 24 25  1  0
 25 26  2  0
 26 27  1  0
 26 28  1  0
 28 29  2  0
 29 30  1  0
 30 31  2  0
 20  7  1  0
 31 21  1  0
 17 12  1  0
 30 24  1  0
  3 32  1  0
  4 33  1  0
  4 34  1  0
  8 35  1  0
  8 36  1  0
  9 37  1  6
 10 38  1  6
 11 39  1  0
 13 40  1  0
 14 41  1  0
 15 42  1  0
 16 43  1  0
 17 44  1  0
 18 45  1  6
 19 46  1  0
 20 47  1  0
 20 48  1  0
 22 49  1  0
 23 50  1  0
 25 51  1  0
 28 52  1  0
 29 53  1  0
M  END
>  <smiles>  (18) 
O=C(NCC(=O)N1C[C@@H]([C@H](O)c2ccccc2)[C@@H](O)C1)c1ccc2cc(Cl)ccc2n1

>  <score_type>  (18) 
oracle

>  <origin>  (18) 
autodockgpu

>  <m_score__min__energy>  (18) 
-8.5299999999999994

>  <m_primary>  (18) 
energy

>  <rmsd>  (18) 
3.4265102792324247

>  <m_score__min__rmsd>  (18) 
3.4265102792324247

>  <meeko>  (18) 
{"free_energy": -7.96, "intermolecular_energy": -10.34, "internal_energy": -2.05, "cluster_size": 15, "cluster_id": 3, "rank_in_cluster": 9}

>  <energy>  (18) 
-7.82

>  <cluster_rmsd>  (18) 
0.88

>  <cluster>  (18) 
2

$$$$

     RDKit          3D

 53 56  0  0  0  0  0  0  0  0999 V2000
  138.0520   73.1900  221.3840 O   0  0  0  0  0  0  0  0  0  0  0  0
  138.7530   72.1400  221.3810 C   0  0  0  0  0  0  0  0  0  0  0  0
  139.2370   71.7110  220.0920 N   0  0  0  0  0  0  0  0  0  0  0  0
  138.8740   72.5020  218.9770 C   0  0  0  0  0  0  0  0  0  0  0  0
  139.2630   73.8920  218.9040 C   0  0  0  0  0  0  0  0  0  0  0  0
  139.2430   74.3920  217.6970 O   0  0  0  0  0  0  0  0  0  0  0  0
  139.6550   74.7790  219.9350 N   0  0  0  0  0  0  0  0  0  0  0  0
  139.0560   76.0010  220.4160 C   0  0  0  0  0  0  0  0  0  0  0  0
  140.2040   76.6490  221.2290 C   0  0  1  0  0  0  0  0  0  0  0  0
  139.6540   77.6810  222.1480 C   0  0  2  0  0  0  0  0  0  0  0  0
  138.5420   78.3210  221.5300 O   0  0  0  0  0  0  0  0  0  0  0  0
  140.6000   78.7220  222.5840 C   0  0  0  0  0  0  0  0  0  0  0  0
  141.9430   78.7400  222.3650 C   0  0  0  0  0  0  0  0  0  0  0  0
  142.8010   79.7330  222.8120 C   0  0  0  0  0  0  0  0  0  0  0  0
  142.2500   80.7870  223.5360 C   0  0  0  0  0  0  0  0  0  0  0  0
  140.8920   80.7970  223.7740 C   0  0  0  0  0  0  0  0  0  0  0  0
  140.0630   79.7850  223.3110 C   0  0  0  0  0  0  0  0  0  0  0  0
  140.6650   75.4020  221.9690 C   0  0  1  0  0  0  0  0  0  0  0  0
  139.5770   74.9490  222.7000 O   0  0  0  0  0  0  0  0  0  0  0  0
  140.8610   74.4810  220.7540 C   0  0  0  0  0  0  0  0  0  0  0  0
  139.0590   71.4010  222.5930 C   0  0  0  0  0  0  0  0  0  0  0  0
  138.5280   70.1220  222.6940 C   0  0  0  0  0  0  0  0  0  0  0  0
  138.7630   69.3400  223.8060 C   0  0  0  0  0  0  0  0  0  0  0  0
  139.5420   69.8520  224.8290 C   0  0  0  0  0  0  0  0  0  0  0  0
  139.7490   69.0310  225.9150 C   0  0  0  0  0  0  0  0  0  0  0  0
  140.5340   69.5150  226.9680 C   0  0  0  0  0  0  0  0  0  0  0  0
  140.8430   68.5210  228.3840 Cl  0  0  0  0  0  0  0  0  0  0  0  0
  141.0730   70.8040  226.8700 C   0  0  0  0  0  0  0  0  0  0  0  0
  140.8330   71.5920  225.7510 C   0  0  0  0  0  0  0  0  0  0  0  0
  140.0610   71.1240  224.7120 C   0  0  0  0  0  0  0  0  0  0  0  0
  139.8110   71.8760  223.5970 N   0  0  0  0  0  0  0  0  0  0  0  0
  139.8020   70.8440  220.1200 H   0  0  0  0  0  0  0  0  0  0  0  0
  139.2985   72.0093  218.0899 H   0  0  0  0  0  0  0  0  0  0  0  0
  137.7785   72.5565  219.0595 H   0  0  0  0  0  0  0  0  0  0  0  0
  138.7484   76.6471  219.5806 H   0  0  0  0  0  0  0  0  0  0  0  0
  138.1433   75.8353  221.0072 H   0  0  0  0  0  0  0  0  0  0  0  0
  140.9882   77.1771  220.6668 H   0  0  0  0  0  0  0  0  0  0  0  0
  139.3761   77.1255  223.0559 H   0  0  0  0  0  0  0  0  0  0  0  0
  138.8240   78.8060  220.7280 H   0  0  0  0  0  0  0  0  0  0  0  0
  142.3787   77.9077  221.7928 H   0  0  0  0  0  0  0  0  0  0  0  0
  143.8799   79.6897  222.6019 H   0  0  0  0  0  0  0  0  0  0  0  0
  142.8887   81.5996  223.9125 H   0  0  0  0  0  0  0  0  0  0  0  0
  140.4544   81.6287  224.3457 H   0  0  0  0  0  0  0  0  0  0  0  0
  138.9831   79.8208  223.5170 H   0  0  0  0  0  0  0  0  0  0  0  0
  141.5287   75.4976  222.6435 H   0  0  0  0  0  0  0  0  0  0  0  0
  139.5530   73.9790  222.7650 H   0  0  0  0  0  0  0  0  0  0  0  0
  141.7840   74.7299  220.2098 H   0  0  0  0  0  0  0  0  0  0  0  0
  140.9635   73.4181  221.0180 H   0  0  0  0  0  0  0  0  0  0  0  0
  137.9102   69.7261  221.8745 H   0  0  0  0  0  0  0  0  0  0  0  0
  138.3388   68.3277  223.8783 H   0  0  0  0  0  0  0  0  0  0  0  0
  139.3098   68.0232  225.9539 H   0  0  0  0  0  0  0  0  0  0  0  0
  141.6937   71.1972  227.6886 H   0  0  0  0  0  0  0  0  0  0  0  0
  141.2651   72.6020  225.6948 H   0  0  0  0  0  0  0  0  0  0  0  0
  1  2  2  0
  2  3  1  0
  3  4  1  0
  4  5  1  0
  5  6  2  0
  5  7  1  0
  7  8  1  0
  8  9  1  0
  9 10  1  0
 10 11  1  0
 10 12  1  0
 12 13  2  0
 13 14  1  0
 14 15  2  0
 15 16  1  0
 16 17  2  0
  9 18  1  0
 18 19  1  0
 18 20  1  0
  2 21  1  0
 21 22  2  0
 22 23  1  0
 23 24  2  0
 24 25  1  0
 25 26  2  0
 26 27  1  0
 26 28  1  0
 28 29  2  0
 29 30  1  0
 30 31  2  0
 20  7  1  0
 31 21  1  0
 17 12  1  0
 30 24  1  0
  3 32  1  0
  4 33  1  0
  4 34  1  0
  8 35  1  0
  8 36  1  0
  9 37  1  6
 10 38  1  1
 11 39  1  0
 13 40  1  0
 14 41  1  0
 15 42  1  0
 16 43  1  0
 17 44  1  0
 18 45  1  1
 19 46  1  0
 20 47  1  0
 20 48  1  0
 22 49  1  0
 23 50  1  0
 25 51  1  0
 28 52  1  0
 29 53  1  0
M  END
>  <smiles>  (19) 
O=C(NCC(=O)N1C[C@@H]([C@H](O)c2ccccc2)[C@@H](O)C1)c1ccc2cc(Cl)ccc2n1

>  <score_type>  (19) 
oracle

>  <origin>  (19) 
autodockgpu

>  <m_score__min__energy>  (19) 
-8.5299999999999994

>  <m_primary>  (19) 
energy

>  <rmsd>  (19) 
2.9515654409753718

>  <m_score__min__rmsd>  (19) 
2.9515654409753718

>  <meeko>  (19) 
{"free_energy": -7.42, "intermolecular_energy": -9.8, "internal_energy": -2.4, "cluster_size": 4, "cluster_id": 5, "rank_in_cluster": 4}

>  <energy>  (19) 
-7.81

>  <cluster_rmsd>  (19) 
0.71

>  <cluster>  (19) 
2

$$$$

     RDKit          3D

 53 56  0  0  0  0  0  0  0  0999 V2000
  137.7010   74.2220  220.5750 O   0  0  0  0  0  0  0  0  0  0  0  0
  137.7720   74.7180  221.7340 C   0  0  0  0  0  0  0  0  0  0  0  0
  136.8510   74.1810  222.7060 N   0  0  0  0  0  0  0  0  0  0  0  0
  135.9700   73.1690  222.2600 C   0  0  0  0  0  0  0  0  0  0  0  0
  136.4800   71.8840  221.8360 C   0  0  0  0  0  0  0  0  0  0  0  0
  135.8260   71.3490  220.8400 O   0  0  0  0  0  0  0  0  0  0  0  0
  137.5690   71.1320  222.3360 N   0  0  0  0  0  0  0  0  0  0  0  0
  137.9530   70.8000  223.6880 C   0  0  0  0  0  0  0  0  0  0  0  0
  139.4250   70.3460  223.5250 C   0  0  1  0  0  0  0  0  0  0  0  0
  139.8480   69.5630  224.7160 C   0  0  2  0  0  0  0  0  0  0  0  0
  138.8280   68.6280  225.0550 O   0  0  0  0  0  0  0  0  0  0  0  0
  140.1690   70.3490  225.9190 C   0  0  0  0  0  0  0  0  0  0  0  0
  140.8820   71.5080  225.9640 C   0  0  0  0  0  0  0  0  0  0  0  0
  141.1790   72.2060  227.1250 C   0  0  0  0  0  0  0  0  0  0  0  0
  140.7160   71.6850  228.3300 C   0  0  0  0  0  0  0  0  0  0  0  0
  139.9910   70.5120  228.3170 C   0  0  0  0  0  0  0  0  0  0  0  0
  139.7130   69.8390  227.1350 C   0  0  0  0  0  0  0  0  0  0  0  0
  139.2370   69.4710  222.2940 C   0  0  1  0  0  0  0  0  0  0  0  0
  138.3280   68.4840  222.6430 O   0  0  0  0  0  0  0  0  0  0  0  0
  138.5310   70.4980  221.3960 C   0  0  0  0  0  0  0  0  0  0  0  0
  138.7180   75.7640  222.0800 C   0  0  0  0  0  0  0  0  0  0  0  0
  140.0630   75.4730  221.9020 C   0  0  0  0  0  0  0  0  0  0  0  0
  141.0380   76.4010  222.2020 C   0  0  0  0  0  0  0  0  0  0  0  0
  140.6550   77.6390  222.6880 C   0  0  0  0  0  0  0  0  0  0  0  0
  141.6650   78.5310  222.9680 C   0  0  0  0  0  0  0  0  0  0  0  0
  141.3140   79.7940  223.4590 C   0  0  0  0  0  0  0  0  0  0  0  0
  142.5500   80.9830  223.8360 Cl  0  0  0  0  0  0  0  0  0  0  0  0
  139.9570   80.0930  223.6400 C   0  0  0  0  0  0  0  0  0  0  0  0
  138.9760   79.1560  223.3410 C   0  0  0  0  0  0  0  0  0  0  0  0
  139.3140   77.9110  222.8590 C   0  0  0  0  0  0  0  0  0  0  0  0
  138.3690   76.9710  222.5530 N   0  0  0  0  0  0  0  0  0  0  0  0
  136.9280   74.6120  223.6440 H   0  0  0  0  0  0  0  0  0  0  0  0
  135.2713   72.9731  223.0867 H   0  0  0  0  0  0  0  0  0  0  0  0
  135.5607   73.5907  221.3301 H   0  0  0  0  0  0  0  0  0  0  0  0
  137.8797   71.6773  224.3475 H   0  0  0  0  0  0  0  0  0  0  0  0
  137.3098   70.0354  224.1481 H   0  0  0  0  0  0  0  0  0  0  0  0
  140.1906   71.1302  223.4305 H   0  0  0  0  0  0  0  0  0  0  0  0
  140.7871   69.0780  224.4113 H   0  0  0  0  0  0  0  0  0  0  0  0
  138.9620   67.7830  224.5810 H   0  0  0  0  0  0  0  0  0  0  0  0
  141.2484   71.9199  225.0121 H   0  0  0  0  0  0  0  0  0  0  0  0
  141.7605   73.1393  227.0947 H   0  0  0  0  0  0  0  0  0  0  0  0
  140.9253   72.2013  229.2785 H   0  0  0  0  0  0  0  0  0  0  0  0
  139.6234   70.0989  229.2679 H   0  0  0  0  0  0  0  0  0  0  0  0
  139.1336   68.9042  227.1571 H   0  0  0  0  0  0  0  0  0  0  0  0
  140.1299   68.9924  221.8655 H   0  0  0  0  0  0  0  0  0  0  0  0
  138.0470   68.5520  223.5720 H   0  0  0  0  0  0  0  0  0  0  0  0
  139.2435   71.2353  220.9976 H   0  0  0  0  0  0  0  0  0  0  0  0
  138.0537   70.0541  220.5099 H   0  0  0  0  0  0  0  0  0  0  0  0
  140.3564   74.4859  221.5152 H   0  0  0  0  0  0  0  0  0  0  0  0
  142.1018   76.1614  222.0575 H   0  0  0  0  0  0  0  0  0  0  0  0
  142.7191   78.2589  222.8103 H   0  0  0  0  0  0  0  0  0  0  0  0
  139.6650   81.0818  224.0235 H   0  0  0  0  0  0  0  0  0  0  0  0
  137.9167   79.4115  223.4910 H   0  0  0  0  0  0  0  0  0  0  0  0
  1  2  2  0
  2  3  1  0
  3  4  1  0
  4  5  1  0
  5  6  2  0
  5  7  1  0
  7  8  1  0
  8  9  1  0
  9 10  1  0
 10 11  1  0
 10 12  1  0
 12 13  2  0
 13 14  1  0
 14 15  2  0
 15 16  1  0
 16 17  2  0
  9 18  1  0
 18 19  1  0
 18 20  1  0
  2 21  1  0
 21 22  2  0
 22 23  1  0
 23 24  2  0
 24 25  1  0
 25 26  2  0
 26 27  1  0
 26 28  1  0
 28 29  2  0
 29 30  1  0
 30 31  2  0
 20  7  1  0
 31 21  1  0
 17 12  1  0
 30 24  1  0
  3 32  1  0
  4 33  1  0
  4 34  1  0
  8 35  1  0
  8 36  1  0
  9 37  1  6
 10 38  1  6
 11 39  1  0
 13 40  1  0
 14 41  1  0
 15 42  1  0
 16 43  1  0
 17 44  1  0
 18 45  1  6
 19 46  1  0
 20 47  1  0
 20 48  1  0
 22 49  1  0
 23 50  1  0
 25 51  1  0
 28 52  1  0
 29 53  1  0
M  END
>  <smiles>  (20) 
O=C(NCC(=O)N1C[C@@H]([C@H](O)c2ccccc2)[C@@H](O)C1)c1ccc2cc(Cl)ccc2n1

>  <score_type>  (20) 
oracle

>  <origin>  (20) 
autodockgpu

>  <m_score__min__energy>  (20) 
-8.5299999999999994

>  <m_primary>  (20) 
energy

>  <rmsd>  (20) 
7.845866264259248

>  <m_score__min__rmsd>  (20) 
7.845866264259248

>  <meeko>  (20) 
{"free_energy": -7.81, "intermolecular_energy": -10.2, "internal_energy": -2.35, "cluster_size": 16, "cluster_id": 2, "rank_in_cluster": 9}

>  <energy>  (20) 
-7.8

>  <cluster_rmsd>  (20) 
0.9

>  <cluster>  (20) 
2

$$$$

     RDKit          3D

 53 56  0  0  0  0  0  0  0  0999 V2000
  137.3300   73.9760  220.7010 O   0  0  0  0  0  0  0  0  0  0  0  0
  137.4450   74.5390  221.8260 C   0  0  0  0  0  0  0  0  0  0  0  0
  136.5300   74.0940  222.8480 N   0  0  0  0  0  0  0  0  0  0  0  0
  135.6060   73.0870  222.4840 C   0  0  0  0  0  0  0  0  0  0  0  0
  135.9560   71.6900  222.6000 C   0  0  0  0  0  0  0  0  0  0  0  0
  134.9510   70.8700  222.4460 O   0  0  0  0  0  0  0  0  0  0  0  0
  137.2120   71.0890  222.8530 N   0  0  0  0  0  0  0  0  0  0  0  0
  137.7820   70.5540  224.0670 C   0  0  0  0  0  0  0  0  0  0  0  0
  139.2910   70.4620  223.7260 C   0  0  1  0  0  0  0  0  0  0  0  0
  139.9690   69.5410  224.6770 C   0  0  2  0  0  0  0  0  0  0  0  0
  139.1130   68.4390  224.9600 O   0  0  0  0  0  0  0  0  0  0  0  0
  140.3900   70.1360  225.9560 C   0  0  0  0  0  0  0  0  0  0  0  0
  140.4710   69.5020  227.1580 C   0  0  0  0  0  0  0  0  0  0  0  0
  140.8550   70.1080  228.3450 C   0  0  0  0  0  0  0  0  0  0  0  0
  141.1790   71.4610  228.3050 C   0  0  0  0  0  0  0  0  0  0  0  0
  141.1070   72.1320  227.1020 C   0  0  0  0  0  0  0  0  0  0  0  0
  140.7190   71.4920  225.9330 C   0  0  0  0  0  0  0  0  0  0  0  0
  139.1530   69.8610  222.3350 C   0  0  1  0  0  0  0  0  0  0  0  0
  138.4860   68.6540  222.4890 O   0  0  0  0  0  0  0  0  0  0  0  0
  138.1800   70.8910  221.7410 C   0  0  0  0  0  0  0  0  0  0  0  0
  138.4330   75.5710  222.0870 C   0  0  0  0  0  0  0  0  0  0  0  0
  139.7570   75.2470  221.8260 C   0  0  0  0  0  0  0  0  0  0  0  0
  140.7690   76.1600  222.0420 C   0  0  0  0  0  0  0  0  0  0  0  0
  140.4430   77.4150  222.5260 C   0  0  0  0  0  0  0  0  0  0  0  0
  141.4880   78.2900  222.7210 C   0  0  0  0  0  0  0  0  0  0  0  0
  141.1960   79.5690  223.2080 C   0  0  0  0  0  0  0  0  0  0  0  0
  142.4790   80.7390  223.4780 Cl  0  0  0  0  0  0  0  0  0  0  0  0
  139.8610   79.9010  223.4720 C   0  0  0  0  0  0  0  0  0  0  0  0
  138.8430   78.9800  223.2580 C   0  0  0  0  0  0  0  0  0  0  0  0
  139.1230   77.7190  222.7800 C   0  0  0  0  0  0  0  0  0  0  0  0
  138.1400   76.7940  222.5570 N   0  0  0  0  0  0  0  0  0  0  0  0
  136.6430   74.5780  223.7560 H   0  0  0  0  0  0  0  0  0  0  0  0
  134.7123   73.2401  223.1068 H   0  0  0  0  0  0  0  0  0  0  0  0
  135.5061   73.2261  221.3974 H   0  0  0  0  0  0  0  0  0  0  0  0
  137.6084   71.2296  224.9175 H   0  0  0  0  0  0  0  0  0  0  0  0
  137.3435   69.5906  224.3664 H   0  0  0  0  0  0  0  0  0  0  0  0
  139.8815   71.3885  223.7792 H   0  0  0  0  0  0  0  0  0  0  0  0
  140.8944   69.2417  224.1631 H   0  0  0  0  0  0  0  0  0  0  0  0
  138.4500   68.3240  224.2490 H   0  0  0  0  0  0  0  0  0  0  0  0
  140.2136   68.4330  227.1901 H   0  0  0  0  0  0  0  0  0  0  0  0
  140.9018   69.5391  229.2853 H   0  0  0  0  0  0  0  0  0  0  0  0
  141.4881   71.9878  229.2198 H   0  0  0  0  0  0  0  0  0  0  0  0
  141.3635   73.2011  227.0682 H   0  0  0  0  0  0  0  0  0  0  0  0
  140.6708   72.0537  224.9884 H   0  0  0  0  0  0  0  0  0  0  0  0
  140.0742   69.6850  221.7602 H   0  0  0  0  0  0  0  0  0  0  0  0
  139.0590   67.9590  222.8540 H   0  0  0  0  0  0  0  0  0  0  0  0
  138.6967   71.8292  221.4906 H   0  0  0  0  0  0  0  0  0  0  0  0
  137.7111   70.5638  220.8013 H   0  0  0  0  0  0  0  0  0  0  0  0
  140.0036   74.2466  221.4409 H   0  0  0  0  0  0  0  0  0  0  0  0
  141.8160   75.8951  221.8333 H   0  0  0  0  0  0  0  0  0  0  0  0
  142.5236   77.9920  222.5001 H   0  0  0  0  0  0  0  0  0  0  0  0
  139.6156   80.9032  223.8534 H   0  0  0  0  0  0  0  0  0  0  0  0
  137.8015   79.2612  223.4728 H   0  0  0  0  0  0  0  0  0  0  0  0
  1  2  2  0
  2  3  1  0
  3  4  1  0
  4  5  1  0
  5  6  2  0
  5  7  1  0
  7  8  1  0
  8  9  1  0
  9 10  1  0
 10 11  1  0
 10 12  1  0
 12 13  2  0
 13 14  1  0
 14 15  2  0
 15 16  1  0
 16 17  2  0
  9 18  1  0
 18 19  1  0
 18 20  1  0
  2 21  1  0
 21 22  2  0
 22 23  1  0
 23 24  2  0
 24 25  1  0
 25 26  2  0
 26 27  1  0
 26 28  1  0
 28 29  2  0
 29 30  1  0
 30 31  2  0
 20  7  1  0
 31 21  1  0
 17 12  1  0
 30 24  1  0
  3 32  1  0
  4 33  1  0
  4 34  1  0
  8 35  1  0
  8 36  1  0
  9 37  1  6
 10 38  1  6
 11 39  1  0
 13 40  1  0
 14 41  1  0
 15 42  1  0
 16 43  1  0
 17 44  1  0
 18 45  1  6
 19 46  1  0
 20 47  1  0
 20 48  1  0
 22 49  1  0
 23 50  1  0
 25 51  1  0
 28 52  1  0
 29 53  1  0
M  END
>  <smiles>  (21) 
O=C(NCC(=O)N1C[C@@H]([C@H](O)c2ccccc2)[C@@H](O)C1)c1ccc2cc(Cl)ccc2n1

>  <score_type>  (21) 
oracle

>  <origin>  (21) 
autodockgpu

>  <m_score__min__energy>  (21) 
-8.5299999999999994

>  <m_primary>  (21) 
energy

>  <rmsd>  (21) 
7.816385433549436

>  <m_score__min__rmsd>  (21) 
7.816385433549436

>  <meeko>  (21) 
{"free_energy": -7.8, "intermolecular_energy": -10.19, "internal_energy": -2.46, "cluster_size": 16, "cluster_id": 2, "rank_in_cluster": 10}

>  <energy>  (21) 
-7.8

>  <cluster_rmsd>  (21) 
0.87

>  <cluster>  (21) 
2

$$$$

     RDKit          3D

 53 56  0  0  0  0  0  0  0  0999 V2000
  136.0430   71.7880  224.0130 O   0  0  0  0  0  0  0  0  0  0  0  0
  134.8350   72.0790  224.2370 C   0  0  0  0  0  0  0  0  0  0  0  0
  133.8590   71.1460  223.7300 N   0  0  0  0  0  0  0  0  0  0  0  0
  134.3540   70.0170  223.0380 C   0  0  0  0  0  0  0  0  0  0  0  0
  135.2460   69.0860  223.6890 C   0  0  0  0  0  0  0  0  0  0  0  0
  134.6420   68.1160  224.3220 O   0  0  0  0  0  0  0  0  0  0  0  0
  136.6610   69.0720  223.7410 N   0  0  0  0  0  0  0  0  0  0  0  0
  137.5710   69.1060  224.8620 C   0  0  0  0  0  0  0  0  0  0  0  0
  138.9170   69.4930  224.2000 C   0  0  1  0  0  0  0  0  0  0  0  0
  140.0440   69.1550  225.1090 C   0  0  2  0  0  0  0  0  0  0  0  0
  139.7890   67.9000  225.7320 O   0  0  0  0  0  0  0  0  0  0  0  0
  140.3350   70.1410  226.1640 C   0  0  0  0  0  0  0  0  0  0  0  0
  141.1500   71.2260  226.0560 C   0  0  0  0  0  0  0  0  0  0  0  0
  141.4120   72.1190  227.0840 C   0  0  0  0  0  0  0  0  0  0  0  0
  140.7990   71.8900  228.3130 C   0  0  0  0  0  0  0  0  0  0  0  0
  139.9680   70.7990  228.4530 C   0  0  0  0  0  0  0  0  0  0  0  0
  139.7280   69.9250  227.4010 C   0  0  0  0  0  0  0  0  0  0  0  0
  138.8360   68.5570  223.0040 C   0  0  1  0  0  0  0  0  0  0  0  0
  138.7530   67.2690  223.5120 O   0  0  0  0  0  0  0  0  0  0  0  0
  137.4520   68.9730  222.4850 C   0  0  0  0  0  0  0  0  0  0  0  0
  134.4400   73.2750  224.9590 C   0  0  0  0  0  0  0  0  0  0  0  0
  135.1960   74.4180  224.7340 C   0  0  0  0  0  0  0  0  0  0  0  0
  134.8990   75.6050  225.3730 C   0  0  0  0  0  0  0  0  0  0  0  0
  133.8290   75.6420  226.2490 C   0  0  0  0  0  0  0  0  0  0  0  0
  133.5720   76.8490  226.8580 C   0  0  0  0  0  0  0  0  0  0  0  0
  132.4960   76.9240  227.7490 C   0  0  0  0  0  0  0  0  0  0  0  0
  132.1090   78.4340  228.5600 Cl  0  0  0  0  0  0  0  0  0  0  0  0
  131.7300   75.7740  227.9790 C   0  0  0  0  0  0  0  0  0  0  0  0
  132.0320   74.5790  227.3380 C   0  0  0  0  0  0  0  0  0  0  0  0
  133.0900   74.4970  226.4610 C   0  0  0  0  0  0  0  0  0  0  0  0
  133.4070   73.3340  225.8140 N   0  0  0  0  0  0  0  0  0  0  0  0
  132.8780   71.4140  223.9230 H   0  0  0  0  0  0  0  0  0  0  0  0
  133.4769   69.4376  222.7140 H   0  0  0  0  0  0  0  0  0  0  0  0
  134.9913   70.4652  222.2615 H   0  0  0  0  0  0  0  0  0  0  0  0
  137.2616   69.8600  225.6007 H   0  0  0  0  0  0  0  0  0  0  0  0
  137.6152   68.1567  225.4159 H   0  0  0  0  0  0  0  0  0  0  0  0
  139.0763   70.5535  223.9551 H   0  0  0  0  0  0  0  0  0  0  0  0
  140.9309   69.1365  224.4586 H   0  0  0  0  0  0  0  0  0  0  0  0
  139.2070   67.3470  225.1720 H   0  0  0  0  0  0  0  0  0  0  0  0
  141.6347   71.4070  225.0853 H   0  0  0  0  0  0  0  0  0  0  0  0
  142.0813   72.9789  226.9337 H   0  0  0  0  0  0  0  0  0  0  0  0
  140.9752   72.5696  229.1598 H   0  0  0  0  0  0  0  0  0  0  0  0
  139.4826   70.6161  229.4230 H   0  0  0  0  0  0  0  0  0  0  0  0
  139.0597   69.0630  227.5431 H   0  0  0  0  0  0  0  0  0  0  0  0
  139.6542   68.5951  222.2698 H   0  0  0  0  0  0  0  0  0  0  0  0
  139.6170   66.9300  223.8050 H   0  0  0  0  0  0  0  0  0  0  0  0
  137.4959   69.9409  221.9642 H   0  0  0  0  0  0  0  0  0  0  0  0
  137.0276   68.2729  221.7504 H   0  0  0  0  0  0  0  0  0  0  0  0
  136.0448   74.3768  224.0356 H   0  0  0  0  0  0  0  0  0  0  0  0
  135.5027   76.5059  225.1888 H   0  0  0  0  0  0  0  0  0  0  0  0
  134.1957   77.7309  226.6499 H   0  0  0  0  0  0  0  0  0  0  0  0
  130.8795   75.8176  228.6752 H   0  0  0  0  0  0  0  0  0  0  0  0
  131.4182   73.6874  227.5336 H   0  0  0  0  0  0  0  0  0  0  0  0
  1  2  2  0
  2  3  1  0
  3  4  1  0
  4  5  1  0
  5  6  2  0
  5  7  1  0
  7  8  1  0
  8  9  1  0
  9 10  1  0
 10 11  1  0
 10 12  1  0
 12 13  2  0
 13 14  1  0
 14 15  2  0
 15 16  1  0
 16 17  2  0
  9 18  1  0
 18 19  1  0
 18 20  1  0
  2 21  1  0
 21 22  2  0
 22 23  1  0
 23 24  2  0
 24 25  1  0
 25 26  2  0
 26 27  1  0
 26 28  1  0
 28 29  2  0
 29 30  1  0
 30 31  2  0
 20  7  1  0
 31 21  1  0
 17 12  1  0
 30 24  1  0
  3 32  1  0
  4 33  1  0
  4 34  1  0
  8 35  1  0
  8 36  1  0
  9 37  1  6
 10 38  1  6
 11 39  1  0
 13 40  1  0
 14 41  1  0
 15 42  1  0
 16 43  1  0
 17 44  1  0
 18 45  1  6
 19 46  1  0
 20 47  1  0
 20 48  1  0
 22 49  1  0
 23 50  1  0
 25 51  1  0
 28 52  1  0
 29 53  1  0
M  END
>  <smiles>  (22) 
O=C(NCC(=O)N1C[C@@H]([C@H](O)c2ccccc2)[C@@H](O)C1)c1ccc2cc(Cl)ccc2n1

>  <score_type>  (22) 
oracle

>  <origin>  (22) 
autodockgpu

>  <m_score__min__energy>  (22) 
-8.5299999999999994

>  <m_primary>  (22) 
energy

>  <rmsd>  (22) 
8.78513776030589

>  <m_score__min__rmsd>  (22) 
8.78513776030589

>  <meeko>  (22) 
{"free_energy": -7.97, "intermolecular_energy": -10.36, "internal_energy": -2.4, "cluster_size": 10, "cluster_id": 1, "rank_in_cluster": 6}

>  <energy>  (22) 
-7.76

>  <cluster_rmsd>  (22) 
0.9

>  <cluster>  (22) 
2

$$$$

     RDKit          3D

 53 56  0  0  0  0  0  0  0  0999 V2000
  138.3690   73.5720  221.2000 O   0  0  0  0  0  0  0  0  0  0  0  0
  137.9680   74.5630  221.8720 C   0  0  0  0  0  0  0  0  0  0  0  0
  136.5990   74.5040  222.3220 N   0  0  0  0  0  0  0  0  0  0  0  0
  135.8570   73.3550  221.9630 C   0  0  0  0  0  0  0  0  0  0  0  0
  135.9680   72.1370  222.7320 C   0  0  0  0  0  0  0  0  0  0  0  0
  134.8520   71.7510  223.2900 O   0  0  0  0  0  0  0  0  0  0  0  0
  137.0940   71.3120  222.9650 N   0  0  0  0  0  0  0  0  0  0  0  0
  137.7170   70.8790  224.1940 C   0  0  0  0  0  0  0  0  0  0  0  0
  139.1030   70.3780  223.7170 C   0  0  1  0  0  0  0  0  0  0  0  0
  139.7100   69.5050  224.7570 C   0  0  2  0  0  0  0  0  0  0  0  0
  138.7630   68.5200  225.1590 O   0  0  0  0  0  0  0  0  0  0  0  0
  140.2010   70.1910  225.9640 C   0  0  0  0  0  0  0  0  0  0  0  0
  140.6640   71.4690  226.0380 C   0  0  0  0  0  0  0  0  0  0  0  0
  141.1360   72.0700  227.1950 C   0  0  0  0  0  0  0  0  0  0  0  0
  141.1390   71.3120  228.3630 C   0  0  0  0  0  0  0  0  0  0  0  0
  140.6760   70.0140  228.3200 C   0  0  0  0  0  0  0  0  0  0  0  0
  140.2090   69.4450  227.1430 C   0  0  0  0  0  0  0  0  0  0  0  0
  138.6340   69.5920  222.5020 C   0  0  1  0  0  0  0  0  0  0  0  0
  137.7600   68.6210  222.9710 O   0  0  0  0  0  0  0  0  0  0  0  0
  137.8190   70.7000  221.8190 C   0  0  0  0  0  0  0  0  0  0  0  0
  138.8210   75.6980  222.1790 C   0  0  0  0  0  0  0  0  0  0  0  0
  140.1830   75.5290  221.9690 C   0  0  0  0  0  0  0  0  0  0  0  0
  141.0750   76.5480  222.2310 C   0  0  0  0  0  0  0  0  0  0  0  0
  140.5900   77.7530  222.7090 C   0  0  0  0  0  0  0  0  0  0  0  0
  141.5200   78.7380  222.9510 C   0  0  0  0  0  0  0  0  0  0  0  0
  141.0650   79.9710  223.4330 C   0  0  0  0  0  0  0  0  0  0  0  0
  142.1960   81.2750  223.7620 Cl  0  0  0  0  0  0  0  0  0  0  0  0
  139.6920   80.1470  223.6450 C   0  0  0  0  0  0  0  0  0  0  0  0
  138.7950   79.1180  223.3850 C   0  0  0  0  0  0  0  0  0  0  0  0
  139.2350   77.9030  222.9120 C   0  0  0  0  0  0  0  0  0  0  0  0
  138.3730   76.8740  222.6430 N   0  0  0  0  0  0  0  0  0  0  0  0
  136.2960   75.3320  222.8640 H   0  0  0  0  0  0  0  0  0  0  0  0
  134.7964   73.6458  221.9858 H   0  0  0  0  0  0  0  0  0  0  0  0
  136.2930   73.0739  220.9930 H   0  0  0  0  0  0  0  0  0  0  0  0
  137.8197   71.7145  224.9021 H   0  0  0  0  0  0  0  0  0  0  0  0
  137.1375   70.1130  224.7302 H   0  0  0  0  0  0  0  0  0  0  0  0
  139.8746   71.1354  223.5147 H   0  0  0  0  0  0  0  0  0  0  0  0
  140.5979   69.0713  224.2736 H   0  0  0  0  0  0  0  0  0  0  0  0
  138.8370   67.7200  224.6010 H   0  0  0  0  0  0  0  0  0  0  0  0
  140.6637   72.0671  225.1148 H   0  0  0  0  0  0  0  0  0  0  0  0
  141.4956   73.1096  227.1903 H   0  0  0  0  0  0  0  0  0  0  0  0
  141.5055   71.7426  229.3065 H   0  0  0  0  0  0  0  0  0  0  0  0
  140.6767   69.4140  229.2419 H   0  0  0  0  0  0  0  0  0  0  0  0
  139.8455   68.4068  227.1399 H   0  0  0  0  0  0  0  0  0  0  0  0
  139.4006   69.1074  221.8795 H   0  0  0  0  0  0  0  0  0  0  0  0
  137.6680   68.6430  223.9390 H   0  0  0  0  0  0  0  0  0  0  0  0
  138.4760   71.4320  221.3265 H   0  0  0  0  0  0  0  0  0  0  0  0
  137.1547   70.3316  221.0234 H   0  0  0  0  0  0  0  0  0  0  0  0
  140.5566   74.5673  221.5876 H   0  0  0  0  0  0  0  0  0  0  0  0
  142.1527   76.4055  222.0630 H   0  0  0  0  0  0  0  0  0  0  0  0
  142.5907   78.5615  222.7708 H   0  0  0  0  0  0  0  0  0  0  0  0
  139.3192   81.1109  224.0217 H   0  0  0  0  0  0  0  0  0  0  0  0
  137.7205   79.2766  223.5593 H   0  0  0  0  0  0  0  0  0  0  0  0
  1  2  2  0
  2  3  1  0
  3  4  1  0
  4  5  1  0
  5  6  2  0
  5  7  1  0
  7  8  1  0
  8  9  1  0
  9 10  1  0
 10 11  1  0
 10 12  1  0
 12 13  2  0
 13 14  1  0
 14 15  2  0
 15 16  1  0
 16 17  2  0
  9 18  1  0
 18 19  1  0
 18 20  1  0
  2 21  1  0
 21 22  2  0
 22 23  1  0
 23 24  2  0
 24 25  1  0
 25 26  2  0
 26 27  1  0
 26 28  1  0
 28 29  2  0
 29 30  1  0
 30 31  2  0
 20  7  1  0
 31 21  1  0
 17 12  1  0
 30 24  1  0
  3 32  1  0
  4 33  1  0
  4 34  1  0
  8 35  1  0
  8 36  1  0
  9 37  1  6
 10 38  1  6
 11 39  1  0
 13 40  1  0
 14 41  1  0
 15 42  1  0
 16 43  1  0
 17 44  1  0
 18 45  1  6
 19 46  1  0
 20 47  1  0
 20 48  1  0
 22 49  1  0
 23 50  1  0
 25 51  1  0
 28 52  1  0
 29 53  1  0
M  END
>  <smiles>  (23) 
O=C(NCC(=O)N1C[C@@H]([C@H](O)c2ccccc2)[C@@H](O)C1)c1ccc2cc(Cl)ccc2n1

>  <score_type>  (23) 
oracle

>  <origin>  (23) 
autodockgpu

>  <m_score__min__energy>  (23) 
-8.5299999999999994

>  <m_primary>  (23) 
energy

>  <rmsd>  (23) 
7.9698027483834295

>  <m_score__min__rmsd>  (23) 
7.9698027483834295

>  <meeko>  (23) 
{"free_energy": -7.46, "intermolecular_energy": -9.85, "internal_energy": -2.52, "cluster_size": 16, "cluster_id": 2, "rank_in_cluster": 14}

>  <energy>  (23) 
-7.66

>  <cluster_rmsd>  (23) 
1.04

>  <cluster>  (23) 
2

$$$$

     RDKit          3D

 53 56  0  0  0  0  0  0  0  0999 V2000
  138.4780   70.9870  221.1690 O   0  0  0  0  0  0  0  0  0  0  0  0
  138.5870   71.6670  222.2270 C   0  0  0  0  0  0  0  0  0  0  0  0
  138.0900   73.0190  222.1600 N   0  0  0  0  0  0  0  0  0  0  0  0
  137.5430   73.4380  220.9260 C   0  0  0  0  0  0  0  0  0  0  0  0
  137.9460   74.6910  220.3290 C   0  0  0  0  0  0  0  0  0  0  0  0
  137.0790   75.1890  219.4880 O   0  0  0  0  0  0  0  0  0  0  0  0
  139.1260   75.4480  220.5210 N   0  0  0  0  0  0  0  0  0  0  0  0
  139.4670   76.4410  221.5130 C   0  0  0  0  0  0  0  0  0  0  0  0
  140.6990   77.1420  220.8860 C   0  0  1  0  0  0  0  0  0  0  0  0
  141.4450   77.8850  221.9360 C   0  0  2  0  0  0  0  0  0  0  0  0
  141.3000   77.2150  223.1840 O   0  0  0  0  0  0  0  0  0  0  0  0
  141.0580   79.2940  222.1220 C   0  0  0  0  0  0  0  0  0  0  0  0
  140.0490   79.7600  222.9090 C   0  0  0  0  0  0  0  0  0  0  0  0
  139.7050   81.0970  223.0400 C   0  0  0  0  0  0  0  0  0  0  0  0
  140.4440   82.0290  222.3140 C   0  0  0  0  0  0  0  0  0  0  0  0
  141.4720   81.5870  221.5090 C   0  0  0  0  0  0  0  0  0  0  0  0
  141.7880   80.2400  221.4020 C   0  0  0  0  0  0  0  0  0  0  0  0
  141.4360   75.8930  220.4260 C   0  0  1  0  0  0  0  0  0  0  0  0
  141.6760   75.1330  221.5600 O   0  0  0  0  0  0  0  0  0  0  0  0
  140.2970   75.2420  219.6270 C   0  0  0  0  0  0  0  0  0  0  0  0
  139.1750   71.1330  223.4430 C   0  0  0  0  0  0  0  0  0  0  0  0
  140.1690   71.8940  224.0420 C   0  0  0  0  0  0  0  0  0  0  0  0
  140.7880   71.4720  225.2010 C   0  0  0  0  0  0  0  0  0  0  0  0
  140.4020   70.2680  225.7630 C   0  0  0  0  0  0  0  0  0  0  0  0
  141.0480   69.8930  226.9190 C   0  0  0  0  0  0  0  0  0  0  0  0
  140.6820   68.6830  227.5180 C   0  0  0  0  0  0  0  0  0  0  0  0
  141.4620   68.1430  228.9970 Cl  0  0  0  0  0  0  0  0  0  0  0  0
  139.6780   67.9110  226.9180 C   0  0  0  0  0  0  0  0  0  0  0  0
  139.0580   68.3350  225.7490 C   0  0  0  0  0  0  0  0  0  0  0  0
  139.4140   69.5250  225.1540 C   0  0  0  0  0  0  0  0  0  0  0  0
  138.8170   69.9680  224.0060 N   0  0  0  0  0  0  0  0  0  0  0  0
  138.2000   73.5540  223.0400 H   0  0  0  0  0  0  0  0  0  0  0  0
  137.7783   72.6510  220.1943 H   0  0  0  0  0  0  0  0  0  0  0  0
  136.4852   73.6122  221.1726 H   0  0  0  0  0  0  0  0  0  0  0  0
  138.6406   77.1513  221.6633 H   0  0  0  0  0  0  0  0  0  0  0  0
  139.6673   76.0137  222.5066 H   0  0  0  0  0  0  0  0  0  0  0  0
  140.5137   77.8917  220.1026 H   0  0  0  0  0  0  0  0  0  0  0  0
  142.4856   77.9014  221.5797 H   0  0  0  0  0  0  0  0  0  0  0  0
  141.9170   76.4580  223.2450 H   0  0  0  0  0  0  0  0  0  0  0  0
  139.4656   79.0237  223.4813 H   0  0  0  0  0  0  0  0  0  0  0  0
  138.8780   81.4108  223.6939 H   0  0  0  0  0  0  0  0  0  0  0  0
  140.2104   83.1017  222.3823 H   0  0  0  0  0  0  0  0  0  0  0  0
  142.0573   82.3214  220.9363 H   0  0  0  0  0  0  0  0  0  0  0  0
  142.6135   79.9184  220.7499 H   0  0  0  0  0  0  0  0  0  0  0  0
  142.3842   76.0292  219.8853 H   0  0  0  0  0  0  0  0  0  0  0  0
  142.2830   75.5740  222.1800 H   0  0  0  0  0  0  0  0  0  0  0  0
  140.1522   75.7434  218.6587 H   0  0  0  0  0  0  0  0  0  0  0  0
  140.4808   74.1866  219.3773 H   0  0  0  0  0  0  0  0  0  0  0  0
  140.4683   72.8490  223.5856 H   0  0  0  0  0  0  0  0  0  0  0  0
  141.5743   72.0820  225.6697 H   0  0  0  0  0  0  0  0  0  0  0  0
  141.8309   70.5276  227.3599 H   0  0  0  0  0  0  0  0  0  0  0  0
  139.3772   66.9581  227.3779 H   0  0  0  0  0  0  0  0  0  0  0  0
  138.2736   67.7129  225.2934 H   0  0  0  0  0  0  0  0  0  0  0  0
  1  2  2  0
  2  3  1  0
  3  4  1  0
  4  5  1  0
  5  6  2  0
  5  7  1  0
  7  8  1  0
  8  9  1  0
  9 10  1  0
 10 11  1  0
 10 12  1  0
 12 13  2  0
 13 14  1  0
 14 15  2  0
 15 16  1  0
 16 17  2  0
  9 18  1  0
 18 19  1  0
 18 20  1  0
  2 21  1  0
 21 22  2  0
 22 23  1  0
 23 24  2  0
 24 25  1  0
 25 26  2  0
 26 27  1  0
 26 28  1  0
 28 29  2  0
 29 30  1  0
 30 31  2  0
 20  7  1  0
 31 21  1  0
 17 12  1  0
 30 24  1  0
  3 32  1  0
  4 33  1  0
  4 34  1  0
  8 35  1  0
  8 36  1  0
  9 37  1  6
 10 38  1  6
 11 39  1  0
 13 40  1  0
 14 41  1  0
 15 42  1  0
 16 43  1  0
 17 44  1  0
 18 45  1  6
 19 46  1  0
 20 47  1  0
 20 48  1  0
 22 49  1  0
 23 50  1  0
 25 51  1  0
 28 52  1  0
 29 53  1  0
M  END
>  <smiles>  (24) 
O=C(NCC(=O)N1C[C@@H]([C@H](O)c2ccccc2)[C@@H](O)C1)c1ccc2cc(Cl)ccc2n1

>  <score_type>  (24) 
oracle

>  <origin>  (24) 
autodockgpu

>  <m_score__min__energy>  (24) 
-8.5299999999999994

>  <m_primary>  (24) 
energy

>  <rmsd>  (24) 
3.479198483976674

>  <m_score__min__rmsd>  (24) 
3.479198483976674

>  <meeko>  (24) 
{"free_energy": -8.09, "intermolecular_energy": -10.47, "internal_energy": -2.09, "cluster_size": 15, "cluster_id": 3, "rank_in_cluster": 3}

>  <energy>  (24) 
-7.46

>  <cluster_rmsd>  (24) 
1.06

>  <cluster>  (24) 
2

$$$$

     RDKit          3D

 53 56  0  0  0  0  0  0  0  0999 V2000
  138.7140   71.1980  220.8980 O   0  0  0  0  0  0  0  0  0  0  0  0
  138.6320   71.7740  222.0180 C   0  0  0  0  0  0  0  0  0  0  0  0
  137.9260   73.0320  222.0290 N   0  0  0  0  0  0  0  0  0  0  0  0
  137.4100   73.4850  220.7940 C   0  0  0  0  0  0  0  0  0  0  0  0
  138.2090   74.3140  219.9210 C   0  0  0  0  0  0  0  0  0  0  0  0
  137.9180   74.1960  218.6530 O   0  0  0  0  0  0  0  0  0  0  0  0
  139.2480   75.2230  220.2350 N   0  0  0  0  0  0  0  0  0  0  0  0
  139.4820   76.0280  221.4110 C   0  0  0  0  0  0  0  0  0  0  0  0
  140.5170   77.0680  220.9150 C   0  0  1  0  0  0  0  0  0  0  0  0
  141.1980   77.6980  222.0770 C   0  0  2  0  0  0  0  0  0  0  0  0
  141.3460   76.7370  223.1170 O   0  0  0  0  0  0  0  0  0  0  0  0
  140.5370   78.8870  222.6400 C   0  0  0  0  0  0  0  0  0  0  0  0
  141.0980   80.1120  222.8330 C   0  0  0  0  0  0  0  0  0  0  0  0
  140.4430   81.2010  223.3860 C   0  0  0  0  0  0  0  0  0  0  0  0
  139.1160   81.0300  223.7730 C   0  0  0  0  0  0  0  0  0  0  0  0
  138.5190   79.8000  223.5900 C   0  0  0  0  0  0  0  0  0  0  0  0
  139.2070   78.7310  223.0320 C   0  0  0  0  0  0  0  0  0  0  0  0
  141.4270   76.1110  220.1590 C   0  0  1  0  0  0  0  0  0  0  0  0
  141.8860   75.1850  221.0850 O   0  0  0  0  0  0  0  0  0  0  0  0
  140.3640   75.4400  219.2760 C   0  0  0  0  0  0  0  0  0  0  0  0
  139.2080   71.2150  223.2290 C   0  0  0  0  0  0  0  0  0  0  0  0
  140.2620   71.9170  223.7990 C   0  0  0  0  0  0  0  0  0  0  0  0
  140.8760   71.4680  224.9500 C   0  0  0  0  0  0  0  0  0  0  0  0
  140.4240   70.2980  225.5340 C   0  0  0  0  0  0  0  0  0  0  0  0
  141.0670   69.8940  226.6820 C   0  0  0  0  0  0  0  0  0  0  0  0
  140.6350   68.7160  227.3020 C   0  0  0  0  0  0  0  0  0  0  0  0
  141.4090   68.1430  228.7720 Cl  0  0  0  0  0  0  0  0  0  0  0  0
  139.5720   68.0050  226.7310 C   0  0  0  0  0  0  0  0  0  0  0  0
  138.9570   68.4560  225.5700 C   0  0  0  0  0  0  0  0  0  0  0  0
  139.3770   69.6130  224.9540 C   0  0  0  0  0  0  0  0  0  0  0  0
  138.7870   70.0830  223.8120 N   0  0  0  0  0  0  0  0  0  0  0  0
  137.8820   73.4830  222.9590 H   0  0  0  0  0  0  0  0  0  0  0  0
  137.1423   72.5875  220.2170 H   0  0  0  0  0  0  0  0  0  0  0  0
  136.5986   74.1616  221.1003 H   0  0  0  0  0  0  0  0  0  0  0  0
  138.5563   76.5189  221.7457 H   0  0  0  0  0  0  0  0  0  0  0  0
  139.8312   75.4445  222.2756 H   0  0  0  0  0  0  0  0  0  0  0  0
  140.1407   77.9188  220.3280 H   0  0  0  0  0  0  0  0  0  0  0  0
  142.1621   78.0475  221.6791 H   0  0  0  0  0  0  0  0  0  0  0  0
  142.1420   76.1870  222.9700 H   0  0  0  0  0  0  0  0  0  0  0  0
  142.1462   80.2474  222.5282 H   0  0  0  0  0  0  0  0  0  0  0  0
  140.9534   82.1669  223.5148 H   0  0  0  0  0  0  0  0  0  0  0  0
  138.5525   81.8634  224.2179 H   0  0  0  0  0  0  0  0  0  0  0  0
  137.4708   79.6626  223.8940 H   0  0  0  0  0  0  0  0  0  0  0  0
  138.7040   77.7618  222.8990 H   0  0  0  0  0  0  0  0  0  0  0  0
  142.2905   76.5387  219.6285 H   0  0  0  0  0  0  0  0  0  0  0  0
  142.5120   75.5750  221.7190 H   0  0  0  0  0  0  0  0  0  0  0  0
  140.0576   76.0993  218.4505 H   0  0  0  0  0  0  0  0  0  0  0  0
  140.7132   74.5172  218.7897 H   0  0  0  0  0  0  0  0  0  0  0  0
  140.6128   72.8457  223.3253 H   0  0  0  0  0  0  0  0  0  0  0  0
  141.7100   72.0302  225.3954 H   0  0  0  0  0  0  0  0  0  0  0  0
  141.8977   70.4810  227.1007 H   0  0  0  0  0  0  0  0  0  0  0  0
  139.2199   67.0783  227.2077 H   0  0  0  0  0  0  0  0  0  0  0  0
  138.1244   67.8816  225.1378 H   0  0  0  0  0  0  0  0  0  0  0  0
  1  2  2  0
  2  3  1  0
  3  4  1  0
  4  5  1  0
  5  6  2  0
  5  7  1  0
  7  8  1  0
  8  9  1  0
  9 10  1  0
 10 11  1  0
 10 12  1  0
 12 13  2  0
 13 14  1  0
 14 15  2  0
 15 16  1  0
 16 17  2  0
  9 18  1  0
 18 19  1  0
 18 20  1  0
  2 21  1  0
 21 22  2  0
 22 23  1  0
 23 24  2  0
 24 25  1  0
 25 26  2  0
 26 27  1  0
 26 28  1  0
 28 29  2  0
 29 30  1  0
 30 31  2  0
 20  7  1  0
 31 21  1  0
 17 12  1  0
 30 24  1  0
  3 32  1  0
  4 33  1  0
  4 34  1  0
  8 35  1  0
  8 36  1  0
  9 37  1  6
 10 38  1  6
 11 39  1  0
 13 40  1  0
 14 41  1  0
 15 42  1  0
 16 43  1  0
 17 44  1  0
 18 45  1  6
 19 46  1  0
 20 47  1  0
 20 48  1  0
 22 49  1  0
 23 50  1  0
 25 51  1  0
 28 52  1  0
 29 53  1  0
M  END
>  <smiles>  (25) 
O=C(NCC(=O)N1C[C@@H]([C@H](O)c2ccccc2)[C@@H](O)C1)c1ccc2cc(Cl)ccc2n1

>  <score_type>  (25) 
oracle

>  <origin>  (25) 
autodockgpu

>  <m_score__min__energy>  (25) 
-8.5299999999999994

>  <m_primary>  (25) 
energy

>  <rmsd>  (25) 
3.4219100393103807

>  <m_score__min__rmsd>  (25) 
3.4219100393103807

>  <meeko>  (25) 
{"free_energy": -7.88, "intermolecular_energy": -10.27, "internal_energy": -2.12, "cluster_size": 15, "cluster_id": 3, "rank_in_cluster": 10}

>  <energy>  (25) 
-7.37

>  <cluster_rmsd>  (25) 
1.62

>  <cluster>  (25) 
2

$$$$

     RDKit          3D

 53 56  0  0  0  0  0  0  0  0999 V2000
  139.5640   71.8730  220.6300 O   0  0  0  0  0  0  0  0  0  0  0  0
  139.6270   72.3590  221.7930 C   0  0  0  0  0  0  0  0  0  0  0  0
  139.5030   73.7940  221.8820 N   0  0  0  0  0  0  0  0  0  0  0  0
  139.3290   74.4970  220.6680 C   0  0  0  0  0  0  0  0  0  0  0  0
  140.4040   74.5820  219.7070 C   0  0  0  0  0  0  0  0  0  0  0  0
  140.0260   74.9350  218.5070 O   0  0  0  0  0  0  0  0  0  0  0  0
  141.7890   74.3440  219.8730 N   0  0  0  0  0  0  0  0  0  0  0  0
  142.5580   73.1230  219.8010 C   0  0  0  0  0  0  0  0  0  0  0  0
  143.8890   73.5150  220.4920 C   0  0  1  0  0  0  0  0  0  0  0  0
  144.9520   72.5410  220.1310 C   0  0  2  0  0  0  0  0  0  0  0  0
  145.9370   73.1890  219.3340 O   0  0  0  0  0  0  0  0  0  0  0  0
  144.5010   71.3350  219.4150 C   0  0  0  0  0  0  0  0  0  0  0  0
  144.6420   71.0830  218.0840 C   0  0  0  0  0  0  0  0  0  0  0  0
  144.1830   69.9410  217.4460 C   0  0  0  0  0  0  0  0  0  0  0  0
  143.5310   68.9840  218.2210 C   0  0  0  0  0  0  0  0  0  0  0  0
  143.3730   69.2120  219.5720 C   0  0  0  0  0  0  0  0  0  0  0  0
  143.8460   70.3680  220.1770 C   0  0  0  0  0  0  0  0  0  0  0  0
  144.0850   74.8640  219.8160 C   0  0  1  0  0  0  0  0  0  0  0  0
  144.1530   74.6170  218.4520 O   0  0  0  0  0  0  0  0  0  0  0  0
  142.7150   75.4780  220.1380 C   0  0  0  0  0  0  0  0  0  0  0  0
  139.8140   71.5380  222.9760 C   0  0  0  0  0  0  0  0  0  0  0  0
  139.4280   70.2080  222.8790 C   0  0  0  0  0  0  0  0  0  0  0  0
  139.5670   69.3460  223.9470 C   0  0  0  0  0  0  0  0  0  0  0  0
  140.0990   69.8300  225.1300 C   0  0  0  0  0  0  0  0  0  0  0  0
  140.2190   68.9310  226.1650 C   0  0  0  0  0  0  0  0  0  0  0  0
  140.7560   69.3840  227.3750 C   0  0  0  0  0  0  0  0  0  0  0  0
  140.9410   68.2910  228.7380 Cl  0  0  0  0  0  0  0  0  0  0  0  0
  141.1480   70.7250  227.4780 C   0  0  0  0  0  0  0  0  0  0  0  0
  141.0050   71.5920  226.4020 C   0  0  0  0  0  0  0  0  0  0  0  0
  140.4760   71.1540  225.2090 C   0  0  0  0  0  0  0  0  0  0  0  0
  140.3280   71.9850  224.1320 N   0  0  0  0  0  0  0  0  0  0  0  0
  139.5650   74.1640  222.8470 H   0  0  0  0  0  0  0  0  0  0  0  0
  138.4806   74.0256  220.1502 H   0  0  0  0  0  0  0  0  0  0  0  0
  139.2135   75.5390  221.0012 H   0  0  0  0  0  0  0  0  0  0  0  0
  142.0566   72.3064  220.3411 H   0  0  0  0  0  0  0  0  0  0  0  0
  142.6927   72.7528  218.7740 H   0  0  0  0  0  0  0  0  0  0  0  0
  143.9032   73.5360  221.5917 H   0  0  0  0  0  0  0  0  0  0  0  0
  145.3474   72.1902  221.0957 H   0  0  0  0  0  0  0  0  0  0  0  0
  145.9860   74.1420  219.5500 H   0  0  0  0  0  0  0  0  0  0  0  0
  145.1563   71.8388  217.4722 H   0  0  0  0  0  0  0  0  0  0  0  0
  144.3285   69.7954  216.3654 H   0  0  0  0  0  0  0  0  0  0  0  0
  143.1481   68.0605  217.7622 H   0  0  0  0  0  0  0  0  0  0  0  0
  142.8587   68.4580  220.1860 H   0  0  0  0  0  0  0  0  0  0  0  0
  143.7043   70.5214  221.2570 H   0  0  0  0  0  0  0  0  0  0  0  0
  144.9596   75.4620  220.1118 H   0  0  0  0  0  0  0  0  0  0  0  0
  145.0540   74.7240  218.1020 H   0  0  0  0  0  0  0  0  0  0  0  0
  142.6598   75.8002  221.1883 H   0  0  0  0  0  0  0  0  0  0  0  0
  142.4871   76.3793  219.5500 H   0  0  0  0  0  0  0  0  0  0  0  0
  139.0042   69.8353  221.9348 H   0  0  0  0  0  0  0  0  0  0  0  0
  139.2607   68.2931  223.8603 H   0  0  0  0  0  0  0  0  0  0  0  0
  139.9014   67.8848  226.0443 H   0  0  0  0  0  0  0  0  0  0  0  0
  141.5740   71.0958  228.4219 H   0  0  0  0  0  0  0  0  0  0  0  0
  141.3184   72.6414  226.5046 H   0  0  0  0  0  0  0  0  0  0  0  0
  1  2  2  0
  2  3  1  0
  3  4  1  0
  4  5  1  0
  5  6  2  0
  5  7  1  0
  7  8  1  0
  8  9  1  0
  9 10  1  0
 10 11  1  0
 10 12  1  0
 12 13  2  0
 13 14  1  0
 14 15  2  0
 15 16  1  0
 16 17  2  0
  9 18  1  0
 18 19  1  0
 18 20  1  0
  2 21  1  0
 21 22  2  0
 22 23  1  0
 23 24  2  0
 24 25  1  0
 25 26  2  0
 26 27  1  0
 26 28  1  0
 28 29  2  0
 29 30  1  0
 30 31  2  0
 20  7  1  0
 31 21  1  0
 17 12  1  0
 30 24  1  0
  3 32  1  0
  4 33  1  0
  4 34  1  0
  8 35  1  0
  8 36  1  0
  9 37  1  1
 10 38  1  1
 11 39  1  0
 13 40  1  0
 14 41  1  0
 15 42  1  0
 16 43  1  0
 17 44  1  0
 18 45  1  1
 19 46  1  0
 20 47  1  0
 20 48  1  0
 22 49  1  0
 23 50  1  0
 25 51  1  0
 28 52  1  0
 29 53  1  0
M  END
>  <smiles>  (26) 
O=C(NCC(=O)N1C[C@@H]([C@H](O)c2ccccc2)[C@@H](O)C1)c1ccc2cc(Cl)ccc2n1

>  <score_type>  (26) 
oracle

>  <origin>  (26) 
autodockgpu

>  <m_score__min__energy>  (26) 
-8.5299999999999994

>  <m_primary>  (26) 
energy

>  <rmsd>  (26) 
2.9963874480525745

>  <m_score__min__rmsd>  (26) 
2.9963874480525745

>  <meeko>  (26) 
{"free_energy": -7.74, "intermolecular_energy": -10.13, "internal_energy": -2.52, "cluster_size": 4, "cluster_id": 4, "rank_in_cluster": 3}

>  <energy>  (26) 
-7.28

>  <cluster_rmsd>  (26) 
1.35

>  <cluster>  (26) 
2

$$$$

     RDKit          3D

 53 56  0  0  0  0  0  0  0  0999 V2000
  139.3900   71.7560  221.3940 O   0  0  0  0  0  0  0  0  0  0  0  0
  138.8750   71.8960  222.5380 C   0  0  0  0  0  0  0  0  0  0  0  0
  137.7080   72.7410  222.6030 N   0  0  0  0  0  0  0  0  0  0  0  0
  137.2710   73.3210  221.3900 C   0  0  0  0  0  0  0  0  0  0  0  0
  137.5670   74.7030  221.0860 C   0  0  0  0  0  0  0  0  0  0  0  0
  136.5190   75.4240  220.7880 O   0  0  0  0  0  0  0  0  0  0  0  0
  138.8100   75.3790  221.0640 N   0  0  0  0  0  0  0  0  0  0  0  0
  139.3350   76.4290  221.9060 C   0  0  0  0  0  0  0  0  0  0  0  0
  140.5250   76.9720  221.0760 C   0  0  1  0  0  0  0  0  0  0  0  0
  141.4420   77.7470  221.9530 C   0  0  2  0  0  0  0  0  0  0  0  0
  141.3990   77.2130  223.2720 O   0  0  0  0  0  0  0  0  0  0  0  0
  141.1800   79.1940  222.0350 C   0  0  0  0  0  0  0  0  0  0  0  0
  140.3990   79.9260  221.1930 C   0  0  0  0  0  0  0  0  0  0  0  0
  140.1960   81.2940  221.2950 C   0  0  0  0  0  0  0  0  0  0  0  0
  140.8370   81.9670  222.3320 C   0  0  0  0  0  0  0  0  0  0  0  0
  141.6340   81.2530  223.2020 C   0  0  0  0  0  0  0  0  0  0  0  0
  141.8150   79.8830  223.0680 C   0  0  0  0  0  0  0  0  0  0  0  0
  141.1160   75.6330  220.6600 C   0  0  1  0  0  0  0  0  0  0  0  0
  141.4410   74.9620  221.8290 O   0  0  0  0  0  0  0  0  0  0  0  0
  139.8470   75.0030  220.0660 C   0  0  0  0  0  0  0  0  0  0  0  0
  139.4150   71.2530  223.7230 C   0  0  0  0  0  0  0  0  0  0  0  0
  140.4680   71.8970  224.3570 C   0  0  0  0  0  0  0  0  0  0  0  0
  141.0480   71.3660  225.4910 C   0  0  0  0  0  0  0  0  0  0  0  0
  140.5620   70.1710  225.9920 C   0  0  0  0  0  0  0  0  0  0  0  0
  141.1720   69.6840  227.1250 C   0  0  0  0  0  0  0  0  0  0  0  0
  140.7050   68.4800  227.6620 C   0  0  0  0  0  0  0  0  0  0  0  0
  141.4350   67.8010  229.1090 Cl  0  0  0  0  0  0  0  0  0  0  0  0
  139.6410   67.8260  227.0270 C   0  0  0  0  0  0  0  0  0  0  0  0
  139.0600   68.3610  225.8830 C   0  0  0  0  0  0  0  0  0  0  0  0
  139.5150   69.5450  225.3490 C   0  0  0  0  0  0  0  0  0  0  0  0
  138.9590   70.0950  224.2270 N   0  0  0  0  0  0  0  0  0  0  0  0
  137.3120   72.8430  223.5540 H   0  0  0  0  0  0  0  0  0  0  0  0
  137.7075   72.7200  220.5787 H   0  0  0  0  0  0  0  0  0  0  0  0
  136.1763   73.3218  221.4980 H   0  0  0  0  0  0  0  0  0  0  0  0
  138.5822   77.2122  222.0785 H   0  0  0  0  0  0  0  0  0  0  0  0
  139.6262   76.0794  222.9075 H   0  0  0  0  0  0  0  0  0  0  0  0
  140.2951   77.6601  220.2492 H   0  0  0  0  0  0  0  0  0  0  0  0
  142.4310   77.6437  221.4826 H   0  0  0  0  0  0  0  0  0  0  0  0
  141.9560   76.4110  223.3390 H   0  0  0  0  0  0  0  0  0  0  0  0
  139.8932   79.3942  220.3736 H   0  0  0  0  0  0  0  0  0  0  0  0
  139.5513   81.8287  220.5819 H   0  0  0  0  0  0  0  0  0  0  0  0
  140.7095   83.0526  222.4554 H   0  0  0  0  0  0  0  0  0  0  0  0
  142.1393   81.7825  224.0232 H   0  0  0  0  0  0  0  0  0  0  0  0
  142.4590   79.3412  223.7763 H   0  0  0  0  0  0  0  0  0  0  0  0
  141.9982   75.6456  220.0030 H   0  0  0  0  0  0  0  0  0  0  0  0
  142.1510   75.4050  222.3250 H   0  0  0  0  0  0  0  0  0  0  0  0
  139.6187   75.4247  219.0760 H   0  0  0  0  0  0  0  0  0  0  0  0
  139.9285   73.9183  219.9026 H   0  0  0  0  0  0  0  0  0  0  0  0
  140.8464   72.8459  223.9491 H   0  0  0  0  0  0  0  0  0  0  0  0
  141.8819   71.8834  225.9879 H   0  0  0  0  0  0  0  0  0  0  0  0
  142.0047   70.2270  227.5959 H   0  0  0  0  0  0  0  0  0  0  0  0
  139.2613   66.8790  227.4381 H   0  0  0  0  0  0  0  0  0  0  0  0
  138.2263   67.8315  225.3986 H   0  0  0  0  0  0  0  0  0  0  0  0
  1  2  2  0
  2  3  1  0
  3  4  1  0
  4  5  1  0
  5  6  2  0
  5  7  1  0
  7  8  1  0
  8  9  1  0
  9 10  1  0
 10 11  1  0
 10 12  1  0
 12 13  2  0
 13 14  1  0
 14 15  2  0
 15 16  1  0
 16 17  2  0
  9 18  1  0
 18 19  1  0
 18 20  1  0
  2 21  1  0
 21 22  2  0
 22 23  1  0
 23 24  2  0
 24 25  1  0
 25 26  2  0
 26 27  1  0
 26 28  1  0
 28 29  2  0
 29 30  1  0
 30 31  2  0
 20  7  1  0
 31 21  1  0
 17 12  1  0
 30 24  1  0
  3 32  1  0
  4 33  1  0
  4 34  1  0
  8 35  1  0
  8 36  1  0
  9 37  1  6
 10 38  1  6
 11 39  1  0
 13 40  1  0
 14 41  1  0
 15 42  1  0
 16 43  1  0
 17 44  1  0
 18 45  1  6
 19 46  1  0
 20 47  1  0
 20 48  1  0
 22 49  1  0
 23 50  1  0
 25 51  1  0
 28 52  1  0
 29 53  1  0
M  END
>  <smiles>  (27) 
O=C(NCC(=O)N1C[C@@H]([C@H](O)c2ccccc2)[C@@H](O)C1)c1ccc2cc(Cl)ccc2n1

>  <score_type>  (27) 
oracle

>  <origin>  (27) 
autodockgpu

>  <m_score__min__energy>  (27) 
-8.5299999999999994

>  <m_primary>  (27) 
energy

>  <rmsd>  (27) 
3.5851786426661083

>  <m_score__min__rmsd>  (27) 
3.5851786426661083

>  <meeko>  (27) 
{"free_energy": -8.19, "intermolecular_energy": -10.57, "internal_energy": -2.27, "cluster_size": 15, "cluster_id": 3, "rank_in_cluster": 1}

>  <energy>  (27) 
-8.19

>  <cluster_rmsd>  (27) 
0.0

>  <cluster>  (27) 
3

$$$$

     RDKit          3D

 53 56  0  0  0  0  0  0  0  0999 V2000
  135.8350   71.8830  223.9580 O   0  0  0  0  0  0  0  0  0  0  0  0
  134.6500   72.1500  224.3020 C   0  0  0  0  0  0  0  0  0  0  0  0
  133.6530   71.1740  223.9350 N   0  0  0  0  0  0  0  0  0  0  0  0
  134.1050   70.0340  223.2320 C   0  0  0  0  0  0  0  0  0  0  0  0
  135.0330   69.1100  223.8440 C   0  0  0  0  0  0  0  0  0  0  0  0
  134.4650   68.1590  224.5370 O   0  0  0  0  0  0  0  0  0  0  0  0
  136.4470   69.0860  223.8020 N   0  0  0  0  0  0  0  0  0  0  0  0
  137.4250   68.8970  224.8480 C   0  0  0  0  0  0  0  0  0  0  0  0
  138.7320   69.4060  224.1900 C   0  0  1  0  0  0  0  0  0  0  0  0
  139.9090   68.8940  224.9410 C   0  0  2  0  0  0  0  0  0  0  0  0
  139.6170   67.5980  225.4520 O   0  0  0  0  0  0  0  0  0  0  0  0
  140.3720   69.7350  226.0590 C   0  0  0  0  0  0  0  0  0  0  0  0
  140.6810   69.3140  227.3160 C   0  0  0  0  0  0  0  0  0  0  0  0
  141.0950   70.1450  228.3460 C   0  0  0  0  0  0  0  0  0  0  0  0
  141.2000   71.5070  228.0750 C   0  0  0  0  0  0  0  0  0  0  0  0
  140.8940   71.9640  226.8110 C   0  0  0  0  0  0  0  0  0  0  0  0
  140.4830   71.1020  225.8040 C   0  0  0  0  0  0  0  0  0  0  0  0
  138.5660   68.7240  222.8400 C   0  0  1  0  0  0  0  0  0  0  0  0
  138.4970   67.3610  223.0900 O   0  0  0  0  0  0  0  0  0  0  0  0
  137.1570   69.2360  222.5030 C   0  0  0  0  0  0  0  0  0  0  0  0
  134.2980   73.3610  225.0220 C   0  0  0  0  0  0  0  0  0  0  0  0
  135.1170   74.4650  224.8240 C   0  0  0  0  0  0  0  0  0  0  0  0
  134.8660   75.6620  225.4620 C   0  0  0  0  0  0  0  0  0  0  0  0
  133.7770   75.7490  226.3120 C   0  0  0  0  0  0  0  0  0  0  0  0
  133.5670   76.9650  226.9220 C   0  0  0  0  0  0  0  0  0  0  0  0
  132.4730   77.0910  227.7850 C   0  0  0  0  0  0  0  0  0  0  0  0
  132.1440   78.6140  228.5970 Cl  0  0  0  0  0  0  0  0  0  0  0  0
  131.6430   75.9810  227.9880 C   0  0  0  0  0  0  0  0  0  0  0  0
  131.9000   74.7750  227.3470 C   0  0  0  0  0  0  0  0  0  0  0  0
  132.9740   74.6430  226.4970 C   0  0  0  0  0  0  0  0  0  0  0  0
  133.2470   73.4690  225.8500 N   0  0  0  0  0  0  0  0  0  0  0  0
  132.6910   71.4230  224.2240 H   0  0  0  0  0  0  0  0  0  0  0  0
  133.2097   69.4519  222.9684 H   0  0  0  0  0  0  0  0  0  0  0  0
  134.6963   70.4693  222.4129 H   0  0  0  0  0  0  0  0  0  0  0  0
  137.1724   69.4907  225.7389 H   0  0  0  0  0  0  0  0  0  0  0  0
  137.4907   67.8572  225.2008 H   0  0  0  0  0  0  0  0  0  0  0  0
  138.8885   70.4940  224.1488 H   0  0  0  0  0  0  0  0  0  0  0  0
  140.7275   68.8886  224.2061 H   0  0  0  0  0  0  0  0  0  0  0  0
  139.7820   66.9120  224.7730 H   0  0  0  0  0  0  0  0  0  0  0  0
  140.5963   68.2383  227.5299 H   0  0  0  0  0  0  0  0  0  0  0  0
  141.3321   69.7426  229.3419 H   0  0  0  0  0  0  0  0  0  0  0  0
  141.5226   72.2083  228.8586 H   0  0  0  0  0  0  0  0  0  0  0  0
  140.9777   73.0393  226.5950 H   0  0  0  0  0  0  0  0  0  0  0  0
  140.2449   71.4965  224.8052 H   0  0  0  0  0  0  0  0  0  0  0  0
  139.3375   68.9048  222.0770 H   0  0  0  0  0  0  0  0  0  0  0  0
  139.3490   66.9960  223.3840 H   0  0  0  0  0  0  0  0  0  0  0  0
  137.1815   70.2876  222.1813 H   0  0  0  0  0  0  0  0  0  0  0  0
  136.6780   68.6948  221.6737 H   0  0  0  0  0  0  0  0  0  0  0  0
  135.9803   74.3835  224.1471 H   0  0  0  0  0  0  0  0  0  0  0  0
  135.5194   76.5316  225.2983 H   0  0  0  0  0  0  0  0  0  0  0  0
  134.2408   77.8143  226.7360 H   0  0  0  0  0  0  0  0  0  0  0  0
  130.7780   76.0649  228.6624 H   0  0  0  0  0  0  0  0  0  0  0  0
  131.2365   73.9151  227.5213 H   0  0  0  0  0  0  0  0  0  0  0  0
  1  2  2  0
  2  3  1  0
  3  4  1  0
  4  5  1  0
  5  6  2  0
  5  7  1  0
  7  8  1  0
  8  9  1  0
  9 10  1  0
 10 11  1  0
 10 12  1  0
 12 13  2  0
 13 14  1  0
 14 15  2  0
 15 16  1  0
 16 17  2  0
  9 18  1  0
 18 19  1  0
 18 20  1  0
  2 21  1  0
 21 22  2  0
 22 23  1  0
 23 24  2  0
 24 25  1  0
 25 26  2  0
 26 27  1  0
 26 28  1  0
 28 29  2  0
 29 30  1  0
 30 31  2  0
 20  7  1  0
 31 21  1  0
 17 12  1  0
 30 24  1  0
  3 32  1  0
  4 33  1  0
  4 34  1  0
  8 35  1  0
  8 36  1  0
  9 37  1  6
 10 38  1  6
 11 39  1  0
 13 40  1  0
 14 41  1  0
 15 42  1  0
 16 43  1  0
 17 44  1  0
 18 45  1  6
 19 46  1  0
 20 47  1  0
 20 48  1  0
 22 49  1  0
 23 50  1  0
 25 51  1  0
 28 52  1  0
 29 53  1  0
M  END
>  <smiles>  (28) 
O=C(NCC(=O)N1C[C@@H]([C@H](O)c2ccccc2)[C@@H](O)C1)c1ccc2cc(Cl)ccc2n1

>  <score_type>  (28) 
oracle

>  <origin>  (28) 
autodockgpu

>  <m_score__min__energy>  (28) 
-8.5299999999999994

>  <m_primary>  (28) 
energy

>  <rmsd>  (28) 
8.879314985306278

>  <m_score__min__rmsd>  (28) 
8.879314985306278

>  <meeko>  (28) 
{"free_energy": -7.94, "intermolecular_energy": -10.32, "internal_energy": -2.39, "cluster_size": 10, "cluster_id": 1, "rank_in_cluster": 8}

>  <energy>  (28) 
-8.18

>  <cluster_rmsd>  (28) 
0.49

>  <cluster>  (28) 
3

$$$$

     RDKit          3D

 53 56  0  0  0  0  0  0  0  0999 V2000
  140.4240   73.9640  221.9650 O   0  0  0  0  0  0  0  0  0  0  0  0
  139.8810   72.8240  221.9600 C   0  0  0  0  0  0  0  0  0  0  0  0
  139.1780   72.4680  220.7520 N   0  0  0  0  0  0  0  0  0  0  0  0
  139.1690   73.4260  219.7120 C   0  0  0  0  0  0  0  0  0  0  0  0
  138.3420   74.6080  219.8070 C   0  0  0  0  0  0  0  0  0  0  0  0
  137.6740   74.8850  218.7200 O   0  0  0  0  0  0  0  0  0  0  0  0
  138.1530   75.4960  220.8930 N   0  0  0  0  0  0  0  0  0  0  0  0
  138.6180   76.8460  221.1080 C   0  0  0  0  0  0  0  0  0  0  0  0
  138.4170   77.0390  222.6320 C   0  0  1  0  0  0  0  0  0  0  0  0
  138.4280   78.4880  222.9640 C   0  0  2  0  0  0  0  0  0  0  0  0
  137.7370   79.2110  221.9500 O   0  0  0  0  0  0  0  0  0  0  0  0
  139.7580   79.0970  223.1370 C   0  0  0  0  0  0  0  0  0  0  0  0
  140.0240   80.4080  223.3910 C   0  0  0  0  0  0  0  0  0  0  0  0
  141.2960   80.9420  223.5270 C   0  0  0  0  0  0  0  0  0  0  0  0
  142.3790   80.0770  223.3930 C   0  0  0  0  0  0  0  0  0  0  0  0
  142.1420   78.7430  223.1360 C   0  0  0  0  0  0  0  0  0  0  0  0
  140.8540   78.2430  223.0060 C   0  0  0  0  0  0  0  0  0  0  0  0
  137.0270   76.4310  222.7370 C   0  0  1  0  0  0  0  0  0  0  0  0
  136.2020   77.1810  221.9110 O   0  0  0  0  0  0  0  0  0  0  0  0
  137.3170   75.0860  222.0540 C   0  0  0  0  0  0  0  0  0  0  0  0
  139.9510   71.9190  223.0940 C   0  0  0  0  0  0  0  0  0  0  0  0
  139.4470   70.6400  222.9020 C   0  0  0  0  0  0  0  0  0  0  0  0
  139.4680   69.7070  223.9180 C   0  0  0  0  0  0  0  0  0  0  0  0
  140.0040   70.0660  225.1430 C   0  0  0  0  0  0  0  0  0  0  0  0
  140.0050   69.0990  226.1220 C   0  0  0  0  0  0  0  0  0  0  0  0
  140.5410   69.4260  227.3720 C   0  0  0  0  0  0  0  0  0  0  0  0
  140.5770   68.2400  228.6680 Cl  0  0  0  0  0  0  0  0  0  0  0  0
  141.0510   70.7150  227.5710 C   0  0  0  0  0  0  0  0  0  0  0  0
  141.0260   71.6550  226.5480 C   0  0  0  0  0  0  0  0  0  0  0  0
  140.4990   71.3410  225.3150 C   0  0  0  0  0  0  0  0  0  0  0  0
  140.4650   72.2450  224.2890 N   0  0  0  0  0  0  0  0  0  0  0  0
  138.7370   71.5320  220.7800 H   0  0  0  0  0  0  0  0  0  0  0  0
  140.2056   73.7757  219.5974 H   0  0  0  0  0  0  0  0  0  0  0  0
  138.7162   72.8755  218.8742 H   0  0  0  0  0  0  0  0  0  0  0  0
  139.6778   76.9488  220.8319 H   0  0  0  0  0  0  0  0  0  0  0  0
  138.0853   77.5923  220.5003 H   0  0  0  0  0  0  0  0  0  0  0  0
  139.1711   76.6019  223.3030 H   0  0  0  0  0  0  0  0  0  0  0  0
  137.9355   78.5524  223.9455 H   0  0  0  0  0  0  0  0  0  0  0  0
  137.1610   78.6140  221.4310 H   0  0  0  0  0  0  0  0  0  0  0  0
  139.1688   81.0919  223.4957 H   0  0  0  0  0  0  0  0  0  0  0  0
  141.4447   82.0121  223.7336 H   0  0  0  0  0  0  0  0  0  0  0  0
  143.4084   80.4522  223.4907 H   0  0  0  0  0  0  0  0  0  0  0  0
  142.9959   78.0576  223.0313 H   0  0  0  0  0  0  0  0  0  0  0  0
  140.6970   77.1740  222.7998 H   0  0  0  0  0  0  0  0  0  0  0  0
  136.5693   76.3727  223.7356 H   0  0  0  0  0  0  0  0  0  0  0  0
  135.9630   78.0370  222.3060 H   0  0  0  0  0  0  0  0  0  0  0  0
  137.8686   74.4096  222.7235 H   0  0  0  0  0  0  0  0  0  0  0  0
  136.4108   74.5304  221.7710 H   0  0  0  0  0  0  0  0  0  0  0  0
  139.0241   70.3660  221.9242 H   0  0  0  0  0  0  0  0  0  0  0  0
  139.0660   68.6957  223.7577 H   0  0  0  0  0  0  0  0  0  0  0  0
  139.5957   68.0968  225.9271 H   0  0  0  0  0  0  0  0  0  0  0  0
  141.4763   70.9865  228.5485 H   0  0  0  0  0  0  0  0  0  0  0  0
  141.4320   72.6619  226.7251 H   0  0  0  0  0  0  0  0  0  0  0  0
  1  2  2  0
  2  3  1  0
  3  4  1  0
  4  5  1  0
  5  6  2  0
  5  7  1  0
  7  8  1  0
  8  9  1  0
  9 10  1  0
 10 11  1  0
 10 12  1  0
 12 13  2  0
 13 14  1  0
 14 15  2  0
 15 16  1  0
 16 17  2  0
  9 18  1  0
 18 19  1  0
 18 20  1  0
  2 21  1  0
 21 22  2  0
 22 23  1  0
 23 24  2  0
 24 25  1  0
 25 26  2  0
 26 27  1  0
 26 28  1  0
 28 29  2  0
 29 30  1  0
 30 31  2  0
 20  7  1  0
 31 21  1  0
 17 12  1  0
 30 24  1  0
  3 32  1  0
  4 33  1  0
  4 34  1  0
  8 35  1  0
  8 36  1  0
  9 37  1  1
 10 38  1  1
 11 39  1  0
 13 40  1  0
 14 41  1  0
 15 42  1  0
 16 43  1  0
 17 44  1  0
 18 45  1  1
 19 46  1  0
 20 47  1  0
 20 48  1  0
 22 49  1  0
 23 50  1  0
 25 51  1  0
 28 52  1  0
 29 53  1  0
M  END
>  <smiles>  (29) 
O=C(NCC(=O)N1C[C@@H]([C@H](O)c2ccccc2)[C@@H](O)C1)c1ccc2cc(Cl)ccc2n1

>  <score_type>  (29) 
oracle

>  <origin>  (29) 
autodockgpu

>  <m_score__min__energy>  (29) 
-8.5299999999999994

>  <m_primary>  (29) 
energy

>  <rmsd>  (29) 
3.6790933170318896

>  <m_score__min__rmsd>  (29) 
3.6790933170318896

>  <meeko>  (29) 
{"free_energy": -7.51, "intermolecular_energy": -9.9, "internal_energy": -2.37, "cluster_size": 4, "cluster_id": 5, "rank_in_cluster": 3}

>  <energy>  (29) 
-8.09

>  <cluster_rmsd>  (29) 
0.72

>  <cluster>  (29) 
3

$$$$

     RDKit          3D

 53 56  0  0  0  0  0  0  0  0999 V2000
  140.3380   73.6640  222.2360 O   0  0  0  0  0  0  0  0  0  0  0  0
  139.6880   72.5920  222.3800 C   0  0  0  0  0  0  0  0  0  0  0  0
  138.7280   72.2950  221.3440 N   0  0  0  0  0  0  0  0  0  0  0  0
  138.6150   73.2300  220.2900 C   0  0  0  0  0  0  0  0  0  0  0  0
  138.0180   74.5270  220.5170 C   0  0  0  0  0  0  0  0  0  0  0  0
  136.7500   74.5950  220.2120 O   0  0  0  0  0  0  0  0  0  0  0  0
  138.5990   75.7170  221.0160 N   0  0  0  0  0  0  0  0  0  0  0  0
  138.2430   76.5490  222.1410 C   0  0  0  0  0  0  0  0  0  0  0  0
  139.0050   77.8660  221.8480 C   0  0  1  0  0  0  0  0  0  0  0  0
  139.1130   78.6750  223.0910 C   0  0  2  0  0  0  0  0  0  0  0  0
  137.9750   79.5230  223.2040 O   0  0  0  0  0  0  0  0  0  0  0  0
  140.3210   79.5090  223.2100 C   0  0  0  0  0  0  0  0  0  0  0  0
  141.4830   79.1680  223.8320 C   0  0  0  0  0  0  0  0  0  0  0  0
  142.5920   79.9950  223.9380 C   0  0  0  0  0  0  0  0  0  0  0  0
  142.5110   81.2620  223.3690 C   0  0  0  0  0  0  0  0  0  0  0  0
  141.3470   81.6360  222.7310 C   0  0  0  0  0  0  0  0  0  0  0  0
  140.2560   80.7830  222.6440 C   0  0  0  0  0  0  0  0  0  0  0  0
  140.3350   77.2510  221.4390 C   0  0  1  0  0  0  0  0  0  0  0  0
  140.7820   76.5150  222.5270 O   0  0  0  0  0  0  0  0  0  0  0  0
  139.8130   76.2820  220.3680 C   0  0  0  0  0  0  0  0  0  0  0  0
  139.8830   71.7040  223.5120 C   0  0  0  0  0  0  0  0  0  0  0  0
  139.5500   70.3690  223.3230 C   0  0  0  0  0  0  0  0  0  0  0  0
  139.7000   69.4470  224.3380 C   0  0  0  0  0  0  0  0  0  0  0  0
  140.1930   69.8740  225.5590 C   0  0  0  0  0  0  0  0  0  0  0  0
  140.3270   68.9150  226.5380 C   0  0  0  0  0  0  0  0  0  0  0  0
  140.8250   69.3100  227.7840 C   0  0  0  0  0  0  0  0  0  0  0  0
  141.0250   68.1390  229.0790 Cl  0  0  0  0  0  0  0  0  0  0  0  0
  141.1640   70.6550  227.9800 C   0  0  0  0  0  0  0  0  0  0  0  0
  141.0080   71.5830  226.9580 C   0  0  0  0  0  0  0  0  0  0  0  0
  140.5180   71.2030  225.7290 C   0  0  0  0  0  0  0  0  0  0  0  0
  140.3590   72.0940  224.7040 N   0  0  0  0  0  0  0  0  0  0  0  0
  138.2050   71.4140  221.4930 H   0  0  0  0  0  0  0  0  0  0  0  0
  139.6351   73.4134  219.9215 H   0  0  0  0  0  0  0  0  0  0  0  0
  137.9006   72.7463  219.6076 H   0  0  0  0  0  0  0  0  0  0  0  0
  137.1570   76.7197  222.1797 H   0  0  0  0  0  0  0  0  0  0  0  0
  138.5021   76.1025  223.1124 H   0  0  0  0  0  0  0  0  0  0  0  0
  138.5631   78.5556  221.1137 H   0  0  0  0  0  0  0  0  0  0  0  0
  139.1750   77.9339  223.9015 H   0  0  0  0  0  0  0  0  0  0  0  0
  137.7620   79.9350  222.3420 H   0  0  0  0  0  0  0  0  0  0  0  0
  141.5472   78.1664  224.2822 H   0  0  0  0  0  0  0  0  0  0  0  0
  143.5039   79.6604  224.4542 H   0  0  0  0  0  0  0  0  0  0  0  0
  143.3630   81.9553  223.4272 H   0  0  0  0  0  0  0  0  0  0  0  0
  141.2817   82.6368  222.2792 H   0  0  0  0  0  0  0  0  0  0  0  0
  139.3407   81.1107  222.1293 H   0  0  0  0  0  0  0  0  0  0  0  0
  141.1374   77.9321  221.1191 H   0  0  0  0  0  0  0  0  0  0  0  0
  141.1690   75.6630  222.2620 H   0  0  0  0  0  0  0  0  0  0  0  0
  139.5579   76.8141  219.4397 H   0  0  0  0  0  0  0  0  0  0  0  0
  140.5473   75.5198  220.0682 H   0  0  0  0  0  0  0  0  0  0  0  0
  139.1602   70.0415  222.3479 H   0  0  0  0  0  0  0  0  0  0  0  0
  139.4327   68.3917  224.1800 H   0  0  0  0  0  0  0  0  0  0  0  0
  140.0502   67.8679  226.3456 H   0  0  0  0  0  0  0  0  0  0  0  0
  141.5582   70.9800  228.9541 H   0  0  0  0  0  0  0  0  0  0  0  0
  141.2794   72.6345  227.1330 H   0  0  0  0  0  0  0  0  0  0  0  0
  1  2  2  0
  2  3  1  0
  3  4  1  0
  4  5  1  0
  5  6  2  0
  5  7  1  0
  7  8  1  0
  8  9  1  0
  9 10  1  0
 10 11  1  0
 10 12  1  0
 12 13  2  0
 13 14  1  0
 14 15  2  0
 15 16  1  0
 16 17  2  0
  9 18  1  0
 18 19  1  0
 18 20  1  0
  2 21  1  0
 21 22  2  0
 22 23  1  0
 23 24  2  0
 24 25  1  0
 25 26  2  0
 26 27  1  0
 26 28  1  0
 28 29  2  0
 29 30  1  0
 30 31  2  0
 20  7  1  0
 31 21  1  0
 17 12  1  0
 30 24  1  0
  3 32  1  0
  4 33  1  0
  4 34  1  0
  8 35  1  0
  8 36  1  0
  9 37  1  6
 10 38  1  1
 11 39  1  0
 13 40  1  0
 14 41  1  0
 15 42  1  0
 16 43  1  0
 17 44  1  0
 18 45  1  6
 19 46  1  0
 20 47  1  0
 20 48  1  0
 22 49  1  0
 23 50  1  0
 25 51  1  0
 28 52  1  0
 29 53  1  0
M  END
>  <smiles>  (30) 
O=C(NCC(=O)N1C[C@@H]([C@H](O)c2ccccc2)[C@@H](O)C1)c1ccc2cc(Cl)ccc2n1

>  <score_type>  (30) 
oracle

>  <origin>  (30) 
autodockgpu

>  <m_score__min__energy>  (30) 
-8.5299999999999994

>  <m_primary>  (30) 
energy

>  <rmsd>  (30) 
3.3829573238398605

>  <m_score__min__rmsd>  (30) 
3.3829573238398605

>  <meeko>  (30) 
{"free_energy": -8.06, "intermolecular_energy": -10.45, "internal_energy": -1.85, "cluster_size": 15, "cluster_id": 3, "rank_in_cluster": 5}

>  <energy>  (30) 
-8.07

>  <cluster_rmsd>  (30) 
1.74

>  <cluster>  (30) 
3

$$$$

     RDKit          3D

 53 56  0  0  0  0  0  0  0  0999 V2000
  140.3060   73.7170  222.2450 O   0  0  0  0  0  0  0  0  0  0  0  0
  139.6710   72.6330  222.3700 C   0  0  0  0  0  0  0  0  0  0  0  0
  138.7330   72.3290  221.3170 N   0  0  0  0  0  0  0  0  0  0  0  0
  138.6230   73.2710  220.2680 C   0  0  0  0  0  0  0  0  0  0  0  0
  138.0370   74.5700  220.5040 C   0  0  0  0  0  0  0  0  0  0  0  0
  136.7700   74.6530  220.1950 O   0  0  0  0  0  0  0  0  0  0  0  0
  138.6270   75.7500  221.0160 N   0  0  0  0  0  0  0  0  0  0  0  0
  138.2460   76.6030  222.1180 C   0  0  0  0  0  0  0  0  0  0  0  0
  139.0520   77.8970  221.8450 C   0  0  1  0  0  0  0  0  0  0  0  0
  139.1290   78.7160  223.0840 C   0  0  2  0  0  0  0  0  0  0  0  0
  137.9300   79.4690  223.2290 O   0  0  0  0  0  0  0  0  0  0  0  0
  140.2690   79.6450  223.1680 C   0  0  0  0  0  0  0  0  0  0  0  0
  140.3330   80.9000  222.6430 C   0  0  0  0  0  0  0  0  0  0  0  0
  141.4360   81.7350  222.7300 C   0  0  0  0  0  0  0  0  0  0  0  0
  142.5590   81.2560  223.4000 C   0  0  0  0  0  0  0  0  0  0  0  0
  142.5250   79.9890  223.9430 C   0  0  0  0  0  0  0  0  0  0  0  0
  141.4020   79.1800  223.8370 C   0  0  0  0  0  0  0  0  0  0  0  0
  140.3820   77.2450  221.4970 C   0  0  1  0  0  0  0  0  0  0  0  0
  140.7650   76.5090  222.6090 O   0  0  0  0  0  0  0  0  0  0  0  0
  139.8810   76.2780  220.4140 C   0  0  0  0  0  0  0  0  0  0  0  0
  139.8630   71.7400  223.4980 C   0  0  0  0  0  0  0  0  0  0  0  0
  139.5160   70.4090  223.3070 C   0  0  0  0  0  0  0  0  0  0  0  0
  139.6610   69.4830  224.3180 C   0  0  0  0  0  0  0  0  0  0  0  0
  140.1620   69.9000  225.5390 C   0  0  0  0  0  0  0  0  0  0  0  0
  140.2910   68.9380  226.5140 C   0  0  0  0  0  0  0  0  0  0  0  0
  140.7980   69.3230  227.7600 C   0  0  0  0  0  0  0  0  0  0  0  0
  140.9920   68.1470  229.0500 Cl  0  0  0  0  0  0  0  0  0  0  0  0
  141.1500   70.6640  227.9590 C   0  0  0  0  0  0  0  0  0  0  0  0
  141.0000   71.5970  226.9400 C   0  0  0  0  0  0  0  0  0  0  0  0
  140.5010   71.2260  225.7120 C   0  0  0  0  0  0  0  0  0  0  0  0
  140.3470   72.1220  224.6900 N   0  0  0  0  0  0  0  0  0  0  0  0
  138.2230   71.4380  221.4500 H   0  0  0  0  0  0  0  0  0  0  0  0
  139.6431   73.4489  219.8967 H   0  0  0  0  0  0  0  0  0  0  0  0
  137.9025   72.7964  219.5857 H   0  0  0  0  0  0  0  0  0  0  0  0
  137.1640   76.8011  222.1100 H   0  0  0  0  0  0  0  0  0  0  0  0
  138.4537   76.1603  223.1033 H   0  0  0  0  0  0  0  0  0  0  0  0
  138.6582   78.5898  221.0868 H   0  0  0  0  0  0  0  0  0  0  0  0
  139.2734   77.9850  223.8932 H   0  0  0  0  0  0  0  0  0  0  0  0
  137.4680   79.2280  224.0580 H   0  0  0  0  0  0  0  0  0  0  0  0
  139.4466   81.2778  222.1124 H   0  0  0  0  0  0  0  0  0  0  0  0
  141.4247   82.7410  222.2853 H   0  0  0  0  0  0  0  0  0  0  0  0
  143.4603   81.8795  223.4947 H   0  0  0  0  0  0  0  0  0  0  0  0
  143.4106   79.6096  224.4738 H   0  0  0  0  0  0  0  0  0  0  0  0
  141.4051   78.1732  224.2800 H   0  0  0  0  0  0  0  0  0  0  0  0
  141.2135   77.9031  221.2045 H   0  0  0  0  0  0  0  0  0  0  0  0
  141.2270   75.6880  222.3670 H   0  0  0  0  0  0  0  0  0  0  0  0
  139.6783   76.8066  219.4708 H   0  0  0  0  0  0  0  0  0  0  0  0
  140.6078   75.4948  220.1524 H   0  0  0  0  0  0  0  0  0  0  0  0
  139.1188   70.0882  222.3327 H   0  0  0  0  0  0  0  0  0  0  0  0
  139.3833   68.4309  224.1571 H   0  0  0  0  0  0  0  0  0  0  0  0
  140.0033   67.8943  226.3193 H   0  0  0  0  0  0  0  0  0  0  0  0
  141.5498   70.9823  228.9331 H   0  0  0  0  0  0  0  0  0  0  0  0
  141.2836   72.6450  227.1170 H   0  0  0  0  0  0  0  0  0  0  0  0
  1  2  2  0
  2  3  1  0
  3  4  1  0
  4  5  1  0
  5  6  2  0
  5  7  1  0
  7  8  1  0
  8  9  1  0
  9 10  1  0
 10 11  1  0
 10 12  1  0
 12 13  2  0
 13 14  1  0
 14 15  2  0
 15 16  1  0
 16 17  2  0
  9 18  1  0
 18 19  1  0
 18 20  1  0
  2 21  1  0
 21 22  2  0
 22 23  1  0
 23 24  2  0
 24 25  1  0
 25 26  2  0
 26 27  1  0
 26 28  1  0
 28 29  2  0
 29 30  1  0
 30 31  2  0
 20  7  1  0
 31 21  1  0
 17 12  1  0
 30 24  1  0
  3 32  1  0
  4 33  1  0
  4 34  1  0
  8 35  1  0
  8 36  1  0
  9 37  1  6
 10 38  1  1
 11 39  1  0
 13 40  1  0
 14 41  1  0
 15 42  1  0
 16 43  1  0
 17 44  1  0
 18 45  1  6
 19 46  1  0
 20 47  1  0
 20 48  1  0
 22 49  1  0
 23 50  1  0
 25 51  1  0
 28 52  1  0
 29 53  1  0
M  END
>  <smiles>  (31) 
O=C(NCC(=O)N1C[C@@H]([C@H](O)c2ccccc2)[C@@H](O)C1)c1ccc2cc(Cl)ccc2n1

>  <score_type>  (31) 
oracle

>  <origin>  (31) 
autodockgpu

>  <m_score__min__energy>  (31) 
-8.5299999999999994

>  <m_primary>  (31) 
energy

>  <rmsd>  (31) 
3.4787569552593185

>  <m_score__min__rmsd>  (31) 
3.4787569552593185

>  <meeko>  (31) 
{"free_energy": -8.07, "intermolecular_energy": -10.45, "internal_energy": -1.81, "cluster_size": 15, "cluster_id": 3, "rank_in_cluster": 4}

>  <energy>  (31) 
-8.06

>  <cluster_rmsd>  (31) 
1.76

>  <cluster>  (31) 
3

$$$$

     RDKit          3D

 53 56  0  0  0  0  0  0  0  0999 V2000
  134.2300   70.9350  227.4030 O   0  0  0  0  0  0  0  0  0  0  0  0
  133.8080   71.6070  226.4210 C   0  0  0  0  0  0  0  0  0  0  0  0
  133.4620   70.8500  225.2430 N   0  0  0  0  0  0  0  0  0  0  0  0
  133.6360   69.4480  225.3100 C   0  0  0  0  0  0  0  0  0  0  0  0
  134.6610   68.7950  224.5280 C   0  0  0  0  0  0  0  0  0  0  0  0
  134.2890   67.6620  223.9960 O   0  0  0  0  0  0  0  0  0  0  0  0
  135.9900   69.1990  224.2580 N   0  0  0  0  0  0  0  0  0  0  0  0
  137.1980   69.0770  225.0400 C   0  0  0  0  0  0  0  0  0  0  0  0
  138.1540   70.0840  224.3540 C   0  0  1  0  0  0  0  0  0  0  0  0
  139.5600   69.7860  224.7350 C   0  0  2  0  0  0  0  0  0  0  0  0
  139.7060   68.3860  224.9500 O   0  0  0  0  0  0  0  0  0  0  0  0
  140.0640   70.4900  225.9270 C   0  0  0  0  0  0  0  0  0  0  0  0
  140.8830   71.5770  225.9410 C   0  0  0  0  0  0  0  0  0  0  0  0
  141.3500   72.1970  227.0910 C   0  0  0  0  0  0  0  0  0  0  0  0
  140.9540   71.6690  228.3170 C   0  0  0  0  0  0  0  0  0  0  0  0
  140.1240   70.5680  228.3350 C   0  0  0  0  0  0  0  0  0  0  0  0
  139.6760   69.9730  227.1640 C   0  0  0  0  0  0  0  0  0  0  0  0
  137.8530   69.7060  222.9110 C   0  0  1  0  0  0  0  0  0  0  0  0
  138.1780   68.3640  222.7760 O   0  0  0  0  0  0  0  0  0  0  0  0
  136.3240   69.8410  222.9580 C   0  0  0  0  0  0  0  0  0  0  0  0
  133.6740   73.0530  226.4620 C   0  0  0  0  0  0  0  0  0  0  0  0
  134.5410   73.7820  225.6590 C   0  0  0  0  0  0  0  0  0  0  0  0
  134.4920   75.1600  225.6280 C   0  0  0  0  0  0  0  0  0  0  0  0
  133.5580   75.8130  226.4150 C   0  0  0  0  0  0  0  0  0  0  0  0
  133.5480   77.1880  226.3460 C   0  0  0  0  0  0  0  0  0  0  0  0
  132.6160   77.8810  227.1250 C   0  0  0  0  0  0  0  0  0  0  0  0
  132.5440   79.6360  227.0850 Cl  0  0  0  0  0  0  0  0  0  0  0  0
  131.7380   77.1500  227.9360 C   0  0  0  0  0  0  0  0  0  0  0  0
  131.7910   75.7620  227.9690 C   0  0  0  0  0  0  0  0  0  0  0  0
  132.7060   75.0730  227.2060 C   0  0  0  0  0  0  0  0  0  0  0  0
  132.7770   73.7070  227.2160 N   0  0  0  0  0  0  0  0  0  0  0  0
  133.1270   71.4280  224.4520 H   0  0  0  0  0  0  0  0  0  0  0  0
  133.8423   69.2067  226.3632 H   0  0  0  0  0  0  0  0  0  0  0  0
  132.7058   69.0633  224.8665 H   0  0  0  0  0  0  0  0  0  0  0  0
  137.0197   69.3522  226.0900 H   0  0  0  0  0  0  0  0  0  0  0  0
  137.5949   68.0516  225.0711 H   0  0  0  0  0  0  0  0  0  0  0  0
  138.0274   71.1497  224.5955 H   0  0  0  0  0  0  0  0  0  0  0  0
  140.1615   70.1521  223.8899 H   0  0  0  0  0  0  0  0  0  0  0  0
  139.8380   67.9170  224.1020 H   0  0  0  0  0  0  0  0  0  0  0  0
  141.1967   71.9933  224.9723 H   0  0  0  0  0  0  0  0  0  0  0  0
  142.0102   73.0752  227.0361 H   0  0  0  0  0  0  0  0  0  0  0  0
  141.2983   72.1236  229.2576 H   0  0  0  0  0  0  0  0  0  0  0  0
  139.8088   70.1505  229.3026 H   0  0  0  0  0  0  0  0  0  0  0  0
  139.0156   69.0946  227.2107 H   0  0  0  0  0  0  0  0  0  0  0  0
  138.3604   70.2741  222.1174 H   0  0  0  0  0  0  0  0  0  0  0  0
  138.4410   67.9610  223.6210 H   0  0  0  0  0  0  0  0  0  0  0  0
  136.0165   70.8971  222.9444 H   0  0  0  0  0  0  0  0  0  0  0  0
  135.8144   69.3842  222.0968 H   0  0  0  0  0  0  0  0  0  0  0  0
  135.2784   73.2523  225.0379 H   0  0  0  0  0  0  0  0  0  0  0  0
  135.1826   75.7304  224.9895 H   0  0  0  0  0  0  0  0  0  0  0  0
  134.2535   77.7265  225.6962 H   0  0  0  0  0  0  0  0  0  0  0  0
  130.9985   77.6809  228.5535 H   0  0  0  0  0  0  0  0  0  0  0  0
  131.0930   75.2069  228.6129 H   0  0  0  0  0  0  0  0  0  0  0  0
  1  2  2  0
  2  3  1  0
  3  4  1  0
  4  5  1  0
  5  6  2  0
  5  7  1  0
  7  8  1  0
  8  9  1  0
  9 10  1  0
 10 11  1  0
 10 12  1  0
 12 13  2  0
 13 14  1  0
 14 15  2  0
 15 16  1  0
 16 17  2  0
  9 18  1  0
 18 19  1  0
 18 20  1  0
  2 21  1  0
 21 22  2  0
 22 23  1  0
 23 24  2  0
 24 25  1  0
 25 26  2  0
 26 27  1  0
 26 28  1  0
 28 29  2  0
 29 30  1  0
 30 31  2  0
 20  7  1  0
 31 21  1  0
 17 12  1  0
 30 24  1  0
  3 32  1  0
  4 33  1  0
  4 34  1  0
  8 35  1  0
  8 36  1  0
  9 37  1  6
 10 38  1  6
 11 39  1  0
 13 40  1  0
 14 41  1  0
 15 42  1  0
 16 43  1  0
 17 44  1  0
 18 45  1  6
 19 46  1  0
 20 47  1  0
 20 48  1  0
 22 49  1  0
 23 50  1  0
 25 51  1  0
 28 52  1  0
 29 53  1  0
M  END
>  <smiles>  (32) 
O=C(NCC(=O)N1C[C@@H]([C@H](O)c2ccccc2)[C@@H](O)C1)c1ccc2cc(Cl)ccc2n1

>  <score_type>  (32) 
oracle

>  <origin>  (32) 
autodockgpu

>  <m_score__min__energy>  (32) 
-8.5299999999999994

>  <m_primary>  (32) 
energy

>  <rmsd>  (32) 
9.164880153150483

>  <m_score__min__rmsd>  (32) 
9.164880153150483

>  <meeko>  (32) 
{"free_energy": -8.12, "intermolecular_energy": -10.51, "internal_energy": -2.21, "cluster_size": 10, "cluster_id": 1, "rank_in_cluster": 5}

>  <energy>  (32) 
-8.03

>  <cluster_rmsd>  (32) 
0.97

>  <cluster>  (32) 
3

$$$$

     RDKit          3D

 53 56  0  0  0  0  0  0  0  0999 V2000
  137.5190   74.3080  220.5690 O   0  0  0  0  0  0  0  0  0  0  0  0
  137.6000   74.7990  221.7290 C   0  0  0  0  0  0  0  0  0  0  0  0
  136.6550   74.2900  222.6940 N   0  0  0  0  0  0  0  0  0  0  0  0
  135.7450   73.3090  222.2410 C   0  0  0  0  0  0  0  0  0  0  0  0
  136.0610   71.9030  222.3530 C   0  0  0  0  0  0  0  0  0  0  0  0
  135.0500   71.1060  222.1340 O   0  0  0  0  0  0  0  0  0  0  0  0
  137.2900   71.2730  222.6600 N   0  0  0  0  0  0  0  0  0  0  0  0
  137.8220   70.7890  223.9130 C   0  0  0  0  0  0  0  0  0  0  0  0
  139.3310   70.6240  223.6030 C   0  0  1  0  0  0  0  0  0  0  0  0
  139.9610   69.7360  224.6160 C   0  0  2  0  0  0  0  0  0  0  0  0
  139.1040   68.6290  224.8730 O   0  0  0  0  0  0  0  0  0  0  0  0
  140.2950   70.3670  225.9040 C   0  0  0  0  0  0  0  0  0  0  0  0
  139.9070   69.9450  227.1390 C   0  0  0  0  0  0  0  0  0  0  0  0
  140.2290   70.5840  228.3270 C   0  0  0  0  0  0  0  0  0  0  0  0
  141.0020   71.7390  228.2510 C   0  0  0  0  0  0  0  0  0  0  0  0
  141.4110   72.1920  227.0150 C   0  0  0  0  0  0  0  0  0  0  0  0
  141.0700   71.5260  225.8450 C   0  0  0  0  0  0  0  0  0  0  0  0
  139.1930   69.9490  222.2470 C   0  0  1  0  0  0  0  0  0  0  0  0
  138.4790   68.7780  222.4580 O   0  0  0  0  0  0  0  0  0  0  0  0
  138.2670   70.9770  221.5780 C   0  0  0  0  0  0  0  0  0  0  0  0
  138.5780   75.8120  222.0840 C   0  0  0  0  0  0  0  0  0  0  0  0
  139.9140   75.4690  221.9330 C   0  0  0  0  0  0  0  0  0  0  0  0
  140.9180   76.3640  222.2420 C   0  0  0  0  0  0  0  0  0  0  0  0
  140.5720   77.6190  222.7100 C   0  0  0  0  0  0  0  0  0  0  0  0
  141.6090   78.4750  223.0020 C   0  0  0  0  0  0  0  0  0  0  0  0
  141.2970   79.7540  223.4750 C   0  0  0  0  0  0  0  0  0  0  0  0
  142.5710   80.9000  223.8650 Cl  0  0  0  0  0  0  0  0  0  0  0  0
  139.9500   80.1060  223.6290 C   0  0  0  0  0  0  0  0  0  0  0  0
  138.9400   79.2030  223.3200 C   0  0  0  0  0  0  0  0  0  0  0  0
  139.2400   77.9420  222.8550 C   0  0  0  0  0  0  0  0  0  0  0  0
  138.2660   77.0350  222.5390 N   0  0  0  0  0  0  0  0  0  0  0  0
  136.7410   74.7160  223.6340 H   0  0  0  0  0  0  0  0  0  0  0  0
  134.8098   73.4664  222.7983 H   0  0  0  0  0  0  0  0  0  0  0  0
  135.7299   73.4715  221.1532 H   0  0  0  0  0  0  0  0  0  0  0  0
  137.6606   71.5185  224.7204 H   0  0  0  0  0  0  0  0  0  0  0  0
  137.3442   69.8609  224.2600 H   0  0  0  0  0  0  0  0  0  0  0  0
  139.9533   71.5310  223.6130 H   0  0  0  0  0  0  0  0  0  0  0  0
  140.9201   69.4385  224.1670 H   0  0  0  0  0  0  0  0  0  0  0  0
  138.4400   68.5310  224.1600 H   0  0  0  0  0  0  0  0  0  0  0  0
  139.2950   69.0329  227.1987 H   0  0  0  0  0  0  0  0  0  0  0  0
  139.8855   70.1917  229.2956 H   0  0  0  0  0  0  0  0  0  0  0  0
  141.2827   72.2830  229.1649 H   0  0  0  0  0  0  0  0  0  0  0  0
  142.0229   73.1040  226.9539 H   0  0  0  0  0  0  0  0  0  0  0  0
  141.4105   71.9117  224.8727 H   0  0  0  0  0  0  0  0  0  0  0  0
  140.1161   69.7072  221.6999 H   0  0  0  0  0  0  0  0  0  0  0  0
  139.0420   68.0560  222.7880 H   0  0  0  0  0  0  0  0  0  0  0  0
  138.8212   71.8803  221.2833 H   0  0  0  0  0  0  0  0  0  0  0  0
  137.8010   70.6129  220.6505 H   0  0  0  0  0  0  0  0  0  0  0  0
  140.1770   74.4678  221.5611 H   0  0  0  0  0  0  0  0  0  0  0  0
  141.9747   76.0844  222.1184 H   0  0  0  0  0  0  0  0  0  0  0  0
  142.6549   78.1621  222.8672 H   0  0  0  0  0  0  0  0  0  0  0  0
  139.6888   81.1085  223.9987 H   0  0  0  0  0  0  0  0  0  0  0  0
  137.8884   79.4990  223.4484 H   0  0  0  0  0  0  0  0  0  0  0  0
  1  2  2  0
  2  3  1  0
  3  4  1  0
  4  5  1  0
  5  6  2  0
  5  7  1  0
  7  8  1  0
  8  9  1  0
  9 10  1  0
 10 11  1  0
 10 12  1  0
 12 13  2  0
 13 14  1  0
 14 15  2  0
 15 16  1  0
 16 17  2  0
  9 18  1  0
 18 19  1  0
 18 20  1  0
  2 21  1  0
 21 22  2  0
 22 23  1  0
 23 24  2  0
 24 25  1  0
 25 26  2  0
 26 27  1  0
 26 28  1  0
 28 29  2  0
 29 30  1  0
 30 31  2  0
 20  7  1  0
 31 21  1  0
 17 12  1  0
 30 24  1  0
  3 32  1  0
  4 33  1  0
  4 34  1  0
  8 35  1  0
  8 36  1  0
  9 37  1  6
 10 38  1  6
 11 39  1  0
 13 40  1  0
 14 41  1  0
 15 42  1  0
 16 43  1  0
 17 44  1  0
 18 45  1  6
 19 46  1  0
 20 47  1  0
 20 48  1  0
 22 49  1  0
 23 50  1  0
 25 51  1  0
 28 52  1  0
 29 53  1  0
M  END
>  <smiles>  (33) 
O=C(NCC(=O)N1C[C@@H]([C@H](O)c2ccccc2)[C@@H](O)C1)c1ccc2cc(Cl)ccc2n1

>  <score_type>  (33) 
oracle

>  <origin>  (33) 
autodockgpu

>  <m_score__min__energy>  (33) 
-8.5299999999999994

>  <m_primary>  (33) 
energy

>  <rmsd>  (33) 
7.795361313637025

>  <m_score__min__rmsd>  (33) 
7.795361313637025

>  <meeko>  (33) 
{"free_energy": -7.88, "intermolecular_energy": -10.26, "internal_energy": -2.41, "cluster_size": 16, "cluster_id": 2, "rank_in_cluster": 6}

>  <energy>  (33) 
-8.0

>  <cluster_rmsd>  (33) 
1.04

>  <cluster>  (33) 
3

$$$$

     RDKit          3D

 53 56  0  0  0  0  0  0  0  0999 V2000
  133.3310   70.0300  226.5240 O   0  0  0  0  0  0  0  0  0  0  0  0
  133.2280   71.0670  225.8100 C   0  0  0  0  0  0  0  0  0  0  0  0
  133.4500   70.8810  224.3970 N   0  0  0  0  0  0  0  0  0  0  0  0
  133.7600   69.5710  223.9650 C   0  0  0  0  0  0  0  0  0  0  0  0
  134.9020   68.8690  224.5060 C   0  0  0  0  0  0  0  0  0  0  0  0
  134.5970   67.9100  225.3390 O   0  0  0  0  0  0  0  0  0  0  0  0
  136.2830   69.0660  224.2680 N   0  0  0  0  0  0  0  0  0  0  0  0
  137.4140   69.0460  225.1660 C   0  0  0  0  0  0  0  0  0  0  0  0
  138.5210   69.7460  224.3380 C   0  0  1  0  0  0  0  0  0  0  0  0
  139.8560   69.4340  224.9140 C   0  0  2  0  0  0  0  0  0  0  0  0
  139.8610   68.0970  225.4020 O   0  0  0  0  0  0  0  0  0  0  0  0
  140.3090   70.3210  225.9990 C   0  0  0  0  0  0  0  0  0  0  0  0
  141.0700   71.4420  225.8660 C   0  0  0  0  0  0  0  0  0  0  0  0
  141.4910   72.2380  226.9200 C   0  0  0  0  0  0  0  0  0  0  0  0
  141.1090   71.8650  228.2060 C   0  0  0  0  0  0  0  0  0  0  0  0
  140.3380   70.7340  228.3730 C   0  0  0  0  0  0  0  0  0  0  0  0
  139.9340   69.9600  227.2940 C   0  0  0  0  0  0  0  0  0  0  0  0
  138.2780   69.0290  223.0180 C   0  0  1  0  0  0  0  0  0  0  0  0
  138.4590   67.6750  223.2630 O   0  0  0  0  0  0  0  0  0  0  0  0
  136.7730   69.3080  222.8850 C   0  0  0  0  0  0  0  0  0  0  0  0
  132.9080   72.3700  226.3650 C   0  0  0  0  0  0  0  0  0  0  0  0
  131.7830   72.4440  227.1740 C   0  0  0  0  0  0  0  0  0  0  0  0
  131.3960   73.6370  227.7490 C   0  0  0  0  0  0  0  0  0  0  0  0
  132.1510   74.7710  227.5050 C   0  0  0  0  0  0  0  0  0  0  0  0
  131.7260   75.9350  228.1030 C   0  0  0  0  0  0  0  0  0  0  0  0
  132.4670   77.1010  227.8810 C   0  0  0  0  0  0  0  0  0  0  0  0
  131.9830   78.6220  228.6140 Cl  0  0  0  0  0  0  0  0  0  0  0  0
  133.6040   77.0310  227.0650 C   0  0  0  0  0  0  0  0  0  0  0  0
  133.9900   75.8300  226.4850 C   0  0  0  0  0  0  0  0  0  0  0  0
  133.2650   74.6790  226.6980 C   0  0  0  0  0  0  0  0  0  0  0  0
  133.6260   73.4820  226.1420 N   0  0  0  0  0  0  0  0  0  0  0  0
  133.3660   71.7490  223.8390 H   0  0  0  0  0  0  0  0  0  0  0  0
  132.8777   68.9510  224.1820 H   0  0  0  0  0  0  0  0  0  0  0  0
  134.0380   69.7184  222.9110 H   0  0  0  0  0  0  0  0  0  0  0  0
  137.1971   69.6035  226.0891 H   0  0  0  0  0  0  0  0  0  0  0  0
  137.6907   68.0338  225.4959 H   0  0  0  0  0  0  0  0  0  0  0  0
  138.4981   70.8445  224.2854 H   0  0  0  0  0  0  0  0  0  0  0  0
  140.5603   69.5868  224.0830 H   0  0  0  0  0  0  0  0  0  0  0  0
  140.0730   67.4670  224.6840 H   0  0  0  0  0  0  0  0  0  0  0  0
  141.3722   71.7370  224.8503 H   0  0  0  0  0  0  0  0  0  0  0  0
  142.1057   73.1335  226.7464 H   0  0  0  0  0  0  0  0  0  0  0  0
  141.4176   72.4636  229.0757 H   0  0  0  0  0  0  0  0  0  0  0  0
  140.0352   70.4374  229.3880 H   0  0  0  0  0  0  0  0  0  0  0  0
  139.3190   69.0631  227.4593 H   0  0  0  0  0  0  0  0  0  0  0  0
  138.8980   69.3193  222.1570 H   0  0  0  0  0  0  0  0  0  0  0  0
  139.3960   67.4440  223.3890 H   0  0  0  0  0  0  0  0  0  0  0  0
  136.5863   70.3459  222.5720 H   0  0  0  0  0  0  0  0  0  0  0  0
  136.2750   68.6868  222.1260 H   0  0  0  0  0  0  0  0  0  0  0  0
  131.1899   71.5365  227.3600 H   0  0  0  0  0  0  0  0  0  0  0  0
  130.5033   73.6860  228.3899 H   0  0  0  0  0  0  0  0  0  0  0  0
  130.8281   75.9486  228.7383 H   0  0  0  0  0  0  0  0  0  0  0  0
  134.1980   77.9385  226.8817 H   0  0  0  0  0  0  0  0  0  0  0  0
  134.8859   75.7977  225.8476 H   0  0  0  0  0  0  0  0  0  0  0  0
  1  2  2  0
  2  3  1  0
  3  4  1  0
  4  5  1  0
  5  6  2  0
  5  7  1  0
  7  8  1  0
  8  9  1  0
  9 10  1  0
 10 11  1  0
 10 12  1  0
 12 13  2  0
 13 14  1  0
 14 15  2  0
 15 16  1  0
 16 17  2  0
  9 18  1  0
 18 19  1  0
 18 20  1  0
  2 21  1  0
 21 22  2  0
 22 23  1  0
 23 24  2  0
 24 25  1  0
 25 26  2  0
 26 27  1  0
 26 28  1  0
 28 29  2  0
 29 30  1  0
 30 31  2  0
 20  7  1  0
 31 21  1  0
 17 12  1  0
 30 24  1  0
  3 32  1  0
  4 33  1  0
  4 34  1  0
  8 35  1  0
  8 36  1  0
  9 37  1  6
 10 38  1  6
 11 39  1  0
 13 40  1  0
 14 41  1  0
 15 42  1  0
 16 43  1  0
 17 44  1  0
 18 45  1  6
 19 46  1  0
 20 47  1  0
 20 48  1  0
 22 49  1  0
 23 50  1  0
 25 51  1  0
 28 52  1  0
 29 53  1  0
M  END
>  <smiles>  (34) 
O=C(NCC(=O)N1C[C@@H]([C@H](O)c2ccccc2)[C@@H](O)C1)c1ccc2cc(Cl)ccc2n1

>  <score_type>  (34) 
oracle

>  <origin>  (34) 
autodockgpu

>  <m_score__min__energy>  (34) 
-8.5299999999999994

>  <m_primary>  (34) 
energy

>  <rmsd>  (34) 
9.126791190041319

>  <m_score__min__rmsd>  (34) 
9.126791190041319

>  <meeko>  (34) 
{"free_energy": -8.53, "intermolecular_energy": -10.92, "internal_energy": -2.06, "cluster_size": 10, "cluster_id": 1, "rank_in_cluster": 1}

>  <energy>  (34) 
-7.97

>  <cluster_rmsd>  (34) 
1.09

>  <cluster>  (34) 
3

$$$$

     RDKit          3D

 53 56  0  0  0  0  0  0  0  0999 V2000
  137.3850   74.2620  220.7120 O   0  0  0  0  0  0  0  0  0  0  0  0
  137.4890   74.7870  221.8550 C   0  0  0  0  0  0  0  0  0  0  0  0
  136.5570   74.3160  222.8500 N   0  0  0  0  0  0  0  0  0  0  0  0
  135.6310   73.3280  222.4420 C   0  0  0  0  0  0  0  0  0  0  0  0
  136.0080   71.9340  222.4120 C   0  0  0  0  0  0  0  0  0  0  0  0
  135.0440   71.1240  222.0650 O   0  0  0  0  0  0  0  0  0  0  0  0
  137.2530   71.3260  222.7000 N   0  0  0  0  0  0  0  0  0  0  0  0
  137.8000   70.8190  223.9370 C   0  0  0  0  0  0  0  0  0  0  0  0
  139.3120   70.7010  223.6200 C   0  0  1  0  0  0  0  0  0  0  0  0
  139.9660   69.7990  224.6060 C   0  0  2  0  0  0  0  0  0  0  0  0
  139.1380   68.6620  224.8290 O   0  0  0  0  0  0  0  0  0  0  0  0
  140.2830   70.4000  225.9130 C   0  0  0  0  0  0  0  0  0  0  0  0
  139.8880   69.9440  227.1330 C   0  0  0  0  0  0  0  0  0  0  0  0
  140.1940   70.5540  228.3400 C   0  0  0  0  0  0  0  0  0  0  0  0
  140.9590   71.7170  228.3010 C   0  0  0  0  0  0  0  0  0  0  0  0
  141.3750   72.2040  227.0800 C   0  0  0  0  0  0  0  0  0  0  0  0
  141.0490   71.5660  225.8910 C   0  0  0  0  0  0  0  0  0  0  0  0
  139.1870   70.0620  222.2450 C   0  0  1  0  0  0  0  0  0  0  0  0
  138.5040   68.8680  222.4230 O   0  0  0  0  0  0  0  0  0  0  0  0
  138.2350   71.0850  221.6080 C   0  0  0  0  0  0  0  0  0  0  0  0
  138.4800   75.8030  222.1620 C   0  0  0  0  0  0  0  0  0  0  0  0
  139.8080   75.4640  221.9460 C   0  0  0  0  0  0  0  0  0  0  0  0
  140.8230   76.3610  222.2060 C   0  0  0  0  0  0  0  0  0  0  0  0
  140.4970   77.6160  222.6920 C   0  0  0  0  0  0  0  0  0  0  0  0
  141.5450   78.4750  222.9340 C   0  0  0  0  0  0  0  0  0  0  0  0
  141.2520   79.7520  223.4230 C   0  0  0  0  0  0  0  0  0  0  0  0
  142.5400   80.9020  223.7510 Cl  0  0  0  0  0  0  0  0  0  0  0  0
  139.9130   80.1000  223.6420 C   0  0  0  0  0  0  0  0  0  0  0  0
  138.8920   79.1940  223.3820 C   0  0  0  0  0  0  0  0  0  0  0  0
  139.1720   77.9350  222.9020 C   0  0  0  0  0  0  0  0  0  0  0  0
  138.1870   77.0250  222.6340 N   0  0  0  0  0  0  0  0  0  0  0  0
  136.6610   74.7700  223.7750 H   0  0  0  0  0  0  0  0  0  0  0  0
  134.7685   73.4061  223.1202 H   0  0  0  0  0  0  0  0  0  0  0  0
  135.4728   73.5630  221.3791 H   0  0  0  0  0  0  0  0  0  0  0  0
  137.6223   71.5202  224.7657 H   0  0  0  0  0  0  0  0  0  0  0  0
  137.3465   69.8694  224.2572 H   0  0  0  0  0  0  0  0  0  0  0  0
  139.9118   71.6224  223.6554 H   0  0  0  0  0  0  0  0  0  0  0  0
  140.9325   69.5401  224.1489 H   0  0  0  0  0  0  0  0  0  0  0  0
  138.4770   68.5690  224.1140 H   0  0  0  0  0  0  0  0  0  0  0  0
  139.2828   69.0260  227.1637 H   0  0  0  0  0  0  0  0  0  0  0  0
  139.8448   70.1340  229.2948 H   0  0  0  0  0  0  0  0  0  0  0  0
  141.2275   72.2396  229.2309 H   0  0  0  0  0  0  0  0  0  0  0  0
  141.9807   73.1216  227.0472 H   0  0  0  0  0  0  0  0  0  0  0  0
  141.3944   71.9795  224.9320 H   0  0  0  0  0  0  0  0  0  0  0  0
  140.1144   69.8592  221.6892 H   0  0  0  0  0  0  0  0  0  0  0  0
  139.0850   68.1520  222.7330 H   0  0  0  0  0  0  0  0  0  0  0  0
  138.7662   72.0098  221.3385 H   0  0  0  0  0  0  0  0  0  0  0  0
  137.7758   70.7361  220.6713 H   0  0  0  0  0  0  0  0  0  0  0  0
  140.0554   74.4636  221.5612 H   0  0  0  0  0  0  0  0  0  0  0  0
  141.8730   76.0843  222.0303 H   0  0  0  0  0  0  0  0  0  0  0  0
  142.5841   78.1656  222.7479 H   0  0  0  0  0  0  0  0  0  0  0  0
  139.6669   81.1017  224.0241 H   0  0  0  0  0  0  0  0  0  0  0  0
  137.8471   79.4867  223.5621 H   0  0  0  0  0  0  0  0  0  0  0  0
  1  2  2  0
  2  3  1  0
  3  4  1  0
  4  5  1  0
  5  6  2  0
  5  7  1  0
  7  8  1  0
  8  9  1  0
  9 10  1  0
 10 11  1  0
 10 12  1  0
 12 13  2  0
 13 14  1  0
 14 15  2  0
 15 16  1  0
 16 17  2  0
  9 18  1  0
 18 19  1  0
 18 20  1  0
  2 21  1  0
 21 22  2  0
 22 23  1  0
 23 24  2  0
 24 25  1  0
 25 26  2  0
 26 27  1  0
 26 28  1  0
 28 29  2  0
 29 30  1  0
 30 31  2  0
 20  7  1  0
 31 21  1  0
 17 12  1  0
 30 24  1  0
  3 32  1  0
  4 33  1  0
  4 34  1  0
  8 35  1  0
  8 36  1  0
  9 37  1  6
 10 38  1  6
 11 39  1  0
 13 40  1  0
 14 41  1  0
 15 42  1  0
 16 43  1  0
 17 44  1  0
 18 45  1  6
 19 46  1  0
 20 47  1  0
 20 48  1  0
 22 49  1  0
 23 50  1  0
 25 51  1  0
 28 52  1  0
 29 53  1  0
M  END
>  <smiles>  (35) 
O=C(NCC(=O)N1C[C@@H]([C@H](O)c2ccccc2)[C@@H](O)C1)c1ccc2cc(Cl)ccc2n1

>  <score_type>  (35) 
oracle

>  <origin>  (35) 
autodockgpu

>  <m_score__min__energy>  (35) 
-8.5299999999999994

>  <m_primary>  (35) 
energy

>  <rmsd>  (35) 
7.785805934800239

>  <m_score__min__rmsd>  (35) 
7.785805934800239

>  <meeko>  (35) 
{"free_energy": -7.84, "intermolecular_energy": -10.23, "internal_energy": -2.45, "cluster_size": 16, "cluster_id": 2, "rank_in_cluster": 7}

>  <energy>  (35) 
-7.96

>  <cluster_rmsd>  (35) 
1.19

>  <cluster>  (35) 
3

$$$$

     RDKit          3D

 53 56  0  0  0  0  0  0  0  0999 V2000
  140.0710   73.9580  222.3100 O   0  0  0  0  0  0  0  0  0  0  0  0
  139.8960   72.7120  222.2040 C   0  0  0  0  0  0  0  0  0  0  0  0
  139.6000   72.2300  220.8770 N   0  0  0  0  0  0  0  0  0  0  0  0
  139.5320   73.1950  219.8460 C   0  0  0  0  0  0  0  0  0  0  0  0
  140.6890   73.4860  219.0320 C   0  0  0  0  0  0  0  0  0  0  0  0
  140.4100   74.0070  217.8680 O   0  0  0  0  0  0  0  0  0  0  0  0
  142.0640   73.2900  219.3090 N   0  0  0  0  0  0  0  0  0  0  0  0
  142.9630   72.2200  218.9480 C   0  0  0  0  0  0  0  0  0  0  0  0
  144.1540   72.4310  219.9150 C   0  0  1  0  0  0  0  0  0  0  0  0
  145.3510   71.7090  219.4090 C   0  0  2  0  0  0  0  0  0  0  0  0
  145.6760   72.1850  218.1070 O   0  0  0  0  0  0  0  0  0  0  0  0
  145.2350   70.2420  219.3460 C   0  0  0  0  0  0  0  0  0  0  0  0
  144.1750   69.4940  219.7570 C   0  0  0  0  0  0  0  0  0  0  0  0
  144.1160   68.1100  219.6980 C   0  0  0  0  0  0  0  0  0  0  0  0
  145.2210   67.4370  219.1820 C   0  0  0  0  0  0  0  0  0  0  0  0
  146.3100   68.1670  218.7570 C   0  0  0  0  0  0  0  0  0  0  0  0
  146.3340   69.5530  218.8310 C   0  0  0  0  0  0  0  0  0  0  0  0
  144.2810   73.9400  219.7620 C   0  0  1  0  0  0  0  0  0  0  0  0
  144.5320   74.1830  218.4190 O   0  0  0  0  0  0  0  0  0  0  0  0
  142.8240   74.3190  220.0680 C   0  0  0  0  0  0  0  0  0  0  0  0
  139.9860   71.8100  223.3380 C   0  0  0  0  0  0  0  0  0  0  0  0
  139.5210   70.5160  223.1440 C   0  0  0  0  0  0  0  0  0  0  0  0
  139.5640   69.5850  224.1610 C   0  0  0  0  0  0  0  0  0  0  0  0
  140.0800   69.9600  225.3890 C   0  0  0  0  0  0  0  0  0  0  0  0
  140.1030   68.9940  226.3690 C   0  0  0  0  0  0  0  0  0  0  0  0
  140.6210   69.3380  227.6230 C   0  0  0  0  0  0  0  0  0  0  0  0
  140.6840   68.1540  228.9200 Cl  0  0  0  0  0  0  0  0  0  0  0  0
  141.0920   70.6420  227.8230 C   0  0  0  0  0  0  0  0  0  0  0  0
  141.0450   71.5800  226.8000 C   0  0  0  0  0  0  0  0  0  0  0  0
  140.5360   71.2500  225.5640 C   0  0  0  0  0  0  0  0  0  0  0  0
  140.4820   72.1520  224.5370 N   0  0  0  0  0  0  0  0  0  0  0  0
  139.4550   71.2060  220.8230 H   0  0  0  0  0  0  0  0  0  0  0  0
  138.7390   72.8653  219.1587 H   0  0  0  0  0  0  0  0  0  0  0  0
  139.3778   74.1338  220.3981 H   0  0  0  0  0  0  0  0  0  0  0  0
  142.4936   71.2378  219.1061 H   0  0  0  0  0  0  0  0  0  0  0  0
  143.2551   72.2359  217.8876 H   0  0  0  0  0  0  0  0  0  0  0  0
  144.0381   72.0725  220.9485 H   0  0  0  0  0  0  0  0  0  0  0  0
  146.1373   71.9201  220.1487 H   0  0  0  0  0  0  0  0  0  0  0  0
  144.9510   72.7350  217.7480 H   0  0  0  0  0  0  0  0  0  0  0  0
  143.3027   70.0254  220.1652 H   0  0  0  0  0  0  0  0  0  0  0  0
  143.2277   67.5627  220.0464 H   0  0  0  0  0  0  0  0  0  0  0  0
  145.2244   66.3391  219.1147 H   0  0  0  0  0  0  0  0  0  0  0  0
  147.1832   67.6374  218.3484 H   0  0  0  0  0  0  0  0  0  0  0  0
  147.2183   70.1076  218.4841 H   0  0  0  0  0  0  0  0  0  0  0  0
  145.0466   74.4525  220.3630 H   0  0  0  0  0  0  0  0  0  0  0  0
  145.4760   74.3400  218.2420 H   0  0  0  0  0  0  0  0  0  0  0  0
  142.6136   74.2555  221.1458 H   0  0  0  0  0  0  0  0  0  0  0  0
  142.5688   75.3516  219.7877 H   0  0  0  0  0  0  0  0  0  0  0  0
  139.1120   70.2289  222.1641 H   0  0  0  0  0  0  0  0  0  0  0  0
  139.1943   68.5618  223.9985 H   0  0  0  0  0  0  0  0  0  0  0  0
  139.7249   67.9799  226.1723 H   0  0  0  0  0  0  0  0  0  0  0  0
  141.5041   70.9265  228.8024 H   0  0  0  0  0  0  0  0  0  0  0  0
  141.4189   72.5988  226.9793 H   0  0  0  0  0  0  0  0  0  0  0  0
  1  2  2  0
  2  3  1  0
  3  4  1  0
  4  5  1  0
  5  6  2  0
  5  7  1  0
  7  8  1  0
  8  9  1  0
  9 10  1  0
 10 11  1  0
 10 12  1  0
 12 13  2  0
 13 14  1  0
 14 15  2  0
 15 16  1  0
 16 17  2  0
  9 18  1  0
 18 19  1  0
 18 20  1  0
  2 21  1  0
 21 22  2  0
 22 23  1  0
 23 24  2  0
 24 25  1  0
 25 26  2  0
 26 27  1  0
 26 28  1  0
 28 29  2  0
 29 30  1  0
 30 31  2  0
 20  7  1  0
 31 21  1  0
 17 12  1  0
 30 24  1  0
  3 32  1  0
  4 33  1  0
  4 34  1  0
  8 35  1  0
  8 36  1  0
  9 37  1  1
 10 38  1  1
 11 39  1  0
 13 40  1  0
 14 41  1  0
 15 42  1  0
 16 43  1  0
 17 44  1  0
 18 45  1  1
 19 46  1  0
 20 47  1  0
 20 48  1  0
 22 49  1  0
 23 50  1  0
 25 51  1  0
 28 52  1  0
 29 53  1  0
M  END
>  <smiles>  (36) 
O=C(NCC(=O)N1C[C@@H]([C@H](O)c2ccccc2)[C@@H](O)C1)c1ccc2cc(Cl)ccc2n1

>  <score_type>  (36) 
oracle

>  <origin>  (36) 
autodockgpu

>  <m_score__min__energy>  (36) 
-8.5299999999999994

>  <m_primary>  (36) 
energy

>  <rmsd>  (36) 
3.3172507781029412

>  <m_score__min__rmsd>  (36) 
3.3172507781029412

>  <meeko>  (36) 
{"free_energy": -8.11, "intermolecular_energy": -10.5, "internal_energy": -2.1, "cluster_size": 4, "cluster_id": 4, "rank_in_cluster": 1}

>  <energy>  (36) 
-7.88

>  <cluster_rmsd>  (36) 
1.14

>  <cluster>  (36) 
3

$$$$

     RDKit          3D

 53 56  0  0  0  0  0  0  0  0999 V2000
  136.4460   75.5680  220.9470 O   0  0  0  0  0  0  0  0  0  0  0  0
  137.3650   75.2670  221.7580 C   0  0  0  0  0  0  0  0  0  0  0  0
  137.2920   73.9440  222.3290 N   0  0  0  0  0  0  0  0  0  0  0  0
  136.2040   73.1350  221.9280 C   0  0  0  0  0  0  0  0  0  0  0  0
  136.2580   71.6990  222.0850 C   0  0  0  0  0  0  0  0  0  0  0  0
  135.1530   71.0820  221.7630 O   0  0  0  0  0  0  0  0  0  0  0  0
  137.3190   70.8760  222.5320 N   0  0  0  0  0  0  0  0  0  0  0  0
  137.7230   70.4860  223.8620 C   0  0  0  0  0  0  0  0  0  0  0  0
  139.1630   69.9580  223.6420 C   0  0  1  0  0  0  0  0  0  0  0  0
  139.5770   69.1200  224.7990 C   0  0  2  0  0  0  0  0  0  0  0  0
  138.4830   68.3070  225.2100 O   0  0  0  0  0  0  0  0  0  0  0  0
  140.0740   69.8530  225.9760 C   0  0  0  0  0  0  0  0  0  0  0  0
  140.0930   69.4040  227.2610 C   0  0  0  0  0  0  0  0  0  0  0  0
  140.5530   70.1380  228.3440 C   0  0  0  0  0  0  0  0  0  0  0  0
  141.0260   71.4240  228.1010 C   0  0  0  0  0  0  0  0  0  0  0  0
  141.0190   71.9060  226.8090 C   0  0  0  0  0  0  0  0  0  0  0  0
  140.5520   71.1430  225.7480 C   0  0  0  0  0  0  0  0  0  0  0  0
  138.8920   69.1290  222.3950 C   0  0  1  0  0  0  0  0  0  0  0  0
  137.9400   68.1830  222.7460 O   0  0  0  0  0  0  0  0  0  0  0  0
  138.2170   70.2170  221.5460 C   0  0  0  0  0  0  0  0  0  0  0  0
  138.4360   76.1850  222.1030 C   0  0  0  0  0  0  0  0  0  0  0  0
  139.7340   75.7310  221.9080 C   0  0  0  0  0  0  0  0  0  0  0  0
  140.8190   76.5290  222.2050 C   0  0  0  0  0  0  0  0  0  0  0  0
  140.5960   77.8000  222.7050 C   0  0  0  0  0  0  0  0  0  0  0  0
  141.7110   78.5580  222.9830 C   0  0  0  0  0  0  0  0  0  0  0  0
  141.5240   79.8490  223.4870 C   0  0  0  0  0  0  0  0  0  0  0  0
  142.9010   80.8730  223.8610 Cl  0  0  0  0  0  0  0  0  0  0  0  0
  140.2160   80.3130  223.6840 C   0  0  0  0  0  0  0  0  0  0  0  0
  139.1240   79.5070  223.3880 C   0  0  0  0  0  0  0  0  0  0  0  0
  139.3010   78.2340  222.8920 C   0  0  0  0  0  0  0  0  0  0  0  0
  138.2440   77.4210  222.5880 N   0  0  0  0  0  0  0  0  0  0  0  0
  138.0540   73.7290  222.9950 H   0  0  0  0  0  0  0  0  0  0  0  0
  135.3282   73.4810  222.4965 H   0  0  0  0  0  0  0  0  0  0  0  0
  136.1912   73.2631  220.8356 H   0  0  0  0  0  0  0  0  0  0  0  0
  137.7169   71.3471  224.5465 H   0  0  0  0  0  0  0  0  0  0  0  0
  137.0526   69.7446  224.3211 H   0  0  0  0  0  0  0  0  0  0  0  0
  139.9671   70.7023  223.5446 H   0  0  0  0  0  0  0  0  0  0  0  0
  140.4287   68.5317  224.4269 H   0  0  0  0  0  0  0  0  0  0  0  0
  137.8150   68.2380  224.4970 H   0  0  0  0  0  0  0  0  0  0  0  0
  139.7173   68.3883  227.4537 H   0  0  0  0  0  0  0  0  0  0  0  0
  140.5443   69.7179  229.3606 H   0  0  0  0  0  0  0  0  0  0  0  0
  141.3999   72.0467  228.9271 H   0  0  0  0  0  0  0  0  0  0  0  0
  141.3934   72.9218  226.6143 H   0  0  0  0  0  0  0  0  0  0  0  0
  140.5589   71.5554  224.7282 H   0  0  0  0  0  0  0  0  0  0  0  0
  139.7447   68.6151  221.9272 H   0  0  0  0  0  0  0  0  0  0  0  0
  138.3220   67.4420  223.2460 H   0  0  0  0  0  0  0  0  0  0  0  0
  138.9566   70.9255  221.1449 H   0  0  0  0  0  0  0  0  0  0  0  0
  137.6902   69.8241  220.6639 H   0  0  0  0  0  0  0  0  0  0  0  0
  139.8993   74.7188  221.5103 H   0  0  0  0  0  0  0  0  0  0  0  0
  141.8437   76.1616  222.0472 H   0  0  0  0  0  0  0  0  0  0  0  0
  142.7219   78.1589  222.8133 H   0  0  0  0  0  0  0  0  0  0  0  0
  140.0524   81.3271  224.0775 H   0  0  0  0  0  0  0  0  0  0  0  0
  138.1058   79.8898  223.5516 H   0  0  0  0  0  0  0  0  0  0  0  0
  1  2  2  0
  2  3  1  0
  3  4  1  0
  4  5  1  0
  5  6  2  0
  5  7  1  0
  7  8  1  0
  8  9  1  0
  9 10  1  0
 10 11  1  0
 10 12  1  0
 12 13  2  0
 13 14  1  0
 14 15  2  0
 15 16  1  0
 16 17  2  0
  9 18  1  0
 18 19  1  0
 18 20  1  0
  2 21  1  0
 21 22  2  0
 22 23  1  0
 23 24  2  0
 24 25  1  0
 25 26  2  0
 26 27  1  0
 26 28  1  0
 28 29  2  0
 29 30  1  0
 30 31  2  0
 20  7  1  0
 31 21  1  0
 17 12  1  0
 30 24  1  0
  3 32  1  0
  4 33  1  0
  4 34  1  0
  8 35  1  0
  8 36  1  0
  9 37  1  6
 10 38  1  6
 11 39  1  0
 13 40  1  0
 14 41  1  0
 15 42  1  0
 16 43  1  0
 17 44  1  0
 18 45  1  6
 19 46  1  0
 20 47  1  0
 20 48  1  0
 22 49  1  0
 23 50  1  0
 25 51  1  0
 28 52  1  0
 29 53  1  0
M  END
>  <smiles>  (37) 
O=C(NCC(=O)N1C[C@@H]([C@H](O)c2ccccc2)[C@@H](O)C1)c1ccc2cc(Cl)ccc2n1

>  <score_type>  (37) 
oracle

>  <origin>  (37) 
autodockgpu

>  <m_score__min__energy>  (37) 
-8.5299999999999994

>  <m_primary>  (37) 
energy

>  <rmsd>  (37) 
8.062247528074959

>  <m_score__min__rmsd>  (37) 
8.062247528074959

>  <meeko>  (37) 
{"free_energy": -8.2, "intermolecular_energy": -10.58, "internal_energy": -2.11, "cluster_size": 16, "cluster_id": 2, "rank_in_cluster": 3}

>  <energy>  (37) 
-7.84

>  <cluster_rmsd>  (37) 
1.9

>  <cluster>  (37) 
3

$$$$

     RDKit          3D

 53 56  0  0  0  0  0  0  0  0999 V2000
  137.4480   74.4280  220.5220 O   0  0  0  0  0  0  0  0  0  0  0  0
  137.6020   74.8360  221.7070 C   0  0  0  0  0  0  0  0  0  0  0  0
  136.7330   74.2440  222.6940 N   0  0  0  0  0  0  0  0  0  0  0  0
  135.8060   73.2810  222.2330 C   0  0  0  0  0  0  0  0  0  0  0  0
  136.1240   71.8720  222.2780 C   0  0  0  0  0  0  0  0  0  0  0  0
  135.1330   71.0870  221.9490 O   0  0  0  0  0  0  0  0  0  0  0  0
  137.3370   71.2280  222.6200 N   0  0  0  0  0  0  0  0  0  0  0  0
  137.8700   70.8240  223.9000 C   0  0  0  0  0  0  0  0  0  0  0  0
  139.3690   70.5870  223.5880 C   0  0  1  0  0  0  0  0  0  0  0  0
  139.9830   69.7590  224.6600 C   0  0  2  0  0  0  0  0  0  0  0  0
  139.0930   68.7050  225.0130 O   0  0  0  0  0  0  0  0  0  0  0  0
  140.3560   70.4770  225.8900 C   0  0  0  0  0  0  0  0  0  0  0  0
  141.0850   71.6240  225.9700 C   0  0  0  0  0  0  0  0  0  0  0  0
  141.4310   72.2570  227.1550 C   0  0  0  0  0  0  0  0  0  0  0  0
  141.0040   71.6770  228.3470 C   0  0  0  0  0  0  0  0  0  0  0  0
  140.2640   70.5150  228.2980 C   0  0  0  0  0  0  0  0  0  0  0  0
  139.9360   69.9090  227.0930 C   0  0  0  0  0  0  0  0  0  0  0  0
  139.1910   69.8140  222.2900 C   0  0  1  0  0  0  0  0  0  0  0  0
  138.4440   68.6870  222.5980 O   0  0  0  0  0  0  0  0  0  0  0  0
  138.2900   70.8170  221.5540 C   0  0  0  0  0  0  0  0  0  0  0  0
  138.5890   75.8390  222.0670 C   0  0  0  0  0  0  0  0  0  0  0  0
  139.9230   75.4780  221.9330 C   0  0  0  0  0  0  0  0  0  0  0  0
  140.9340   76.3610  222.2490 C   0  0  0  0  0  0  0  0  0  0  0  0
  140.5990   77.6240  222.7070 C   0  0  0  0  0  0  0  0  0  0  0  0
  141.6440   78.4680  223.0050 C   0  0  0  0  0  0  0  0  0  0  0  0
  141.3430   79.7540  223.4680 C   0  0  0  0  0  0  0  0  0  0  0  0
  142.6270   80.8850  223.8660 Cl  0  0  0  0  0  0  0  0  0  0  0  0
  139.9990   80.1230  223.6040 C   0  0  0  0  0  0  0  0  0  0  0  0
  138.9810   79.2320  223.2890 C   0  0  0  0  0  0  0  0  0  0  0  0
  139.2700   77.9650  222.8340 C   0  0  0  0  0  0  0  0  0  0  0  0
  138.2880   77.0690  222.5120 N   0  0  0  0  0  0  0  0  0  0  0  0
  136.8780   74.6030  223.6540 H   0  0  0  0  0  0  0  0  0  0  0  0
  134.8905   73.4159  222.8277 H   0  0  0  0  0  0  0  0  0  0  0  0
  135.7539   73.4869  221.1537 H   0  0  0  0  0  0  0  0  0  0  0  0
  137.7422   71.6177  224.6508 H   0  0  0  0  0  0  0  0  0  0  0  0
  137.3679   69.9408  224.3218 H   0  0  0  0  0  0  0  0  0  0  0  0
  140.0201   71.4711  223.5212 H   0  0  0  0  0  0  0  0  0  0  0  0
  140.9249   69.3937  224.2248 H   0  0  0  0  0  0  0  0  0  0  0  0
  139.2460   67.9190  224.4500 H   0  0  0  0  0  0  0  0  0  0  0  0
  141.4236   72.0811  225.0285 H   0  0  0  0  0  0  0  0  0  0  0  0
  142.0220   73.1847  227.1532 H   0  0  0  0  0  0  0  0  0  0  0  0
  141.2536   72.1394  229.3134 H   0  0  0  0  0  0  0  0  0  0  0  0
  139.9246   70.0560  229.2383 H   0  0  0  0  0  0  0  0  0  0  0  0
  139.3451   68.9812  227.0867 H   0  0  0  0  0  0  0  0  0  0  0  0
  140.0985   69.5004  221.7533 H   0  0  0  0  0  0  0  0  0  0  0  0
  138.9870   67.9760  222.9800 H   0  0  0  0  0  0  0  0  0  0  0  0
  138.8690   71.6761  221.1843 H   0  0  0  0  0  0  0  0  0  0  0  0
  137.8002   70.3978  220.6627 H   0  0  0  0  0  0  0  0  0  0  0  0
  140.1775   74.4716  221.5690 H   0  0  0  0  0  0  0  0  0  0  0  0
  141.9883   76.0671  222.1391 H   0  0  0  0  0  0  0  0  0  0  0  0
  142.6871   78.1410  222.8827 H   0  0  0  0  0  0  0  0  0  0  0  0
  139.7463   81.1310  223.9648 H   0  0  0  0  0  0  0  0  0  0  0  0
  137.9320   79.5422  223.4044 H   0  0  0  0  0  0  0  0  0  0  0  0
  1  2  2  0
  2  3  1  0
  3  4  1  0
  4  5  1  0
  5  6  2  0
  5  7  1  0
  7  8  1  0
  8  9  1  0
  9 10  1  0
 10 11  1  0
 10 12  1  0
 12 13  2  0
 13 14  1  0
 14 15  2  0
 15 16  1  0
 16 17  2  0
  9 18  1  0
 18 19  1  0
 18 20  1  0
  2 21  1  0
 21 22  2  0
 22 23  1  0
 23 24  2  0
 24 25  1  0
 25 26  2  0
 26 27  1  0
 26 28  1  0
 28 29  2  0
 29 30  1  0
 30 31  2  0
 20  7  1  0
 31 21  1  0
 17 12  1  0
 30 24  1  0
  3 32  1  0
  4 33  1  0
  4 34  1  0
  8 35  1  0
  8 36  1  0
  9 37  1  6
 10 38  1  6
 11 39  1  0
 13 40  1  0
 14 41  1  0
 15 42  1  0
 16 43  1  0
 17 44  1  0
 18 45  1  6
 19 46  1  0
 20 47  1  0
 20 48  1  0
 22 49  1  0
 23 50  1  0
 25 51  1  0
 28 52  1  0
 29 53  1  0
M  END
>  <smiles>  (38) 
O=C(NCC(=O)N1C[C@@H]([C@H](O)c2ccccc2)[C@@H](O)C1)c1ccc2cc(Cl)ccc2n1

>  <score_type>  (38) 
oracle

>  <origin>  (38) 
autodockgpu

>  <m_score__min__energy>  (38) 
-8.5299999999999994

>  <m_primary>  (38) 
energy

>  <rmsd>  (38) 
7.828910820448617

>  <m_score__min__rmsd>  (38) 
7.828910820448617

>  <meeko>  (38) 
{"free_energy": -7.98, "intermolecular_energy": -10.36, "internal_energy": -2.27, "cluster_size": 16, "cluster_id": 2, "rank_in_cluster": 5}

>  <energy>  (38) 
-7.78

>  <cluster_rmsd>  (38) 
1.03

>  <cluster>  (38) 
3

$$$$

     RDKit          3D

 53 56  0  0  0  0  0  0  0  0999 V2000
  140.7090   73.9460  221.9940 O   0  0  0  0  0  0  0  0  0  0  0  0
  140.0580   72.8640  222.0010 C   0  0  0  0  0  0  0  0  0  0  0  0
  139.3010   72.5780  220.8070 N   0  0  0  0  0  0  0  0  0  0  0  0
  139.3640   73.5330  219.7660 C   0  0  0  0  0  0  0  0  0  0  0  0
  138.6550   74.7870  219.8740 C   0  0  0  0  0  0  0  0  0  0  0  0
  138.0720   75.1720  218.7700 O   0  0  0  0  0  0  0  0  0  0  0  0
  138.5020   75.6480  220.9870 N   0  0  0  0  0  0  0  0  0  0  0  0
  138.8950   77.0240  221.1860 C   0  0  0  0  0  0  0  0  0  0  0  0
  138.8130   77.1850  222.7250 C   0  0  1  0  0  0  0  0  0  0  0  0
  138.7570   78.6280  223.0790 C   0  0  2  0  0  0  0  0  0  0  0  0
  137.9680   79.3210  222.1180 O   0  0  0  0  0  0  0  0  0  0  0  0
  140.0570   79.3120  223.1880 C   0  0  0  0  0  0  0  0  0  0  0  0
  140.2580   80.6470  223.3690 C   0  0  0  0  0  0  0  0  0  0  0  0
  141.5020   81.2530  223.4450 C   0  0  0  0  0  0  0  0  0  0  0  0
  142.6260   80.4390  223.3280 C   0  0  0  0  0  0  0  0  0  0  0  0
  142.4550   79.0840  223.1430 C   0  0  0  0  0  0  0  0  0  0  0  0
  141.1930   78.5110  223.0720 C   0  0  0  0  0  0  0  0  0  0  0  0
  137.4790   76.4840  222.9370 C   0  0  1  0  0  0  0  0  0  0  0  0
  136.5390   77.1870  222.1970 O   0  0  0  0  0  0  0  0  0  0  0  0
  137.7980   75.1700  222.2080 C   0  0  0  0  0  0  0  0  0  0  0  0
  140.0620   71.9560  223.1340 C   0  0  0  0  0  0  0  0  0  0  0  0
  139.4690   70.7150  222.9410 C   0  0  0  0  0  0  0  0  0  0  0  0
  139.4230   69.7830  223.9570 C   0  0  0  0  0  0  0  0  0  0  0  0
  139.9800   70.1030  225.1830 C   0  0  0  0  0  0  0  0  0  0  0  0
  139.9120   69.1380  226.1620 C   0  0  0  0  0  0  0  0  0  0  0  0
  140.4670   69.4260  227.4130 C   0  0  0  0  0  0  0  0  0  0  0  0
  140.4180   68.2410  228.7090 Cl  0  0  0  0  0  0  0  0  0  0  0  0
  141.0670   70.6760  227.6130 C   0  0  0  0  0  0  0  0  0  0  0  0
  141.1090   71.6160  226.5900 C   0  0  0  0  0  0  0  0  0  0  0  0
  140.5640   71.3400  225.3570 C   0  0  0  0  0  0  0  0  0  0  0  0
  140.5960   72.2450  224.3310 N   0  0  0  0  0  0  0  0  0  0  0  0
  138.7720   71.6890  220.8450 H   0  0  0  0  0  0  0  0  0  0  0  0
  140.4268   73.7830  219.6324 H   0  0  0  0  0  0  0  0  0  0  0  0
  138.8461   73.0281  218.9372 H   0  0  0  0  0  0  0  0  0  0  0  0
  139.9183   77.2003  220.8231 H   0  0  0  0  0  0  0  0  0  0  0  0
  138.2647   77.7405  220.6389 H   0  0  0  0  0  0  0  0  0  0  0  0
  139.6485   76.7912  223.3223 H   0  0  0  0  0  0  0  0  0  0  0  0
  138.3174   78.6512  224.0871 H   0  0  0  0  0  0  0  0  0  0  0  0
  137.0200   79.2840  222.3560 H   0  0  0  0  0  0  0  0  0  0  0  0
  139.3700   81.2896  223.4614 H   0  0  0  0  0  0  0  0  0  0  0  0
  141.5983   82.3388  223.5926 H   0  0  0  0  0  0  0  0  0  0  0  0
  143.6360   80.8714  223.3825 H   0  0  0  0  0  0  0  0  0  0  0  0
  143.3418   78.4400  223.0492 H   0  0  0  0  0  0  0  0  0  0  0  0
  141.0887   77.4260  222.9244 H   0  0  0  0  0  0  0  0  0  0  0  0
  137.1129   76.3833  223.9694 H   0  0  0  0  0  0  0  0  0  0  0  0
  136.9370   77.9170  221.6910 H   0  0  0  0  0  0  0  0  0  0  0  0
  138.4489   74.5247  222.8163 H   0  0  0  0  0  0  0  0  0  0  0  0
  136.9094   74.5583  221.9932 H   0  0  0  0  0  0  0  0  0  0  0  0
  139.0291   70.4715  221.9626 H   0  0  0  0  0  0  0  0  0  0  0  0
  138.9517   68.8023  223.7956 H   0  0  0  0  0  0  0  0  0  0  0  0
  139.4342   68.1668  225.9659 H   0  0  0  0  0  0  0  0  0  0  0  0
  141.5099   70.9163  228.5908 H   0  0  0  0  0  0  0  0  0  0  0  0
  141.5836   72.5922  226.7682 H   0  0  0  0  0  0  0  0  0  0  0  0
  1  2  2  0
  2  3  1  0
  3  4  1  0
  4  5  1  0
  5  6  2  0
  5  7  1  0
  7  8  1  0
  8  9  1  0
  9 10  1  0
 10 11  1  0
 10 12  1  0
 12 13  2  0
 13 14  1  0
 14 15  2  0
 15 16  1  0
 16 17  2  0
  9 18  1  0
 18 19  1  0
 18 20  1  0
  2 21  1  0
 21 22  2  0
 22 23  1  0
 23 24  2  0
 24 25  1  0
 25 26  2  0
 26 27  1  0
 26 28  1  0
 28 29  2  0
 29 30  1  0
 30 31  2  0
 20  7  1  0
 31 21  1  0
 17 12  1  0
 30 24  1  0
  3 32  1  0
  4 33  1  0
  4 34  1  0
  8 35  1  0
  8 36  1  0
  9 37  1  1
 10 38  1  1
 11 39  1  0
 13 40  1  0
 14 41  1  0
 15 42  1  0
 16 43  1  0
 17 44  1  0
 18 45  1  1
 19 46  1  0
 20 47  1  0
 20 48  1  0
 22 49  1  0
 23 50  1  0
 25 51  1  0
 28 52  1  0
 29 53  1  0
M  END
>  <smiles>  (39) 
O=C(NCC(=O)N1C[C@@H]([C@H](O)c2ccccc2)[C@@H](O)C1)c1ccc2cc(Cl)ccc2n1

>  <score_type>  (39) 
oracle

>  <origin>  (39) 
autodockgpu

>  <m_score__min__energy>  (39) 
-8.5299999999999994

>  <m_primary>  (39) 
energy

>  <rmsd>  (39) 
3.7241342395306862

>  <m_score__min__rmsd>  (39) 
3.7241342395306862

>  <meeko>  (39) 
{"free_energy": -7.62, "intermolecular_energy": -10.01, "internal_energy": -2.32, "cluster_size": 4, "cluster_id": 5, "rank_in_cluster": 2}

>  <energy>  (39) 
-7.76

>  <cluster_rmsd>  (39) 
1.11

>  <cluster>  (39) 
3

$$$$

     RDKit          3D

 53 56  0  0  0  0  0  0  0  0999 V2000
  137.7760   71.2000  220.9550 O   0  0  0  0  0  0  0  0  0  0  0  0
  138.0200   71.7530  222.0640 C   0  0  0  0  0  0  0  0  0  0  0  0
  137.7910   73.1760  222.1200 N   0  0  0  0  0  0  0  0  0  0  0  0
  137.3260   73.7960  220.9370 C   0  0  0  0  0  0  0  0  0  0  0  0
  138.2560   74.3800  219.9980 C   0  0  0  0  0  0  0  0  0  0  0  0
  138.0280   74.0650  218.7510 O   0  0  0  0  0  0  0  0  0  0  0  0
  139.3620   75.2330  220.2290 N   0  0  0  0  0  0  0  0  0  0  0  0
  139.6120   76.2020  221.2690 C   0  0  0  0  0  0  0  0  0  0  0  0
  140.7710   77.0450  220.6800 C   0  0  1  0  0  0  0  0  0  0  0  0
  141.4500   77.8010  221.7660 C   0  0  2  0  0  0  0  0  0  0  0  0
  141.2440   77.1340  223.0070 O   0  0  0  0  0  0  0  0  0  0  0  0
  141.0350   79.2060  221.9250 C   0  0  0  0  0  0  0  0  0  0  0  0
  140.0280   79.8340  221.2580 C   0  0  0  0  0  0  0  0  0  0  0  0
  139.6850   81.1680  221.4250 C   0  0  0  0  0  0  0  0  0  0  0  0
  140.4230   81.9160  222.3380 C   0  0  0  0  0  0  0  0  0  0  0  0
  141.4490   81.3070  223.0290 C   0  0  0  0  0  0  0  0  0  0  0  0
  141.7650   79.9700  222.8360 C   0  0  0  0  0  0  0  0  0  0  0  0
  141.6200   75.8960  220.1570 C   0  0  1  0  0  0  0  0  0  0  0  0
  141.9340   75.1050  221.2520 O   0  0  0  0  0  0  0  0  0  0  0  0
  140.5430   75.1820  219.3260 C   0  0  0  0  0  0  0  0  0  0  0  0
  138.5020   71.0150  223.2170 C   0  0  0  0  0  0  0  0  0  0  0  0
  138.0710   69.7010  223.3410 C   0  0  0  0  0  0  0  0  0  0  0  0
  138.4740   68.9170  224.4020 C   0  0  0  0  0  0  0  0  0  0  0  0
  139.3210   69.4620  225.3520 C   0  0  0  0  0  0  0  0  0  0  0  0
  139.6960   68.6390  226.3880 C   0  0  0  0  0  0  0  0  0  0  0  0
  140.5540   69.1550  227.3650 C   0  0  0  0  0  0  0  0  0  0  0  0
  141.0770   68.1600  228.7160 Cl  0  0  0  0  0  0  0  0  0  0  0  0
  140.9920   70.4810  227.2450 C   0  0  0  0  0  0  0  0  0  0  0  0
  140.5830   71.2700  226.1780 C   0  0  0  0  0  0  0  0  0  0  0  0
  139.7380   70.7690  225.2130 C   0  0  0  0  0  0  0  0  0  0  0  0
  139.3230   71.5230  224.1500 N   0  0  0  0  0  0  0  0  0  0  0  0
  138.0070   73.6030  223.0380 H   0  0  0  0  0  0  0  0  0  0  0  0
  136.7582   73.0331  220.3842 H   0  0  0  0  0  0  0  0  0  0  0  0
  136.7776   74.6707  221.3167 H   0  0  0  0  0  0  0  0  0  0  0  0
  138.7235   76.8238  221.4533 H   0  0  0  0  0  0  0  0  0  0  0  0
  139.8545   75.7462  222.2403 H   0  0  0  0  0  0  0  0  0  0  0  0
  140.5122   77.8127  219.9359 H   0  0  0  0  0  0  0  0  0  0  0  0
  142.5083   77.8289  221.4672 H   0  0  0  0  0  0  0  0  0  0  0  0
  141.7860   76.3210  223.0570 H   0  0  0  0  0  0  0  0  0  0  0  0
  139.4456   79.2425  220.5362 H   0  0  0  0  0  0  0  0  0  0  0  0
  138.8587   81.6188  220.8558 H   0  0  0  0  0  0  0  0  0  0  0  0
  140.1909   82.9781  222.5058 H   0  0  0  0  0  0  0  0  0  0  0  0
  142.0320   81.8964  223.7520 H   0  0  0  0  0  0  0  0  0  0  0  0
  142.5906   79.5125  223.4009 H   0  0  0  0  0  0  0  0  0  0  0  0
  142.5488   76.1477  219.6241 H   0  0  0  0  0  0  0  0  0  0  0  0
  142.3780   75.6070  221.9570 H   0  0  0  0  0  0  0  0  0  0  0  0
  140.3478   75.7153  218.3840 H   0  0  0  0  0  0  0  0  0  0  0  0
  140.8233   74.1621  219.0238 H   0  0  0  0  0  0  0  0  0  0  0  0
  137.3974   69.2784  222.5810 H   0  0  0  0  0  0  0  0  0  0  0  0
  138.1283   67.8766  224.4918 H   0  0  0  0  0  0  0  0  0  0  0  0
  139.3311   67.6029  226.4468 H   0  0  0  0  0  0  0  0  0  0  0  0
  141.6674   70.9014  228.0046 H   0  0  0  0  0  0  0  0  0  0  0  0
  140.9385   72.3083  226.1027 H   0  0  0  0  0  0  0  0  0  0  0  0
  1  2  2  0
  2  3  1  0
  3  4  1  0
  4  5  1  0
  5  6  2  0
  5  7  1  0
  7  8  1  0
  8  9  1  0
  9 10  1  0
 10 11  1  0
 10 12  1  0
 12 13  2  0
 13 14  1  0
 14 15  2  0
 15 16  1  0
 16 17  2  0
  9 18  1  0
 18 19  1  0
 18 20  1  0
  2 21  1  0
 21 22  2  0
 22 23  1  0
 23 24  2  0
 24 25  1  0
 25 26  2  0
 26 27  1  0
 26 28  1  0
 28 29  2  0
 29 30  1  0
 30 31  2  0
 20  7  1  0
 31 21  1  0
 17 12  1  0
 30 24  1  0
  3 32  1  0
  4 33  1  0
  4 34  1  0
  8 35  1  0
  8 36  1  0
  9 37  1  6
 10 38  1  6
 11 39  1  0
 13 40  1  0
 14 41  1  0
 15 42  1  0
 16 43  1  0
 17 44  1  0
 18 45  1  6
 19 46  1  0
 20 47  1  0
 20 48  1  0
 22 49  1  0
 23 50  1  0
 25 51  1  0
 28 52  1  0
 29 53  1  0
M  END
>  <smiles>  (40) 
O=C(NCC(=O)N1C[C@@H]([C@H](O)c2ccccc2)[C@@H](O)C1)c1ccc2cc(Cl)ccc2n1

>  <score_type>  (40) 
oracle

>  <origin>  (40) 
autodockgpu

>  <m_score__min__energy>  (40) 
-8.5299999999999994

>  <m_primary>  (40) 
energy

>  <rmsd>  (40) 
2.711353657595753

>  <m_score__min__rmsd>  (40) 
2.711353657595753

>  <meeko>  (40) 
{"free_energy": -7.78, "intermolecular_energy": -10.17, "internal_energy": -2.19, "cluster_size": 15, "cluster_id": 3, "rank_in_cluster": 12}

>  <energy>  (40) 
-7.46

>  <cluster_rmsd>  (40) 
0.46

>  <cluster>  (40) 
3

$$$$

     RDKit          3D

 53 56  0  0  0  0  0  0  0  0999 V2000
  138.2240   73.7510  221.0360 O   0  0  0  0  0  0  0  0  0  0  0  0
  137.9340   74.6250  221.9000 C   0  0  0  0  0  0  0  0  0  0  0  0
  136.6710   74.4460  222.5750 N   0  0  0  0  0  0  0  0  0  0  0  0
  135.8980   73.3240  222.1970 C   0  0  0  0  0  0  0  0  0  0  0  0
  136.0340   72.0670  222.8970 C   0  0  0  0  0  0  0  0  0  0  0  0
  134.9320   71.6420  223.4570 O   0  0  0  0  0  0  0  0  0  0  0  0
  137.1700   71.2400  223.0610 N   0  0  0  0  0  0  0  0  0  0  0  0
  137.7630   70.6640  224.2450 C   0  0  0  0  0  0  0  0  0  0  0  0
  139.1750   70.2540  223.7570 C   0  0  1  0  0  0  0  0  0  0  0  0
  139.7680   69.2650  224.6960 C   0  0  2  0  0  0  0  0  0  0  0  0
  138.8120   68.2490  224.9780 O   0  0  0  0  0  0  0  0  0  0  0  0
  140.2530   69.8080  225.9770 C   0  0  0  0  0  0  0  0  0  0  0  0
  140.3590   69.1340  227.1550 C   0  0  0  0  0  0  0  0  0  0  0  0
  140.8030   69.6910  228.3440 C   0  0  0  0  0  0  0  0  0  0  0  0
  141.1660   71.0360  228.3330 C   0  0  0  0  0  0  0  0  0  0  0  0
  141.0690   71.7450  227.1550 C   0  0  0  0  0  0  0  0  0  0  0  0
  140.6200   71.1540  225.9820 C   0  0  0  0  0  0  0  0  0  0  0  0
  138.7630   69.6230  222.4360 C   0  0  1  0  0  0  0  0  0  0  0  0
  137.8970   68.5840  222.7450 O   0  0  0  0  0  0  0  0  0  0  0  0
  137.9460   70.7950  221.8720 C   0  0  0  0  0  0  0  0  0  0  0  0
  138.8070   75.7440  222.2050 C   0  0  0  0  0  0  0  0  0  0  0  0
  140.1630   75.5600  221.9700 C   0  0  0  0  0  0  0  0  0  0  0  0
  141.0730   76.5640  222.2270 C   0  0  0  0  0  0  0  0  0  0  0  0
  140.6130   77.7690  222.7280 C   0  0  0  0  0  0  0  0  0  0  0  0
  141.5600   78.7400  222.9650 C   0  0  0  0  0  0  0  0  0  0  0  0
  141.1300   79.9720  223.4700 C   0  0  0  0  0  0  0  0  0  0  0  0
  142.2840   81.2580  223.7930 Cl  0  0  0  0  0  0  0  0  0  0  0  0
  139.7630   80.1630  223.7090 C   0  0  0  0  0  0  0  0  0  0  0  0
  138.8480   79.1500  223.4520 C   0  0  0  0  0  0  0  0  0  0  0  0
  139.2630   77.9340  222.9570 C   0  0  0  0  0  0  0  0  0  0  0  0
  138.3840   76.9210  222.6920 N   0  0  0  0  0  0  0  0  0  0  0  0
  136.4580   75.1800  223.2730 H   0  0  0  0  0  0  0  0  0  0  0  0
  134.8434   73.6230  222.2893 H   0  0  0  0  0  0  0  0  0  0  0  0
  136.2801   73.0890  221.1926 H   0  0  0  0  0  0  0  0  0  0  0  0
  137.8237   71.4031  225.0574 H   0  0  0  0  0  0  0  0  0  0  0  0
  137.1841   69.8246  224.6577 H   0  0  0  0  0  0  0  0  0  0  0  0
  139.9354   71.0452  223.6815 H   0  0  0  0  0  0  0  0  0  0  0  0
  140.6567   68.8817  224.1732 H   0  0  0  0  0  0  0  0  0  0  0  0
  138.0390   68.3240  224.3820 H   0  0  0  0  0  0  0  0  0  0  0  0
  140.0719   68.0722  227.1639 H   0  0  0  0  0  0  0  0  0  0  0  0
  140.8665   69.0919  229.2643 H   0  0  0  0  0  0  0  0  0  0  0  0
  141.5247   71.5249  229.2508 H   0  0  0  0  0  0  0  0  0  0  0  0
  141.3549   72.8071  227.1441 H   0  0  0  0  0  0  0  0  0  0  0  0
  140.5536   71.7462  225.0574 H   0  0  0  0  0  0  0  0  0  0  0  0
  139.5602   69.2366  221.7839 H   0  0  0  0  0  0  0  0  0  0  0  0
  138.3680   67.7520  222.9250 H   0  0  0  0  0  0  0  0  0  0  0  0
  138.6021   71.5964  221.5014 H   0  0  0  0  0  0  0  0  0  0  0  0
  137.3170   70.5207  221.0123 H   0  0  0  0  0  0  0  0  0  0  0  0
  140.5173   74.5976  221.5723 H   0  0  0  0  0  0  0  0  0  0  0  0
  142.1454   76.4096  222.0371 H   0  0  0  0  0  0  0  0  0  0  0  0
  142.6249   78.5524  222.7630 H   0  0  0  0  0  0  0  0  0  0  0  0
  139.4100   81.1267  224.1049 H   0  0  0  0  0  0  0  0  0  0  0  0
  137.7789   79.3213  223.6463 H   0  0  0  0  0  0  0  0  0  0  0  0
  1  2  2  0
  2  3  1  0
  3  4  1  0
  4  5  1  0
  5  6  2  0
  5  7  1  0
  7  8  1  0
  8  9  1  0
  9 10  1  0
 10 11  1  0
 10 12  1  0
 12 13  2  0
 13 14  1  0
 14 15  2  0
 15 16  1  0
 16 17  2  0
  9 18  1  0
 18 19  1  0
 18 20  1  0
  2 21  1  0
 21 22  2  0
 22 23  1  0
 23 24  2  0
 24 25  1  0
 25 26  2  0
 26 27  1  0
 26 28  1  0
 28 29  2  0
 29 30  1  0
 30 31  2  0
 20  7  1  0
 31 21  1  0
 17 12  1  0
 30 24  1  0
  3 32  1  0
  4 33  1  0
  4 34  1  0
  8 35  1  0
  8 36  1  0
  9 37  1  6
 10 38  1  6
 11 39  1  0
 13 40  1  0
 14 41  1  0
 15 42  1  0
 16 43  1  0
 17 44  1  0
 18 45  1  6
 19 46  1  0
 20 47  1  0
 20 48  1  0
 22 49  1  0
 23 50  1  0
 25 51  1  0
 28 52  1  0
 29 53  1  0
M  END
>  <smiles>  (41) 
O=C(NCC(=O)N1C[C@@H]([C@H](O)c2ccccc2)[C@@H](O)C1)c1ccc2cc(Cl)ccc2n1

>  <score_type>  (41) 
oracle

>  <origin>  (41) 
autodockgpu

>  <m_score__min__energy>  (41) 
-8.5299999999999994

>  <m_primary>  (41) 
energy

>  <rmsd>  (41) 
7.970471314306355

>  <m_score__min__rmsd>  (41) 
7.970471314306355

>  <meeko>  (41) 
{"free_energy": -7.66, "intermolecular_energy": -10.05, "internal_energy": -2.46, "cluster_size": 16, "cluster_id": 2, "rank_in_cluster": 13}

>  <energy>  (41) 
-6.87

>  <cluster_rmsd>  (41) 
1.1

>  <cluster>  (41) 
3

$$$$

     RDKit          3D

 53 56  0  0  0  0  0  0  0  0999 V2000
  132.9550   70.0660  226.4420 O   0  0  0  0  0  0  0  0  0  0  0  0
  133.1130   71.1370  225.7930 C   0  0  0  0  0  0  0  0  0  0  0  0
  133.6040   70.9890  224.4450 N   0  0  0  0  0  0  0  0  0  0  0  0
  133.8590   69.6710  223.9990 C   0  0  0  0  0  0  0  0  0  0  0  0
  134.9830   68.9240  224.5140 C   0  0  0  0  0  0  0  0  0  0  0  0
  134.6580   67.9550  225.3260 O   0  0  0  0  0  0  0  0  0  0  0  0
  136.3680   69.0870  224.2680 N   0  0  0  0  0  0  0  0  0  0  0  0
  137.5040   69.0240  225.1580 C   0  0  0  0  0  0  0  0  0  0  0  0
  138.6240   69.7050  224.3320 C   0  0  1  0  0  0  0  0  0  0  0  0
  139.9540   69.3490  224.8930 C   0  0  2  0  0  0  0  0  0  0  0  0
  139.9330   67.9970  225.3400 O   0  0  0  0  0  0  0  0  0  0  0  0
  140.4280   70.1920  226.0040 C   0  0  0  0  0  0  0  0  0  0  0  0
  140.7430   71.5150  225.9400 C   0  0  0  0  0  0  0  0  0  0  0  0
  141.2060   72.2670  227.0090 C   0  0  0  0  0  0  0  0  0  0  0  0
  141.3600   71.6240  228.2340 C   0  0  0  0  0  0  0  0  0  0  0  0
  141.0490   70.2840  228.3310 C   0  0  0  0  0  0  0  0  0  0  0  0
  140.5880   69.5620  227.2380 C   0  0  0  0  0  0  0  0  0  0  0  0
  138.3530   69.0150  223.0040 C   0  0  1  0  0  0  0  0  0  0  0  0
  138.4990   67.6540  223.2260 O   0  0  0  0  0  0  0  0  0  0  0  0
  136.8550   69.3380  222.8850 C   0  0  0  0  0  0  0  0  0  0  0  0
  132.8220   72.4430  226.3560 C   0  0  0  0  0  0  0  0  0  0  0  0
  131.7320   72.5250  227.2120 C   0  0  0  0  0  0  0  0  0  0  0  0
  131.3750   73.7220  227.7980 C   0  0  0  0  0  0  0  0  0  0  0  0
  132.1250   74.8510  227.5190 C   0  0  0  0  0  0  0  0  0  0  0  0
  131.7310   76.0190  228.1310 C   0  0  0  0  0  0  0  0  0  0  0  0
  132.4680   77.1810  227.8750 C   0  0  0  0  0  0  0  0  0  0  0  0
  132.0230   78.7070  228.6240 Cl  0  0  0  0  0  0  0  0  0  0  0  0
  133.5690   77.1030  227.0130 C   0  0  0  0  0  0  0  0  0  0  0  0
  133.9250   75.8980  226.4210 C   0  0  0  0  0  0  0  0  0  0  0  0
  133.2050   74.7520  226.6670 C   0  0  0  0  0  0  0  0  0  0  0  0
  133.5350   73.5510  226.1010 N   0  0  0  0  0  0  0  0  0  0  0  0
  133.7300   71.8840  223.9400 H   0  0  0  0  0  0  0  0  0  0  0  0
  132.9586   69.0819  224.2276 H   0  0  0  0  0  0  0  0  0  0  0  0
  134.1243   69.8164  222.9414 H   0  0  0  0  0  0  0  0  0  0  0  0
  137.3083   69.5745  226.0901 H   0  0  0  0  0  0  0  0  0  0  0  0
  137.7553   68.0002  225.4723 H   0  0  0  0  0  0  0  0  0  0  0  0
  138.6303   70.8044  224.2958 H   0  0  0  0  0  0  0  0  0  0  0  0
  140.6586   69.5140  224.0646 H   0  0  0  0  0  0  0  0  0  0  0  0
  139.3470   67.4540  224.7740 H   0  0  0  0  0  0  0  0  0  0  0  0
  140.6216   72.0232  224.9720 H   0  0  0  0  0  0  0  0  0  0  0  0
  141.4434   73.3348  226.8931 H   0  0  0  0  0  0  0  0  0  0  0  0
  141.7246   72.1770  229.1122 H   0  0  0  0  0  0  0  0  0  0  0  0
  141.1691   69.7743  229.2983 H   0  0  0  0  0  0  0  0  0  0  0  0
  140.3491   68.4936  227.3454 H   0  0  0  0  0  0  0  0  0  0  0  0
  138.9754   69.3010  222.1433 H   0  0  0  0  0  0  0  0  0  0  0  0
  139.4310   67.3920  223.3170 H   0  0  0  0  0  0  0  0  0  0  0  0
  136.6952   70.3856  222.5900 H   0  0  0  0  0  0  0  0  0  0  0  0
  136.3349   68.7437  222.1193 H   0  0  0  0  0  0  0  0  0  0  0  0
  131.1434   71.6208  227.4265 H   0  0  0  0  0  0  0  0  0  0  0  0
  130.5097   73.7779  228.4749 H   0  0  0  0  0  0  0  0  0  0  0  0
  130.8605   76.0388  228.8031 H   0  0  0  0  0  0  0  0  0  0  0  0
  134.1591   78.0071  226.8022 H   0  0  0  0  0  0  0  0  0  0  0  0
  134.7935   75.8596  225.7471 H   0  0  0  0  0  0  0  0  0  0  0  0
  1  2  2  0
  2  3  1  0
  3  4  1  0
  4  5  1  0
  5  6  2  0
  5  7  1  0
  7  8  1  0
  8  9  1  0
  9 10  1  0
 10 11  1  0
 10 12  1  0
 12 13  2  0
 13 14  1  0
 14 15  2  0
 15 16  1  0
 16 17  2  0
  9 18  1  0
 18 19  1  0
 18 20  1  0
  2 21  1  0
 21 22  2  0
 22 23  1  0
 23 24  2  0
 24 25  1  0
 25 26  2  0
 26 27  1  0
 26 28  1  0
 28 29  2  0
 29 30  1  0
 30 31  2  0
 20  7  1  0
 31 21  1  0
 17 12  1  0
 30 24  1  0
  3 32  1  0
  4 33  1  0
  4 34  1  0
  8 35  1  0
  8 36  1  0
  9 37  1  6
 10 38  1  6
 11 39  1  0
 13 40  1  0
 14 41  1  0
 15 42  1  0
 16 43  1  0
 17 44  1  0
 18 45  1  6
 19 46  1  0
 20 47  1  0
 20 48  1  0
 22 49  1  0
 23 50  1  0
 25 51  1  0
 28 52  1  0
 29 53  1  0
M  END
>  <smiles>  (42) 
O=C(NCC(=O)N1C[C@@H]([C@H](O)c2ccccc2)[C@@H](O)C1)c1ccc2cc(Cl)ccc2n1

>  <score_type>  (42) 
oracle

>  <origin>  (42) 
autodockgpu

>  <m_score__min__energy>  (42) 
-8.5299999999999994

>  <m_primary>  (42) 
energy

>  <rmsd>  (42) 
9.149084355899971

>  <m_score__min__rmsd>  (42) 
9.149084355899971

>  <meeko>  (42) 
{"free_energy": -8.29, "intermolecular_energy": -10.68, "internal_energy": -2.21, "cluster_size": 10, "cluster_id": 1, "rank_in_cluster": 3}

>  <energy>  (42) 
-8.11

>  <cluster_rmsd>  (42) 
0.0

>  <cluster>  (42) 
4

$$$$

     RDKit          3D

 53 56  0  0  0  0  0  0  0  0999 V2000
  139.6620   71.8580  220.5350 O   0  0  0  0  0  0  0  0  0  0  0  0
  139.6140   72.3520  221.6960 C   0  0  0  0  0  0  0  0  0  0  0  0
  139.3660   73.7710  221.7660 N   0  0  0  0  0  0  0  0  0  0  0  0
  139.2090   74.4540  220.5380 C   0  0  0  0  0  0  0  0  0  0  0  0
  140.3590   74.9700  219.8310 C   0  0  0  0  0  0  0  0  0  0  0  0
  140.0740   75.8690  218.9270 O   0  0  0  0  0  0  0  0  0  0  0  0
  141.7300   74.6490  219.9740 N   0  0  0  0  0  0  0  0  0  0  0  0
  142.4130   73.3770  219.9620 C   0  0  0  0  0  0  0  0  0  0  0  0
  143.7890   73.7210  220.5870 C   0  0  1  0  0  0  0  0  0  0  0  0
  144.7730   72.6540  220.2620 C   0  0  2  0  0  0  0  0  0  0  0  0
  145.8140   73.2000  219.4580 O   0  0  0  0  0  0  0  0  0  0  0  0
  144.2320   71.4710  219.5710 C   0  0  0  0  0  0  0  0  0  0  0  0
  143.5650   70.4320  220.1450 C   0  0  0  0  0  0  0  0  0  0  0  0
  143.0900   69.3250  219.4580 C   0  0  0  0  0  0  0  0  0  0  0  0
  143.3090   69.2730  218.0840 C   0  0  0  0  0  0  0  0  0  0  0  0
  143.9810   70.3110  217.4740 C   0  0  0  0  0  0  0  0  0  0  0  0
  144.4440   71.4040  218.1940 C   0  0  0  0  0  0  0  0  0  0  0  0
  144.0520   75.0060  219.8160 C   0  0  1  0  0  0  0  0  0  0  0  0
  144.0590   74.6680  218.4700 O   0  0  0  0  0  0  0  0  0  0  0  0
  142.7370   75.7320  220.1350 C   0  0  0  0  0  0  0  0  0  0  0  0
  139.7950   71.5520  222.8950 C   0  0  0  0  0  0  0  0  0  0  0  0
  139.4100   70.2200  222.8200 C   0  0  0  0  0  0  0  0  0  0  0  0
  139.5440   69.3790  223.9050 C   0  0  0  0  0  0  0  0  0  0  0  0
  140.0710   69.8840  225.0810 C   0  0  0  0  0  0  0  0  0  0  0  0
  140.1860   69.0040  226.1330 C   0  0  0  0  0  0  0  0  0  0  0  0
  140.7170   69.4800  227.3370 C   0  0  0  0  0  0  0  0  0  0  0  0
  140.8960   68.4120  228.7200 Cl  0  0  0  0  0  0  0  0  0  0  0  0
  141.1080   70.8230  227.4170 C   0  0  0  0  0  0  0  0  0  0  0  0
  140.9700   71.6700  226.3250 C   0  0  0  0  0  0  0  0  0  0  0  0
  140.4470   71.2100  225.1370 C   0  0  0  0  0  0  0  0  0  0  0  0
  140.3040   72.0200  224.0450 N   0  0  0  0  0  0  0  0  0  0  0  0
  139.3400   74.1480  222.7300 H   0  0  0  0  0  0  0  0  0  0  0  0
  138.7049   73.7570  219.8525 H   0  0  0  0  0  0  0  0  0  0  0  0
  138.6700   75.3670  220.8311 H   0  0  0  0  0  0  0  0  0  0  0  0
  141.8765   72.6333  220.5696 H   0  0  0  0  0  0  0  0  0  0  0  0
  142.4890   72.9326  218.9586 H   0  0  0  0  0  0  0  0  0  0  0  0
  143.8408   73.8129  221.6819 H   0  0  0  0  0  0  0  0  0  0  0  0
  145.1301   72.2972  221.2393 H   0  0  0  0  0  0  0  0  0  0  0  0
  145.8800   74.1680  219.5870 H   0  0  0  0  0  0  0  0  0  0  0  0
  143.3906   70.4736  221.2303 H   0  0  0  0  0  0  0  0  0  0  0  0
  142.5586   68.5160  219.9805 H   0  0  0  0  0  0  0  0  0  0  0  0
  142.9512   68.4165  217.4938 H   0  0  0  0  0  0  0  0  0  0  0  0
  144.1548   70.2721  216.3885 H   0  0  0  0  0  0  0  0  0  0  0  0
  144.9776   72.2165  217.6790 H   0  0  0  0  0  0  0  0  0  0  0  0
  144.9741   75.5600  220.0459 H   0  0  0  0  0  0  0  0  0  0  0  0
  144.9570   74.6460  218.0990 H   0  0  0  0  0  0  0  0  0  0  0  0
  142.7382   76.1254  221.1622 H   0  0  0  0  0  0  0  0  0  0  0  0
  142.5499   76.6063  219.4943 H   0  0  0  0  0  0  0  0  0  0  0  0
  138.9916   69.8294  221.8806 H   0  0  0  0  0  0  0  0  0  0  0  0
  139.2373   68.3248  223.8368 H   0  0  0  0  0  0  0  0  0  0  0  0
  139.8693   67.9556  226.0302 H   0  0  0  0  0  0  0  0  0  0  0  0
  141.5294   71.2113  228.3560 H   0  0  0  0  0  0  0  0  0  0  0  0
  141.2823   72.7213  226.4101 H   0  0  0  0  0  0  0  0  0  0  0  0
  1  2  2  0
  2  3  1  0
  3  4  1  0
  4  5  1  0
  5  6  2  0
  5  7  1  0
  7  8  1  0
  8  9  1  0
  9 10  1  0
 10 11  1  0
 10 12  1  0
 12 13  2  0
 13 14  1  0
 14 15  2  0
 15 16  1  0
 16 17  2  0
  9 18  1  0
 18 19  1  0
 18 20  1  0
  2 21  1  0
 21 22  2  0
 22 23  1  0
 23 24  2  0
 24 25  1  0
 25 26  2  0
 26 27  1  0
 26 28  1  0
 28 29  2  0
 29 30  1  0
 30 31  2  0
 20  7  1  0
 31 21  1  0
 17 12  1  0
 30 24  1  0
  3 32  1  0
  4 33  1  0
  4 34  1  0
  8 35  1  0
  8 36  1  0
  9 37  1  1
 10 38  1  1
 11 39  1  0
 13 40  1  0
 14 41  1  0
 15 42  1  0
 16 43  1  0
 17 44  1  0
 18 45  1  1
 19 46  1  0
 20 47  1  0
 20 48  1  0
 22 49  1  0
 23 50  1  0
 25 51  1  0
 28 52  1  0
 29 53  1  0
M  END
>  <smiles>  (43) 
O=C(NCC(=O)N1C[C@@H]([C@H](O)c2ccccc2)[C@@H](O)C1)c1ccc2cc(Cl)ccc2n1

>  <score_type>  (43) 
oracle

>  <origin>  (43) 
autodockgpu

>  <m_score__min__energy>  (43) 
-8.5299999999999994

>  <m_primary>  (43) 
energy

>  <rmsd>  (43) 
2.9277262733263463

>  <m_score__min__rmsd>  (43) 
2.9277262733263463

>  <meeko>  (43) 
{"free_energy": -7.52, "intermolecular_energy": -9.9, "internal_energy": -2.63, "cluster_size": 4, "cluster_id": 4, "rank_in_cluster": 4}

>  <energy>  (43) 
-8.0

>  <cluster_rmsd>  (43) 
1.29

>  <cluster>  (43) 
4

$$$$

     RDKit          3D

 53 56  0  0  0  0  0  0  0  0999 V2000
  138.9790   71.9850  221.3470 O   0  0  0  0  0  0  0  0  0  0  0  0
  138.1650   72.9260  221.1350 C   0  0  0  0  0  0  0  0  0  0  0  0
  136.9610   72.5680  220.4260 N   0  0  0  0  0  0  0  0  0  0  0  0
  136.8240   71.2140  220.0430 C   0  0  0  0  0  0  0  0  0  0  0  0
  136.6730   70.1790  221.0400 C   0  0  0  0  0  0  0  0  0  0  0  0
  135.8410   69.2290  220.7050 O   0  0  0  0  0  0  0  0  0  0  0  0
  137.2860   70.0460  222.3080 N   0  0  0  0  0  0  0  0  0  0  0  0
  138.4350   69.2800  222.7320 C   0  0  0  0  0  0  0  0  0  0  0  0
  138.2810   69.2560  224.2730 C   0  0  1  0  0  0  0  0  0  0  0  0
  139.5790   68.8960  224.9050 C   0  0  2  0  0  0  0  0  0  0  0  0
  139.5280   67.5460  225.3530 O   0  0  0  0  0  0  0  0  0  0  0  0
  139.9960   69.7410  226.0370 C   0  0  0  0  0  0  0  0  0  0  0  0
  139.5000   69.7010  227.3050 C   0  0  0  0  0  0  0  0  0  0  0  0
  139.9100   70.5300  228.3380 C   0  0  0  0  0  0  0  0  0  0  0  0
  140.8970   71.4710  228.0590 C   0  0  0  0  0  0  0  0  0  0  0  0
  141.4190   71.5360  226.7840 C   0  0  0  0  0  0  0  0  0  0  0  0
  140.9850   70.6890  225.7740 C   0  0  0  0  0  0  0  0  0  0  0  0
  137.9290   70.7230  224.4700 C   0  0  1  0  0  0  0  0  0  0  0  0
  138.9950   71.4580  223.9720 O   0  0  0  0  0  0  0  0  0  0  0  0
  136.7630   70.8080  223.4730 C   0  0  0  0  0  0  0  0  0  0  0  0
  138.4130   74.2890  221.5720 C   0  0  0  0  0  0  0  0  0  0  0  0
  137.2980   75.0740  221.8310 C   0  0  0  0  0  0  0  0  0  0  0  0
  137.4290   76.3810  222.2510 C   0  0  0  0  0  0  0  0  0  0  0  0
  138.7000   76.9060  222.4130 C   0  0  0  0  0  0  0  0  0  0  0  0
  138.7770   78.2130  222.8360 C   0  0  0  0  0  0  0  0  0  0  0  0
  140.0460   78.7760  223.0140 C   0  0  0  0  0  0  0  0  0  0  0  0
  140.2200   80.4380  223.5550 Cl  0  0  0  0  0  0  0  0  0  0  0  0
  141.1750   77.9880  222.7550 C   0  0  0  0  0  0  0  0  0  0  0  0
  141.0410   76.6720  222.3280 C   0  0  0  0  0  0  0  0  0  0  0  0
  139.7960   76.1120  222.1500 C   0  0  0  0  0  0  0  0  0  0  0  0
  139.6350   74.8180  221.7350 N   0  0  0  0  0  0  0  0  0  0  0  0
  136.3170   73.3610  220.2600 H   0  0  0  0  0  0  0  0  0  0  0  0
  135.9368   71.1585  219.3951 H   0  0  0  0  0  0  0  0  0  0  0  0
  137.8025   70.9844  219.5961 H   0  0  0  0  0  0  0  0  0  0  0  0
  138.4087   68.2624  222.3152 H   0  0  0  0  0  0  0  0  0  0  0  0
  139.3915   69.7072  222.3963 H   0  0  0  0  0  0  0  0  0  0  0  0
  137.5630   68.5406  224.7003 H   0  0  0  0  0  0  0  0  0  0  0  0
  140.3283   69.0552  224.1156 H   0  0  0  0  0  0  0  0  0  0  0  0
  140.1360   66.9840  224.8290 H   0  0  0  0  0  0  0  0  0  0  0  0
  138.7189   68.9584  227.5250 H   0  0  0  0  0  0  0  0  0  0  0  0
  139.4706   70.4469  229.3430 H   0  0  0  0  0  0  0  0  0  0  0  0
  141.2555   72.1530  228.8441 H   0  0  0  0  0  0  0  0  0  0  0  0
  142.1996   72.2785  226.5619 H   0  0  0  0  0  0  0  0  0  0  0  0
  141.4205   70.7651  224.7668 H   0  0  0  0  0  0  0  0  0  0  0  0
  137.7123   71.0640  225.4931 H   0  0  0  0  0  0  0  0  0  0  0  0
  138.7040   72.2470  223.4840 H   0  0  0  0  0  0  0  0  0  0  0  0
  135.8553   70.3391  223.8807 H   0  0  0  0  0  0  0  0  0  0  0  0
  136.4671   71.8388  223.2282 H   0  0  0  0  0  0  0  0  0  0  0  0
  136.2931   74.6465  221.6990 H   0  0  0  0  0  0  0  0  0  0  0  0
  136.5395   76.9956  222.4538 H   0  0  0  0  0  0  0  0  0  0  0  0
  137.8664   78.7992  223.0289 H   0  0  0  0  0  0  0  0  0  0  0  0
  142.1793   78.4157  222.8911 H   0  0  0  0  0  0  0  0  0  0  0  0
  141.9406   76.0708  222.1299 H   0  0  0  0  0  0  0  0  0  0  0  0
  1  2  2  0
  2  3  1  0
  3  4  1  0
  4  5  1  0
  5  6  2  0
  5  7  1  0
  7  8  1  0
  8  9  1  0
  9 10  1  0
 10 11  1  0
 10 12  1  0
 12 13  2  0
 13 14  1  0
 14 15  2  0
 15 16  1  0
 16 17  2  0
  9 18  1  0
 18 19  1  0
 18 20  1  0
  2 21  1  0
 21 22  2  0
 22 23  1  0
 23 24  2  0
 24 25  1  0
 25 26  2  0
 26 27  1  0
 26 28  1  0
 28 29  2  0
 29 30  1  0
 30 31  2  0
 20  7  1  0
 31 21  1  0
 17 12  1  0
 30 24  1  0
  3 32  1  0
  4 33  1  0
  4 34  1  0
  8 35  1  0
  8 36  1  0
  9 37  1  6
 10 38  1  6
 11 39  1  0
 13 40  1  0
 14 41  1  0
 15 42  1  0
 16 43  1  0
 17 44  1  0
 18 45  1  1
 19 46  1  0
 20 47  1  0
 20 48  1  0
 22 49  1  0
 23 50  1  0
 25 51  1  0
 28 52  1  0
 29 53  1  0
M  END
>  <smiles>  (44) 
O=C(NCC(=O)N1C[C@@H]([C@H](O)c2ccccc2)[C@@H](O)C1)c1ccc2cc(Cl)ccc2n1

>  <score_type>  (44) 
oracle

>  <origin>  (44) 
autodockgpu

>  <m_score__min__energy>  (44) 
-8.5299999999999994

>  <m_primary>  (44) 
energy

>  <rmsd>  (44) 
7.922727507618815

>  <m_score__min__rmsd>  (44) 
7.922727507618815

>  <meeko>  (44) 
{"free_energy": -7.37, "intermolecular_energy": -9.75, "internal_energy": -1.98, "cluster_size": 16, "cluster_id": 2, "rank_in_cluster": 15}

>  <energy>  (44) 
-7.74

>  <cluster_rmsd>  (44) 
1.3

>  <cluster>  (44) 
4

$$$$

     RDKit          3D

 53 56  0  0  0  0  0  0  0  0999 V2000
  137.3410   71.1460  221.3390 O   0  0  0  0  0  0  0  0  0  0  0  0
  137.9170   71.7140  222.3090 C   0  0  0  0  0  0  0  0  0  0  0  0
  138.0110   73.1510  222.2290 N   0  0  0  0  0  0  0  0  0  0  0  0
  137.4570   73.7650  221.0820 C   0  0  0  0  0  0  0  0  0  0  0  0
  137.7890   75.1310  220.7460 C   0  0  0  0  0  0  0  0  0  0  0  0
  136.7700   75.8520  220.3600 O   0  0  0  0  0  0  0  0  0  0  0  0
  139.0390   75.7930  220.7750 N   0  0  0  0  0  0  0  0  0  0  0  0
  139.5500   76.8210  221.6510 C   0  0  0  0  0  0  0  0  0  0  0  0
  140.7710   77.3650  220.8670 C   0  0  1  0  0  0  0  0  0  0  0  0
  141.6690   78.1130  221.7860 C   0  0  2  0  0  0  0  0  0  0  0  0
  141.4690   77.6560  223.1200 O   0  0  0  0  0  0  0  0  0  0  0  0
  141.5220   79.5780  221.7750 C   0  0  0  0  0  0  0  0  0  0  0  0
  141.4300   80.3920  222.8620 C   0  0  0  0  0  0  0  0  0  0  0  0
  141.2720   81.7690  222.8050 C   0  0  0  0  0  0  0  0  0  0  0  0
  141.2010   82.3600  221.5460 C   0  0  0  0  0  0  0  0  0  0  0  0
  141.2920   81.5620  220.4260 C   0  0  0  0  0  0  0  0  0  0  0  0
  141.4500   80.1860  220.5210 C   0  0  0  0  0  0  0  0  0  0  0  0
  141.3590   76.0270  220.4440 C   0  0  1  0  0  0  0  0  0  0  0  0
  141.6410   75.3310  221.6100 O   0  0  0  0  0  0  0  0  0  0  0  0
  140.1010   75.4230  219.8010 C   0  0  0  0  0  0  0  0  0  0  0  0
  138.4560   70.9780  223.4390 C   0  0  0  0  0  0  0  0  0  0  0  0
  138.0920   69.6430  223.5450 C   0  0  0  0  0  0  0  0  0  0  0  0
  138.5520   68.8600  224.5830 C   0  0  0  0  0  0  0  0  0  0  0  0
  139.3900   69.4280  225.5270 C   0  0  0  0  0  0  0  0  0  0  0  0
  139.8240   68.6040  226.5400 C   0  0  0  0  0  0  0  0  0  0  0  0
  140.6740   69.1440  227.5110 C   0  0  0  0  0  0  0  0  0  0  0  0
  141.2690   68.1500  228.8320 Cl  0  0  0  0  0  0  0  0  0  0  0  0
  141.0460   70.4910  227.4090 C   0  0  0  0  0  0  0  0  0  0  0  0
  140.5780   71.2790  226.3650 C   0  0  0  0  0  0  0  0  0  0  0  0
  139.7400   70.7560  225.4060 C   0  0  0  0  0  0  0  0  0  0  0  0
  139.2690   71.5080  224.3660 N   0  0  0  0  0  0  0  0  0  0  0  0
  138.4940   73.5880  223.0340 H   0  0  0  0  0  0  0  0  0  0  0  0
  137.7533   73.1482  220.2208 H   0  0  0  0  0  0  0  0  0  0  0  0
  136.3864   73.8249  221.3275 H   0  0  0  0  0  0  0  0  0  0  0  0
  138.8012   77.6098  221.8151 H   0  0  0  0  0  0  0  0  0  0  0  0
  139.8069   76.4500  222.6542 H   0  0  0  0  0  0  0  0  0  0  0  0
  140.5745   78.0706  220.0463 H   0  0  0  0  0  0  0  0  0  0  0  0
  142.6830   77.9076  221.4124 H   0  0  0  0  0  0  0  0  0  0  0  0
  141.8470   76.7620  223.2400 H   0  0  0  0  0  0  0  0  0  0  0  0
  141.4848   79.9247  223.8563 H   0  0  0  0  0  0  0  0  0  0  0  0
  141.2052   82.3728  223.7220 H   0  0  0  0  0  0  0  0  0  0  0  0
  141.0741   83.4482  221.4469 H   0  0  0  0  0  0  0  0  0  0  0  0
  141.2380   82.0275  219.4308 H   0  0  0  0  0  0  0  0  0  0  0  0
  141.5184   79.5755  219.6085 H   0  0  0  0  0  0  0  0  0  0  0  0
  142.2605   76.0410  219.8139 H   0  0  0  0  0  0  0  0  0  0  0  0
  142.1940   75.8450  222.2230 H   0  0  0  0  0  0  0  0  0  0  0  0
  139.9070   75.8654  218.8128 H   0  0  0  0  0  0  0  0  0  0  0  0
  140.1751   74.3406  219.6198 H   0  0  0  0  0  0  0  0  0  0  0  0
  137.4257   69.2022  222.7888 H   0  0  0  0  0  0  0  0  0  0  0  0
  138.2581   67.8027  224.6593 H   0  0  0  0  0  0  0  0  0  0  0  0
  139.5114   67.5503  226.5850 H   0  0  0  0  0  0  0  0  0  0  0  0
  141.7158   70.9292  228.1636 H   0  0  0  0  0  0  0  0  0  0  0  0
  140.8810   72.3347  226.3038 H   0  0  0  0  0  0  0  0  0  0  0  0
  1  2  2  0
  2  3  1  0
  3  4  1  0
  4  5  1  0
  5  6  2  0
  5  7  1  0
  7  8  1  0
  8  9  1  0
  9 10  1  0
 10 11  1  0
 10 12  1  0
 12 13  2  0
 13 14  1  0
 14 15  2  0
 15 16  1  0
 16 17  2  0
  9 18  1  0
 18 19  1  0
 18 20  1  0
  2 21  1  0
 21 22  2  0
 22 23  1  0
 23 24  2  0
 24 25  1  0
 25 26  2  0
 26 27  1  0
 26 28  1  0
 28 29  2  0
 29 30  1  0
 30 31  2  0
 20  7  1  0
 31 21  1  0
 17 12  1  0
 30 24  1  0
  3 32  1  0
  4 33  1  0
  4 34  1  0
  8 35  1  0
  8 36  1  0
  9 37  1  6
 10 38  1  6
 11 39  1  0
 13 40  1  0
 14 41  1  0
 15 42  1  0
 16 43  1  0
 17 44  1  0
 18 45  1  6
 19 46  1  0
 20 47  1  0
 20 48  1  0
 22 49  1  0
 23 50  1  0
 25 51  1  0
 28 52  1  0
 29 53  1  0
M  END
>  <smiles>  (45) 
O=C(NCC(=O)N1C[C@@H]([C@H](O)c2ccccc2)[C@@H](O)C1)c1ccc2cc(Cl)ccc2n1

>  <score_type>  (45) 
oracle

>  <origin>  (45) 
autodockgpu

>  <m_score__min__energy>  (45) 
-8.5299999999999994

>  <m_primary>  (45) 
energy

>  <rmsd>  (45) 
2.8467835007899986

>  <m_score__min__rmsd>  (45) 
2.8467835007899986

>  <meeko>  (45) 
{"free_energy": -8.03, "intermolecular_energy": -10.42, "internal_energy": -2.2, "cluster_size": 15, "cluster_id": 3, "rank_in_cluster": 6}

>  <energy>  (45) 
-7.52

>  <cluster_rmsd>  (45) 
1.4

>  <cluster>  (45) 
4

$$$$

     RDKit          3D

 53 56  0  0  0  0  0  0  0  0999 V2000
  138.9330   72.0800  221.1390 O   0  0  0  0  0  0  0  0  0  0  0  0
  138.5120   72.2380  222.3180 C   0  0  0  0  0  0  0  0  0  0  0  0
  137.3770   73.1160  222.4670 N   0  0  0  0  0  0  0  0  0  0  0  0
  136.8650   73.7040  221.2880 C   0  0  0  0  0  0  0  0  0  0  0  0
  137.3550   74.9850  220.8310 C   0  0  0  0  0  0  0  0  0  0  0  0
  136.4430   75.7460  220.2880 O   0  0  0  0  0  0  0  0  0  0  0  0
  138.6610   75.5270  220.8870 N   0  0  0  0  0  0  0  0  0  0  0  0
  139.2120   76.5960  221.6870 C   0  0  0  0  0  0  0  0  0  0  0  0
  140.5310   76.9320  220.9470 C   0  0  1  0  0  0  0  0  0  0  0  0
  141.4370   77.6920  221.8480 C   0  0  2  0  0  0  0  0  0  0  0  0
  141.3320   77.1760  223.1710 O   0  0  0  0  0  0  0  0  0  0  0  0
  141.2140   79.1470  221.9030 C   0  0  0  0  0  0  0  0  0  0  0  0
  140.4610   79.8850  221.0410 C   0  0  0  0  0  0  0  0  0  0  0  0
  140.2940   81.2590  221.1200 C   0  0  0  0  0  0  0  0  0  0  0  0
  140.9420   81.9320  222.1520 C   0  0  0  0  0  0  0  0  0  0  0  0
  141.7110   81.2120  223.0410 C   0  0  0  0  0  0  0  0  0  0  0  0
  141.8560   79.8360  222.9320 C   0  0  0  0  0  0  0  0  0  0  0  0
  141.0090   75.5060  220.7140 C   0  0  1  0  0  0  0  0  0  0  0  0
  141.1410   74.9230  221.9660 O   0  0  0  0  0  0  0  0  0  0  0  0
  139.7430   74.9530  220.0430 C   0  0  0  0  0  0  0  0  0  0  0  0
  139.1230   71.5840  223.4620 C   0  0  0  0  0  0  0  0  0  0  0  0
  140.3250   72.1110  223.9130 C   0  0  0  0  0  0  0  0  0  0  0  0
  140.9830   71.5600  224.9930 C   0  0  0  0  0  0  0  0  0  0  0  0
  140.4230   70.4640  225.6270 C   0  0  0  0  0  0  0  0  0  0  0  0
  141.1160   69.9540  226.7010 C   0  0  0  0  0  0  0  0  0  0  0  0
  140.5790   68.8470  227.3690 C   0  0  0  0  0  0  0  0  0  0  0  0
  141.4080   68.1450  228.7490 Cl  0  0  0  0  0  0  0  0  0  0  0  0
  139.3650   68.3120  226.9180 C   0  0  0  0  0  0  0  0  0  0  0  0
  138.7060   68.8660  225.8270 C   0  0  0  0  0  0  0  0  0  0  0  0
  139.2290   69.9540  225.1650 C   0  0  0  0  0  0  0  0  0  0  0  0
  138.5990   70.5210  224.0920 N   0  0  0  0  0  0  0  0  0  0  0  0
  137.0590   73.2320  223.4450 H   0  0  0  0  0  0  0  0  0  0  0  0
  137.0496   72.9879  220.4736 H   0  0  0  0  0  0  0  0  0  0  0  0
  135.8204   73.9214  221.5553 H   0  0  0  0  0  0  0  0  0  0  0  0
  138.5368   77.4642  221.7077 H   0  0  0  0  0  0  0  0  0  0  0  0
  139.3618   76.3191  222.7410 H   0  0  0  0  0  0  0  0  0  0  0  0
  140.4610   77.5558  220.0437 H   0  0  0  0  0  0  0  0  0  0  0  0
  142.4390   77.5549  221.4153 H   0  0  0  0  0  0  0  0  0  0  0  0
  141.9520   76.4310  223.3020 H   0  0  0  0  0  0  0  0  0  0  0  0
  139.9494   79.3537  220.2249 H   0  0  0  0  0  0  0  0  0  0  0  0
  139.6707   81.7990  220.3920 H   0  0  0  0  0  0  0  0  0  0  0  0
  140.8418   83.0224  222.2565 H   0  0  0  0  0  0  0  0  0  0  0  0
  142.2230   81.7417  223.8579 H   0  0  0  0  0  0  0  0  0  0  0  0
  142.4769   79.2890  223.6568 H   0  0  0  0  0  0  0  0  0  0  0  0
  141.9474   75.3651  220.1576 H   0  0  0  0  0  0  0  0  0  0  0  0
  140.9870   75.5570  222.6870 H   0  0  0  0  0  0  0  0  0  0  0  0
  139.6611   75.2975  219.0015 H   0  0  0  0  0  0  0  0  0  0  0  0
  139.7197   73.8549  219.9834 H   0  0  0  0  0  0  0  0  0  0  0  0
  140.7600   72.9820  223.4011 H   0  0  0  0  0  0  0  0  0  0  0  0
  141.9354   71.9838  225.3441 H   0  0  0  0  0  0  0  0  0  0  0  0
  142.0658   70.4038  227.0257 H   0  0  0  0  0  0  0  0  0  0  0  0
  138.9286   67.4437  227.4333 H   0  0  0  0  0  0  0  0  0  0  0  0
  137.7547   68.4298  225.4882 H   0  0  0  0  0  0  0  0  0  0  0  0
  1  2  2  0
  2  3  1  0
  3  4  1  0
  4  5  1  0
  5  6  2  0
  5  7  1  0
  7  8  1  0
  8  9  1  0
  9 10  1  0
 10 11  1  0
 10 12  1  0
 12 13  2  0
 13 14  1  0
 14 15  2  0
 15 16  1  0
 16 17  2  0
  9 18  1  0
 18 19  1  0
 18 20  1  0
  2 21  1  0
 21 22  2  0
 22 23  1  0
 23 24  2  0
 24 25  1  0
 25 26  2  0
 26 27  1  0
 26 28  1  0
 28 29  2  0
 29 30  1  0
 30 31  2  0
 20  7  1  0
 31 21  1  0
 17 12  1  0
 30 24  1  0
  3 32  1  0
  4 33  1  0
  4 34  1  0
  8 35  1  0
  8 36  1  0
  9 37  1  6
 10 38  1  6
 11 39  1  0
 13 40  1  0
 14 41  1  0
 15 42  1  0
 16 43  1  0
 17 44  1  0
 18 45  1  6
 19 46  1  0
 20 47  1  0
 20 48  1  0
 22 49  1  0
 23 50  1  0
 25 51  1  0
 28 52  1  0
 29 53  1  0
M  END
>  <smiles>  (46) 
O=C(NCC(=O)N1C[C@@H]([C@H](O)c2ccccc2)[C@@H](O)C1)c1ccc2cc(Cl)ccc2n1

>  <score_type>  (46) 
oracle

>  <origin>  (46) 
autodockgpu

>  <m_score__min__energy>  (46) 
-8.5299999999999994

>  <m_primary>  (46) 
energy

>  <rmsd>  (46) 
3.5626465949068553

>  <m_score__min__rmsd>  (46) 
3.5626465949068553

>  <meeko>  (46) 
{"free_energy": -7.46, "intermolecular_energy": -9.85, "internal_energy": -2.43, "cluster_size": 15, "cluster_id": 3, "rank_in_cluster": 14}

>  <energy>  (46) 
-7.69

>  <cluster_rmsd>  (46) 
0.0

>  <cluster>  (46) 
5

$$$$

     RDKit          3D

 53 56  0  0  0  0  0  0  0  0999 V2000
  139.2880   72.4620  221.9570 O   0  0  0  0  0  0  0  0  0  0  0  0
  138.6920   73.5750  221.9430 C   0  0  0  0  0  0  0  0  0  0  0  0
  137.2510   73.5150  221.9070 N   0  0  0  0  0  0  0  0  0  0  0  0
  136.6650   72.2290  221.8870 C   0  0  0  0  0  0  0  0  0  0  0  0
  136.7270   71.3740  223.0500 C   0  0  0  0  0  0  0  0  0  0  0  0
  135.6620   71.4160  223.8060 O   0  0  0  0  0  0  0  0  0  0  0  0
  137.7590   70.5080  223.4840 N   0  0  0  0  0  0  0  0  0  0  0  0
  138.7380   70.6490  224.5370 C   0  0  0  0  0  0  0  0  0  0  0  0
  139.7860   69.5660  224.1780 C   0  0  1  0  0  0  0  0  0  0  0  0
  140.6300   69.2660  225.3650 C   0  0  2  0  0  0  0  0  0  0  0  0
  140.3040   67.9720  225.8620 O   0  0  0  0  0  0  0  0  0  0  0  0
  140.5330   70.2240  226.4790 C   0  0  0  0  0  0  0  0  0  0  0  0
  141.1760   71.4200  226.5780 C   0  0  0  0  0  0  0  0  0  0  0  0
  141.0710   72.2840  227.6580 C   0  0  0  0  0  0  0  0  0  0  0  0
  140.2500   71.9010  228.7150 C   0  0  0  0  0  0  0  0  0  0  0  0
  139.5850   70.6950  228.6440 C   0  0  0  0  0  0  0  0  0  0  0  0
  139.7140   69.8550  227.5470 C   0  0  0  0  0  0  0  0  0  0  0  0
  138.8170   68.4370  223.8560 C   0  0  1  0  0  0  0  0  0  0  0  0
  138.0740   68.2130  225.0060 O   0  0  0  0  0  0  0  0  0  0  0  0
  137.9380   69.1800  222.8380 C   0  0  0  0  0  0  0  0  0  0  0  0
  139.4000   74.8420  221.9610 C   0  0  0  0  0  0  0  0  0  0  0  0
  140.6430   74.8710  221.3420 C   0  0  0  0  0  0  0  0  0  0  0  0
  141.3930   76.0280  221.3050 C   0  0  0  0  0  0  0  0  0  0  0  0
  140.8860   77.1710  221.8990 C   0  0  0  0  0  0  0  0  0  0  0  0
  141.6710   78.3000  221.8330 C   0  0  0  0  0  0  0  0  0  0  0  0
  141.1900   79.4750  222.4200 C   0  0  0  0  0  0  0  0  0  0  0  0
  142.1380   80.9530  222.3710 Cl  0  0  0  0  0  0  0  0  0  0  0  0
  139.9370   79.4510  223.0460 C   0  0  0  0  0  0  0  0  0  0  0  0
  139.1840   78.2840  223.0850 C   0  0  0  0  0  0  0  0  0  0  0  0
  139.6510   77.1240  222.5100 C   0  0  0  0  0  0  0  0  0  0  0  0
  138.9290   75.9620  222.5300 N   0  0  0  0  0  0  0  0  0  0  0  0
  136.7910   74.4420  221.8890 H   0  0  0  0  0  0  0  0  0  0  0  0
  135.5986   72.3727  221.6587 H   0  0  0  0  0  0  0  0  0  0  0  0
  137.2803   71.6896  221.1519 H   0  0  0  0  0  0  0  0  0  0  0  0
  139.1870   71.6531  224.5288 H   0  0  0  0  0  0  0  0  0  0  0  0
  138.3143   70.5280  225.5449 H   0  0  0  0  0  0  0  0  0  0  0  0
  140.5093   69.8031  223.3839 H   0  0  0  0  0  0  0  0  0  0  0  0
  141.6642   69.3336  224.9964 H   0  0  0  0  0  0  0  0  0  0  0  0
  140.0910   67.3620  225.1270 H   0  0  0  0  0  0  0  0  0  0  0  0
  141.8245   71.7224  225.7426 H   0  0  0  0  0  0  0  0  0  0  0  0
  141.6174   73.2385  227.6786 H   0  0  0  0  0  0  0  0  0  0  0  0
  140.1333   72.5513  229.5945 H   0  0  0  0  0  0  0  0  0  0  0  0
  138.9357   70.3911  229.4783 H   0  0  0  0  0  0  0  0  0  0  0  0
  139.1710   68.8988  227.5192 H   0  0  0  0  0  0  0  0  0  0  0  0
  139.2406   67.4804  223.5162 H   0  0  0  0  0  0  0  0  0  0  0  0
  138.6350   68.0760  225.7880 H   0  0  0  0  0  0  0  0  0  0  0  0
  138.4460   69.2745  221.8669 H   0  0  0  0  0  0  0  0  0  0  0  0
  136.9908   68.6667  222.6161 H   0  0  0  0  0  0  0  0  0  0  0  0
  141.0357   73.9564  220.8737 H   0  0  0  0  0  0  0  0  0  0  0  0
  142.3764   76.0422  220.8123 H   0  0  0  0  0  0  0  0  0  0  0  0
  142.6501   78.2787  221.3321 H   0  0  0  0  0  0  0  0  0  0  0  0
  139.5447   80.3668  223.5122 H   0  0  0  0  0  0  0  0  0  0  0  0
  138.2025   78.2872  223.5816 H   0  0  0  0  0  0  0  0  0  0  0  0
  1  2  2  0
  2  3  1  0
  3  4  1  0
  4  5  1  0
  5  6  2  0
  5  7  1  0
  7  8  1  0
  8  9  1  0
  9 10  1  0
 10 11  1  0
 10 12  1  0
 12 13  2  0
 13 14  1  0
 14 15  2  0
 15 16  1  0
 16 17  2  0
  9 18  1  0
 18 19  1  0
 18 20  1  0
  2 21  1  0
 21 22  2  0
 22 23  1  0
 23 24  2  0
 24 25  1  0
 25 26  2  0
 26 27  1  0
 26 28  1  0
 28 29  2  0
 29 30  1  0
 30 31  2  0
 20  7  1  0
 31 21  1  0
 17 12  1  0
 30 24  1  0
  3 32  1  0
  4 33  1  0
  4 34  1  0
  8 35  1  0
  8 36  1  0
  9 37  1  6
 10 38  1  6
 11 39  1  0
 13 40  1  0
 14 41  1  0
 15 42  1  0
 16 43  1  0
 17 44  1  0
 18 45  1  6
 19 46  1  0
 20 47  1  0
 20 48  1  0
 22 49  1  0
 23 50  1  0
 25 51  1  0
 28 52  1  0
 29 53  1  0
M  END
>  <smiles>  (47) 
O=C(NCC(=O)N1C[C@@H]([C@H](O)c2ccccc2)[C@@H](O)C1)c1ccc2cc(Cl)ccc2n1

>  <score_type>  (47) 
oracle

>  <origin>  (47) 
autodockgpu

>  <m_score__min__energy>  (47) 
-8.5299999999999994

>  <m_primary>  (47) 
energy

>  <rmsd>  (47) 
8.133684188025361

>  <m_score__min__rmsd>  (47) 
8.133684188025361

>  <meeko>  (47) 
{"free_energy": -7.28, "intermolecular_energy": -9.67, "internal_energy": -2.41, "cluster_size": 16, "cluster_id": 2, "rank_in_cluster": 16}

>  <energy>  (47) 
-7.62

>  <cluster_rmsd>  (47) 
0.28

>  <cluster>  (47) 
5

$$$$

     RDKit          3D

 53 56  0  0  0  0  0  0  0  0999 V2000
  139.0630   71.5520  220.9490 O   0  0  0  0  0  0  0  0  0  0  0  0
  139.2420   72.0610  222.0900 C   0  0  0  0  0  0  0  0  0  0  0  0
  139.1340   73.4980  222.1620 N   0  0  0  0  0  0  0  0  0  0  0  0
  138.8450   74.1780  220.9570 C   0  0  0  0  0  0  0  0  0  0  0  0
  138.7100   75.6170  220.9370 C   0  0  0  0  0  0  0  0  0  0  0  0
  137.6200   76.0610  221.5040 O   0  0  0  0  0  0  0  0  0  0  0  0
  139.5740   76.6010  220.4010 N   0  0  0  0  0  0  0  0  0  0  0  0
  139.8160   77.9690  220.7950 C   0  0  0  0  0  0  0  0  0  0  0  0
  140.5250   78.5630  219.5520 C   0  0  1  0  0  0  0  0  0  0  0  0
  141.2330   79.8170  219.9250 C   0  0  2  0  0  0  0  0  0  0  0  0
  142.5480   79.7970  219.3810 O   0  0  0  0  0  0  0  0  0  0  0  0
  141.3360   80.0890  221.3690 C   0  0  0  0  0  0  0  0  0  0  0  0
  140.3890   80.6740  222.1530 C   0  0  0  0  0  0  0  0  0  0  0  0
  140.5370   80.9300  223.5080 C   0  0  0  0  0  0  0  0  0  0  0  0
  141.7400   80.5660  224.1080 C   0  0  0  0  0  0  0  0  0  0  0  0
  142.7180   79.9720  223.3390 C   0  0  0  0  0  0  0  0  0  0  0  0
  142.5350   79.7300  221.9850 C   0  0  0  0  0  0  0  0  0  0  0  0
  141.4850   77.4120  219.2900 C   0  0  1  0  0  0  0  0  0  0  0  0
  142.2620   77.2760  220.4310 O   0  0  0  0  0  0  0  0  0  0  0  0
  140.4590   76.2690  219.2530 C   0  0  0  0  0  0  0  0  0  0  0  0
  139.5400   71.2620  223.2650 C   0  0  0  0  0  0  0  0  0  0  0  0
  139.2680   69.9030  223.1800 C   0  0  0  0  0  0  0  0  0  0  0  0
  139.5170   69.0590  224.2430 C   0  0  0  0  0  0  0  0  0  0  0  0
  140.0460   69.5900  225.4070 C   0  0  0  0  0  0  0  0  0  0  0  0
  140.2780   68.7080  226.4370 C   0  0  0  0  0  0  0  0  0  0  0  0
  140.8150   69.2090  227.6280 C   0  0  0  0  0  0  0  0  0  0  0  0
  141.1410   68.1390  228.9830 Cl  0  0  0  0  0  0  0  0  0  0  0  0
  141.0920   70.5790  227.7190 C   0  0  0  0  0  0  0  0  0  0  0  0
  140.8370   71.4280  226.6490 C   0  0  0  0  0  0  0  0  0  0  0  0
  140.3080   70.9420  225.4740 C   0  0  0  0  0  0  0  0  0  0  0  0
  140.0520   71.7550  224.4040 N   0  0  0  0  0  0  0  0  0  0  0  0
  139.2930   73.8870  223.1080 H   0  0  0  0  0  0  0  0  0  0  0  0
  139.6529   73.9282  220.2535 H   0  0  0  0  0  0  0  0  0  0  0  0
  137.8285   73.8325  220.7176 H   0  0  0  0  0  0  0  0  0  0  0  0
  138.8722   78.4947  221.0019 H   0  0  0  0  0  0  0  0  0  0  0  0
  140.4072   78.0585  221.7183 H   0  0  0  0  0  0  0  0  0  0  0  0
  139.8951   78.8510  218.6975 H   0  0  0  0  0  0  0  0  0  0  0  0
  140.6117   80.6235  219.5084 H   0  0  0  0  0  0  0  0  0  0  0  0
  143.0520   79.0300  219.7200 H   0  0  0  0  0  0  0  0  0  0  0  0
  139.4400   80.9639  221.6784 H   0  0  0  0  0  0  0  0  0  0  0  0
  139.7321   81.4041  224.0887 H   0  0  0  0  0  0  0  0  0  0  0  0
  141.9073   80.7497  225.1796 H   0  0  0  0  0  0  0  0  0  0  0  0
  143.6683   79.6823  223.8112 H   0  0  0  0  0  0  0  0  0  0  0  0
  143.3349   79.2554  221.3977 H   0  0  0  0  0  0  0  0  0  0  0  0
  142.1495   77.4889  218.4167 H   0  0  0  0  0  0  0  0  0  0  0  0
  142.9960   77.9140  220.4570 H   0  0  0  0  0  0  0  0  0  0  0  0
  139.8992   76.2665  218.3061 H   0  0  0  0  0  0  0  0  0  0  0  0
  140.9113   75.2685  219.3202 H   0  0  0  0  0  0  0  0  0  0  0  0
  138.8472   69.4925  222.2502 H   0  0  0  0  0  0  0  0  0  0  0  0
  139.2990   67.9835  224.1669 H   0  0  0  0  0  0  0  0  0  0  0  0
  140.0476   67.6380  226.3272 H   0  0  0  0  0  0  0  0  0  0  0  0
  141.5162   70.9874  228.6481 H   0  0  0  0  0  0  0  0  0  0  0  0
  141.0603   72.5011  226.7415 H   0  0  0  0  0  0  0  0  0  0  0  0
  1  2  2  0
  2  3  1  0
  3  4  1  0
  4  5  1  0
  5  6  2  0
  5  7  1  0
  7  8  1  0
  8  9  1  0
  9 10  1  0
 10 11  1  0
 10 12  1  0
 12 13  2  0
 13 14  1  0
 14 15  2  0
 15 16  1  0
 16 17  2  0
  9 18  1  0
 18 19  1  0
 18 20  1  0
  2 21  1  0
 21 22  2  0
 22 23  1  0
 23 24  2  0
 24 25  1  0
 25 26  2  0
 26 27  1  0
 26 28  1  0
 28 29  2  0
 29 30  1  0
 30 31  2  0
 20  7  1  0
 31 21  1  0
 17 12  1  0
 30 24  1  0
  3 32  1  0
  4 33  1  0
  4 34  1  0
  8 35  1  0
  8 36  1  0
  9 37  1  6
 10 38  1  6
 11 39  1  0
 13 40  1  0
 14 41  1  0
 15 42  1  0
 16 43  1  0
 17 44  1  0
 18 45  1  6
 19 46  1  0
 20 47  1  0
 20 48  1  0
 22 49  1  0
 23 50  1  0
 25 51  1  0
 28 52  1  0
 29 53  1  0
M  END
>  <smiles>  (48) 
O=C(NCC(=O)N1C[C@@H]([C@H](O)c2ccccc2)[C@@H](O)C1)c1ccc2cc(Cl)ccc2n1

>  <score_type>  (48) 
oracle

>  <origin>  (48) 
autodockgpu

>  <m_score__min__energy>  (48) 
-8.5299999999999994

>  <m_primary>  (48) 
energy

>  <rmsd>  (48) 
2.441959438431725

>  <m_score__min__rmsd>  (48) 
2.441959438431725

>  <meeko>  (48) 
{"free_energy": -7.84, "intermolecular_energy": -10.23, "internal_energy": -2.15, "cluster_size": 15, "cluster_id": 3, "rank_in_cluster": 11}

>  <energy>  (48) 
-7.51

>  <cluster_rmsd>  (48) 
0.28

>  <cluster>  (48) 
5

$$$$

     RDKit          3D

 53 56  0  0  0  0  0  0  0  0999 V2000
  136.8950   71.6380  221.9400 O   0  0  0  0  0  0  0  0  0  0  0  0
  136.9620   72.7480  222.5390 C   0  0  0  0  0  0  0  0  0  0  0  0
  138.0840   73.5840  222.1880 N   0  0  0  0  0  0  0  0  0  0  0  0
  138.9830   73.0760  221.2230 C   0  0  0  0  0  0  0  0  0  0  0  0
  139.7670   71.8930  221.4980 C   0  0  0  0  0  0  0  0  0  0  0  0
  140.9290   71.8680  220.9010 O   0  0  0  0  0  0  0  0  0  0  0  0
  139.4640   70.7740  222.3090 N   0  0  0  0  0  0  0  0  0  0  0  0
  139.2750   70.6580  223.7360 C   0  0  0  0  0  0  0  0  0  0  0  0
  139.4010   69.1330  223.9760 C   0  0  1  0  0  0  0  0  0  0  0  0
  138.8100   68.7780  225.2940 C   0  0  2  0  0  0  0  0  0  0  0  0
  137.6370   69.5550  225.5110 O   0  0  0  0  0  0  0  0  0  0  0  0
  139.6950   68.9450  226.4590 C   0  0  0  0  0  0  0  0  0  0  0  0
  140.2340   67.9510  227.2170 C   0  0  0  0  0  0  0  0  0  0  0  0
  141.0480   68.1540  228.3210 C   0  0  0  0  0  0  0  0  0  0  0  0
  141.3340   69.4690  228.6800 C   0  0  0  0  0  0  0  0  0  0  0  0
  140.8030   70.4980  227.9310 C   0  0  0  0  0  0  0  0  0  0  0  0
  139.9910   70.2560  226.8320 C   0  0  0  0  0  0  0  0  0  0  0  0
  138.5400   68.6670  222.8110 C   0  0  1  0  0  0  0  0  0  0  0  0
  137.2800   69.2150  223.0050 O   0  0  0  0  0  0  0  0  0  0  0  0
  139.2470   69.4400  221.6870 C   0  0  0  0  0  0  0  0  0  0  0  0
  135.9790   73.1670  223.5220 C   0  0  0  0  0  0  0  0  0  0  0  0
  135.1740   72.1740  224.0620 C   0  0  0  0  0  0  0  0  0  0  0  0
  134.2110   72.4720  225.0040 C   0  0  0  0  0  0  0  0  0  0  0  0
  134.0560   73.7870  225.4070 C   0  0  0  0  0  0  0  0  0  0  0  0
  133.0840   74.0320  226.3500 C   0  0  0  0  0  0  0  0  0  0  0  0
  132.9000   75.3490  226.7830 C   0  0  0  0  0  0  0  0  0  0  0  0
  131.6800   75.7350  227.9860 Cl  0  0  0  0  0  0  0  0  0  0  0  0
  133.7100   76.3560  226.2410 C   0  0  0  0  0  0  0  0  0  0  0  0
  134.6770   76.0550  225.2900 C   0  0  0  0  0  0  0  0  0  0  0  0
  134.8630   74.7610  224.8590 C   0  0  0  0  0  0  0  0  0  0  0  0
  135.8110   74.4360  223.9270 N   0  0  0  0  0  0  0  0  0  0  0  0
  138.1170   74.4830  222.7000 H   0  0  0  0  0  0  0  0  0  0  0  0
  138.3886   72.8575  220.3236 H   0  0  0  0  0  0  0  0  0  0  0  0
  139.7451   73.8664  221.1565 H   0  0  0  0  0  0  0  0  0  0  0  0
  140.0516   71.2110  224.2848 H   0  0  0  0  0  0  0  0  0  0  0  0
  138.3189   71.0761  224.0841 H   0  0  0  0  0  0  0  0  0  0  0  0
  140.4144   68.7064  224.0094 H   0  0  0  0  0  0  0  0  0  0  0  0
  138.6007   67.7003  225.2250 H   0  0  0  0  0  0  0  0  0  0  0  0
  136.9360   69.3100  224.8740 H   0  0  0  0  0  0  0  0  0  0  0  0
  140.0076   66.9126  226.9334 H   0  0  0  0  0  0  0  0  0  0  0  0
  141.4535   67.3065  228.8931 H   0  0  0  0  0  0  0  0  0  0  0  0
  141.9742   69.6837  229.5484 H   0  0  0  0  0  0  0  0  0  0  0  0
  141.0289   71.5373  228.2119 H   0  0  0  0  0  0  0  0  0  0  0  0
  139.5808   71.0980  226.2551 H   0  0  0  0  0  0  0  0  0  0  0  0
  138.4339   67.5834  222.6546 H   0  0  0  0  0  0  0  0  0  0  0  0
  137.3190   70.0980  223.4100 H   0  0  0  0  0  0  0  0  0  0  0  0
  140.2022   68.9660  221.4170 H   0  0  0  0  0  0  0  0  0  0  0  0
  138.6726   69.4788  220.7497 H   0  0  0  0  0  0  0  0  0  0  0  0
  135.3058   71.1324  223.7337 H   0  0  0  0  0  0  0  0  0  0  0  0
  133.5776   71.6785  225.4273 H   0  0  0  0  0  0  0  0  0  0  0  0
  132.4684   73.2140  226.7523 H   0  0  0  0  0  0  0  0  0  0  0  0
  133.5787   77.3967  226.5723 H   0  0  0  0  0  0  0  0  0  0  0  0
  135.3016   76.8605  224.8764 H   0  0  0  0  0  0  0  0  0  0  0  0
  1  2  2  0
  2  3  1  0
  3  4  1  0
  4  5  1  0
  5  6  2  0
  5  7  1  0
  7  8  1  0
  8  9  1  0
  9 10  1  0
 10 11  1  0
 10 12  1  0
 12 13  2  0
 13 14  1  0
 14 15  2  0
 15 16  1  0
 16 17  2  0
  9 18  1  0
 18 19  1  0
 18 20  1  0
  2 21  1  0
 21 22  2  0
 22 23  1  0
 23 24  2  0
 24 25  1  0
 25 26  2  0
 26 27  1  0
 26 28  1  0
 28 29  2  0
 29 30  1  0
 30 31  2  0
 20  7  1  0
 31 21  1  0
 17 12  1  0
 30 24  1  0
  3 32  1  0
  4 33  1  0
  4 34  1  0
  8 35  1  0
  8 36  1  0
  9 37  1  6
 10 38  1  6
 11 39  1  0
 13 40  1  0
 14 41  1  0
 15 42  1  0
 16 43  1  0
 17 44  1  0
 18 45  1  6
 19 46  1  0
 20 47  1  0
 20 48  1  0
 22 49  1  0
 23 50  1  0
 25 51  1  0
 28 52  1  0
 29 53  1  0
M  END
>  <smiles>  (49) 
O=C(NCC(=O)N1C[C@@H]([C@H](O)c2ccccc2)[C@@H](O)C1)c1ccc2cc(Cl)ccc2n1

>  <score_type>  (49) 
oracle

>  <origin>  (49) 
autodockgpu

>  <m_score__min__energy>  (49) 
-8.5299999999999994

>  <m_primary>  (49) 
energy

>  <rmsd>  (49) 
7.315663327309458

>  <m_score__min__rmsd>  (49) 
7.315663327309458

>  <meeko>  (49) 
{"free_energy": -6.23, "intermolecular_energy": -8.61, "internal_energy": -3.27, "cluster_size": 1, "cluster_id": 6, "rank_in_cluster": 1}

>  <energy>  (49) 
-7.42

>  <cluster_rmsd>  (49) 
1.37

>  <cluster>  (49) 
5

$$$$

     RDKit          3D

 53 56  0  0  0  0  0  0  0  0999 V2000
  133.5210   70.0990  226.5060 O   0  0  0  0  0  0  0  0  0  0  0  0
  133.3260   71.1130  225.7810 C   0  0  0  0  0  0  0  0  0  0  0  0
  133.4850   70.9110  224.3610 N   0  0  0  0  0  0  0  0  0  0  0  0
  133.8440   69.6110  223.9370 C   0  0  0  0  0  0  0  0  0  0  0  0
  134.9800   68.9340  224.5210 C   0  0  0  0  0  0  0  0  0  0  0  0
  134.6680   68.0290  225.4100 O   0  0  0  0  0  0  0  0  0  0  0  0
  136.3630   69.1050  224.2720 N   0  0  0  0  0  0  0  0  0  0  0  0
  137.4980   69.0890  225.1650 C   0  0  0  0  0  0  0  0  0  0  0  0
  138.6110   69.7540  224.3160 C   0  0  1  0  0  0  0  0  0  0  0  0
  139.9440   69.4350  224.8930 C   0  0  2  0  0  0  0  0  0  0  0  0
  139.9470   68.0920  225.3640 O   0  0  0  0  0  0  0  0  0  0  0  0
  140.3940   70.3090  225.9900 C   0  0  0  0  0  0  0  0  0  0  0  0
  141.0930   71.4710  225.8670 C   0  0  0  0  0  0  0  0  0  0  0  0
  141.5140   72.2530  226.9310 C   0  0  0  0  0  0  0  0  0  0  0  0
  141.2010   71.8200  228.2160 C   0  0  0  0  0  0  0  0  0  0  0  0
  140.4940   70.6470  228.3740 C   0  0  0  0  0  0  0  0  0  0  0  0
  140.0880   69.8880  227.2840 C   0  0  0  0  0  0  0  0  0  0  0  0
  138.3510   69.0120  223.0140 C   0  0  1  0  0  0  0  0  0  0  0  0
  138.5140   67.6620  223.2860 O   0  0  0  0  0  0  0  0  0  0  0  0
  136.8500   69.3110  222.8810 C   0  0  0  0  0  0  0  0  0  0  0  0
  132.9640   72.4080  226.3280 C   0  0  0  0  0  0  0  0  0  0  0  0
  131.7820   72.4710  227.0530 C   0  0  0  0  0  0  0  0  0  0  0  0
  131.3520   73.6550  227.6140 C   0  0  0  0  0  0  0  0  0  0  0  0
  132.1210   74.7930  227.4420 C   0  0  0  0  0  0  0  0  0  0  0  0
  131.6510   75.9490  228.0220 C   0  0  0  0  0  0  0  0  0  0  0  0
  132.4040   77.1180  227.8720 C   0  0  0  0  0  0  0  0  0  0  0  0
  131.8660   78.6290  228.5880 Cl  0  0  0  0  0  0  0  0  0  0  0  0
  133.5990   77.0610  227.1410 C   0  0  0  0  0  0  0  0  0  0  0  0
  134.0280   75.8670  226.5740 C   0  0  0  0  0  0  0  0  0  0  0  0
  133.2920   74.7130  226.7180 C   0  0  0  0  0  0  0  0  0  0  0  0
  133.6940   73.5240  226.1740 N   0  0  0  0  0  0  0  0  0  0  0  0
  133.3260   71.7610  223.7930 H   0  0  0  0  0  0  0  0  0  0  0  0
  132.9690   68.9689  224.1158 H   0  0  0  0  0  0  0  0  0  0  0  0
  134.1608   69.7703  222.8957 H   0  0  0  0  0  0  0  0  0  0  0  0
  137.2937   69.6704  226.0762 H   0  0  0  0  0  0  0  0  0  0  0  0
  137.7618   68.0806  225.5166 H   0  0  0  0  0  0  0  0  0  0  0  0
  138.6040   70.8513  224.2386 H   0  0  0  0  0  0  0  0  0  0  0  0
  140.6515   69.5982  224.0667 H   0  0  0  0  0  0  0  0  0  0  0  0
  139.3730   67.5280  224.8070 H   0  0  0  0  0  0  0  0  0  0  0  0
  141.3411   71.8133  224.8515 H   0  0  0  0  0  0  0  0  0  0  0  0
  142.0762   73.1839  226.7655 H   0  0  0  0  0  0  0  0  0  0  0  0
  141.5133   72.4054  229.0933 H   0  0  0  0  0  0  0  0  0  0  0  0
  140.2452   70.3036  229.3889 H   0  0  0  0  0  0  0  0  0  0  0  0
  139.5257   68.9558  227.4411 H   0  0  0  0  0  0  0  0  0  0  0  0
  138.9713   69.2742  222.1442 H   0  0  0  0  0  0  0  0  0  0  0  0
  139.4500   67.4110  223.3630 H   0  0  0  0  0  0  0  0  0  0  0  0
  136.6775   70.3448  222.5472 H   0  0  0  0  0  0  0  0  0  0  0  0
  136.3391   68.6821  222.1370 H   0  0  0  0  0  0  0  0  0  0  0  0
  131.1779   71.5608  227.1822 H   0  0  0  0  0  0  0  0  0  0  0  0
  130.4145   73.6944  228.1880 H   0  0  0  0  0  0  0  0  0  0  0  0
  130.7081   75.9535  228.5886 H   0  0  0  0  0  0  0  0  0  0  0  0
  134.2036   77.9713  227.0149 H   0  0  0  0  0  0  0  0  0  0  0  0
  134.9678   75.8439  226.0028 H   0  0  0  0  0  0  0  0  0  0  0  0
  1  2  2  0
  2  3  1  0
  3  4  1  0
  4  5  1  0
  5  6  2  0
  5  7  1  0
  7  8  1  0
  8  9  1  0
  9 10  1  0
 10 11  1  0
 10 12  1  0
 12 13  2  0
 13 14  1  0
 14 15  2  0
 15 16  1  0
 16 17  2  0
  9 18  1  0
 18 19  1  0
 18 20  1  0
  2 21  1  0
 21 22  2  0
 22 23  1  0
 23 24  2  0
 24 25  1  0
 25 26  2  0
 26 27  1  0
 26 28  1  0
 28 29  2  0
 29 30  1  0
 30 31  2  0
 20  7  1  0
 31 21  1  0
 17 12  1  0
 30 24  1  0
  3 32  1  0
  4 33  1  0
  4 34  1  0
  8 35  1  0
  8 36  1  0
  9 37  1  6
 10 38  1  6
 11 39  1  0
 13 40  1  0
 14 41  1  0
 15 42  1  0
 16 43  1  0
 17 44  1  0
 18 45  1  6
 19 46  1  0
 20 47  1  0
 20 48  1  0
 22 49  1  0
 23 50  1  0
 25 51  1  0
 28 52  1  0
 29 53  1  0
M  END
>  <smiles>  (50) 
O=C(NCC(=O)N1C[C@@H]([C@H](O)c2ccccc2)[C@@H](O)C1)c1ccc2cc(Cl)ccc2n1

>  <score_type>  (50) 
oracle

>  <origin>  (50) 
autodockgpu

>  <m_score__min__energy>  (50) 
-8.5299999999999994

>  <m_primary>  (50) 
energy

>  <rmsd>  (50) 
9.103228922979362

>  <m_score__min__rmsd>  (50) 
9.103228922979362

>  <meeko>  (50) 
{"free_energy": -8.51, "intermolecular_energy": -10.9, "internal_energy": -2.03, "cluster_size": 10, "cluster_id": 1, "rank_in_cluster": 2}

>  <energy>  (50) 
-6.23

>  <cluster_rmsd>  (50) 
0.0

>  <cluster>  (50) 
6

$$$$
