
     RDKit          3D

 45 48  0  0  0  0  0  0  0  0999 V2000
  139.0840   70.7760  221.5910 O   0  0  0  0  0  0  0  0  0  0  0  0
  139.4330   71.2800  222.6900 C   0  0  0  0  0  0  0  0  0  0  0  0
  139.6530   72.7140  222.7060 N   0  0  0  0  0  0  0  0  0  0  0  0
  139.4550   73.4050  221.4890 C   0  0  0  0  0  0  0  0  0  0  0  0
  139.9580   74.7650  221.3560 C   0  0  0  0  0  0  0  0  0  0  0  0
  141.2470   74.8610  221.2930 O   0  0  0  0  0  0  0  0  0  0  0  0
  139.2170   75.9640  221.2870 N   0  0  0  0  0  0  0  0  0  0  0  0
  138.6420   76.9260  220.3850 C   0  0  0  0  0  0  0  0  0  0  0  0
  137.5930   77.2010  221.4850 C   0  0  0  0  0  0  0  0  0  0  0  0
  138.7020   76.8120  222.3870 C   0  0  2  0  0  0  0  0  0  0  0  0
  139.6670   77.8610  222.7520 C   0  0  0  0  0  0  0  0  0  0  0  0
  139.1730   79.0870  223.1390 C   0  0  0  0  0  0  0  0  0  0  0  0
  140.0410   80.1180  223.4960 C   0  0  0  0  0  0  0  0  0  0  0  0
  141.4110   79.9520  223.4740 C   0  0  0  0  0  0  0  0  0  0  0  0
  142.4960   81.2520  223.9240 Cl  0  0  0  0  0  0  0  0  0  0  0  0
  141.8950   78.7320  223.0900 C   0  0  0  0  0  0  0  0  0  0  0  0
  141.0350   77.7120  222.7370 C   0  0  0  0  0  0  0  0  0  0  0  0
  139.6170   70.5030  223.9080 C   0  0  0  0  0  0  0  0  0  0  0  0
  139.1570   69.2020  223.8950 C   0  0  0  0  0  0  0  0  0  0  0  0
  139.2800   68.3780  224.9900 C   0  0  0  0  0  0  0  0  0  0  0  0
  139.8800   68.8920  226.1100 C   0  0  0  0  0  0  0  0  0  0  0  0
  139.9980   68.0580  227.2050 C   0  0  0  0  0  0  0  0  0  0  0  0
  140.6040   68.5620  228.3510 C   0  0  0  0  0  0  0  0  0  0  0  0
  140.7510   67.7930  229.4600 F   0  0  0  0  0  0  0  0  0  0  0  0
  141.0540   69.8490  228.3520 C   0  0  0  0  0  0  0  0  0  0  0  0
  140.9360   70.6970  227.2450 C   0  0  0  0  0  0  0  0  0  0  0  0
  140.3320   70.1940  226.1010 C   0  0  0  0  0  0  0  0  0  0  0  0
  140.2070   71.0030  225.0160 N   0  0  0  0  0  0  0  0  0  0  0  0
  139.9310   73.0890  223.6300 H   0  0  0  0  0  0  0  0  0  0  0  0
  139.9316   72.8070  220.6983 H   0  0  0  0  0  0  0  0  0  0  0  0
  138.3629   73.5221  221.4285 H   0  0  0  0  0  0  0  0  0  0  0  0
  139.2929   77.7795  220.1443 H   0  0  0  0  0  0  0  0  0  0  0  0
  138.3551   76.6640  219.3559 H   0  0  0  0  0  0  0  0  0  0  0  0
  137.2549   78.2443  221.5696 H   0  0  0  0  0  0  0  0  0  0  0  0
  136.5914   76.7469  221.5086 H   0  0  0  0  0  0  0  0  0  0  0  0
  138.4687   76.4431  223.3967 H   0  0  0  0  0  0  0  0  0  0  0  0
  138.0861   79.2539  223.1666 H   0  0  0  0  0  0  0  0  0  0  0  0
  139.6234   81.0882  223.8030 H   0  0  0  0  0  0  0  0  0  0  0  0
  142.9814   78.5618  223.0622 H   0  0  0  0  0  0  0  0  0  0  0  0
  141.4588   76.7437  222.4323 H   0  0  0  0  0  0  0  0  0  0  0  0
  138.6787   68.8130  222.9840 H   0  0  0  0  0  0  0  0  0  0  0  0
  138.9096   67.3425  224.9673 H   0  0  0  0  0  0  0  0  0  0  0  0
  139.6232   67.0244  227.1715 H   0  0  0  0  0  0  0  0  0  0  0  0
  141.5311   70.2382  229.2636 H   0  0  0  0  0  0  0  0  0  0  0  0
  141.3105   71.7307  227.2804 H   0  0  0  0  0  0  0  0  0  0  0  0
  1  2  2  0
  2  3  1  0
  3  4  1  0
  4  5  1  0
  5  6  2  0
  5  7  1  0
  7  8  1  0
  8  9  1  0
  9 10  1  0
 10 11  1  0
 11 12  2  0
 12 13  1  0
 13 14  2  0
 14 15  1  0
 14 16  1  0
 16 17  2  0
  2 18  1  0
 18 19  2  0
 19 20  1  0
 20 21  2  0
 21 22  1  0
 22 23  2  0
 23 24  1  0
 23 25  1  0
 25 26  2  0
 26 27  1  0
 27 28  2  0
 10  7  1  0
 17 11  1  0
 28 18  1  0
 27 21  1  0
  3 29  1  0
  4 30  1  0
  4 31  1  0
  8 32  1  0
  8 33  1  0
  9 34  1  0
  9 35  1  0
 10 36  1  1
 12 37  1  0
 13 38  1  0
 16 39  1  0
 17 40  1  0
 19 41  1  0
 20 42  1  0
 22 43  1  0
 25 44  1  0
 26 45  1  0
M  END
>  <smiles>  (1) 
O=C(NCC(=O)N1CCC1c1ccc(Cl)cc1)c1ccc2cc(F)ccc2n1

>  <score_type>  (1) 
oracle

>  <origin>  (1) 
autodockgpu

>  <m_score__min__energy>  (1) 
-8.9700000000000006

>  <m_primary>  (1) 
energy

>  <rmsd>  (1) 
2.801452263359851

>  <m_score__min__rmsd>  (1) 
2.801452263359851

>  <meeko>  (1) 
{"free_energy": -8.5, "intermolecular_energy": -9.99, "internal_energy": -1.28, "cluster_size": 42, "cluster_id": 1, "rank_in_cluster": 28}

>  <energy>  (1) 
-8.97

>  <cluster_rmsd>  (1) 
0.0

>  <cluster>  (1) 
1

$$$$

     RDKit          3D

 45 48  0  0  0  0  0  0  0  0999 V2000
  138.4070   72.2870  222.5190 O   0  0  0  0  0  0  0  0  0  0  0  0
  139.5310   71.9230  222.9510 C   0  0  0  0  0  0  0  0  0  0  0  0
  140.6950   72.4450  222.2570 N   0  0  0  0  0  0  0  0  0  0  0  0
  140.4530   73.3090  221.1660 C   0  0  0  0  0  0  0  0  0  0  0  0
  140.5220   74.7490  221.3730 C   0  0  0  0  0  0  0  0  0  0  0  0
  139.7720   75.1940  222.3300 O   0  0  0  0  0  0  0  0  0  0  0  0
  141.2960   75.6930  220.6670 N   0  0  0  0  0  0  0  0  0  0  0  0
  142.5880   75.9350  220.0820 C   0  0  0  0  0  0  0  0  0  0  0  0
  141.8680   76.8770  219.0920 C   0  0  0  0  0  0  0  0  0  0  0  0
  140.9340   77.0620  220.2280 C   0  0  2  0  0  0  0  0  0  0  0  0
  141.3020   78.0650  221.2390 C   0  0  0  0  0  0  0  0  0  0  0  0
  141.7860   79.2770  220.8020 C   0  0  0  0  0  0  0  0  0  0  0  0
  142.1500   80.2650  221.7160 C   0  0  0  0  0  0  0  0  0  0  0  0
  142.0400   80.0670  223.0770 C   0  0  0  0  0  0  0  0  0  0  0  0
  142.4990   81.3120  224.2210 Cl  0  0  0  0  0  0  0  0  0  0  0  0
  141.5590   78.8610  223.5060 C   0  0  0  0  0  0  0  0  0  0  0  0
  141.1990   77.8850  222.6000 C   0  0  0  0  0  0  0  0  0  0  0  0
  139.7040   71.0270  224.0870 C   0  0  0  0  0  0  0  0  0  0  0  0
  139.2160   69.7440  223.9500 C   0  0  0  0  0  0  0  0  0  0  0  0
  139.3250   68.8140  224.9590 C   0  0  0  0  0  0  0  0  0  0  0  0
  139.9420   69.2040  226.1190 C   0  0  0  0  0  0  0  0  0  0  0  0
  140.0470   68.2640  227.1260 C   0  0  0  0  0  0  0  0  0  0  0  0
  140.6690   68.6410  228.3120 C   0  0  0  0  0  0  0  0  0  0  0  0
  140.8040   67.7640  229.3400 F   0  0  0  0  0  0  0  0  0  0  0  0
  141.1480   69.9110  228.4360 C   0  0  0  0  0  0  0  0  0  0  0  0
  141.0430   70.8660  227.4180 C   0  0  0  0  0  0  0  0  0  0  0  0
  140.4230   70.4900  226.2340 C   0  0  0  0  0  0  0  0  0  0  0  0
  140.3110   71.4040  225.2350 N   0  0  0  0  0  0  0  0  0  0  0  0
  141.5990   72.1280  222.6490 H   0  0  0  0  0  0  0  0  0  0  0  0
  141.1905   73.0600  220.3887 H   0  0  0  0  0  0  0  0  0  0  0  0
  139.3962   73.1298  220.9189 H   0  0  0  0  0  0  0  0  0  0  0  0
  143.3104   76.4301  220.7476 H   0  0  0  0  0  0  0  0  0  0  0  0
  143.2380   75.1156  219.7413 H   0  0  0  0  0  0  0  0  0  0  0  0
  142.4328   77.7714  218.7902 H   0  0  0  0  0  0  0  0  0  0  0  0
  141.5555   76.5837  218.0789 H   0  0  0  0  0  0  0  0  0  0  0  0
  139.9053   77.3971  220.0294 H   0  0  0  0  0  0  0  0  0  0  0  0
  141.8864   79.4677  219.7233 H   0  0  0  0  0  0  0  0  0  0  0  0
  142.5343   81.2258  221.3429 H   0  0  0  0  0  0  0  0  0  0  0  0
  141.4582   78.6672  224.5841 H   0  0  0  0  0  0  0  0  0  0  0  0
  140.8151   76.9265  222.9794 H   0  0  0  0  0  0  0  0  0  0  0  0
  138.7261   69.4561  223.0081 H   0  0  0  0  0  0  0  0  0  0  0  0
  138.9309   67.7941  224.8386 H   0  0  0  0  0  0  0  0  0  0  0  0
  139.6502   67.2466  226.9939 H   0  0  0  0  0  0  0  0  0  0  0  0
  141.6387   70.1982  229.3777 H   0  0  0  0  0  0  0  0  0  0  0  0
  141.4396   71.8832  227.5520 H   0  0  0  0  0  0  0  0  0  0  0  0
  1  2  2  0
  2  3  1  0
  3  4  1  0
  4  5  1  0
  5  6  2  0
  5  7  1  0
  7  8  1  0
  8  9  1  0
  9 10  1  0
 10 11  1  0
 11 12  2  0
 12 13  1  0
 13 14  2  0
 14 15  1  0
 14 16  1  0
 16 17  2  0
  2 18  1  0
 18 19  2  0
 19 20  1  0
 20 21  2  0
 21 22  1  0
 22 23  2  0
 23 24  1  0
 23 25  1  0
 25 26  2  0
 26 27  1  0
 27 28  2  0
 10  7  1  0
 17 11  1  0
 28 18  1  0
 27 21  1  0
  3 29  1  0
  4 30  1  0
  4 31  1  0
  8 32  1  0
  8 33  1  0
  9 34  1  0
  9 35  1  0
 10 36  1  6
 12 37  1  0
 13 38  1  0
 16 39  1  0
 17 40  1  0
 19 41  1  0
 20 42  1  0
 22 43  1  0
 25 44  1  0
 26 45  1  0
M  END
>  <smiles>  (2) 
O=C(NCC(=O)N1CCC1c1ccc(Cl)cc1)c1ccc2cc(F)ccc2n1

>  <score_type>  (2) 
oracle

>  <origin>  (2) 
autodockgpu

>  <m_score__min__energy>  (2) 
-8.9700000000000006

>  <m_primary>  (2) 
energy

>  <rmsd>  (2) 
2.5758931511436813

>  <m_score__min__rmsd>  (2) 
2.5758931511436813

>  <meeko>  (2) 
{"free_energy": -8.87, "intermolecular_energy": -10.36, "internal_energy": -1.06, "cluster_size": 42, "cluster_id": 1, "rank_in_cluster": 12}

>  <energy>  (2) 
-8.96

>  <cluster_rmsd>  (2) 
0.18

>  <cluster>  (2) 
1

$$$$

     RDKit          3D

 45 48  0  0  0  0  0  0  0  0999 V2000
  140.8930   71.7370  221.2460 O   0  0  0  0  0  0  0  0  0  0  0  0
  140.3900   72.1870  222.3080 C   0  0  0  0  0  0  0  0  0  0  0  0
  139.9490   73.5700  222.2830 N   0  0  0  0  0  0  0  0  0  0  0  0
  140.1270   74.2760  221.0710 C   0  0  0  0  0  0  0  0  0  0  0  0
  141.4360   74.8300  220.7590 C   0  0  0  0  0  0  0  0  0  0  0  0
  142.4370   74.1150  221.1640 O   0  0  0  0  0  0  0  0  0  0  0  0
  141.7330   76.0300  220.0780 N   0  0  0  0  0  0  0  0  0  0  0  0
  142.7130   76.6910  219.2590 C   0  0  0  0  0  0  0  0  0  0  0  0
  141.5410   77.5020  218.6640 C   0  0  0  0  0  0  0  0  0  0  0  0
  140.9460   77.2830  220.0030 C   0  0  2  0  0  0  0  0  0  0  0  0
  141.3310   78.2230  221.0670 C   0  0  0  0  0  0  0  0  0  0  0  0
  141.7880   79.4680  220.6970 C   0  0  0  0  0  0  0  0  0  0  0  0
  142.1660   80.3990  221.6620 C   0  0  0  0  0  0  0  0  0  0  0  0
  142.0980   80.1120  223.0110 C   0  0  0  0  0  0  0  0  0  0  0  0
  142.5750   81.2860  224.2200 Cl  0  0  0  0  0  0  0  0  0  0  0  0
  141.6420   78.8750  223.3730 C   0  0  0  0  0  0  0  0  0  0  0  0
  141.2680   77.9540  222.4150 C   0  0  0  0  0  0  0  0  0  0  0  0
  140.2380   71.3970  223.5230 C   0  0  0  0  0  0  0  0  0  0  0  0
  139.5880   70.1870  223.4030 C   0  0  0  0  0  0  0  0  0  0  0  0
  139.3880   69.3600  224.4850 C   0  0  0  0  0  0  0  0  0  0  0  0
  139.8600   69.7790  225.7010 C   0  0  0  0  0  0  0  0  0  0  0  0
  139.6550   68.9430  226.7820 C   0  0  0  0  0  0  0  0  0  0  0  0
  140.1270   69.3510  228.0260 C   0  0  0  0  0  0  0  0  0  0  0  0
  139.9570   68.5740  229.1260 F   0  0  0  0  0  0  0  0  0  0  0  0
  140.7670   70.5490  228.1320 C   0  0  0  0  0  0  0  0  0  0  0  0
  140.9770   71.3990  227.0390 C   0  0  0  0  0  0  0  0  0  0  0  0
  140.5070   70.9920  225.7980 C   0  0  0  0  0  0  0  0  0  0  0  0
  140.7000   71.8040  224.7260 N   0  0  0  0  0  0  0  0  0  0  0  0
  139.5360   73.8980  223.1730 H   0  0  0  0  0  0  0  0  0  0  0  0
  139.8674   73.5852  220.2553 H   0  0  0  0  0  0  0  0  0  0  0  0
  139.4879   75.1636  221.1884 H   0  0  0  0  0  0  0  0  0  0  0  0
  143.4520   77.2873  219.8142 H   0  0  0  0  0  0  0  0  0  0  0  0
  143.4188   76.1329  218.6262 H   0  0  0  0  0  0  0  0  0  0  0  0
  141.7674   78.5480  218.4096 H   0  0  0  0  0  0  0  0  0  0  0  0
  141.0375   77.2534  217.7181 H   0  0  0  0  0  0  0  0  0  0  0  0
  139.8538   77.3369  220.1218 H   0  0  0  0  0  0  0  0  0  0  0  0
  141.8552   79.7297  219.6307 H   0  0  0  0  0  0  0  0  0  0  0  0
  142.5276   81.3872  221.3414 H   0  0  0  0  0  0  0  0  0  0  0  0
  141.5724   78.6109  224.4385 H   0  0  0  0  0  0  0  0  0  0  0  0
  140.9060   76.9679  222.7416 H   0  0  0  0  0  0  0  0  0  0  0  0
  139.2190   69.8739  222.4152 H   0  0  0  0  0  0  0  0  0  0  0  0
  138.8677   68.3969  224.3772 H   0  0  0  0  0  0  0  0  0  0  0  0
  139.1333   67.9819  226.6626 H   0  0  0  0  0  0  0  0  0  0  0  0
  141.1351   70.8626  229.1200 H   0  0  0  0  0  0  0  0  0  0  0  0
  141.4985   72.3599  227.1603 H   0  0  0  0  0  0  0  0  0  0  0  0
  1  2  2  0
  2  3  1  0
  3  4  1  0
  4  5  1  0
  5  6  2  0
  5  7  1  0
  7  8  1  0
  8  9  1  0
  9 10  1  0
 10 11  1  0
 11 12  2  0
 12 13  1  0
 13 14  2  0
 14 15  1  0
 14 16  1  0
 16 17  2  0
  2 18  1  0
 18 19  2  0
 19 20  1  0
 20 21  2  0
 21 22  1  0
 22 23  2  0
 23 24  1  0
 23 25  1  0
 25 26  2  0
 26 27  1  0
 27 28  2  0
 10  7  1  0
 17 11  1  0
 28 18  1  0
 27 21  1  0
  3 29  1  0
  4 30  1  0
  4 31  1  0
  8 32  1  0
  8 33  1  0
  9 34  1  0
  9 35  1  0
 10 36  1  6
 12 37  1  0
 13 38  1  0
 16 39  1  0
 17 40  1  0
 19 41  1  0
 20 42  1  0
 22 43  1  0
 25 44  1  0
 26 45  1  0
M  END
>  <smiles>  (3) 
O=C(NCC(=O)N1CCC1c1ccc(Cl)cc1)c1ccc2cc(F)ccc2n1

>  <score_type>  (3) 
oracle

>  <origin>  (3) 
autodockgpu

>  <m_score__min__energy>  (3) 
-8.9700000000000006

>  <m_primary>  (3) 
energy

>  <rmsd>  (3) 
2.577457096981647

>  <m_score__min__rmsd>  (3) 
2.577457096981647

>  <meeko>  (3) 
{"free_energy": -8.84, "intermolecular_energy": -10.33, "internal_energy": -1.11, "cluster_size": 42, "cluster_id": 1, "rank_in_cluster": 13}

>  <energy>  (3) 
-8.95

>  <cluster_rmsd>  (3) 
1.2

>  <cluster>  (3) 
1

$$$$

     RDKit          3D

 45 48  0  0  0  0  0  0  0  0999 V2000
  140.8220   74.1830  220.3900 O   0  0  0  0  0  0  0  0  0  0  0  0
  140.4040   74.9210  221.3190 C   0  0  0  0  0  0  0  0  0  0  0  0
  139.4730   74.3190  222.2560 N   0  0  0  0  0  0  0  0  0  0  0  0
  139.1270   72.9670  222.0350 C   0  0  0  0  0  0  0  0  0  0  0  0
  139.5230   71.9650  223.0150 C   0  0  0  0  0  0  0  0  0  0  0  0
  140.7360   72.0860  223.4520 O   0  0  0  0  0  0  0  0  0  0  0  0
  138.7530   70.9020  223.5320 N   0  0  0  0  0  0  0  0  0  0  0  0
  137.4870   70.5640  224.1250 C   0  0  0  0  0  0  0  0  0  0  0  0
  137.6700   69.1610  223.5070 C   0  0  0  0  0  0  0  0  0  0  0  0
  139.1090   69.4710  223.6780 C   0  0  2  0  0  0  0  0  0  0  0  0
  139.7000   69.1970  224.9960 C   0  0  0  0  0  0  0  0  0  0  0  0
  139.4950   67.9530  225.5520 C   0  0  0  0  0  0  0  0  0  0  0  0
  140.0320   67.6380  226.7990 C   0  0  0  0  0  0  0  0  0  0  0  0
  140.7810   68.5500  227.5160 C   0  0  0  0  0  0  0  0  0  0  0  0
  141.4530   68.1470  229.0830 Cl  0  0  0  0  0  0  0  0  0  0  0  0
  140.9810   69.7820  226.9590 C   0  0  0  0  0  0  0  0  0  0  0  0
  140.4490   70.0930  225.7250 C   0  0  0  0  0  0  0  0  0  0  0  0
  140.8060   76.3110  221.4860 C   0  0  0  0  0  0  0  0  0  0  0  0
  141.4880   76.8940  220.4370 C   0  0  0  0  0  0  0  0  0  0  0  0
  141.9140   78.2010  220.4870 C   0  0  0  0  0  0  0  0  0  0  0  0
  141.6390   78.9180  221.6220 C   0  0  0  0  0  0  0  0  0  0  0  0
  142.0710   80.2290  221.6630 C   0  0  0  0  0  0  0  0  0  0  0  0
  141.8020   80.9740  222.8070 C   0  0  0  0  0  0  0  0  0  0  0  0
  142.2000   82.2680  222.9090 F   0  0  0  0  0  0  0  0  0  0  0  0
  141.1280   80.3870  223.8360 C   0  0  0  0  0  0  0  0  0  0  0  0
  140.6880   79.0590  223.7980 C   0  0  0  0  0  0  0  0  0  0  0  0
  140.9560   78.3160  222.6570 C   0  0  0  0  0  0  0  0  0  0  0  0
  140.5380   77.0240  222.6020 N   0  0  0  0  0  0  0  0  0  0  0  0
  139.1590   74.9560  223.0090 H   0  0  0  0  0  0  0  0  0  0  0  0
  138.0307   72.9242  221.9560 H   0  0  0  0  0  0  0  0  0  0  0  0
  139.6973   72.6938  221.1349 H   0  0  0  0  0  0  0  0  0  0  0  0
  137.4721   70.5855  225.2247 H   0  0  0  0  0  0  0  0  0  0  0  0
  136.5819   71.1650  223.9531 H   0  0  0  0  0  0  0  0  0  0  0  0
  137.2893   68.3228  224.1091 H   0  0  0  0  0  0  0  0  0  0  0  0
  137.2171   68.8427  222.5564 H   0  0  0  0  0  0  0  0  0  0  0  0
  139.8493   68.9494  223.0536 H   0  0  0  0  0  0  0  0  0  0  0  0
  138.9029   67.2027  225.0075 H   0  0  0  0  0  0  0  0  0  0  0  0
  139.8548   66.6383  227.2224 H   0  0  0  0  0  0  0  0  0  0  0  0
  141.5730   70.5341  227.5010 H   0  0  0  0  0  0  0  0  0  0  0  0
  140.6300   71.0946  225.3077 H   0  0  0  0  0  0  0  0  0  0  0  0
  141.6965   76.2973  219.5367 H   0  0  0  0  0  0  0  0  0  0  0  0
  142.4568   78.6550  219.6448 H   0  0  0  0  0  0  0  0  0  0  0  0
  142.6129   80.6722  220.8145 H   0  0  0  0  0  0  0  0  0  0  0  0
  140.9206   80.9837  224.7365 H   0  0  0  0  0  0  0  0  0  0  0  0
  140.1459   78.6174  224.6472 H   0  0  0  0  0  0  0  0  0  0  0  0
  1  2  2  0
  2  3  1  0
  3  4  1  0
  4  5  1  0
  5  6  2  0
  5  7  1  0
  7  8  1  0
  8  9  1  0
  9 10  1  0
 10 11  1  0
 11 12  2  0
 12 13  1  0
 13 14  2  0
 14 15  1  0
 14 16  1  0
 16 17  2  0
  2 18  1  0
 18 19  2  0
 19 20  1  0
 20 21  2  0
 21 22  1  0
 22 23  2  0
 23 24  1  0
 23 25  1  0
 25 26  2  0
 26 27  1  0
 27 28  2  0
 10  7  1  0
 17 11  1  0
 28 18  1  0
 27 21  1  0
  3 29  1  0
  4 30  1  0
  4 31  1  0
  8 32  1  0
  8 33  1  0
  9 34  1  0
  9 35  1  0
 10 36  1  6
 12 37  1  0
 13 38  1  0
 16 39  1  0
 17 40  1  0
 19 41  1  0
 20 42  1  0
 22 43  1  0
 25 44  1  0
 26 45  1  0
M  END
>  <smiles>  (4) 
O=C(NCC(=O)N1CCC1c1ccc(Cl)cc1)c1ccc2cc(F)ccc2n1

>  <score_type>  (4) 
oracle

>  <origin>  (4) 
autodockgpu

>  <m_score__min__energy>  (4) 
-8.9700000000000006

>  <m_primary>  (4) 
energy

>  <rmsd>  (4) 
8.861170068551026

>  <m_score__min__rmsd>  (4) 
8.861170068551026

>  <meeko>  (4) 
{"free_energy": -8.39, "intermolecular_energy": -9.88, "internal_energy": -1.27, "cluster_size": 5, "cluster_id": 2, "rank_in_cluster": 3}

>  <energy>  (4) 
-8.95

>  <cluster_rmsd>  (4) 
1.23

>  <cluster>  (4) 
1

$$$$

     RDKit          3D

 45 48  0  0  0  0  0  0  0  0999 V2000
  139.9200   73.5690  222.6620 O   0  0  0  0  0  0  0  0  0  0  0  0
  140.4290   72.4200  222.7120 C   0  0  0  0  0  0  0  0  0  0  0  0
  141.2080   72.0040  221.5590 N   0  0  0  0  0  0  0  0  0  0  0  0
  141.3190   72.9270  220.4950 C   0  0  0  0  0  0  0  0  0  0  0  0
  142.6290   73.4660  220.1570 C   0  0  0  0  0  0  0  0  0  0  0  0
  143.5920   72.6020  220.1880 O   0  0  0  0  0  0  0  0  0  0  0  0
  142.9600   74.7910  219.8060 N   0  0  0  0  0  0  0  0  0  0  0  0
  144.0410   75.7360  219.7150 C   0  0  0  0  0  0  0  0  0  0  0  0
  143.2400   76.4130  218.5820 C   0  0  0  0  0  0  0  0  0  0  0  0
  142.0770   75.8830  219.3330 C   0  0  2  0  0  0  0  0  0  0  0  0
  141.5790   76.6950  220.4540 C   0  0  0  0  0  0  0  0  0  0  0  0
  141.8040   78.0530  220.4190 C   0  0  0  0  0  0  0  0  0  0  0  0
  141.3540   78.8710  221.4540 C   0  0  0  0  0  0  0  0  0  0  0  0
  140.6750   78.3570  222.5410 C   0  0  0  0  0  0  0  0  0  0  0  0
  140.1120   79.3900  223.8390 Cl  0  0  0  0  0  0  0  0  0  0  0  0
  140.4550   77.0080  222.5700 C   0  0  0  0  0  0  0  0  0  0  0  0
  140.9000   76.1990  221.5440 C   0  0  0  0  0  0  0  0  0  0  0  0
  140.2730   71.5190  223.8460 C   0  0  0  0  0  0  0  0  0  0  0  0
  139.5880   70.3430  223.6200 C   0  0  0  0  0  0  0  0  0  0  0  0
  139.3820   69.4200  224.6190 C   0  0  0  0  0  0  0  0  0  0  0  0
  139.8830   69.7050  225.8620 C   0  0  0  0  0  0  0  0  0  0  0  0
  139.6720   68.7730  226.8600 C   0  0  0  0  0  0  0  0  0  0  0  0
  140.1720   69.0450  228.1290 C   0  0  0  0  0  0  0  0  0  0  0  0
  139.9980   68.1690  229.1520 F   0  0  0  0  0  0  0  0  0  0  0  0
  140.8460   70.2100  228.3410 C   0  0  0  0  0  0  0  0  0  0  0  0
  141.0630   71.1570  227.3330 C   0  0  0  0  0  0  0  0  0  0  0  0
  140.5640   70.8860  226.0660 C   0  0  0  0  0  0  0  0  0  0  0  0
  140.7630   71.7940  225.0750 N   0  0  0  0  0  0  0  0  0  0  0  0
  141.6150   71.0560  221.6430 H   0  0  0  0  0  0  0  0  0  0  0  0
  140.9349   72.4266  219.5938 H   0  0  0  0  0  0  0  0  0  0  0  0
  140.7582   73.8044  220.8496 H   0  0  0  0  0  0  0  0  0  0  0  0
  144.1876   76.3570  220.6111 H   0  0  0  0  0  0  0  0  0  0  0  0
  145.0857   75.4179  219.5827 H   0  0  0  0  0  0  0  0  0  0  0  0
  143.3163   77.5094  218.5351 H   0  0  0  0  0  0  0  0  0  0  0  0
  143.4156   76.2336  217.5110 H   0  0  0  0  0  0  0  0  0  0  0  0
  141.1238   75.7251  218.8073 H   0  0  0  0  0  0  0  0  0  0  0  0
  142.3427   78.4955  219.5681 H   0  0  0  0  0  0  0  0  0  0  0  0
  141.5446   79.9532  221.4036 H   0  0  0  0  0  0  0  0  0  0  0  0
  139.9176   76.5625  223.4201 H   0  0  0  0  0  0  0  0  0  0  0  0
  140.7048   75.1179  221.5994 H   0  0  0  0  0  0  0  0  0  0  0  0
  139.1957   70.1377  222.6131 H   0  0  0  0  0  0  0  0  0  0  0  0
  138.8342   68.4857  224.4266 H   0  0  0  0  0  0  0  0  0  0  0  0
  139.1236   67.8414  226.6564 H   0  0  0  0  0  0  0  0  0  0  0  0
  141.2368   70.4155  229.3485 H   0  0  0  0  0  0  0  0  0  0  0  0
  141.6122   72.0876  227.5386 H   0  0  0  0  0  0  0  0  0  0  0  0
  1  2  2  0
  2  3  1  0
  3  4  1  0
  4  5  1  0
  5  6  2  0
  5  7  1  0
  7  8  1  0
  8  9  1  0
  9 10  1  0
 10 11  1  0
 11 12  2  0
 12 13  1  0
 13 14  2  0
 14 15  1  0
 14 16  1  0
 16 17  2  0
  2 18  1  0
 18 19  2  0
 19 20  1  0
 20 21  2  0
 21 22  1  0
 22 23  2  0
 23 24  1  0
 23 25  1  0
 25 26  2  0
 26 27  1  0
 27 28  2  0
 10  7  1  0
 17 11  1  0
 28 18  1  0
 27 21  1  0
  3 29  1  0
  4 30  1  0
  4 31  1  0
  8 32  1  0
  8 33  1  0
  9 34  1  0
  9 35  1  0
 10 36  1  6
 12 37  1  0
 13 38  1  0
 16 39  1  0
 17 40  1  0
 19 41  1  0
 20 42  1  0
 22 43  1  0
 25 44  1  0
 26 45  1  0
M  END
>  <smiles>  (5) 
O=C(NCC(=O)N1CCC1c1ccc(Cl)cc1)c1ccc2cc(F)ccc2n1

>  <score_type>  (5) 
oracle

>  <origin>  (5) 
autodockgpu

>  <m_score__min__energy>  (5) 
-8.9700000000000006

>  <m_primary>  (5) 
energy

>  <rmsd>  (5) 
2.977121188109716

>  <m_score__min__rmsd>  (5) 
2.977121188109716

>  <meeko>  (5) 
{"free_energy": -8.09, "intermolecular_energy": -9.58, "internal_energy": -1.29, "cluster_size": 42, "cluster_id": 1, "rank_in_cluster": 38}

>  <energy>  (5) 
-8.94

>  <cluster_rmsd>  (5) 
1.23

>  <cluster>  (5) 
1

$$$$

     RDKit          3D

 45 48  0  0  0  0  0  0  0  0999 V2000
  141.3820   71.9650  221.8750 O   0  0  0  0  0  0  0  0  0  0  0  0
  140.4080   72.0360  222.6690 C   0  0  0  0  0  0  0  0  0  0  0  0
  139.3850   73.0170  222.3550 N   0  0  0  0  0  0  0  0  0  0  0  0
  139.5810   73.7960  221.1920 C   0  0  0  0  0  0  0  0  0  0  0  0
  139.8110   75.2270  221.3280 C   0  0  0  0  0  0  0  0  0  0  0  0
  139.1660   75.7890  222.2990 O   0  0  0  0  0  0  0  0  0  0  0  0
  140.6410   76.0520  220.5400 N   0  0  0  0  0  0  0  0  0  0  0  0
  141.8920   76.1080  219.8310 C   0  0  0  0  0  0  0  0  0  0  0  0
  141.2220   77.1460  218.9050 C   0  0  0  0  0  0  0  0  0  0  0  0
  140.4380   77.4600  220.1230 C   0  0  2  0  0  0  0  0  0  0  0  0
  141.0410   78.3970  221.0830 C   0  0  0  0  0  0  0  0  0  0  0  0
  141.0200   78.0580  222.4170 C   0  0  0  0  0  0  0  0  0  0  0  0
  141.5770   78.9090  223.3710 C   0  0  0  0  0  0  0  0  0  0  0  0
  142.1640   80.1070  223.0190 C   0  0  0  0  0  0  0  0  0  0  0  0
  142.8620   81.1720  224.2220 Cl  0  0  0  0  0  0  0  0  0  0  0  0
  142.1820   80.4380  221.6920 C   0  0  0  0  0  0  0  0  0  0  0  0
  141.6300   79.5950  220.7490 C   0  0  0  0  0  0  0  0  0  0  0  0
  140.2720   71.1970  223.8520 C   0  0  0  0  0  0  0  0  0  0  0  0
  139.5930   70.0060  223.6980 C   0  0  0  0  0  0  0  0  0  0  0  0
  139.4060   69.1370  224.7480 C   0  0  0  0  0  0  0  0  0  0  0  0
  139.9200   69.4920  225.9680 C   0  0  0  0  0  0  0  0  0  0  0  0
  139.7270   68.6130  227.0160 C   0  0  0  0  0  0  0  0  0  0  0  0
  140.2400   68.9570  228.2630 C   0  0  0  0  0  0  0  0  0  0  0  0
  140.0840   68.1360  229.3330 F   0  0  0  0  0  0  0  0  0  0  0  0
  140.9080   70.1360  228.4030 C   0  0  0  0  0  0  0  0  0  0  0  0
  141.1060   71.0290  227.3430 C   0  0  0  0  0  0  0  0  0  0  0  0
  140.5940   70.6870  226.0990 C   0  0  0  0  0  0  0  0  0  0  0  0
  140.7750   71.5410  225.0580 N   0  0  0  0  0  0  0  0  0  0  0  0
  138.5990   73.0380  223.0280 H   0  0  0  0  0  0  0  0  0  0  0  0
  140.4535   73.3783  220.6683 H   0  0  0  0  0  0  0  0  0  0  0  0
  138.6153   73.7340  220.6689 H   0  0  0  0  0  0  0  0  0  0  0  0
  142.7386   76.4925  220.4187 H   0  0  0  0  0  0  0  0  0  0  0  0
  142.3823   75.2049  219.4385 H   0  0  0  0  0  0  0  0  0  0  0  0
  141.8771   77.9510  218.5406 H   0  0  0  0  0  0  0  0  0  0  0  0
  140.7743   76.9033  217.9300 H   0  0  0  0  0  0  0  0  0  0  0  0
  139.4536   77.9400  220.0203 H   0  0  0  0  0  0  0  0  0  0  0  0
  140.5608   77.1095  222.7325 H   0  0  0  0  0  0  0  0  0  0  0  0
  141.5476   78.6177  224.4313 H   0  0  0  0  0  0  0  0  0  0  0  0
  142.6410   81.3855  221.3733 H   0  0  0  0  0  0  0  0  0  0  0  0
  141.6621   79.8919  219.6903 H   0  0  0  0  0  0  0  0  0  0  0  0
  139.1901   69.7440  222.7085 H   0  0  0  0  0  0  0  0  0  0  0  0
  138.8628   68.1900  224.6131 H   0  0  0  0  0  0  0  0  0  0  0  0
  139.1833   67.6681  226.8690 H   0  0  0  0  0  0  0  0  0  0  0  0
  141.3097   70.3981  229.3929 H   0  0  0  0  0  0  0  0  0  0  0  0
  141.6508   71.9730  227.4915 H   0  0  0  0  0  0  0  0  0  0  0  0
  1  2  2  0
  2  3  1  0
  3  4  1  0
  4  5  1  0
  5  6  2  0
  5  7  1  0
  7  8  1  0
  8  9  1  0
  9 10  1  0
 10 11  1  0
 11 12  2  0
 12 13  1  0
 13 14  2  0
 14 15  1  0
 14 16  1  0
 16 17  2  0
  2 18  1  0
 18 19  2  0
 19 20  1  0
 20 21  2  0
 21 22  1  0
 22 23  2  0
 23 24  1  0
 23 25  1  0
 25 26  2  0
 26 27  1  0
 27 28  2  0
 10  7  1  0
 17 11  1  0
 28 18  1  0
 27 21  1  0
  3 29  1  0
  4 30  1  0
  4 31  1  0
  8 32  1  0
  8 33  1  0
  9 34  1  0
  9 35  1  0
 10 36  1  6
 12 37  1  0
 13 38  1  0
 16 39  1  0
 17 40  1  0
 19 41  1  0
 20 42  1  0
 22 43  1  0
 25 44  1  0
 26 45  1  0
M  END
>  <smiles>  (6) 
O=C(NCC(=O)N1CCC1c1ccc(Cl)cc1)c1ccc2cc(F)ccc2n1

>  <score_type>  (6) 
oracle

>  <origin>  (6) 
autodockgpu

>  <m_score__min__energy>  (6) 
-8.9700000000000006

>  <m_primary>  (6) 
energy

>  <rmsd>  (6) 
2.522354676042184

>  <m_score__min__rmsd>  (6) 
2.522354676042184

>  <meeko>  (6) 
{"free_energy": -8.64, "intermolecular_energy": -10.13, "internal_energy": -1.06, "cluster_size": 42, "cluster_id": 1, "rank_in_cluster": 24}

>  <energy>  (6) 
-8.92

>  <cluster_rmsd>  (6) 
1.24

>  <cluster>  (6) 
1

$$$$

     RDKit          3D

 45 48  0  0  0  0  0  0  0  0999 V2000
  138.6720   72.0500  222.1510 O   0  0  0  0  0  0  0  0  0  0  0  0
  139.7430   71.7970  222.7600 C   0  0  0  0  0  0  0  0  0  0  0  0
  140.9480   72.4190  222.2430 N   0  0  0  0  0  0  0  0  0  0  0  0
  140.8020   73.2480  221.1070 C   0  0  0  0  0  0  0  0  0  0  0  0
  140.7150   74.6900  221.2880 C   0  0  0  0  0  0  0  0  0  0  0  0
  139.9260   75.0690  222.2420 O   0  0  0  0  0  0  0  0  0  0  0  0
  141.3800   75.7000  220.5610 N   0  0  0  0  0  0  0  0  0  0  0  0
  142.6100   76.0360  219.8940 C   0  0  0  0  0  0  0  0  0  0  0  0
  141.7660   76.9610  218.9900 C   0  0  0  0  0  0  0  0  0  0  0  0
  140.9090   77.0560  220.1950 C   0  0  2  0  0  0  0  0  0  0  0  0
  141.2910   78.0490  221.2110 C   0  0  0  0  0  0  0  0  0  0  0  0
  141.8090   79.2500  220.7790 C   0  0  0  0  0  0  0  0  0  0  0  0
  142.1880   80.2270  221.6970 C   0  0  0  0  0  0  0  0  0  0  0  0
  142.0610   80.0320  223.0580 C   0  0  0  0  0  0  0  0  0  0  0  0
  142.5390   81.2650  224.2070 Cl  0  0  0  0  0  0  0  0  0  0  0  0
  141.5450   78.8380  223.4810 C   0  0  0  0  0  0  0  0  0  0  0  0
  141.1700   77.8710  222.5700 C   0  0  0  0  0  0  0  0  0  0  0  0
  139.8180   70.9310  223.9290 C   0  0  0  0  0  0  0  0  0  0  0  0
  139.2140   69.6950  223.8300 C   0  0  0  0  0  0  0  0  0  0  0  0
  139.2230   68.7970  224.8730 C   0  0  0  0  0  0  0  0  0  0  0  0
  139.8590   69.1690  226.0280 C   0  0  0  0  0  0  0  0  0  0  0  0
  139.8640   68.2620  227.0690 C   0  0  0  0  0  0  0  0  0  0  0  0
  140.5040   68.6220  228.2510 C   0  0  0  0  0  0  0  0  0  0  0  0
  140.5430   67.7740  229.3110 F   0  0  0  0  0  0  0  0  0  0  0  0
  141.0970   69.8460  228.3370 C   0  0  0  0  0  0  0  0  0  0  0  0
  141.0940   70.7690  227.2840 C   0  0  0  0  0  0  0  0  0  0  0  0
  140.4570   70.4090  226.1050 C   0  0  0  0  0  0  0  0  0  0  0  0
  140.4430   71.2920  225.0720 N   0  0  0  0  0  0  0  0  0  0  0  0
  141.8050   72.1910  222.7760 H   0  0  0  0  0  0  0  0  0  0  0  0
  141.6680   73.0572  220.4561 H   0  0  0  0  0  0  0  0  0  0  0  0
  139.8145   72.9738  220.7075 H   0  0  0  0  0  0  0  0  0  0  0  0
  143.3492   76.5542  220.5225 H   0  0  0  0  0  0  0  0  0  0  0  0
  143.2800   75.2675  219.4810 H   0  0  0  0  0  0  0  0  0  0  0  0
  142.2542   77.8963  218.6787 H   0  0  0  0  0  0  0  0  0  0  0  0
  141.3977   76.6790  217.9926 H   0  0  0  0  0  0  0  0  0  0  0  0
  139.8510   77.3347  220.0811 H   0  0  0  0  0  0  0  0  0  0  0  0
  141.9243   79.4390  219.7015 H   0  0  0  0  0  0  0  0  0  0  0  0
  142.5990   81.1783  221.3281 H   0  0  0  0  0  0  0  0  0  0  0  0
  141.4277   78.6464  224.5578 H   0  0  0  0  0  0  0  0  0  0  0  0
  140.7588   76.9221  222.9448 H   0  0  0  0  0  0  0  0  0  0  0  0
  138.7111   69.4193  222.8913 H   0  0  0  0  0  0  0  0  0  0  0  0
  138.7364   67.8146  224.7823 H   0  0  0  0  0  0  0  0  0  0  0  0
  139.3755   67.2817  226.9668 H   0  0  0  0  0  0  0  0  0  0  0  0
  141.6005   70.1212  229.2755 H   0  0  0  0  0  0  0  0  0  0  0  0
  141.5817   71.7495  227.3882 H   0  0  0  0  0  0  0  0  0  0  0  0
  1  2  2  0
  2  3  1  0
  3  4  1  0
  4  5  1  0
  5  6  2  0
  5  7  1  0
  7  8  1  0
  8  9  1  0
  9 10  1  0
 10 11  1  0
 11 12  2  0
 12 13  1  0
 13 14  2  0
 14 15  1  0
 14 16  1  0
 16 17  2  0
  2 18  1  0
 18 19  2  0
 19 20  1  0
 20 21  2  0
 21 22  1  0
 22 23  2  0
 23 24  1  0
 23 25  1  0
 25 26  2  0
 26 27  1  0
 27 28  2  0
 10  7  1  0
 17 11  1  0
 28 18  1  0
 27 21  1  0
  3 29  1  0
  4 30  1  0
  4 31  1  0
  8 32  1  0
  8 33  1  0
  9 34  1  0
  9 35  1  0
 10 36  1  6
 12 37  1  0
 13 38  1  0
 16 39  1  0
 17 40  1  0
 19 41  1  0
 20 42  1  0
 22 43  1  0
 25 44  1  0
 26 45  1  0
M  END
>  <smiles>  (7) 
O=C(NCC(=O)N1CCC1c1ccc(Cl)cc1)c1ccc2cc(F)ccc2n1

>  <score_type>  (7) 
oracle

>  <origin>  (7) 
autodockgpu

>  <m_score__min__energy>  (7) 
-8.9700000000000006

>  <m_primary>  (7) 
energy

>  <rmsd>  (7) 
2.597966553978499

>  <m_score__min__rmsd>  (7) 
2.597966553978499

>  <meeko>  (7) 
{"free_energy": -8.83, "intermolecular_energy": -10.33, "internal_energy": -1.12, "cluster_size": 42, "cluster_id": 1, "rank_in_cluster": 14}

>  <energy>  (7) 
-8.92

>  <cluster_rmsd>  (7) 
1.2

>  <cluster>  (7) 
1

$$$$

     RDKit          3D

 45 48  0  0  0  0  0  0  0  0999 V2000
  139.3900   70.8570  221.5700 O   0  0  0  0  0  0  0  0  0  0  0  0
  139.7110   71.3350  222.6880 C   0  0  0  0  0  0  0  0  0  0  0  0
  139.9920   72.7590  222.7300 N   0  0  0  0  0  0  0  0  0  0  0  0
  139.8770   73.4690  221.5130 C   0  0  0  0  0  0  0  0  0  0  0  0
  140.0060   74.9190  221.5230 C   0  0  0  0  0  0  0  0  0  0  0  0
  139.2320   75.5250  222.3650 O   0  0  0  0  0  0  0  0  0  0  0  0
  140.8620   75.7220  220.7390 N   0  0  0  0  0  0  0  0  0  0  0  0
  142.1620   75.7840  220.1270 C   0  0  0  0  0  0  0  0  0  0  0  0
  141.5260   76.7160  219.0730 C   0  0  0  0  0  0  0  0  0  0  0  0
  140.6350   77.0830  220.1990 C   0  0  2  0  0  0  0  0  0  0  0  0
  141.1200   78.1160  221.1260 C   0  0  0  0  0  0  0  0  0  0  0  0
  141.0070   77.8780  222.4780 C   0  0  0  0  0  0  0  0  0  0  0  0
  141.4500   78.8220  223.4020 C   0  0  0  0  0  0  0  0  0  0  0  0
  142.0110   80.0180  223.0030 C   0  0  0  0  0  0  0  0  0  0  0  0
  142.5660   81.2020  224.1700 Cl  0  0  0  0  0  0  0  0  0  0  0  0
  142.1210   80.2490  221.6600 C   0  0  0  0  0  0  0  0  0  0  0  0
  141.6830   79.3130  220.7460 C   0  0  0  0  0  0  0  0  0  0  0  0
  139.8090   70.5400  223.9050 C   0  0  0  0  0  0  0  0  0  0  0  0
  139.2710   69.2700  223.8650 C   0  0  0  0  0  0  0  0  0  0  0  0
  139.3070   68.4330  224.9570 C   0  0  0  0  0  0  0  0  0  0  0  0
  139.9010   68.9020  226.0990 C   0  0  0  0  0  0  0  0  0  0  0  0
  139.9330   68.0540  227.1900 C   0  0  0  0  0  0  0  0  0  0  0  0
  140.5310   68.5120  228.3600 C   0  0  0  0  0  0  0  0  0  0  0  0
  140.5940   67.7270  229.4660 F   0  0  0  0  0  0  0  0  0  0  0  0
  141.0590   69.7680  228.3870 C   0  0  0  0  0  0  0  0  0  0  0  0
  141.0280   70.6300  227.2840 C   0  0  0  0  0  0  0  0  0  0  0  0
  140.4320   70.1730  226.1160 C   0  0  0  0  0  0  0  0  0  0  0  0
  140.3920   70.9960  225.0360 N   0  0  0  0  0  0  0  0  0  0  0  0
  140.2450   73.1130  223.6680 H   0  0  0  0  0  0  0  0  0  0  0  0
  140.6558   73.0815  220.8397 H   0  0  0  0  0  0  0  0  0  0  0  0
  138.8333   73.3008  221.2090 H   0  0  0  0  0  0  0  0  0  0  0  0
  142.9417   76.2518  220.7461 H   0  0  0  0  0  0  0  0  0  0  0  0
  142.7197   74.8784  219.8461 H   0  0  0  0  0  0  0  0  0  0  0  0
  142.1742   77.5215  218.6974 H   0  0  0  0  0  0  0  0  0  0  0  0
  141.1684   76.3796  218.0886 H   0  0  0  0  0  0  0  0  0  0  0  0
  139.6431   77.5071  219.9839 H   0  0  0  0  0  0  0  0  0  0  0  0
  140.5635   76.9352  222.8309 H   0  0  0  0  0  0  0  0  0  0  0  0
  141.3501   78.6086  224.4765 H   0  0  0  0  0  0  0  0  0  0  0  0
  142.5635   81.1912  221.3044 H   0  0  0  0  0  0  0  0  0  0  0  0
  141.7877   79.5317  219.6730 H   0  0  0  0  0  0  0  0  0  0  0  0
  138.8007   68.9170  222.9354 H   0  0  0  0  0  0  0  0  0  0  0  0
  138.8740   67.4227  224.9143 H   0  0  0  0  0  0  0  0  0  0  0  0
  139.4979   67.0452  227.1349 H   0  0  0  0  0  0  0  0  0  0  0  0
  141.5304   70.1202  229.3164 H   0  0  0  0  0  0  0  0  0  0  0  0
  141.4627   71.6389  227.3410 H   0  0  0  0  0  0  0  0  0  0  0  0
  1  2  2  0
  2  3  1  0
  3  4  1  0
  4  5  1  0
  5  6  2  0
  5  7  1  0
  7  8  1  0
  8  9  1  0
  9 10  1  0
 10 11  1  0
 11 12  2  0
 12 13  1  0
 13 14  2  0
 14 15  1  0
 14 16  1  0
 16 17  2  0
  2 18  1  0
 18 19  2  0
 19 20  1  0
 20 21  2  0
 21 22  1  0
 22 23  2  0
 23 24  1  0
 23 25  1  0
 25 26  2  0
 26 27  1  0
 27 28  2  0
 10  7  1  0
 17 11  1  0
 28 18  1  0
 27 21  1  0
  3 29  1  0
  4 30  1  0
  4 31  1  0
  8 32  1  0
  8 33  1  0
  9 34  1  0
  9 35  1  0
 10 36  1  6
 12 37  1  0
 13 38  1  0
 16 39  1  0
 17 40  1  0
 19 41  1  0
 20 42  1  0
 22 43  1  0
 25 44  1  0
 26 45  1  0
M  END
>  <smiles>  (8) 
O=C(NCC(=O)N1CCC1c1ccc(Cl)cc1)c1ccc2cc(F)ccc2n1

>  <score_type>  (8) 
oracle

>  <origin>  (8) 
autodockgpu

>  <m_score__min__energy>  (8) 
-8.9700000000000006

>  <m_primary>  (8) 
energy

>  <rmsd>  (8) 
2.526656345031527

>  <m_score__min__rmsd>  (8) 
2.526656345031527

>  <meeko>  (8) 
{"free_energy": -8.58, "intermolecular_energy": -10.07, "internal_energy": -1.26, "cluster_size": 42, "cluster_id": 1, "rank_in_cluster": 25}

>  <energy>  (8) 
-8.92

>  <cluster_rmsd>  (8) 
1.25

>  <cluster>  (8) 
1

$$$$

     RDKit          3D

 45 48  0  0  0  0  0  0  0  0999 V2000
  138.9540   72.8380  222.3400 O   0  0  0  0  0  0  0  0  0  0  0  0
  139.9960   72.2570  222.7380 C   0  0  0  0  0  0  0  0  0  0  0  0
  141.2120   72.5170  221.9890 N   0  0  0  0  0  0  0  0  0  0  0  0
  141.1080   73.3970  220.8880 C   0  0  0  0  0  0  0  0  0  0  0  0
  141.0470   74.8310  221.1290 C   0  0  0  0  0  0  0  0  0  0  0  0
  140.3720   75.1750  222.1790 O   0  0  0  0  0  0  0  0  0  0  0  0
  141.6290   75.8670  220.3680 N   0  0  0  0  0  0  0  0  0  0  0  0
  142.8140   76.2630  219.6550 C   0  0  0  0  0  0  0  0  0  0  0  0
  141.8900   77.1270  218.7710 C   0  0  0  0  0  0  0  0  0  0  0  0
  141.0690   77.1900  220.0040 C   0  0  2  0  0  0  0  0  0  0  0  0
  141.4290   78.2160  220.9940 C   0  0  0  0  0  0  0  0  0  0  0  0
  141.3670   77.8780  222.3280 C   0  0  0  0  0  0  0  0  0  0  0  0
  141.6960   78.8100  223.3100 C   0  0  0  0  0  0  0  0  0  0  0  0
  142.0920   80.0930  222.9870 C   0  0  0  0  0  0  0  0  0  0  0  0
  142.5050   81.2610  224.2260 Cl  0  0  0  0  0  0  0  0  0  0  0  0
  142.1520   80.4230  221.6610 C   0  0  0  0  0  0  0  0  0  0  0  0
  141.8260   79.4980  220.6900 C   0  0  0  0  0  0  0  0  0  0  0  0
  140.0280   71.3610  223.8870 C   0  0  0  0  0  0  0  0  0  0  0  0
  139.4790   70.1070  223.7160 C   0  0  0  0  0  0  0  0  0  0  0  0
  139.4560   69.1800  224.7340 C   0  0  0  0  0  0  0  0  0  0  0  0
  140.0010   69.5430  225.9370 C   0  0  0  0  0  0  0  0  0  0  0  0
  139.9730   68.6070  226.9530 C   0  0  0  0  0  0  0  0  0  0  0  0
  140.5210   68.9570  228.1830 C   0  0  0  0  0  0  0  0  0  0  0  0
  140.5250   68.0820  229.2210 F   0  0  0  0  0  0  0  0  0  0  0  0
  141.0600   70.1990  228.3400 C   0  0  0  0  0  0  0  0  0  0  0  0
  141.0900   71.1510  227.3130 C   0  0  0  0  0  0  0  0  0  0  0  0
  140.5440   70.8020  226.0860 C   0  0  0  0  0  0  0  0  0  0  0  0
  140.5630   71.7120  225.0770 N   0  0  0  0  0  0  0  0  0  0  0  0
  142.0470   72.0260  222.3540 H   0  0  0  0  0  0  0  0  0  0  0  0
  141.9838   73.2156  220.2477 H   0  0  0  0  0  0  0  0  0  0  0  0
  140.1236   73.1619  220.4570 H   0  0  0  0  0  0  0  0  0  0  0  0
  143.5436   76.8300  220.2518 H   0  0  0  0  0  0  0  0  0  0  0  0
  143.5116   75.5279  219.2273 H   0  0  0  0  0  0  0  0  0  0  0  0
  142.3142   78.0839  218.4328 H   0  0  0  0  0  0  0  0  0  0  0  0
  141.5049   76.8117  217.7900 H   0  0  0  0  0  0  0  0  0  0  0  0
  139.9936   77.4071  219.9242 H   0  0  0  0  0  0  0  0  0  0  0  0
  141.0553   76.8644  222.6202 H   0  0  0  0  0  0  0  0  0  0  0  0
  141.6389   78.5167  224.3686 H   0  0  0  0  0  0  0  0  0  0  0  0
  142.4632   81.4358  221.3655 H   0  0  0  0  0  0  0  0  0  0  0  0
  141.8858   79.7969  219.6331 H   0  0  0  0  0  0  0  0  0  0  0  0
  139.0479   69.8403  222.7398 H   0  0  0  0  0  0  0  0  0  0  0  0
  139.0154   68.1830  224.5862 H   0  0  0  0  0  0  0  0  0  0  0  0
  139.5298   67.6129  226.7938 H   0  0  0  0  0  0  0  0  0  0  0  0
  141.4905   70.4655  229.3165 H   0  0  0  0  0  0  0  0  0  0  0  0
  141.5328   72.1449  227.4742 H   0  0  0  0  0  0  0  0  0  0  0  0
  1  2  2  0
  2  3  1  0
  3  4  1  0
  4  5  1  0
  5  6  2  0
  5  7  1  0
  7  8  1  0
  8  9  1  0
  9 10  1  0
 10 11  1  0
 11 12  2  0
 12 13  1  0
 13 14  2  0
 14 15  1  0
 14 16  1  0
 16 17  2  0
  2 18  1  0
 18 19  2  0
 19 20  1  0
 20 21  2  0
 21 22  1  0
 22 23  2  0
 23 24  1  0
 23 25  1  0
 25 26  2  0
 26 27  1  0
 27 28  2  0
 10  7  1  0
 17 11  1  0
 28 18  1  0
 27 21  1  0
  3 29  1  0
  4 30  1  0
  4 31  1  0
  8 32  1  0
  8 33  1  0
  9 34  1  0
  9 35  1  0
 10 36  1  6
 12 37  1  0
 13 38  1  0
 16 39  1  0
 17 40  1  0
 19 41  1  0
 20 42  1  0
 22 43  1  0
 25 44  1  0
 26 45  1  0
M  END
>  <smiles>  (9) 
O=C(NCC(=O)N1CCC1c1ccc(Cl)cc1)c1ccc2cc(F)ccc2n1

>  <score_type>  (9) 
oracle

>  <origin>  (9) 
autodockgpu

>  <m_score__min__energy>  (9) 
-8.9700000000000006

>  <m_primary>  (9) 
energy

>  <rmsd>  (9) 
2.808879739710626

>  <m_score__min__rmsd>  (9) 
2.808879739710626

>  <meeko>  (9) 
{"free_energy": -8.9, "intermolecular_energy": -10.39, "internal_energy": -0.99, "cluster_size": 42, "cluster_id": 1, "rank_in_cluster": 10}

>  <energy>  (9) 
-8.91

>  <cluster_rmsd>  (9) 
1.22

>  <cluster>  (9) 
1

$$$$

     RDKit          3D

 45 48  0  0  0  0  0  0  0  0999 V2000
  139.9580   73.5880  222.3990 O   0  0  0  0  0  0  0  0  0  0  0  0
  140.3890   72.4070  222.4610 C   0  0  0  0  0  0  0  0  0  0  0  0
  141.0710   71.9010  221.2840 N   0  0  0  0  0  0  0  0  0  0  0  0
  141.1850   72.7810  220.1830 C   0  0  0  0  0  0  0  0  0  0  0  0
  142.2280   73.7970  220.1930 C   0  0  0  0  0  0  0  0  0  0  0  0
  143.2470   73.5180  220.9410 O   0  0  0  0  0  0  0  0  0  0  0  0
  142.2550   75.0220  219.4930 N   0  0  0  0  0  0  0  0  0  0  0  0
  143.0750   75.8790  218.6790 C   0  0  0  0  0  0  0  0  0  0  0  0
  141.7620   76.3870  218.0450 C   0  0  0  0  0  0  0  0  0  0  0  0
  141.2030   76.0580  219.3780 C   0  0  2  0  0  0  0  0  0  0  0  0
  141.3360   77.0780  220.4290 C   0  0  0  0  0  0  0  0  0  0  0  0
  141.0050   76.7250  221.7180 C   0  0  0  0  0  0  0  0  0  0  0  0
  141.1120   77.6510  222.7550 C   0  0  0  0  0  0  0  0  0  0  0  0
  141.5470   78.9420  222.5300 C   0  0  0  0  0  0  0  0  0  0  0  0
  141.6790   80.1020  223.8370 Cl  0  0  0  0  0  0  0  0  0  0  0  0
  141.8750   79.2860  221.2480 C   0  0  0  0  0  0  0  0  0  0  0  0
  141.7690   78.3680  220.2230 C   0  0  0  0  0  0  0  0  0  0  0  0
  140.2360   71.5560  223.6340 C   0  0  0  0  0  0  0  0  0  0  0  0
  139.5690   70.3620  223.4550 C   0  0  0  0  0  0  0  0  0  0  0  0
  139.3670   69.4810  224.4930 C   0  0  0  0  0  0  0  0  0  0  0  0
  139.8540   69.8280  225.7260 C   0  0  0  0  0  0  0  0  0  0  0  0
  139.6470   68.9390  226.7620 C   0  0  0  0  0  0  0  0  0  0  0  0
  140.1340   69.2730  228.0220 C   0  0  0  0  0  0  0  0  0  0  0  0
  139.9630   68.4410  229.0810 F   0  0  0  0  0  0  0  0  0  0  0  0
  140.7910   70.4560  228.1860 C   0  0  0  0  0  0  0  0  0  0  0  0
  141.0030   71.3600  227.1380 C   0  0  0  0  0  0  0  0  0  0  0  0
  140.5180   71.0260  225.8820 C   0  0  0  0  0  0  0  0  0  0  0  0
  140.7130   71.8920  224.8530 N   0  0  0  0  0  0  0  0  0  0  0  0
  141.4160   70.9300  221.3790 H   0  0  0  0  0  0  0  0  0  0  0  0
  141.3495   72.1598  219.2902 H   0  0  0  0  0  0  0  0  0  0  0  0
  140.2518   73.3625  220.2140 H   0  0  0  0  0  0  0  0  0  0  0  0
  143.6430   76.6390  219.2356 H   0  0  0  0  0  0  0  0  0  0  0  0
  143.9053   75.4894  218.0717 H   0  0  0  0  0  0  0  0  0  0  0  0
  141.7465   77.4526  217.7726 H   0  0  0  0  0  0  0  0  0  0  0  0
  141.3514   76.0135  217.0953 H   0  0  0  0  0  0  0  0  0  0  0  0
  140.1253   75.8604  219.4758 H   0  0  0  0  0  0  0  0  0  0  0  0
  140.6535   75.7047  221.9314 H   0  0  0  0  0  0  0  0  0  0  0  0
  140.8434   77.3456  223.7771 H   0  0  0  0  0  0  0  0  0  0  0  0
  142.2271   80.3053  221.0313 H   0  0  0  0  0  0  0  0  0  0  0  0
  142.0407   78.6789  219.2034 H   0  0  0  0  0  0  0  0  0  0  0  0
  139.1880   70.1069  222.4551 H   0  0  0  0  0  0  0  0  0  0  0  0
  138.8334   68.5316  224.3382 H   0  0  0  0  0  0  0  0  0  0  0  0
  139.1117   67.9925  226.5958 H   0  0  0  0  0  0  0  0  0  0  0  0
  141.1715   70.7118  229.1859 H   0  0  0  0  0  0  0  0  0  0  0  0
  141.5380   72.3064  227.3056 H   0  0  0  0  0  0  0  0  0  0  0  0
  1  2  2  0
  2  3  1  0
  3  4  1  0
  4  5  1  0
  5  6  2  0
  5  7  1  0
  7  8  1  0
  8  9  1  0
  9 10  1  0
 10 11  1  0
 11 12  2  0
 12 13  1  0
 13 14  2  0
 14 15  1  0
 14 16  1  0
 16 17  2  0
  2 18  1  0
 18 19  2  0
 19 20  1  0
 20 21  2  0
 21 22  1  0
 22 23  2  0
 23 24  1  0
 23 25  1  0
 25 26  2  0
 26 27  1  0
 27 28  2  0
 10  7  1  0
 17 11  1  0
 28 18  1  0
 27 21  1  0
  3 29  1  0
  4 30  1  0
  4 31  1  0
  8 32  1  0
  8 33  1  0
  9 34  1  0
  9 35  1  0
 10 36  1  6
 12 37  1  0
 13 38  1  0
 16 39  1  0
 17 40  1  0
 19 41  1  0
 20 42  1  0
 22 43  1  0
 25 44  1  0
 26 45  1  0
M  END
>  <smiles>  (10) 
O=C(NCC(=O)N1CCC1c1ccc(Cl)cc1)c1ccc2cc(F)ccc2n1

>  <score_type>  (10) 
oracle

>  <origin>  (10) 
autodockgpu

>  <m_score__min__energy>  (10) 
-8.9700000000000006

>  <m_primary>  (10) 
energy

>  <rmsd>  (10) 
2.799915408186277

>  <m_score__min__rmsd>  (10) 
2.799915408186277

>  <meeko>  (10) 
{"free_energy": -8.22, "intermolecular_energy": -9.71, "internal_energy": -1.25, "cluster_size": 42, "cluster_id": 1, "rank_in_cluster": 35}

>  <energy>  (10) 
-8.9

>  <cluster_rmsd>  (10) 
1.23

>  <cluster>  (10) 
1

$$$$

     RDKit          3D

 45 48  0  0  0  0  0  0  0  0999 V2000
  134.0960   69.8980  227.1430 O   0  0  0  0  0  0  0  0  0  0  0  0
  134.1620   70.8540  226.3290 C   0  0  0  0  0  0  0  0  0  0  0  0
  134.8670   70.6020  225.0850 N   0  0  0  0  0  0  0  0  0  0  0  0
  135.4100   69.3090  224.9100 C   0  0  0  0  0  0  0  0  0  0  0  0
  136.2200   69.0340  223.7310 C   0  0  0  0  0  0  0  0  0  0  0  0
  135.6310   68.3210  222.8250 O   0  0  0  0  0  0  0  0  0  0  0  0
  137.5430   69.4480  223.4700 N   0  0  0  0  0  0  0  0  0  0  0  0
  138.7030   69.1930  222.6590 C   0  0  0  0  0  0  0  0  0  0  0  0
  139.0490   70.6870  222.8370 C   0  0  0  0  0  0  0  0  0  0  0  0
  138.3380   70.5130  224.1250 C   0  0  2  0  0  0  0  0  0  0  0  0
  139.1180   69.9830  225.2530 C   0  0  0  0  0  0  0  0  0  0  0  0
  138.8600   68.6970  225.6710 C   0  0  0  0  0  0  0  0  0  0  0  0
  139.5690   68.1430  226.7360 C   0  0  0  0  0  0  0  0  0  0  0  0
  140.5450   68.8550  227.4040 C   0  0  0  0  0  0  0  0  0  0  0  0
  141.4330   68.1540  228.7420 Cl  0  0  0  0  0  0  0  0  0  0  0  0
  140.7970   70.1320  226.9840 C   0  0  0  0  0  0  0  0  0  0  0  0
  140.0940   70.6780  225.9300 C   0  0  0  0  0  0  0  0  0  0  0  0
  133.5750   72.1650  226.5780 C   0  0  0  0  0  0  0  0  0  0  0  0
  132.3640   72.1910  227.2370 C   0  0  0  0  0  0  0  0  0  0  0  0
  131.7200   73.3730  227.5240 C   0  0  0  0  0  0  0  0  0  0  0  0
  132.3250   74.5390  227.1330 C   0  0  0  0  0  0  0  0  0  0  0  0
  131.6720   75.7200  227.4250 C   0  0  0  0  0  0  0  0  0  0  0  0
  132.2690   76.9150  227.0360 C   0  0  0  0  0  0  0  0  0  0  0  0
  131.6780   78.1090  227.2940 F   0  0  0  0  0  0  0  0  0  0  0  0
  133.4660   76.8760  226.3850 C   0  0  0  0  0  0  0  0  0  0  0  0
  134.1310   75.6800  226.0860 C   0  0  0  0  0  0  0  0  0  0  0  0
  133.5360   74.4890  226.4760 C   0  0  0  0  0  0  0  0  0  0  0  0
  134.1650   73.3190  226.1940 N   0  0  0  0  0  0  0  0  0  0  0  0
  134.8920   71.4110  224.4410 H   0  0  0  0  0  0  0  0  0  0  0  0
  136.0396   69.1028  225.7882 H   0  0  0  0  0  0  0  0  0  0  0  0
  134.5256   68.6688  224.7760 H   0  0  0  0  0  0  0  0  0  0  0  0
  139.4301   68.4952  223.1000 H   0  0  0  0  0  0  0  0  0  0  0  0
  138.6309   68.7238  221.6667 H   0  0  0  0  0  0  0  0  0  0  0  0
  140.1211   70.9209  222.9136 H   0  0  0  0  0  0  0  0  0  0  0  0
  138.8070   71.4673  222.1004 H   0  0  0  0  0  0  0  0  0  0  0  0
  137.9045   71.3929  224.6229 H   0  0  0  0  0  0  0  0  0  0  0  0
  138.0884   68.1018  225.1607 H   0  0  0  0  0  0  0  0  0  0  0  0
  139.3452   67.1133  227.0517 H   0  0  0  0  0  0  0  0  0  0  0  0
  141.5682   70.7299  227.4918 H   0  0  0  0  0  0  0  0  0  0  0  0
  140.3223   71.7081  225.6189 H   0  0  0  0  0  0  0  0  0  0  0  0
  131.9001   71.2413  227.5416 H   0  0  0  0  0  0  0  0  0  0  0  0
  130.7534   73.3816  228.0489 H   0  0  0  0  0  0  0  0  0  0  0  0
  130.7059   75.7162  227.9510 H   0  0  0  0  0  0  0  0  0  0  0  0
  133.9303   77.8258  226.0810 H   0  0  0  0  0  0  0  0  0  0  0  0
  135.0959   75.6850  225.5579 H   0  0  0  0  0  0  0  0  0  0  0  0
  1  2  2  0
  2  3  1  0
  3  4  1  0
  4  5  1  0
  5  6  2  0
  5  7  1  0
  7  8  1  0
  8  9  1  0
  9 10  1  0
 10 11  1  0
 11 12  2  0
 12 13  1  0
 13 14  2  0
 14 15  1  0
 14 16  1  0
 16 17  2  0
  2 18  1  0
 18 19  2  0
 19 20  1  0
 20 21  2  0
 21 22  1  0
 22 23  2  0
 23 24  1  0
 23 25  1  0
 25 26  2  0
 26 27  1  0
 27 28  2  0
 10  7  1  0
 17 11  1  0
 28 18  1  0
 27 21  1  0
  3 29  1  0
  4 30  1  0
  4 31  1  0
  8 32  1  0
  8 33  1  0
  9 34  1  0
  9 35  1  0
 10 36  1  1
 12 37  1  0
 13 38  1  0
 16 39  1  0
 17 40  1  0
 19 41  1  0
 20 42  1  0
 22 43  1  0
 25 44  1  0
 26 45  1  0
M  END
>  <smiles>  (11) 
O=C(NCC(=O)N1CCC1c1ccc(Cl)cc1)c1ccc2cc(F)ccc2n1

>  <score_type>  (11) 
oracle

>  <origin>  (11) 
autodockgpu

>  <m_score__min__energy>  (11) 
-8.9700000000000006

>  <m_primary>  (11) 
energy

>  <rmsd>  (11) 
8.775086465765513

>  <m_score__min__rmsd>  (11) 
8.775086465765513

>  <meeko>  (11) 
{"free_energy": -7.94, "intermolecular_energy": -9.43, "internal_energy": -1.18, "cluster_size": 2, "cluster_id": 4, "rank_in_cluster": 1}

>  <energy>  (11) 
-8.88

>  <cluster_rmsd>  (11) 
1.25

>  <cluster>  (11) 
1

$$$$

     RDKit          3D

 45 48  0  0  0  0  0  0  0  0999 V2000
  140.2060   71.3760  221.9410 O   0  0  0  0  0  0  0  0  0  0  0  0
  139.4890   71.3680  222.9750 C   0  0  0  0  0  0  0  0  0  0  0  0
  138.3550   72.2740  222.9860 N   0  0  0  0  0  0  0  0  0  0  0  0
  138.1650   73.0750  221.8380 C   0  0  0  0  0  0  0  0  0  0  0  0
  138.9380   74.3010  221.6940 C   0  0  0  0  0  0  0  0  0  0  0  0
  140.2000   74.1780  221.9500 O   0  0  0  0  0  0  0  0  0  0  0  0
  138.4770   75.5790  221.3130 N   0  0  0  0  0  0  0  0  0  0  0  0
  138.2600   76.4510  220.1890 C   0  0  0  0  0  0  0  0  0  0  0  0
  137.1300   77.0970  221.0190 C   0  0  0  0  0  0  0  0  0  0  0  0
  137.9800   76.6870  222.1620 C   0  0  2  0  0  0  0  0  0  0  0  0
  139.0680   77.5990  222.5470 C   0  0  0  0  0  0  0  0  0  0  0  0
  140.3640   77.1680  222.3750 C   0  0  0  0  0  0  0  0  0  0  0  0
  141.4350   77.9900  222.7230 C   0  0  0  0  0  0  0  0  0  0  0  0
  141.2380   79.2520  223.2470 C   0  0  0  0  0  0  0  0  0  0  0  0
  142.5880   80.2810  223.6820 Cl  0  0  0  0  0  0  0  0  0  0  0  0
  139.9490   79.6750  223.4140 C   0  0  0  0  0  0  0  0  0  0  0  0
  138.8900   78.8600  223.0690 C   0  0  0  0  0  0  0  0  0  0  0  0
  139.7450   70.5100  224.1250 C   0  0  0  0  0  0  0  0  0  0  0  0
  139.3780   69.1850  224.0090 C   0  0  0  0  0  0  0  0  0  0  0  0
  139.5740   68.2860  225.0330 C   0  0  0  0  0  0  0  0  0  0  0  0
  140.1510   68.7500  226.1850 C   0  0  0  0  0  0  0  0  0  0  0  0
  140.3440   67.8410  227.2080 C   0  0  0  0  0  0  0  0  0  0  0  0
  140.9290   68.2930  228.3870 C   0  0  0  0  0  0  0  0  0  0  0  0
  141.1450   67.4490  229.4280 F   0  0  0  0  0  0  0  0  0  0  0  0
  141.2860   69.6040  228.4890 C   0  0  0  0  0  0  0  0  0  0  0  0
  141.0930   70.5290  227.4550 C   0  0  0  0  0  0  0  0  0  0  0  0
  140.5100   70.0780  226.2790 C   0  0  0  0  0  0  0  0  0  0  0  0
  140.3130   70.9600  225.2650 N   0  0  0  0  0  0  0  0  0  0  0  0
  137.7870   72.2310  223.8510 H   0  0  0  0  0  0  0  0  0  0  0  0
  138.3937   72.4459  220.9651 H   0  0  0  0  0  0  0  0  0  0  0  0
  137.1275   73.4281  221.9328 H   0  0  0  0  0  0  0  0  0  0  0  0
  139.1011   77.1202  219.9549 H   0  0  0  0  0  0  0  0  0  0  0  0
  138.0915   76.0644  219.1731 H   0  0  0  0  0  0  0  0  0  0  0  0
  137.0028   78.1815  220.8860 H   0  0  0  0  0  0  0  0  0  0  0  0
  136.0660   76.8369  220.9183 H   0  0  0  0  0  0  0  0  0  0  0  0
  137.5210   76.5508  223.1524 H   0  0  0  0  0  0  0  0  0  0  0  0
  140.5561   76.1676  221.9599 H   0  0  0  0  0  0  0  0  0  0  0  0
  142.4620   77.6241  222.5765 H   0  0  0  0  0  0  0  0  0  0  0  0
  139.7537   80.6754  223.8277 H   0  0  0  0  0  0  0  0  0  0  0  0
  137.8655   79.2321  223.2167 H   0  0  0  0  0  0  0  0  0  0  0  0
  138.9163   68.8376  223.0730 H   0  0  0  0  0  0  0  0  0  0  0  0
  139.2775   67.2318  224.9295 H   0  0  0  0  0  0  0  0  0  0  0  0
  140.0434   66.7891  227.0934 H   0  0  0  0  0  0  0  0  0  0  0  0
  141.7465   69.9516  229.4255 H   0  0  0  0  0  0  0  0  0  0  0  0
  141.3942   71.5805  227.5715 H   0  0  0  0  0  0  0  0  0  0  0  0
  1  2  2  0
  2  3  1  0
  3  4  1  0
  4  5  1  0
  5  6  2  0
  5  7  1  0
  7  8  1  0
  8  9  1  0
  9 10  1  0
 10 11  1  0
 11 12  2  0
 12 13  1  0
 13 14  2  0
 14 15  1  0
 14 16  1  0
 16 17  2  0
  2 18  1  0
 18 19  2  0
 19 20  1  0
 20 21  2  0
 21 22  1  0
 22 23  2  0
 23 24  1  0
 23 25  1  0
 25 26  2  0
 26 27  1  0
 27 28  2  0
 10  7  1  0
 17 11  1  0
 28 18  1  0
 27 21  1  0
  3 29  1  0
  4 30  1  0
  4 31  1  0
  8 32  1  0
  8 33  1  0
  9 34  1  0
  9 35  1  0
 10 36  1  1
 12 37  1  0
 13 38  1  0
 16 39  1  0
 17 40  1  0
 19 41  1  0
 20 42  1  0
 22 43  1  0
 25 44  1  0
 26 45  1  0
M  END
>  <smiles>  (12) 
O=C(NCC(=O)N1CCC1c1ccc(Cl)cc1)c1ccc2cc(F)ccc2n1

>  <score_type>  (12) 
oracle

>  <origin>  (12) 
autodockgpu

>  <m_score__min__energy>  (12) 
-8.9700000000000006

>  <m_primary>  (12) 
energy

>  <rmsd>  (12) 
2.4807314168375014

>  <m_score__min__rmsd>  (12) 
2.4807314168375014

>  <meeko>  (12) 
{"free_energy": -8.53, "intermolecular_energy": -10.02, "internal_energy": -0.96, "cluster_size": 42, "cluster_id": 1, "rank_in_cluster": 27}

>  <energy>  (12) 
-8.87

>  <cluster_rmsd>  (12) 
1.15

>  <cluster>  (12) 
1

$$$$

     RDKit          3D

 45 48  0  0  0  0  0  0  0  0999 V2000
  139.2140   70.7890  221.5650 O   0  0  0  0  0  0  0  0  0  0  0  0
  139.4960   71.2980  222.6800 C   0  0  0  0  0  0  0  0  0  0  0  0
  139.6520   72.7410  222.7150 N   0  0  0  0  0  0  0  0  0  0  0  0
  139.4730   73.4320  221.4950 C   0  0  0  0  0  0  0  0  0  0  0  0
  139.9900   74.7880  221.3660 C   0  0  0  0  0  0  0  0  0  0  0  0
  141.2800   74.8720  221.3210 O   0  0  0  0  0  0  0  0  0  0  0  0
  139.2600   75.9920  221.2840 N   0  0  0  0  0  0  0  0  0  0  0  0
  138.7030   76.9560  220.3730 C   0  0  0  0  0  0  0  0  0  0  0  0
  137.6450   77.2450  221.4600 C   0  0  0  0  0  0  0  0  0  0  0  0
  138.7410   76.8500  222.3750 C   0  0  2  0  0  0  0  0  0  0  0  0
  139.7110   77.8920  222.7460 C   0  0  0  0  0  0  0  0  0  0  0  0
  139.2230   79.1130  223.1560 C   0  0  0  0  0  0  0  0  0  0  0  0
  140.0960   80.1370  223.5190 C   0  0  0  0  0  0  0  0  0  0  0  0
  141.4660   79.9680  223.4820 C   0  0  0  0  0  0  0  0  0  0  0  0
  142.5580   81.2600  223.9400 Cl  0  0  0  0  0  0  0  0  0  0  0  0
  141.9440   78.7540  223.0750 C   0  0  0  0  0  0  0  0  0  0  0  0
  141.0790   77.7410  222.7160 C   0  0  0  0  0  0  0  0  0  0  0  0
  139.6650   70.5200  223.9010 C   0  0  0  0  0  0  0  0  0  0  0  0
  139.1820   69.2280  223.8890 C   0  0  0  0  0  0  0  0  0  0  0  0
  139.2890   68.4040  224.9860 C   0  0  0  0  0  0  0  0  0  0  0  0
  139.8950   68.9100  226.1060 C   0  0  0  0  0  0  0  0  0  0  0  0
  139.9970   68.0760  227.2020 C   0  0  0  0  0  0  0  0  0  0  0  0
  140.6100   68.5710  228.3490 C   0  0  0  0  0  0  0  0  0  0  0  0
  140.7410   67.8020  229.4590 F   0  0  0  0  0  0  0  0  0  0  0  0
  141.0820   69.8500  228.3490 C   0  0  0  0  0  0  0  0  0  0  0  0
  140.9810   70.6980  227.2390 C   0  0  0  0  0  0  0  0  0  0  0  0
  140.3700   70.2040  226.0950 C   0  0  0  0  0  0  0  0  0  0  0  0
  140.2620   71.0120  225.0090 N   0  0  0  0  0  0  0  0  0  0  0  0
  139.8760   73.1210  223.6510 H   0  0  0  0  0  0  0  0  0  0  0  0
  139.9526   72.8287  220.7101 H   0  0  0  0  0  0  0  0  0  0  0  0
  138.3827   73.5587  221.4225 H   0  0  0  0  0  0  0  0  0  0  0  0
  139.3642   77.8026  220.1362 H   0  0  0  0  0  0  0  0  0  0  0  0
  138.4244   76.6926  219.3420 H   0  0  0  0  0  0  0  0  0  0  0  0
  137.3153   78.2916  221.5366 H   0  0  0  0  0  0  0  0  0  0  0  0
  136.6391   76.8001  221.4749 H   0  0  0  0  0  0  0  0  0  0  0  0
  138.4940   76.4875  223.3838 H   0  0  0  0  0  0  0  0  0  0  0  0
  138.1367   79.2811  223.1972 H   0  0  0  0  0  0  0  0  0  0  0  0
  139.6834   81.1038  223.8430 H   0  0  0  0  0  0  0  0  0  0  0  0
  143.0298   78.5828  223.0332 H   0  0  0  0  0  0  0  0  0  0  0  0
  141.4981   76.7764  222.3937 H   0  0  0  0  0  0  0  0  0  0  0  0
  138.6982   68.8460  222.9779 H   0  0  0  0  0  0  0  0  0  0  0  0
  138.9015   67.3748  224.9645 H   0  0  0  0  0  0  0  0  0  0  0  0
  139.6046   67.0489  227.1692 H   0  0  0  0  0  0  0  0  0  0  0  0
  141.5634   70.2328  229.2610 H   0  0  0  0  0  0  0  0  0  0  0  0
  141.3742   71.7248  227.2729 H   0  0  0  0  0  0  0  0  0  0  0  0
  1  2  2  0
  2  3  1  0
  3  4  1  0
  4  5  1  0
  5  6  2  0
  5  7  1  0
  7  8  1  0
  8  9  1  0
  9 10  1  0
 10 11  1  0
 11 12  2  0
 12 13  1  0
 13 14  2  0
 14 15  1  0
 14 16  1  0
 16 17  2  0
  2 18  1  0
 18 19  2  0
 19 20  1  0
 20 21  2  0
 21 22  1  0
 22 23  2  0
 23 24  1  0
 23 25  1  0
 25 26  2  0
 26 27  1  0
 27 28  2  0
 10  7  1  0
 17 11  1  0
 28 18  1  0
 27 21  1  0
  3 29  1  0
  4 30  1  0
  4 31  1  0
  8 32  1  0
  8 33  1  0
  9 34  1  0
  9 35  1  0
 10 36  1  1
 12 37  1  0
 13 38  1  0
 16 39  1  0
 17 40  1  0
 19 41  1  0
 20 42  1  0
 22 43  1  0
 25 44  1  0
 26 45  1  0
M  END
>  <smiles>  (13) 
O=C(NCC(=O)N1CCC1c1ccc(Cl)cc1)c1ccc2cc(F)ccc2n1

>  <score_type>  (13) 
oracle

>  <origin>  (13) 
autodockgpu

>  <m_score__min__energy>  (13) 
-8.9700000000000006

>  <m_primary>  (13) 
energy

>  <rmsd>  (13) 
2.80326009359993

>  <m_score__min__rmsd>  (13) 
2.80326009359993

>  <meeko>  (13) 
{"free_energy": -8.54, "intermolecular_energy": -10.03, "internal_energy": -1.26, "cluster_size": 42, "cluster_id": 1, "rank_in_cluster": 26}

>  <energy>  (13) 
-8.84

>  <cluster_rmsd>  (13) 
0.9

>  <cluster>  (13) 
1

$$$$

     RDKit          3D

 45 48  0  0  0  0  0  0  0  0999 V2000
  138.6700   72.4860  222.4200 O   0  0  0  0  0  0  0  0  0  0  0  0
  139.7610   71.9950  222.8080 C   0  0  0  0  0  0  0  0  0  0  0  0
  140.9470   72.3780  222.0620 N   0  0  0  0  0  0  0  0  0  0  0  0
  140.7610   73.2630  220.9760 C   0  0  0  0  0  0  0  0  0  0  0  0
  140.7670   74.6980  221.2210 C   0  0  0  0  0  0  0  0  0  0  0  0
  140.0230   75.0810  222.2090 O   0  0  0  0  0  0  0  0  0  0  0  0
  141.4770   75.6970  220.5220 N   0  0  0  0  0  0  0  0  0  0  0  0
  142.7400   76.0150  219.9120 C   0  0  0  0  0  0  0  0  0  0  0  0
  141.9510   76.9480  218.9680 C   0  0  0  0  0  0  0  0  0  0  0  0
  141.0410   77.0580  220.1330 C   0  0  2  0  0  0  0  0  0  0  0  0
  141.3890   78.0490  221.1620 C   0  0  0  0  0  0  0  0  0  0  0  0
  141.8230   79.2880  220.7470 C   0  0  0  0  0  0  0  0  0  0  0  0
  142.1660   80.2660  221.6790 C   0  0  0  0  0  0  0  0  0  0  0  0
  142.0850   80.0320  223.0370 C   0  0  0  0  0  0  0  0  0  0  0  0
  142.5180   81.2660  224.2030 Cl  0  0  0  0  0  0  0  0  0  0  0  0
  141.6530   78.8000  223.4430 C   0  0  0  0  0  0  0  0  0  0  0  0
  141.3130   77.8330  222.5190 C   0  0  0  0  0  0  0  0  0  0  0  0
  139.8780   71.0870  223.9410 C   0  0  0  0  0  0  0  0  0  0  0  0
  139.3870   69.8090  223.7700 C   0  0  0  0  0  0  0  0  0  0  0  0
  139.4450   68.8690  224.7730 C   0  0  0  0  0  0  0  0  0  0  0  0
  140.0120   69.2430  225.9630 C   0  0  0  0  0  0  0  0  0  0  0  0
  140.0660   68.2930  226.9650 C   0  0  0  0  0  0  0  0  0  0  0  0
  140.6380   68.6540  228.1810 C   0  0  0  0  0  0  0  0  0  0  0  0
  140.7210   67.7660  229.2050 F   0  0  0  0  0  0  0  0  0  0  0  0
  141.1190   69.9190  228.3380 C   0  0  0  0  0  0  0  0  0  0  0  0
  141.0660   70.8850  227.3260 C   0  0  0  0  0  0  0  0  0  0  0  0
  140.4960   70.5250  226.1120 C   0  0  0  0  0  0  0  0  0  0  0  0
  140.4350   71.4490  225.1180 N   0  0  0  0  0  0  0  0  0  0  0  0
  141.8240   71.9580  222.4170 H   0  0  0  0  0  0  0  0  0  0  0  0
  141.5634   73.0570  220.2523 H   0  0  0  0  0  0  0  0  0  0  0  0
  139.7323   73.0582  220.6445 H   0  0  0  0  0  0  0  0  0  0  0  0
  143.4561   76.5255  220.5728 H   0  0  0  0  0  0  0  0  0  0  0  0
  143.4182   75.2367  219.5321 H   0  0  0  0  0  0  0  0  0  0  0  0
  142.4654   77.8757  218.6770 H   0  0  0  0  0  0  0  0  0  0  0  0
  141.6250   76.6679  217.9555 H   0  0  0  0  0  0  0  0  0  0  0  0
  139.9929   77.3501  219.9714 H   0  0  0  0  0  0  0  0  0  0  0  0
  141.8996   79.5077  219.6719 H   0  0  0  0  0  0  0  0  0  0  0  0
  142.5097   81.2486  221.3236 H   0  0  0  0  0  0  0  0  0  0  0  0
  141.5756   78.5772  224.5174 H   0  0  0  0  0  0  0  0  0  0  0  0
  140.9684   76.8530  222.8807 H   0  0  0  0  0  0  0  0  0  0  0  0
  138.9366   69.5340  222.8049 H   0  0  0  0  0  0  0  0  0  0  0  0
  139.0501   67.8531  224.6248 H   0  0  0  0  0  0  0  0  0  0  0  0
  139.6680   67.2799  226.8058 H   0  0  0  0  0  0  0  0  0  0  0  0
  141.5693   70.1937  229.3033 H   0  0  0  0  0  0  0  0  0  0  0  0
  141.4636   71.8978  227.4876 H   0  0  0  0  0  0  0  0  0  0  0  0
  1  2  2  0
  2  3  1  0
  3  4  1  0
  4  5  1  0
  5  6  2  0
  5  7  1  0
  7  8  1  0
  8  9  1  0
  9 10  1  0
 10 11  1  0
 11 12  2  0
 12 13  1  0
 13 14  2  0
 14 15  1  0
 14 16  1  0
 16 17  2  0
  2 18  1  0
 18 19  2  0
 19 20  1  0
 20 21  2  0
 21 22  1  0
 22 23  2  0
 23 24  1  0
 23 25  1  0
 25 26  2  0
 26 27  1  0
 27 28  2  0
 10  7  1  0
 17 11  1  0
 28 18  1  0
 27 21  1  0
  3 29  1  0
  4 30  1  0
  4 31  1  0
  8 32  1  0
  8 33  1  0
  9 34  1  0
  9 35  1  0
 10 36  1  6
 12 37  1  0
 13 38  1  0
 16 39  1  0
 17 40  1  0
 19 41  1  0
 20 42  1  0
 22 43  1  0
 25 44  1  0
 26 45  1  0
M  END
>  <smiles>  (14) 
O=C(NCC(=O)N1CCC1c1ccc(Cl)cc1)c1ccc2cc(F)ccc2n1

>  <score_type>  (14) 
oracle

>  <origin>  (14) 
autodockgpu

>  <m_score__min__energy>  (14) 
-8.9700000000000006

>  <m_primary>  (14) 
energy

>  <rmsd>  (14) 
2.6277381141511476

>  <m_score__min__rmsd>  (14) 
2.6277381141511476

>  <meeko>  (14) 
{"free_energy": -8.92, "intermolecular_energy": -10.41, "internal_energy": -1.05, "cluster_size": 42, "cluster_id": 1, "rank_in_cluster": 7}

>  <energy>  (14) 
-8.83

>  <cluster_rmsd>  (14) 
1.2

>  <cluster>  (14) 
1

$$$$

     RDKit          3D

 45 48  0  0  0  0  0  0  0  0999 V2000
  140.9950   72.7980  222.1030 O   0  0  0  0  0  0  0  0  0  0  0  0
  139.9840   72.4560  222.7680 C   0  0  0  0  0  0  0  0  0  0  0  0
  138.7160   73.0380  222.3690 N   0  0  0  0  0  0  0  0  0  0  0  0
  138.7390   73.9300  221.2730 C   0  0  0  0  0  0  0  0  0  0  0  0
  139.3100   75.2580  221.4530 C   0  0  0  0  0  0  0  0  0  0  0  0
  138.5740   76.0750  222.1360 O   0  0  0  0  0  0  0  0  0  0  0  0
  140.5470   75.7440  220.9790 N   0  0  0  0  0  0  0  0  0  0  0  0
  141.9470   75.4390  220.8550 C   0  0  0  0  0  0  0  0  0  0  0  0
  141.9450   76.3420  219.6030 C   0  0  0  0  0  0  0  0  0  0  0  0
  140.8570   77.0390  220.3290 C   0  0  2  0  0  0  0  0  0  0  0  0
  141.2560   78.0530  221.3170 C   0  0  0  0  0  0  0  0  0  0  0  0
  141.7780   79.2390  220.8520 C   0  0  0  0  0  0  0  0  0  0  0  0
  142.1720   80.2360  221.7430 C   0  0  0  0  0  0  0  0  0  0  0  0
  142.0560   80.0740  223.1090 C   0  0  0  0  0  0  0  0  0  0  0  0
  142.5540   81.3310  224.2240 Cl  0  0  0  0  0  0  0  0  0  0  0  0
  141.5360   78.8940  223.5650 C   0  0  0  0  0  0  0  0  0  0  0  0
  141.1460   77.9080  222.6810 C   0  0  0  0  0  0  0  0  0  0  0  0
  140.0360   71.5260  223.8890 C   0  0  0  0  0  0  0  0  0  0  0  0
  139.5270   70.2620  223.6750 C   0  0  0  0  0  0  0  0  0  0  0  0
  139.5260   69.3040  224.6630 C   0  0  0  0  0  0  0  0  0  0  0  0
  140.0510   69.6450  225.8810 C   0  0  0  0  0  0  0  0  0  0  0  0
  140.0450   68.6770  226.8670 C   0  0  0  0  0  0  0  0  0  0  0  0
  140.5740   69.0050  228.1110 C   0  0  0  0  0  0  0  0  0  0  0  0
  140.5970   68.0980  229.1220 F   0  0  0  0  0  0  0  0  0  0  0  0
  141.0740   70.2570  228.3110 C   0  0  0  0  0  0  0  0  0  0  0  0
  141.0820   71.2400  227.3150 C   0  0  0  0  0  0  0  0  0  0  0  0
  140.5550   70.9140  226.0730 C   0  0  0  0  0  0  0  0  0  0  0  0
  140.5530   71.8550  225.0930 N   0  0  0  0  0  0  0  0  0  0  0  0
  137.9090   72.7250  222.9360 H   0  0  0  0  0  0  0  0  0  0  0  0
  139.3103   73.4399  220.4709 H   0  0  0  0  0  0  0  0  0  0  0  0
  137.6756   74.1261  221.0712 H   0  0  0  0  0  0  0  0  0  0  0  0
  142.5732   75.8009  221.6838 H   0  0  0  0  0  0  0  0  0  0  0  0
  142.3196   74.4044  220.8287 H   0  0  0  0  0  0  0  0  0  0  0  0
  142.8602   76.9299  219.4393 H   0  0  0  0  0  0  0  0  0  0  0  0
  141.8563   75.9666  218.5728 H   0  0  0  0  0  0  0  0  0  0  0  0
  140.1291   77.6377  219.7617 H   0  0  0  0  0  0  0  0  0  0  0  0
  141.8850   79.4011  219.7693 H   0  0  0  0  0  0  0  0  0  0  0  0
  142.5857   81.1754  221.3477 H   0  0  0  0  0  0  0  0  0  0  0  0
  141.4274   78.7290  224.6471 H   0  0  0  0  0  0  0  0  0  0  0  0
  140.7317   76.9712  223.0820 H   0  0  0  0  0  0  0  0  0  0  0  0
  139.1106   70.0130  222.6878 H   0  0  0  0  0  0  0  0  0  0  0  0
  139.1176   68.2990  224.4807 H   0  0  0  0  0  0  0  0  0  0  0  0
  139.6335   67.6753  226.6737 H   0  0  0  0  0  0  0  0  0  0  0  0
  141.4895   70.5057  229.2987 H   0  0  0  0  0  0  0  0  0  0  0  0
  141.4937   72.2411  227.5106 H   0  0  0  0  0  0  0  0  0  0  0  0
  1  2  2  0
  2  3  1  0
  3  4  1  0
  4  5  1  0
  5  6  2  0
  5  7  1  0
  7  8  1  0
  8  9  1  0
  9 10  1  0
 10 11  1  0
 11 12  2  0
 12 13  1  0
 13 14  2  0
 14 15  1  0
 14 16  1  0
 16 17  2  0
  2 18  1  0
 18 19  2  0
 19 20  1  0
 20 21  2  0
 21 22  1  0
 22 23  2  0
 23 24  1  0
 23 25  1  0
 25 26  2  0
 26 27  1  0
 27 28  2  0
 10  7  1  0
 17 11  1  0
 28 18  1  0
 27 21  1  0
  3 29  1  0
  4 30  1  0
  4 31  1  0
  8 32  1  0
  8 33  1  0
  9 34  1  0
  9 35  1  0
 10 36  1  6
 12 37  1  0
 13 38  1  0
 16 39  1  0
 17 40  1  0
 19 41  1  0
 20 42  1  0
 22 43  1  0
 25 44  1  0
 26 45  1  0
M  END
>  <smiles>  (15) 
O=C(NCC(=O)N1CCC1c1ccc(Cl)cc1)c1ccc2cc(F)ccc2n1

>  <score_type>  (15) 
oracle

>  <origin>  (15) 
autodockgpu

>  <m_score__min__energy>  (15) 
-8.9700000000000006

>  <m_primary>  (15) 
energy

>  <rmsd>  (15) 
2.4186446935140595

>  <m_score__min__rmsd>  (15) 
2.4186446935140595

>  <meeko>  (15) 
{"free_energy": -8.97, "intermolecular_energy": -10.46, "internal_energy": -1.12, "cluster_size": 42, "cluster_id": 1, "rank_in_cluster": 1}

>  <energy>  (15) 
-8.81

>  <cluster_rmsd>  (15) 
0.94

>  <cluster>  (15) 
1

$$$$

     RDKit          3D

 45 48  0  0  0  0  0  0  0  0999 V2000
  140.8560   71.8620  221.2470 O   0  0  0  0  0  0  0  0  0  0  0  0
  140.3730   72.3000  222.3220 C   0  0  0  0  0  0  0  0  0  0  0  0
  139.9450   73.6870  222.3240 N   0  0  0  0  0  0  0  0  0  0  0  0
  140.1120   74.4090  221.1210 C   0  0  0  0  0  0  0  0  0  0  0  0
  141.4350   74.9080  220.7710 C   0  0  0  0  0  0  0  0  0  0  0  0
  142.4170   74.1830  221.2020 O   0  0  0  0  0  0  0  0  0  0  0  0
  141.7610   76.0640  220.0310 N   0  0  0  0  0  0  0  0  0  0  0  0
  142.7590   76.6620  219.1860 C   0  0  0  0  0  0  0  0  0  0  0  0
  141.6090   77.4630  218.5390 C   0  0  0  0  0  0  0  0  0  0  0  0
  141.0000   77.3270  219.8820 C   0  0  2  0  0  0  0  0  0  0  0  0
  141.3940   78.3140  220.8990 C   0  0  0  0  0  0  0  0  0  0  0  0
  141.3270   77.9420  222.2230 C   0  0  0  0  0  0  0  0  0  0  0  0
  141.6890   78.8360  223.2280 C   0  0  0  0  0  0  0  0  0  0  0  0
  142.1230   80.1140  222.9390 C   0  0  0  0  0  0  0  0  0  0  0  0
  142.5760   81.2350  224.2070 Cl  0  0  0  0  0  0  0  0  0  0  0  0
  142.1880   80.4780  221.6220 C   0  0  0  0  0  0  0  0  0  0  0  0
  141.8300   79.5910  220.6280 C   0  0  0  0  0  0  0  0  0  0  0  0
  140.2290   71.4940  223.5280 C   0  0  0  0  0  0  0  0  0  0  0  0
  139.5850   70.2820  223.3950 C   0  0  0  0  0  0  0  0  0  0  0  0
  139.3950   69.4400  224.4670 C   0  0  0  0  0  0  0  0  0  0  0  0
  139.8700   69.8460  225.6870 C   0  0  0  0  0  0  0  0  0  0  0  0
  139.6740   68.9950  226.7570 C   0  0  0  0  0  0  0  0  0  0  0  0
  140.1490   69.3890  228.0040 C   0  0  0  0  0  0  0  0  0  0  0  0
  139.9880   68.5970  229.0960 F   0  0  0  0  0  0  0  0  0  0  0  0
  140.7840   70.5890  228.1230 C   0  0  0  0  0  0  0  0  0  0  0  0
  140.9840   71.4540  227.0410 C   0  0  0  0  0  0  0  0  0  0  0  0
  140.5110   71.0610  225.7960 C   0  0  0  0  0  0  0  0  0  0  0  0
  140.6950   71.8880  224.7340 N   0  0  0  0  0  0  0  0  0  0  0  0
  139.5470   74.0060  223.2250 H   0  0  0  0  0  0  0  0  0  0  0  0
  139.7903   73.7486  220.3022 H   0  0  0  0  0  0  0  0  0  0  0  0
  139.5205   75.3228  221.2793 H   0  0  0  0  0  0  0  0  0  0  0  0
  143.5057   77.2724  219.7150 H   0  0  0  0  0  0  0  0  0  0  0  0
  143.4577   76.0573  218.5892 H   0  0  0  0  0  0  0  0  0  0  0  0
  141.8584   78.4893  218.2317 H   0  0  0  0  0  0  0  0  0  0  0  0
  141.1078   77.1748  217.6032 H   0  0  0  0  0  0  0  0  0  0  0  0
  139.9081   77.4088  219.9873 H   0  0  0  0  0  0  0  0  0  0  0  0
  140.9849   76.9310  222.4892 H   0  0  0  0  0  0  0  0  0  0  0  0
  141.6274   78.5154  224.2784 H   0  0  0  0  0  0  0  0  0  0  0  0
  142.5293   81.4885  221.3528 H   0  0  0  0  0  0  0  0  0  0  0  0
  141.8955   79.9166  219.5793 H   0  0  0  0  0  0  0  0  0  0  0  0
  139.2129   69.9798  222.4049 H   0  0  0  0  0  0  0  0  0  0  0  0
  138.8801   68.4752  224.3489 H   0  0  0  0  0  0  0  0  0  0  0  0
  139.1569   68.0328  226.6270 H   0  0  0  0  0  0  0  0  0  0  0  0
  141.1558   70.8911  229.1132 H   0  0  0  0  0  0  0  0  0  0  0  0
  141.5004   72.4163  227.1729 H   0  0  0  0  0  0  0  0  0  0  0  0
  1  2  2  0
  2  3  1  0
  3  4  1  0
  4  5  1  0
  5  6  2  0
  5  7  1  0
  7  8  1  0
  8  9  1  0
  9 10  1  0
 10 11  1  0
 11 12  2  0
 12 13  1  0
 13 14  2  0
 14 15  1  0
 14 16  1  0
 16 17  2  0
  2 18  1  0
 18 19  2  0
 19 20  1  0
 20 21  2  0
 21 22  1  0
 22 23  2  0
 23 24  1  0
 23 25  1  0
 25 26  2  0
 26 27  1  0
 27 28  2  0
 10  7  1  0
 17 11  1  0
 28 18  1  0
 27 21  1  0
  3 29  1  0
  4 30  1  0
  4 31  1  0
  8 32  1  0
  8 33  1  0
  9 34  1  0
  9 35  1  0
 10 36  1  6
 12 37  1  0
 13 38  1  0
 16 39  1  0
 17 40  1  0
 19 41  1  0
 20 42  1  0
 22 43  1  0
 25 44  1  0
 26 45  1  0
M  END
>  <smiles>  (16) 
O=C(NCC(=O)N1CCC1c1ccc(Cl)cc1)c1ccc2cc(F)ccc2n1

>  <score_type>  (16) 
oracle

>  <origin>  (16) 
autodockgpu

>  <m_score__min__energy>  (16) 
-8.9700000000000006

>  <m_primary>  (16) 
energy

>  <rmsd>  (16) 
2.6642355543757668

>  <m_score__min__rmsd>  (16) 
2.6642355543757668

>  <meeko>  (16) 
{"free_energy": -8.81, "intermolecular_energy": -10.3, "internal_energy": -1.13, "cluster_size": 42, "cluster_id": 1, "rank_in_cluster": 16}

>  <energy>  (16) 
-8.81

>  <cluster_rmsd>  (16) 
0.92

>  <cluster>  (16) 
1

$$$$

     RDKit          3D

 45 48  0  0  0  0  0  0  0  0999 V2000
  141.4050   74.0880  220.8160 O   0  0  0  0  0  0  0  0  0  0  0  0
  140.6770   74.8850  221.4600 C   0  0  0  0  0  0  0  0  0  0  0  0
  139.5070   74.3200  222.1070 N   0  0  0  0  0  0  0  0  0  0  0  0
  139.2990   72.9300  221.9510 C   0  0  0  0  0  0  0  0  0  0  0  0
  139.5800   72.0410  223.0700 C   0  0  0  0  0  0  0  0  0  0  0  0
  140.7250   72.2380  223.6420 O   0  0  0  0  0  0  0  0  0  0  0  0
  138.7650   71.0140  223.5900 N   0  0  0  0  0  0  0  0  0  0  0  0
  137.4910   70.7340  224.1970 C   0  0  0  0  0  0  0  0  0  0  0  0
  137.5980   69.3280  223.5700 C   0  0  0  0  0  0  0  0  0  0  0  0
  139.0530   69.5670  223.7250 C   0  0  2  0  0  0  0  0  0  0  0  0
  139.6460   69.2570  225.0340 C   0  0  0  0  0  0  0  0  0  0  0  0
  139.5720   67.9580  225.4870 C   0  0  0  0  0  0  0  0  0  0  0  0
  140.1170   67.6070  226.7200 C   0  0  0  0  0  0  0  0  0  0  0  0
  140.7430   68.5360  227.5260 C   0  0  0  0  0  0  0  0  0  0  0  0
  141.4260   68.0880  229.0760 Cl  0  0  0  0  0  0  0  0  0  0  0  0
  140.8150   69.8230  227.0710 C   0  0  0  0  0  0  0  0  0  0  0  0
  140.2750   70.1700  225.8500 C   0  0  0  0  0  0  0  0  0  0  0  0
  140.9540   76.3110  221.5800 C   0  0  0  0  0  0  0  0  0  0  0  0
  141.5110   76.9320  220.4810 C   0  0  0  0  0  0  0  0  0  0  0  0
  141.8140   78.2750  220.4830 C   0  0  0  0  0  0  0  0  0  0  0  0
  141.5430   78.9860  221.6220 C   0  0  0  0  0  0  0  0  0  0  0  0
  141.8510   80.3330  221.6150 C   0  0  0  0  0  0  0  0  0  0  0  0
  141.5830   81.0730  222.7630 C   0  0  0  0  0  0  0  0  0  0  0  0
  141.8620   82.4010  222.8190 F   0  0  0  0  0  0  0  0  0  0  0  0
  141.0330   80.4480  223.8410 C   0  0  0  0  0  0  0  0  0  0  0  0
  140.7200   79.0840  223.8530 C   0  0  0  0  0  0  0  0  0  0  0  0
  140.9860   78.3450  222.7080 C   0  0  0  0  0  0  0  0  0  0  0  0
  140.6900   77.0190  222.7000 N   0  0  0  0  0  0  0  0  0  0  0  0
  138.9390   75.0070  222.6330 H   0  0  0  0  0  0  0  0  0  0  0  0
  138.2401   72.7907  221.6875 H   0  0  0  0  0  0  0  0  0  0  0  0
  140.0390   72.6376  221.1914 H   0  0  0  0  0  0  0  0  0  0  0  0
  137.4905   70.7499  225.2969 H   0  0  0  0  0  0  0  0  0  0  0  0
  136.6141   71.3791  224.0393 H   0  0  0  0  0  0  0  0  0  0  0  0
  137.1843   68.5059  224.1725 H   0  0  0  0  0  0  0  0  0  0  0  0
  137.1188   69.0374  222.6235 H   0  0  0  0  0  0  0  0  0  0  0  0
  139.7598   69.0137  223.0892 H   0  0  0  0  0  0  0  0  0  0  0  0
  139.0788   67.1922  224.8703 H   0  0  0  0  0  0  0  0  0  0  0  0
  140.0466   66.5631  227.0597 H   0  0  0  0  0  0  0  0  0  0  0  0
  141.3089   70.5903  227.6852 H   0  0  0  0  0  0  0  0  0  0  0  0
  140.3498   71.2154  225.5159 H   0  0  0  0  0  0  0  0  0  0  0  0
  141.7186   76.3380  219.5788 H   0  0  0  0  0  0  0  0  0  0  0  0
  142.2580   78.7599  219.6011 H   0  0  0  0  0  0  0  0  0  0  0  0
  142.2954   80.8070  220.7274 H   0  0  0  0  0  0  0  0  0  0  0  0
  140.8254   81.0423  224.7431 H   0  0  0  0  0  0  0  0  0  0  0  0
  140.2769   78.6119  224.7422 H   0  0  0  0  0  0  0  0  0  0  0  0
  1  2  2  0
  2  3  1  0
  3  4  1  0
  4  5  1  0
  5  6  2  0
  5  7  1  0
  7  8  1  0
  8  9  1  0
  9 10  1  0
 10 11  1  0
 11 12  2  0
 12 13  1  0
 13 14  2  0
 14 15  1  0
 14 16  1  0
 16 17  2  0
  2 18  1  0
 18 19  2  0
 19 20  1  0
 20 21  2  0
 21 22  1  0
 22 23  2  0
 23 24  1  0
 23 25  1  0
 25 26  2  0
 26 27  1  0
 27 28  2  0
 10  7  1  0
 17 11  1  0
 28 18  1  0
 27 21  1  0
  3 29  1  0
  4 30  1  0
  4 31  1  0
  8 32  1  0
  8 33  1  0
  9 34  1  0
  9 35  1  0
 10 36  1  6
 12 37  1  0
 13 38  1  0
 16 39  1  0
 17 40  1  0
 19 41  1  0
 20 42  1  0
 22 43  1  0
 25 44  1  0
 26 45  1  0
M  END
>  <smiles>  (17) 
O=C(NCC(=O)N1CCC1c1ccc(Cl)cc1)c1ccc2cc(F)ccc2n1

>  <score_type>  (17) 
oracle

>  <origin>  (17) 
autodockgpu

>  <m_score__min__energy>  (17) 
-8.9700000000000006

>  <m_primary>  (17) 
energy

>  <rmsd>  (17) 
8.876385817240102

>  <m_score__min__rmsd>  (17) 
8.876385817240102

>  <meeko>  (17) 
{"free_energy": -8.4, "intermolecular_energy": -9.89, "internal_energy": -1.16, "cluster_size": 5, "cluster_id": 2, "rank_in_cluster": 2}

>  <energy>  (17) 
-8.75

>  <cluster_rmsd>  (17) 
0.81

>  <cluster>  (17) 
1

$$$$

     RDKit          3D

 45 48  0  0  0  0  0  0  0  0999 V2000
  139.4400   71.3960  221.0060 O   0  0  0  0  0  0  0  0  0  0  0  0
  139.4090   71.9590  222.1310 C   0  0  0  0  0  0  0  0  0  0  0  0
  139.1030   73.3780  222.1390 N   0  0  0  0  0  0  0  0  0  0  0  0
  138.8700   73.9890  220.8860 C   0  0  0  0  0  0  0  0  0  0  0  0
  139.9700   74.1080  219.9400 C   0  0  0  0  0  0  0  0  0  0  0  0
  139.7170   73.6500  218.7560 O   0  0  0  0  0  0  0  0  0  0  0  0
  141.2520   74.6550  220.1610 N   0  0  0  0  0  0  0  0  0  0  0  0
  142.5090   74.4430  220.8260 C   0  0  0  0  0  0  0  0  0  0  0  0
  143.1490   75.2810  219.6980 C   0  0  0  0  0  0  0  0  0  0  0  0
  141.8190   75.9350  219.6760 C   0  0  2  0  0  0  0  0  0  0  0  0
  141.5930   77.0220  220.6410 C   0  0  0  0  0  0  0  0  0  0  0  0
  141.9880   78.2940  220.2870 C   0  0  0  0  0  0  0  0  0  0  0  0
  141.7980   79.3620  221.1620 C   0  0  0  0  0  0  0  0  0  0  0  0
  141.2140   79.1880  222.4010 C   0  0  0  0  0  0  0  0  0  0  0  0
  140.9780   80.5360  223.4960 Cl  0  0  0  0  0  0  0  0  0  0  0  0
  140.8230   77.9240  222.7460 C   0  0  0  0  0  0  0  0  0  0  0  0
  141.0120   76.8680  221.8790 C   0  0  0  0  0  0  0  0  0  0  0  0
  139.6600   71.2620  223.3860 C   0  0  0  0  0  0  0  0  0  0  0  0
  139.3520   69.9180  223.4260 C   0  0  0  0  0  0  0  0  0  0  0  0
  139.5480   69.1630  224.5600 C   0  0  0  0  0  0  0  0  0  0  0  0
  140.0660   69.7920  225.6620 C   0  0  0  0  0  0  0  0  0  0  0  0
  140.2590   69.0260  226.7950 C   0  0  0  0  0  0  0  0  0  0  0  0
  140.7840   69.6460  227.9250 C   0  0  0  0  0  0  0  0  0  0  0  0
  140.9980   68.9480  229.0700 F   0  0  0  0  0  0  0  0  0  0  0  0
  141.0840   70.9740  227.8730 C   0  0  0  0  0  0  0  0  0  0  0  0
  140.8890   71.7540  226.7270 C   0  0  0  0  0  0  0  0  0  0  0  0
  140.3670   71.1350  225.5990 C   0  0  0  0  0  0  0  0  0  0  0  0
  140.1690   71.8760  224.4770 N   0  0  0  0  0  0  0  0  0  0  0  0
  139.0810   73.8010  223.0840 H   0  0  0  0  0  0  0  0  0  0  0  0
  138.0786   73.4098  220.3879 H   0  0  0  0  0  0  0  0  0  0  0  0
  138.6311   75.0315  221.1429 H   0  0  0  0  0  0  0  0  0  0  0  0
  142.5811   74.8883  221.8293 H   0  0  0  0  0  0  0  0  0  0  0  0
  142.8713   73.4370  221.0842 H   0  0  0  0  0  0  0  0  0  0  0  0
  143.9896   75.9227  220.0006 H   0  0  0  0  0  0  0  0  0  0  0  0
  143.6386   74.8502  218.8122 H   0  0  0  0  0  0  0  0  0  0  0  0
  141.4890   76.4527  218.7633 H   0  0  0  0  0  0  0  0  0  0  0  0
  142.4565   78.4675  219.3070 H   0  0  0  0  0  0  0  0  0  0  0  0
  142.1213   80.3685  220.8580 H   0  0  0  0  0  0  0  0  0  0  0  0
  140.3530   77.7475  223.7248 H   0  0  0  0  0  0  0  0  0  0  0  0
  140.6858   75.8643  222.1890 H   0  0  0  0  0  0  0  0  0  0  0  0
  138.9386   69.4367  222.5274 H   0  0  0  0  0  0  0  0  0  0  0  0
  139.2976   68.0921  224.5811 H   0  0  0  0  0  0  0  0  0  0  0  0
  140.0049   67.9558  226.8040 H   0  0  0  0  0  0  0  0  0  0  0  0
  141.4979   71.4548  228.7716 H   0  0  0  0  0  0  0  0  0  0  0  0
  141.1416   72.8246  226.7203 H   0  0  0  0  0  0  0  0  0  0  0  0
  1  2  2  0
  2  3  1  0
  3  4  1  0
  4  5  1  0
  5  6  2  0
  5  7  1  0
  7  8  1  0
  8  9  1  0
  9 10  1  0
 10 11  1  0
 11 12  2  0
 12 13  1  0
 13 14  2  0
 14 15  1  0
 14 16  1  0
 16 17  2  0
  2 18  1  0
 18 19  2  0
 19 20  1  0
 20 21  2  0
 21 22  1  0
 22 23  2  0
 23 24  1  0
 23 25  1  0
 25 26  2  0
 26 27  1  0
 27 28  2  0
 10  7  1  0
 17 11  1  0
 28 18  1  0
 27 21  1  0
  3 29  1  0
  4 30  1  0
  4 31  1  0
  8 32  1  0
  8 33  1  0
  9 34  1  0
  9 35  1  0
 10 36  1  6
 12 37  1  0
 13 38  1  0
 16 39  1  0
 17 40  1  0
 19 41  1  0
 20 42  1  0
 22 43  1  0
 25 44  1  0
 26 45  1  0
M  END
>  <smiles>  (18) 
O=C(NCC(=O)N1CCC1c1ccc(Cl)cc1)c1ccc2cc(F)ccc2n1

>  <score_type>  (18) 
oracle

>  <origin>  (18) 
autodockgpu

>  <m_score__min__energy>  (18) 
-8.9700000000000006

>  <m_primary>  (18) 
energy

>  <rmsd>  (18) 
2.303643573318692

>  <m_score__min__rmsd>  (18) 
2.303643573318692

>  <meeko>  (18) 
{"free_energy": -7.78, "intermolecular_energy": -9.28, "internal_energy": -1.31, "cluster_size": 42, "cluster_id": 1, "rank_in_cluster": 42}

>  <energy>  (18) 
-8.74

>  <cluster_rmsd>  (18) 
0.81

>  <cluster>  (18) 
1

$$$$

     RDKit          3D

 45 48  0  0  0  0  0  0  0  0999 V2000
  141.1640   72.0480  221.4940 O   0  0  0  0  0  0  0  0  0  0  0  0
  140.3750   72.3060  222.4390 C   0  0  0  0  0  0  0  0  0  0  0  0
  139.5540   73.4940  222.2940 N   0  0  0  0  0  0  0  0  0  0  0  0
  139.7200   74.2450  221.1080 C   0  0  0  0  0  0  0  0  0  0  0  0
  140.7650   75.2580  221.0510 C   0  0  0  0  0  0  0  0  0  0  0  0
  140.8350   76.0210  222.0950 O   0  0  0  0  0  0  0  0  0  0  0  0
  141.6890   75.4970  220.0120 N   0  0  0  0  0  0  0  0  0  0  0  0
  141.8180   75.7110  218.5960 C   0  0  0  0  0  0  0  0  0  0  0  0
  143.0880   76.5250  218.9210 C   0  0  0  0  0  0  0  0  0  0  0  0
  143.1650   75.6020  220.0780 C   0  0  2  0  0  0  0  0  0  0  0  0
  143.8070   74.2980  219.8510 C   0  0  0  0  0  0  0  0  0  0  0  0
  144.4520   74.0940  218.6510 C   0  0  0  0  0  0  0  0  0  0  0  0
  145.0770   72.8780  218.3820 C   0  0  0  0  0  0  0  0  0  0  0  0
  145.0730   71.8430  219.2960 C   0  0  0  0  0  0  0  0  0  0  0  0
  145.8600   70.3170  218.9510 Cl  0  0  0  0  0  0  0  0  0  0  0  0
  144.4310   72.0510  220.4850 C   0  0  0  0  0  0  0  0  0  0  0  0
  143.8130   73.2560  220.7500 C   0  0  0  0  0  0  0  0  0  0  0  0
  140.2560   71.4820  223.6350 C   0  0  0  0  0  0  0  0  0  0  0  0
  139.6660   70.2440  223.4840 C   0  0  0  0  0  0  0  0  0  0  0  0
  139.5030   69.3840  224.5460 C   0  0  0  0  0  0  0  0  0  0  0  0
  139.9490   69.7980  225.7740 C   0  0  0  0  0  0  0  0  0  0  0  0
  139.7810   68.9290  226.8350 C   0  0  0  0  0  0  0  0  0  0  0  0
  140.2270   69.3300  228.0900 C   0  0  0  0  0  0  0  0  0  0  0  0
  140.0910   68.5220  229.1720 F   0  0  0  0  0  0  0  0  0  0  0  0
  140.8080   70.5560  228.2260 C   0  0  0  0  0  0  0  0  0  0  0  0
  140.9800   71.4400  227.1540 C   0  0  0  0  0  0  0  0  0  0  0  0
  140.5360   71.0390  225.9020 C   0  0  0  0  0  0  0  0  0  0  0  0
  140.6930   71.8830  224.8490 N   0  0  0  0  0  0  0  0  0  0  0  0
  138.9140   73.6660  223.0890 H   0  0  0  0  0  0  0  0  0  0  0  0
  139.9225   73.5279  220.2988 H   0  0  0  0  0  0  0  0  0  0  0  0
  138.7882   74.8245  221.0317 H   0  0  0  0  0  0  0  0  0  0  0  0
  141.9929   74.7994  218.0058 H   0  0  0  0  0  0  0  0  0  0  0  0
  140.9980   76.1246  217.9905 H   0  0  0  0  0  0  0  0  0  0  0  0
  143.9063   76.4414  218.1907 H   0  0  0  0  0  0  0  0  0  0  0  0
  143.1123   77.6215  219.0050 H   0  0  0  0  0  0  0  0  0  0  0  0
  143.7249   75.9080  220.9741 H   0  0  0  0  0  0  0  0  0  0  0  0
  144.4738   74.8970  217.8995 H   0  0  0  0  0  0  0  0  0  0  0  0
  145.5865   72.7391  217.4171 H   0  0  0  0  0  0  0  0  0  0  0  0
  144.4068   71.2496  221.2381 H   0  0  0  0  0  0  0  0  0  0  0  0
  143.3057   73.3888  221.7169 H   0  0  0  0  0  0  0  0  0  0  0  0
  139.3163   69.9359  222.4876 H   0  0  0  0  0  0  0  0  0  0  0  0
  139.0314   68.3991  224.4139 H   0  0  0  0  0  0  0  0  0  0  0  0
  139.3074   67.9467  226.6911 H   0  0  0  0  0  0  0  0  0  0  0  0
  141.1572   70.8643  229.2225 H   0  0  0  0  0  0  0  0  0  0  0  0
  141.4527   72.4225  227.2998 H   0  0  0  0  0  0  0  0  0  0  0  0
  1  2  2  0
  2  3  1  0
  3  4  1  0
  4  5  1  0
  5  6  2  0
  5  7  1  0
  7  8  1  0
  8  9  1  0
  9 10  1  0
 10 11  1  0
 11 12  2  0
 12 13  1  0
 13 14  2  0
 14 15  1  0
 14 16  1  0
 16 17  2  0
  2 18  1  0
 18 19  2  0
 19 20  1  0
 20 21  2  0
 21 22  1  0
 22 23  2  0
 23 24  1  0
 23 25  1  0
 25 26  2  0
 26 27  1  0
 27 28  2  0
 10  7  1  0
 17 11  1  0
 28 18  1  0
 27 21  1  0
  3 29  1  0
  4 30  1  0
  4 31  1  0
  8 32  1  0
  8 33  1  0
  9 34  1  0
  9 35  1  0
 10 36  1  1
 12 37  1  0
 13 38  1  0
 16 39  1  0
 17 40  1  0
 19 41  1  0
 20 42  1  0
 22 43  1  0
 25 44  1  0
 26 45  1  0
M  END
>  <smiles>  (19) 
O=C(NCC(=O)N1CCC1c1ccc(Cl)cc1)c1ccc2cc(F)ccc2n1

>  <score_type>  (19) 
oracle

>  <origin>  (19) 
autodockgpu

>  <m_score__min__energy>  (19) 
-8.9700000000000006

>  <m_primary>  (19) 
energy

>  <rmsd>  (19) 
2.1604626411103593

>  <m_score__min__rmsd>  (19) 
2.1604626411103593

>  <meeko>  (19) 
{"free_energy": -8.08, "intermolecular_energy": -9.57, "internal_energy": -1.37, "cluster_size": 1, "cluster_id": 3, "rank_in_cluster": 1}

>  <energy>  (19) 
-8.73

>  <cluster_rmsd>  (19) 
0.94

>  <cluster>  (19) 
1

$$$$

     RDKit          3D

 45 48  0  0  0  0  0  0  0  0999 V2000
  141.0300   72.2940  222.0270 O   0  0  0  0  0  0  0  0  0  0  0  0
  140.0430   72.1050  222.7830 C   0  0  0  0  0  0  0  0  0  0  0  0
  138.8420   72.8640  222.4860 N   0  0  0  0  0  0  0  0  0  0  0  0
  138.8980   73.7400  221.3780 C   0  0  0  0  0  0  0  0  0  0  0  0
  139.5460   75.0360  221.5310 C   0  0  0  0  0  0  0  0  0  0  0  0
  140.7780   74.9810  221.9240 O   0  0  0  0  0  0  0  0  0  0  0  0
  138.9960   76.3150  221.3020 N   0  0  0  0  0  0  0  0  0  0  0  0
  138.6950   77.2870  220.2860 C   0  0  0  0  0  0  0  0  0  0  0  0
  137.5500   77.7650  221.2040 C   0  0  0  0  0  0  0  0  0  0  0  0
  138.4540   77.2900  222.2770 C   0  0  2  0  0  0  0  0  0  0  0  0
  139.4940   78.2230  222.7380 C   0  0  0  0  0  0  0  0  0  0  0  0
  139.0990   79.4690  223.1700 C   0  0  0  0  0  0  0  0  0  0  0  0
  140.0410   80.3940  223.6170 C   0  0  0  0  0  0  0  0  0  0  0  0
  141.3890   80.1000  223.6430 C   0  0  0  0  0  0  0  0  0  0  0  0
  142.5680   81.2660  224.2070 Cl  0  0  0  0  0  0  0  0  0  0  0  0
  141.7750   78.8600  223.2140 C   0  0  0  0  0  0  0  0  0  0  0  0
  140.8410   77.9460  222.7710 C   0  0  0  0  0  0  0  0  0  0  0  0
  140.0570   71.1810  223.9100 C   0  0  0  0  0  0  0  0  0  0  0  0
  139.5120   69.9310  223.7000 C   0  0  0  0  0  0  0  0  0  0  0  0
  139.4730   68.9810  224.6940 C   0  0  0  0  0  0  0  0  0  0  0  0
  139.9990   69.3140  225.9140 C   0  0  0  0  0  0  0  0  0  0  0  0
  139.9560   68.3530  226.9060 C   0  0  0  0  0  0  0  0  0  0  0  0
  140.4850   68.6730  228.1530 C   0  0  0  0  0  0  0  0  0  0  0  0
  140.4720   67.7720  229.1690 F   0  0  0  0  0  0  0  0  0  0  0  0
  141.0200   69.9100  228.3480 C   0  0  0  0  0  0  0  0  0  0  0  0
  141.0660   70.8870  227.3460 C   0  0  0  0  0  0  0  0  0  0  0  0
  140.5390   70.5680  226.1020 C   0  0  0  0  0  0  0  0  0  0  0  0
  140.5740   71.5030  225.1170 N   0  0  0  0  0  0  0  0  0  0  0  0
  138.0520   72.6750  223.1260 H   0  0  0  0  0  0  0  0  0  0  0  0
  139.4277   73.2083  220.5739 H   0  0  0  0  0  0  0  0  0  0  0  0
  137.8442   73.9938  221.1905 H   0  0  0  0  0  0  0  0  0  0  0  0
  139.4863   78.0306  220.1100 H   0  0  0  0  0  0  0  0  0  0  0  0
  138.5234   77.0024  219.2374 H   0  0  0  0  0  0  0  0  0  0  0  0
  137.3521   78.8470  221.1933 H   0  0  0  0  0  0  0  0  0  0  0  0
  136.5018   77.4491  221.0968 H   0  0  0  0  0  0  0  0  0  0  0  0
  138.0308   77.0185  223.2554 H   0  0  0  0  0  0  0  0  0  0  0  0
  138.0321   79.7366  223.1623 H   0  0  0  0  0  0  0  0  0  0  0  0
  139.7013   81.3832  223.9576 H   0  0  0  0  0  0  0  0  0  0  0  0
  142.8409   78.5886  223.2222 H   0  0  0  0  0  0  0  0  0  0  0  0
  141.1867   76.9585  222.4314 H   0  0  0  0  0  0  0  0  0  0  0  0
  139.0973   69.6875  222.7107 H   0  0  0  0  0  0  0  0  0  0  0  0
  139.0345   67.9881  224.5153 H   0  0  0  0  0  0  0  0  0  0  0  0
  139.5161   67.3630  226.7155 H   0  0  0  0  0  0  0  0  0  0  0  0
  141.4348   70.1527  229.3375 H   0  0  0  0  0  0  0  0  0  0  0  0
  141.5061   71.8766  227.5386 H   0  0  0  0  0  0  0  0  0  0  0  0
  1  2  2  0
  2  3  1  0
  3  4  1  0
  4  5  1  0
  5  6  2  0
  5  7  1  0
  7  8  1  0
  8  9  1  0
  9 10  1  0
 10 11  1  0
 11 12  2  0
 12 13  1  0
 13 14  2  0
 14 15  1  0
 14 16  1  0
 16 17  2  0
  2 18  1  0
 18 19  2  0
 19 20  1  0
 20 21  2  0
 21 22  1  0
 22 23  2  0
 23 24  1  0
 23 25  1  0
 25 26  2  0
 26 27  1  0
 27 28  2  0
 10  7  1  0
 17 11  1  0
 28 18  1  0
 27 21  1  0
  3 29  1  0
  4 30  1  0
  4 31  1  0
  8 32  1  0
  8 33  1  0
  9 34  1  0
  9 35  1  0
 10 36  1  1
 12 37  1  0
 13 38  1  0
 16 39  1  0
 17 40  1  0
 19 41  1  0
 20 42  1  0
 22 43  1  0
 25 44  1  0
 26 45  1  0
M  END
>  <smiles>  (20) 
O=C(NCC(=O)N1CCC1c1ccc(Cl)cc1)c1ccc2cc(F)ccc2n1

>  <score_type>  (20) 
oracle

>  <origin>  (20) 
autodockgpu

>  <m_score__min__energy>  (20) 
-8.9700000000000006

>  <m_primary>  (20) 
energy

>  <rmsd>  (20) 
2.9139551752484754

>  <m_score__min__rmsd>  (20) 
2.9139551752484754

>  <meeko>  (20) 
{"free_energy": -8.94, "intermolecular_energy": -10.43, "internal_energy": -0.99, "cluster_size": 42, "cluster_id": 1, "rank_in_cluster": 5}

>  <energy>  (20) 
-8.71

>  <cluster_rmsd>  (20) 
1.22

>  <cluster>  (20) 
1

$$$$

     RDKit          3D

 45 48  0  0  0  0  0  0  0  0999 V2000
  141.0580   72.1990  222.0240 O   0  0  0  0  0  0  0  0  0  0  0  0
  140.0730   72.0390  222.7900 C   0  0  0  0  0  0  0  0  0  0  0  0
  138.8840   72.8150  222.4900 N   0  0  0  0  0  0  0  0  0  0  0  0
  138.9470   73.6730  221.3680 C   0  0  0  0  0  0  0  0  0  0  0  0
  139.5830   74.9750  221.5060 C   0  0  0  0  0  0  0  0  0  0  0  0
  140.8210   74.9340  221.8830 O   0  0  0  0  0  0  0  0  0  0  0  0
  139.0180   76.2480  221.2790 N   0  0  0  0  0  0  0  0  0  0  0  0
  138.6900   77.2110  220.2620 C   0  0  0  0  0  0  0  0  0  0  0  0
  137.5560   77.6840  221.1980 C   0  0  0  0  0  0  0  0  0  0  0  0
  138.4840   77.2230  222.2580 C   0  0  2  0  0  0  0  0  0  0  0  0
  139.5230   78.1690  222.6940 C   0  0  0  0  0  0  0  0  0  0  0  0
  139.1250   79.4210  223.1080 C   0  0  0  0  0  0  0  0  0  0  0  0
  140.0660   80.3570  223.5320 C   0  0  0  0  0  0  0  0  0  0  0  0
  141.4160   80.0690  223.5530 C   0  0  0  0  0  0  0  0  0  0  0  0
  142.5940   81.2510  224.0880 Cl  0  0  0  0  0  0  0  0  0  0  0  0
  141.8050   78.8250  223.1420 C   0  0  0  0  0  0  0  0  0  0  0  0
  140.8720   77.8980  222.7220 C   0  0  0  0  0  0  0  0  0  0  0  0
  140.0800   71.1330  223.9310 C   0  0  0  0  0  0  0  0  0  0  0  0
  139.5300   69.8830  223.7390 C   0  0  0  0  0  0  0  0  0  0  0  0
  139.4840   68.9470  224.7470 C   0  0  0  0  0  0  0  0  0  0  0  0
  140.0070   69.2970  225.9640 C   0  0  0  0  0  0  0  0  0  0  0  0
  139.9560   68.3520  226.9700 C   0  0  0  0  0  0  0  0  0  0  0  0
  140.4820   68.6890  228.2140 C   0  0  0  0  0  0  0  0  0  0  0  0
  140.4630   67.8040  229.2440 F   0  0  0  0  0  0  0  0  0  0  0  0
  141.0230   69.9270  228.3920 C   0  0  0  0  0  0  0  0  0  0  0  0
  141.0760   70.8880  227.3750 C   0  0  0  0  0  0  0  0  0  0  0  0
  140.5520   70.5520  226.1340 C   0  0  0  0  0  0  0  0  0  0  0  0
  140.5940   71.4710  225.1350 N   0  0  0  0  0  0  0  0  0  0  0  0
  138.0950   72.6490  223.1380 H   0  0  0  0  0  0  0  0  0  0  0  0
  139.4901   73.1317  220.5793 H   0  0  0  0  0  0  0  0  0  0  0  0
  137.8937   73.9160  221.1643 H   0  0  0  0  0  0  0  0  0  0  0  0
  139.4709   77.9609  220.0675 H   0  0  0  0  0  0  0  0  0  0  0  0
  138.5029   76.9184  219.2183 H   0  0  0  0  0  0  0  0  0  0  0  0
  137.3479   78.7641  221.1849 H   0  0  0  0  0  0  0  0  0  0  0  0
  136.5090   77.3580  221.1111 H   0  0  0  0  0  0  0  0  0  0  0  0
  138.0811   76.9526  223.2452 H   0  0  0  0  0  0  0  0  0  0  0  0
  138.0568   79.6837  223.1039 H   0  0  0  0  0  0  0  0  0  0  0  0
  139.7246   81.3505  223.8582 H   0  0  0  0  0  0  0  0  0  0  0  0
  142.8725   78.5595  223.1459 H   0  0  0  0  0  0  0  0  0  0  0  0
  141.2198   76.9061  222.3977 H   0  0  0  0  0  0  0  0  0  0  0  0
  139.1164   69.6268  222.7524 H   0  0  0  0  0  0  0  0  0  0  0  0
  139.0429   67.9530  224.5814 H   0  0  0  0  0  0  0  0  0  0  0  0
  139.5123   67.3611  226.7932 H   0  0  0  0  0  0  0  0  0  0  0  0
  141.4365   70.1828  229.3787 H   0  0  0  0  0  0  0  0  0  0  0  0
  141.5192   71.8788  227.5538 H   0  0  0  0  0  0  0  0  0  0  0  0
  1  2  2  0
  2  3  1  0
  3  4  1  0
  4  5  1  0
  5  6  2  0
  5  7  1  0
  7  8  1  0
  8  9  1  0
  9 10  1  0
 10 11  1  0
 11 12  2  0
 12 13  1  0
 13 14  2  0
 14 15  1  0
 14 16  1  0
 16 17  2  0
  2 18  1  0
 18 19  2  0
 19 20  1  0
 20 21  2  0
 21 22  1  0
 22 23  2  0
 23 24  1  0
 23 25  1  0
 25 26  2  0
 26 27  1  0
 27 28  2  0
 10  7  1  0
 17 11  1  0
 28 18  1  0
 27 21  1  0
  3 29  1  0
  4 30  1  0
  4 31  1  0
  8 32  1  0
  8 33  1  0
  9 34  1  0
  9 35  1  0
 10 36  1  1
 12 37  1  0
 13 38  1  0
 16 39  1  0
 17 40  1  0
 19 41  1  0
 20 42  1  0
 22 43  1  0
 25 44  1  0
 26 45  1  0
M  END
>  <smiles>  (21) 
O=C(NCC(=O)N1CCC1c1ccc(Cl)cc1)c1ccc2cc(F)ccc2n1

>  <score_type>  (21) 
oracle

>  <origin>  (21) 
autodockgpu

>  <m_score__min__energy>  (21) 
-8.9700000000000006

>  <m_primary>  (21) 
energy

>  <rmsd>  (21) 
2.8819802574032236

>  <m_score__min__rmsd>  (21) 
2.8819802574032236

>  <meeko>  (21) 
{"free_energy": -8.91, "intermolecular_energy": -10.4, "internal_energy": -1.01, "cluster_size": 42, "cluster_id": 1, "rank_in_cluster": 9}

>  <energy>  (21) 
-8.67

>  <cluster_rmsd>  (21) 
0.99

>  <cluster>  (21) 
1

$$$$

     RDKit          3D

 45 48  0  0  0  0  0  0  0  0999 V2000
  140.8210   72.0000  222.0860 O   0  0  0  0  0  0  0  0  0  0  0  0
  139.9010   71.8720  222.9340 C   0  0  0  0  0  0  0  0  0  0  0  0
  138.7030   72.6620  222.7170 N   0  0  0  0  0  0  0  0  0  0  0  0
  138.6860   73.4970  221.5770 C   0  0  0  0  0  0  0  0  0  0  0  0
  139.3680   74.7830  221.6300 C   0  0  0  0  0  0  0  0  0  0  0  0
  140.6180   74.7180  221.9580 O   0  0  0  0  0  0  0  0  0  0  0  0
  138.8340   76.0620  221.3670 N   0  0  0  0  0  0  0  0  0  0  0  0
  138.5040   76.9940  220.3220 C   0  0  0  0  0  0  0  0  0  0  0  0
  137.4130   77.5380  221.2690 C   0  0  0  0  0  0  0  0  0  0  0  0
  138.3580   77.0920  222.3200 C   0  0  2  0  0  0  0  0  0  0  0  0
  139.4360   78.0220  222.6880 C   0  0  0  0  0  0  0  0  0  0  0  0
  139.0860   79.2920  223.0890 C   0  0  0  0  0  0  0  0  0  0  0  0
  140.0660   80.2150  223.4500 C   0  0  0  0  0  0  0  0  0  0  0  0
  141.4090   79.8950  223.4180 C   0  0  0  0  0  0  0  0  0  0  0  0
  142.6360   81.0600  223.8720 Cl  0  0  0  0  0  0  0  0  0  0  0  0
  141.7500   78.6330  223.0200 C   0  0  0  0  0  0  0  0  0  0  0  0
  140.7790   77.7200  222.6640 C   0  0  0  0  0  0  0  0  0  0  0  0
  139.9880   70.9870  224.0890 C   0  0  0  0  0  0  0  0  0  0  0  0
  139.5110   69.7030  223.9280 C   0  0  0  0  0  0  0  0  0  0  0  0
  139.5440   68.7840  224.9520 C   0  0  0  0  0  0  0  0  0  0  0  0
  140.0720   69.1850  226.1510 C   0  0  0  0  0  0  0  0  0  0  0  0
  140.1020   68.2560  227.1730 C   0  0  0  0  0  0  0  0  0  0  0  0
  140.6340   68.6450  228.3990 C   0  0  0  0  0  0  0  0  0  0  0  0
  140.6910   67.7780  229.4420 F   0  0  0  0  0  0  0  0  0  0  0  0
  141.1020   69.9160  228.5450 C   0  0  0  0  0  0  0  0  0  0  0  0
  141.0740   70.8610  227.5120 C   0  0  0  0  0  0  0  0  0  0  0  0
  140.5440   70.4730  226.2890 C   0  0  0  0  0  0  0  0  0  0  0  0
  140.5070   71.3760  225.2740 N   0  0  0  0  0  0  0  0  0  0  0  0
  137.9680   72.5220  223.4320 H   0  0  0  0  0  0  0  0  0  0  0  0
  139.1393   72.9261  220.7532 H   0  0  0  0  0  0  0  0  0  0  0  0
  137.6255   73.7668  221.4650 H   0  0  0  0  0  0  0  0  0  0  0  0
  139.3004   77.7115  220.0754 H   0  0  0  0  0  0  0  0  0  0  0  0
  138.2773   76.6661  219.2968 H   0  0  0  0  0  0  0  0  0  0  0  0
  137.2361   78.6225  221.2175 H   0  0  0  0  0  0  0  0  0  0  0  0
  136.3548   77.2407  221.2253 H   0  0  0  0  0  0  0  0  0  0  0  0
  137.9767   76.8740  223.3285 H   0  0  0  0  0  0  0  0  0  0  0  0
  138.0250   79.5802  223.1247 H   0  0  0  0  0  0  0  0  0  0  0  0
  139.7622   81.2232  223.7682 H   0  0  0  0  0  0  0  0  0  0  0  0
  142.8102   78.3420  222.9831 H   0  0  0  0  0  0  0  0  0  0  0  0
  141.0895   76.7128  222.3491 H   0  0  0  0  0  0  0  0  0  0  0  0
  139.0929   69.4054  222.9550 H   0  0  0  0  0  0  0  0  0  0  0  0
  139.1597   67.7628  224.8126 H   0  0  0  0  0  0  0  0  0  0  0  0
  139.7161   67.2370  227.0221 H   0  0  0  0  0  0  0  0  0  0  0  0
  141.5206   70.2133  229.5178 H   0  0  0  0  0  0  0  0  0  0  0  0
  141.4601   71.8796  227.6649 H   0  0  0  0  0  0  0  0  0  0  0  0
  1  2  2  0
  2  3  1  0
  3  4  1  0
  4  5  1  0
  5  6  2  0
  5  7  1  0
  7  8  1  0
  8  9  1  0
  9 10  1  0
 10 11  1  0
 11 12  2  0
 12 13  1  0
 13 14  2  0
 14 15  1  0
 14 16  1  0
 16 17  2  0
  2 18  1  0
 18 19  2  0
 19 20  1  0
 20 21  2  0
 21 22  1  0
 22 23  2  0
 23 24  1  0
 23 25  1  0
 25 26  2  0
 26 27  1  0
 27 28  2  0
 10  7  1  0
 17 11  1  0
 28 18  1  0
 27 21  1  0
  3 29  1  0
  4 30  1  0
  4 31  1  0
  8 32  1  0
  8 33  1  0
  9 34  1  0
  9 35  1  0
 10 36  1  1
 12 37  1  0
 13 38  1  0
 16 39  1  0
 17 40  1  0
 19 41  1  0
 20 42  1  0
 22 43  1  0
 25 44  1  0
 26 45  1  0
M  END
>  <smiles>  (22) 
O=C(NCC(=O)N1CCC1c1ccc(Cl)cc1)c1ccc2cc(F)ccc2n1

>  <score_type>  (22) 
oracle

>  <origin>  (22) 
autodockgpu

>  <m_score__min__energy>  (22) 
-8.9700000000000006

>  <m_primary>  (22) 
energy

>  <rmsd>  (22) 
2.866491800035934

>  <m_score__min__rmsd>  (22) 
2.866491800035934

>  <meeko>  (22) 
{"free_energy": -8.92, "intermolecular_energy": -10.41, "internal_energy": -1.0, "cluster_size": 42, "cluster_id": 1, "rank_in_cluster": 8}

>  <energy>  (22) 
-8.66

>  <cluster_rmsd>  (22) 
0.85

>  <cluster>  (22) 
1

$$$$

     RDKit          3D

 45 48  0  0  0  0  0  0  0  0999 V2000
  138.7370   72.5500  222.3720 O   0  0  0  0  0  0  0  0  0  0  0  0
  139.8130   72.0460  222.7840 C   0  0  0  0  0  0  0  0  0  0  0  0
  141.0190   72.4110  222.0640 N   0  0  0  0  0  0  0  0  0  0  0  0
  140.8690   73.2940  220.9710 C   0  0  0  0  0  0  0  0  0  0  0  0
  140.8220   74.7280  221.2190 C   0  0  0  0  0  0  0  0  0  0  0  0
  140.0930   75.0780  222.2300 O   0  0  0  0  0  0  0  0  0  0  0  0
  141.4680   75.7570  220.5010 N   0  0  0  0  0  0  0  0  0  0  0  0
  142.6870   76.1180  219.8300 C   0  0  0  0  0  0  0  0  0  0  0  0
  141.8240   77.0460  218.9470 C   0  0  0  0  0  0  0  0  0  0  0  0
  140.9760   77.1120  220.1600 C   0  0  2  0  0  0  0  0  0  0  0  0
  141.3530   78.0950  221.1870 C   0  0  0  0  0  0  0  0  0  0  0  0
  141.8280   79.3180  220.7690 C   0  0  0  0  0  0  0  0  0  0  0  0
  142.2000   80.2880  221.6980 C   0  0  0  0  0  0  0  0  0  0  0  0
  142.1100   80.0610  223.0570 C   0  0  0  0  0  0  0  0  0  0  0  0
  142.5800   81.2840  224.2200 Cl  0  0  0  0  0  0  0  0  0  0  0  0
  141.6380   78.8450  223.4660 C   0  0  0  0  0  0  0  0  0  0  0  0
  141.2690   77.8860  222.5450 C   0  0  0  0  0  0  0  0  0  0  0  0
  139.8930   71.1400  223.9230 C   0  0  0  0  0  0  0  0  0  0  0  0
  139.3600   69.8790  223.7560 C   0  0  0  0  0  0  0  0  0  0  0  0
  139.3810   68.9430  224.7640 C   0  0  0  0  0  0  0  0  0  0  0  0
  139.9540   69.3040  225.9550 C   0  0  0  0  0  0  0  0  0  0  0  0
  139.9710   68.3580  226.9620 C   0  0  0  0  0  0  0  0  0  0  0  0
  140.5490   68.7050  228.1790 C   0  0  0  0  0  0  0  0  0  0  0  0
  140.5960   67.8210  229.2080 F   0  0  0  0  0  0  0  0  0  0  0  0
  141.0720   69.9540  228.3330 C   0  0  0  0  0  0  0  0  0  0  0  0
  141.0570   70.9160  227.3150 C   0  0  0  0  0  0  0  0  0  0  0  0
  140.4810   70.5690  226.1000 C   0  0  0  0  0  0  0  0  0  0  0  0
  140.4560   71.4890  225.1010 N   0  0  0  0  0  0  0  0  0  0  0  0
  141.8830   71.9810  222.4390 H   0  0  0  0  0  0  0  0  0  0  0  0
  141.7155   73.1125  220.2924 H   0  0  0  0  0  0  0  0  0  0  0  0
  139.8664   73.0622  220.5824 H   0  0  0  0  0  0  0  0  0  0  0  0
  143.4249   76.6359  220.4604 H   0  0  0  0  0  0  0  0  0  0  0  0
  143.3630   75.3643  219.4000 H   0  0  0  0  0  0  0  0  0  0  0  0
  142.2980   77.9919  218.6460 H   0  0  0  0  0  0  0  0  0  0  0  0
  141.4510   76.7745  217.9484 H   0  0  0  0  0  0  0  0  0  0  0  0
  139.9134   77.3783  220.0596 H   0  0  0  0  0  0  0  0  0  0  0  0
  141.9145   79.5311  219.6933 H   0  0  0  0  0  0  0  0  0  0  0  0
  142.5745   81.2583  221.3398 H   0  0  0  0  0  0  0  0  0  0  0  0
  141.5514   78.6286  224.5410 H   0  0  0  0  0  0  0  0  0  0  0  0
  140.8937   76.9184  222.9096 H   0  0  0  0  0  0  0  0  0  0  0  0
  138.9054   69.6143  222.7899 H   0  0  0  0  0  0  0  0  0  0  0  0
  138.9529   67.9402  224.6189 H   0  0  0  0  0  0  0  0  0  0  0  0
  139.5395   67.3583  226.8058 H   0  0  0  0  0  0  0  0  0  0  0  0
  141.5260   70.2183  229.2994 H   0  0  0  0  0  0  0  0  0  0  0  0
  141.4882   71.9155  227.4731 H   0  0  0  0  0  0  0  0  0  0  0  0
  1  2  2  0
  2  3  1  0
  3  4  1  0
  4  5  1  0
  5  6  2  0
  5  7  1  0
  7  8  1  0
  8  9  1  0
  9 10  1  0
 10 11  1  0
 11 12  2  0
 12 13  1  0
 13 14  2  0
 14 15  1  0
 14 16  1  0
 16 17  2  0
  2 18  1  0
 18 19  2  0
 19 20  1  0
 20 21  2  0
 21 22  1  0
 22 23  2  0
 23 24  1  0
 23 25  1  0
 25 26  2  0
 26 27  1  0
 27 28  2  0
 10  7  1  0
 17 11  1  0
 28 18  1  0
 27 21  1  0
  3 29  1  0
  4 30  1  0
  4 31  1  0
  8 32  1  0
  8 33  1  0
  9 34  1  0
  9 35  1  0
 10 36  1  6
 12 37  1  0
 13 38  1  0
 16 39  1  0
 17 40  1  0
 19 41  1  0
 20 42  1  0
 22 43  1  0
 25 44  1  0
 26 45  1  0
M  END
>  <smiles>  (23) 
O=C(NCC(=O)N1CCC1c1ccc(Cl)cc1)c1ccc2cc(F)ccc2n1

>  <score_type>  (23) 
oracle

>  <origin>  (23) 
autodockgpu

>  <m_score__min__energy>  (23) 
-8.9700000000000006

>  <m_primary>  (23) 
energy

>  <rmsd>  (23) 
2.643834761978192

>  <m_score__min__rmsd>  (23) 
2.643834761978192

>  <meeko>  (23) 
{"free_energy": -8.95, "intermolecular_energy": -10.44, "internal_energy": -1.05, "cluster_size": 42, "cluster_id": 1, "rank_in_cluster": 3}

>  <energy>  (23) 
-8.65

>  <cluster_rmsd>  (23) 
1.09

>  <cluster>  (23) 
1

$$$$

     RDKit          3D

 45 48  0  0  0  0  0  0  0  0999 V2000
  140.2640   71.0070  221.6050 O   0  0  0  0  0  0  0  0  0  0  0  0
  140.0550   71.6580  222.6610 C   0  0  0  0  0  0  0  0  0  0  0  0
  139.6720   73.0490  222.5010 N   0  0  0  0  0  0  0  0  0  0  0  0
  139.5700   73.5360  221.1780 C   0  0  0  0  0  0  0  0  0  0  0  0
  139.9070   74.9270  220.9070 C   0  0  0  0  0  0  0  0  0  0  0  0
  141.0950   75.1110  220.4270 O   0  0  0  0  0  0  0  0  0  0  0  0
  139.1030   76.0700  221.1000 N   0  0  0  0  0  0  0  0  0  0  0  0
  138.3470   77.0900  220.4240 C   0  0  0  0  0  0  0  0  0  0  0  0
  137.4690   77.1580  221.6910 C   0  0  0  0  0  0  0  0  0  0  0  0
  138.7220   76.7440  222.3640 C   0  0  2  0  0  0  0  0  0  0  0  0
  139.6760   77.8080  222.7140 C   0  0  0  0  0  0  0  0  0  0  0  0
  139.1710   79.0140  223.1440 C   0  0  0  0  0  0  0  0  0  0  0  0
  140.0280   80.0580  223.4890 C   0  0  0  0  0  0  0  0  0  0  0  0
  141.4000   79.9230  223.4130 C   0  0  0  0  0  0  0  0  0  0  0  0
  142.4720   81.2390  223.8480 Cl  0  0  0  0  0  0  0  0  0  0  0  0
  141.8960   78.7230  222.9850 C   0  0  0  0  0  0  0  0  0  0  0  0
  141.0460   77.6910  222.6440 C   0  0  0  0  0  0  0  0  0  0  0  0
  140.1790   71.0880  223.9960 C   0  0  0  0  0  0  0  0  0  0  0  0
  140.7040   71.9030  224.9770 C   0  0  0  0  0  0  0  0  0  0  0  0
  140.8650   71.4680  226.2720 C   0  0  0  0  0  0  0  0  0  0  0  0
  140.4840   70.1840  226.5640 C   0  0  0  0  0  0  0  0  0  0  0  0
  140.6500   69.7550  227.8670 C   0  0  0  0  0  0  0  0  0  0  0  0
  140.2700   68.4550  228.1830 C   0  0  0  0  0  0  0  0  0  0  0  0
  140.4070   67.9740  229.4460 F   0  0  0  0  0  0  0  0  0  0  0  0
  139.7530   67.6590  227.2060 C   0  0  0  0  0  0  0  0  0  0  0  0
  139.5840   68.0890  225.8840 C   0  0  0  0  0  0  0  0  0  0  0  0
  139.9620   69.3870  225.5680 C   0  0  0  0  0  0  0  0  0  0  0  0
  139.8060   69.8230  224.2910 N   0  0  0  0  0  0  0  0  0  0  0  0
  139.5020   73.5470  223.3930 H   0  0  0  0  0  0  0  0  0  0  0  0
  140.2327   72.9171  220.5553 H   0  0  0  0  0  0  0  0  0  0  0  0
  138.4934   73.4793  220.9595 H   0  0  0  0  0  0  0  0  0  0  0  0
  138.9084   78.0095  220.2018 H   0  0  0  0  0  0  0  0  0  0  0  0
  137.9180   76.9330  219.4233 H   0  0  0  0  0  0  0  0  0  0  0  0
  137.0945   78.1576  221.9568 H   0  0  0  0  0  0  0  0  0  0  0  0
  136.5080   76.6346  221.8030 H   0  0  0  0  0  0  0  0  0  0  0  0
  138.6675   76.2429  223.3417 H   0  0  0  0  0  0  0  0  0  0  0  0
  138.0825   79.1552  223.2160 H   0  0  0  0  0  0  0  0  0  0  0  0
  139.6008   81.0125  223.8301 H   0  0  0  0  0  0  0  0  0  0  0  0
  142.9840   78.5788  222.9117 H   0  0  0  0  0  0  0  0  0  0  0  0
  141.4792   76.7390  222.3034 H   0  0  0  0  0  0  0  0  0  0  0  0
  141.0022   72.9293  224.7166 H   0  0  0  0  0  0  0  0  0  0  0  0
  141.2847   72.1273  227.0460 H   0  0  0  0  0  0  0  0  0  0  0  0
  141.0709   70.4230  228.6329 H   0  0  0  0  0  0  0  0  0  0  0  0
  139.4550   66.6328  227.4670 H   0  0  0  0  0  0  0  0  0  0  0  0
  139.1645   67.4188  225.1193 H   0  0  0  0  0  0  0  0  0  0  0  0
  1  2  2  0
  2  3  1  0
  3  4  1  0
  4  5  1  0
  5  6  2  0
  5  7  1  0
  7  8  1  0
  8  9  1  0
  9 10  1  0
 10 11  1  0
 11 12  2  0
 12 13  1  0
 13 14  2  0
 14 15  1  0
 14 16  1  0
 16 17  2  0
  2 18  1  0
 18 19  2  0
 19 20  1  0
 20 21  2  0
 21 22  1  0
 22 23  2  0
 23 24  1  0
 23 25  1  0
 25 26  2  0
 26 27  1  0
 27 28  2  0
 10  7  1  0
 17 11  1  0
 28 18  1  0
 27 21  1  0
  3 29  1  0
  4 30  1  0
  4 31  1  0
  8 32  1  0
  8 33  1  0
  9 34  1  0
  9 35  1  0
 10 36  1  1
 12 37  1  0
 13 38  1  0
 16 39  1  0
 17 40  1  0
 19 41  1  0
 20 42  1  0
 22 43  1  0
 25 44  1  0
 26 45  1  0
M  END
>  <smiles>  (24) 
O=C(NCC(=O)N1CCC1c1ccc(Cl)cc1)c1ccc2cc(F)ccc2n1

>  <score_type>  (24) 
oracle

>  <origin>  (24) 
autodockgpu

>  <m_score__min__energy>  (24) 
-8.9700000000000006

>  <m_primary>  (24) 
energy

>  <rmsd>  (24) 
3.6133425103884123

>  <m_score__min__rmsd>  (24) 
3.6133425103884123

>  <meeko>  (24) 
{"free_energy": -8.45, "intermolecular_energy": -9.94, "internal_energy": -1.03, "cluster_size": 42, "cluster_id": 1, "rank_in_cluster": 29}

>  <energy>  (24) 
-8.64

>  <cluster_rmsd>  (24) 
0.53

>  <cluster>  (24) 
1

$$$$

     RDKit          3D

 45 48  0  0  0  0  0  0  0  0999 V2000
  141.3840   74.0450  220.7950 O   0  0  0  0  0  0  0  0  0  0  0  0
  140.6770   74.8500  221.4550 C   0  0  0  0  0  0  0  0  0  0  0  0
  139.5150   74.2960  222.1240 N   0  0  0  0  0  0  0  0  0  0  0  0
  139.2900   72.9090  221.9720 C   0  0  0  0  0  0  0  0  0  0  0  0
  139.5820   72.0170  223.0850 C   0  0  0  0  0  0  0  0  0  0  0  0
  140.7180   72.2320  223.6660 O   0  0  0  0  0  0  0  0  0  0  0  0
  138.7840   70.9690  223.5910 N   0  0  0  0  0  0  0  0  0  0  0  0
  137.5110   70.6570  224.1830 C   0  0  0  0  0  0  0  0  0  0  0  0
  137.6560   69.2570  223.5490 C   0  0  0  0  0  0  0  0  0  0  0  0
  139.1030   69.5280  223.7200 C   0  0  2  0  0  0  0  0  0  0  0  0
  139.6890   69.2230  225.0340 C   0  0  0  0  0  0  0  0  0  0  0  0
  139.6040   67.9280  225.4970 C   0  0  0  0  0  0  0  0  0  0  0  0
  140.1420   67.5830  226.7350 C   0  0  0  0  0  0  0  0  0  0  0  0
  140.7730   68.5130  227.5350 C   0  0  0  0  0  0  0  0  0  0  0  0
  141.4480   68.0720  229.0910 Cl  0  0  0  0  0  0  0  0  0  0  0  0
  140.8560   69.7960  227.0710 C   0  0  0  0  0  0  0  0  0  0  0  0
  140.3230   70.1370  225.8440 C   0  0  0  0  0  0  0  0  0  0  0  0
  140.9720   76.2730  221.5690 C   0  0  0  0  0  0  0  0  0  0  0  0
  141.5000   76.8920  220.4550 C   0  0  0  0  0  0  0  0  0  0  0  0
  141.8160   78.2320  220.4520 C   0  0  0  0  0  0  0  0  0  0  0  0
  141.5870   78.9420  221.6010 C   0  0  0  0  0  0  0  0  0  0  0  0
  141.9070   80.2860  221.5880 C   0  0  0  0  0  0  0  0  0  0  0  0
  141.6830   81.0250  222.7450 C   0  0  0  0  0  0  0  0  0  0  0  0
  141.9760   82.3500  222.7960 F   0  0  0  0  0  0  0  0  0  0  0  0
  141.1610   80.4020  223.8390 C   0  0  0  0  0  0  0  0  0  0  0  0
  140.8360   79.0410  223.8560 C   0  0  0  0  0  0  0  0  0  0  0  0
  141.0590   78.3030  222.7010 C   0  0  0  0  0  0  0  0  0  0  0  0
  140.7500   76.9800  222.6990 N   0  0  0  0  0  0  0  0  0  0  0  0
  138.9650   74.9890  222.6610 H   0  0  0  0  0  0  0  0  0  0  0  0
  138.2251   72.7808  221.7279 H   0  0  0  0  0  0  0  0  0  0  0  0
  140.0131   72.6093  221.1992 H   0  0  0  0  0  0  0  0  0  0  0  0
  137.4990   70.6664  225.2829 H   0  0  0  0  0  0  0  0  0  0  0  0
  136.6214   71.2831  224.0198 H   0  0  0  0  0  0  0  0  0  0  0  0
  137.2551   68.4222  224.1427 H   0  0  0  0  0  0  0  0  0  0  0  0
  137.1929   68.9612  222.5961 H   0  0  0  0  0  0  0  0  0  0  0  0
  139.8286   68.9952  223.0879 H   0  0  0  0  0  0  0  0  0  0  0  0
  139.1077   67.1608  224.8846 H   0  0  0  0  0  0  0  0  0  0  0  0
  140.0616   66.5427  227.0833 H   0  0  0  0  0  0  0  0  0  0  0  0
  141.3525   70.5646  227.6814 H   0  0  0  0  0  0  0  0  0  0  0  0
  140.4083   71.1786  225.5009 H   0  0  0  0  0  0  0  0  0  0  0  0
  141.6732   76.2991  219.5448 H   0  0  0  0  0  0  0  0  0  0  0  0
  142.2375   78.7155  219.5584 H   0  0  0  0  0  0  0  0  0  0  0  0
  142.3272   80.7585  220.6879 H   0  0  0  0  0  0  0  0  0  0  0  0
  140.9875   80.9953  224.7489 H   0  0  0  0  0  0  0  0  0  0  0  0
  140.4165   78.5699  224.7572 H   0  0  0  0  0  0  0  0  0  0  0  0
  1  2  2  0
  2  3  1  0
  3  4  1  0
  4  5  1  0
  5  6  2  0
  5  7  1  0
  7  8  1  0
  8  9  1  0
  9 10  1  0
 10 11  1  0
 11 12  2  0
 12 13  1  0
 13 14  2  0
 14 15  1  0
 14 16  1  0
 16 17  2  0
  2 18  1  0
 18 19  2  0
 19 20  1  0
 20 21  2  0
 21 22  1  0
 22 23  2  0
 23 24  1  0
 23 25  1  0
 25 26  2  0
 26 27  1  0
 27 28  2  0
 10  7  1  0
 17 11  1  0
 28 18  1  0
 27 21  1  0
  3 29  1  0
  4 30  1  0
  4 31  1  0
  8 32  1  0
  8 33  1  0
  9 34  1  0
  9 35  1  0
 10 36  1  6
 12 37  1  0
 13 38  1  0
 16 39  1  0
 17 40  1  0
 19 41  1  0
 20 42  1  0
 22 43  1  0
 25 44  1  0
 26 45  1  0
M  END
>  <smiles>  (25) 
O=C(NCC(=O)N1CCC1c1ccc(Cl)cc1)c1ccc2cc(F)ccc2n1

>  <score_type>  (25) 
oracle

>  <origin>  (25) 
autodockgpu

>  <m_score__min__energy>  (25) 
-8.9700000000000006

>  <m_primary>  (25) 
energy

>  <rmsd>  (25) 
8.867398880267627

>  <m_score__min__rmsd>  (25) 
8.867398880267627

>  <meeko>  (25) 
{"free_energy": -8.43, "intermolecular_energy": -9.93, "internal_energy": -1.16, "cluster_size": 5, "cluster_id": 2, "rank_in_cluster": 1}

>  <energy>  (25) 
-8.58

>  <cluster_rmsd>  (25) 
0.95

>  <cluster>  (25) 
1

$$$$

     RDKit          3D

 45 48  0  0  0  0  0  0  0  0999 V2000
  138.6110   72.6200  222.4120 O   0  0  0  0  0  0  0  0  0  0  0  0
  139.6800   72.0640  222.7730 C   0  0  0  0  0  0  0  0  0  0  0  0
  140.8570   72.3330  221.9670 N   0  0  0  0  0  0  0  0  0  0  0  0
  140.6890   73.1910  220.8570 C   0  0  0  0  0  0  0  0  0  0  0  0
  140.7690   74.6320  221.0560 C   0  0  0  0  0  0  0  0  0  0  0  0
  141.9720   75.0980  221.1510 O   0  0  0  0  0  0  0  0  0  0  0  0
  139.7080   75.5560  221.1530 N   0  0  0  0  0  0  0  0  0  0  0  0
  138.7800   76.3480  220.3900 C   0  0  0  0  0  0  0  0  0  0  0  0
  137.8270   76.2410  221.5990 C   0  0  0  0  0  0  0  0  0  0  0  0
  139.0950   76.1550  222.3610 C   0  0  2  0  0  0  0  0  0  0  0  0
  139.7450   77.4240  222.7210 C   0  0  0  0  0  0  0  0  0  0  0  0
  141.1220   77.4640  222.7360 C   0  0  0  0  0  0  0  0  0  0  0  0
  141.7920   78.6400  223.0690 C   0  0  0  0  0  0  0  0  0  0  0  0
  141.1090   79.7950  223.3940 C   0  0  0  0  0  0  0  0  0  0  0  0
  141.9580   81.2700  223.8120 Cl  0  0  0  0  0  0  0  0  0  0  0  0
  139.7430   79.7500  223.3770 C   0  0  0  0  0  0  0  0  0  0  0  0
  139.0810   78.5850  223.0460 C   0  0  0  0  0  0  0  0  0  0  0  0
  139.7790   71.1890  223.9340 C   0  0  0  0  0  0  0  0  0  0  0  0
  139.2240   69.9310  223.8160 C   0  0  0  0  0  0  0  0  0  0  0  0
  139.2600   69.0230  224.8500 C   0  0  0  0  0  0  0  0  0  0  0  0
  139.8720   69.4080  226.0140 C   0  0  0  0  0  0  0  0  0  0  0  0
  139.9030   68.4900  227.0460 C   0  0  0  0  0  0  0  0  0  0  0  0
  140.5190   68.8620  228.2370 C   0  0  0  0  0  0  0  0  0  0  0  0
  140.5830   68.0050  229.2880 F   0  0  0  0  0  0  0  0  0  0  0  0
  141.0630   70.1070  228.3410 C   0  0  0  0  0  0  0  0  0  0  0  0
  141.0330   71.0400  227.2980 C   0  0  0  0  0  0  0  0  0  0  0  0
  140.4200   70.6690  226.1090 C   0  0  0  0  0  0  0  0  0  0  0  0
  140.3800   71.5610  225.0860 N   0  0  0  0  0  0  0  0  0  0  0  0
  141.7160   71.8630  222.3020 H   0  0  0  0  0  0  0  0  0  0  0  0
  141.4642   72.9240  220.1237 H   0  0  0  0  0  0  0  0  0  0  0  0
  139.6448   73.0257  220.5532 H   0  0  0  0  0  0  0  0  0  0  0  0
  139.1229   77.3680  220.1617 H   0  0  0  0  0  0  0  0  0  0  0  0
  138.4685   76.0654  219.3736 H   0  0  0  0  0  0  0  0  0  0  0  0
  137.2112   77.1302  221.7993 H   0  0  0  0  0  0  0  0  0  0  0  0
  137.0104   75.5082  221.6769 H   0  0  0  0  0  0  0  0  0  0  0  0
  139.0948   75.6821  223.3542 H   0  0  0  0  0  0  0  0  0  0  0  0
  141.6971   76.5610  222.4832 H   0  0  0  0  0  0  0  0  0  0  0  0
  142.8920   78.6481  223.0730 H   0  0  0  0  0  0  0  0  0  0  0  0
  139.1654   80.6514  223.6297 H   0  0  0  0  0  0  0  0  0  0  0  0
  137.9810   78.5844  223.0418 H   0  0  0  0  0  0  0  0  0  0  0  0
  138.7398   69.6462  222.8702 H   0  0  0  0  0  0  0  0  0  0  0  0
  138.8131   68.0233  224.7455 H   0  0  0  0  0  0  0  0  0  0  0  0
  139.4533   67.4929  226.9295 H   0  0  0  0  0  0  0  0  0  0  0  0
  141.5473   70.3915  229.2868 H   0  0  0  0  0  0  0  0  0  0  0  0
  141.4817   72.0373  227.4169 H   0  0  0  0  0  0  0  0  0  0  0  0
  1  2  2  0
  2  3  1  0
  3  4  1  0
  4  5  1  0
  5  6  2  0
  5  7  1  0
  7  8  1  0
  8  9  1  0
  9 10  1  0
 10 11  1  0
 11 12  2  0
 12 13  1  0
 13 14  2  0
 14 15  1  0
 14 16  1  0
 16 17  2  0
  2 18  1  0
 18 19  2  0
 19 20  1  0
 20 21  2  0
 21 22  1  0
 22 23  2  0
 23 24  1  0
 23 25  1  0
 25 26  2  0
 26 27  1  0
 27 28  2  0
 10  7  1  0
 17 11  1  0
 28 18  1  0
 27 21  1  0
  3 29  1  0
  4 30  1  0
  4 31  1  0
  8 32  1  0
  8 33  1  0
  9 34  1  0
  9 35  1  0
 10 36  1  1
 12 37  1  0
 13 38  1  0
 16 39  1  0
 17 40  1  0
 19 41  1  0
 20 42  1  0
 22 43  1  0
 25 44  1  0
 26 45  1  0
M  END
>  <smiles>  (26) 
O=C(NCC(=O)N1CCC1c1ccc(Cl)cc1)c1ccc2cc(F)ccc2n1

>  <score_type>  (26) 
oracle

>  <origin>  (26) 
autodockgpu

>  <m_score__min__energy>  (26) 
-8.9700000000000006

>  <m_primary>  (26) 
energy

>  <rmsd>  (26) 
2.6846985563562513

>  <m_score__min__rmsd>  (26) 
2.6846985563562513

>  <meeko>  (26) 
{"free_energy": -8.08, "intermolecular_energy": -9.57, "internal_energy": -1.26, "cluster_size": 42, "cluster_id": 1, "rank_in_cluster": 39}

>  <energy>  (26) 
-8.54

>  <cluster_rmsd>  (26) 
1.38

>  <cluster>  (26) 
1

$$$$

     RDKit          3D

 45 48  0  0  0  0  0  0  0  0999 V2000
  137.7710   71.9240  223.4250 O   0  0  0  0  0  0  0  0  0  0  0  0
  138.9430   71.4730  223.5010 C   0  0  0  0  0  0  0  0  0  0  0  0
  139.8740   71.9060  222.4750 N   0  0  0  0  0  0  0  0  0  0  0  0
  139.3760   72.7920  221.4920 C   0  0  0  0  0  0  0  0  0  0  0  0
  139.8550   74.1660  221.4680 C   0  0  0  0  0  0  0  0  0  0  0  0
  141.1310   74.2970  221.6360 O   0  0  0  0  0  0  0  0  0  0  0  0
  139.1030   75.3460  221.2850 N   0  0  0  0  0  0  0  0  0  0  0  0
  138.5720   76.2460  220.2960 C   0  0  0  0  0  0  0  0  0  0  0  0
  137.4530   76.5640  221.3110 C   0  0  0  0  0  0  0  0  0  0  0  0
  138.5090   76.2460  222.3010 C   0  0  2  0  0  0  0  0  0  0  0  0
  139.4340   77.3300  222.6640 C   0  0  0  0  0  0  0  0  0  0  0  0
  138.8970   78.5070  223.1370 C   0  0  0  0  0  0  0  0  0  0  0  0
  139.7260   79.5690  223.4960 C   0  0  0  0  0  0  0  0  0  0  0  0
  141.1000   79.4820  223.3920 C   0  0  0  0  0  0  0  0  0  0  0  0
  142.1370   80.8200  223.8450 Cl  0  0  0  0  0  0  0  0  0  0  0  0
  141.6270   78.3110  222.9230 C   0  0  0  0  0  0  0  0  0  0  0  0
  140.8050   77.2610  222.5680 C   0  0  0  0  0  0  0  0  0  0  0  0
  139.3880   70.5610  224.5470 C   0  0  0  0  0  0  0  0  0  0  0  0
  139.1940   69.2140  224.3230 C   0  0  0  0  0  0  0  0  0  0  0  0
  139.5760   68.2640  225.2430 C   0  0  0  0  0  0  0  0  0  0  0  0
  140.1620   68.7000  226.4030 C   0  0  0  0  0  0  0  0  0  0  0  0
  140.5420   67.7400  227.3200 C   0  0  0  0  0  0  0  0  0  0  0  0
  141.1390   68.1630  228.5040 C   0  0  0  0  0  0  0  0  0  0  0  0
  141.5340   67.2690  229.4460 F   0  0  0  0  0  0  0  0  0  0  0  0
  141.3240   69.4970  228.7130 C   0  0  0  0  0  0  0  0  0  0  0  0
  140.9400   70.4730  227.7860 C   0  0  0  0  0  0  0  0  0  0  0  0
  140.3460   70.0510  226.6050 C   0  0  0  0  0  0  0  0  0  0  0  0
  139.9660   70.9840  225.6930 N   0  0  0  0  0  0  0  0  0  0  0  0
  140.8280   71.5180  222.5770 H   0  0  0  0  0  0  0  0  0  0  0  0
  139.6132   72.3516  220.5123 H   0  0  0  0  0  0  0  0  0  0  0  0
  138.3098   72.8905  221.7439 H   0  0  0  0  0  0  0  0  0  0  0  0
  139.2248   77.0958  220.0477 H   0  0  0  0  0  0  0  0  0  0  0  0
  138.3536   75.9217  219.2678 H   0  0  0  0  0  0  0  0  0  0  0  0
  137.0956   77.6043  221.3144 H   0  0  0  0  0  0  0  0  0  0  0  0
  136.4583   76.0944  221.2988 H   0  0  0  0  0  0  0  0  0  0  0  0
  138.2185   75.9309  223.3141 H   0  0  0  0  0  0  0  0  0  0  0  0
  137.8060   78.6098  223.2322 H   0  0  0  0  0  0  0  0  0  0  0  0
  139.2742   80.4991  223.8713 H   0  0  0  0  0  0  0  0  0  0  0  0
  142.7177   78.2047  222.8276 H   0  0  0  0  0  0  0  0  0  0  0  0
  141.2631   76.3335  222.1940 H   0  0  0  0  0  0  0  0  0  0  0  0
  138.7213   68.8902  223.3840 H   0  0  0  0  0  0  0  0  0  0  0  0
  139.4166   67.1922  225.0539 H   0  0  0  0  0  0  0  0  0  0  0  0
  140.3775   66.6709  227.1203 H   0  0  0  0  0  0  0  0  0  0  0  0
  141.7962   69.8212  229.6521 H   0  0  0  0  0  0  0  0  0  0  0  0
  141.1041   71.5419  227.9875 H   0  0  0  0  0  0  0  0  0  0  0  0
  1  2  2  0
  2  3  1  0
  3  4  1  0
  4  5  1  0
  5  6  2  0
  5  7  1  0
  7  8  1  0
  8  9  1  0
  9 10  1  0
 10 11  1  0
 11 12  2  0
 12 13  1  0
 13 14  2  0
 14 15  1  0
 14 16  1  0
 16 17  2  0
  2 18  1  0
 18 19  2  0
 19 20  1  0
 20 21  2  0
 21 22  1  0
 22 23  2  0
 23 24  1  0
 23 25  1  0
 25 26  2  0
 26 27  1  0
 27 28  2  0
 10  7  1  0
 17 11  1  0
 28 18  1  0
 27 21  1  0
  3 29  1  0
  4 30  1  0
  4 31  1  0
  8 32  1  0
  8 33  1  0
  9 34  1  0
  9 35  1  0
 10 36  1  1
 12 37  1  0
 13 38  1  0
 16 39  1  0
 17 40  1  0
 19 41  1  0
 20 42  1  0
 22 43  1  0
 25 44  1  0
 26 45  1  0
M  END
>  <smiles>  (27) 
O=C(NCC(=O)N1CCC1c1ccc(Cl)cc1)c1ccc2cc(F)ccc2n1

>  <score_type>  (27) 
oracle

>  <origin>  (27) 
autodockgpu

>  <m_score__min__energy>  (27) 
-8.9700000000000006

>  <m_primary>  (27) 
energy

>  <rmsd>  (27) 
2.8965436863511673

>  <m_score__min__rmsd>  (27) 
2.8965436863511673

>  <meeko>  (27) 
{"free_energy": -7.94, "intermolecular_energy": -9.43, "internal_energy": -1.12, "cluster_size": 42, "cluster_id": 1, "rank_in_cluster": 40}

>  <energy>  (27) 
-8.53

>  <cluster_rmsd>  (27) 
1.39

>  <cluster>  (27) 
1

$$$$

     RDKit          3D

 45 48  0  0  0  0  0  0  0  0999 V2000
  138.7920   70.9740  221.6710 O   0  0  0  0  0  0  0  0  0  0  0  0
  139.2690   71.4480  222.7350 C   0  0  0  0  0  0  0  0  0  0  0  0
  139.5680   72.8680  222.7370 N   0  0  0  0  0  0  0  0  0  0  0  0
  139.2940   73.5810  221.5470 C   0  0  0  0  0  0  0  0  0  0  0  0
  139.5960   75.0040  221.4880 C   0  0  0  0  0  0  0  0  0  0  0  0
  138.7100   75.7680  222.0420 O   0  0  0  0  0  0  0  0  0  0  0  0
  140.7190   75.6320  220.9100 N   0  0  0  0  0  0  0  0  0  0  0  0
  142.1190   75.4750  220.6200 C   0  0  0  0  0  0  0  0  0  0  0  0
  141.8900   76.4260  219.4250 C   0  0  0  0  0  0  0  0  0  0  0  0
  140.8300   76.9780  220.3010 C   0  0  2  0  0  0  0  0  0  0  0  0
  141.2380   77.9840  221.2920 C   0  0  0  0  0  0  0  0  0  0  0  0
  141.7790   79.1640  220.8320 C   0  0  0  0  0  0  0  0  0  0  0  0
  142.1840   80.1530  221.7270 C   0  0  0  0  0  0  0  0  0  0  0  0
  142.0600   79.9900  223.0920 C   0  0  0  0  0  0  0  0  0  0  0  0
  142.5710   81.2370  224.2120 Cl  0  0  0  0  0  0  0  0  0  0  0  0
  141.5220   78.8160  223.5430 C   0  0  0  0  0  0  0  0  0  0  0  0
  141.1220   77.8380  222.6560 C   0  0  0  0  0  0  0  0  0  0  0  0
  139.5240   70.6500  223.9270 C   0  0  0  0  0  0  0  0  0  0  0  0
  139.1510   69.3230  223.8820 C   0  0  0  0  0  0  0  0  0  0  0  0
  139.3450   68.4780  224.9510 C   0  0  0  0  0  0  0  0  0  0  0  0
  139.9280   68.9990  226.0760 C   0  0  0  0  0  0  0  0  0  0  0  0
  140.1190   68.1440  227.1440 C   0  0  0  0  0  0  0  0  0  0  0  0
  140.7090   68.6540  228.2960 C   0  0  0  0  0  0  0  0  0  0  0  0
  140.9240   67.8640  229.3800 F   0  0  0  0  0  0  0  0  0  0  0  0
  141.0730   69.9660  228.3290 C   0  0  0  0  0  0  0  0  0  0  0  0
  140.8820   70.8370  227.2490 C   0  0  0  0  0  0  0  0  0  0  0  0
  140.2930   70.3280  226.0990 C   0  0  0  0  0  0  0  0  0  0  0  0
  140.0980   71.1570  225.0410 N   0  0  0  0  0  0  0  0  0  0  0  0
  139.9510   73.2190  223.6320 H   0  0  0  0  0  0  0  0  0  0  0  0
  139.8672   73.0968  220.7426 H   0  0  0  0  0  0  0  0  0  0  0  0
  138.1978   73.5417  221.4640 H   0  0  0  0  0  0  0  0  0  0  0  0
  142.7970   75.8625  221.3947 H   0  0  0  0  0  0  0  0  0  0  0  0
  142.5833   74.4852  220.4986 H   0  0  0  0  0  0  0  0  0  0  0  0
  142.7207   77.1094  219.1949 H   0  0  0  0  0  0  0  0  0  0  0  0
  141.7218   76.0881  218.3918 H   0  0  0  0  0  0  0  0  0  0  0  0
  139.9893   77.5244  219.8485 H   0  0  0  0  0  0  0  0  0  0  0  0
  141.8924   79.3273  219.7501 H   0  0  0  0  0  0  0  0  0  0  0  0
  142.6133   81.0870  221.3355 H   0  0  0  0  0  0  0  0  0  0  0  0
  141.4071   78.6500  224.6243 H   0  0  0  0  0  0  0  0  0  0  0  0
  140.6940   76.9060  223.0538 H   0  0  0  0  0  0  0  0  0  0  0  0
  138.6856   68.9290  222.9665 H   0  0  0  0  0  0  0  0  0  0  0  0
  139.0426   67.4214  224.9037 H   0  0  0  0  0  0  0  0  0  0  0  0
  139.8131   67.0890  227.0852 H   0  0  0  0  0  0  0  0  0  0  0  0
  141.5379   70.3593  229.2451 H   0  0  0  0  0  0  0  0  0  0  0  0
  141.1890   71.8915  227.3098 H   0  0  0  0  0  0  0  0  0  0  0  0
  1  2  2  0
  2  3  1  0
  3  4  1  0
  4  5  1  0
  5  6  2  0
  5  7  1  0
  7  8  1  0
  8  9  1  0
  9 10  1  0
 10 11  1  0
 11 12  2  0
 12 13  1  0
 13 14  2  0
 14 15  1  0
 14 16  1  0
 16 17  2  0
  2 18  1  0
 18 19  2  0
 19 20  1  0
 20 21  2  0
 21 22  1  0
 22 23  2  0
 23 24  1  0
 23 25  1  0
 25 26  2  0
 26 27  1  0
 27 28  2  0
 10  7  1  0
 17 11  1  0
 28 18  1  0
 27 21  1  0
  3 29  1  0
  4 30  1  0
  4 31  1  0
  8 32  1  0
  8 33  1  0
  9 34  1  0
  9 35  1  0
 10 36  1  6
 12 37  1  0
 13 38  1  0
 16 39  1  0
 17 40  1  0
 19 41  1  0
 20 42  1  0
 22 43  1  0
 25 44  1  0
 26 45  1  0
M  END
>  <smiles>  (28) 
O=C(NCC(=O)N1CCC1c1ccc(Cl)cc1)c1ccc2cc(F)ccc2n1

>  <score_type>  (28) 
oracle

>  <origin>  (28) 
autodockgpu

>  <m_score__min__energy>  (28) 
-8.9700000000000006

>  <m_primary>  (28) 
energy

>  <rmsd>  (28) 
2.344576213386773

>  <m_score__min__rmsd>  (28) 
2.344576213386773

>  <meeko>  (28) 
{"free_energy": -8.66, "intermolecular_energy": -10.16, "internal_energy": -1.26, "cluster_size": 42, "cluster_id": 1, "rank_in_cluster": 22}

>  <energy>  (28) 
-8.5

>  <cluster_rmsd>  (28) 
1.4

>  <cluster>  (28) 
1

$$$$

     RDKit          3D

 45 48  0  0  0  0  0  0  0  0999 V2000
  141.0410   71.8570  221.3700 O   0  0  0  0  0  0  0  0  0  0  0  0
  140.4040   72.3110  222.3560 C   0  0  0  0  0  0  0  0  0  0  0  0
  139.8780   73.6570  222.2260 N   0  0  0  0  0  0  0  0  0  0  0  0
  140.1320   74.3280  221.0080 C   0  0  0  0  0  0  0  0  0  0  0  0
  141.4680   74.8430  220.7470 C   0  0  0  0  0  0  0  0  0  0  0  0
  142.4300   74.1070  221.2030 O   0  0  0  0  0  0  0  0  0  0  0  0
  141.8260   76.0270  220.0680 N   0  0  0  0  0  0  0  0  0  0  0  0
  142.8590   76.6540  219.2870 C   0  0  0  0  0  0  0  0  0  0  0  0
  141.7380   77.4860  218.6290 C   0  0  0  0  0  0  0  0  0  0  0  0
  141.0760   77.2980  219.9410 C   0  0  2  0  0  0  0  0  0  0  0  0
  141.4340   78.2420  221.0110 C   0  0  0  0  0  0  0  0  0  0  0  0
  141.8220   79.5130  220.6510 C   0  0  0  0  0  0  0  0  0  0  0  0
  142.1720   80.4480  221.6230 C   0  0  0  0  0  0  0  0  0  0  0  0
  142.1440   80.1400  222.9680 C   0  0  0  0  0  0  0  0  0  0  0  0
  142.5860   81.3200  224.1850 Cl  0  0  0  0  0  0  0  0  0  0  0  0
  141.7580   78.8760  223.3200 C   0  0  0  0  0  0  0  0  0  0  0  0
  141.4110   77.9510  222.3570 C   0  0  0  0  0  0  0  0  0  0  0  0
  140.1800   71.5580  223.5840 C   0  0  0  0  0  0  0  0  0  0  0  0
  139.3470   70.4630  223.5010 C   0  0  0  0  0  0  0  0  0  0  0  0
  139.0660   69.6810  224.5980 C   0  0  0  0  0  0  0  0  0  0  0  0
  139.6450   70.0260  225.7910 C   0  0  0  0  0  0  0  0  0  0  0  0
  139.3580   69.2350  226.8870 C   0  0  0  0  0  0  0  0  0  0  0  0
  139.9360   69.5700  228.1070 C   0  0  0  0  0  0  0  0  0  0  0  0
  139.6930   68.8330  229.2210 F   0  0  0  0  0  0  0  0  0  0  0  0
  140.7580   70.6550  228.1760 C   0  0  0  0  0  0  0  0  0  0  0  0
  141.0520   71.4580  227.0680 C   0  0  0  0  0  0  0  0  0  0  0  0
  140.4750   71.1240  225.8500 C   0  0  0  0  0  0  0  0  0  0  0  0
  140.7480   71.8930  224.7640 N   0  0  0  0  0  0  0  0  0  0  0  0
  139.3550   73.9890  223.0550 H   0  0  0  0  0  0  0  0  0  0  0  0
  139.8950   73.6234  220.1972 H   0  0  0  0  0  0  0  0  0  0  0  0
  139.5105   75.2332  221.0731 H   0  0  0  0  0  0  0  0  0  0  0  0
  143.5865   77.2388  219.8690 H   0  0  0  0  0  0  0  0  0  0  0  0
  143.5785   76.0705  218.6938 H   0  0  0  0  0  0  0  0  0  0  0  0
  142.0025   78.5228  218.3740 H   0  0  0  0  0  0  0  0  0  0  0  0
  141.2731   77.2387  217.6632 H   0  0  0  0  0  0  0  0  0  0  0  0
  139.9811   77.3799  220.0073 H   0  0  0  0  0  0  0  0  0  0  0  0
  141.8560   79.7925  219.5877 H   0  0  0  0  0  0  0  0  0  0  0  0
  142.4784   81.4572  221.3104 H   0  0  0  0  0  0  0  0  0  0  0  0
  141.7238   78.5938  224.3826 H   0  0  0  0  0  0  0  0  0  0  0  0
  141.1046   76.9438  222.6760 H   0  0  0  0  0  0  0  0  0  0  0  0
  138.8945   70.2072  222.5316 H   0  0  0  0  0  0  0  0  0  0  0  0
  138.3997   68.8093  224.5198 H   0  0  0  0  0  0  0  0  0  0  0  0
  138.6911   68.3648  226.7972 H   0  0  0  0  0  0  0  0  0  0  0  0
  141.2104   70.9109  229.1455 H   0  0  0  0  0  0  0  0  0  0  0  0
  141.7199   72.3273  227.1593 H   0  0  0  0  0  0  0  0  0  0  0  0
  1  2  2  0
  2  3  1  0
  3  4  1  0
  4  5  1  0
  5  6  2  0
  5  7  1  0
  7  8  1  0
  8  9  1  0
  9 10  1  0
 10 11  1  0
 11 12  2  0
 12 13  1  0
 13 14  2  0
 14 15  1  0
 14 16  1  0
 16 17  2  0
  2 18  1  0
 18 19  2  0
 19 20  1  0
 20 21  2  0
 21 22  1  0
 22 23  2  0
 23 24  1  0
 23 25  1  0
 25 26  2  0
 26 27  1  0
 27 28  2  0
 10  7  1  0
 17 11  1  0
 28 18  1  0
 27 21  1  0
  3 29  1  0
  4 30  1  0
  4 31  1  0
  8 32  1  0
  8 33  1  0
  9 34  1  0
  9 35  1  0
 10 36  1  6
 12 37  1  0
 13 38  1  0
 16 39  1  0
 17 40  1  0
 19 41  1  0
 20 42  1  0
 22 43  1  0
 25 44  1  0
 26 45  1  0
M  END
>  <smiles>  (29) 
O=C(NCC(=O)N1CCC1c1ccc(Cl)cc1)c1ccc2cc(F)ccc2n1

>  <score_type>  (29) 
oracle

>  <origin>  (29) 
autodockgpu

>  <m_score__min__energy>  (29) 
-8.9700000000000006

>  <m_primary>  (29) 
energy

>  <rmsd>  (29) 
2.6467013332196507

>  <m_score__min__rmsd>  (29) 
2.6467013332196507

>  <meeko>  (29) 
{"free_energy": -8.81, "intermolecular_energy": -10.3, "internal_energy": -1.03, "cluster_size": 42, "cluster_id": 1, "rank_in_cluster": 15}

>  <energy>  (29) 
-8.45

>  <cluster_rmsd>  (29) 
1.46

>  <cluster>  (29) 
1

$$$$

     RDKit          3D

 45 48  0  0  0  0  0  0  0  0999 V2000
  138.3730   72.3600  222.3880 O   0  0  0  0  0  0  0  0  0  0  0  0
  139.4870   71.9510  222.8060 C   0  0  0  0  0  0  0  0  0  0  0  0
  140.6590   72.3950  222.0730 N   0  0  0  0  0  0  0  0  0  0  0  0
  140.4360   73.2430  220.9640 C   0  0  0  0  0  0  0  0  0  0  0  0
  140.6040   74.6800  221.1250 C   0  0  0  0  0  0  0  0  0  0  0  0
  141.8330   75.0710  221.2420 O   0  0  0  0  0  0  0  0  0  0  0  0
  139.6030   75.6730  221.1660 N   0  0  0  0  0  0  0  0  0  0  0  0
  138.7620   76.5120  220.3550 C   0  0  0  0  0  0  0  0  0  0  0  0
  137.7550   76.4870  221.5250 C   0  0  0  0  0  0  0  0  0  0  0  0
  138.9830   76.3310  222.3400 C   0  0  2  0  0  0  0  0  0  0  0  0
  139.7010   77.5600  222.7090 C   0  0  0  0  0  0  0  0  0  0  0  0
  141.0770   77.5230  222.7330 C   0  0  0  0  0  0  0  0  0  0  0  0
  141.8100   78.6580  223.0760 C   0  0  0  0  0  0  0  0  0  0  0  0
  141.1910   79.8480  223.4010 C   0  0  0  0  0  0  0  0  0  0  0  0
  142.1170   81.2720  223.8310 Cl  0  0  0  0  0  0  0  0  0  0  0  0
  139.8240   79.8790  223.3750 C   0  0  0  0  0  0  0  0  0  0  0  0
  139.1000   78.7540  223.0350 C   0  0  0  0  0  0  0  0  0  0  0  0
  139.6410   71.0770  223.9610 C   0  0  0  0  0  0  0  0  0  0  0  0
  139.1120   69.8070  223.8580 C   0  0  0  0  0  0  0  0  0  0  0  0
  139.2000   68.8980  224.8880 C   0  0  0  0  0  0  0  0  0  0  0  0
  139.8370   69.2950  226.0340 C   0  0  0  0  0  0  0  0  0  0  0  0
  139.9210   68.3770  227.0630 C   0  0  0  0  0  0  0  0  0  0  0  0
  140.5640   68.7610  228.2350 C   0  0  0  0  0  0  0  0  0  0  0  0
  140.6800   67.9040  229.2820 F   0  0  0  0  0  0  0  0  0  0  0  0
  141.0830   70.0180  228.3250 C   0  0  0  0  0  0  0  0  0  0  0  0
  141.0000   70.9520  227.2850 C   0  0  0  0  0  0  0  0  0  0  0  0
  140.3590   70.5680  226.1150 C   0  0  0  0  0  0  0  0  0  0  0  0
  140.2680   71.4610  225.0950 N   0  0  0  0  0  0  0  0  0  0  0  0
  141.5540   72.0420  222.4530 H   0  0  0  0  0  0  0  0  0  0  0  0
  141.1293   72.9250  220.1714 H   0  0  0  0  0  0  0  0  0  0  0  0
  139.3621   73.1263  220.7566 H   0  0  0  0  0  0  0  0  0  0  0  0
  139.1809   77.5034  220.1280 H   0  0  0  0  0  0  0  0  0  0  0  0
  138.4741   76.2347  219.3302 H   0  0  0  0  0  0  0  0  0  0  0  0
  137.1913   77.4175  221.6874 H   0  0  0  0  0  0  0  0  0  0  0  0
  136.8894   75.8104  221.5789 H   0  0  0  0  0  0  0  0  0  0  0  0
  138.9115   75.8760  223.3389 H   0  0  0  0  0  0  0  0  0  0  0  0
  141.6022   76.5903  222.4795 H   0  0  0  0  0  0  0  0  0  0  0  0
  142.9086   78.6039  223.0879 H   0  0  0  0  0  0  0  0  0  0  0  0
  139.2959   80.8102  223.6277 H   0  0  0  0  0  0  0  0  0  0  0  0
  138.0017   78.8143  223.0243 H   0  0  0  0  0  0  0  0  0  0  0  0
  138.6058   69.5126  222.9268 H   0  0  0  0  0  0  0  0  0  0  0  0
  138.7738   67.8883  224.7942 H   0  0  0  0  0  0  0  0  0  0  0  0
  139.4911   67.3699  226.9583 H   0  0  0  0  0  0  0  0  0  0  0  0
  141.5896   70.3119  229.2561 H   0  0  0  0  0  0  0  0  0  0  0  0
  141.4295   71.9590  227.3918 H   0  0  0  0  0  0  0  0  0  0  0  0
  1  2  2  0
  2  3  1  0
  3  4  1  0
  4  5  1  0
  5  6  2  0
  5  7  1  0
  7  8  1  0
  8  9  1  0
  9 10  1  0
 10 11  1  0
 11 12  2  0
 12 13  1  0
 13 14  2  0
 14 15  1  0
 14 16  1  0
 16 17  2  0
  2 18  1  0
 18 19  2  0
 19 20  1  0
 20 21  2  0
 21 22  1  0
 22 23  2  0
 23 24  1  0
 23 25  1  0
 25 26  2  0
 26 27  1  0
 27 28  2  0
 10  7  1  0
 17 11  1  0
 28 18  1  0
 27 21  1  0
  3 29  1  0
  4 30  1  0
  4 31  1  0
  8 32  1  0
  8 33  1  0
  9 34  1  0
  9 35  1  0
 10 36  1  1
 12 37  1  0
 13 38  1  0
 16 39  1  0
 17 40  1  0
 19 41  1  0
 20 42  1  0
 22 43  1  0
 25 44  1  0
 26 45  1  0
M  END
>  <smiles>  (30) 
O=C(NCC(=O)N1CCC1c1ccc(Cl)cc1)c1ccc2cc(F)ccc2n1

>  <score_type>  (30) 
oracle

>  <origin>  (30) 
autodockgpu

>  <m_score__min__energy>  (30) 
-8.9700000000000006

>  <m_primary>  (30) 
energy

>  <rmsd>  (30) 
2.6446827143619873

>  <m_score__min__rmsd>  (30) 
2.6446827143619873

>  <meeko>  (30) 
{"free_energy": -8.17, "intermolecular_energy": -9.66, "internal_energy": -1.22, "cluster_size": 42, "cluster_id": 1, "rank_in_cluster": 37}

>  <energy>  (30) 
-8.44

>  <cluster_rmsd>  (30) 
1.44

>  <cluster>  (30) 
1

$$$$

     RDKit          3D

 45 48  0  0  0  0  0  0  0  0999 V2000
  140.8290   71.7690  221.2070 O   0  0  0  0  0  0  0  0  0  0  0  0
  140.3590   72.2340  222.2770 C   0  0  0  0  0  0  0  0  0  0  0  0
  139.9410   73.6240  222.2520 N   0  0  0  0  0  0  0  0  0  0  0  0
  140.1020   74.3190  221.0320 C   0  0  0  0  0  0  0  0  0  0  0  0
  141.3820   74.9470  220.7360 C   0  0  0  0  0  0  0  0  0  0  0  0
  142.4110   74.3290  221.2200 O   0  0  0  0  0  0  0  0  0  0  0  0
  141.6230   76.1240  219.9970 N   0  0  0  0  0  0  0  0  0  0  0  0
  142.5430   76.7650  219.0970 C   0  0  0  0  0  0  0  0  0  0  0  0
  141.3290   77.5420  218.5450 C   0  0  0  0  0  0  0  0  0  0  0  0
  140.8180   77.3660  219.9250 C   0  0  2  0  0  0  0  0  0  0  0  0
  141.2540   78.3470  220.9300 C   0  0  0  0  0  0  0  0  0  0  0  0
  141.1500   78.0020  222.2590 C   0  0  0  0  0  0  0  0  0  0  0  0
  141.5480   78.8930  223.2540 C   0  0  0  0  0  0  0  0  0  0  0  0
  142.0550   80.1400  222.9490 C   0  0  0  0  0  0  0  0  0  0  0  0
  142.5540   81.2560  224.2050 Cl  0  0  0  0  0  0  0  0  0  0  0  0
  142.1560   80.4770  221.6280 C   0  0  0  0  0  0  0  0  0  0  0  0
  141.7620   79.5940  220.6440 C   0  0  0  0  0  0  0  0  0  0  0  0
  140.2220   71.4560  223.5010 C   0  0  0  0  0  0  0  0  0  0  0  0
  139.5950   70.2320  223.3950 C   0  0  0  0  0  0  0  0  0  0  0  0
  139.4110   69.4150  224.4870 C   0  0  0  0  0  0  0  0  0  0  0  0
  139.8760   69.8560  225.6980 C   0  0  0  0  0  0  0  0  0  0  0  0
  139.6870   69.0290  226.7890 C   0  0  0  0  0  0  0  0  0  0  0  0
  140.1520   69.4600  228.0270 C   0  0  0  0  0  0  0  0  0  0  0  0
  139.9980   68.6930  229.1370 F   0  0  0  0  0  0  0  0  0  0  0  0
  140.7700   70.6710  228.1190 C   0  0  0  0  0  0  0  0  0  0  0  0
  140.9630   71.5130  227.0170 C   0  0  0  0  0  0  0  0  0  0  0  0
  140.5000   71.0820  225.7810 C   0  0  0  0  0  0  0  0  0  0  0  0
  140.6770   71.8850  224.6990 N   0  0  0  0  0  0  0  0  0  0  0  0
  139.5540   73.9660  223.1490 H   0  0  0  0  0  0  0  0  0  0  0  0
  139.9021   73.6001  220.2238 H   0  0  0  0  0  0  0  0  0  0  0  0
  139.4083   75.1680  221.1209 H   0  0  0  0  0  0  0  0  0  0  0  0
  143.3067   77.3885  219.5849 H   0  0  0  0  0  0  0  0  0  0  0  0
  143.2159   76.1911  218.4428 H   0  0  0  0  0  0  0  0  0  0  0  0
  141.5274   78.5801  218.2401 H   0  0  0  0  0  0  0  0  0  0  0  0
  140.7728   77.2545  217.6406 H   0  0  0  0  0  0  0  0  0  0  0  0
  139.7342   77.4138  220.1072 H   0  0  0  0  0  0  0  0  0  0  0  0
  140.7498   77.0159  222.5374 H   0  0  0  0  0  0  0  0  0  0  0  0
  141.4558   78.5950  224.3088 H   0  0  0  0  0  0  0  0  0  0  0  0
  142.5556   81.4625  221.3467 H   0  0  0  0  0  0  0  0  0  0  0  0
  141.8574   79.8979  219.5911 H   0  0  0  0  0  0  0  0  0  0  0  0
  139.2323   69.9000  222.4110 H   0  0  0  0  0  0  0  0  0  0  0  0
  138.9079   68.4415  224.3909 H   0  0  0  0  0  0  0  0  0  0  0  0
  139.1830   68.0572  226.6813 H   0  0  0  0  0  0  0  0  0  0  0  0
  141.1335   71.0019  229.1031 H   0  0  0  0  0  0  0  0  0  0  0  0
  141.4656   72.4853  227.1270 H   0  0  0  0  0  0  0  0  0  0  0  0
  1  2  2  0
  2  3  1  0
  3  4  1  0
  4  5  1  0
  5  6  2  0
  5  7  1  0
  7  8  1  0
  8  9  1  0
  9 10  1  0
 10 11  1  0
 11 12  2  0
 12 13  1  0
 13 14  2  0
 14 15  1  0
 14 16  1  0
 16 17  2  0
  2 18  1  0
 18 19  2  0
 19 20  1  0
 20 21  2  0
 21 22  1  0
 22 23  2  0
 23 24  1  0
 23 25  1  0
 25 26  2  0
 26 27  1  0
 27 28  2  0
 10  7  1  0
 17 11  1  0
 28 18  1  0
 27 21  1  0
  3 29  1  0
  4 30  1  0
  4 31  1  0
  8 32  1  0
  8 33  1  0
  9 34  1  0
  9 35  1  0
 10 36  1  6
 12 37  1  0
 13 38  1  0
 16 39  1  0
 17 40  1  0
 19 41  1  0
 20 42  1  0
 22 43  1  0
 25 44  1  0
 26 45  1  0
M  END
>  <smiles>  (31) 
O=C(NCC(=O)N1CCC1c1ccc(Cl)cc1)c1ccc2cc(F)ccc2n1

>  <score_type>  (31) 
oracle

>  <origin>  (31) 
autodockgpu

>  <m_score__min__energy>  (31) 
-8.9700000000000006

>  <m_primary>  (31) 
energy

>  <rmsd>  (31) 
2.6338951302757208

>  <m_score__min__rmsd>  (31) 
2.6338951302757208

>  <meeko>  (31) 
{"free_energy": -8.73, "intermolecular_energy": -10.22, "internal_energy": -1.14, "cluster_size": 42, "cluster_id": 1, "rank_in_cluster": 19}

>  <energy>  (31) 
-8.41

>  <cluster_rmsd>  (31) 
1.49

>  <cluster>  (31) 
1

$$$$

     RDKit          3D

 45 48  0  0  0  0  0  0  0  0999 V2000
  138.5080   70.8820  221.8630 O   0  0  0  0  0  0  0  0  0  0  0  0
  139.1290   71.3190  222.8660 C   0  0  0  0  0  0  0  0  0  0  0  0
  139.5430   72.7090  222.8180 N   0  0  0  0  0  0  0  0  0  0  0  0
  139.2100   73.4360  221.6530 C   0  0  0  0  0  0  0  0  0  0  0  0
  139.7960   74.7530  221.4470 C   0  0  0  0  0  0  0  0  0  0  0  0
  141.0890   74.7680  221.3970 O   0  0  0  0  0  0  0  0  0  0  0  0
  139.1290   75.9870  221.2970 N   0  0  0  0  0  0  0  0  0  0  0  0
  138.6620   76.9480  220.3340 C   0  0  0  0  0  0  0  0  0  0  0  0
  137.5700   77.3180  221.3610 C   0  0  0  0  0  0  0  0  0  0  0  0
  138.6020   76.9000  222.3380 C   0  0  2  0  0  0  0  0  0  0  0  0
  139.6020   77.9070  222.7260 C   0  0  0  0  0  0  0  0  0  0  0  0
  139.1530   79.1470  223.1220 C   0  0  0  0  0  0  0  0  0  0  0  0
  140.0550   80.1390  223.5000 C   0  0  0  0  0  0  0  0  0  0  0  0
  141.4180   79.9190  223.4920 C   0  0  0  0  0  0  0  0  0  0  0  0
  142.5480   81.1700  223.9680 Cl  0  0  0  0  0  0  0  0  0  0  0  0
  141.8590   78.6860  223.0980 C   0  0  0  0  0  0  0  0  0  0  0  0
  140.9640   77.7040  222.7240 C   0  0  0  0  0  0  0  0  0  0  0  0
  139.4380   70.5080  224.0370 C   0  0  0  0  0  0  0  0  0  0  0  0
  139.0880   69.1750  223.9820 C   0  0  0  0  0  0  0  0  0  0  0  0
  139.3330   68.3180  225.0310 C   0  0  0  0  0  0  0  0  0  0  0  0
  139.9420   68.8330  226.1450 C   0  0  0  0  0  0  0  0  0  0  0  0
  140.1840   67.9660  227.1930 C   0  0  0  0  0  0  0  0  0  0  0  0
  140.8010   68.4700  228.3340 C   0  0  0  0  0  0  0  0  0  0  0  0
  141.0660   67.6680  229.3970 F   0  0  0  0  0  0  0  0  0  0  0  0
  141.1410   69.7890  228.3750 C   0  0  0  0  0  0  0  0  0  0  0  0
  140.8980   70.6710  227.3160 C   0  0  0  0  0  0  0  0  0  0  0  0
  140.2830   70.1680  226.1780 C   0  0  0  0  0  0  0  0  0  0  0  0
  140.0380   71.0090  225.1390 N   0  0  0  0  0  0  0  0  0  0  0  0
  140.0440   73.0310  223.6650 H   0  0  0  0  0  0  0  0  0  0  0  0
  139.5019   72.8160  220.7926 H   0  0  0  0  0  0  0  0  0  0  0  0
  138.1360   73.6425  221.7709 H   0  0  0  0  0  0  0  0  0  0  0  0
  139.3733   77.7555  220.1057 H   0  0  0  0  0  0  0  0  0  0  0  0
  138.4194   76.6672  219.2985 H   0  0  0  0  0  0  0  0  0  0  0  0
  137.2876   78.3806  221.3929 H   0  0  0  0  0  0  0  0  0  0  0  0
  136.5444   76.9208  221.3401 H   0  0  0  0  0  0  0  0  0  0  0  0
  138.2920   76.5793  223.3435 H   0  0  0  0  0  0  0  0  0  0  0  0
  138.0732   79.3560  223.1400 H   0  0  0  0  0  0  0  0  0  0  0  0
  139.6719   81.1217  223.8125 H   0  0  0  0  0  0  0  0  0  0  0  0
  142.9383   78.4745  223.0789 H   0  0  0  0  0  0  0  0  0  0  0  0
  141.3530   76.7232  222.4129 H   0  0  0  0  0  0  0  0  0  0  0  0
  138.6002   68.7865  223.0759 H   0  0  0  0  0  0  0  0  0  0  0  0
  139.0496   67.2565  224.9767 H   0  0  0  0  0  0  0  0  0  0  0  0
  139.8968   66.9062  227.1273 H   0  0  0  0  0  0  0  0  0  0  0  0
  141.6284   70.1779  229.2812 H   0  0  0  0  0  0  0  0  0  0  0  0
  141.1856   71.7306  227.3835 H   0  0  0  0  0  0  0  0  0  0  0  0
  1  2  2  0
  2  3  1  0
  3  4  1  0
  4  5  1  0
  5  6  2  0
  5  7  1  0
  7  8  1  0
  8  9  1  0
  9 10  1  0
 10 11  1  0
 11 12  2  0
 12 13  1  0
 13 14  2  0
 14 15  1  0
 14 16  1  0
 16 17  2  0
  2 18  1  0
 18 19  2  0
 19 20  1  0
 20 21  2  0
 21 22  1  0
 22 23  2  0
 23 24  1  0
 23 25  1  0
 25 26  2  0
 26 27  1  0
 27 28  2  0
 10  7  1  0
 17 11  1  0
 28 18  1  0
 27 21  1  0
  3 29  1  0
  4 30  1  0
  4 31  1  0
  8 32  1  0
  8 33  1  0
  9 34  1  0
  9 35  1  0
 10 36  1  1
 12 37  1  0
 13 38  1  0
 16 39  1  0
 17 40  1  0
 19 41  1  0
 20 42  1  0
 22 43  1  0
 25 44  1  0
 26 45  1  0
M  END
>  <smiles>  (32) 
O=C(NCC(=O)N1CCC1c1ccc(Cl)cc1)c1ccc2cc(F)ccc2n1

>  <score_type>  (32) 
oracle

>  <origin>  (32) 
autodockgpu

>  <m_score__min__energy>  (32) 
-8.9700000000000006

>  <m_primary>  (32) 
energy

>  <rmsd>  (32) 
2.8138878031033507

>  <m_score__min__rmsd>  (32) 
2.8138878031033507

>  <meeko>  (32) 
{"free_energy": -8.4, "intermolecular_energy": -9.89, "internal_energy": -1.31, "cluster_size": 42, "cluster_id": 1, "rank_in_cluster": 32}

>  <energy>  (32) 
-8.4

>  <cluster_rmsd>  (32) 
1.45

>  <cluster>  (32) 
1

$$$$

     RDKit          3D

 45 48  0  0  0  0  0  0  0  0999 V2000
  139.2350   71.3630  221.1840 O   0  0  0  0  0  0  0  0  0  0  0  0
  139.4190   71.9020  222.3060 C   0  0  0  0  0  0  0  0  0  0  0  0
  139.3940   73.3530  222.3410 N   0  0  0  0  0  0  0  0  0  0  0  0
  139.1650   74.0180  221.1150 C   0  0  0  0  0  0  0  0  0  0  0  0
  140.2040   74.0020  220.0940 C   0  0  0  0  0  0  0  0  0  0  0  0
  139.9490   73.2450  219.0760 O   0  0  0  0  0  0  0  0  0  0  0  0
  141.4280   74.7030  220.0880 N   0  0  0  0  0  0  0  0  0  0  0  0
  142.8010   74.6520  220.5120 C   0  0  0  0  0  0  0  0  0  0  0  0
  143.1200   75.5530  219.3000 C   0  0  0  0  0  0  0  0  0  0  0  0
  141.7390   76.0390  219.5270 C   0  0  2  0  0  0  0  0  0  0  0  0
  141.5600   77.0980  220.5320 C   0  0  0  0  0  0  0  0  0  0  0  0
  141.9220   78.3820  220.1910 C   0  0  0  0  0  0  0  0  0  0  0  0
  141.7750   79.4250  221.1030 C   0  0  0  0  0  0  0  0  0  0  0  0
  141.2670   79.2130  222.3690 C   0  0  0  0  0  0  0  0  0  0  0  0
  141.0840   80.5280  223.5120 Cl  0  0  0  0  0  0  0  0  0  0  0  0
  140.9080   77.9370  222.7020 C   0  0  0  0  0  0  0  0  0  0  0  0
  141.0550   76.9050  221.7980 C   0  0  0  0  0  0  0  0  0  0  0  0
  139.6490   71.1500  223.5320 C   0  0  0  0  0  0  0  0  0  0  0  0
  139.2820   69.8200  223.5270 C   0  0  0  0  0  0  0  0  0  0  0  0
  139.4540   69.0160  224.6300 C   0  0  0  0  0  0  0  0  0  0  0  0
  140.0080   69.5800  225.7490 C   0  0  0  0  0  0  0  0  0  0  0  0
  140.1770   68.7660  226.8520 C   0  0  0  0  0  0  0  0  0  0  0  0
  140.7380   69.3200  227.9980 C   0  0  0  0  0  0  0  0  0  0  0  0
  140.9300   68.5720  229.1140 F   0  0  0  0  0  0  0  0  0  0  0  0
  141.0970   70.6350  227.9910 C   0  0  0  0  0  0  0  0  0  0  0  0
  140.9270   71.4640  226.8750 C   0  0  0  0  0  0  0  0  0  0  0  0
  140.3680   70.9110  225.7320 C   0  0  0  0  0  0  0  0  0  0  0  0
  140.1950   71.7000  224.6390 N   0  0  0  0  0  0  0  0  0  0  0  0
  139.5430   73.7570  223.2820 H   0  0  0  0  0  0  0  0  0  0  0  0
  138.2672   73.5669  220.6673 H   0  0  0  0  0  0  0  0  0  0  0  0
  139.0948   75.0779  221.4009 H   0  0  0  0  0  0  0  0  0  0  0  0
  142.9984   75.1105  221.4922 H   0  0  0  0  0  0  0  0  0  0  0  0
  143.3237   73.6999  220.6857 H   0  0  0  0  0  0  0  0  0  0  0  0
  143.9169   76.2951  219.4558 H   0  0  0  0  0  0  0  0  0  0  0  0
  143.4905   75.1784  218.3344 H   0  0  0  0  0  0  0  0  0  0  0  0
  141.1896   76.5051  218.6958 H   0  0  0  0  0  0  0  0  0  0  0  0
  142.3306   78.5860  219.1903 H   0  0  0  0  0  0  0  0  0  0  0  0
  142.0709   80.4423  220.8070 H   0  0  0  0  0  0  0  0  0  0  0  0
  140.4975   77.7305  223.7014 H   0  0  0  0  0  0  0  0  0  0  0  0
  140.7575   75.8900  222.1003 H   0  0  0  0  0  0  0  0  0  0  0  0
  138.8397   69.3907  222.6159 H   0  0  0  0  0  0  0  0  0  0  0  0
  139.1570   67.9570  224.6141 H   0  0  0  0  0  0  0  0  0  0  0  0
  139.8761   67.7083  226.8249 H   0  0  0  0  0  0  0  0  0  0  0  0
  141.5397   71.0640  228.9020 H   0  0  0  0  0  0  0  0  0  0  0  0
  141.2277   72.5217  226.9039 H   0  0  0  0  0  0  0  0  0  0  0  0
  1  2  2  0
  2  3  1  0
  3  4  1  0
  4  5  1  0
  5  6  2  0
  5  7  1  0
  7  8  1  0
  8  9  1  0
  9 10  1  0
 10 11  1  0
 11 12  2  0
 12 13  1  0
 13 14  2  0
 14 15  1  0
 14 16  1  0
 16 17  2  0
  2 18  1  0
 18 19  2  0
 19 20  1  0
 20 21  2  0
 21 22  1  0
 22 23  2  0
 23 24  1  0
 23 25  1  0
 25 26  2  0
 26 27  1  0
 27 28  2  0
 10  7  1  0
 17 11  1  0
 28 18  1  0
 27 21  1  0
  3 29  1  0
  4 30  1  0
  4 31  1  0
  8 32  1  0
  8 33  1  0
  9 34  1  0
  9 35  1  0
 10 36  1  6
 12 37  1  0
 13 38  1  0
 16 39  1  0
 17 40  1  0
 19 41  1  0
 20 42  1  0
 22 43  1  0
 25 44  1  0
 26 45  1  0
M  END
>  <smiles>  (33) 
O=C(NCC(=O)N1CCC1c1ccc(Cl)cc1)c1ccc2cc(F)ccc2n1

>  <score_type>  (33) 
oracle

>  <origin>  (33) 
autodockgpu

>  <m_score__min__energy>  (33) 
-8.9700000000000006

>  <m_primary>  (33) 
energy

>  <rmsd>  (33) 
2.31098119428638

>  <m_score__min__rmsd>  (33) 
2.31098119428638

>  <meeko>  (33) 
{"free_energy": -7.91, "intermolecular_energy": -9.4, "internal_energy": -1.32, "cluster_size": 42, "cluster_id": 1, "rank_in_cluster": 41}

>  <energy>  (33) 
-8.38

>  <cluster_rmsd>  (33) 
1.55

>  <cluster>  (33) 
1

$$$$

     RDKit          3D

 45 48  0  0  0  0  0  0  0  0999 V2000
  140.8320   73.9990  220.5420 O   0  0  0  0  0  0  0  0  0  0  0  0
  140.3390   74.7800  221.3970 C   0  0  0  0  0  0  0  0  0  0  0  0
  139.2890   74.2400  222.2410 N   0  0  0  0  0  0  0  0  0  0  0  0
  138.9220   72.8930  222.0230 C   0  0  0  0  0  0  0  0  0  0  0  0
  139.3250   71.8820  222.9900 C   0  0  0  0  0  0  0  0  0  0  0  0
  140.4890   72.0770  223.5220 O   0  0  0  0  0  0  0  0  0  0  0  0
  138.6070   70.7420  223.4070 N   0  0  0  0  0  0  0  0  0  0  0  0
  137.3460   70.2860  223.9270 C   0  0  0  0  0  0  0  0  0  0  0  0
  137.6400   68.9420  223.2270 C   0  0  0  0  0  0  0  0  0  0  0  0
  139.0490   69.3290  223.4730 C   0  0  2  0  0  0  0  0  0  0  0  0
  139.6110   69.0030  224.7930 C   0  0  0  0  0  0  0  0  0  0  0  0
  140.2050   70.0170  225.5120 C   0  0  0  0  0  0  0  0  0  0  0  0
  140.7540   69.7660  226.7680 C   0  0  0  0  0  0  0  0  0  0  0  0
  140.7240   68.5070  227.3320 C   0  0  0  0  0  0  0  0  0  0  0  0
  141.4170   68.1980  228.9120 Cl  0  0  0  0  0  0  0  0  0  0  0  0
  140.1340   67.5040  226.6140 C   0  0  0  0  0  0  0  0  0  0  0  0
  139.5900   67.7540  225.3710 C   0  0  0  0  0  0  0  0  0  0  0  0
  140.7700   76.1610  221.5670 C   0  0  0  0  0  0  0  0  0  0  0  0
  141.6040   76.6780  220.5970 C   0  0  0  0  0  0  0  0  0  0  0  0
  142.0720   77.9710  220.6570 C   0  0  0  0  0  0  0  0  0  0  0  0
  141.6800   78.7410  221.7210 C   0  0  0  0  0  0  0  0  0  0  0  0
  142.1540   80.0380  221.7730 C   0  0  0  0  0  0  0  0  0  0  0  0
  141.7670   80.8350  222.8450 C   0  0  0  0  0  0  0  0  0  0  0  0
  142.1990   82.1180  222.9540 F   0  0  0  0  0  0  0  0  0  0  0  0
  140.9430   80.3130  223.7970 C   0  0  0  0  0  0  0  0  0  0  0  0
  140.4610   79.0000  223.7480 C   0  0  0  0  0  0  0  0  0  0  0  0
  140.8450   78.2040  222.6770 C   0  0  0  0  0  0  0  0  0  0  0  0
  140.3880   76.9260  222.6130 N   0  0  0  0  0  0  0  0  0  0  0  0
  138.9170   74.9120  222.9350 H   0  0  0  0  0  0  0  0  0  0  0  0
  137.8238   72.8641  221.9665 H   0  0  0  0  0  0  0  0  0  0  0  0
  139.4711   72.6164  221.1109 H   0  0  0  0  0  0  0  0  0  0  0  0
  137.2919   70.2324  225.0244 H   0  0  0  0  0  0  0  0  0  0  0  0
  136.4104   70.8396  223.7592 H   0  0  0  0  0  0  0  0  0  0  0  0
  137.2939   68.0433  223.7585 H   0  0  0  0  0  0  0  0  0  0  0  0
  137.2414   68.6605  222.2412 H   0  0  0  0  0  0  0  0  0  0  0  0
  139.8425   68.8983  222.8447 H   0  0  0  0  0  0  0  0  0  0  0  0
  140.2463   71.0326  225.0914 H   0  0  0  0  0  0  0  0  0  0  0  0
  141.2227   70.5917  227.3234 H   0  0  0  0  0  0  0  0  0  0  0  0
  140.0927   66.4872  227.0317 H   0  0  0  0  0  0  0  0  0  0  0  0
  139.1220   66.9241  224.8213 H   0  0  0  0  0  0  0  0  0  0  0  0
  141.9030   76.0394  219.7527 H   0  0  0  0  0  0  0  0  0  0  0  0
  142.7373   78.3723  219.8783 H   0  0  0  0  0  0  0  0  0  0  0  0
  142.8187   80.4290  220.9886 H   0  0  0  0  0  0  0  0  0  0  0  0
  140.6436   80.9518  224.6410 H   0  0  0  0  0  0  0  0  0  0  0  0
  139.7978   78.6103  224.5343 H   0  0  0  0  0  0  0  0  0  0  0  0
  1  2  2  0
  2  3  1  0
  3  4  1  0
  4  5  1  0
  5  6  2  0
  5  7  1  0
  7  8  1  0
  8  9  1  0
  9 10  1  0
 10 11  1  0
 11 12  2  0
 12 13  1  0
 13 14  2  0
 14 15  1  0
 14 16  1  0
 16 17  2  0
  2 18  1  0
 18 19  2  0
 19 20  1  0
 20 21  2  0
 21 22  1  0
 22 23  2  0
 23 24  1  0
 23 25  1  0
 25 26  2  0
 26 27  1  0
 27 28  2  0
 10  7  1  0
 17 11  1  0
 28 18  1  0
 27 21  1  0
  3 29  1  0
  4 30  1  0
  4 31  1  0
  8 32  1  0
  8 33  1  0
  9 34  1  0
  9 35  1  0
 10 36  1  6
 12 37  1  0
 13 38  1  0
 16 39  1  0
 17 40  1  0
 19 41  1  0
 20 42  1  0
 22 43  1  0
 25 44  1  0
 26 45  1  0
M  END
>  <smiles>  (34) 
O=C(NCC(=O)N1CCC1c1ccc(Cl)cc1)c1ccc2cc(F)ccc2n1

>  <score_type>  (34) 
oracle

>  <origin>  (34) 
autodockgpu

>  <m_score__min__energy>  (34) 
-8.9700000000000006

>  <m_primary>  (34) 
energy

>  <rmsd>  (34) 
8.611940302090282

>  <m_score__min__rmsd>  (34) 
8.611940302090282

>  <meeko>  (34) 
{"free_energy": -8.28, "intermolecular_energy": -9.77, "internal_energy": -1.23, "cluster_size": 5, "cluster_id": 2, "rank_in_cluster": 4}

>  <energy>  (34) 
-8.36

>  <cluster_rmsd>  (34) 
1.52

>  <cluster>  (34) 
1

$$$$

     RDKit          3D

 45 48  0  0  0  0  0  0  0  0999 V2000
  139.0970   73.0690  222.4150 O   0  0  0  0  0  0  0  0  0  0  0  0
  140.0980   72.3750  222.7280 C   0  0  0  0  0  0  0  0  0  0  0  0
  141.2840   72.5360  221.9050 N   0  0  0  0  0  0  0  0  0  0  0  0
  141.1990   73.4560  220.8350 C   0  0  0  0  0  0  0  0  0  0  0  0
  141.2080   74.8830  221.1250 C   0  0  0  0  0  0  0  0  0  0  0  0
  140.6100   75.2160  222.2230 O   0  0  0  0  0  0  0  0  0  0  0  0
  141.7840   75.9210  220.3620 N   0  0  0  0  0  0  0  0  0  0  0  0
  142.9820   76.3420  219.6860 C   0  0  0  0  0  0  0  0  0  0  0  0
  142.0640   77.1540  218.7470 C   0  0  0  0  0  0  0  0  0  0  0  0
  141.1940   77.2150  219.9460 C   0  0  2  0  0  0  0  0  0  0  0  0
  141.4790   78.2750  220.9250 C   0  0  0  0  0  0  0  0  0  0  0  0
  141.3970   77.9590  222.2620 C   0  0  0  0  0  0  0  0  0  0  0  0
  141.6560   78.9240  223.2340 C   0  0  0  0  0  0  0  0  0  0  0  0
  142.0010   80.2170  222.8970 C   0  0  0  0  0  0  0  0  0  0  0  0
  142.3260   81.4260  224.1230 Cl  0  0  0  0  0  0  0  0  0  0  0  0
  142.0820   80.5250  221.5670 C   0  0  0  0  0  0  0  0  0  0  0  0
  141.8250   79.5680  220.6060 C   0  0  0  0  0  0  0  0  0  0  0  0
  140.1130   71.4450  223.8490 C   0  0  0  0  0  0  0  0  0  0  0  0
  139.5900   70.1880  223.6250 C   0  0  0  0  0  0  0  0  0  0  0  0
  139.5540   69.2310  224.6130 C   0  0  0  0  0  0  0  0  0  0  0  0
  140.0590   69.5650  225.8420 C   0  0  0  0  0  0  0  0  0  0  0  0
  140.0190   68.5980  226.8270 C   0  0  0  0  0  0  0  0  0  0  0  0
  140.5270   68.9180  228.0830 C   0  0  0  0  0  0  0  0  0  0  0  0
  140.5160   68.0110  229.0930 F   0  0  0  0  0  0  0  0  0  0  0  0
  141.0410   70.1620  228.2920 C   0  0  0  0  0  0  0  0  0  0  0  0
  141.0840   71.1450  227.2960 C   0  0  0  0  0  0  0  0  0  0  0  0
  140.5780   70.8260  226.0440 C   0  0  0  0  0  0  0  0  0  0  0  0
  140.6100   71.7670  225.0640 N   0  0  0  0  0  0  0  0  0  0  0  0
  142.0860   71.9530  222.2000 H   0  0  0  0  0  0  0  0  0  0  0  0
  142.0532   73.2572  220.1711 H   0  0  0  0  0  0  0  0  0  0  0  0
  140.1973   73.2796  220.4161 H   0  0  0  0  0  0  0  0  0  0  0  0
  143.6681   76.9470  220.2969 H   0  0  0  0  0  0  0  0  0  0  0  0
  143.7204   75.6224  219.3027 H   0  0  0  0  0  0  0  0  0  0  0  0
  142.4682   78.1176  218.4032 H   0  0  0  0  0  0  0  0  0  0  0  0
  141.7285   76.8042  217.7595 H   0  0  0  0  0  0  0  0  0  0  0  0
  140.1157   77.3922  219.8201 H   0  0  0  0  0  0  0  0  0  0  0  0
  141.1251   76.9374  222.5658 H   0  0  0  0  0  0  0  0  0  0  0  0
  141.5836   78.6479  224.2963 H   0  0  0  0  0  0  0  0  0  0  0  0
  142.3547   81.5455  221.2600 H   0  0  0  0  0  0  0  0  0  0  0  0
  141.8996   79.8496  219.5453 H   0  0  0  0  0  0  0  0  0  0  0  0
  139.1909   69.9443  222.6294 H   0  0  0  0  0  0  0  0  0  0  0  0
  139.1342   68.2322  224.4227 H   0  0  0  0  0  0  0  0  0  0  0  0
  139.5974   67.6023  226.6248 H   0  0  0  0  0  0  0  0  0  0  0  0
  141.4401   70.4051  229.2878 H   0  0  0  0  0  0  0  0  0  0  0  0
  141.5061   72.1401  227.4998 H   0  0  0  0  0  0  0  0  0  0  0  0
  1  2  2  0
  2  3  1  0
  3  4  1  0
  4  5  1  0
  5  6  2  0
  5  7  1  0
  7  8  1  0
  8  9  1  0
  9 10  1  0
 10 11  1  0
 11 12  2  0
 12 13  1  0
 13 14  2  0
 14 15  1  0
 14 16  1  0
 16 17  2  0
  2 18  1  0
 18 19  2  0
 19 20  1  0
 20 21  2  0
 21 22  1  0
 22 23  2  0
 23 24  1  0
 23 25  1  0
 25 26  2  0
 26 27  1  0
 27 28  2  0
 10  7  1  0
 17 11  1  0
 28 18  1  0
 27 21  1  0
  3 29  1  0
  4 30  1  0
  4 31  1  0
  8 32  1  0
  8 33  1  0
  9 34  1  0
  9 35  1  0
 10 36  1  6
 12 37  1  0
 13 38  1  0
 16 39  1  0
 17 40  1  0
 19 41  1  0
 20 42  1  0
 22 43  1  0
 25 44  1  0
 26 45  1  0
M  END
>  <smiles>  (35) 
O=C(NCC(=O)N1CCC1c1ccc(Cl)cc1)c1ccc2cc(F)ccc2n1

>  <score_type>  (35) 
oracle

>  <origin>  (35) 
autodockgpu

>  <m_score__min__energy>  (35) 
-8.9700000000000006

>  <m_primary>  (35) 
energy

>  <rmsd>  (35) 
2.863590343241842

>  <m_score__min__rmsd>  (35) 
2.863590343241842

>  <meeko>  (35) 
{"free_energy": -8.88, "intermolecular_energy": -10.37, "internal_energy": -0.94, "cluster_size": 42, "cluster_id": 1, "rank_in_cluster": 11}

>  <energy>  (35) 
-8.22

>  <cluster_rmsd>  (35) 
1.53

>  <cluster>  (35) 
1

$$$$

     RDKit          3D

 45 48  0  0  0  0  0  0  0  0999 V2000
  138.7410   70.9380  221.6760 O   0  0  0  0  0  0  0  0  0  0  0  0
  139.2590   71.4000  222.7250 C   0  0  0  0  0  0  0  0  0  0  0  0
  139.6150   72.8070  222.7070 N   0  0  0  0  0  0  0  0  0  0  0  0
  139.3470   73.5200  221.5170 C   0  0  0  0  0  0  0  0  0  0  0  0
  139.8620   74.8740  221.3700 C   0  0  0  0  0  0  0  0  0  0  0  0
  141.1530   74.9610  221.3470 O   0  0  0  0  0  0  0  0  0  0  0  0
  139.1310   76.0750  221.2500 N   0  0  0  0  0  0  0  0  0  0  0  0
  138.6020   77.0270  220.3100 C   0  0  0  0  0  0  0  0  0  0  0  0
  137.5060   77.3220  221.3560 C   0  0  0  0  0  0  0  0  0  0  0  0
  138.5720   76.9410  222.3140 C   0  0  2  0  0  0  0  0  0  0  0  0
  139.5240   77.9910  222.7070 C   0  0  0  0  0  0  0  0  0  0  0  0
  140.8680   77.6950  222.6660 C   0  0  0  0  0  0  0  0  0  0  0  0
  141.8150   78.6510  223.0280 C   0  0  0  0  0  0  0  0  0  0  0  0
  141.4450   79.9170  223.4370 C   0  0  0  0  0  0  0  0  0  0  0  0
  142.6410   81.1150  223.8900 Cl  0  0  0  0  0  0  0  0  0  0  0  0
  140.1100   80.2060  223.4750 C   0  0  0  0  0  0  0  0  0  0  0  0
  139.1730   79.2580  223.1160 C   0  0  0  0  0  0  0  0  0  0  0  0
  139.5060   70.6030  223.9190 C   0  0  0  0  0  0  0  0  0  0  0  0
  139.1130   69.2810  223.8790 C   0  0  0  0  0  0  0  0  0  0  0  0
  139.2980   68.4370  224.9500 C   0  0  0  0  0  0  0  0  0  0  0  0
  139.8920   68.9530  226.0720 C   0  0  0  0  0  0  0  0  0  0  0  0
  140.0740   68.0980  227.1420 C   0  0  0  0  0  0  0  0  0  0  0  0
  140.6750   68.6030  228.2910 C   0  0  0  0  0  0  0  0  0  0  0  0
  140.8820   67.8140  229.3760 F   0  0  0  0  0  0  0  0  0  0  0  0
  141.0590   69.9110  228.3180 C   0  0  0  0  0  0  0  0  0  0  0  0
  140.8760   70.7800  227.2360 C   0  0  0  0  0  0  0  0  0  0  0  0
  140.2770   70.2760  226.0890 C   0  0  0  0  0  0  0  0  0  0  0  0
  140.0910   71.1050  225.0290 N   0  0  0  0  0  0  0  0  0  0  0  0
  140.0320   73.1500  223.5910 H   0  0  0  0  0  0  0  0  0  0  0  0
  139.7593   72.9272  220.6872 H   0  0  0  0  0  0  0  0  0  0  0  0
  138.2554   73.6550  221.5326 H   0  0  0  0  0  0  0  0  0  0  0  0
  139.2674   77.8742  220.0876 H   0  0  0  0  0  0  0  0  0  0  0  0
  138.3608   76.7517  219.2727 H   0  0  0  0  0  0  0  0  0  0  0  0
  137.1694   78.3678  221.4102 H   0  0  0  0  0  0  0  0  0  0  0  0
  136.5021   76.8726  221.3403 H   0  0  0  0  0  0  0  0  0  0  0  0
  138.2923   76.5877  223.3175 H   0  0  0  0  0  0  0  0  0  0  0  0
  141.1969   76.6957  222.3449 H   0  0  0  0  0  0  0  0  0  0  0  0
  142.8830   78.3909  222.9870 H   0  0  0  0  0  0  0  0  0  0  0  0
  139.7784   81.2048  223.7951 H   0  0  0  0  0  0  0  0  0  0  0  0
  138.1066   79.5246  223.1582 H   0  0  0  0  0  0  0  0  0  0  0  0
  138.6389   68.8911  222.9662 H   0  0  0  0  0  0  0  0  0  0  0  0
  138.9802   67.3848  224.9070 H   0  0  0  0  0  0  0  0  0  0  0  0
  139.7528   67.0474  227.0871 H   0  0  0  0  0  0  0  0  0  0  0  0
  141.5337   70.3007  229.2306 H   0  0  0  0  0  0  0  0  0  0  0  0
  141.1971   71.8306  227.2926 H   0  0  0  0  0  0  0  0  0  0  0  0
  1  2  2  0
  2  3  1  0
  3  4  1  0
  4  5  1  0
  5  6  2  0
  5  7  1  0
  7  8  1  0
  8  9  1  0
  9 10  1  0
 10 11  1  0
 11 12  2  0
 12 13  1  0
 13 14  2  0
 14 15  1  0
 14 16  1  0
 16 17  2  0
  2 18  1  0
 18 19  2  0
 19 20  1  0
 20 21  2  0
 21 22  1  0
 22 23  2  0
 23 24  1  0
 23 25  1  0
 25 26  2  0
 26 27  1  0
 27 28  2  0
 10  7  1  0
 17 11  1  0
 28 18  1  0
 27 21  1  0
  3 29  1  0
  4 30  1  0
  4 31  1  0
  8 32  1  0
  8 33  1  0
  9 34  1  0
  9 35  1  0
 10 36  1  1
 12 37  1  0
 13 38  1  0
 16 39  1  0
 17 40  1  0
 19 41  1  0
 20 42  1  0
 22 43  1  0
 25 44  1  0
 26 45  1  0
M  END
>  <smiles>  (36) 
O=C(NCC(=O)N1CCC1c1ccc(Cl)cc1)c1ccc2cc(F)ccc2n1

>  <score_type>  (36) 
oracle

>  <origin>  (36) 
autodockgpu

>  <m_score__min__energy>  (36) 
-8.9700000000000006

>  <m_primary>  (36) 
energy

>  <rmsd>  (36) 
2.5271790666287126

>  <m_score__min__rmsd>  (36) 
2.5271790666287126

>  <meeko>  (36) 
{"free_energy": -8.44, "intermolecular_energy": -9.93, "internal_energy": -1.28, "cluster_size": 42, "cluster_id": 1, "rank_in_cluster": 30}

>  <energy>  (36) 
-8.2

>  <cluster_rmsd>  (36) 
1.53

>  <cluster>  (36) 
1

$$$$

     RDKit          3D

 45 48  0  0  0  0  0  0  0  0999 V2000
  141.0560   72.9420  222.3300 O   0  0  0  0  0  0  0  0  0  0  0  0
  140.0290   72.4890  222.8990 C   0  0  0  0  0  0  0  0  0  0  0  0
  138.7510   72.9940  222.4310 N   0  0  0  0  0  0  0  0  0  0  0  0
  138.7830   73.9420  221.3840 C   0  0  0  0  0  0  0  0  0  0  0  0
  139.4230   75.2300  221.6130 C   0  0  0  0  0  0  0  0  0  0  0  0
  138.8550   75.9630  222.5170 O   0  0  0  0  0  0  0  0  0  0  0  0
  140.5680   75.7570  220.9780 N   0  0  0  0  0  0  0  0  0  0  0  0
  141.9530   75.5090  220.6850 C   0  0  0  0  0  0  0  0  0  0  0  0
  141.7540   76.3820  219.4270 C   0  0  0  0  0  0  0  0  0  0  0  0
  140.7350   77.0490  220.2720 C   0  0  2  0  0  0  0  0  0  0  0  0
  141.2080   78.1020  221.1840 C   0  0  0  0  0  0  0  0  0  0  0  0
  141.0890   77.8860  222.5390 C   0  0  0  0  0  0  0  0  0  0  0  0
  141.5200   78.8500  223.4490 C   0  0  0  0  0  0  0  0  0  0  0  0
  142.0760   80.0430  223.0320 C   0  0  0  0  0  0  0  0  0  0  0  0
  142.6160   81.2500  224.1810 Cl  0  0  0  0  0  0  0  0  0  0  0  0
  142.1920   80.2510  221.6850 C   0  0  0  0  0  0  0  0  0  0  0  0
  141.7650   79.2960  220.7850 C   0  0  0  0  0  0  0  0  0  0  0  0
  140.0730   71.5070  223.9750 C   0  0  0  0  0  0  0  0  0  0  0  0
  139.5680   70.2540  223.6970 C   0  0  0  0  0  0  0  0  0  0  0  0
  139.5590   69.2510  224.6390 C   0  0  0  0  0  0  0  0  0  0  0  0
  140.0730   69.5350  225.8770 C   0  0  0  0  0  0  0  0  0  0  0  0
  140.0600   68.5220  226.8160 C   0  0  0  0  0  0  0  0  0  0  0  0
  140.5780   68.7920  228.0790 C   0  0  0  0  0  0  0  0  0  0  0  0
  140.5940   67.8380  229.0460 F   0  0  0  0  0  0  0  0  0  0  0  0
  141.0730   70.0340  228.3420 C   0  0  0  0  0  0  0  0  0  0  0  0
  141.0880   71.0630  227.3930 C   0  0  0  0  0  0  0  0  0  0  0  0
  140.5730   70.7940  226.1320 C   0  0  0  0  0  0  0  0  0  0  0  0
  140.5770   71.7810  225.1980 N   0  0  0  0  0  0  0  0  0  0  0  0
  137.9320   72.5910  222.9200 H   0  0  0  0  0  0  0  0  0  0  0  0
  139.3041   73.4697  220.5382 H   0  0  0  0  0  0  0  0  0  0  0  0
  137.7245   74.1987  221.2302 H   0  0  0  0  0  0  0  0  0  0  0  0
  142.6607   75.9163  221.4221 H   0  0  0  0  0  0  0  0  0  0  0  0
  142.3657   74.4908  220.6306 H   0  0  0  0  0  0  0  0  0  0  0  0
  142.6142   77.0042  219.1390 H   0  0  0  0  0  0  0  0  0  0  0  0
  141.5542   75.9795  218.4230 H   0  0  0  0  0  0  0  0  0  0  0  0
  139.9156   77.6032  219.7908 H   0  0  0  0  0  0  0  0  0  0  0  0
  140.6507   76.9461  222.9057 H   0  0  0  0  0  0  0  0  0  0  0  0
  141.4145   78.6553  224.5265 H   0  0  0  0  0  0  0  0  0  0  0  0
  142.6304   81.1897  221.3152 H   0  0  0  0  0  0  0  0  0  0  0  0
  141.8737   79.4963  219.7089 H   0  0  0  0  0  0  0  0  0  0  0  0
  139.1615   70.0510  222.6952 H   0  0  0  0  0  0  0  0  0  0  0  0
  139.1532   68.2555  224.4062 H   0  0  0  0  0  0  0  0  0  0  0  0
  139.6518   67.5301  226.5723 H   0  0  0  0  0  0  0  0  0  0  0  0
  141.4787   70.2370  229.3441 H   0  0  0  0  0  0  0  0  0  0  0  0
  141.4955   72.0547  227.6389 H   0  0  0  0  0  0  0  0  0  0  0  0
  1  2  2  0
  2  3  1  0
  3  4  1  0
  4  5  1  0
  5  6  2  0
  5  7  1  0
  7  8  1  0
  8  9  1  0
  9 10  1  0
 10 11  1  0
 11 12  2  0
 12 13  1  0
 13 14  2  0
 14 15  1  0
 14 16  1  0
 16 17  2  0
  2 18  1  0
 18 19  2  0
 19 20  1  0
 20 21  2  0
 21 22  1  0
 22 23  2  0
 23 24  1  0
 23 25  1  0
 25 26  2  0
 26 27  1  0
 27 28  2  0
 10  7  1  0
 17 11  1  0
 28 18  1  0
 27 21  1  0
  3 29  1  0
  4 30  1  0
  4 31  1  0
  8 32  1  0
  8 33  1  0
  9 34  1  0
  9 35  1  0
 10 36  1  6
 12 37  1  0
 13 38  1  0
 16 39  1  0
 17 40  1  0
 19 41  1  0
 20 42  1  0
 22 43  1  0
 25 44  1  0
 26 45  1  0
M  END
>  <smiles>  (37) 
O=C(NCC(=O)N1CCC1c1ccc(Cl)cc1)c1ccc2cc(F)ccc2n1

>  <score_type>  (37) 
oracle

>  <origin>  (37) 
autodockgpu

>  <m_score__min__energy>  (37) 
-8.9700000000000006

>  <m_primary>  (37) 
energy

>  <rmsd>  (37) 
2.5657544229331237

>  <m_score__min__rmsd>  (37) 
2.5657544229331237

>  <meeko>  (37) 
{"free_energy": -8.96, "intermolecular_energy": -10.45, "internal_energy": -1.05, "cluster_size": 42, "cluster_id": 1, "rank_in_cluster": 2}

>  <energy>  (37) 
-8.17

>  <cluster_rmsd>  (37) 
1.48

>  <cluster>  (37) 
1

$$$$

     RDKit          3D

 45 48  0  0  0  0  0  0  0  0999 V2000
  137.7120   71.5360  223.0680 O   0  0  0  0  0  0  0  0  0  0  0  0
  138.8870   71.5120  223.5180 C   0  0  0  0  0  0  0  0  0  0  0  0
  139.8310   72.4390  222.9200 N   0  0  0  0  0  0  0  0  0  0  0  0
  139.3400   73.2760  221.8920 C   0  0  0  0  0  0  0  0  0  0  0  0
  139.9190   74.6010  221.7210 C   0  0  0  0  0  0  0  0  0  0  0  0
  141.2050   74.6520  221.8570 O   0  0  0  0  0  0  0  0  0  0  0  0
  139.2520   75.8100  221.4280 N   0  0  0  0  0  0  0  0  0  0  0  0
  138.8380   76.6820  220.3620 C   0  0  0  0  0  0  0  0  0  0  0  0
  137.6800   77.1190  221.2840 C   0  0  0  0  0  0  0  0  0  0  0  0
  138.6520   76.7970  222.3560 C   0  0  2  0  0  0  0  0  0  0  0  0
  139.6160   77.8460  222.7210 C   0  0  0  0  0  0  0  0  0  0  0  0
  139.1230   79.0760  223.0960 C   0  0  0  0  0  0  0  0  0  0  0  0
  139.9910   80.1060  223.4530 C   0  0  0  0  0  0  0  0  0  0  0  0
  141.3600   79.9360  223.4440 C   0  0  0  0  0  0  0  0  0  0  0  0
  142.4460   81.2360  223.8930 Cl  0  0  0  0  0  0  0  0  0  0  0  0
  141.8440   78.7130  223.0710 C   0  0  0  0  0  0  0  0  0  0  0  0
  140.9840   77.6930  222.7180 C   0  0  0  0  0  0  0  0  0  0  0  0
  139.3220   70.6190  224.5840 C   0  0  0  0  0  0  0  0  0  0  0  0
  138.9950   69.2860  224.4530 C   0  0  0  0  0  0  0  0  0  0  0  0
  139.3550   68.3540  225.4000 C   0  0  0  0  0  0  0  0  0  0  0  0
  140.0580   68.7950  226.4910 C   0  0  0  0  0  0  0  0  0  0  0  0
  140.4150   67.8530  227.4360 C   0  0  0  0  0  0  0  0  0  0  0  0
  141.1290   68.2810  228.5520 C   0  0  0  0  0  0  0  0  0  0  0  0
  141.5100   67.4040  229.5160 F   0  0  0  0  0  0  0  0  0  0  0  0
  141.4460   69.6010  228.6700 C   0  0  0  0  0  0  0  0  0  0  0  0
  141.0850   70.5580  227.7140 C   0  0  0  0  0  0  0  0  0  0  0  0
  140.3740   70.1320  226.6010 C   0  0  0  0  0  0  0  0  0  0  0  0
  140.0140   71.0460  225.6630 N   0  0  0  0  0  0  0  0  0  0  0  0
  140.7820   72.3930  223.3230 H   0  0  0  0  0  0  0  0  0  0  0  0
  139.4819   72.7377  220.9432 H   0  0  0  0  0  0  0  0  0  0  0  0
  138.3016   73.4797  222.1923 H   0  0  0  0  0  0  0  0  0  0  0  0
  139.5548   77.4783  220.1127 H   0  0  0  0  0  0  0  0  0  0  0  0
  138.6641   76.3138  219.3401 H   0  0  0  0  0  0  0  0  0  0  0  0
  137.3865   78.1765  221.2102 H   0  0  0  0  0  0  0  0  0  0  0  0
  136.6615   76.7068  221.2316 H   0  0  0  0  0  0  0  0  0  0  0  0
  138.2818   76.5552  223.3632 H   0  0  0  0  0  0  0  0  0  0  0  0
  138.0365   79.2466  223.1138 H   0  0  0  0  0  0  0  0  0  0  0  0
  139.5739   81.0797  223.7496 H   0  0  0  0  0  0  0  0  0  0  0  0
  142.9302   78.5402  223.0520 H   0  0  0  0  0  0  0  0  0  0  0  0
  141.4075   76.7215  222.4233 H   0  0  0  0  0  0  0  0  0  0  0  0
  138.4309   68.9582  223.5674 H   0  0  0  0  0  0  0  0  0  0  0  0
  139.0880   67.2931  225.2853 H   0  0  0  0  0  0  0  0  0  0  0  0
  140.1429   66.7946  227.3104 H   0  0  0  0  0  0  0  0  0  0  0  0
  142.0104   69.9291  229.5553 H   0  0  0  0  0  0  0  0  0  0  0  0
  141.3569   71.6162  227.8413 H   0  0  0  0  0  0  0  0  0  0  0  0
  1  2  2  0
  2  3  1  0
  3  4  1  0
  4  5  1  0
  5  6  2  0
  5  7  1  0
  7  8  1  0
  8  9  1  0
  9 10  1  0
 10 11  1  0
 11 12  2  0
 12 13  1  0
 13 14  2  0
 14 15  1  0
 14 16  1  0
 16 17  2  0
  2 18  1  0
 18 19  2  0
 19 20  1  0
 20 21  2  0
 21 22  1  0
 22 23  2  0
 23 24  1  0
 23 25  1  0
 25 26  2  0
 26 27  1  0
 27 28  2  0
 10  7  1  0
 17 11  1  0
 28 18  1  0
 27 21  1  0
  3 29  1  0
  4 30  1  0
  4 31  1  0
  8 32  1  0
  8 33  1  0
  9 34  1  0
  9 35  1  0
 10 36  1  1
 12 37  1  0
 13 38  1  0
 16 39  1  0
 17 40  1  0
 19 41  1  0
 20 42  1  0
 22 43  1  0
 25 44  1  0
 26 45  1  0
M  END
>  <smiles>  (38) 
O=C(NCC(=O)N1CCC1c1ccc(Cl)cc1)c1ccc2cc(F)ccc2n1

>  <score_type>  (38) 
oracle

>  <origin>  (38) 
autodockgpu

>  <m_score__min__energy>  (38) 
-8.9700000000000006

>  <m_primary>  (38) 
energy

>  <rmsd>  (38) 
2.914513391845098

>  <m_score__min__rmsd>  (38) 
2.914513391845098

>  <meeko>  (38) 
{"free_energy": -8.38, "intermolecular_energy": -9.87, "internal_energy": -1.21, "cluster_size": 42, "cluster_id": 1, "rank_in_cluster": 33}

>  <energy>  (38) 
-8.09

>  <cluster_rmsd>  (38) 
1.73

>  <cluster>  (38) 
1

$$$$

     RDKit          3D

 45 48  0  0  0  0  0  0  0  0999 V2000
  141.0270   71.9700  221.3570 O   0  0  0  0  0  0  0  0  0  0  0  0
  140.3210   72.3130  222.3400 C   0  0  0  0  0  0  0  0  0  0  0  0
  139.6360   73.5890  222.2340 N   0  0  0  0  0  0  0  0  0  0  0  0
  139.8270   74.3200  221.0390 C   0  0  0  0  0  0  0  0  0  0  0  0
  138.7600   75.1860  220.5590 C   0  0  0  0  0  0  0  0  0  0  0  0
  138.4350   75.0070  219.3190 O   0  0  0  0  0  0  0  0  0  0  0  0
  138.0540   76.1750  221.2760 N   0  0  0  0  0  0  0  0  0  0  0  0
  137.0610   77.2090  221.1620 C   0  0  0  0  0  0  0  0  0  0  0  0
  136.7360   76.9420  222.6480 C   0  0  0  0  0  0  0  0  0  0  0  0
  138.1650   76.5560  222.7040 C   0  0  2  0  0  0  0  0  0  0  0  0
  139.1430   77.6370  222.8970 C   0  0  0  0  0  0  0  0  0  0  0  0
  140.4680   77.3660  222.6380 C   0  0  0  0  0  0  0  0  0  0  0  0
  141.4380   78.3530  222.8030 C   0  0  0  0  0  0  0  0  0  0  0  0
  141.1110   79.6250  223.2280 C   0  0  0  0  0  0  0  0  0  0  0  0
  142.3350   80.8620  223.4350 Cl  0  0  0  0  0  0  0  0  0  0  0  0
  139.7940   79.8890  223.4840 C   0  0  0  0  0  0  0  0  0  0  0  0
  138.8350   78.9100  223.3190 C   0  0  0  0  0  0  0  0  0  0  0  0
  140.1690   71.5050  223.5420 C   0  0  0  0  0  0  0  0  0  0  0  0
  139.4990   70.3060  223.4080 C   0  0  0  0  0  0  0  0  0  0  0  0
  139.2990   69.4640  224.4780 C   0  0  0  0  0  0  0  0  0  0  0  0
  139.7890   69.8540  225.6960 C   0  0  0  0  0  0  0  0  0  0  0  0
  139.5830   69.0030  226.7640 C   0  0  0  0  0  0  0  0  0  0  0  0
  140.0730   69.3820  228.0100 C   0  0  0  0  0  0  0  0  0  0  0  0
  139.9030   68.5890  229.0990 F   0  0  0  0  0  0  0  0  0  0  0  0
  140.7330   70.5680  228.1300 C   0  0  0  0  0  0  0  0  0  0  0  0
  140.9440   71.4340  227.0500 C   0  0  0  0  0  0  0  0  0  0  0  0
  140.4550   71.0560  225.8070 C   0  0  0  0  0  0  0  0  0  0  0  0
  140.6490   71.8840  224.7470 N   0  0  0  0  0  0  0  0  0  0  0  0
  139.0610   73.8310  223.0590 H   0  0  0  0  0  0  0  0  0  0  0  0
  140.7133   74.9542  221.1882 H   0  0  0  0  0  0  0  0  0  0  0  0
  139.9012   73.5420  220.2649 H   0  0  0  0  0  0  0  0  0  0  0  0
  137.4611   78.2115  220.9502 H   0  0  0  0  0  0  0  0  0  0  0  0
  136.2857   77.1911  220.3819 H   0  0  0  0  0  0  0  0  0  0  0  0
  136.4587   77.8263  223.2405 H   0  0  0  0  0  0  0  0  0  0  0  0
  135.9108   76.3017  222.9929 H   0  0  0  0  0  0  0  0  0  0  0  0
  138.5080   75.8796  223.5007 H   0  0  0  0  0  0  0  0  0  0  0  0
  140.7632   76.3623  222.2981 H   0  0  0  0  0  0  0  0  0  0  0  0
  142.4899   78.1125  222.5893 H   0  0  0  0  0  0  0  0  0  0  0  0
  139.4958   80.8915  223.8248 H   0  0  0  0  0  0  0  0  0  0  0  0
  137.7846   79.1569  223.5330 H   0  0  0  0  0  0  0  0  0  0  0  0
  139.1144   70.0155  222.4192 H   0  0  0  0  0  0  0  0  0  0  0  0
  138.7639   68.5103  224.3591 H   0  0  0  0  0  0  0  0  0  0  0  0
  139.0463   68.0517  226.6333 H   0  0  0  0  0  0  0  0  0  0  0  0
  141.1171   70.8580  229.1191 H   0  0  0  0  0  0  0  0  0  0  0  0
  141.4809   72.3849  227.1825 H   0  0  0  0  0  0  0  0  0  0  0  0
  1  2  2  0
  2  3  1  0
  3  4  1  0
  4  5  1  0
  5  6  2  0
  5  7  1  0
  7  8  1  0
  8  9  1  0
  9 10  1  0
 10 11  1  0
 11 12  2  0
 12 13  1  0
 13 14  2  0
 14 15  1  0
 14 16  1  0
 16 17  2  0
  2 18  1  0
 18 19  2  0
 19 20  1  0
 20 21  2  0
 21 22  1  0
 22 23  2  0
 23 24  1  0
 23 25  1  0
 25 26  2  0
 26 27  1  0
 27 28  2  0
 10  7  1  0
 17 11  1  0
 28 18  1  0
 27 21  1  0
  3 29  1  0
  4 30  1  0
  4 31  1  0
  8 32  1  0
  8 33  1  0
  9 34  1  0
  9 35  1  0
 10 36  1  1
 12 37  1  0
 13 38  1  0
 16 39  1  0
 17 40  1  0
 19 41  1  0
 20 42  1  0
 22 43  1  0
 25 44  1  0
 26 45  1  0
M  END
>  <smiles>  (39) 
O=C(NCC(=O)N1CCC1c1ccc(Cl)cc1)c1ccc2cc(F)ccc2n1

>  <score_type>  (39) 
oracle

>  <origin>  (39) 
autodockgpu

>  <m_score__min__energy>  (39) 
-8.9700000000000006

>  <m_primary>  (39) 
energy

>  <rmsd>  (39) 
2.9067281415243165

>  <m_score__min__rmsd>  (39) 
2.9067281415243165

>  <meeko>  (39) 
{"free_energy": -8.2, "intermolecular_energy": -9.7, "internal_energy": -1.15, "cluster_size": 42, "cluster_id": 1, "rank_in_cluster": 36}

>  <energy>  (39) 
-8.08

>  <cluster_rmsd>  (39) 
1.48

>  <cluster>  (39) 
1

$$$$

     RDKit          3D

 45 48  0  0  0  0  0  0  0  0999 V2000
  141.5200   73.3810  221.0160 O   0  0  0  0  0  0  0  0  0  0  0  0
  140.7800   74.2280  221.5790 C   0  0  0  0  0  0  0  0  0  0  0  0
  139.6280   73.7110  222.2960 N   0  0  0  0  0  0  0  0  0  0  0  0
  139.4500   72.3090  222.2920 C   0  0  0  0  0  0  0  0  0  0  0  0
  138.2170   71.7500  222.8270 C   0  0  0  0  0  0  0  0  0  0  0  0
  137.2730   72.6130  223.0270 O   0  0  0  0  0  0  0  0  0  0  0  0
  137.9380   70.4030  223.1430 N   0  0  0  0  0  0  0  0  0  0  0  0
  136.8980   69.4920  223.5380 C   0  0  0  0  0  0  0  0  0  0  0  0
  137.7090   68.3900  222.8220 C   0  0  0  0  0  0  0  0  0  0  0  0
  138.8590   69.2440  223.2000 C   0  0  2  0  0  0  0  0  0  0  0  0
  139.4100   69.0630  224.5520 C   0  0  0  0  0  0  0  0  0  0  0  0
  139.3760   67.8000  225.1010 C   0  0  0  0  0  0  0  0  0  0  0  0
  139.8840   67.5700  226.3780 C   0  0  0  0  0  0  0  0  0  0  0  0
  140.4340   68.5870  227.1330 C   0  0  0  0  0  0  0  0  0  0  0  0
  141.0710   68.2910  228.7380 Cl  0  0  0  0  0  0  0  0  0  0  0  0
  140.4660   69.8380  226.5820 C   0  0  0  0  0  0  0  0  0  0  0  0
  139.9630   70.0640  225.3170 C   0  0  0  0  0  0  0  0  0  0  0  0
  141.0270   75.6640  221.5410 C   0  0  0  0  0  0  0  0  0  0  0  0
  141.5640   76.1740  220.3770 C   0  0  0  0  0  0  0  0  0  0  0  0
  141.8380   77.5150  220.2320 C   0  0  0  0  0  0  0  0  0  0  0  0
  141.5570   78.3400  221.2890 C   0  0  0  0  0  0  0  0  0  0  0  0
  141.8350   79.6850  221.1330 C   0  0  0  0  0  0  0  0  0  0  0  0
  141.5570   80.5390  222.1960 C   0  0  0  0  0  0  0  0  0  0  0  0
  141.8070   81.8710  222.1060 F   0  0  0  0  0  0  0  0  0  0  0  0
  141.0260   80.0230  223.3400 C   0  0  0  0  0  0  0  0  0  0  0  0
  140.7430   78.6620  223.5010 C   0  0  0  0  0  0  0  0  0  0  0  0
  141.0190   77.8090  222.4410 C   0  0  0  0  0  0  0  0  0  0  0  0
  140.7530   76.4840  222.5790 N   0  0  0  0  0  0  0  0  0  0  0  0
  139.0500   74.4390  222.7500 H   0  0  0  0  0  0  0  0  0  0  0  0
  139.5260   71.9780  221.2458 H   0  0  0  0  0  0  0  0  0  0  0  0
  140.2248   71.9440  222.9822 H   0  0  0  0  0  0  0  0  0  0  0  0
  136.7927   69.3551  224.6244 H   0  0  0  0  0  0  0  0  0  0  0  0
  135.8386   69.6799  223.3089 H   0  0  0  0  0  0  0  0  0  0  0  0
  137.6796   67.3961  223.2925 H   0  0  0  0  0  0  0  0  0  0  0  0
  137.5084   68.0445  221.7971 H   0  0  0  0  0  0  0  0  0  0  0  0
  139.7954   69.1682  222.6278 H   0  0  0  0  0  0  0  0  0  0  0  0
  138.9446   66.9667  224.5269 H   0  0  0  0  0  0  0  0  0  0  0  0
  139.8459   66.5529  226.7951 H   0  0  0  0  0  0  0  0  0  0  0  0
  140.8973   70.6732  227.1532 H   0  0  0  0  0  0  0  0  0  0  0  0
  140.0058   71.0829  224.9047 H   0  0  0  0  0  0  0  0  0  0  0  0
  141.7790   75.4905  219.5424 H   0  0  0  0  0  0  0  0  0  0  0  0
  142.2677   77.9106  219.2998 H   0  0  0  0  0  0  0  0  0  0  0  0
  142.2636   80.0692  220.1956 H   0  0  0  0  0  0  0  0  0  0  0  0
  140.8102   80.7068  224.1741 H   0  0  0  0  0  0  0  0  0  0  0  0
  140.3147   78.2795  224.4393 H   0  0  0  0  0  0  0  0  0  0  0  0
  1  2  2  0
  2  3  1  0
  3  4  1  0
  4  5  1  0
  5  6  2  0
  5  7  1  0
  7  8  1  0
  8  9  1  0
  9 10  1  0
 10 11  1  0
 11 12  2  0
 12 13  1  0
 13 14  2  0
 14 15  1  0
 14 16  1  0
 16 17  2  0
  2 18  1  0
 18 19  2  0
 19 20  1  0
 20 21  2  0
 21 22  1  0
 22 23  2  0
 23 24  1  0
 23 25  1  0
 25 26  2  0
 26 27  1  0
 27 28  2  0
 10  7  1  0
 17 11  1  0
 28 18  1  0
 27 21  1  0
  3 29  1  0
  4 30  1  0
  4 31  1  0
  8 32  1  0
  8 33  1  0
  9 34  1  0
  9 35  1  0
 10 36  1  6
 12 37  1  0
 13 38  1  0
 16 39  1  0
 17 40  1  0
 19 41  1  0
 20 42  1  0
 22 43  1  0
 25 44  1  0
 26 45  1  0
M  END
>  <smiles>  (40) 
O=C(NCC(=O)N1CCC1c1ccc(Cl)cc1)c1ccc2cc(F)ccc2n1

>  <score_type>  (40) 
oracle

>  <origin>  (40) 
autodockgpu

>  <m_score__min__energy>  (40) 
-8.9700000000000006

>  <m_primary>  (40) 
energy

>  <rmsd>  (40) 
8.733264389838983

>  <m_score__min__rmsd>  (40) 
8.733264389838983

>  <meeko>  (40) 
{"free_energy": -7.91, "intermolecular_energy": -9.41, "internal_energy": -1.39, "cluster_size": 5, "cluster_id": 2, "rank_in_cluster": 5}

>  <energy>  (40) 
-7.94

>  <cluster_rmsd>  (40) 
1.57

>  <cluster>  (40) 
1

$$$$

     RDKit          3D

 45 48  0  0  0  0  0  0  0  0999 V2000
  135.0520   68.5550  225.1780 O   0  0  0  0  0  0  0  0  0  0  0  0
  134.8950   69.6900  224.6590 C   0  0  0  0  0  0  0  0  0  0  0  0
  135.3370   69.8430  223.2850 N   0  0  0  0  0  0  0  0  0  0  0  0
  135.8980   68.7040  222.6640 C   0  0  0  0  0  0  0  0  0  0  0  0
  137.3450   68.5360  222.6670 C   0  0  0  0  0  0  0  0  0  0  0  0
  137.7530   67.3580  222.3170 O   0  0  0  0  0  0  0  0  0  0  0  0
  138.3310   69.4890  222.9990 N   0  0  0  0  0  0  0  0  0  0  0  0
  139.5960   70.0420  222.5980 C   0  0  0  0  0  0  0  0  0  0  0  0
  139.1460   71.3490  223.2870 C   0  0  0  0  0  0  0  0  0  0  0  0
  138.3850   70.4170  224.1530 C   0  0  2  0  0  0  0  0  0  0  0  0
  139.1050   69.8200  225.2880 C   0  0  0  0  0  0  0  0  0  0  0  0
  139.9770   70.6200  225.9940 C   0  0  0  0  0  0  0  0  0  0  0  0
  140.6860   70.1070  227.0790 C   0  0  0  0  0  0  0  0  0  0  0  0
  140.5430   68.7950  227.4820 C   0  0  0  0  0  0  0  0  0  0  0  0
  141.4380   68.1560  228.8470 Cl  0  0  0  0  0  0  0  0  0  0  0  0
  139.6760   68.0060  226.7780 C   0  0  0  0  0  0  0  0  0  0  0  0
  138.9750   68.5150  225.7040 C   0  0  0  0  0  0  0  0  0  0  0  0
  134.3050   70.8220  225.3620 C   0  0  0  0  0  0  0  0  0  0  0  0
  133.4110   70.5320  226.3720 C   0  0  0  0  0  0  0  0  0  0  0  0
  132.7950   71.5230  227.1010 C   0  0  0  0  0  0  0  0  0  0  0  0
  133.0980   72.8230  226.7930 C   0  0  0  0  0  0  0  0  0  0  0  0
  132.4750   73.8110  227.5300 C   0  0  0  0  0  0  0  0  0  0  0  0
  132.7700   75.1380  227.2320 C   0  0  0  0  0  0  0  0  0  0  0  0
  132.1910   76.1540  227.9210 F   0  0  0  0  0  0  0  0  0  0  0  0
  133.6550   75.4110  226.2330 C   0  0  0  0  0  0  0  0  0  0  0  0
  134.2890   74.4130  225.4830 C   0  0  0  0  0  0  0  0  0  0  0  0
  133.9950   73.0900  225.7810 C   0  0  0  0  0  0  0  0  0  0  0  0
  134.6000   72.1070  225.0640 N   0  0  0  0  0  0  0  0  0  0  0  0
  135.1840   70.7880  222.8930 H   0  0  0  0  0  0  0  0  0  0  0  0
  135.4705   67.8219  223.1632 H   0  0  0  0  0  0  0  0  0  0  0  0
  135.6511   68.8363  221.6003 H   0  0  0  0  0  0  0  0  0  0  0  0
  140.4747   69.5602  223.0517 H   0  0  0  0  0  0  0  0  0  0  0  0
  139.9382   70.0203  221.5528 H   0  0  0  0  0  0  0  0  0  0  0  0
  139.9412   71.9211  223.7873 H   0  0  0  0  0  0  0  0  0  0  0  0
  138.6982   72.2025  222.7570 H   0  0  0  0  0  0  0  0  0  0  0  0
  137.5010   70.7861  224.6937 H   0  0  0  0  0  0  0  0  0  0  0  0
  140.1146   71.6708  225.6993 H   0  0  0  0  0  0  0  0  0  0  0  0
  141.3766   70.7643  227.6276 H   0  0  0  0  0  0  0  0  0  0  0  0
  139.5360   66.9550  227.0708 H   0  0  0  0  0  0  0  0  0  0  0  0
  138.2861   67.8523  225.1597 H   0  0  0  0  0  0  0  0  0  0  0  0
  133.1846   69.4801  226.6006 H   0  0  0  0  0  0  0  0  0  0  0  0
  132.0834   71.2797  227.9038 H   0  0  0  0  0  0  0  0  0  0  0  0
  131.7651   73.5560  228.3306 H   0  0  0  0  0  0  0  0  0  0  0  0
  133.8818   76.4630  226.0053 H   0  0  0  0  0  0  0  0  0  0  0  0
  134.9982   74.6698  224.6823 H   0  0  0  0  0  0  0  0  0  0  0  0
  1  2  2  0
  2  3  1  0
  3  4  1  0
  4  5  1  0
  5  6  2  0
  5  7  1  0
  7  8  1  0
  8  9  1  0
  9 10  1  0
 10 11  1  0
 11 12  2  0
 12 13  1  0
 13 14  2  0
 14 15  1  0
 14 16  1  0
 16 17  2  0
  2 18  1  0
 18 19  2  0
 19 20  1  0
 20 21  2  0
 21 22  1  0
 22 23  2  0
 23 24  1  0
 23 25  1  0
 25 26  2  0
 26 27  1  0
 27 28  2  0
 10  7  1  0
 17 11  1  0
 28 18  1  0
 27 21  1  0
  3 29  1  0
  4 30  1  0
  4 31  1  0
  8 32  1  0
  8 33  1  0
  9 34  1  0
  9 35  1  0
 10 36  1  1
 12 37  1  0
 13 38  1  0
 16 39  1  0
 17 40  1  0
 19 41  1  0
 20 42  1  0
 22 43  1  0
 25 44  1  0
 26 45  1  0
M  END
>  <smiles>  (41) 
O=C(NCC(=O)N1CCC1c1ccc(Cl)cc1)c1ccc2cc(F)ccc2n1

>  <score_type>  (41) 
oracle

>  <origin>  (41) 
autodockgpu

>  <m_score__min__energy>  (41) 
-8.9700000000000006

>  <m_primary>  (41) 
energy

>  <rmsd>  (41) 
7.7417278090815635

>  <m_score__min__rmsd>  (41) 
7.7417278090815635

>  <meeko>  (41) 
{"free_energy": -7.22, "intermolecular_energy": -8.71, "internal_energy": -1.74, "cluster_size": 2, "cluster_id": 4, "rank_in_cluster": 2}

>  <energy>  (41) 
-7.91

>  <cluster_rmsd>  (41) 
1.23

>  <cluster>  (41) 
1

$$$$

     RDKit          3D

 45 48  0  0  0  0  0  0  0  0999 V2000
  140.7650   71.8890  221.2020 O   0  0  0  0  0  0  0  0  0  0  0  0
  140.3180   72.3490  222.2840 C   0  0  0  0  0  0  0  0  0  0  0  0
  139.9380   73.7500  222.2880 N   0  0  0  0  0  0  0  0  0  0  0  0
  140.1070   74.4610  221.0780 C   0  0  0  0  0  0  0  0  0  0  0  0
  141.4540   74.7610  220.6140 C   0  0  0  0  0  0  0  0  0  0  0  0
  142.3450   73.8800  220.9350 O   0  0  0  0  0  0  0  0  0  0  0  0
  141.8880   75.8780  219.8690 N   0  0  0  0  0  0  0  0  0  0  0  0
  142.9970   76.4300  219.1390 C   0  0  0  0  0  0  0  0  0  0  0  0
  141.9530   77.2020  218.3050 C   0  0  0  0  0  0  0  0  0  0  0  0
  141.1670   77.1350  219.5590 C   0  0  2  0  0  0  0  0  0  0  0  0
  141.4310   78.1700  220.5700 C   0  0  0  0  0  0  0  0  0  0  0  0
  141.3080   77.8240  221.8970 C   0  0  0  0  0  0  0  0  0  0  0  0
  141.5460   78.7640  222.8980 C   0  0  0  0  0  0  0  0  0  0  0  0
  141.9110   80.0620  222.6010 C   0  0  0  0  0  0  0  0  0  0  0  0
  142.2090   81.2390  223.8640 Cl  0  0  0  0  0  0  0  0  0  0  0  0
  142.0320   80.3990  221.2810 C   0  0  0  0  0  0  0  0  0  0  0  0
  141.7960   79.4670  220.2910 C   0  0  0  0  0  0  0  0  0  0  0  0
  140.1700   71.5530  223.4960 C   0  0  0  0  0  0  0  0  0  0  0  0
  139.5020   70.3520  223.3760 C   0  0  0  0  0  0  0  0  0  0  0  0
  139.3060   69.5210  224.4550 C   0  0  0  0  0  0  0  0  0  0  0  0
  139.7990   69.9250  225.6680 C   0  0  0  0  0  0  0  0  0  0  0  0
  139.5970   69.0840  226.7460 C   0  0  0  0  0  0  0  0  0  0  0  0
  140.0910   69.4770  227.9860 C   0  0  0  0  0  0  0  0  0  0  0  0
  139.9250   68.6950  229.0840 F   0  0  0  0  0  0  0  0  0  0  0  0
  140.7490   70.6660  228.0920 C   0  0  0  0  0  0  0  0  0  0  0  0
  140.9550   71.5200  227.0020 C   0  0  0  0  0  0  0  0  0  0  0  0
  140.4640   71.1280  225.7650 C   0  0  0  0  0  0  0  0  0  0  0  0
  140.6540   71.9450  224.6950 N   0  0  0  0  0  0  0  0  0  0  0  0
  139.5690   74.0860  223.1940 H   0  0  0  0  0  0  0  0  0  0  0  0
  139.6184   73.8719  220.2879 H   0  0  0  0  0  0  0  0  0  0  0  0
  139.6774   75.4505  221.2932 H   0  0  0  0  0  0  0  0  0  0  0  0
  143.6717   77.0630  219.7340 H   0  0  0  0  0  0  0  0  0  0  0  0
  143.7637   75.7943  218.6721 H   0  0  0  0  0  0  0  0  0  0  0  0
  142.2521   78.2109  217.9846 H   0  0  0  0  0  0  0  0  0  0  0  0
  141.5793   76.8696  217.3253 H   0  0  0  0  0  0  0  0  0  0  0  0
  140.0717   77.2259  219.5131 H   0  0  0  0  0  0  0  0  0  0  0  0
  141.0197   76.7979  222.1691 H   0  0  0  0  0  0  0  0  0  0  0  0
  141.4404   78.4643  223.9511 H   0  0  0  0  0  0  0  0  0  0  0  0
  142.3206   81.4241  221.0055 H   0  0  0  0  0  0  0  0  0  0  0  0
  141.9037   79.7723  219.2397 H   0  0  0  0  0  0  0  0  0  0  0  0
  139.1156   70.0506  222.3912 H   0  0  0  0  0  0  0  0  0  0  0  0
  138.7720   68.5653  224.3476 H   0  0  0  0  0  0  0  0  0  0  0  0
  139.0608   68.1309  226.6271 H   0  0  0  0  0  0  0  0  0  0  0  0
  141.1349   70.9677  229.0769 H   0  0  0  0  0  0  0  0  0  0  0  0
  141.4902   72.4734  227.1227 H   0  0  0  0  0  0  0  0  0  0  0  0
  1  2  2  0
  2  3  1  0
  3  4  1  0
  4  5  1  0
  5  6  2  0
  5  7  1  0
  7  8  1  0
  8  9  1  0
  9 10  1  0
 10 11  1  0
 11 12  2  0
 12 13  1  0
 13 14  2  0
 14 15  1  0
 14 16  1  0
 16 17  2  0
  2 18  1  0
 18 19  2  0
 19 20  1  0
 20 21  2  0
 21 22  1  0
 22 23  2  0
 23 24  1  0
 23 25  1  0
 25 26  2  0
 26 27  1  0
 27 28  2  0
 10  7  1  0
 17 11  1  0
 28 18  1  0
 27 21  1  0
  3 29  1  0
  4 30  1  0
  4 31  1  0
  8 32  1  0
  8 33  1  0
  9 34  1  0
  9 35  1  0
 10 36  1  6
 12 37  1  0
 13 38  1  0
 16 39  1  0
 17 40  1  0
 19 41  1  0
 20 42  1  0
 22 43  1  0
 25 44  1  0
 26 45  1  0
M  END
>  <smiles>  (42) 
O=C(NCC(=O)N1CCC1c1ccc(Cl)cc1)c1ccc2cc(F)ccc2n1

>  <score_type>  (42) 
oracle

>  <origin>  (42) 
autodockgpu

>  <m_score__min__energy>  (42) 
-8.9700000000000006

>  <m_primary>  (42) 
energy

>  <rmsd>  (42) 
2.634549291169791

>  <m_score__min__rmsd>  (42) 
2.634549291169791

>  <meeko>  (42) 
{"free_energy": -8.67, "intermolecular_energy": -10.16, "internal_energy": -1.05, "cluster_size": 42, "cluster_id": 1, "rank_in_cluster": 21}

>  <energy>  (42) 
-7.78

>  <cluster_rmsd>  (42) 
1.28

>  <cluster>  (42) 
1

$$$$

     RDKit          3D

 45 48  0  0  0  0  0  0  0  0999 V2000
  138.7470   71.2610  221.9030 O   0  0  0  0  0  0  0  0  0  0  0  0
  139.5910   71.4810  222.8110 C   0  0  0  0  0  0  0  0  0  0  0  0
  140.4730   72.6170  222.6170 N   0  0  0  0  0  0  0  0  0  0  0  0
  140.2990   73.3670  221.4310 C   0  0  0  0  0  0  0  0  0  0  0  0
  140.3070   74.8210  221.5040 C   0  0  0  0  0  0  0  0  0  0  0  0
  139.4670   75.3250  222.3500 O   0  0  0  0  0  0  0  0  0  0  0  0
  141.1100   75.7230  220.7750 N   0  0  0  0  0  0  0  0  0  0  0  0
  142.4040   75.9070  220.1750 C   0  0  0  0  0  0  0  0  0  0  0  0
  141.7110   76.8580  219.1760 C   0  0  0  0  0  0  0  0  0  0  0  0
  140.7960   77.0970  220.3170 C   0  0  2  0  0  0  0  0  0  0  0  0
  141.2100   78.1020  221.3070 C   0  0  0  0  0  0  0  0  0  0  0  0
  141.7350   79.2880  220.8450 C   0  0  0  0  0  0  0  0  0  0  0  0
  142.1440   80.2760  221.7390 C   0  0  0  0  0  0  0  0  0  0  0  0
  142.0410   80.1050  223.1050 C   0  0  0  0  0  0  0  0  0  0  0  0
  142.5580   81.3510  224.2230 Cl  0  0  0  0  0  0  0  0  0  0  0  0
  141.5190   78.9250  223.5580 C   0  0  0  0  0  0  0  0  0  0  0  0
  141.1140   77.9480  222.6720 C   0  0  0  0  0  0  0  0  0  0  0  0
  139.7120   70.6630  224.0110 C   0  0  0  0  0  0  0  0  0  0  0  0
  139.1480   69.4050  223.9690 C   0  0  0  0  0  0  0  0  0  0  0  0
  139.2030   68.5490  225.0450 C   0  0  0  0  0  0  0  0  0  0  0  0
  139.8440   68.9870  226.1740 C   0  0  0  0  0  0  0  0  0  0  0  0
  139.8950   68.1210  227.2500 C   0  0  0  0  0  0  0  0  0  0  0  0
  140.5410   68.5480  228.4060 C   0  0  0  0  0  0  0  0  0  0  0  0
  140.6240   67.7440  229.4970 F   0  0  0  0  0  0  0  0  0  0  0  0
  141.0940   69.7930  228.4350 C   0  0  0  0  0  0  0  0  0  0  0  0
  141.0450   70.6730  227.3480 C   0  0  0  0  0  0  0  0  0  0  0  0
  140.4010   70.2480  226.1940 C   0  0  0  0  0  0  0  0  0  0  0  0
  140.3420   71.0880  225.1280 N   0  0  0  0  0  0  0  0  0  0  0  0
  141.1460   72.7670  223.3890 H   0  0  0  0  0  0  0  0  0  0  0  0
  141.1072   73.0750  220.7443 H   0  0  0  0  0  0  0  0  0  0  0  0
  139.2729   73.1259  221.1165 H   0  0  0  0  0  0  0  0  0  0  0  0
  143.1504   76.3859  220.8259 H   0  0  0  0  0  0  0  0  0  0  0  0
  143.0199   75.0583  219.8426 H   0  0  0  0  0  0  0  0  0  0  0  0
  142.3061   77.7252  218.8538 H   0  0  0  0  0  0  0  0  0  0  0  0
  141.3779   76.5598  218.1709 H   0  0  0  0  0  0  0  0  0  0  0  0
  139.7788   77.4677  220.1224 H   0  0  0  0  0  0  0  0  0  0  0  0
  141.8324   79.4570  219.7624 H   0  0  0  0  0  0  0  0  0  0  0  0
  142.5594   81.2158  221.3462 H   0  0  0  0  0  0  0  0  0  0  0  0
  141.4210   78.7530  224.6400 H   0  0  0  0  0  0  0  0  0  0  0  0
  140.6988   77.0108  223.0710 H   0  0  0  0  0  0  0  0  0  0  0  0
  138.6402   69.0769  223.0500 H   0  0  0  0  0  0  0  0  0  0  0  0
  138.7484   67.5483  225.0003 H   0  0  0  0  0  0  0  0  0  0  0  0
  139.4377   67.1221  227.1940 H   0  0  0  0  0  0  0  0  0  0  0  0
  141.6017   70.1211  229.3540 H   0  0  0  0  0  0  0  0  0  0  0  0
  141.5030   71.6714  227.4063 H   0  0  0  0  0  0  0  0  0  0  0  0
  1  2  2  0
  2  3  1  0
  3  4  1  0
  4  5  1  0
  5  6  2  0
  5  7  1  0
  7  8  1  0
  8  9  1  0
  9 10  1  0
 10 11  1  0
 11 12  2  0
 12 13  1  0
 13 14  2  0
 14 15  1  0
 14 16  1  0
 16 17  2  0
  2 18  1  0
 18 19  2  0
 19 20  1  0
 20 21  2  0
 21 22  1  0
 22 23  2  0
 23 24  1  0
 23 25  1  0
 25 26  2  0
 26 27  1  0
 27 28  2  0
 10  7  1  0
 17 11  1  0
 28 18  1  0
 27 21  1  0
  3 29  1  0
  4 30  1  0
  4 31  1  0
  8 32  1  0
  8 33  1  0
  9 34  1  0
  9 35  1  0
 10 36  1  6
 12 37  1  0
 13 38  1  0
 16 39  1  0
 17 40  1  0
 19 41  1  0
 20 42  1  0
 22 43  1  0
 25 44  1  0
 26 45  1  0
M  END
>  <smiles>  (43) 
O=C(NCC(=O)N1CCC1c1ccc(Cl)cc1)c1ccc2cc(F)ccc2n1

>  <score_type>  (43) 
oracle

>  <origin>  (43) 
autodockgpu

>  <m_score__min__energy>  (43) 
-8.9700000000000006

>  <m_primary>  (43) 
energy

>  <rmsd>  (43) 
2.509947068339163

>  <m_score__min__rmsd>  (43) 
2.509947068339163

>  <meeko>  (43) 
{"free_energy": -8.65, "intermolecular_energy": -10.15, "internal_energy": -1.24, "cluster_size": 42, "cluster_id": 1, "rank_in_cluster": 23}

>  <energy>  (43) 
-8.43

>  <cluster_rmsd>  (43) 
0.0

>  <cluster>  (43) 
2

$$$$

     RDKit          3D

 45 48  0  0  0  0  0  0  0  0999 V2000
  141.1030   72.3680  222.0890 O   0  0  0  0  0  0  0  0  0  0  0  0
  140.0950   72.1370  222.8060 C   0  0  0  0  0  0  0  0  0  0  0  0
  138.8780   72.8520  222.4660 N   0  0  0  0  0  0  0  0  0  0  0  0
  138.9420   73.7360  221.3650 C   0  0  0  0  0  0  0  0  0  0  0  0
  139.5530   75.0460  221.5420 C   0  0  0  0  0  0  0  0  0  0  0  0
  140.7930   75.0190  221.9100 O   0  0  0  0  0  0  0  0  0  0  0  0
  138.9600   76.3130  221.3600 N   0  0  0  0  0  0  0  0  0  0  0  0
  138.5740   77.2870  220.3740 C   0  0  0  0  0  0  0  0  0  0  0  0
  137.4760   77.7280  221.3640 C   0  0  0  0  0  0  0  0  0  0  0  0
  138.4550   77.2650  222.3760 C   0  0  2  0  0  0  0  0  0  0  0  0
  139.4970   78.2200  222.7820 C   0  0  0  0  0  0  0  0  0  0  0  0
  139.0990   79.4510  223.2540 C   0  0  0  0  0  0  0  0  0  0  0  0
  140.0440   80.3950  223.6530 C   0  0  0  0  0  0  0  0  0  0  0  0
  141.3990   80.1340  223.5920 C   0  0  0  0  0  0  0  0  0  0  0  0
  142.5810   81.3250  224.0950 Cl  0  0  0  0  0  0  0  0  0  0  0  0
  141.7880   78.9100  223.1240 C   0  0  0  0  0  0  0  0  0  0  0  0
  140.8510   77.9770  222.7290 C   0  0  0  0  0  0  0  0  0  0  0  0
  140.1030   71.2090  223.9290 C   0  0  0  0  0  0  0  0  0  0  0  0
  139.5360   69.9690  223.7170 C   0  0  0  0  0  0  0  0  0  0  0  0
  139.4890   69.0150  224.7080 C   0  0  0  0  0  0  0  0  0  0  0  0
  140.0290   69.3340  225.9260 C   0  0  0  0  0  0  0  0  0  0  0  0
  139.9770   68.3700  226.9140 C   0  0  0  0  0  0  0  0  0  0  0  0
  140.5200   68.6760  228.1580 C   0  0  0  0  0  0  0  0  0  0  0  0
  140.5000   67.7710  229.1710 F   0  0  0  0  0  0  0  0  0  0  0  0
  141.0770   69.9040  228.3550 C   0  0  0  0  0  0  0  0  0  0  0  0
  141.1310   70.8830  227.3560 C   0  0  0  0  0  0  0  0  0  0  0  0
  140.5910   70.5790  226.1150 C   0  0  0  0  0  0  0  0  0  0  0  0
  140.6330   71.5170  225.1330 N   0  0  0  0  0  0  0  0  0  0  0  0
  138.0720   72.6290  223.0750 H   0  0  0  0  0  0  0  0  0  0  0  0
  139.5061   73.2224  220.5725 H   0  0  0  0  0  0  0  0  0  0  0  0
  137.8876   73.9651  221.1510 H   0  0  0  0  0  0  0  0  0  0  0  0
  139.3348   78.0516  220.1583 H   0  0  0  0  0  0  0  0  0  0  0  0
  138.3459   77.0077  219.3348 H   0  0  0  0  0  0  0  0  0  0  0  0
  137.2520   78.8049  221.3769 H   0  0  0  0  0  0  0  0  0  0  0  0
  136.4311   77.3875  221.3168 H   0  0  0  0  0  0  0  0  0  0  0  0
  138.0993   76.9733  223.3752 H   0  0  0  0  0  0  0  0  0  0  0  0
  138.0274   79.6912  223.3166 H   0  0  0  0  0  0  0  0  0  0  0  0
  139.7021   81.3719  224.0256 H   0  0  0  0  0  0  0  0  0  0  0  0
  142.8588   78.6662  223.0616 H   0  0  0  0  0  0  0  0  0  0  0  0
  141.1993   77.0019  222.3576 H   0  0  0  0  0  0  0  0  0  0  0  0
  139.1102   69.7368  222.7297 H   0  0  0  0  0  0  0  0  0  0  0  0
  139.0334   68.0301  224.5282 H   0  0  0  0  0  0  0  0  0  0  0  0
  139.5193   67.3882  226.7227 H   0  0  0  0  0  0  0  0  0  0  0  0
  141.5028   70.1361  229.3423 H   0  0  0  0  0  0  0  0  0  0  0  0
  141.5882   71.8646  227.5494 H   0  0  0  0  0  0  0  0  0  0  0  0
  1  2  2  0
  2  3  1  0
  3  4  1  0
  4  5  1  0
  5  6  2  0
  5  7  1  0
  7  8  1  0
  8  9  1  0
  9 10  1  0
 10 11  1  0
 11 12  2  0
 12 13  1  0
 13 14  2  0
 14 15  1  0
 14 16  1  0
 16 17  2  0
  2 18  1  0
 18 19  2  0
 19 20  1  0
 20 21  2  0
 21 22  1  0
 22 23  2  0
 23 24  1  0
 23 25  1  0
 25 26  2  0
 26 27  1  0
 27 28  2  0
 10  7  1  0
 17 11  1  0
 28 18  1  0
 27 21  1  0
  3 29  1  0
  4 30  1  0
  4 31  1  0
  8 32  1  0
  8 33  1  0
  9 34  1  0
  9 35  1  0
 10 36  1  1
 12 37  1  0
 13 38  1  0
 16 39  1  0
 17 40  1  0
 19 41  1  0
 20 42  1  0
 22 43  1  0
 25 44  1  0
 26 45  1  0
M  END
>  <smiles>  (44) 
O=C(NCC(=O)N1CCC1c1ccc(Cl)cc1)c1ccc2cc(F)ccc2n1

>  <score_type>  (44) 
oracle

>  <origin>  (44) 
autodockgpu

>  <m_score__min__energy>  (44) 
-8.9700000000000006

>  <m_primary>  (44) 
energy

>  <rmsd>  (44) 
2.9517669661378063

>  <m_score__min__rmsd>  (44) 
2.9517669661378063

>  <meeko>  (44) 
{"free_energy": -8.92, "intermolecular_energy": -10.41, "internal_energy": -0.99, "cluster_size": 42, "cluster_id": 1, "rank_in_cluster": 6}

>  <energy>  (44) 
-8.4

>  <cluster_rmsd>  (44) 
0.07

>  <cluster>  (44) 
2

$$$$

     RDKit          3D

 45 48  0  0  0  0  0  0  0  0999 V2000
  138.9000   72.6040  222.3200 O   0  0  0  0  0  0  0  0  0  0  0  0
  139.9530   72.0680  222.7520 C   0  0  0  0  0  0  0  0  0  0  0  0
  141.1790   72.3770  222.0390 N   0  0  0  0  0  0  0  0  0  0  0  0
  141.0720   73.2490  220.9320 C   0  0  0  0  0  0  0  0  0  0  0  0
  140.9230   74.6780  221.1670 C   0  0  0  0  0  0  0  0  0  0  0  0
  140.1680   74.9850  222.1730 O   0  0  0  0  0  0  0  0  0  0  0  0
  141.4960   75.7430  220.4400 N   0  0  0  0  0  0  0  0  0  0  0  0
  142.6700   76.1640  219.7240 C   0  0  0  0  0  0  0  0  0  0  0  0
  141.7340   77.0710  218.8960 C   0  0  0  0  0  0  0  0  0  0  0  0
  140.9370   77.0830  220.1450 C   0  0  2  0  0  0  0  0  0  0  0  0
  141.3200   78.0630  221.1720 C   0  0  0  0  0  0  0  0  0  0  0  0
  141.8260   79.2740  220.7550 C   0  0  0  0  0  0  0  0  0  0  0  0
  142.2050   80.2410  221.6850 C   0  0  0  0  0  0  0  0  0  0  0  0
  142.0900   80.0230  223.0430 C   0  0  0  0  0  0  0  0  0  0  0  0
  142.5680   81.2420  224.2070 Cl  0  0  0  0  0  0  0  0  0  0  0  0
  141.5870   78.8190  223.4520 C   0  0  0  0  0  0  0  0  0  0  0  0
  141.2110   77.8640  222.5300 C   0  0  0  0  0  0  0  0  0  0  0  0
  139.9870   71.1760  223.9040 C   0  0  0  0  0  0  0  0  0  0  0  0
  139.4210   69.9280  223.7450 C   0  0  0  0  0  0  0  0  0  0  0  0
  139.3990   69.0070  224.7670 C   0  0  0  0  0  0  0  0  0  0  0  0
  139.9620   69.3680  225.9620 C   0  0  0  0  0  0  0  0  0  0  0  0
  139.9340   68.4370  226.9830 C   0  0  0  0  0  0  0  0  0  0  0  0
  140.5010   68.7850  228.2050 C   0  0  0  0  0  0  0  0  0  0  0  0
  140.5060   67.9140  229.2460 F   0  0  0  0  0  0  0  0  0  0  0  0
  141.0570   70.0210  228.3500 C   0  0  0  0  0  0  0  0  0  0  0  0
  141.0870   70.9680  227.3180 C   0  0  0  0  0  0  0  0  0  0  0  0
  140.5220   70.6200  226.0990 C   0  0  0  0  0  0  0  0  0  0  0  0
  140.5400   71.5260  225.0860 N   0  0  0  0  0  0  0  0  0  0  0  0
  142.0220   71.9210  222.4290 H   0  0  0  0  0  0  0  0  0  0  0  0
  141.9817   73.1154  220.3282 H   0  0  0  0  0  0  0  0  0  0  0  0
  140.1206   72.9600  220.4615 H   0  0  0  0  0  0  0  0  0  0  0  0
  143.4135   76.7005  220.3317 H   0  0  0  0  0  0  0  0  0  0  0  0
  143.3558   75.4453  219.2517 H   0  0  0  0  0  0  0  0  0  0  0  0
  142.1570   78.0400  218.5925 H   0  0  0  0  0  0  0  0  0  0  0  0
  141.3291   76.8013  217.9094 H   0  0  0  0  0  0  0  0  0  0  0  0
  139.8614   77.3081  220.0950 H   0  0  0  0  0  0  0  0  0  0  0  0
  141.9320   79.4800  219.6797 H   0  0  0  0  0  0  0  0  0  0  0  0
  142.6055   81.2012  221.3277 H   0  0  0  0  0  0  0  0  0  0  0  0
  141.4811   78.6098  224.5267 H   0  0  0  0  0  0  0  0  0  0  0  0
  140.8087   76.9070  222.8938 H   0  0  0  0  0  0  0  0  0  0  0  0
  138.9753   69.6620  222.7751 H   0  0  0  0  0  0  0  0  0  0  0  0
  138.9447   68.0147  224.6289 H   0  0  0  0  0  0  0  0  0  0  0  0
  139.4761   67.4481  226.8337 H   0  0  0  0  0  0  0  0  0  0  0  0
  141.5019   70.2867  229.3203 H   0  0  0  0  0  0  0  0  0  0  0  0
  141.5443   71.9570  227.4692 H   0  0  0  0  0  0  0  0  0  0  0  0
  1  2  2  0
  2  3  1  0
  3  4  1  0
  4  5  1  0
  5  6  2  0
  5  7  1  0
  7  8  1  0
  8  9  1  0
  9 10  1  0
 10 11  1  0
 11 12  2  0
 12 13  1  0
 13 14  2  0
 14 15  1  0
 14 16  1  0
 16 17  2  0
  2 18  1  0
 18 19  2  0
 19 20  1  0
 20 21  2  0
 21 22  1  0
 22 23  2  0
 23 24  1  0
 23 25  1  0
 25 26  2  0
 26 27  1  0
 27 28  2  0
 10  7  1  0
 17 11  1  0
 28 18  1  0
 27 21  1  0
  3 29  1  0
  4 30  1  0
  4 31  1  0
  8 32  1  0
  8 33  1  0
  9 34  1  0
  9 35  1  0
 10 36  1  6
 12 37  1  0
 13 38  1  0
 16 39  1  0
 17 40  1  0
 19 41  1  0
 20 42  1  0
 22 43  1  0
 25 44  1  0
 26 45  1  0
M  END
>  <smiles>  (45) 
O=C(NCC(=O)N1CCC1c1ccc(Cl)cc1)c1ccc2cc(F)ccc2n1

>  <score_type>  (45) 
oracle

>  <origin>  (45) 
autodockgpu

>  <m_score__min__energy>  (45) 
-8.9700000000000006

>  <m_primary>  (45) 
energy

>  <rmsd>  (45) 
2.670255082783881

>  <m_score__min__rmsd>  (45) 
2.670255082783881

>  <meeko>  (45) 
{"free_energy": -8.95, "intermolecular_energy": -10.44, "internal_energy": -1.03, "cluster_size": 42, "cluster_id": 1, "rank_in_cluster": 4}

>  <energy>  (45) 
-8.39

>  <cluster_rmsd>  (45) 
0.21

>  <cluster>  (45) 
2

$$$$

     RDKit          3D

 45 48  0  0  0  0  0  0  0  0999 V2000
  140.1860   71.0370  221.6040 O   0  0  0  0  0  0  0  0  0  0  0  0
  140.0420   71.6760  222.6780 C   0  0  0  0  0  0  0  0  0  0  0  0
  139.6970   73.0810  222.5570 N   0  0  0  0  0  0  0  0  0  0  0  0
  139.5550   73.5940  221.2480 C   0  0  0  0  0  0  0  0  0  0  0  0
  139.8800   74.9900  220.9950 C   0  0  0  0  0  0  0  0  0  0  0  0
  141.0840   75.1960  220.5680 O   0  0  0  0  0  0  0  0  0  0  0  0
  139.0490   76.1190  221.1560 N   0  0  0  0  0  0  0  0  0  0  0  0
  138.3000   77.1240  220.4500 C   0  0  0  0  0  0  0  0  0  0  0  0
  137.3750   77.1790  221.6840 C   0  0  0  0  0  0  0  0  0  0  0  0
  138.6110   76.7890  222.4030 C   0  0  2  0  0  0  0  0  0  0  0  0
  139.5320   77.8700  222.7850 C   0  0  0  0  0  0  0  0  0  0  0  0
  140.8850   77.6230  222.7140 C   0  0  0  0  0  0  0  0  0  0  0  0
  141.8030   78.6110  223.0640 C   0  0  0  0  0  0  0  0  0  0  0  0
  141.3970   79.8600  223.4890 C   0  0  0  0  0  0  0  0  0  0  0  0
  142.5570   81.0970  223.9280 Cl  0  0  0  0  0  0  0  0  0  0  0  0
  140.0530   80.1000  223.5570 C   0  0  0  0  0  0  0  0  0  0  0  0
  139.1440   79.1200  223.2100 C   0  0  0  0  0  0  0  0  0  0  0  0
  140.2030   71.0780  223.9970 C   0  0  0  0  0  0  0  0  0  0  0  0
  140.7090   71.8890  224.9920 C   0  0  0  0  0  0  0  0  0  0  0  0
  140.9030   71.4290  226.2740 C   0  0  0  0  0  0  0  0  0  0  0  0
  140.5740   70.1250  226.5390 C   0  0  0  0  0  0  0  0  0  0  0  0
  140.7710   69.6720  227.8290 C   0  0  0  0  0  0  0  0  0  0  0  0
  140.4430   68.3510  228.1180 C   0  0  0  0  0  0  0  0  0  0  0  0
  140.6140   67.8450  229.3660 F   0  0  0  0  0  0  0  0  0  0  0  0
  139.9440   67.5600  227.1270 C   0  0  0  0  0  0  0  0  0  0  0  0
  139.7430   68.0150  225.8180 C   0  0  0  0  0  0  0  0  0  0  0  0
  140.0690   69.3330  225.5300 C   0  0  0  0  0  0  0  0  0  0  0  0
  139.8810   69.7940  224.2660 N   0  0  0  0  0  0  0  0  0  0  0  0
  139.5810   73.5670  223.4630 H   0  0  0  0  0  0  0  0  0  0  0  0
  140.2007   72.9897  220.5938 H   0  0  0  0  0  0  0  0  0  0  0  0
  138.4725   73.5385  221.0604 H   0  0  0  0  0  0  0  0  0  0  0  0
  138.8527   78.0529  220.2459 H   0  0  0  0  0  0  0  0  0  0  0  0
  137.9107   76.9572  219.4348 H   0  0  0  0  0  0  0  0  0  0  0  0
  136.9732   78.1722  221.9332 H   0  0  0  0  0  0  0  0  0  0  0  0
  136.4200   76.6388  221.7627 H   0  0  0  0  0  0  0  0  0  0  0  0
  138.5305   76.2892  223.3796 H   0  0  0  0  0  0  0  0  0  0  0  0
  141.2435   76.6386  222.3786 H   0  0  0  0  0  0  0  0  0  0  0  0
  142.8787   78.3901  223.0000 H   0  0  0  0  0  0  0  0  0  0  0  0
  139.6919   81.0837  223.8915 H   0  0  0  0  0  0  0  0  0  0  0  0
  138.0697   79.3471  223.2758 H   0  0  0  0  0  0  0  0  0  0  0  0
  140.9643   72.9321  224.7537 H   0  0  0  0  0  0  0  0  0  0  0  0
  141.3080   72.0847  227.0589 H   0  0  0  0  0  0  0  0  0  0  0  0
  141.1759   70.3370  228.6061 H   0  0  0  0  0  0  0  0  0  0  0  0
  139.6876   66.5173  227.3660 H   0  0  0  0  0  0  0  0  0  0  0  0
  139.3391   67.3483  225.0418 H   0  0  0  0  0  0  0  0  0  0  0  0
  1  2  2  0
  2  3  1  0
  3  4  1  0
  4  5  1  0
  5  6  2  0
  5  7  1  0
  7  8  1  0
  8  9  1  0
  9 10  1  0
 10 11  1  0
 11 12  2  0
 12 13  1  0
 13 14  2  0
 14 15  1  0
 14 16  1  0
 16 17  2  0
  2 18  1  0
 18 19  2  0
 19 20  1  0
 20 21  2  0
 21 22  1  0
 22 23  2  0
 23 24  1  0
 23 25  1  0
 25 26  2  0
 26 27  1  0
 27 28  2  0
 10  7  1  0
 17 11  1  0
 28 18  1  0
 27 21  1  0
  3 29  1  0
  4 30  1  0
  4 31  1  0
  8 32  1  0
  8 33  1  0
  9 34  1  0
  9 35  1  0
 10 36  1  1
 12 37  1  0
 13 38  1  0
 16 39  1  0
 17 40  1  0
 19 41  1  0
 20 42  1  0
 22 43  1  0
 25 44  1  0
 26 45  1  0
M  END
>  <smiles>  (46) 
O=C(NCC(=O)N1CCC1c1ccc(Cl)cc1)c1ccc2cc(F)ccc2n1

>  <score_type>  (46) 
oracle

>  <origin>  (46) 
autodockgpu

>  <m_score__min__energy>  (46) 
-8.9700000000000006

>  <m_primary>  (46) 
energy

>  <rmsd>  (46) 
3.4324070464066785

>  <m_score__min__rmsd>  (46) 
3.4324070464066785

>  <meeko>  (46) 
{"free_energy": -8.41, "intermolecular_energy": -9.91, "internal_energy": -1.02, "cluster_size": 42, "cluster_id": 1, "rank_in_cluster": 31}

>  <energy>  (46) 
-8.28

>  <cluster_rmsd>  (46) 
0.34

>  <cluster>  (46) 
2

$$$$

     RDKit          3D

 45 48  0  0  0  0  0  0  0  0999 V2000
  139.6150   70.8860  221.4730 O   0  0  0  0  0  0  0  0  0  0  0  0
  139.6890   71.3900  222.6230 C   0  0  0  0  0  0  0  0  0  0  0  0
  139.6580   72.8390  222.7010 N   0  0  0  0  0  0  0  0  0  0  0  0
  139.5480   73.5420  221.4800 C   0  0  0  0  0  0  0  0  0  0  0  0
  139.7810   74.9790  221.4660 C   0  0  0  0  0  0  0  0  0  0  0  0
  138.9090   75.6750  222.1230 O   0  0  0  0  0  0  0  0  0  0  0  0
  140.8260   75.6850  220.8330 N   0  0  0  0  0  0  0  0  0  0  0  0
  142.2090   75.6140  220.4420 C   0  0  0  0  0  0  0  0  0  0  0  0
  141.8460   76.5870  219.2990 C   0  0  0  0  0  0  0  0  0  0  0  0
  140.8230   77.0530  220.2640 C   0  0  2  0  0  0  0  0  0  0  0  0
  141.2470   78.0500  221.2590 C   0  0  0  0  0  0  0  0  0  0  0  0
  141.7940   79.2280  220.8030 C   0  0  0  0  0  0  0  0  0  0  0  0
  142.2140   80.2080  221.7000 C   0  0  0  0  0  0  0  0  0  0  0  0
  142.0990   80.0370  223.0650 C   0  0  0  0  0  0  0  0  0  0  0  0
  142.6280   81.2720  224.1890 Cl  0  0  0  0  0  0  0  0  0  0  0  0
  141.5540   78.8650  223.5130 C   0  0  0  0  0  0  0  0  0  0  0  0
  141.1390   77.8960  222.6230 C   0  0  0  0  0  0  0  0  0  0  0  0
  139.8000   70.5990  223.8420 C   0  0  0  0  0  0  0  0  0  0  0  0
  139.2640   69.3280  223.8130 C   0  0  0  0  0  0  0  0  0  0  0  0
  139.3130   68.4950  224.9070 C   0  0  0  0  0  0  0  0  0  0  0  0
  139.9170   68.9700  226.0420 C   0  0  0  0  0  0  0  0  0  0  0  0
  139.9610   68.1270  227.1350 C   0  0  0  0  0  0  0  0  0  0  0  0
  140.5710   68.5900  228.2970 C   0  0  0  0  0  0  0  0  0  0  0  0
  140.6470   67.8100  229.4060 F   0  0  0  0  0  0  0  0  0  0  0  0
  141.0970   69.8470  228.3140 C   0  0  0  0  0  0  0  0  0  0  0  0
  141.0540   70.7050  227.2080 C   0  0  0  0  0  0  0  0  0  0  0  0
  140.4460   70.2420  226.0480 C   0  0  0  0  0  0  0  0  0  0  0  0
  140.3940   71.0600  224.9650 N   0  0  0  0  0  0  0  0  0  0  0  0
  139.7140   73.2130  223.6640 H   0  0  0  0  0  0  0  0  0  0  0  0
  140.2709   73.0921  220.7835 H   0  0  0  0  0  0  0  0  0  0  0  0
  138.4842   73.4462  221.2171 H   0  0  0  0  0  0  0  0  0  0  0  0
  142.9186   76.0144  221.1810 H   0  0  0  0  0  0  0  0  0  0  0  0
  142.7152   74.6555  220.2551 H   0  0  0  0  0  0  0  0  0  0  0  0
  142.6211   77.3218  219.0357 H   0  0  0  0  0  0  0  0  0  0  0  0
  141.6232   76.2719  218.2689 H   0  0  0  0  0  0  0  0  0  0  0  0
  139.9249   77.5659  219.8894 H   0  0  0  0  0  0  0  0  0  0  0  0
  141.9005   79.3971  219.7213 H   0  0  0  0  0  0  0  0  0  0  0  0
  142.6479   81.1409  221.3109 H   0  0  0  0  0  0  0  0  0  0  0  0
  141.4455   78.6934  224.5941 H   0  0  0  0  0  0  0  0  0  0  0  0
  140.7055   76.9653  223.0179 H   0  0  0  0  0  0  0  0  0  0  0  0
  138.7843   68.9708  222.8898 H   0  0  0  0  0  0  0  0  0  0  0  0
  138.8825   67.4833  224.8720 H   0  0  0  0  0  0  0  0  0  0  0  0
  139.5260   67.1177  227.0884 H   0  0  0  0  0  0  0  0  0  0  0  0
  141.5767   70.2036  229.2375 H   0  0  0  0  0  0  0  0  0  0  0  0
  141.4883   71.7145  227.2563 H   0  0  0  0  0  0  0  0  0  0  0  0
  1  2  2  0
  2  3  1  0
  3  4  1  0
  4  5  1  0
  5  6  2  0
  5  7  1  0
  7  8  1  0
  8  9  1  0
  9 10  1  0
 10 11  1  0
 11 12  2  0
 12 13  1  0
 13 14  2  0
 14 15  1  0
 14 16  1  0
 16 17  2  0
  2 18  1  0
 18 19  2  0
 19 20  1  0
 20 21  2  0
 21 22  1  0
 22 23  2  0
 23 24  1  0
 23 25  1  0
 25 26  2  0
 26 27  1  0
 27 28  2  0
 10  7  1  0
 17 11  1  0
 28 18  1  0
 27 21  1  0
  3 29  1  0
  4 30  1  0
  4 31  1  0
  8 32  1  0
  8 33  1  0
  9 34  1  0
  9 35  1  0
 10 36  1  6
 12 37  1  0
 13 38  1  0
 16 39  1  0
 17 40  1  0
 19 41  1  0
 20 42  1  0
 22 43  1  0
 25 44  1  0
 26 45  1  0
M  END
>  <smiles>  (47) 
O=C(NCC(=O)N1CCC1c1ccc(Cl)cc1)c1ccc2cc(F)ccc2n1

>  <score_type>  (47) 
oracle

>  <origin>  (47) 
autodockgpu

>  <m_score__min__energy>  (47) 
-8.9700000000000006

>  <m_primary>  (47) 
energy

>  <rmsd>  (47) 
2.3680729550755815

>  <m_score__min__rmsd>  (47) 
2.3680729550755815

>  <meeko>  (47) 
{"free_energy": -8.75, "intermolecular_energy": -10.24, "internal_energy": -1.21, "cluster_size": 42, "cluster_id": 1, "rank_in_cluster": 17}

>  <energy>  (47) 
-7.91

>  <cluster_rmsd>  (47) 
0.97

>  <cluster>  (47) 
2

$$$$

     RDKit          3D

 45 48  0  0  0  0  0  0  0  0999 V2000
  141.0600   71.9570  221.7390 O   0  0  0  0  0  0  0  0  0  0  0  0
  140.1640   72.0230  222.6200 C   0  0  0  0  0  0  0  0  0  0  0  0
  139.1170   73.0060  222.4090 N   0  0  0  0  0  0  0  0  0  0  0  0
  139.2030   73.7900  221.2370 C   0  0  0  0  0  0  0  0  0  0  0  0
  139.7740   75.1270  221.3190 C   0  0  0  0  0  0  0  0  0  0  0  0
  141.0530   75.1580  221.5180 O   0  0  0  0  0  0  0  0  0  0  0  0
  139.1070   76.3660  221.2070 N   0  0  0  0  0  0  0  0  0  0  0  0
  138.6560   77.3640  220.2750 C   0  0  0  0  0  0  0  0  0  0  0  0
  137.5440   77.6900  221.2950 C   0  0  0  0  0  0  0  0  0  0  0  0
  138.5590   77.2340  222.2740 C   0  0  2  0  0  0  0  0  0  0  0  0
  139.5490   78.2260  222.7210 C   0  0  0  0  0  0  0  0  0  0  0  0
  140.8730   77.8500  222.7520 C   0  0  0  0  0  0  0  0  0  0  0  0
  141.8550   78.7480  223.1670 C   0  0  0  0  0  0  0  0  0  0  0  0
  141.5400   80.0340  223.5590 C   0  0  0  0  0  0  0  0  0  0  0  0
  142.7780   81.1590  224.0800 Cl  0  0  0  0  0  0  0  0  0  0  0  0
  140.2240   80.4020  223.5260 C   0  0  0  0  0  0  0  0  0  0  0  0
  139.2530   79.5110  223.1140 C   0  0  0  0  0  0  0  0  0  0  0  0
  140.1390   71.1780  223.8070 C   0  0  0  0  0  0  0  0  0  0  0  0
  139.5890   69.9210  223.6660 C   0  0  0  0  0  0  0  0  0  0  0  0
  139.5130   69.0400  224.7210 C   0  0  0  0  0  0  0  0  0  0  0  0
  140.0070   69.4520  225.9310 C   0  0  0  0  0  0  0  0  0  0  0  0
  139.9270   68.5610  226.9830 C   0  0  0  0  0  0  0  0  0  0  0  0
  140.4230   68.9600  228.2200 C   0  0  0  0  0  0  0  0  0  0  0  0
  140.3740   68.1310  229.2940 F   0  0  0  0  0  0  0  0  0  0  0  0
  140.9640   70.2050  228.3470 C   0  0  0  0  0  0  0  0  0  0  0  0
  141.0470   71.1110  227.2830 C   0  0  0  0  0  0  0  0  0  0  0  0
  140.5530   70.7120  226.0480 C   0  0  0  0  0  0  0  0  0  0  0  0
  140.6240   71.5770  225.0040 N   0  0  0  0  0  0  0  0  0  0  0  0
  138.3970   73.0230  223.1520 H   0  0  0  0  0  0  0  0  0  0  0  0
  139.8107   73.2243  220.5154 H   0  0  0  0  0  0  0  0  0  0  0  0
  138.1527   73.9695  220.9637 H   0  0  0  0  0  0  0  0  0  0  0  0
  139.3693   78.1813  220.0931 H   0  0  0  0  0  0  0  0  0  0  0  0
  138.4339   77.1249  219.2245 H   0  0  0  0  0  0  0  0  0  0  0  0
  137.2584   78.7500  221.3647 H   0  0  0  0  0  0  0  0  0  0  0  0
  136.5199   77.2924  221.2385 H   0  0  0  0  0  0  0  0  0  0  0  0
  138.2312   76.8719  223.2596 H   0  0  0  0  0  0  0  0  0  0  0  0
  141.1583   76.8325  222.4467 H   0  0  0  0  0  0  0  0  0  0  0  0
  142.9062   78.4244  223.1826 H   0  0  0  0  0  0  0  0  0  0  0  0
  139.9355   81.4188  223.8309 H   0  0  0  0  0  0  0  0  0  0  0  0
  138.2037   79.8407  223.0994 H   0  0  0  0  0  0  0  0  0  0  0  0
  139.2005   69.6141  222.6837 H   0  0  0  0  0  0  0  0  0  0  0  0
  139.0712   68.0403  224.5971 H   0  0  0  0  0  0  0  0  0  0  0  0
  139.4835   67.5636  226.8467 H   0  0  0  0  0  0  0  0  0  0  0  0
  141.3527   70.5113  229.3294 H   0  0  0  0  0  0  0  0  0  0  0  0
  141.4899   72.1084  227.4210 H   0  0  0  0  0  0  0  0  0  0  0  0
  1  2  2  0
  2  3  1  0
  3  4  1  0
  4  5  1  0
  5  6  2  0
  5  7  1  0
  7  8  1  0
  8  9  1  0
  9 10  1  0
 10 11  1  0
 11 12  2  0
 12 13  1  0
 13 14  2  0
 14 15  1  0
 14 16  1  0
 16 17  2  0
  2 18  1  0
 18 19  2  0
 19 20  1  0
 20 21  2  0
 21 22  1  0
 22 23  2  0
 23 24  1  0
 23 25  1  0
 25 26  2  0
 26 27  1  0
 27 28  2  0
 10  7  1  0
 17 11  1  0
 28 18  1  0
 27 21  1  0
  3 29  1  0
  4 30  1  0
  4 31  1  0
  8 32  1  0
  8 33  1  0
  9 34  1  0
  9 35  1  0
 10 36  1  1
 12 37  1  0
 13 38  1  0
 16 39  1  0
 17 40  1  0
 19 41  1  0
 20 42  1  0
 22 43  1  0
 25 44  1  0
 26 45  1  0
M  END
>  <smiles>  (48) 
O=C(NCC(=O)N1CCC1c1ccc(Cl)cc1)c1ccc2cc(F)ccc2n1

>  <score_type>  (48) 
oracle

>  <origin>  (48) 
autodockgpu

>  <m_score__min__energy>  (48) 
-8.9700000000000006

>  <m_primary>  (48) 
energy

>  <rmsd>  (48) 
2.612708798799593

>  <m_score__min__rmsd>  (48) 
2.612708798799593

>  <meeko>  (48) 
{"free_energy": -8.71, "intermolecular_energy": -10.2, "internal_energy": -1.01, "cluster_size": 42, "cluster_id": 1, "rank_in_cluster": 20}

>  <energy>  (48) 
-8.08

>  <cluster_rmsd>  (48) 
0.0

>  <cluster>  (48) 
3

$$$$

     RDKit          3D

 45 48  0  0  0  0  0  0  0  0999 V2000
  139.5330   73.4470  222.5410 O   0  0  0  0  0  0  0  0  0  0  0  0
  140.3360   72.4940  222.7150 C   0  0  0  0  0  0  0  0  0  0  0  0
  141.3790   72.3320  221.7190 N   0  0  0  0  0  0  0  0  0  0  0  0
  141.3920   73.2590  220.6520 C   0  0  0  0  0  0  0  0  0  0  0  0
  142.5980   74.0350  220.4020 C   0  0  0  0  0  0  0  0  0  0  0  0
  143.6900   73.4920  220.8360 O   0  0  0  0  0  0  0  0  0  0  0  0
  142.7100   75.2830  219.7530 N   0  0  0  0  0  0  0  0  0  0  0  0
  143.6370   76.1990  219.1440 C   0  0  0  0  0  0  0  0  0  0  0  0
  142.4580   76.6760  218.2690 C   0  0  0  0  0  0  0  0  0  0  0  0
  141.6560   76.2800  219.4510 C   0  0  2  0  0  0  0  0  0  0  0  0
  141.5260   77.2680  220.5320 C   0  0  0  0  0  0  0  0  0  0  0  0
  141.8490   78.5770  220.2540 C   0  0  0  0  0  0  0  0  0  0  0  0
  141.7440   79.5560  221.2410 C   0  0  0  0  0  0  0  0  0  0  0  0
  141.3180   79.2540  222.5190 C   0  0  0  0  0  0  0  0  0  0  0  0
  141.1880   80.4890  223.7540 Cl  0  0  0  0  0  0  0  0  0  0  0  0
  140.9970   77.9530  222.7880 C   0  0  0  0  0  0  0  0  0  0  0  0
  141.1010   76.9840  221.8100 C   0  0  0  0  0  0  0  0  0  0  0  0
  140.2620   71.5750  223.8440 C   0  0  0  0  0  0  0  0  0  0  0  0
  139.6860   70.3440  223.6100 C   0  0  0  0  0  0  0  0  0  0  0  0
  139.5640   69.3990  224.6040 C   0  0  0  0  0  0  0  0  0  0  0  0
  140.0380   69.7210  225.8490 C   0  0  0  0  0  0  0  0  0  0  0  0
  139.9110   68.7670  226.8400 C   0  0  0  0  0  0  0  0  0  0  0  0
  140.3850   69.0750  228.1110 C   0  0  0  0  0  0  0  0  0  0  0  0
  140.2910   68.1800  229.1280 F   0  0  0  0  0  0  0  0  0  0  0  0
  140.9520   70.2950  228.3310 C   0  0  0  0  0  0  0  0  0  0  0  0
  141.0810   71.2640  227.3290 C   0  0  0  0  0  0  0  0  0  0  0  0
  140.6090   70.9570  226.0600 C   0  0  0  0  0  0  0  0  0  0  0  0
  140.7260   71.8850  225.0750 N   0  0  0  0  0  0  0  0  0  0  0  0
  142.0210   71.5420  221.9020 H   0  0  0  0  0  0  0  0  0  0  0  0
  141.1764   72.6945  219.7328 H   0  0  0  0  0  0  0  0  0  0  0  0
  140.6513   74.0148  220.9521 H   0  0  0  0  0  0  0  0  0  0  0  0
  144.0455   76.9617  219.8233 H   0  0  0  0  0  0  0  0  0  0  0  0
  144.5896   75.8631  218.7084 H   0  0  0  0  0  0  0  0  0  0  0  0
  142.4495   77.7489  218.0263 H   0  0  0  0  0  0  0  0  0  0  0  0
  142.2658   76.3191  217.2464 H   0  0  0  0  0  0  0  0  0  0  0  0
  140.5912   76.0363  219.3214 H   0  0  0  0  0  0  0  0  0  0  0  0
  142.1924   78.8525  219.2459 H   0  0  0  0  0  0  0  0  0  0  0  0
  142.0073   80.5954  220.9953 H   0  0  0  0  0  0  0  0  0  0  0  0
  140.6520   77.6749  223.7948 H   0  0  0  0  0  0  0  0  0  0  0  0
  140.8344   75.9468  222.0614 H   0  0  0  0  0  0  0  0  0  0  0  0
  139.3138   70.1106  222.6015 H   0  0  0  0  0  0  0  0  0  0  0  0
  139.1025   68.4204  224.4059 H   0  0  0  0  0  0  0  0  0  0  0  0
  139.4482   67.7915  226.6300 H   0  0  0  0  0  0  0  0  0  0  0  0
  141.3243   70.5281  229.3395 H   0  0  0  0  0  0  0  0  0  0  0  0
  141.5426   72.2397  227.5408 H   0  0  0  0  0  0  0  0  0  0  0  0
  1  2  2  0
  2  3  1  0
  3  4  1  0
  4  5  1  0
  5  6  2  0
  5  7  1  0
  7  8  1  0
  8  9  1  0
  9 10  1  0
 10 11  1  0
 11 12  2  0
 12 13  1  0
 13 14  2  0
 14 15  1  0
 14 16  1  0
 16 17  2  0
  2 18  1  0
 18 19  2  0
 19 20  1  0
 20 21  2  0
 21 22  1  0
 22 23  2  0
 23 24  1  0
 23 25  1  0
 25 26  2  0
 26 27  1  0
 27 28  2  0
 10  7  1  0
 17 11  1  0
 28 18  1  0
 27 21  1  0
  3 29  1  0
  4 30  1  0
  4 31  1  0
  8 32  1  0
  8 33  1  0
  9 34  1  0
  9 35  1  0
 10 36  1  6
 12 37  1  0
 13 38  1  0
 16 39  1  0
 17 40  1  0
 19 41  1  0
 20 42  1  0
 22 43  1  0
 25 44  1  0
 26 45  1  0
M  END
>  <smiles>  (49) 
O=C(NCC(=O)N1CCC1c1ccc(Cl)cc1)c1ccc2cc(F)ccc2n1

>  <score_type>  (49) 
oracle

>  <origin>  (49) 
autodockgpu

>  <m_score__min__energy>  (49) 
-8.9700000000000006

>  <m_primary>  (49) 
energy

>  <rmsd>  (49) 
2.8800410597543555

>  <m_score__min__rmsd>  (49) 
2.8800410597543555

>  <meeko>  (49) 
{"free_energy": -8.36, "intermolecular_energy": -9.85, "internal_energy": -1.2, "cluster_size": 42, "cluster_id": 1, "rank_in_cluster": 34}

>  <energy>  (49) 
-7.94

>  <cluster_rmsd>  (49) 
0.0

>  <cluster>  (49) 
4

$$$$

     RDKit          3D

 45 48  0  0  0  0  0  0  0  0999 V2000
  139.9230   70.9590  221.4630 O   0  0  0  0  0  0  0  0  0  0  0  0
  139.8830   71.4540  222.6190 C   0  0  0  0  0  0  0  0  0  0  0  0
  139.7680   72.8990  222.7040 N   0  0  0  0  0  0  0  0  0  0  0  0
  139.7110   73.6080  221.4830 C   0  0  0  0  0  0  0  0  0  0  0  0
  139.9300   75.0480  221.4880 C   0  0  0  0  0  0  0  0  0  0  0  0
  139.1320   75.7130  222.2600 O   0  0  0  0  0  0  0  0  0  0  0  0
  140.8920   75.7840  220.7650 N   0  0  0  0  0  0  0  0  0  0  0  0
  142.2420   75.7630  220.2680 C   0  0  0  0  0  0  0  0  0  0  0  0
  141.7510   76.6980  219.1420 C   0  0  0  0  0  0  0  0  0  0  0  0
  140.7860   77.1400  220.1770 C   0  0  2  0  0  0  0  0  0  0  0  0
  141.2430   78.1720  221.1200 C   0  0  0  0  0  0  0  0  0  0  0  0
  141.1360   77.9090  222.4670 C   0  0  0  0  0  0  0  0  0  0  0  0
  141.5530   78.8510  223.4060 C   0  0  0  0  0  0  0  0  0  0  0  0
  142.0830   80.0680  223.0260 C   0  0  0  0  0  0  0  0  0  0  0  0
  142.6050   81.2480  224.2110 Cl  0  0  0  0  0  0  0  0  0  0  0  0
  142.1870   80.3220  221.6860 C   0  0  0  0  0  0  0  0  0  0  0  0
  141.7740   79.3890  220.7580 C   0  0  0  0  0  0  0  0  0  0  0  0
  139.9460   70.6580  223.8380 C   0  0  0  0  0  0  0  0  0  0  0  0
  139.3860   69.3980  223.7890 C   0  0  0  0  0  0  0  0  0  0  0  0
  139.3890   68.5610  224.8810 C   0  0  0  0  0  0  0  0  0  0  0  0
  139.9720   69.0190  226.0330 C   0  0  0  0  0  0  0  0  0  0  0  0
  139.9710   68.1720  227.1250 C   0  0  0  0  0  0  0  0  0  0  0  0
  140.5580   68.6200  228.3040 C   0  0  0  0  0  0  0  0  0  0  0  0
  140.5890   67.8350  229.4110 F   0  0  0  0  0  0  0  0  0  0  0  0
  141.1080   69.8660  228.3390 C   0  0  0  0  0  0  0  0  0  0  0  0
  141.1110   70.7280  227.2360 C   0  0  0  0  0  0  0  0  0  0  0  0
  140.5260   70.2810  226.0590 C   0  0  0  0  0  0  0  0  0  0  0  0
  140.5190   71.1030  224.9770 N   0  0  0  0  0  0  0  0  0  0  0  0
  139.7320   73.2650  223.6710 H   0  0  0  0  0  0  0  0  0  0  0  0
  140.4717   73.1693  220.8205 H   0  0  0  0  0  0  0  0  0  0  0  0
  138.6624   73.5033  221.1677 H   0  0  0  0  0  0  0  0  0  0  0  0
  142.9890   76.2063  220.9429 H   0  0  0  0  0  0  0  0  0  0  0  0
  142.7725   74.8227  220.0571 H   0  0  0  0  0  0  0  0  0  0  0  0
  142.4715   77.4589  218.8076 H   0  0  0  0  0  0  0  0  0  0  0  0
  141.4630   76.3545  218.1375 H   0  0  0  0  0  0  0  0  0  0  0  0
  139.8404   77.6082  219.8660 H   0  0  0  0  0  0  0  0  0  0  0  0
  140.7186   76.9489  222.8046 H   0  0  0  0  0  0  0  0  0  0  0  0
  141.4574   78.6189  224.4770 H   0  0  0  0  0  0  0  0  0  0  0  0
  142.6045   81.2808  221.3448 H   0  0  0  0  0  0  0  0  0  0  0  0
  141.8727   79.6265  219.6885 H   0  0  0  0  0  0  0  0  0  0  0  0
  138.9247   69.0534  222.8517 H   0  0  0  0  0  0  0  0  0  0  0  0
  138.9388   67.5586  224.8308 H   0  0  0  0  0  0  0  0  0  0  0  0
  139.5185   67.1712  227.0636 H   0  0  0  0  0  0  0  0  0  0  0  0
  141.5704   70.2100  229.2759 H   0  0  0  0  0  0  0  0  0  0  0  0
  141.5630   71.7288  227.2999 H   0  0  0  0  0  0  0  0  0  0  0  0
  1  2  2  0
  2  3  1  0
  3  4  1  0
  4  5  1  0
  5  6  2  0
  5  7  1  0
  7  8  1  0
  8  9  1  0
  9 10  1  0
 10 11  1  0
 11 12  2  0
 12 13  1  0
 13 14  2  0
 14 15  1  0
 14 16  1  0
 16 17  2  0
  2 18  1  0
 18 19  2  0
 19 20  1  0
 20 21  2  0
 21 22  1  0
 22 23  2  0
 23 24  1  0
 23 25  1  0
 25 26  2  0
 26 27  1  0
 27 28  2  0
 10  7  1  0
 17 11  1  0
 28 18  1  0
 27 21  1  0
  3 29  1  0
  4 30  1  0
  4 31  1  0
  8 32  1  0
  8 33  1  0
  9 34  1  0
  9 35  1  0
 10 36  1  6
 12 37  1  0
 13 38  1  0
 16 39  1  0
 17 40  1  0
 19 41  1  0
 20 42  1  0
 22 43  1  0
 25 44  1  0
 26 45  1  0
M  END
>  <smiles>  (50) 
O=C(NCC(=O)N1CCC1c1ccc(Cl)cc1)c1ccc2cc(F)ccc2n1

>  <score_type>  (50) 
oracle

>  <origin>  (50) 
autodockgpu

>  <m_score__min__energy>  (50) 
-8.9700000000000006

>  <m_primary>  (50) 
energy

>  <rmsd>  (50) 
2.523940645552545

>  <m_score__min__rmsd>  (50) 
2.523940645552545

>  <meeko>  (50) 
{"free_energy": -8.74, "intermolecular_energy": -10.24, "internal_energy": -1.17, "cluster_size": 42, "cluster_id": 1, "rank_in_cluster": 18}

>  <energy>  (50) 
-7.22

>  <cluster_rmsd>  (50) 
1.25

>  <cluster>  (50) 
4

$$$$

     RDKit          3D

 45 48  0  0  0  0  0  0  0  0999 V2000
  139.5130   70.7170  221.0290 O   0  0  0  0  0  0  0  0  0  0  0  0
  139.5210   71.3000  222.1670 C   0  0  0  0  0  0  0  0  0  0  0  0
  139.4540   72.7170  222.2820 N   0  0  0  0  0  0  0  0  0  0  0  0
  139.3740   73.5880  221.1030 C   0  0  0  0  0  0  0  0  0  0  0  0
  139.4720   74.9680  221.5650 C   0  0  0  0  0  0  0  0  0  0  0  0
  139.0200   75.2510  222.7270 O   0  0  0  0  0  0  0  0  0  0  0  0
  140.0260   76.0500  220.8420 N   0  0  0  0  0  0  0  0  0  0  0  0
  139.4400   76.9910  219.8780 C   0  0  0  0  0  0  0  0  0  0  0  0
  140.8160   77.2550  219.2870 C   0  0  0  0  0  0  0  0  0  0  0  0
  141.2770   76.7540  220.6460 C   0  0  1  0  0  0  0  0  0  0  0  0
  141.5010   77.9380  221.5190 C   0  0  0  0  0  0  0  0  0  0  0  0
  141.3880   77.9040  222.8890 C   0  0  0  0  0  0  0  0  0  0  0  0
  141.6090   79.0210  223.6910 C   0  0  0  0  0  0  0  0  0  0  0  0
  141.9570   80.2280  223.1230 C   0  0  0  0  0  0  0  0  0  0  0  0
  142.2330   81.6260  224.1410 Cl  0  0  0  0  0  0  0  0  0  0  0  0
  142.0760   80.2870  221.7500 C   0  0  0  0  0  0  0  0  0  0  0  0
  141.8530   79.1720  220.9680 C   0  0  0  0  0  0  0  0  0  0  0  0
  139.5990   70.4970  223.4070 C   0  0  0  0  0  0  0  0  0  0  0  0
  139.1420   69.1770  223.3620 C   0  0  0  0  0  0  0  0  0  0  0  0
  139.2040   68.4040  224.5010 C   0  0  0  0  0  0  0  0  0  0  0  0
  139.7120   68.9390  225.6660 C   0  0  0  0  0  0  0  0  0  0  0  0
  139.8060   68.2350  226.8360 C   0  0  0  0  0  0  0  0  0  0  0  0
  140.3090   68.7740  227.9790 C   0  0  0  0  0  0  0  0  0  0  0  0
  140.3840   68.0390  229.1250 F   0  0  0  0  0  0  0  0  0  0  0  0
  140.7490   70.0860  227.9720 C   0  0  0  0  0  0  0  0  0  0  0  0
  140.6520   70.7840  226.7950 C   0  0  0  0  0  0  0  0  0  0  0  0
  140.1410   70.2450  225.6270 C   0  0  0  0  0  0  0  0  0  0  0  0
  140.0920   71.0180  224.5280 N   0  0  0  0  0  0  0  0  0  0  0  0
  139.4650   73.1240  223.2600 H   0  0  0  0  0  0  0  0  0  0  0  0
  140.2019   73.3636  220.4143 H   0  0  0  0  0  0  0  0  0  0  0  0
  138.4265   73.4267  220.5679 H   0  0  0  0  0  0  0  0  0  0  0  0
  138.7317   76.5287  219.1748 H   0  0  0  0  0  0  0  0  0  0  0  0
  138.8178   77.8276  220.2286 H   0  0  0  0  0  0  0  0  0  0  0  0
  141.0947   76.6279  218.4273 H   0  0  0  0  0  0  0  0  0  0  0  0
  141.1263   78.2112  218.8405 H   0  0  0  0  0  0  0  0  0  0  0  0
  142.1986   76.1741  220.8021 H   0  0  0  0  0  0  0  0  0  0  0  0
  141.1115   76.9550  223.3717 H   0  0  0  0  0  0  0  0  0  0  0  0
  141.5053   78.9398  224.7831 H   0  0  0  0  0  0  0  0  0  0  0  0
  142.3530   81.2377  221.2709 H   0  0  0  0  0  0  0  0  0  0  0  0
  141.9557   79.2580  219.8762 H   0  0  0  0  0  0  0  0  0  0  0  0
  138.7374   68.7599  222.4280 H   0  0  0  0  0  0  0  0  0  0  0  0
  138.8492   67.3630  224.4810 H   0  0  0  0  0  0  0  0  0  0  0  0
  139.4607   67.1907  226.8526 H   0  0  0  0  0  0  0  0  0  0  0  0
  141.1620   70.5528  228.8784 H   0  0  0  0  0  0  0  0  0  0  0  0
  140.9988   71.8278  226.7786 H   0  0  0  0  0  0  0  0  0  0  0  0
  1  2  2  0
  2  3  1  0
  3  4  1  0
  4  5  1  0
  5  6  2  0
  5  7  1  0
  7  8  1  0
  8  9  1  0
  9 10  1  0
 10 11  1  0
 11 12  2  0
 12 13  1  0
 13 14  2  0
 14 15  1  0
 14 16  1  0
 16 17  2  0
  2 18  1  0
 18 19  2  0
 19 20  1  0
 20 21  2  0
 21 22  1  0
 22 23  2  0
 23 24  1  0
 23 25  1  0
 25 26  2  0
 26 27  1  0
 27 28  2  0
 10  7  1  0
 17 11  1  0
 28 18  1  0
 27 21  1  0
  3 29  1  0
  4 30  1  0
  4 31  1  0
  8 32  1  0
  8 33  1  0
  9 34  1  0
  9 35  1  0
 10 36  1  6
 12 37  1  0
 13 38  1  0
 16 39  1  0
 17 40  1  0
 19 41  1  0
 20 42  1  0
 22 43  1  0
 25 44  1  0
 26 45  1  0
M  END
>  <smiles>  (51) 
O=C(NCC(=O)N1CCC1c1ccc(Cl)cc1)c1ccc2cc(F)ccc2n1

>  <score_type>  (51) 
oracle

>  <origin>  (51) 
autodockgpu

>  <m_score__min__energy>  (51) 
-8.7300000000000004

>  <m_primary>  (51) 
energy

>  <rmsd>  (51) 
2.3258188662294743

>  <m_score__min__rmsd>  (51) 
2.3258188662294743

>  <meeko>  (51) 
{"free_energy": -8.33, "intermolecular_energy": -9.83, "internal_energy": -1.8, "cluster_size": 22, "cluster_id": 1, "rank_in_cluster": 21}

>  <energy>  (51) 
-8.73

>  <cluster_rmsd>  (51) 
0.0

>  <cluster>  (51) 
1

$$$$

     RDKit          3D

 45 48  0  0  0  0  0  0  0  0999 V2000
  140.6100   75.0250  220.0880 O   0  0  0  0  0  0  0  0  0  0  0  0
  140.1320   75.1920  221.2620 C   0  0  0  0  0  0  0  0  0  0  0  0
  139.4870   74.1370  221.9650 N   0  0  0  0  0  0  0  0  0  0  0  0
  139.3310   72.7980  221.3820 C   0  0  0  0  0  0  0  0  0  0  0  0
  139.8400   71.8320  222.3500 C   0  0  0  0  0  0  0  0  0  0  0  0
  141.0770   71.8870  222.6650 O   0  0  0  0  0  0  0  0  0  0  0  0
  139.0880   70.8180  222.9870 N   0  0  0  0  0  0  0  0  0  0  0  0
  138.7590   69.4430  222.5900 C   0  0  0  0  0  0  0  0  0  0  0  0
  137.5400   69.4630  223.5010 C   0  0  0  0  0  0  0  0  0  0  0  0
  138.3230   70.5680  224.1920 C   0  0  1  0  0  0  0  0  0  0  0  0
  139.0730   69.9590  225.3230 C   0  0  0  0  0  0  0  0  0  0  0  0
  138.9000   68.6600  225.7370 C   0  0  0  0  0  0  0  0  0  0  0  0
  139.6180   68.1030  226.7930 C   0  0  0  0  0  0  0  0  0  0  0  0
  140.5490   68.8570  227.4760 C   0  0  0  0  0  0  0  0  0  0  0  0
  141.4450   68.1470  228.8020 Cl  0  0  0  0  0  0  0  0  0  0  0  0
  140.7390   70.1640  227.0790 C   0  0  0  0  0  0  0  0  0  0  0  0
  140.0200   70.7020  226.0310 C   0  0  0  0  0  0  0  0  0  0  0  0
  140.2460   76.5110  221.9240 C   0  0  0  0  0  0  0  0  0  0  0  0
  139.0930   77.0580  222.4960 C   0  0  0  0  0  0  0  0  0  0  0  0
  139.1690   78.2840  223.1200 C   0  0  0  0  0  0  0  0  0  0  0  0
  140.3720   78.9540  223.1720 C   0  0  0  0  0  0  0  0  0  0  0  0
  140.5250   80.1740  223.7740 C   0  0  0  0  0  0  0  0  0  0  0  0
  141.7190   80.8250  223.8190 C   0  0  0  0  0  0  0  0  0  0  0  0
  141.8290   82.0400  224.4280 F   0  0  0  0  0  0  0  0  0  0  0  0
  142.8300   80.2420  223.2390 C   0  0  0  0  0  0  0  0  0  0  0  0
  142.6680   79.0190  222.6390 C   0  0  0  0  0  0  0  0  0  0  0  0
  141.4590   78.3480  222.5870 C   0  0  0  0  0  0  0  0  0  0  0  0
  141.4100   77.1530  221.9740 N   0  0  0  0  0  0  0  0  0  0  0  0
  139.1180   74.3550  222.9340 H   0  0  0  0  0  0  0  0  0  0  0  0
  138.2685   72.5996  221.1776 H   0  0  0  0  0  0  0  0  0  0  0  0
  139.8845   72.7229  220.4344 H   0  0  0  0  0  0  0  0  0  0  0  0
  138.5186   69.3304  221.5225 H   0  0  0  0  0  0  0  0  0  0  0  0
  139.5091   68.6442  222.6857 H   0  0  0  0  0  0  0  0  0  0  0  0
  136.5956   69.7707  223.0284 H   0  0  0  0  0  0  0  0  0  0  0  0
  137.1326   68.5782  224.0121 H   0  0  0  0  0  0  0  0  0  0  0  0
  137.8542   71.4416  224.6686 H   0  0  0  0  0  0  0  0  0  0  0  0
  138.1635   68.0336  225.2124 H   0  0  0  0  0  0  0  0  0  0  0  0
  139.4415   67.0568  227.0834 H   0  0  0  0  0  0  0  0  0  0  0  0
  141.4757   70.7879  227.6063 H   0  0  0  0  0  0  0  0  0  0  0  0
  140.1985   71.7489  225.7444 H   0  0  0  0  0  0  0  0  0  0  0  0
  138.1370   76.5160  222.4483 H   0  0  0  0  0  0  0  0  0  0  0  0
  138.2712   78.7271  223.5757 H   0  0  0  0  0  0  0  0  0  0  0  0
  139.6478   80.6468  224.2399 H   0  0  0  0  0  0  0  0  0  0  0  0
  143.8100   80.7413  223.2579 H   0  0  0  0  0  0  0  0  0  0  0  0
  143.5461   78.5466  222.1745 H   0  0  0  0  0  0  0  0  0  0  0  0
  1  2  2  0
  2  3  1  0
  3  4  1  0
  4  5  1  0
  5  6  2  0
  5  7  1  0
  7  8  1  0
  8  9  1  0
  9 10  1  0
 10 11  1  0
 11 12  2  0
 12 13  1  0
 13 14  2  0
 14 15  1  0
 14 16  1  0
 16 17  2  0
  2 18  1  0
 18 19  2  0
 19 20  1  0
 20 21  2  0
 21 22  1  0
 22 23  2  0
 23 24  1  0
 23 25  1  0
 25 26  2  0
 26 27  1  0
 27 28  2  0
 10  7  1  0
 17 11  1  0
 28 18  1  0
 27 21  1  0
  3 29  1  0
  4 30  1  0
  4 31  1  0
  8 32  1  0
  8 33  1  0
  9 34  1  0
  9 35  1  0
 10 36  1  1
 12 37  1  0
 13 38  1  0
 16 39  1  0
 17 40  1  0
 19 41  1  0
 20 42  1  0
 22 43  1  0
 25 44  1  0
 26 45  1  0
M  END
>  <smiles>  (52) 
O=C(NCC(=O)N1CCC1c1ccc(Cl)cc1)c1ccc2cc(F)ccc2n1

>  <score_type>  (52) 
oracle

>  <origin>  (52) 
autodockgpu

>  <m_score__min__energy>  (52) 
-8.7300000000000004

>  <m_primary>  (52) 
energy

>  <rmsd>  (52) 
8.548718503517966

>  <m_score__min__rmsd>  (52) 
8.548718503517966

>  <meeko>  (52) 
{"free_energy": -8.34, "intermolecular_energy": -9.84, "internal_energy": -0.99, "cluster_size": 28, "cluster_id": 2, "rank_in_cluster": 1}

>  <energy>  (52) 
-8.63

>  <cluster_rmsd>  (52) 
0.82

>  <cluster>  (52) 
1

$$$$

     RDKit          3D

 45 48  0  0  0  0  0  0  0  0999 V2000
  137.8670   70.8870  221.9570 O   0  0  0  0  0  0  0  0  0  0  0  0
  138.6920   71.3330  222.8250 C   0  0  0  0  0  0  0  0  0  0  0  0
  139.2390   72.6430  222.7340 N   0  0  0  0  0  0  0  0  0  0  0  0
  138.8890   73.5550  221.6380 C   0  0  0  0  0  0  0  0  0  0  0  0
  139.9520   74.5480  221.5310 C   0  0  0  0  0  0  0  0  0  0  0  0
  141.1050   74.2520  221.9980 O   0  0  0  0  0  0  0  0  0  0  0  0
  139.8350   75.8330  220.9510 N   0  0  0  0  0  0  0  0  0  0  0  0
  138.6730   76.6910  220.6890 C   0  0  0  0  0  0  0  0  0  0  0  0
  139.4450   77.4180  219.5990 C   0  0  0  0  0  0  0  0  0  0  0  0
  140.6430   76.8860  220.3690 C   0  0  1  0  0  0  0  0  0  0  0  0
  141.0960   77.9510  221.3040 C   0  0  0  0  0  0  0  0  0  0  0  0
  141.0720   77.8200  222.6720 C   0  0  0  0  0  0  0  0  0  0  0  0
  141.5080   78.8240  223.5330 C   0  0  0  0  0  0  0  0  0  0  0  0
  141.9900   80.0130  223.0270 C   0  0  0  0  0  0  0  0  0  0  0  0
  142.5360   81.2690  224.1190 Cl  0  0  0  0  0  0  0  0  0  0  0  0
  142.0230   80.1680  221.6580 C   0  0  0  0  0  0  0  0  0  0  0  0
  141.5870   79.1630  220.8170 C   0  0  0  0  0  0  0  0  0  0  0  0
  139.0990   70.4790  223.9630 C   0  0  0  0  0  0  0  0  0  0  0  0
  138.8110   69.1130  223.8930 C   0  0  0  0  0  0  0  0  0  0  0  0
  139.1800   68.2930  224.9360 C   0  0  0  0  0  0  0  0  0  0  0  0
  139.8240   68.8260  226.0330 C   0  0  0  0  0  0  0  0  0  0  0  0
  140.2210   68.0750  227.1070 C   0  0  0  0  0  0  0  0  0  0  0  0
  140.8560   68.6130  228.1830 C   0  0  0  0  0  0  0  0  0  0  0  0
  141.2340   67.8310  229.2340 F   0  0  0  0  0  0  0  0  0  0  0  0
  141.1180   69.9710  228.2050 C   0  0  0  0  0  0  0  0  0  0  0  0
  140.7180   70.7150  227.1240 C   0  0  0  0  0  0  0  0  0  0  0  0
  140.0710   70.1780  226.0250 C   0  0  0  0  0  0  0  0  0  0  0  0
  139.7220   70.9980  225.0180 N   0  0  0  0  0  0  0  0  0  0  0  0
  139.9160   72.9390  223.4930 H   0  0  0  0  0  0  0  0  0  0  0  0
  138.8046   72.9935  220.6959 H   0  0  0  0  0  0  0  0  0  0  0  0
  137.9238   74.0437  221.8367 H   0  0  0  0  0  0  0  0  0  0  0  0
  137.7883   76.1480  220.3250 H   0  0  0  0  0  0  0  0  0  0  0  0
  138.2062   77.2569  221.5087 H   0  0  0  0  0  0  0  0  0  0  0  0
  139.3187   77.0232  218.5801 H   0  0  0  0  0  0  0  0  0  0  0  0
  139.2975   78.4755  219.3344 H   0  0  0  0  0  0  0  0  0  0  0  0
  141.5866   76.5786  219.8945 H   0  0  0  0  0  0  0  0  0  0  0  0
  140.6925   76.8827  223.1049 H   0  0  0  0  0  0  0  0  0  0  0  0
  141.4678   78.6681  224.6212 H   0  0  0  0  0  0  0  0  0  0  0  0
  142.4025   81.1068  221.2284 H   0  0  0  0  0  0  0  0  0  0  0  0
  141.6281   79.3229  219.7295 H   0  0  0  0  0  0  0  0  0  0  0  0
  138.2954   68.6976  223.0146 H   0  0  0  0  0  0  0  0  0  0  0  0
  138.9617   67.2157  224.8943 H   0  0  0  0  0  0  0  0  0  0  0  0
  140.0184   66.9938  227.0994 H   0  0  0  0  0  0  0  0  0  0  0  0
  141.6293   70.4382  229.0596 H   0  0  0  0  0  0  0  0  0  0  0  0
  140.9225   71.7958  227.1313 H   0  0  0  0  0  0  0  0  0  0  0  0
  1  2  2  0
  2  3  1  0
  3  4  1  0
  4  5  1  0
  5  6  2  0
  5  7  1  0
  7  8  1  0
  8  9  1  0
  9 10  1  0
 10 11  1  0
 11 12  2  0
 12 13  1  0
 13 14  2  0
 14 15  1  0
 14 16  1  0
 16 17  2  0
  2 18  1  0
 18 19  2  0
 19 20  1  0
 20 21  2  0
 21 22  1  0
 22 23  2  0
 23 24  1  0
 23 25  1  0
 25 26  2  0
 26 27  1  0
 27 28  2  0
 10  7  1  0
 17 11  1  0
 28 18  1  0
 27 21  1  0
  3 29  1  0
  4 30  1  0
  4 31  1  0
  8 32  1  0
  8 33  1  0
  9 34  1  0
  9 35  1  0
 10 36  1  6
 12 37  1  0
 13 38  1  0
 16 39  1  0
 17 40  1  0
 19 41  1  0
 20 42  1  0
 22 43  1  0
 25 44  1  0
 26 45  1  0
M  END
>  <smiles>  (53) 
O=C(NCC(=O)N1CCC1c1ccc(Cl)cc1)c1ccc2cc(F)ccc2n1

>  <score_type>  (53) 
oracle

>  <origin>  (53) 
autodockgpu

>  <m_score__min__energy>  (53) 
-8.7300000000000004

>  <m_primary>  (53) 
energy

>  <rmsd>  (53) 
2.322519997506542

>  <m_score__min__rmsd>  (53) 
2.322519997506542

>  <meeko>  (53) 
{"free_energy": -8.59, "intermolecular_energy": -10.08, "internal_energy": -1.75, "cluster_size": 22, "cluster_id": 1, "rank_in_cluster": 6}

>  <energy>  (53) 
-8.63

>  <cluster_rmsd>  (53) 
1.38

>  <cluster>  (53) 
1

$$$$

     RDKit          3D

 45 48  0  0  0  0  0  0  0  0999 V2000
  137.0200   76.2150  222.0060 O   0  0  0  0  0  0  0  0  0  0  0  0
  138.2620   76.2460  222.3060 C   0  0  0  0  0  0  0  0  0  0  0  0
  139.0660   75.0720  222.2900 N   0  0  0  0  0  0  0  0  0  0  0  0
  138.5140   73.7600  221.9270 C   0  0  0  0  0  0  0  0  0  0  0  0
  139.5310   72.7560  222.2210 C   0  0  0  0  0  0  0  0  0  0  0  0
  140.7490   73.1360  222.3090 O   0  0  0  0  0  0  0  0  0  0  0  0
  139.3030   71.3740  222.4200 N   0  0  0  0  0  0  0  0  0  0  0  0
  139.8870   70.1810  221.7950 C   0  0  0  0  0  0  0  0  0  0  0  0
  138.6560   69.3710  222.1710 C   0  0  0  0  0  0  0  0  0  0  0  0
  138.4980   70.4670  223.2130 C   0  0  1  0  0  0  0  0  0  0  0  0
  139.1160   69.9870  224.4790 C   0  0  0  0  0  0  0  0  0  0  0  0
  138.9840   68.7020  224.9490 C   0  0  0  0  0  0  0  0  0  0  0  0
  139.5770   68.2670  226.1320 C   0  0  0  0  0  0  0  0  0  0  0  0
  140.3350   69.1350  226.8900 C   0  0  0  0  0  0  0  0  0  0  0  0
  141.0760   68.5780  228.3760 Cl  0  0  0  0  0  0  0  0  0  0  0  0
  140.4810   70.4300  226.4390 C   0  0  0  0  0  0  0  0  0  0  0  0
  139.8870   70.8460  225.2640 C   0  0  0  0  0  0  0  0  0  0  0  0
  138.8990   77.5270  222.6840 C   0  0  0  0  0  0  0  0  0  0  0  0
  138.0660   78.6120  222.9720 C   0  0  0  0  0  0  0  0  0  0  0  0
  138.6300   79.8180  223.3280 C   0  0  0  0  0  0  0  0  0  0  0  0
  140.0020   79.9400  223.3930 C   0  0  0  0  0  0  0  0  0  0  0  0
  140.6350   81.1040  223.7380 C   0  0  0  0  0  0  0  0  0  0  0  0
  141.9900   81.2130  223.7990 C   0  0  0  0  0  0  0  0  0  0  0  0
  142.5810   82.3910  224.1460 F   0  0  0  0  0  0  0  0  0  0  0  0
  142.7710   80.1100  223.5040 C   0  0  0  0  0  0  0  0  0  0  0  0
  142.1280   78.9470  223.1590 C   0  0  0  0  0  0  0  0  0  0  0  0
  140.7510   78.8270  223.0940 C   0  0  0  0  0  0  0  0  0  0  0  0
  140.2230   77.6400  222.7460 N   0  0  0  0  0  0  0  0  0  0  0  0
  140.0870   75.1800  222.5510 H   0  0  0  0  0  0  0  0  0  0  0  0
  137.6071   73.5588  222.5161 H   0  0  0  0  0  0  0  0  0  0  0  0
  138.2449   73.7361  220.8607 H   0  0  0  0  0  0  0  0  0  0  0  0
  140.0465   70.2761  220.7108 H   0  0  0  0  0  0  0  0  0  0  0  0
  140.8888   69.8354  222.0899 H   0  0  0  0  0  0  0  0  0  0  0  0
  137.8659   69.3208  221.4073 H   0  0  0  0  0  0  0  0  0  0  0  0
  138.6674   68.2950  222.3993 H   0  0  0  0  0  0  0  0  0  0  0  0
  137.5246   70.8450  223.5589 H   0  0  0  0  0  0  0  0  0  0  0  0
  138.3847   67.9870  224.3663 H   0  0  0  0  0  0  0  0  0  0  0  0
  139.4402   67.2270  226.4631 H   0  0  0  0  0  0  0  0  0  0  0  0
  141.0802   71.1428  227.0246 H   0  0  0  0  0  0  0  0  0  0  0  0
  140.0257   71.8869  224.9363 H   0  0  0  0  0  0  0  0  0  0  0  0
  136.9727   78.5044  222.9151 H   0  0  0  0  0  0  0  0  0  0  0  0
  137.9878   80.6805  223.5596 H   0  0  0  0  0  0  0  0  0  0  0  0
  140.0234   81.9869  223.9755 H   0  0  0  0  0  0  0  0  0  0  0  0
  143.8690   80.1629  223.5444 H   0  0  0  0  0  0  0  0  0  0  0  0
  142.7397   78.0641  222.9218 H   0  0  0  0  0  0  0  0  0  0  0  0
  1  2  2  0
  2  3  1  0
  3  4  1  0
  4  5  1  0
  5  6  2  0
  5  7  1  0
  7  8  1  0
  8  9  1  0
  9 10  1  0
 10 11  1  0
 11 12  2  0
 12 13  1  0
 13 14  2  0
 14 15  1  0
 14 16  1  0
 16 17  2  0
  2 18  1  0
 18 19  2  0
 19 20  1  0
 20 21  2  0
 21 22  1  0
 22 23  2  0
 23 24  1  0
 23 25  1  0
 25 26  2  0
 26 27  1  0
 27 28  2  0
 10  7  1  0
 17 11  1  0
 28 18  1  0
 27 21  1  0
  3 29  1  0
  4 30  1  0
  4 31  1  0
  8 32  1  0
  8 33  1  0
  9 34  1  0
  9 35  1  0
 10 36  1  1
 12 37  1  0
 13 38  1  0
 16 39  1  0
 17 40  1  0
 19 41  1  0
 20 42  1  0
 22 43  1  0
 25 44  1  0
 26 45  1  0
M  END
>  <smiles>  (54) 
O=C(NCC(=O)N1CCC1c1ccc(Cl)cc1)c1ccc2cc(F)ccc2n1

>  <score_type>  (54) 
oracle

>  <origin>  (54) 
autodockgpu

>  <m_score__min__energy>  (54) 
-8.7300000000000004

>  <m_primary>  (54) 
energy

>  <rmsd>  (54) 
8.743811878514391

>  <m_score__min__rmsd>  (54) 
8.743811878514391

>  <meeko>  (54) 
{"free_energy": -8.14, "intermolecular_energy": -9.63, "internal_energy": -1.95, "cluster_size": 28, "cluster_id": 2, "rank_in_cluster": 22}

>  <energy>  (54) 
-8.59

>  <cluster_rmsd>  (54) 
0.8

>  <cluster>  (54) 
1

$$$$

     RDKit          3D

 45 48  0  0  0  0  0  0  0  0999 V2000
  139.4910   70.8560  221.0590 O   0  0  0  0  0  0  0  0  0  0  0  0
  139.5740   71.4560  222.1850 C   0  0  0  0  0  0  0  0  0  0  0  0
  139.6020   72.8760  222.2760 N   0  0  0  0  0  0  0  0  0  0  0  0
  139.5380   73.7310  221.0830 C   0  0  0  0  0  0  0  0  0  0  0  0
  139.5360   75.1180  221.5330 C   0  0  0  0  0  0  0  0  0  0  0  0
  139.0730   75.3770  222.6960 O   0  0  0  0  0  0  0  0  0  0  0  0
  140.0030   76.2320  220.7960 N   0  0  0  0  0  0  0  0  0  0  0  0
  139.3140   77.1930  219.9250 C   0  0  0  0  0  0  0  0  0  0  0  0
  140.6230   77.4980  219.2140 C   0  0  0  0  0  0  0  0  0  0  0  0
  141.2200   76.9620  220.5050 C   0  0  1  0  0  0  0  0  0  0  0  0
  141.5110   78.1220  221.3910 C   0  0  0  0  0  0  0  0  0  0  0  0
  141.8520   79.3680  220.9230 C   0  0  0  0  0  0  0  0  0  0  0  0
  142.1120   80.4450  221.7670 C   0  0  0  0  0  0  0  0  0  0  0  0
  142.0330   80.2920  223.1350 C   0  0  0  0  0  0  0  0  0  0  0  0
  142.3630   81.6530  224.1870 Cl  0  0  0  0  0  0  0  0  0  0  0  0
  141.6930   79.0500  223.6280 C   0  0  0  0  0  0  0  0  0  0  0  0
  141.4390   77.9920  222.7790 C   0  0  0  0  0  0  0  0  0  0  0  0
  139.6430   70.6710  223.4370 C   0  0  0  0  0  0  0  0  0  0  0  0
  139.1930   69.3480  223.4060 C   0  0  0  0  0  0  0  0  0  0  0  0
  139.2470   68.5910  224.5560 C   0  0  0  0  0  0  0  0  0  0  0  0
  139.7390   69.1450  225.7180 C   0  0  0  0  0  0  0  0  0  0  0  0
  139.8240   68.4570  226.8990 C   0  0  0  0  0  0  0  0  0  0  0  0
  140.3120   69.0150  228.0400 C   0  0  0  0  0  0  0  0  0  0  0  0
  140.3790   68.2960  229.1960 F   0  0  0  0  0  0  0  0  0  0  0  0
  140.7460   70.3280  228.0190 C   0  0  0  0  0  0  0  0  0  0  0  0
  140.6580   71.0100  226.8320 C   0  0  0  0  0  0  0  0  0  0  0  0
  140.1620   70.4520  225.6660 C   0  0  0  0  0  0  0  0  0  0  0  0
  140.1210   71.2090  224.5560 N   0  0  0  0  0  0  0  0  0  0  0  0
  139.6720   73.2980  223.2450 H   0  0  0  0  0  0  0  0  0  0  0  0
  140.4125   73.5461  220.4419 H   0  0  0  0  0  0  0  0  0  0  0  0
  138.6308   73.5131  220.5002 H   0  0  0  0  0  0  0  0  0  0  0  0
  138.5473   76.7417  219.2781 H   0  0  0  0  0  0  0  0  0  0  0  0
  138.7172   78.0076  220.3612 H   0  0  0  0  0  0  0  0  0  0  0  0
  140.8257   76.9031  218.3113 H   0  0  0  0  0  0  0  0  0  0  0  0
  140.8759   78.4729  218.7718 H   0  0  0  0  0  0  0  0  0  0  0  0
  142.1600   76.3928  220.5532 H   0  0  0  0  0  0  0  0  0  0  0  0
  141.9226   79.5214  219.8360 H   0  0  0  0  0  0  0  0  0  0  0  0
  142.3816   81.4223  221.3402 H   0  0  0  0  0  0  0  0  0  0  0  0
  141.6231   78.9000  224.7155 H   0  0  0  0  0  0  0  0  0  0  0  0
  141.1714   77.0157  223.2095 H   0  0  0  0  0  0  0  0  0  0  0  0
  138.8001   68.9160  222.4738 H   0  0  0  0  0  0  0  0  0  0  0  0
  138.8985   67.5477  224.5466 H   0  0  0  0  0  0  0  0  0  0  0  0
  139.4841   67.4112  226.9263 H   0  0  0  0  0  0  0  0  0  0  0  0
  141.1479   70.8089  228.9230 H   0  0  0  0  0  0  0  0  0  0  0  0
  140.9995   72.0553  226.8051 H   0  0  0  0  0  0  0  0  0  0  0  0
  1  2  2  0
  2  3  1  0
  3  4  1  0
  4  5  1  0
  5  6  2  0
  5  7  1  0
  7  8  1  0
  8  9  1  0
  9 10  1  0
 10 11  1  0
 11 12  2  0
 12 13  1  0
 13 14  2  0
 14 15  1  0
 14 16  1  0
 16 17  2  0
  2 18  1  0
 18 19  2  0
 19 20  1  0
 20 21  2  0
 21 22  1  0
 22 23  2  0
 23 24  1  0
 23 25  1  0
 25 26  2  0
 26 27  1  0
 27 28  2  0
 10  7  1  0
 17 11  1  0
 28 18  1  0
 27 21  1  0
  3 29  1  0
  4 30  1  0
  4 31  1  0
  8 32  1  0
  8 33  1  0
  9 34  1  0
  9 35  1  0
 10 36  1  6
 12 37  1  0
 13 38  1  0
 16 39  1  0
 17 40  1  0
 19 41  1  0
 20 42  1  0
 22 43  1  0
 25 44  1  0
 26 45  1  0
M  END
>  <smiles>  (55) 
O=C(NCC(=O)N1CCC1c1ccc(Cl)cc1)c1ccc2cc(F)ccc2n1

>  <score_type>  (55) 
oracle

>  <origin>  (55) 
autodockgpu

>  <m_score__min__energy>  (55) 
-8.7300000000000004

>  <m_primary>  (55) 
energy

>  <rmsd>  (55) 
2.1326080665730136

>  <m_score__min__rmsd>  (55) 
2.1326080665730136

>  <meeko>  (55) 
{"free_energy": -8.38, "intermolecular_energy": -9.87, "internal_energy": -1.85, "cluster_size": 22, "cluster_id": 1, "rank_in_cluster": 19}

>  <energy>  (55) 
-8.59

>  <cluster_rmsd>  (55) 
1.38

>  <cluster>  (55) 
1

$$$$

     RDKit          3D

 45 48  0  0  0  0  0  0  0  0999 V2000
  137.0030   76.1680  222.1260 O   0  0  0  0  0  0  0  0  0  0  0  0
  138.2630   76.2170  222.3360 C   0  0  0  0  0  0  0  0  0  0  0  0
  139.0870   75.0640  222.2180 N   0  0  0  0  0  0  0  0  0  0  0  0
  138.5380   73.7530  221.8470 C   0  0  0  0  0  0  0  0  0  0  0  0
  139.5160   72.7400  222.2250 C   0  0  0  0  0  0  0  0  0  0  0  0
  140.7360   73.0980  222.3630 O   0  0  0  0  0  0  0  0  0  0  0  0
  139.2490   71.3710  222.4580 N   0  0  0  0  0  0  0  0  0  0  0  0
  139.7660   70.1470  221.8310 C   0  0  0  0  0  0  0  0  0  0  0  0
  138.5230   69.3870  222.2710 C   0  0  0  0  0  0  0  0  0  0  0  0
  138.4460   70.5050  223.2990 C   0  0  1  0  0  0  0  0  0  0  0  0
  139.0980   70.0240  224.5470 C   0  0  0  0  0  0  0  0  0  0  0  0
  139.9000   70.8130  225.3370 C   0  0  0  0  0  0  0  0  0  0  0  0
  140.4960   70.3490  226.5070 C   0  0  0  0  0  0  0  0  0  0  0  0
  140.2940   69.0490  226.9230 C   0  0  0  0  0  0  0  0  0  0  0  0
  141.0480   68.4760  228.3960 Cl  0  0  0  0  0  0  0  0  0  0  0  0
  139.4930   68.2390  226.1470 C   0  0  0  0  0  0  0  0  0  0  0  0
  138.9100   68.7130  224.9880 C   0  0  0  0  0  0  0  0  0  0  0  0
  138.8990   77.4990  222.7150 C   0  0  0  0  0  0  0  0  0  0  0  0
  138.0660   78.5810  223.0130 C   0  0  0  0  0  0  0  0  0  0  0  0
  138.6290   79.7860  223.3690 C   0  0  0  0  0  0  0  0  0  0  0  0
  140.0010   79.9120  223.4260 C   0  0  0  0  0  0  0  0  0  0  0  0
  140.6340   81.0750  223.7720 C   0  0  0  0  0  0  0  0  0  0  0  0
  141.9880   81.1870  223.8240 C   0  0  0  0  0  0  0  0  0  0  0  0
  142.5800   82.3650  224.1720 F   0  0  0  0  0  0  0  0  0  0  0  0
  142.7700   80.0870  223.5200 C   0  0  0  0  0  0  0  0  0  0  0  0
  142.1280   78.9240  223.1760 C   0  0  0  0  0  0  0  0  0  0  0  0
  140.7510   78.8010  223.1190 C   0  0  0  0  0  0  0  0  0  0  0  0
  140.2240   77.6140  222.7700 N   0  0  0  0  0  0  0  0  0  0  0  0
  140.1220   75.1860  222.4080 H   0  0  0  0  0  0  0  0  0  0  0  0
  137.5922   73.5782  222.3807 H   0  0  0  0  0  0  0  0  0  0  0  0
  138.3378   73.7110  220.7662 H   0  0  0  0  0  0  0  0  0  0  0  0
  139.8845   70.2184  220.7397 H   0  0  0  0  0  0  0  0  0  0  0  0
  140.7664   69.7711  222.0914 H   0  0  0  0  0  0  0  0  0  0  0  0
  137.7011   69.3524  221.5408 H   0  0  0  0  0  0  0  0  0  0  0  0
  138.5062   68.3152  222.5177 H   0  0  0  0  0  0  0  0  0  0  0  0
  137.5013   70.9228  223.6771 H   0  0  0  0  0  0  0  0  0  0  0  0
  140.0785   71.8547  225.0322 H   0  0  0  0  0  0  0  0  0  0  0  0
  141.1307   71.0219  227.1022 H   0  0  0  0  0  0  0  0  0  0  0  0
  139.3152   67.1983  226.4557 H   0  0  0  0  0  0  0  0  0  0  0  0
  138.2780   68.0364  224.3941 H   0  0  0  0  0  0  0  0  0  0  0  0
  136.9726   78.4711  222.9637 H   0  0  0  0  0  0  0  0  0  0  0  0
  137.9859   80.6460  223.6074 H   0  0  0  0  0  0  0  0  0  0  0  0
  140.0222   81.9554  224.0182 H   0  0  0  0  0  0  0  0  0  0  0  0
  143.8681   80.1427  223.5529 H   0  0  0  0  0  0  0  0  0  0  0  0
  142.7403   78.0432  222.9327 H   0  0  0  0  0  0  0  0  0  0  0  0
  1  2  2  0
  2  3  1  0
  3  4  1  0
  4  5  1  0
  5  6  2  0
  5  7  1  0
  7  8  1  0
  8  9  1  0
  9 10  1  0
 10 11  1  0
 11 12  2  0
 12 13  1  0
 13 14  2  0
 14 15  1  0
 14 16  1  0
 16 17  2  0
  2 18  1  0
 18 19  2  0
 19 20  1  0
 20 21  2  0
 21 22  1  0
 22 23  2  0
 23 24  1  0
 23 25  1  0
 25 26  2  0
 26 27  1  0
 27 28  2  0
 10  7  1  0
 17 11  1  0
 28 18  1  0
 27 21  1  0
  3 29  1  0
  4 30  1  0
  4 31  1  0
  8 32  1  0
  8 33  1  0
  9 34  1  0
  9 35  1  0
 10 36  1  1
 12 37  1  0
 13 38  1  0
 16 39  1  0
 17 40  1  0
 19 41  1  0
 20 42  1  0
 22 43  1  0
 25 44  1  0
 26 45  1  0
M  END
>  <smiles>  (56) 
O=C(NCC(=O)N1CCC1c1ccc(Cl)cc1)c1ccc2cc(F)ccc2n1

>  <score_type>  (56) 
oracle

>  <origin>  (56) 
autodockgpu

>  <m_score__min__energy>  (56) 
-8.7300000000000004

>  <m_primary>  (56) 
energy

>  <rmsd>  (56) 
8.6023485922075

>  <m_score__min__rmsd>  (56) 
8.6023485922075

>  <meeko>  (56) 
{"free_energy": -8.21, "intermolecular_energy": -9.7, "internal_energy": -1.95, "cluster_size": 28, "cluster_id": 2, "rank_in_cluster": 18}

>  <energy>  (56) 
-8.59

>  <cluster_rmsd>  (56) 
0.86

>  <cluster>  (56) 
1

$$$$

     RDKit          3D

 45 48  0  0  0  0  0  0  0  0999 V2000
  137.8340   70.9140  221.9800 O   0  0  0  0  0  0  0  0  0  0  0  0
  138.6670   71.3480  222.8480 C   0  0  0  0  0  0  0  0  0  0  0  0
  139.2290   72.6510  222.7610 N   0  0  0  0  0  0  0  0  0  0  0  0
  138.8860   73.5720  221.6690 C   0  0  0  0  0  0  0  0  0  0  0  0
  139.9970   74.5040  221.5100 C   0  0  0  0  0  0  0  0  0  0  0  0
  141.1430   74.1600  221.9590 O   0  0  0  0  0  0  0  0  0  0  0  0
  139.9330   75.7780  220.8990 N   0  0  0  0  0  0  0  0  0  0  0  0
  138.8010   76.6450  220.5500 C   0  0  0  0  0  0  0  0  0  0  0  0
  139.6470   77.3380  219.4930 C   0  0  0  0  0  0  0  0  0  0  0  0
  140.7890   76.8070  220.3440 C   0  0  1  0  0  0  0  0  0  0  0  0
  141.2010   77.8860  221.2820 C   0  0  0  0  0  0  0  0  0  0  0  0
  141.0800   77.7910  222.6480 C   0  0  0  0  0  0  0  0  0  0  0  0
  141.4790   78.8070  223.5120 C   0  0  0  0  0  0  0  0  0  0  0  0
  142.0220   79.9720  223.0130 C   0  0  0  0  0  0  0  0  0  0  0  0
  142.5190   81.2440  224.1090 Cl  0  0  0  0  0  0  0  0  0  0  0  0
  142.1520   80.0910  221.6460 C   0  0  0  0  0  0  0  0  0  0  0  0
  141.7520   79.0750  220.8010 C   0  0  0  0  0  0  0  0  0  0  0  0
  139.0670   70.4840  223.9810 C   0  0  0  0  0  0  0  0  0  0  0  0
  138.7680   69.1210  223.9040 C   0  0  0  0  0  0  0  0  0  0  0  0
  139.1300   68.2930  224.9430 C   0  0  0  0  0  0  0  0  0  0  0  0
  139.7790   68.8140  226.0420 C   0  0  0  0  0  0  0  0  0  0  0  0
  140.1690   68.0560  227.1130 C   0  0  0  0  0  0  0  0  0  0  0  0
  140.8090   68.5820  228.1920 C   0  0  0  0  0  0  0  0  0  0  0  0
  141.1810   67.7920  229.2380 F   0  0  0  0  0  0  0  0  0  0  0  0
  141.0830   69.9380  228.2200 C   0  0  0  0  0  0  0  0  0  0  0  0
  140.6890   70.6910  227.1440 C   0  0  0  0  0  0  0  0  0  0  0  0
  140.0370   70.1650  226.0420 C   0  0  0  0  0  0  0  0  0  0  0  0
  139.6950   70.9920  225.0390 N   0  0  0  0  0  0  0  0  0  0  0  0
  139.9110   72.9370  223.5190 H   0  0  0  0  0  0  0  0  0  0  0  0
  138.7337   73.0080  220.7370 H   0  0  0  0  0  0  0  0  0  0  0  0
  137.9575   74.1148  221.8999 H   0  0  0  0  0  0  0  0  0  0  0  0
  137.9319   76.1057  220.1452 H   0  0  0  0  0  0  0  0  0  0  0  0
  138.2943   77.2347  221.3282 H   0  0  0  0  0  0  0  0  0  0  0  0
  139.5758   76.9229  218.4768 H   0  0  0  0  0  0  0  0  0  0  0  0
  139.5309   78.3913  219.1981 H   0  0  0  0  0  0  0  0  0  0  0  0
  141.7544   76.4768  219.9329 H   0  0  0  0  0  0  0  0  0  0  0  0
  140.6498   76.8737  223.0763 H   0  0  0  0  0  0  0  0  0  0  0  0
  141.3605   78.6797  224.5982 H   0  0  0  0  0  0  0  0  0  0  0  0
  142.5814   81.0104  221.2213 H   0  0  0  0  0  0  0  0  0  0  0  0
  141.8712   79.2065  219.7154 H   0  0  0  0  0  0  0  0  0  0  0  0
  138.2493   68.7142  223.0234 H   0  0  0  0  0  0  0  0  0  0  0  0
  138.9018   67.2180  224.8961 H   0  0  0  0  0  0  0  0  0  0  0  0
  139.9561   66.9769  227.1007 H   0  0  0  0  0  0  0  0  0  0  0  0
  141.5993   70.3963  229.0764 H   0  0  0  0  0  0  0  0  0  0  0  0
  140.9023   71.7700  227.1572 H   0  0  0  0  0  0  0  0  0  0  0  0
  1  2  2  0
  2  3  1  0
  3  4  1  0
  4  5  1  0
  5  6  2  0
  5  7  1  0
  7  8  1  0
  8  9  1  0
  9 10  1  0
 10 11  1  0
 11 12  2  0
 12 13  1  0
 13 14  2  0
 14 15  1  0
 14 16  1  0
 16 17  2  0
  2 18  1  0
 18 19  2  0
 19 20  1  0
 20 21  2  0
 21 22  1  0
 22 23  2  0
 23 24  1  0
 23 25  1  0
 25 26  2  0
 26 27  1  0
 27 28  2  0
 10  7  1  0
 17 11  1  0
 28 18  1  0
 27 21  1  0
  3 29  1  0
  4 30  1  0
  4 31  1  0
  8 32  1  0
  8 33  1  0
  9 34  1  0
  9 35  1  0
 10 36  1  6
 12 37  1  0
 13 38  1  0
 16 39  1  0
 17 40  1  0
 19 41  1  0
 20 42  1  0
 22 43  1  0
 25 44  1  0
 26 45  1  0
M  END
>  <smiles>  (57) 
O=C(NCC(=O)N1CCC1c1ccc(Cl)cc1)c1ccc2cc(F)ccc2n1

>  <score_type>  (57) 
oracle

>  <origin>  (57) 
autodockgpu

>  <m_score__min__energy>  (57) 
-8.7300000000000004

>  <m_primary>  (57) 
energy

>  <rmsd>  (57) 
2.296487182650104

>  <m_score__min__rmsd>  (57) 
2.296487182650104

>  <meeko>  (57) 
{"free_energy": -8.56, "intermolecular_energy": -10.05, "internal_energy": -1.74, "cluster_size": 22, "cluster_id": 1, "rank_in_cluster": 9}

>  <energy>  (57) 
-8.57

>  <cluster_rmsd>  (57) 
0.75

>  <cluster>  (57) 
1

$$$$

     RDKit          3D

 45 48  0  0  0  0  0  0  0  0999 V2000
  137.0720   76.1890  222.1150 O   0  0  0  0  0  0  0  0  0  0  0  0
  138.3340   76.2370  222.3120 C   0  0  0  0  0  0  0  0  0  0  0  0
  139.1560   75.0830  222.1840 N   0  0  0  0  0  0  0  0  0  0  0  0
  138.6020   73.7730  221.8190 C   0  0  0  0  0  0  0  0  0  0  0  0
  139.5780   72.7570  222.1990 C   0  0  0  0  0  0  0  0  0  0  0  0
  140.7930   73.1190  222.3640 O   0  0  0  0  0  0  0  0  0  0  0  0
  139.3120   71.3840  222.4040 N   0  0  0  0  0  0  0  0  0  0  0  0
  139.8530   70.1730  221.7740 C   0  0  0  0  0  0  0  0  0  0  0  0
  138.6040   69.4000  222.1680 C   0  0  0  0  0  0  0  0  0  0  0  0
  138.4920   70.5010  223.2100 C   0  0  1  0  0  0  0  0  0  0  0  0
  139.1130   70.0060  224.4680 C   0  0  0  0  0  0  0  0  0  0  0  0
  138.9650   68.7210  224.9330 C   0  0  0  0  0  0  0  0  0  0  0  0
  139.5610   68.2720  226.1090 C   0  0  0  0  0  0  0  0  0  0  0  0
  140.3380   69.1240  226.8650 C   0  0  0  0  0  0  0  0  0  0  0  0
  141.0820   68.5490  228.3420 Cl  0  0  0  0  0  0  0  0  0  0  0  0
  140.5010   70.4180  226.4190 C   0  0  0  0  0  0  0  0  0  0  0  0
  139.9030   70.8490  225.2510 C   0  0  0  0  0  0  0  0  0  0  0  0
  138.9750   77.5180  222.6840 C   0  0  0  0  0  0  0  0  0  0  0  0
  138.1460   78.6070  222.9670 C   0  0  0  0  0  0  0  0  0  0  0  0
  138.7150   79.8120  223.3170 C   0  0  0  0  0  0  0  0  0  0  0  0
  140.0860   79.9300  223.3830 C   0  0  0  0  0  0  0  0  0  0  0  0
  140.7240   81.0930  223.7230 C   0  0  0  0  0  0  0  0  0  0  0  0
  142.0790   81.1970  223.7850 C   0  0  0  0  0  0  0  0  0  0  0  0
  142.6740   82.3740  224.1270 F   0  0  0  0  0  0  0  0  0  0  0  0
  142.8560   80.0900  223.4960 C   0  0  0  0  0  0  0  0  0  0  0  0
  142.2090   78.9280  223.1570 C   0  0  0  0  0  0  0  0  0  0  0  0
  140.8320   78.8120  223.0900 C   0  0  0  0  0  0  0  0  0  0  0  0
  140.3000   77.6260  222.7480 N   0  0  0  0  0  0  0  0  0  0  0  0
  140.1930   75.2040  222.3630 H   0  0  0  0  0  0  0  0  0  0  0  0
  137.6566   73.6035  222.3552 H   0  0  0  0  0  0  0  0  0  0  0  0
  138.3996   73.7278  220.7387 H   0  0  0  0  0  0  0  0  0  0  0  0
  140.0010   70.2613  220.6876 H   0  0  0  0  0  0  0  0  0  0  0  0
  140.8481   69.7989  222.0565 H   0  0  0  0  0  0  0  0  0  0  0  0
  137.8026   69.3720  221.4151 H   0  0  0  0  0  0  0  0  0  0  0  0
  138.5871   68.3244  222.3979 H   0  0  0  0  0  0  0  0  0  0  0  0
  137.5346   70.9069  223.5687 H   0  0  0  0  0  0  0  0  0  0  0  0
  138.3501   68.0179  224.3520 H   0  0  0  0  0  0  0  0  0  0  0  0
  139.4111   67.2326  226.4363 H   0  0  0  0  0  0  0  0  0  0  0  0
  141.1169   71.1183  227.0024 H   0  0  0  0  0  0  0  0  0  0  0  0
  140.0541   71.8895  224.9277 H   0  0  0  0  0  0  0  0  0  0  0  0
  137.0523   78.5033  222.9110 H   0  0  0  0  0  0  0  0  0  0  0  0
  138.0758   80.6782  223.5433 H   0  0  0  0  0  0  0  0  0  0  0  0
  140.1158   81.9796  223.9556 H   0  0  0  0  0  0  0  0  0  0  0  0
  143.9542   80.1391  223.5364 H   0  0  0  0  0  0  0  0  0  0  0  0
  142.8179   78.0415  222.9262 H   0  0  0  0  0  0  0  0  0  0  0  0
  1  2  2  0
  2  3  1  0
  3  4  1  0
  4  5  1  0
  5  6  2  0
  5  7  1  0
  7  8  1  0
  8  9  1  0
  9 10  1  0
 10 11  1  0
 11 12  2  0
 12 13  1  0
 13 14  2  0
 14 15  1  0
 14 16  1  0
 16 17  2  0
  2 18  1  0
 18 19  2  0
 19 20  1  0
 20 21  2  0
 21 22  1  0
 22 23  2  0
 23 24  1  0
 23 25  1  0
 25 26  2  0
 26 27  1  0
 27 28  2  0
 10  7  1  0
 17 11  1  0
 28 18  1  0
 27 21  1  0
  3 29  1  0
  4 30  1  0
  4 31  1  0
  8 32  1  0
  8 33  1  0
  9 34  1  0
  9 35  1  0
 10 36  1  1
 12 37  1  0
 13 38  1  0
 16 39  1  0
 17 40  1  0
 19 41  1  0
 20 42  1  0
 22 43  1  0
 25 44  1  0
 26 45  1  0
M  END
>  <smiles>  (58) 
O=C(NCC(=O)N1CCC1c1ccc(Cl)cc1)c1ccc2cc(F)ccc2n1

>  <score_type>  (58) 
oracle

>  <origin>  (58) 
autodockgpu

>  <m_score__min__energy>  (58) 
-8.7300000000000004

>  <m_primary>  (58) 
energy

>  <rmsd>  (58) 
8.735669615058349

>  <m_score__min__rmsd>  (58) 
8.735669615058349

>  <meeko>  (58) 
{"free_energy": -8.13, "intermolecular_energy": -9.62, "internal_energy": -1.97, "cluster_size": 28, "cluster_id": 2, "rank_in_cluster": 24}

>  <energy>  (58) 
-8.57

>  <cluster_rmsd>  (58) 
0.92

>  <cluster>  (58) 
1

$$$$

     RDKit          3D

 45 48  0  0  0  0  0  0  0  0999 V2000
  137.0400   76.1310  222.1690 O   0  0  0  0  0  0  0  0  0  0  0  0
  138.3080   76.2010  222.3200 C   0  0  0  0  0  0  0  0  0  0  0  0
  139.1480   75.0690  222.1310 N   0  0  0  0  0  0  0  0  0  0  0  0
  138.6080   73.7570  221.7520 C   0  0  0  0  0  0  0  0  0  0  0  0
  139.5570   72.7430  222.1970 C   0  0  0  0  0  0  0  0  0  0  0  0
  140.7660   73.0980  222.4120 O   0  0  0  0  0  0  0  0  0  0  0  0
  139.2700   71.3750  222.4170 N   0  0  0  0  0  0  0  0  0  0  0  0
  139.7820   70.1500  221.7890 C   0  0  0  0  0  0  0  0  0  0  0  0
  138.5250   69.4020  222.2060 C   0  0  0  0  0  0  0  0  0  0  0  0
  138.4460   70.5130  223.2400 C   0  0  1  0  0  0  0  0  0  0  0  0
  139.0750   70.0170  224.4940 C   0  0  0  0  0  0  0  0  0  0  0  0
  138.9320   68.7310  224.9580 C   0  0  0  0  0  0  0  0  0  0  0  0
  139.5350   68.2820  226.1300 C   0  0  0  0  0  0  0  0  0  0  0  0
  140.3160   69.1330  226.8820 C   0  0  0  0  0  0  0  0  0  0  0  0
  141.0700   68.5570  228.3540 Cl  0  0  0  0  0  0  0  0  0  0  0  0
  140.4740   70.4290  226.4370 C   0  0  0  0  0  0  0  0  0  0  0  0
  139.8690   70.8600  225.2740 C   0  0  0  0  0  0  0  0  0  0  0  0
  138.9350   77.4860  222.7020 C   0  0  0  0  0  0  0  0  0  0  0  0
  138.0940   78.5580  223.0140 C   0  0  0  0  0  0  0  0  0  0  0  0
  138.6500   79.7660  223.3750 C   0  0  0  0  0  0  0  0  0  0  0  0
  140.0210   79.9040  223.4220 C   0  0  0  0  0  0  0  0  0  0  0  0
  140.6450   81.0710  223.7700 C   0  0  0  0  0  0  0  0  0  0  0  0
  142.0000   81.1940  223.8140 C   0  0  0  0  0  0  0  0  0  0  0  0
  142.5830   82.3750  224.1650 F   0  0  0  0  0  0  0  0  0  0  0  0
  142.7890   80.1030  223.4960 C   0  0  0  0  0  0  0  0  0  0  0  0
  142.1540   78.9370  223.1490 C   0  0  0  0  0  0  0  0  0  0  0  0
  140.7780   78.8020  223.1010 C   0  0  0  0  0  0  0  0  0  0  0  0
  140.2590   77.6130  222.7480 N   0  0  0  0  0  0  0  0  0  0  0  0
  140.1880   75.2090  222.2750 H   0  0  0  0  0  0  0  0  0  0  0  0
  137.6341   73.5979  222.2379 H   0  0  0  0  0  0  0  0  0  0  0  0
  138.4638   73.6991  220.6630 H   0  0  0  0  0  0  0  0  0  0  0  0
  139.9167   70.2275  220.7000 H   0  0  0  0  0  0  0  0  0  0  0  0
  140.7744   69.7609  222.0607 H   0  0  0  0  0  0  0  0  0  0  0  0
  137.7132   69.3818  221.4640 H   0  0  0  0  0  0  0  0  0  0  0  0
  138.4925   68.3288  222.4451 H   0  0  0  0  0  0  0  0  0  0  0  0
  137.5005   70.9384  223.6076 H   0  0  0  0  0  0  0  0  0  0  0  0
  138.3156   68.0273  224.3793 H   0  0  0  0  0  0  0  0  0  0  0  0
  139.3872   67.2423  226.4575 H   0  0  0  0  0  0  0  0  0  0  0  0
  141.0917   71.1297  227.0180 H   0  0  0  0  0  0  0  0  0  0  0  0
  140.0170   71.9011  224.9511 H   0  0  0  0  0  0  0  0  0  0  0  0
  137.0013   78.4387  222.9719 H   0  0  0  0  0  0  0  0  0  0  0  0
  138.0014   80.6185  223.6252 H   0  0  0  0  0  0  0  0  0  0  0  0
  140.0270   81.9447  224.0244 H   0  0  0  0  0  0  0  0  0  0  0  0
  143.8868   80.1679  223.5205 H   0  0  0  0  0  0  0  0  0  0  0  0
  142.7721   78.0631  222.8955 H   0  0  0  0  0  0  0  0  0  0  0  0
  1  2  2  0
  2  3  1  0
  3  4  1  0
  4  5  1  0
  5  6  2  0
  5  7  1  0
  7  8  1  0
  8  9  1  0
  9 10  1  0
 10 11  1  0
 11 12  2  0
 12 13  1  0
 13 14  2  0
 14 15  1  0
 14 16  1  0
 16 17  2  0
  2 18  1  0
 18 19  2  0
 19 20  1  0
 20 21  2  0
 21 22  1  0
 22 23  2  0
 23 24  1  0
 23 25  1  0
 25 26  2  0
 26 27  1  0
 27 28  2  0
 10  7  1  0
 17 11  1  0
 28 18  1  0
 27 21  1  0
  3 29  1  0
  4 30  1  0
  4 31  1  0
  8 32  1  0
  8 33  1  0
  9 34  1  0
  9 35  1  0
 10 36  1  1
 12 37  1  0
 13 38  1  0
 16 39  1  0
 17 40  1  0
 19 41  1  0
 20 42  1  0
 22 43  1  0
 25 44  1  0
 26 45  1  0
M  END
>  <smiles>  (59) 
O=C(NCC(=O)N1CCC1c1ccc(Cl)cc1)c1ccc2cc(F)ccc2n1

>  <score_type>  (59) 
oracle

>  <origin>  (59) 
autodockgpu

>  <m_score__min__energy>  (59) 
-8.7300000000000004

>  <m_primary>  (59) 
energy

>  <rmsd>  (59) 
8.724318683114234

>  <m_score__min__rmsd>  (59) 
8.724318683114234

>  <meeko>  (59) 
{"free_energy": -8.2, "intermolecular_energy": -9.7, "internal_energy": -1.96, "cluster_size": 28, "cluster_id": 2, "rank_in_cluster": 19}

>  <energy>  (59) 
-8.56

>  <cluster_rmsd>  (59) 
0.91

>  <cluster>  (59) 
1

$$$$

     RDKit          3D

 45 48  0  0  0  0  0  0  0  0999 V2000
  137.9340   70.8650  221.9310 O   0  0  0  0  0  0  0  0  0  0  0  0
  138.7340   71.3250  222.8160 C   0  0  0  0  0  0  0  0  0  0  0  0
  139.2740   72.6380  222.7270 N   0  0  0  0  0  0  0  0  0  0  0  0
  138.9440   73.5390  221.6140 C   0  0  0  0  0  0  0  0  0  0  0  0
  139.9200   74.6220  221.6180 C   0  0  0  0  0  0  0  0  0  0  0  0
  141.0750   74.3950  222.1170 O   0  0  0  0  0  0  0  0  0  0  0  0
  139.7150   75.9290  221.1160 N   0  0  0  0  0  0  0  0  0  0  0  0
  138.5130   76.7680  221.0240 C   0  0  0  0  0  0  0  0  0  0  0  0
  139.1450   77.5620  219.8900 C   0  0  0  0  0  0  0  0  0  0  0  0
  140.4320   77.0260  220.4970 C   0  0  1  0  0  0  0  0  0  0  0  0
  140.9650   78.0590  221.4250 C   0  0  0  0  0  0  0  0  0  0  0  0
  141.0930   77.8690  222.7800 C   0  0  0  0  0  0  0  0  0  0  0  0
  141.6030   78.8450  223.6330 C   0  0  0  0  0  0  0  0  0  0  0  0
  142.0060   80.0650  223.1330 C   0  0  0  0  0  0  0  0  0  0  0  0
  142.6450   81.2850  224.2150 Cl  0  0  0  0  0  0  0  0  0  0  0  0
  141.8860   80.2790  221.7770 C   0  0  0  0  0  0  0  0  0  0  0  0
  141.3780   79.3030  220.9430 C   0  0  0  0  0  0  0  0  0  0  0  0
  139.1190   70.4840  223.9710 C   0  0  0  0  0  0  0  0  0  0  0  0
  138.8200   69.1200  223.9160 C   0  0  0  0  0  0  0  0  0  0  0  0
  139.1680   68.3120  224.9770 C   0  0  0  0  0  0  0  0  0  0  0  0
  139.8020   68.8550  226.0740 C   0  0  0  0  0  0  0  0  0  0  0  0
  140.1780   68.1170  227.1640 C   0  0  0  0  0  0  0  0  0  0  0  0
  140.8040   68.6640  228.2400 C   0  0  0  0  0  0  0  0  0  0  0  0
  141.1610   67.8940  229.3070 F   0  0  0  0  0  0  0  0  0  0  0  0
  141.0780   70.0200  228.2460 C   0  0  0  0  0  0  0  0  0  0  0  0
  140.6990   70.7520  227.1500 C   0  0  0  0  0  0  0  0  0  0  0  0
  140.0610   70.2050  226.0500 C   0  0  0  0  0  0  0  0  0  0  0  0
  139.7330   71.0130  225.0270 N   0  0  0  0  0  0  0  0  0  0  0  0
  139.9290   72.9460  223.5000 H   0  0  0  0  0  0  0  0  0  0  0  0
  138.9949   72.9919  220.6610 H   0  0  0  0  0  0  0  0  0  0  0  0
  137.9251   73.9373  221.7291 H   0  0  0  0  0  0  0  0  0  0  0  0
  137.6047   76.2192  220.7347 H   0  0  0  0  0  0  0  0  0  0  0  0
  138.1284   77.2850  221.9155 H   0  0  0  0  0  0  0  0  0  0  0  0
  138.9136   77.2099  218.8739 H   0  0  0  0  0  0  0  0  0  0  0  0
  138.9483   78.6263  219.6934 H   0  0  0  0  0  0  0  0  0  0  0  0
  141.3222   76.7632  219.9066 H   0  0  0  0  0  0  0  0  0  0  0  0
  140.7796   76.9058  223.2090 H   0  0  0  0  0  0  0  0  0  0  0  0
  141.6846   78.6414  224.7109 H   0  0  0  0  0  0  0  0  0  0  0  0
  142.2002   81.2436  221.3519 H   0  0  0  0  0  0  0  0  0  0  0  0
  141.2961   79.5116  219.8661 H   0  0  0  0  0  0  0  0  0  0  0  0
  138.3130   68.6963  223.0365 H   0  0  0  0  0  0  0  0  0  0  0  0
  138.9403   67.2362  224.9485 H   0  0  0  0  0  0  0  0  0  0  0  0
  139.9651   67.0378  227.1696 H   0  0  0  0  0  0  0  0  0  0  0  0
  141.5825   70.4947  229.1005 H   0  0  0  0  0  0  0  0  0  0  0  0
  140.9133   71.8309  227.1447 H   0  0  0  0  0  0  0  0  0  0  0  0
  1  2  2  0
  2  3  1  0
  3  4  1  0
  4  5  1  0
  5  6  2  0
  5  7  1  0
  7  8  1  0
  8  9  1  0
  9 10  1  0
 10 11  1  0
 11 12  2  0
 12 13  1  0
 13 14  2  0
 14 15  1  0
 14 16  1  0
 16 17  2  0
  2 18  1  0
 18 19  2  0
 19 20  1  0
 20 21  2  0
 21 22  1  0
 22 23  2  0
 23 24  1  0
 23 25  1  0
 25 26  2  0
 26 27  1  0
 27 28  2  0
 10  7  1  0
 17 11  1  0
 28 18  1  0
 27 21  1  0
  3 29  1  0
  4 30  1  0
  4 31  1  0
  8 32  1  0
  8 33  1  0
  9 34  1  0
  9 35  1  0
 10 36  1  6
 12 37  1  0
 13 38  1  0
 16 39  1  0
 17 40  1  0
 19 41  1  0
 20 42  1  0
 22 43  1  0
 25 44  1  0
 26 45  1  0
M  END
>  <smiles>  (60) 
O=C(NCC(=O)N1CCC1c1ccc(Cl)cc1)c1ccc2cc(F)ccc2n1

>  <score_type>  (60) 
oracle

>  <origin>  (60) 
autodockgpu

>  <m_score__min__energy>  (60) 
-8.7300000000000004

>  <m_primary>  (60) 
energy

>  <rmsd>  (60) 
2.4040636592988545

>  <m_score__min__rmsd>  (60) 
2.4040636592988545

>  <meeko>  (60) 
{"free_energy": -8.57, "intermolecular_energy": -10.06, "internal_energy": -1.77, "cluster_size": 22, "cluster_id": 1, "rank_in_cluster": 7}

>  <energy>  (60) 
-8.55

>  <cluster_rmsd>  (60) 
0.78

>  <cluster>  (60) 
1

$$$$

     RDKit          3D

 45 48  0  0  0  0  0  0  0  0999 V2000
  137.0650   76.2600  221.8360 O   0  0  0  0  0  0  0  0  0  0  0  0
  138.2810   76.2710  222.2320 C   0  0  0  0  0  0  0  0  0  0  0  0
  139.0580   75.0810  222.2960 N   0  0  0  0  0  0  0  0  0  0  0  0
  138.5090   73.7740  221.9120 C   0  0  0  0  0  0  0  0  0  0  0  0
  139.5070   72.7620  222.2380 C   0  0  0  0  0  0  0  0  0  0  0  0
  140.7290   73.1240  222.3280 O   0  0  0  0  0  0  0  0  0  0  0  0
  139.2550   71.3890  222.4660 N   0  0  0  0  0  0  0  0  0  0  0  0
  139.7930   70.1730  221.8420 C   0  0  0  0  0  0  0  0  0  0  0  0
  138.5570   69.3970  222.2690 C   0  0  0  0  0  0  0  0  0  0  0  0
  138.4560   70.5110  223.2980 C   0  0  1  0  0  0  0  0  0  0  0  0
  139.1030   70.0370  224.5510 C   0  0  0  0  0  0  0  0  0  0  0  0
  139.8960   70.8320  225.3440 C   0  0  0  0  0  0  0  0  0  0  0  0
  140.4870   70.3740  226.5190 C   0  0  0  0  0  0  0  0  0  0  0  0
  140.2910   69.0750  226.9360 C   0  0  0  0  0  0  0  0  0  0  0  0
  141.0390   68.5090  228.4150 Cl  0  0  0  0  0  0  0  0  0  0  0  0
  139.4990   68.2580  226.1570 C   0  0  0  0  0  0  0  0  0  0  0  0
  138.9200   68.7260  224.9940 C   0  0  0  0  0  0  0  0  0  0  0  0
  138.9130   77.5460  222.6380 C   0  0  0  0  0  0  0  0  0  0  0  0
  138.0760   78.6210  222.9520 C   0  0  0  0  0  0  0  0  0  0  0  0
  138.6370   79.8200  223.3340 C   0  0  0  0  0  0  0  0  0  0  0  0
  140.0080   79.9460  223.4010 C   0  0  0  0  0  0  0  0  0  0  0  0
  140.6370   81.1040  223.7720 C   0  0  0  0  0  0  0  0  0  0  0  0
  141.9910   81.2160  223.8350 C   0  0  0  0  0  0  0  0  0  0  0  0
  142.5790   82.3870  224.2080 F   0  0  0  0  0  0  0  0  0  0  0  0
  142.7760   80.1220  223.5150 C   0  0  0  0  0  0  0  0  0  0  0  0
  142.1370   78.9660  223.1440 C   0  0  0  0  0  0  0  0  0  0  0  0
  140.7610   78.8420  223.0770 C   0  0  0  0  0  0  0  0  0  0  0  0
  140.2370   77.6620  222.7030 N   0  0  0  0  0  0  0  0  0  0  0  0
  140.0580   75.1730  222.6340 H   0  0  0  0  0  0  0  0  0  0  0  0
  137.5811   73.5787  222.4696 H   0  0  0  0  0  0  0  0  0  0  0  0
  138.2764   73.7541  220.8371 H   0  0  0  0  0  0  0  0  0  0  0  0
  139.9204   70.2478  220.7520 H   0  0  0  0  0  0  0  0  0  0  0  0
  140.7957   69.8094  222.1110 H   0  0  0  0  0  0  0  0  0  0  0  0
  137.7423   69.3533  221.5312 H   0  0  0  0  0  0  0  0  0  0  0  0
  138.5519   68.3246  222.5136 H   0  0  0  0  0  0  0  0  0  0  0  0
  137.5023   70.9150  223.6684 H   0  0  0  0  0  0  0  0  0  0  0  0
  140.0712   71.8738  225.0376 H   0  0  0  0  0  0  0  0  0  0  0  0
  141.1132   71.0523  227.1171 H   0  0  0  0  0  0  0  0  0  0  0  0
  139.3257   67.2169  226.4670 H   0  0  0  0  0  0  0  0  0  0  0  0
  138.2951   68.0445  224.3981 H   0  0  0  0  0  0  0  0  0  0  0  0
  136.9830   78.5109  222.8947 H   0  0  0  0  0  0  0  0  0  0  0  0
  137.9921   80.6750  223.5850 H   0  0  0  0  0  0  0  0  0  0  0  0
  140.0225   81.9792  224.0296 H   0  0  0  0  0  0  0  0  0  0  0  0
  143.8738   80.1774  223.5567 H   0  0  0  0  0  0  0  0  0  0  0  0
  142.7518   78.0911  222.8861 H   0  0  0  0  0  0  0  0  0  0  0  0
  1  2  2  0
  2  3  1  0
  3  4  1  0
  4  5  1  0
  5  6  2  0
  5  7  1  0
  7  8  1  0
  8  9  1  0
  9 10  1  0
 10 11  1  0
 11 12  2  0
 12 13  1  0
 13 14  2  0
 14 15  1  0
 14 16  1  0
 16 17  2  0
  2 18  1  0
 18 19  2  0
 19 20  1  0
 20 21  2  0
 21 22  1  0
 22 23  2  0
 23 24  1  0
 23 25  1  0
 25 26  2  0
 26 27  1  0
 27 28  2  0
 10  7  1  0
 17 11  1  0
 28 18  1  0
 27 21  1  0
  3 29  1  0
  4 30  1  0
  4 31  1  0
  8 32  1  0
  8 33  1  0
  9 34  1  0
  9 35  1  0
 10 36  1  1
 12 37  1  0
 13 38  1  0
 16 39  1  0
 17 40  1  0
 19 41  1  0
 20 42  1  0
 22 43  1  0
 25 44  1  0
 26 45  1  0
M  END
>  <smiles>  (61) 
O=C(NCC(=O)N1CCC1c1ccc(Cl)cc1)c1ccc2cc(F)ccc2n1

>  <score_type>  (61) 
oracle

>  <origin>  (61) 
autodockgpu

>  <m_score__min__energy>  (61) 
-8.7300000000000004

>  <m_primary>  (61) 
energy

>  <rmsd>  (61) 
8.619726531164797

>  <m_score__min__rmsd>  (61) 
8.619726531164797

>  <meeko>  (61) 
{"free_energy": -8.23, "intermolecular_energy": -9.72, "internal_energy": -1.9, "cluster_size": 28, "cluster_id": 2, "rank_in_cluster": 16}

>  <energy>  (61) 
-8.53

>  <cluster_rmsd>  (61) 
1.27

>  <cluster>  (61) 
1

$$$$

     RDKit          3D

 45 48  0  0  0  0  0  0  0  0999 V2000
  137.3990   71.2150  222.4310 O   0  0  0  0  0  0  0  0  0  0  0  0
  138.4880   71.4730  223.0490 C   0  0  0  0  0  0  0  0  0  0  0  0
  139.2870   72.6030  222.7170 N   0  0  0  0  0  0  0  0  0  0  0  0
  138.9060   73.5350  221.6470 C   0  0  0  0  0  0  0  0  0  0  0  0
  139.9510   74.5470  221.5490 C   0  0  0  0  0  0  0  0  0  0  0  0
  141.1150   74.2600  221.9920 O   0  0  0  0  0  0  0  0  0  0  0  0
  139.8040   75.8440  221.0040 N   0  0  0  0  0  0  0  0  0  0  0  0
  138.6270   76.6990  220.8050 C   0  0  0  0  0  0  0  0  0  0  0  0
  139.3530   77.4560  219.7030 C   0  0  0  0  0  0  0  0  0  0  0  0
  140.5830   76.9150  220.4140 C   0  0  1  0  0  0  0  0  0  0  0  0
  141.0640   77.9620  221.3560 C   0  0  0  0  0  0  0  0  0  0  0  0
  141.0800   77.8060  222.7210 C   0  0  0  0  0  0  0  0  0  0  0  0
  141.5420   78.7950  223.5870 C   0  0  0  0  0  0  0  0  0  0  0  0
  142.0110   79.9920  223.0900 C   0  0  0  0  0  0  0  0  0  0  0  0
  142.5900   81.2280  224.1880 Cl  0  0  0  0  0  0  0  0  0  0  0  0
  142.0040   80.1720  221.7230 C   0  0  0  0  0  0  0  0  0  0  0  0
  141.5420   79.1840  220.8770 C   0  0  0  0  0  0  0  0  0  0  0  0
  138.9470   70.5860  224.1400 C   0  0  0  0  0  0  0  0  0  0  0  0
  138.6880   69.2170  224.0230 C   0  0  0  0  0  0  0  0  0  0  0  0
  139.1040   68.3660  225.0240 C   0  0  0  0  0  0  0  0  0  0  0  0
  139.7660   68.8710  226.1230 C   0  0  0  0  0  0  0  0  0  0  0  0
  140.2090   68.0890  227.1550 C   0  0  0  0  0  0  0  0  0  0  0  0
  140.8610   68.5990  228.2350 C   0  0  0  0  0  0  0  0  0  0  0  0
  141.2860   67.7860  229.2430 F   0  0  0  0  0  0  0  0  0  0  0  0
  141.0930   69.9610  228.3040 C   0  0  0  0  0  0  0  0  0  0  0  0
  140.6460   70.7370  227.2640 C   0  0  0  0  0  0  0  0  0  0  0  0
  139.9820   70.2280  226.1620 C   0  0  0  0  0  0  0  0  0  0  0  0
  139.5860   71.0780  225.1980 N   0  0  0  0  0  0  0  0  0  0  0  0
  140.1750   72.7490  223.2750 H   0  0  0  0  0  0  0  0  0  0  0  0
  138.8171   72.9944  220.6931 H   0  0  0  0  0  0  0  0  0  0  0  0
  137.9358   74.0028  221.8704 H   0  0  0  0  0  0  0  0  0  0  0  0
  137.7329   76.1575  220.4623 H   0  0  0  0  0  0  0  0  0  0  0  0
  138.1876   77.2431  221.6540 H   0  0  0  0  0  0  0  0  0  0  0  0
  139.1901   77.0836  218.6809 H   0  0  0  0  0  0  0  0  0  0  0  0
  139.1892   78.5182  219.4688 H   0  0  0  0  0  0  0  0  0  0  0  0
  141.5090   76.6248  219.8961 H   0  0  0  0  0  0  0  0  0  0  0  0
  140.7128   76.8610  223.1479 H   0  0  0  0  0  0  0  0  0  0  0  0
  141.5324   78.6196  224.6729 H   0  0  0  0  0  0  0  0  0  0  0  0
  142.3725   81.1181  221.2998 H   0  0  0  0  0  0  0  0  0  0  0  0
  141.5505   79.3645  219.7920 H   0  0  0  0  0  0  0  0  0  0  0  0
  138.1586   68.8239  223.1425 H   0  0  0  0  0  0  0  0  0  0  0  0
  138.9083   67.2863  224.9464 H   0  0  0  0  0  0  0  0  0  0  0  0
  140.0308   67.0045  227.1096 H   0  0  0  0  0  0  0  0  0  0  0  0
  141.6174   70.4064  229.1623 H   0  0  0  0  0  0  0  0  0  0  0  0
  140.8252   71.8214  227.3090 H   0  0  0  0  0  0  0  0  0  0  0  0
  1  2  2  0
  2  3  1  0
  3  4  1  0
  4  5  1  0
  5  6  2  0
  5  7  1  0
  7  8  1  0
  8  9  1  0
  9 10  1  0
 10 11  1  0
 11 12  2  0
 12 13  1  0
 13 14  2  0
 14 15  1  0
 14 16  1  0
 16 17  2  0
  2 18  1  0
 18 19  2  0
 19 20  1  0
 20 21  2  0
 21 22  1  0
 22 23  2  0
 23 24  1  0
 23 25  1  0
 25 26  2  0
 26 27  1  0
 27 28  2  0
 10  7  1  0
 17 11  1  0
 28 18  1  0
 27 21  1  0
  3 29  1  0
  4 30  1  0
  4 31  1  0
  8 32  1  0
  8 33  1  0
  9 34  1  0
  9 35  1  0
 10 36  1  6
 12 37  1  0
 13 38  1  0
 16 39  1  0
 17 40  1  0
 19 41  1  0
 20 42  1  0
 22 43  1  0
 25 44  1  0
 26 45  1  0
M  END
>  <smiles>  (62) 
O=C(NCC(=O)N1CCC1c1ccc(Cl)cc1)c1ccc2cc(F)ccc2n1

>  <score_type>  (62) 
oracle

>  <origin>  (62) 
autodockgpu

>  <m_score__min__energy>  (62) 
-8.7300000000000004

>  <m_primary>  (62) 
energy

>  <rmsd>  (62) 
2.386357801597573

>  <m_score__min__rmsd>  (62) 
2.386357801597573

>  <meeko>  (62) 
{"free_energy": -8.46, "intermolecular_energy": -9.95, "internal_energy": -1.77, "cluster_size": 22, "cluster_id": 1, "rank_in_cluster": 14}

>  <energy>  (62) 
-8.5

>  <cluster_rmsd>  (62) 
0.74

>  <cluster>  (62) 
1

$$$$

     RDKit          3D

 45 48  0  0  0  0  0  0  0  0999 V2000
  137.0710   76.1690  222.1230 O   0  0  0  0  0  0  0  0  0  0  0  0
  138.3370   76.2350  222.2910 C   0  0  0  0  0  0  0  0  0  0  0  0
  139.1770   75.1020  222.1050 N   0  0  0  0  0  0  0  0  0  0  0  0
  138.6380   73.7940  221.7100 C   0  0  0  0  0  0  0  0  0  0  0  0
  139.5350   72.7700  222.2340 C   0  0  0  0  0  0  0  0  0  0  0  0
  140.7460   73.0950  222.4810 O   0  0  0  0  0  0  0  0  0  0  0  0
  139.1940   71.4230  222.5000 N   0  0  0  0  0  0  0  0  0  0  0  0
  139.6120   70.1620  221.8740 C   0  0  0  0  0  0  0  0  0  0  0  0
  138.3440   69.4850  222.3730 C   0  0  0  0  0  0  0  0  0  0  0  0
  138.3740   70.6200  223.3840 C   0  0  1  0  0  0  0  0  0  0  0  0
  139.0430   70.1190  224.6150 C   0  0  0  0  0  0  0  0  0  0  0  0
  139.9060   70.8760  225.3720 C   0  0  0  0  0  0  0  0  0  0  0  0
  140.5170   70.3930  226.5270 C   0  0  0  0  0  0  0  0  0  0  0  0
  140.2700   69.1070  226.9590 C   0  0  0  0  0  0  0  0  0  0  0  0
  141.0440   68.5100  228.4120 Cl  0  0  0  0  0  0  0  0  0  0  0  0
  139.4080   68.3290  226.2160 C   0  0  0  0  0  0  0  0  0  0  0  0
  138.8100   68.8210  225.0730 C   0  0  0  0  0  0  0  0  0  0  0  0
  138.9620   77.5160  222.6890 C   0  0  0  0  0  0  0  0  0  0  0  0
  138.1200   78.5840  223.0120 C   0  0  0  0  0  0  0  0  0  0  0  0
  138.6740   79.7880  223.3880 C   0  0  0  0  0  0  0  0  0  0  0  0
  140.0450   79.9260  223.4400 C   0  0  0  0  0  0  0  0  0  0  0  0
  140.6680   81.0890  223.8040 C   0  0  0  0  0  0  0  0  0  0  0  0
  142.0220   81.2130  223.8520 C   0  0  0  0  0  0  0  0  0  0  0  0
  142.6040   82.3890  224.2180 F   0  0  0  0  0  0  0  0  0  0  0  0
  142.8120   80.1260  223.5230 C   0  0  0  0  0  0  0  0  0  0  0  0
  142.1800   78.9640  223.1610 C   0  0  0  0  0  0  0  0  0  0  0  0
  140.8040   78.8280  223.1080 C   0  0  0  0  0  0  0  0  0  0  0  0
  140.2860   77.6430  222.7400 N   0  0  0  0  0  0  0  0  0  0  0  0
  140.2150   75.2380  222.2630 H   0  0  0  0  0  0  0  0  0  0  0  0
  137.6305   73.6610  222.1310 H   0  0  0  0  0  0  0  0  0  0  0  0
  138.5665   73.7208  220.6148 H   0  0  0  0  0  0  0  0  0  0  0  0
  139.6921   70.2110  220.7780 H   0  0  0  0  0  0  0  0  0  0  0  0
  140.5975   69.7300  222.1023 H   0  0  0  0  0  0  0  0  0  0  0  0
  137.4938   69.4897  221.6750 H   0  0  0  0  0  0  0  0  0  0  0  0
  138.2725   68.4198  222.6380 H   0  0  0  0  0  0  0  0  0  0  0  0
  137.4711   71.0996  223.7900 H   0  0  0  0  0  0  0  0  0  0  0  0
  140.1230   71.9059  225.0522 H   0  0  0  0  0  0  0  0  0  0  0  0
  141.1996   71.0404  227.0970 H   0  0  0  0  0  0  0  0  0  0  0  0
  139.1932   67.2997  226.5390 H   0  0  0  0  0  0  0  0  0  0  0  0
  138.1287   68.1700  224.5055 H   0  0  0  0  0  0  0  0  0  0  0  0
  137.0275   78.4645  222.9665 H   0  0  0  0  0  0  0  0  0  0  0  0
  138.0242   80.6372  223.6461 H   0  0  0  0  0  0  0  0  0  0  0  0
  140.0488   81.9588  224.0685 H   0  0  0  0  0  0  0  0  0  0  0  0
  143.9097   80.1915  223.5508 H   0  0  0  0  0  0  0  0  0  0  0  0
  142.7998   78.0939  222.8989 H   0  0  0  0  0  0  0  0  0  0  0  0
  1  2  2  0
  2  3  1  0
  3  4  1  0
  4  5  1  0
  5  6  2  0
  5  7  1  0
  7  8  1  0
  8  9  1  0
  9 10  1  0
 10 11  1  0
 11 12  2  0
 12 13  1  0
 13 14  2  0
 14 15  1  0
 14 16  1  0
 16 17  2  0
  2 18  1  0
 18 19  2  0
 19 20  1  0
 20 21  2  0
 21 22  1  0
 22 23  2  0
 23 24  1  0
 23 25  1  0
 25 26  2  0
 26 27  1  0
 27 28  2  0
 10  7  1  0
 17 11  1  0
 28 18  1  0
 27 21  1  0
  3 29  1  0
  4 30  1  0
  4 31  1  0
  8 32  1  0
  8 33  1  0
  9 34  1  0
  9 35  1  0
 10 36  1  1
 12 37  1  0
 13 38  1  0
 16 39  1  0
 17 40  1  0
 19 41  1  0
 20 42  1  0
 22 43  1  0
 25 44  1  0
 26 45  1  0
M  END
>  <smiles>  (63) 
O=C(NCC(=O)N1CCC1c1ccc(Cl)cc1)c1ccc2cc(F)ccc2n1

>  <score_type>  (63) 
oracle

>  <origin>  (63) 
autodockgpu

>  <m_score__min__energy>  (63) 
-8.7300000000000004

>  <m_primary>  (63) 
energy

>  <rmsd>  (63) 
8.607789075471565

>  <m_score__min__rmsd>  (63) 
8.607789075471565

>  <meeko>  (63) 
{"free_energy": -8.28, "intermolecular_energy": -9.77, "internal_energy": -1.93, "cluster_size": 28, "cluster_id": 2, "rank_in_cluster": 9}

>  <energy>  (63) 
-8.48

>  <cluster_rmsd>  (63) 
1.25

>  <cluster>  (63) 
1

$$$$

     RDKit          3D

 45 48  0  0  0  0  0  0  0  0999 V2000
  137.2430   76.3570  221.4270 O   0  0  0  0  0  0  0  0  0  0  0  0
  138.3580   76.3280  222.0510 C   0  0  0  0  0  0  0  0  0  0  0  0
  139.0270   75.1040  222.3310 N   0  0  0  0  0  0  0  0  0  0  0  0
  138.4750   73.8070  221.9190 C   0  0  0  0  0  0  0  0  0  0  0  0
  139.4460   72.7790  222.2780 C   0  0  0  0  0  0  0  0  0  0  0  0
  140.6740   73.1170  222.3830 O   0  0  0  0  0  0  0  0  0  0  0  0
  139.1610   71.4150  222.5230 N   0  0  0  0  0  0  0  0  0  0  0  0
  139.6420   70.1810  221.8890 C   0  0  0  0  0  0  0  0  0  0  0  0
  138.3990   69.4440  222.3620 C   0  0  0  0  0  0  0  0  0  0  0  0
  138.3650   70.5660  223.3870 C   0  0  1  0  0  0  0  0  0  0  0  0
  139.0400   70.0800  224.6210 C   0  0  0  0  0  0  0  0  0  0  0  0
  139.8990   70.8480  225.3700 C   0  0  0  0  0  0  0  0  0  0  0  0
  140.5150   70.3790  226.5270 C   0  0  0  0  0  0  0  0  0  0  0  0
  140.2770   69.0960  226.9710 C   0  0  0  0  0  0  0  0  0  0  0  0
  141.0570   68.5160  228.4280 Cl  0  0  0  0  0  0  0  0  0  0  0  0
  139.4190   68.3060  226.2360 C   0  0  0  0  0  0  0  0  0  0  0  0
  138.8160   68.7840  225.0900 C   0  0  0  0  0  0  0  0  0  0  0  0
  138.9850   77.5900  222.5020 C   0  0  0  0  0  0  0  0  0  0  0  0
  138.1440   78.6530  222.8460 C   0  0  0  0  0  0  0  0  0  0  0  0
  138.6990   79.8400  223.2700 C   0  0  0  0  0  0  0  0  0  0  0  0
  140.0700   79.9660  223.3500 C   0  0  0  0  0  0  0  0  0  0  0  0
  140.6940   81.1130  223.7620 C   0  0  0  0  0  0  0  0  0  0  0  0
  142.0480   81.2250  223.8370 C   0  0  0  0  0  0  0  0  0  0  0  0
  142.6310   82.3860  224.2520 F   0  0  0  0  0  0  0  0  0  0  0  0
  142.8370   80.1450  223.4860 C   0  0  0  0  0  0  0  0  0  0  0  0
  142.2030   79.0000  223.0740 C   0  0  0  0  0  0  0  0  0  0  0  0
  140.8270   78.8750  222.9940 C   0  0  0  0  0  0  0  0  0  0  0  0
  140.3080   77.7070  222.5790 N   0  0  0  0  0  0  0  0  0  0  0  0
  139.9470   75.1630  222.8520 H   0  0  0  0  0  0  0  0  0  0  0  0
  137.5236   73.6221  222.4393 H   0  0  0  0  0  0  0  0  0  0  0  0
  138.2837   73.7956  220.8358 H   0  0  0  0  0  0  0  0  0  0  0  0
  139.7348   70.2463  220.7949 H   0  0  0  0  0  0  0  0  0  0  0  0
  140.6422   69.7896  222.1265 H   0  0  0  0  0  0  0  0  0  0  0  0
  137.5590   69.4204  221.6522 H   0  0  0  0  0  0  0  0  0  0  0  0
  138.3709   68.3735  222.6134 H   0  0  0  0  0  0  0  0  0  0  0  0
  137.4365   70.9998  223.7866 H   0  0  0  0  0  0  0  0  0  0  0  0
  140.1087   71.8766  225.0414 H   0  0  0  0  0  0  0  0  0  0  0  0
  141.1950   71.0355  227.0896 H   0  0  0  0  0  0  0  0  0  0  0  0
  139.2116   67.2781  226.5681 H   0  0  0  0  0  0  0  0  0  0  0  0
  138.1382   68.1237  224.5290 H   0  0  0  0  0  0  0  0  0  0  0  0
  137.0516   78.5424  222.7787 H   0  0  0  0  0  0  0  0  0  0  0  0
  138.0505   80.6852  223.5441 H   0  0  0  0  0  0  0  0  0  0  0  0
  140.0761   81.9784  224.0436 H   0  0  0  0  0  0  0  0  0  0  0  0
  143.9344   80.2018  223.5353 H   0  0  0  0  0  0  0  0  0  0  0  0
  142.8215   78.1351  222.7922 H   0  0  0  0  0  0  0  0  0  0  0  0
  1  2  2  0
  2  3  1  0
  3  4  1  0
  4  5  1  0
  5  6  2  0
  5  7  1  0
  7  8  1  0
  8  9  1  0
  9 10  1  0
 10 11  1  0
 11 12  2  0
 12 13  1  0
 13 14  2  0
 14 15  1  0
 14 16  1  0
 16 17  2  0
  2 18  1  0
 18 19  2  0
 19 20  1  0
 20 21  2  0
 21 22  1  0
 22 23  2  0
 23 24  1  0
 23 25  1  0
 25 26  2  0
 26 27  1  0
 27 28  2  0
 10  7  1  0
 17 11  1  0
 28 18  1  0
 27 21  1  0
  3 29  1  0
  4 30  1  0
  4 31  1  0
  8 32  1  0
  8 33  1  0
  9 34  1  0
  9 35  1  0
 10 36  1  1
 12 37  1  0
 13 38  1  0
 16 39  1  0
 17 40  1  0
 19 41  1  0
 20 42  1  0
 22 43  1  0
 25 44  1  0
 26 45  1  0
M  END
>  <smiles>  (64) 
O=C(NCC(=O)N1CCC1c1ccc(Cl)cc1)c1ccc2cc(F)ccc2n1

>  <score_type>  (64) 
oracle

>  <origin>  (64) 
autodockgpu

>  <m_score__min__energy>  (64) 
-8.7300000000000004

>  <m_primary>  (64) 
energy

>  <rmsd>  (64) 
8.638875588303002

>  <m_score__min__rmsd>  (64) 
8.638875588303002

>  <meeko>  (64) 
{"free_energy": -8.28, "intermolecular_energy": -9.77, "internal_energy": -1.8, "cluster_size": 28, "cluster_id": 2, "rank_in_cluster": 11}

>  <energy>  (64) 
-8.46

>  <cluster_rmsd>  (64) 
0.86

>  <cluster>  (64) 
1

$$$$

     RDKit          3D

 45 48  0  0  0  0  0  0  0  0999 V2000
  138.0140   75.4890  220.2810 O   0  0  0  0  0  0  0  0  0  0  0  0
  138.6900   75.6450  221.3540 C   0  0  0  0  0  0  0  0  0  0  0  0
  138.9880   74.5540  222.2170 N   0  0  0  0  0  0  0  0  0  0  0  0
  138.5360   73.1880  221.9230 C   0  0  0  0  0  0  0  0  0  0  0  0
  139.3420   72.2730  222.7240 C   0  0  0  0  0  0  0  0  0  0  0  0
  140.4710   72.6840  223.1600 O   0  0  0  0  0  0  0  0  0  0  0  0
  138.9950   70.9470  223.0740 N   0  0  0  0  0  0  0  0  0  0  0  0
  139.3100   69.6530  222.4550 C   0  0  0  0  0  0  0  0  0  0  0  0
  138.0840   69.0330  223.1090 C   0  0  0  0  0  0  0  0  0  0  0  0
  138.2520   70.2000  224.0690 C   0  0  1  0  0  0  0  0  0  0  0  0
  139.0340   69.7200  225.2400 C   0  0  0  0  0  0  0  0  0  0  0  0
  139.9090   70.5120  225.9440 C   0  0  0  0  0  0  0  0  0  0  0  0
  140.6270   70.0490  227.0440 C   0  0  0  0  0  0  0  0  0  0  0  0
  140.4790   68.7470  227.4740 C   0  0  0  0  0  0  0  0  0  0  0  0
  141.3870   68.1750  228.8580 Cl  0  0  0  0  0  0  0  0  0  0  0  0
  139.6070   67.9330  226.7830 C   0  0  0  0  0  0  0  0  0  0  0  0
  138.9020   68.4070  225.6940 C   0  0  0  0  0  0  0  0  0  0  0  0
  139.1850   76.9890  221.7260 C   0  0  0  0  0  0  0  0  0  0  0  0
  138.4720   78.1000  221.2650 C   0  0  0  0  0  0  0  0  0  0  0  0
  138.9080   79.3640  221.5970 C   0  0  0  0  0  0  0  0  0  0  0  0
  140.0360   79.5190  222.3730 C   0  0  0  0  0  0  0  0  0  0  0  0
  140.5300   80.7410  222.7430 C   0  0  0  0  0  0  0  0  0  0  0  0
  141.6450   80.8810  223.5100 C   0  0  0  0  0  0  0  0  0  0  0  0
  142.1050   82.1170  223.8550 F   0  0  0  0  0  0  0  0  0  0  0  0
  142.3150   79.7510  223.9410 C   0  0  0  0  0  0  0  0  0  0  0  0
  141.8130   78.5300  223.5670 C   0  0  0  0  0  0  0  0  0  0  0  0
  140.6810   78.3770  222.7860 C   0  0  0  0  0  0  0  0  0  0  0  0
  140.2740   77.1340  222.4770 N   0  0  0  0  0  0  0  0  0  0  0  0
  139.5540   74.7650  223.0870 H   0  0  0  0  0  0  0  0  0  0  0  0
  137.4734   73.0800  222.1862 H   0  0  0  0  0  0  0  0  0  0  0  0
  138.6506   72.9660  220.8517 H   0  0  0  0  0  0  0  0  0  0  0  0
  139.2749   69.6620  221.3556 H   0  0  0  0  0  0  0  0  0  0  0  0
  140.3020   69.1987  222.5947 H   0  0  0  0  0  0  0  0  0  0  0  0
  137.1651   69.0406  222.5044 H   0  0  0  0  0  0  0  0  0  0  0  0
  138.0120   67.9801  223.4191 H   0  0  0  0  0  0  0  0  0  0  0  0
  137.4111   70.7209  224.5501 H   0  0  0  0  0  0  0  0  0  0  0  0
  140.0482   71.5556  225.6253 H   0  0  0  0  0  0  0  0  0  0  0  0
  141.3154   70.7250  227.5723 H   0  0  0  0  0  0  0  0  0  0  0  0
  139.4706   66.8897  227.1039 H   0  0  0  0  0  0  0  0  0  0  0  0
  138.2147   67.7281  225.1679 H   0  0  0  0  0  0  0  0  0  0  0  0
  137.5736   77.9663  220.6446 H   0  0  0  0  0  0  0  0  0  0  0  0
  138.3567   80.2477  221.2433 H   0  0  0  0  0  0  0  0  0  0  0  0
  140.0040   81.6466  222.4065 H   0  0  0  0  0  0  0  0  0  0  0  0
  143.2194   79.8282  224.5624 H   0  0  0  0  0  0  0  0  0  0  0  0
  142.3382   77.6249  223.9060 H   0  0  0  0  0  0  0  0  0  0  0  0
  1  2  2  0
  2  3  1  0
  3  4  1  0
  4  5  1  0
  5  6  2  0
  5  7  1  0
  7  8  1  0
  8  9  1  0
  9 10  1  0
 10 11  1  0
 11 12  2  0
 12 13  1  0
 13 14  2  0
 14 15  1  0
 14 16  1  0
 16 17  2  0
  2 18  1  0
 18 19  2  0
 19 20  1  0
 20 21  2  0
 21 22  1  0
 22 23  2  0
 23 24  1  0
 23 25  1  0
 25 26  2  0
 26 27  1  0
 27 28  2  0
 10  7  1  0
 17 11  1  0
 28 18  1  0
 27 21  1  0
  3 29  1  0
  4 30  1  0
  4 31  1  0
  8 32  1  0
  8 33  1  0
  9 34  1  0
  9 35  1  0
 10 36  1  1
 12 37  1  0
 13 38  1  0
 16 39  1  0
 17 40  1  0
 19 41  1  0
 20 42  1  0
 22 43  1  0
 25 44  1  0
 26 45  1  0
M  END
>  <smiles>  (65) 
O=C(NCC(=O)N1CCC1c1ccc(Cl)cc1)c1ccc2cc(F)ccc2n1

>  <score_type>  (65) 
oracle

>  <origin>  (65) 
autodockgpu

>  <m_score__min__energy>  (65) 
-8.7300000000000004

>  <m_primary>  (65) 
energy

>  <rmsd>  (65) 
8.613110266518285

>  <m_score__min__rmsd>  (65) 
8.613110266518285

>  <meeko>  (65) 
{"free_energy": -7.99, "intermolecular_energy": -9.48, "internal_energy": -1.76, "cluster_size": 28, "cluster_id": 2, "rank_in_cluster": 27}

>  <energy>  (65) 
-8.43

>  <cluster_rmsd>  (65) 
1.23

>  <cluster>  (65) 
1

$$$$

     RDKit          3D

 45 48  0  0  0  0  0  0  0  0999 V2000
  141.2700   71.5050  221.4980 O   0  0  0  0  0  0  0  0  0  0  0  0
  140.5290   71.9480  222.4420 C   0  0  0  0  0  0  0  0  0  0  0  0
  139.8980   73.2200  222.3640 N   0  0  0  0  0  0  0  0  0  0  0  0
  140.0600   74.0960  221.1970 C   0  0  0  0  0  0  0  0  0  0  0  0
  139.4210   75.3700  221.5070 C   0  0  0  0  0  0  0  0  0  0  0  0
  138.1880   75.3610  221.8470 O   0  0  0  0  0  0  0  0  0  0  0  0
  140.0370   76.6420  221.4670 N   0  0  0  0  0  0  0  0  0  0  0  0
  140.3190   77.5630  220.3580 C   0  0  0  0  0  0  0  0  0  0  0  0
  141.4350   78.2080  221.1660 C   0  0  0  0  0  0  0  0  0  0  0  0
  140.6560   77.6240  222.3340 C   0  0  1  0  0  0  0  0  0  0  0  0
  139.7560   78.6860  222.8600 C   0  0  0  0  0  0  0  0  0  0  0  0
  138.3880   78.5610  222.9190 C   0  0  0  0  0  0  0  0  0  0  0  0
  137.5610   79.5620  223.4220 C   0  0  0  0  0  0  0  0  0  0  0  0
  138.1010   80.7420  223.8900 C   0  0  0  0  0  0  0  0  0  0  0  0
  137.0520   81.9940  224.5210 Cl  0  0  0  0  0  0  0  0  0  0  0  0
  139.4710   80.8900  223.8410 C   0  0  0  0  0  0  0  0  0  0  0  0
  140.2780   79.8890  223.3390 C   0  0  0  0  0  0  0  0  0  0  0  0
  140.3120   71.1290  223.6550 C   0  0  0  0  0  0  0  0  0  0  0  0
  139.6150   69.9240  223.5160 C   0  0  0  0  0  0  0  0  0  0  0  0
  139.3990   69.1400  224.6280 C   0  0  0  0  0  0  0  0  0  0  0  0
  139.8670   69.5500  225.8580 C   0  0  0  0  0  0  0  0  0  0  0  0
  139.6910   68.8260  227.0060 C   0  0  0  0  0  0  0  0  0  0  0  0
  140.1590   69.2410  228.2150 C   0  0  0  0  0  0  0  0  0  0  0  0
  139.9610   68.4900  229.3350 F   0  0  0  0  0  0  0  0  0  0  0  0
  140.8420   70.4400  228.3000 C   0  0  0  0  0  0  0  0  0  0  0  0
  141.0150   71.1590  227.1440 C   0  0  0  0  0  0  0  0  0  0  0  0
  140.5430   70.7460  225.9110 C   0  0  0  0  0  0  0  0  0  0  0  0
  140.7670   71.5280  224.8400 N   0  0  0  0  0  0  0  0  0  0  0  0
  139.3000   73.5150  223.1870 H   0  0  0  0  0  0  0  0  0  0  0  0
  141.1292   74.2532  220.9921 H   0  0  0  0  0  0  0  0  0  0  0  0
  139.6008   73.6411  220.3070 H   0  0  0  0  0  0  0  0  0  0  0  0
  140.6617   77.0654  219.4388 H   0  0  0  0  0  0  0  0  0  0  0  0
  139.5144   78.1811  219.9332 H   0  0  0  0  0  0  0  0  0  0  0  0
  142.4410   77.7923  221.0074 H   0  0  0  0  0  0  0  0  0  0  0  0
  141.7301   79.2644  221.0833 H   0  0  0  0  0  0  0  0  0  0  0  0
  141.1271   77.2434  223.2523 H   0  0  0  0  0  0  0  0  0  0  0  0
  137.9276   77.6312  222.5535 H   0  0  0  0  0  0  0  0  0  0  0  0
  136.4717   79.4111  223.4463 H   0  0  0  0  0  0  0  0  0  0  0  0
  139.9282   81.8208  224.2079 H   0  0  0  0  0  0  0  0  0  0  0  0
  141.3668   80.0440  223.3156 H   0  0  0  0  0  0  0  0  0  0  0  0
  139.2438   69.6063  222.5305 H   0  0  0  0  0  0  0  0  0  0  0  0
  138.8543   68.1889  224.5346 H   0  0  0  0  0  0  0  0  0  0  0  0
  139.1495   67.8702  226.9494 H   0  0  0  0  0  0  0  0  0  0  0  0
  141.2332   70.8051  229.2611 H   0  0  0  0  0  0  0  0  0  0  0  0
  141.5576   72.1141  227.2008 H   0  0  0  0  0  0  0  0  0  0  0  0
  1  2  2  0
  2  3  1  0
  3  4  1  0
  4  5  1  0
  5  6  2  0
  5  7  1  0
  7  8  1  0
  8  9  1  0
  9 10  1  0
 10 11  1  0
 11 12  2  0
 12 13  1  0
 13 14  2  0
 14 15  1  0
 14 16  1  0
 16 17  2  0
  2 18  1  0
 18 19  2  0
 19 20  1  0
 20 21  2  0
 21 22  1  0
 22 23  2  0
 23 24  1  0
 23 25  1  0
 25 26  2  0
 26 27  1  0
 27 28  2  0
 10  7  1  0
 17 11  1  0
 28 18  1  0
 27 21  1  0
  3 29  1  0
  4 30  1  0
  4 31  1  0
  8 32  1  0
  8 33  1  0
  9 34  1  0
  9 35  1  0
 10 36  1  1
 12 37  1  0
 13 38  1  0
 16 39  1  0
 17 40  1  0
 19 41  1  0
 20 42  1  0
 22 43  1  0
 25 44  1  0
 26 45  1  0
M  END
>  <smiles>  (66) 
O=C(NCC(=O)N1CCC1c1ccc(Cl)cc1)c1ccc2cc(F)ccc2n1

>  <score_type>  (66) 
oracle

>  <origin>  (66) 
autodockgpu

>  <m_score__min__energy>  (66) 
-8.7300000000000004

>  <m_primary>  (66) 
energy

>  <rmsd>  (66) 
2.809812278616311

>  <m_score__min__rmsd>  (66) 
2.809812278616311

>  <meeko>  (66) 
{"free_energy": -7.99, "intermolecular_energy": -9.48, "internal_energy": -1.27, "cluster_size": 22, "cluster_id": 1, "rank_in_cluster": 22}

>  <energy>  (66) 
-8.42

>  <cluster_rmsd>  (66) 
1.23

>  <cluster>  (66) 
1

$$$$

     RDKit          3D

 45 48  0  0  0  0  0  0  0  0999 V2000
  137.5760   75.3720  221.8630 O   0  0  0  0  0  0  0  0  0  0  0  0
  138.8230   75.6260  221.9820 C   0  0  0  0  0  0  0  0  0  0  0  0
  139.8150   74.6340  221.7440 N   0  0  0  0  0  0  0  0  0  0  0  0
  139.4630   73.2640  221.3490 C   0  0  0  0  0  0  0  0  0  0  0  0
  139.9200   72.3680  222.4050 C   0  0  0  0  0  0  0  0  0  0  0  0
  141.0170   72.6440  223.0000 O   0  0  0  0  0  0  0  0  0  0  0  0
  139.2600   71.1970  222.8450 N   0  0  0  0  0  0  0  0  0  0  0  0
  139.2020   69.8360  222.2960 C   0  0  0  0  0  0  0  0  0  0  0  0
  137.8900   69.5890  223.0250 C   0  0  0  0  0  0  0  0  0  0  0  0
  138.3960   70.7200  223.9060 C   0  0  1  0  0  0  0  0  0  0  0  0
  139.0820   70.1130  225.0790 C   0  0  0  0  0  0  0  0  0  0  0  0
  139.9650   70.7970  225.8800 C   0  0  0  0  0  0  0  0  0  0  0  0
  140.5920   70.2160  226.9790 C   0  0  0  0  0  0  0  0  0  0  0  0
  140.3400   68.9010  227.3090 C   0  0  0  0  0  0  0  0  0  0  0  0
  141.1330   68.1800  228.6940 Cl  0  0  0  0  0  0  0  0  0  0  0  0
  139.4570   68.1940  226.5210 C   0  0  0  0  0  0  0  0  0  0  0  0
  138.8440   68.7840  225.4330 C   0  0  0  0  0  0  0  0  0  0  0  0
  139.2660   76.9820  222.3760 C   0  0  0  0  0  0  0  0  0  0  0  0
  138.2850   77.9210  222.7080 C   0  0  0  0  0  0  0  0  0  0  0  0
  138.6680   79.1910  223.0800 C   0  0  0  0  0  0  0  0  0  0  0  0
  140.0060   79.5200  223.1200 C   0  0  0  0  0  0  0  0  0  0  0  0
  140.4620   80.7590  223.4800 C   0  0  0  0  0  0  0  0  0  0  0  0
  141.7860   81.0720  223.5150 C   0  0  0  0  0  0  0  0  0  0  0  0
  142.1990   82.3190  223.8780 F   0  0  0  0  0  0  0  0  0  0  0  0
  142.7180   80.1080  223.1780 C   0  0  0  0  0  0  0  0  0  0  0  0
  142.2520   78.8680  222.8200 C   0  0  0  0  0  0  0  0  0  0  0  0
  140.9080   78.5400  222.7800 C   0  0  0  0  0  0  0  0  0  0  0  0
  140.5590   77.2940  222.4150 N   0  0  0  0  0  0  0  0  0  0  0  0
  140.8270   74.9230  221.8630 H   0  0  0  0  0  0  0  0  0  0  0  0
  138.3730   73.1768  221.2290 H   0  0  0  0  0  0  0  0  0  0  0  0
  139.9374   73.0048  220.3910 H   0  0  0  0  0  0  0  0  0  0  0  0
  139.1192   69.7984  221.1998 H   0  0  0  0  0  0  0  0  0  0  0  0
  140.0491   69.1475  222.4314 H   0  0  0  0  0  0  0  0  0  0  0  0
  136.9769   69.8034  222.4504 H   0  0  0  0  0  0  0  0  0  0  0  0
  137.5646   68.6078  223.4011 H   0  0  0  0  0  0  0  0  0  0  0  0
  137.7400   71.4649  224.3801 H   0  0  0  0  0  0  0  0  0  0  0  0
  140.1857   71.8482  225.6427 H   0  0  0  0  0  0  0  0  0  0  0  0
  141.2916   70.8086  227.5868 H   0  0  0  0  0  0  0  0  0  0  0  0
  139.2372   67.1436  226.7625 H   0  0  0  0  0  0  0  0  0  0  0  0
  138.1463   68.1878  224.8265 H   0  0  0  0  0  0  0  0  0  0  0  0
  137.2197   77.6490  222.6726 H   0  0  0  0  0  0  0  0  0  0  0  0
  137.9078   79.9408  223.3445 H   0  0  0  0  0  0  0  0  0  0  0  0
  139.7291   81.5329  223.7520 H   0  0  0  0  0  0  0  0  0  0  0  0
  143.7957   80.3275  223.1962 H   0  0  0  0  0  0  0  0  0  0  0  0
  142.9854   78.0937  222.5506 H   0  0  0  0  0  0  0  0  0  0  0  0
  1  2  2  0
  2  3  1  0
  3  4  1  0
  4  5  1  0
  5  6  2  0
  5  7  1  0
  7  8  1  0
  8  9  1  0
  9 10  1  0
 10 11  1  0
 11 12  2  0
 12 13  1  0
 13 14  2  0
 14 15  1  0
 14 16  1  0
 16 17  2  0
  2 18  1  0
 18 19  2  0
 19 20  1  0
 20 21  2  0
 21 22  1  0
 22 23  2  0
 23 24  1  0
 23 25  1  0
 25 26  2  0
 26 27  1  0
 27 28  2  0
 10  7  1  0
 17 11  1  0
 28 18  1  0
 27 21  1  0
  3 29  1  0
  4 30  1  0
  4 31  1  0
  8 32  1  0
  8 33  1  0
  9 34  1  0
  9 35  1  0
 10 36  1  1
 12 37  1  0
 13 38  1  0
 16 39  1  0
 17 40  1  0
 19 41  1  0
 20 42  1  0
 22 43  1  0
 25 44  1  0
 26 45  1  0
M  END
>  <smiles>  (67) 
O=C(NCC(=O)N1CCC1c1ccc(Cl)cc1)c1ccc2cc(F)ccc2n1

>  <score_type>  (67) 
oracle

>  <origin>  (67) 
autodockgpu

>  <m_score__min__energy>  (67) 
-8.7300000000000004

>  <m_primary>  (67) 
energy

>  <rmsd>  (67) 
8.564869123776079

>  <m_score__min__rmsd>  (67) 
8.564869123776079

>  <meeko>  (67) 
{"free_energy": -8.08, "intermolecular_energy": -9.57, "internal_energy": -1.6, "cluster_size": 28, "cluster_id": 2, "rank_in_cluster": 25}

>  <energy>  (67) 
-8.4

>  <cluster_rmsd>  (67) 
1.3

>  <cluster>  (67) 
1

$$$$

     RDKit          3D

 45 48  0  0  0  0  0  0  0  0999 V2000
  137.9910   70.7770  221.8670 O   0  0  0  0  0  0  0  0  0  0  0  0
  138.7440   71.2530  222.7840 C   0  0  0  0  0  0  0  0  0  0  0  0
  139.2310   72.5890  222.7350 N   0  0  0  0  0  0  0  0  0  0  0  0
  138.8970   73.4950  221.6280 C   0  0  0  0  0  0  0  0  0  0  0  0
  139.9130   74.5420  221.5920 C   0  0  0  0  0  0  0  0  0  0  0  0
  141.0560   74.2940  222.1080 O   0  0  0  0  0  0  0  0  0  0  0  0
  139.7580   75.8320  221.0330 N   0  0  0  0  0  0  0  0  0  0  0  0
  138.5780   76.6820  220.8350 C   0  0  0  0  0  0  0  0  0  0  0  0
  139.2920   77.4270  219.7170 C   0  0  0  0  0  0  0  0  0  0  0  0
  140.5290   76.8980  220.4240 C   0  0  1  0  0  0  0  0  0  0  0  0
  141.0160   77.9570  221.3490 C   0  0  0  0  0  0  0  0  0  0  0  0
  141.0680   77.8080  222.7150 C   0  0  0  0  0  0  0  0  0  0  0  0
  141.5350   78.8070  223.5650 C   0  0  0  0  0  0  0  0  0  0  0  0
  141.9720   80.0100  223.0510 C   0  0  0  0  0  0  0  0  0  0  0  0
  142.5570   81.2590  224.1290 Cl  0  0  0  0  0  0  0  0  0  0  0  0
  141.9290   80.1830  221.6840 C   0  0  0  0  0  0  0  0  0  0  0  0
  141.4630   79.1830  220.8540 C   0  0  0  0  0  0  0  0  0  0  0  0
  139.1290   70.4070  223.9350 C   0  0  0  0  0  0  0  0  0  0  0  0
  138.8300   69.0430  223.8750 C   0  0  0  0  0  0  0  0  0  0  0  0
  139.1780   68.2310  224.9320 C   0  0  0  0  0  0  0  0  0  0  0  0
  139.8120   68.7690  226.0310 C   0  0  0  0  0  0  0  0  0  0  0  0
  140.1880   68.0260  227.1180 C   0  0  0  0  0  0  0  0  0  0  0  0
  140.8150   68.5690  228.1970 C   0  0  0  0  0  0  0  0  0  0  0  0
  141.1720   67.7950  229.2600 F   0  0  0  0  0  0  0  0  0  0  0  0
  141.0900   69.9250  228.2080 C   0  0  0  0  0  0  0  0  0  0  0  0
  140.7100   70.6610  227.1150 C   0  0  0  0  0  0  0  0  0  0  0  0
  140.0720   70.1190  226.0130 C   0  0  0  0  0  0  0  0  0  0  0  0
  139.7440   70.9310  224.9930 N   0  0  0  0  0  0  0  0  0  0  0  0
  139.8490   72.9090  223.5330 H   0  0  0  0  0  0  0  0  0  0  0  0
  138.8955   72.9412  220.6776 H   0  0  0  0  0  0  0  0  0  0  0  0
  137.8979   73.9314  221.7744 H   0  0  0  0  0  0  0  0  0  0  0  0
  137.6817   76.1348  220.5075 H   0  0  0  0  0  0  0  0  0  0  0  0
  138.1456   77.2355  221.6816 H   0  0  0  0  0  0  0  0  0  0  0  0
  139.1211   77.0413  218.7011 H   0  0  0  0  0  0  0  0  0  0  0  0
  139.1234   78.4857  219.4707 H   0  0  0  0  0  0  0  0  0  0  0  0
  141.4515   76.6042  219.9018 H   0  0  0  0  0  0  0  0  0  0  0  0
  140.7262   76.8595  223.1548 H   0  0  0  0  0  0  0  0  0  0  0  0
  141.5555   78.6360  224.6514 H   0  0  0  0  0  0  0  0  0  0  0  0
  142.2714   81.1329  221.2476 H   0  0  0  0  0  0  0  0  0  0  0  0
  141.4434   79.3581  219.7682 H   0  0  0  0  0  0  0  0  0  0  0  0
  138.3227   68.6228  222.9940 H   0  0  0  0  0  0  0  0  0  0  0  0
  138.9503   67.1553  224.8989 H   0  0  0  0  0  0  0  0  0  0  0  0
  139.9747   66.9469  227.1192 H   0  0  0  0  0  0  0  0  0  0  0  0
  141.5958   70.3963  229.0636 H   0  0  0  0  0  0  0  0  0  0  0  0
  140.9238   71.7400  227.1142 H   0  0  0  0  0  0  0  0  0  0  0  0
  1  2  2  0
  2  3  1  0
  3  4  1  0
  4  5  1  0
  5  6  2  0
  5  7  1  0
  7  8  1  0
  8  9  1  0
  9 10  1  0
 10 11  1  0
 11 12  2  0
 12 13  1  0
 13 14  2  0
 14 15  1  0
 14 16  1  0
 16 17  2  0
  2 18  1  0
 18 19  2  0
 19 20  1  0
 20 21  2  0
 21 22  1  0
 22 23  2  0
 23 24  1  0
 23 25  1  0
 25 26  2  0
 26 27  1  0
 27 28  2  0
 10  7  1  0
 17 11  1  0
 28 18  1  0
 27 21  1  0
  3 29  1  0
  4 30  1  0
  4 31  1  0
  8 32  1  0
  8 33  1  0
  9 34  1  0
  9 35  1  0
 10 36  1  6
 12 37  1  0
 13 38  1  0
 16 39  1  0
 17 40  1  0
 19 41  1  0
 20 42  1  0
 22 43  1  0
 25 44  1  0
 26 45  1  0
M  END
>  <smiles>  (68) 
O=C(NCC(=O)N1CCC1c1ccc(Cl)cc1)c1ccc2cc(F)ccc2n1

>  <score_type>  (68) 
oracle

>  <origin>  (68) 
autodockgpu

>  <m_score__min__energy>  (68) 
-8.7300000000000004

>  <m_primary>  (68) 
energy

>  <rmsd>  (68) 
2.349334512185799

>  <m_score__min__rmsd>  (68) 
2.349334512185799

>  <meeko>  (68) 
{"free_energy": -8.59, "intermolecular_energy": -10.08, "internal_energy": -1.77, "cluster_size": 22, "cluster_id": 1, "rank_in_cluster": 4}

>  <energy>  (68) 
-8.39

>  <cluster_rmsd>  (68) 
1.2

>  <cluster>  (68) 
1

$$$$

     RDKit          3D

 45 48  0  0  0  0  0  0  0  0999 V2000
  141.0290   73.0460  222.2550 O   0  0  0  0  0  0  0  0  0  0  0  0
  139.9300   72.5880  222.7190 C   0  0  0  0  0  0  0  0  0  0  0  0
  138.6700   72.9960  222.2000 N   0  0  0  0  0  0  0  0  0  0  0  0
  138.5600   73.9660  221.1040 C   0  0  0  0  0  0  0  0  0  0  0  0
  139.0020   75.2610  221.6120 C   0  0  0  0  0  0  0  0  0  0  0  0
  138.6290   75.6100  222.7840 O   0  0  0  0  0  0  0  0  0  0  0  0
  139.8170   76.1900  220.9250 N   0  0  0  0  0  0  0  0  0  0  0  0
  139.5310   77.1280  219.8310 C   0  0  0  0  0  0  0  0  0  0  0  0
  141.0030   77.1400  219.4470 C   0  0  0  0  0  0  0  0  0  0  0  0
  141.1790   76.6850  220.8870 C   0  0  1  0  0  0  0  0  0  0  0  0
  141.4560   77.8890  221.7170 C   0  0  0  0  0  0  0  0  0  0  0  0
  141.3580   77.9050  223.0870 C   0  0  0  0  0  0  0  0  0  0  0  0
  141.6300   79.0380  223.8490 C   0  0  0  0  0  0  0  0  0  0  0  0
  142.0160   80.2120  223.2370 C   0  0  0  0  0  0  0  0  0  0  0  0
  142.3550   81.6320  224.2050 Cl  0  0  0  0  0  0  0  0  0  0  0  0
  142.1210   80.2210  221.8620 C   0  0  0  0  0  0  0  0  0  0  0  0
  141.8470   79.0890  221.1200 C   0  0  0  0  0  0  0  0  0  0  0  0
  139.9490   71.6050  223.8250 C   0  0  0  0  0  0  0  0  0  0  0  0
  139.3900   70.3450  223.5920 C   0  0  0  0  0  0  0  0  0  0  0  0
  139.3950   69.4090  224.6020 C   0  0  0  0  0  0  0  0  0  0  0  0
  139.9460   69.7230  225.8260 C   0  0  0  0  0  0  0  0  0  0  0  0
  139.9880   68.8470  226.8770 C   0  0  0  0  0  0  0  0  0  0  0  0
  140.5360   69.1690  228.0800 C   0  0  0  0  0  0  0  0  0  0  0  0
  140.5570   68.2680  229.1020 F   0  0  0  0  0  0  0  0  0  0  0  0
  141.0770   70.4290  228.2610 C   0  0  0  0  0  0  0  0  0  0  0  0
  141.0320   71.3010  227.2020 C   0  0  0  0  0  0  0  0  0  0  0  0
  140.4770   70.9830  225.9750 C   0  0  0  0  0  0  0  0  0  0  0  0
  140.4850   71.9120  225.0040 N   0  0  0  0  0  0  0  0  0  0  0  0
  137.8050   72.5700  222.6390 H   0  0  0  0  0  0  0  0  0  0  0  0
  139.1981   73.6556  220.2635 H   0  0  0  0  0  0  0  0  0  0  0  0
  137.5218   74.0265  220.7456 H   0  0  0  0  0  0  0  0  0  0  0  0
  138.8684   76.7206  219.0532 H   0  0  0  0  0  0  0  0  0  0  0  0
  139.0032   78.0716  220.0335 H   0  0  0  0  0  0  0  0  0  0  0  0
  141.3013   76.4133  218.6770 H   0  0  0  0  0  0  0  0  0  0  0  0
  141.5205   78.0026  219.0018 H   0  0  0  0  0  0  0  0  0  0  0  0
  141.9662   75.9906  221.2160 H   0  0  0  0  0  0  0  0  0  0  0  0
  141.0517   76.9836  223.6040 H   0  0  0  0  0  0  0  0  0  0  0  0
  141.5366   78.9966  224.9442 H   0  0  0  0  0  0  0  0  0  0  0  0
  142.4277   81.1441  221.3483 H   0  0  0  0  0  0  0  0  0  0  0  0
  141.9397   79.1341  220.0248 H   0  0  0  0  0  0  0  0  0  0  0  0
  138.9510   70.1039  222.6126 H   0  0  0  0  0  0  0  0  0  0  0  0
  138.9603   68.4129  224.4325 H   0  0  0  0  0  0  0  0  0  0  0  0
  139.5614   67.8419  226.7436 H   0  0  0  0  0  0  0  0  0  0  0  0
  141.5278   70.7221  229.2206 H   0  0  0  0  0  0  0  0  0  0  0  0
  141.4597   72.3056  227.3357 H   0  0  0  0  0  0  0  0  0  0  0  0
  1  2  2  0
  2  3  1  0
  3  4  1  0
  4  5  1  0
  5  6  2  0
  5  7  1  0
  7  8  1  0
  8  9  1  0
  9 10  1  0
 10 11  1  0
 11 12  2  0
 12 13  1  0
 13 14  2  0
 14 15  1  0
 14 16  1  0
 16 17  2  0
  2 18  1  0
 18 19  2  0
 19 20  1  0
 20 21  2  0
 21 22  1  0
 22 23  2  0
 23 24  1  0
 23 25  1  0
 25 26  2  0
 26 27  1  0
 27 28  2  0
 10  7  1  0
 17 11  1  0
 28 18  1  0
 27 21  1  0
  3 29  1  0
  4 30  1  0
  4 31  1  0
  8 32  1  0
  8 33  1  0
  9 34  1  0
  9 35  1  0
 10 36  1  6
 12 37  1  0
 13 38  1  0
 16 39  1  0
 17 40  1  0
 19 41  1  0
 20 42  1  0
 22 43  1  0
 25 44  1  0
 26 45  1  0
M  END
>  <smiles>  (69) 
O=C(NCC(=O)N1CCC1c1ccc(Cl)cc1)c1ccc2cc(F)ccc2n1

>  <score_type>  (69) 
oracle

>  <origin>  (69) 
autodockgpu

>  <m_score__min__energy>  (69) 
-8.7300000000000004

>  <m_primary>  (69) 
energy

>  <rmsd>  (69) 
2.506239123571246

>  <m_score__min__rmsd>  (69) 
2.506239123571246

>  <meeko>  (69) 
{"free_energy": -8.63, "intermolecular_energy": -10.12, "internal_energy": -1.19, "cluster_size": 22, "cluster_id": 1, "rank_in_cluster": 3}

>  <energy>  (69) 
-8.38

>  <cluster_rmsd>  (69) 
1.24

>  <cluster>  (69) 
1

$$$$

     RDKit          3D

 45 48  0  0  0  0  0  0  0  0999 V2000
  139.4170   70.9540  221.0630 O   0  0  0  0  0  0  0  0  0  0  0  0
  139.4190   71.5360  222.2010 C   0  0  0  0  0  0  0  0  0  0  0  0
  139.2980   72.9480  222.3210 N   0  0  0  0  0  0  0  0  0  0  0  0
  139.1650   73.8170  221.1440 C   0  0  0  0  0  0  0  0  0  0  0  0
  139.3160   75.1970  221.5930 C   0  0  0  0  0  0  0  0  0  0  0  0
  138.8920   75.5030  222.7600 O   0  0  0  0  0  0  0  0  0  0  0  0
  139.8960   76.2540  220.8530 N   0  0  0  0  0  0  0  0  0  0  0  0
  139.3230   77.2210  219.9080 C   0  0  0  0  0  0  0  0  0  0  0  0
  140.6910   77.4230  219.2740 C   0  0  0  0  0  0  0  0  0  0  0  0
  141.1710   76.9000  220.6180 C   0  0  1  0  0  0  0  0  0  0  0  0
  141.4750   78.0720  221.4830 C   0  0  0  0  0  0  0  0  0  0  0  0
  141.8350   79.3050  220.9930 C   0  0  0  0  0  0  0  0  0  0  0  0
  142.1080   80.3930  221.8170 C   0  0  0  0  0  0  0  0  0  0  0  0
  142.0240   80.2670  223.1880 C   0  0  0  0  0  0  0  0  0  0  0  0
  142.3690   81.6420  224.2150 Cl  0  0  0  0  0  0  0  0  0  0  0  0
  141.6650   79.0390  223.7040 C   0  0  0  0  0  0  0  0  0  0  0  0
  141.3980   77.9690  222.8730 C   0  0  0  0  0  0  0  0  0  0  0  0
  139.5490   70.7350  223.4390 C   0  0  0  0  0  0  0  0  0  0  0  0
  139.1100   69.4080  223.4100 C   0  0  0  0  0  0  0  0  0  0  0  0
  139.2200   68.6380  224.5470 C   0  0  0  0  0  0  0  0  0  0  0  0
  139.7570   69.1820  225.6940 C   0  0  0  0  0  0  0  0  0  0  0  0
  139.8990   68.4800  226.8610 C   0  0  0  0  0  0  0  0  0  0  0  0
  140.4300   69.0280  227.9870 C   0  0  0  0  0  0  0  0  0  0  0  0
  140.5530   68.2950  229.1300 F   0  0  0  0  0  0  0  0  0  0  0  0
  140.8500   70.3450  227.9650 C   0  0  0  0  0  0  0  0  0  0  0  0
  140.7050   71.0410  226.7920 C   0  0  0  0  0  0  0  0  0  0  0  0
  140.1650   70.4940  225.6410 C   0  0  0  0  0  0  0  0  0  0  0  0
  140.0690   71.2640  224.5440 N   0  0  0  0  0  0  0  0  0  0  0  0
  139.3080   73.3550  223.2990 H   0  0  0  0  0  0  0  0  0  0  0  0
  139.9465   73.5745  220.4088 H   0  0  0  0  0  0  0  0  0  0  0  0
  138.1847   73.6720  220.6665 H   0  0  0  0  0  0  0  0  0  0  0  0
  138.5728   76.7918  219.2275 H   0  0  0  0  0  0  0  0  0  0  0  0
  138.7503   78.0844  220.2774 H   0  0  0  0  0  0  0  0  0  0  0  0
  140.9139   76.7849  218.4062 H   0  0  0  0  0  0  0  0  0  0  0  0
  141.0303   78.3647  218.8178 H   0  0  0  0  0  0  0  0  0  0  0  0
  142.0697   76.2786  220.7455 H   0  0  0  0  0  0  0  0  0  0  0  0
  141.9105   79.4373  219.9036 H   0  0  0  0  0  0  0  0  0  0  0  0
  142.3922   81.3583  221.3726 H   0  0  0  0  0  0  0  0  0  0  0  0
  141.5903   78.9103  224.7939 H   0  0  0  0  0  0  0  0  0  0  0  0
  141.1156   77.0047  223.3206 H   0  0  0  0  0  0  0  0  0  0  0  0
  138.6817   68.9836  222.4900 H   0  0  0  0  0  0  0  0  0  0  0  0
  138.8802   67.5918  224.5395 H   0  0  0  0  0  0  0  0  0  0  0  0
  139.5704   67.4306  226.8890 H   0  0  0  0  0  0  0  0  0  0  0  0
  141.2854   70.8183  228.8574 H   0  0  0  0  0  0  0  0  0  0  0  0
  141.0355   72.0898  226.7646 H   0  0  0  0  0  0  0  0  0  0  0  0
  1  2  2  0
  2  3  1  0
  3  4  1  0
  4  5  1  0
  5  6  2  0
  5  7  1  0
  7  8  1  0
  8  9  1  0
  9 10  1  0
 10 11  1  0
 11 12  2  0
 12 13  1  0
 13 14  2  0
 14 15  1  0
 14 16  1  0
 16 17  2  0
  2 18  1  0
 18 19  2  0
 19 20  1  0
 20 21  2  0
 21 22  1  0
 22 23  2  0
 23 24  1  0
 23 25  1  0
 25 26  2  0
 26 27  1  0
 27 28  2  0
 10  7  1  0
 17 11  1  0
 28 18  1  0
 27 21  1  0
  3 29  1  0
  4 30  1  0
  4 31  1  0
  8 32  1  0
  8 33  1  0
  9 34  1  0
  9 35  1  0
 10 36  1  6
 12 37  1  0
 13 38  1  0
 16 39  1  0
 17 40  1  0
 19 41  1  0
 20 42  1  0
 22 43  1  0
 25 44  1  0
 26 45  1  0
M  END
>  <smiles>  (70) 
O=C(NCC(=O)N1CCC1c1ccc(Cl)cc1)c1ccc2cc(F)ccc2n1

>  <score_type>  (70) 
oracle

>  <origin>  (70) 
autodockgpu

>  <m_score__min__energy>  (70) 
-8.7300000000000004

>  <m_primary>  (70) 
energy

>  <rmsd>  (70) 
2.106788587860463

>  <m_score__min__rmsd>  (70) 
2.106788587860463

>  <meeko>  (70) 
{"free_energy": -8.42, "intermolecular_energy": -9.92, "internal_energy": -1.8, "cluster_size": 22, "cluster_id": 1, "rank_in_cluster": 16}

>  <energy>  (70) 
-8.35

>  <cluster_rmsd>  (70) 
1.39

>  <cluster>  (70) 
1

$$$$

     RDKit          3D

 45 48  0  0  0  0  0  0  0  0999 V2000
  138.6280   70.9860  221.2590 O   0  0  0  0  0  0  0  0  0  0  0  0
  138.9830   71.5830  222.3320 C   0  0  0  0  0  0  0  0  0  0  0  0
  139.0870   73.0000  222.4020 N   0  0  0  0  0  0  0  0  0  0  0  0
  138.7920   73.8560  221.2460 C   0  0  0  0  0  0  0  0  0  0  0  0
  139.0260   75.2390  221.6480 C   0  0  0  0  0  0  0  0  0  0  0  0
  138.4820   75.6550  222.7280 O   0  0  0  0  0  0  0  0  0  0  0  0
  139.8090   76.1880  220.9500 N   0  0  0  0  0  0  0  0  0  0  0  0
  139.4790   77.1330  219.8750 C   0  0  0  0  0  0  0  0  0  0  0  0
  140.9390   77.1710  219.4510 C   0  0  0  0  0  0  0  0  0  0  0  0
  141.1610   76.7030  220.8800 C   0  0  1  0  0  0  0  0  0  0  0  0
  141.4440   77.9010  221.7150 C   0  0  0  0  0  0  0  0  0  0  0  0
  141.3550   77.9080  223.0870 C   0  0  0  0  0  0  0  0  0  0  0  0
  141.6320   79.0370  223.8540 C   0  0  0  0  0  0  0  0  0  0  0  0
  142.0150   80.2150  223.2470 C   0  0  0  0  0  0  0  0  0  0  0  0
  142.3610   81.6280  224.2220 Cl  0  0  0  0  0  0  0  0  0  0  0  0
  142.1120   80.2320  221.8720 C   0  0  0  0  0  0  0  0  0  0  0  0
  141.8330   79.1050  221.1250 C   0  0  0  0  0  0  0  0  0  0  0  0
  139.2980   70.7950  223.5450 C   0  0  0  0  0  0  0  0  0  0  0  0
  138.9770   69.4340  223.5440 C   0  0  0  0  0  0  0  0  0  0  0  0
  139.2600   68.6760  224.6580 C   0  0  0  0  0  0  0  0  0  0  0  0
  139.8510   69.2630  225.7560 C   0  0  0  0  0  0  0  0  0  0  0  0
  140.1620   68.5750  226.8980 C   0  0  0  0  0  0  0  0  0  0  0  0
  140.7470   69.1660  227.9750 C   0  0  0  0  0  0  0  0  0  0  0  0
  141.0400   68.4450  229.0940 F   0  0  0  0  0  0  0  0  0  0  0  0
  141.0450   70.5160  227.9270 C   0  0  0  0  0  0  0  0  0  0  0  0
  140.7310   71.1980  226.7780 C   0  0  0  0  0  0  0  0  0  0  0  0
  140.1360   70.6060  225.6780 C   0  0  0  0  0  0  0  0  0  0  0  0
  139.8710   71.3660  224.6010 N   0  0  0  0  0  0  0  0  0  0  0  0
  139.3870   73.4190  223.3270 H   0  0  0  0  0  0  0  0  0  0  0  0
  139.4524   73.5928  220.4065 H   0  0  0  0  0  0  0  0  0  0  0  0
  137.7499   73.7198  220.9213 H   0  0  0  0  0  0  0  0  0  0  0  0
  138.8011   76.7240  219.1113 H   0  0  0  0  0  0  0  0  0  0  0  0
  138.9432   78.0664  220.1024 H   0  0  0  0  0  0  0  0  0  0  0  0
  141.2264   76.4572  218.6649 H   0  0  0  0  0  0  0  0  0  0  0  0
  141.4315   78.0459  219.0016 H   0  0  0  0  0  0  0  0  0  0  0  0
  141.9666   76.0165  221.1794 H   0  0  0  0  0  0  0  0  0  0  0  0
  141.0524   76.9833  223.6003 H   0  0  0  0  0  0  0  0  0  0  0  0
  141.5449   78.9891  224.9495 H   0  0  0  0  0  0  0  0  0  0  0  0
  142.4164   81.1579  221.3621 H   0  0  0  0  0  0  0  0  0  0  0  0
  141.9200   79.1574  220.0297 H   0  0  0  0  0  0  0  0  0  0  0  0
  138.5040   68.9744  222.6636 H   0  0  0  0  0  0  0  0  0  0  0  0
  139.0148   67.6038  224.6716 H   0  0  0  0  0  0  0  0  0  0  0  0
  139.9296   67.5009  226.9469 H   0  0  0  0  0  0  0  0  0  0  0  0
  141.5172   71.0252  228.7800 H   0  0  0  0  0  0  0  0  0  0  0  0
  140.9647   72.2718  226.7291 H   0  0  0  0  0  0  0  0  0  0  0  0
  1  2  2  0
  2  3  1  0
  3  4  1  0
  4  5  1  0
  5  6  2  0
  5  7  1  0
  7  8  1  0
  8  9  1  0
  9 10  1  0
 10 11  1  0
 11 12  2  0
 12 13  1  0
 13 14  2  0
 14 15  1  0
 14 16  1  0
 16 17  2  0
  2 18  1  0
 18 19  2  0
 19 20  1  0
 20 21  2  0
 21 22  1  0
 22 23  2  0
 23 24  1  0
 23 25  1  0
 25 26  2  0
 26 27  1  0
 27 28  2  0
 10  7  1  0
 17 11  1  0
 28 18  1  0
 27 21  1  0
  3 29  1  0
  4 30  1  0
  4 31  1  0
  8 32  1  0
  8 33  1  0
  9 34  1  0
  9 35  1  0
 10 36  1  6
 12 37  1  0
 13 38  1  0
 16 39  1  0
 17 40  1  0
 19 41  1  0
 20 42  1  0
 22 43  1  0
 25 44  1  0
 26 45  1  0
M  END
>  <smiles>  (71) 
O=C(NCC(=O)N1CCC1c1ccc(Cl)cc1)c1ccc2cc(F)ccc2n1

>  <score_type>  (71) 
oracle

>  <origin>  (71) 
autodockgpu

>  <m_score__min__energy>  (71) 
-8.7300000000000004

>  <m_primary>  (71) 
energy

>  <rmsd>  (71) 
2.378012421624364

>  <m_score__min__rmsd>  (71) 
2.378012421624364

>  <meeko>  (71) 
{"free_energy": -8.39, "intermolecular_energy": -9.88, "internal_energy": -1.59, "cluster_size": 22, "cluster_id": 1, "rank_in_cluster": 18}

>  <energy>  (71) 
-8.33

>  <cluster_rmsd>  (71) 
1.21

>  <cluster>  (71) 
1

$$$$

     RDKit          3D

 45 48  0  0  0  0  0  0  0  0999 V2000
  137.2020   75.9940  222.1380 O   0  0  0  0  0  0  0  0  0  0  0  0
  138.4710   76.1120  222.2280 C   0  0  0  0  0  0  0  0  0  0  0  0
  139.3460   75.0290  221.9370 N   0  0  0  0  0  0  0  0  0  0  0  0
  138.8410   73.7150  221.5190 C   0  0  0  0  0  0  0  0  0  0  0  0
  139.5650   72.7000  222.2760 C   0  0  0  0  0  0  0  0  0  0  0  0
  140.7310   72.9890  222.7140 O   0  0  0  0  0  0  0  0  0  0  0  0
  139.1000   71.4000  222.5810 N   0  0  0  0  0  0  0  0  0  0  0  0
  139.3540   70.0940  221.9580 C   0  0  0  0  0  0  0  0  0  0  0  0
  138.0480   69.5600  222.5280 C   0  0  0  0  0  0  0  0  0  0  0  0
  138.2450   70.6970  223.5170 C   0  0  1  0  0  0  0  0  0  0  0  0
  138.9180   70.1440  224.7230 C   0  0  0  0  0  0  0  0  0  0  0  0
  138.6620   68.8910  225.2280 C   0  0  0  0  0  0  0  0  0  0  0  0
  139.3080   68.3850  226.3530 C   0  0  0  0  0  0  0  0  0  0  0  0
  140.2500   69.1440  227.0140 C   0  0  0  0  0  0  0  0  0  0  0  0
  141.0560   68.4990  228.4280 Cl  0  0  0  0  0  0  0  0  0  0  0  0
  140.5240   70.4050  226.5270 C   0  0  0  0  0  0  0  0  0  0  0  0
  139.8750   70.8930  225.4100 C   0  0  0  0  0  0  0  0  0  0  0  0
  139.0650   77.4020  222.6420 C   0  0  0  0  0  0  0  0  0  0  0  0
  138.1970   78.4370  223.0040 C   0  0  0  0  0  0  0  0  0  0  0  0
  138.7210   79.6490  223.3950 C   0  0  0  0  0  0  0  0  0  0  0  0
  140.0880   79.8280  223.4250 C   0  0  0  0  0  0  0  0  0  0  0  0
  140.6820   81.0020  223.8030 C   0  0  0  0  0  0  0  0  0  0  0  0
  142.0320   81.1660  223.8290 C   0  0  0  0  0  0  0  0  0  0  0  0
  142.5850   82.3530  224.2100 F   0  0  0  0  0  0  0  0  0  0  0  0
  142.8490   80.1120  223.4620 C   0  0  0  0  0  0  0  0  0  0  0  0
  142.2450   78.9390  223.0860 C   0  0  0  0  0  0  0  0  0  0  0  0
  140.8730   78.7620  223.0560 C   0  0  0  0  0  0  0  0  0  0  0  0
  140.3850   77.5700  222.6710 N   0  0  0  0  0  0  0  0  0  0  0  0
  140.3860   75.2060  222.0340 H   0  0  0  0  0  0  0  0  0  0  0  0
  137.7640   73.6430  221.7307 H   0  0  0  0  0  0  0  0  0  0  0  0
  138.9915   73.5703  220.4390 H   0  0  0  0  0  0  0  0  0  0  0  0
  139.3854   70.1205  220.8588 H   0  0  0  0  0  0  0  0  0  0  0  0
  140.2992   69.5640  222.1472 H   0  0  0  0  0  0  0  0  0  0  0  0
  137.1700   69.6456  221.8709 H   0  0  0  0  0  0  0  0  0  0  0  0
  137.8790   68.5114  222.8142 H   0  0  0  0  0  0  0  0  0  0  0  0
  137.4176   71.2726  223.9575 H   0  0  0  0  0  0  0  0  0  0  0  0
  137.9152   68.2616  224.7218 H   0  0  0  0  0  0  0  0  0  0  0  0
  139.0656   67.3753  226.7158 H   0  0  0  0  0  0  0  0  0  0  0  0
  141.2710   71.0316  227.0362 H   0  0  0  0  0  0  0  0  0  0  0  0
  140.1197   71.9033  225.0504 H   0  0  0  0  0  0  0  0  0  0  0  0
  137.1079   78.2847  222.9767 H   0  0  0  0  0  0  0  0  0  0  0  0
  138.0507   80.4724  223.6827 H   0  0  0  0  0  0  0  0  0  0  0  0
  140.0418   81.8466  224.0975 H   0  0  0  0  0  0  0  0  0  0  0  0
  143.9445   80.2108  223.4713 H   0  0  0  0  0  0  0  0  0  0  0  0
  142.8855   78.0942  222.7927 H   0  0  0  0  0  0  0  0  0  0  0  0
  1  2  2  0
  2  3  1  0
  3  4  1  0
  4  5  1  0
  5  6  2  0
  5  7  1  0
  7  8  1  0
  8  9  1  0
  9 10  1  0
 10 11  1  0
 11 12  2  0
 12 13  1  0
 13 14  2  0
 14 15  1  0
 14 16  1  0
 16 17  2  0
  2 18  1  0
 18 19  2  0
 19 20  1  0
 20 21  2  0
 21 22  1  0
 22 23  2  0
 23 24  1  0
 23 25  1  0
 25 26  2  0
 26 27  1  0
 27 28  2  0
 10  7  1  0
 17 11  1  0
 28 18  1  0
 27 21  1  0
  3 29  1  0
  4 30  1  0
  4 31  1  0
  8 32  1  0
  8 33  1  0
  9 34  1  0
  9 35  1  0
 10 36  1  1
 12 37  1  0
 13 38  1  0
 16 39  1  0
 17 40  1  0
 19 41  1  0
 20 42  1  0
 22 43  1  0
 25 44  1  0
 26 45  1  0
M  END
>  <smiles>  (72) 
O=C(NCC(=O)N1CCC1c1ccc(Cl)cc1)c1ccc2cc(F)ccc2n1

>  <score_type>  (72) 
oracle

>  <origin>  (72) 
autodockgpu

>  <m_score__min__energy>  (72) 
-8.7300000000000004

>  <m_primary>  (72) 
energy

>  <rmsd>  (72) 
8.71984614855211

>  <m_score__min__rmsd>  (72) 
8.71984614855211

>  <meeko>  (72) 
{"free_energy": -8.3, "intermolecular_energy": -9.79, "internal_energy": -1.81, "cluster_size": 28, "cluster_id": 2, "rank_in_cluster": 5}

>  <energy>  (72) 
-7.99

>  <cluster_rmsd>  (72) 
1.9

>  <cluster>  (72) 
1

$$$$

     RDKit          3D

 45 48  0  0  0  0  0  0  0  0999 V2000
  137.1680   76.0890  221.9970 O   0  0  0  0  0  0  0  0  0  0  0  0
  138.4280   76.1720  222.1960 C   0  0  0  0  0  0  0  0  0  0  0  0
  139.2890   75.0530  222.0210 N   0  0  0  0  0  0  0  0  0  0  0  0
  138.7790   73.7410  221.6030 C   0  0  0  0  0  0  0  0  0  0  0  0
  139.5510   72.7210  222.3050 C   0  0  0  0  0  0  0  0  0  0  0  0
  140.7290   73.0210  222.7020 O   0  0  0  0  0  0  0  0  0  0  0  0
  139.1210   71.4050  222.5950 N   0  0  0  0  0  0  0  0  0  0  0  0
  139.4230   70.1120  221.9680 C   0  0  0  0  0  0  0  0  0  0  0  0
  138.1270   69.5350  222.5160 C   0  0  0  0  0  0  0  0  0  0  0  0
  138.2750   70.6720  223.5150 C   0  0  1  0  0  0  0  0  0  0  0  0
  138.9480   70.1310  224.7270 C   0  0  0  0  0  0  0  0  0  0  0  0
  138.7160   68.8720  225.2260 C   0  0  0  0  0  0  0  0  0  0  0  0
  139.3610   68.3790  226.3570 C   0  0  0  0  0  0  0  0  0  0  0  0
  140.2790   69.1580  227.0300 C   0  0  0  0  0  0  0  0  0  0  0  0
  141.0850   68.5270  228.4510 Cl  0  0  0  0  0  0  0  0  0  0  0  0
  140.5290   70.4250  226.5480 C   0  0  0  0  0  0  0  0  0  0  0  0
  139.8800   70.9000  225.4260 C   0  0  0  0  0  0  0  0  0  0  0  0
  139.0250   77.4580  222.6200 C   0  0  0  0  0  0  0  0  0  0  0  0
  138.1600   78.4940  222.9820 C   0  0  0  0  0  0  0  0  0  0  0  0
  138.6870   79.7020  223.3830 C   0  0  0  0  0  0  0  0  0  0  0  0
  140.0540   79.8750  223.4200 C   0  0  0  0  0  0  0  0  0  0  0  0
  140.6520   81.0450  223.8060 C   0  0  0  0  0  0  0  0  0  0  0  0
  142.0030   81.2040  223.8380 C   0  0  0  0  0  0  0  0  0  0  0  0
  142.5580   82.3860  224.2280 F   0  0  0  0  0  0  0  0  0  0  0  0
  142.8170   80.1480  223.4700 C   0  0  0  0  0  0  0  0  0  0  0  0
  142.2100   78.9790  223.0850 C   0  0  0  0  0  0  0  0  0  0  0  0
  140.8370   78.8080  223.0480 C   0  0  0  0  0  0  0  0  0  0  0  0
  140.3460   77.6190  222.6560 N   0  0  0  0  0  0  0  0  0  0  0  0
  140.3210   75.2020  222.2050 H   0  0  0  0  0  0  0  0  0  0  0  0
  137.7145   73.6519  221.8654 H   0  0  0  0  0  0  0  0  0  0  0  0
  138.8781   73.6180  220.5144 H   0  0  0  0  0  0  0  0  0  0  0  0
  139.4688   70.1466  220.8695 H   0  0  0  0  0  0  0  0  0  0  0  0
  140.3812   69.6098  222.1672 H   0  0  0  0  0  0  0  0  0  0  0  0
  137.2561   69.5977  221.8470 H   0  0  0  0  0  0  0  0  0  0  0  0
  137.9864   68.4799  222.7937 H   0  0  0  0  0  0  0  0  0  0  0  0
  137.4249   71.2201  223.9473 H   0  0  0  0  0  0  0  0  0  0  0  0
  137.9900   68.2264  224.7101 H   0  0  0  0  0  0  0  0  0  0  0  0
  139.1374   67.3634  226.7156 H   0  0  0  0  0  0  0  0  0  0  0  0
  141.2568   71.0674  227.0653 H   0  0  0  0  0  0  0  0  0  0  0  0
  140.1044   71.9168  225.0715 H   0  0  0  0  0  0  0  0  0  0  0  0
  137.0705   78.3466  222.9472 H   0  0  0  0  0  0  0  0  0  0  0  0
  138.0187   80.5263  223.6729 H   0  0  0  0  0  0  0  0  0  0  0  0
  140.0141   81.8908  224.1023 H   0  0  0  0  0  0  0  0  0  0  0  0
  143.9129   80.2420  223.4854 H   0  0  0  0  0  0  0  0  0  0  0  0
  142.8484   78.1331  222.7902 H   0  0  0  0  0  0  0  0  0  0  0  0
  1  2  2  0
  2  3  1  0
  3  4  1  0
  4  5  1  0
  5  6  2  0
  5  7  1  0
  7  8  1  0
  8  9  1  0
  9 10  1  0
 10 11  1  0
 11 12  2  0
 12 13  1  0
 13 14  2  0
 14 15  1  0
 14 16  1  0
 16 17  2  0
  2 18  1  0
 18 19  2  0
 19 20  1  0
 20 21  2  0
 21 22  1  0
 22 23  2  0
 23 24  1  0
 23 25  1  0
 25 26  2  0
 26 27  1  0
 27 28  2  0
 10  7  1  0
 17 11  1  0
 28 18  1  0
 27 21  1  0
  3 29  1  0
  4 30  1  0
  4 31  1  0
  8 32  1  0
  8 33  1  0
  9 34  1  0
  9 35  1  0
 10 36  1  1
 12 37  1  0
 13 38  1  0
 16 39  1  0
 17 40  1  0
 19 41  1  0
 20 42  1  0
 22 43  1  0
 25 44  1  0
 26 45  1  0
M  END
>  <smiles>  (73) 
O=C(NCC(=O)N1CCC1c1ccc(Cl)cc1)c1ccc2cc(F)ccc2n1

>  <score_type>  (73) 
oracle

>  <origin>  (73) 
autodockgpu

>  <m_score__min__energy>  (73) 
-8.7300000000000004

>  <m_primary>  (73) 
energy

>  <rmsd>  (73) 
8.743143619109862

>  <m_score__min__rmsd>  (73) 
8.743143619109862

>  <meeko>  (73) 
{"free_energy": -8.29, "intermolecular_energy": -9.79, "internal_energy": -1.88, "cluster_size": 28, "cluster_id": 2, "rank_in_cluster": 6}

>  <energy>  (73) 
-8.34

>  <cluster_rmsd>  (73) 
0.0

>  <cluster>  (73) 
2

$$$$

     RDKit          3D

 45 48  0  0  0  0  0  0  0  0999 V2000
  140.1670   70.9240  221.1670 O   0  0  0  0  0  0  0  0  0  0  0  0
  139.9560   71.5170  222.2790 C   0  0  0  0  0  0  0  0  0  0  0  0
  139.7550   72.9230  222.3520 N   0  0  0  0  0  0  0  0  0  0  0  0
  139.7770   73.7730  221.1540 C   0  0  0  0  0  0  0  0  0  0  0  0
  139.5920   75.1530  221.5860 C   0  0  0  0  0  0  0  0  0  0  0  0
  139.0500   75.3630  222.7250 O   0  0  0  0  0  0  0  0  0  0  0  0
  139.9550   76.3100  220.8570 N   0  0  0  0  0  0  0  0  0  0  0  0
  139.1580   77.2880  220.1050 C   0  0  0  0  0  0  0  0  0  0  0  0
  140.3800   77.6580  219.2780 C   0  0  0  0  0  0  0  0  0  0  0  0
  141.1190   77.0840  220.4760 C   0  0  1  0  0  0  0  0  0  0  0  0
  141.4740   78.2120  221.3790 C   0  0  0  0  0  0  0  0  0  0  0  0
  141.8510   79.4550  220.9290 C   0  0  0  0  0  0  0  0  0  0  0  0
  142.1720   80.5020  221.7900 C   0  0  0  0  0  0  0  0  0  0  0  0
  142.1190   80.3220  223.1560 C   0  0  0  0  0  0  0  0  0  0  0  0
  142.5240   81.6450  224.2280 Cl  0  0  0  0  0  0  0  0  0  0  0  0
  141.7430   79.0830  223.6310 C   0  0  0  0  0  0  0  0  0  0  0  0
  141.4290   78.0540  222.7650 C   0  0  0  0  0  0  0  0  0  0  0  0
  139.9170   70.7360  223.5360 C   0  0  0  0  0  0  0  0  0  0  0  0
  139.2670   69.4990  223.5180 C   0  0  0  0  0  0  0  0  0  0  0  0
  139.2160   68.7490  224.6730 C   0  0  0  0  0  0  0  0  0  0  0  0
  139.8020   69.2260  225.8260 C   0  0  0  0  0  0  0  0  0  0  0  0
  139.7920   68.5390  227.0110 C   0  0  0  0  0  0  0  0  0  0  0  0
  140.3740   69.0190  228.1430 C   0  0  0  0  0  0  0  0  0  0  0  0
  140.3410   68.3040  229.3030 F   0  0  0  0  0  0  0  0  0  0  0  0
  141.0060   70.2490  228.1090 C   0  0  0  0  0  0  0  0  0  0  0  0
  141.0120   70.9310  226.9180 C   0  0  0  0  0  0  0  0  0  0  0  0
  140.4220   70.4510  225.7610 C   0  0  0  0  0  0  0  0  0  0  0  0
  140.4860   71.2000  224.6470 N   0  0  0  0  0  0  0  0  0  0  0  0
  139.5850   73.3400  223.3110 H   0  0  0  0  0  0  0  0  0  0  0  0
  140.7428   73.6683  220.6381 H   0  0  0  0  0  0  0  0  0  0  0  0
  138.9789   73.4772  220.4572 H   0  0  0  0  0  0  0  0  0  0  0  0
  138.3390   76.8439  219.5203 H   0  0  0  0  0  0  0  0  0  0  0  0
  138.5912   78.0670  220.6359 H   0  0  0  0  0  0  0  0  0  0  0  0
  140.5017   77.1075  218.3335 H   0  0  0  0  0  0  0  0  0  0  0  0
  140.5641   78.6572  218.8564 H   0  0  0  0  0  0  0  0  0  0  0  0
  142.0715   76.5388  220.4019 H   0  0  0  0  0  0  0  0  0  0  0  0
  141.9013   79.6301  219.8442 H   0  0  0  0  0  0  0  0  0  0  0  0
  142.4693   81.4776  221.3779 H   0  0  0  0  0  0  0  0  0  0  0  0
  141.6924   78.9117  224.7164 H   0  0  0  0  0  0  0  0  0  0  0  0
  141.1342   77.0792  223.1807 H   0  0  0  0  0  0  0  0  0  0  0  0
  138.8015   69.1284  222.5928 H   0  0  0  0  0  0  0  0  0  0  0  0
  138.7092   67.7727  224.6749 H   0  0  0  0  0  0  0  0  0  0  0  0
  139.2931   67.5594  227.0488 H   0  0  0  0  0  0  0  0  0  0  0  0
  141.4873   70.6662  229.0058 H   0  0  0  0  0  0  0  0  0  0  0  0
  141.5117   71.9102  226.8807 H   0  0  0  0  0  0  0  0  0  0  0  0
  1  2  2  0
  2  3  1  0
  3  4  1  0
  4  5  1  0
  5  6  2  0
  5  7  1  0
  7  8  1  0
  8  9  1  0
  9 10  1  0
 10 11  1  0
 11 12  2  0
 12 13  1  0
 13 14  2  0
 14 15  1  0
 14 16  1  0
 16 17  2  0
  2 18  1  0
 18 19  2  0
 19 20  1  0
 20 21  2  0
 21 22  1  0
 22 23  2  0
 23 24  1  0
 23 25  1  0
 25 26  2  0
 26 27  1  0
 27 28  2  0
 10  7  1  0
 17 11  1  0
 28 18  1  0
 27 21  1  0
  3 29  1  0
  4 30  1  0
  4 31  1  0
  8 32  1  0
  8 33  1  0
  9 34  1  0
  9 35  1  0
 10 36  1  6
 12 37  1  0
 13 38  1  0
 16 39  1  0
 17 40  1  0
 19 41  1  0
 20 42  1  0
 22 43  1  0
 25 44  1  0
 26 45  1  0
M  END
>  <smiles>  (74) 
O=C(NCC(=O)N1CCC1c1ccc(Cl)cc1)c1ccc2cc(F)ccc2n1

>  <score_type>  (74) 
oracle

>  <origin>  (74) 
autodockgpu

>  <m_score__min__energy>  (74) 
-8.7300000000000004

>  <m_primary>  (74) 
energy

>  <rmsd>  (74) 
2.2266662215030992

>  <m_score__min__rmsd>  (74) 
2.2266662215030992

>  <meeko>  (74) 
{"free_energy": -8.53, "intermolecular_energy": -10.02, "internal_energy": -1.77, "cluster_size": 22, "cluster_id": 1, "rank_in_cluster": 11}

>  <energy>  (74) 
-8.33

>  <cluster_rmsd>  (74) 
0.9

>  <cluster>  (74) 
2

$$$$

     RDKit          3D

 45 48  0  0  0  0  0  0  0  0999 V2000
  137.0640   76.2690  221.9670 O   0  0  0  0  0  0  0  0  0  0  0  0
  138.2970   76.2850  222.3040 C   0  0  0  0  0  0  0  0  0  0  0  0
  139.0860   75.1010  222.3130 N   0  0  0  0  0  0  0  0  0  0  0  0
  138.5290   73.7950  221.9370 C   0  0  0  0  0  0  0  0  0  0  0  0
  139.5260   72.7800  222.2590 C   0  0  0  0  0  0  0  0  0  0  0  0
  140.7490   73.1390  222.3460 O   0  0  0  0  0  0  0  0  0  0  0  0
  139.2710   71.4070  222.4860 N   0  0  0  0  0  0  0  0  0  0  0  0
  139.8040   70.1910  221.8590 C   0  0  0  0  0  0  0  0  0  0  0  0
  138.5670   69.4170  222.2890 C   0  0  0  0  0  0  0  0  0  0  0  0
  138.4720   70.5310  223.3190 C   0  0  1  0  0  0  0  0  0  0  0  0
  139.1210   70.0540  224.5700 C   0  0  0  0  0  0  0  0  0  0  0  0
  139.9230   70.8440  225.3590 C   0  0  0  0  0  0  0  0  0  0  0  0
  140.5160   70.3830  226.5320 C   0  0  0  0  0  0  0  0  0  0  0  0
  140.3130   69.0850  226.9510 C   0  0  0  0  0  0  0  0  0  0  0  0
  141.0630   68.5170  228.4280 Cl  0  0  0  0  0  0  0  0  0  0  0  0
  139.5120   68.2730  226.1760 C   0  0  0  0  0  0  0  0  0  0  0  0
  138.9320   68.7440  225.0150 C   0  0  0  0  0  0  0  0  0  0  0  0
  138.9380   77.5590  222.6990 C   0  0  0  0  0  0  0  0  0  0  0  0
  138.1090   78.6340  223.0300 C   0  0  0  0  0  0  0  0  0  0  0  0
  138.6770   79.8330  223.4030 C   0  0  0  0  0  0  0  0  0  0  0  0
  140.0490   79.9580  223.4420 C   0  0  0  0  0  0  0  0  0  0  0  0
  140.6870   81.1150  223.8010 C   0  0  0  0  0  0  0  0  0  0  0  0
  142.0420   81.2270  223.8370 C   0  0  0  0  0  0  0  0  0  0  0  0
  142.6380   82.3980  224.1990 F   0  0  0  0  0  0  0  0  0  0  0  0
  142.8190   80.1330  223.4990 C   0  0  0  0  0  0  0  0  0  0  0  0
  142.1730   78.9770  223.1410 C   0  0  0  0  0  0  0  0  0  0  0  0
  140.7950   78.8540  223.1020 C   0  0  0  0  0  0  0  0  0  0  0  0
  140.2630   77.6750  222.7370 N   0  0  0  0  0  0  0  0  0  0  0  0
  140.1000   75.1970  222.6050 H   0  0  0  0  0  0  0  0  0  0  0  0
  137.6045   73.6050  222.5020 H   0  0  0  0  0  0  0  0  0  0  0  0
  138.2882   73.7726  220.8639 H   0  0  0  0  0  0  0  0  0  0  0  0
  139.9282   70.2669  220.7687 H   0  0  0  0  0  0  0  0  0  0  0  0
  140.8067   69.8247  222.1245 H   0  0  0  0  0  0  0  0  0  0  0  0
  137.7500   69.3757  221.5536 H   0  0  0  0  0  0  0  0  0  0  0  0
  138.5599   68.3444  222.5328 H   0  0  0  0  0  0  0  0  0  0  0  0
  137.5205   70.9377  223.6920 H   0  0  0  0  0  0  0  0  0  0  0  0
  140.1041   71.8843  225.0509 H   0  0  0  0  0  0  0  0  0  0  0  0
  141.1493   71.0576  227.1269 H   0  0  0  0  0  0  0  0  0  0  0  0
  139.3323   67.2335  226.4877 H   0  0  0  0  0  0  0  0  0  0  0  0
  138.3010   68.0658  224.4217 H   0  0  0  0  0  0  0  0  0  0  0  0
  137.0151   78.5245  222.9933 H   0  0  0  0  0  0  0  0  0  0  0  0
  138.0374   80.6875  223.6687 H   0  0  0  0  0  0  0  0  0  0  0  0
  140.0784   81.9904  224.0716 H   0  0  0  0  0  0  0  0  0  0  0  0
  143.9175   80.1884  223.5168 H   0  0  0  0  0  0  0  0  0  0  0  0
  142.7822   78.1019  222.8708 H   0  0  0  0  0  0  0  0  0  0  0  0
  1  2  2  0
  2  3  1  0
  3  4  1  0
  4  5  1  0
  5  6  2  0
  5  7  1  0
  7  8  1  0
  8  9  1  0
  9 10  1  0
 10 11  1  0
 11 12  2  0
 12 13  1  0
 13 14  2  0
 14 15  1  0
 14 16  1  0
 16 17  2  0
  2 18  1  0
 18 19  2  0
 19 20  1  0
 20 21  2  0
 21 22  1  0
 22 23  2  0
 23 24  1  0
 23 25  1  0
 25 26  2  0
 26 27  1  0
 27 28  2  0
 10  7  1  0
 17 11  1  0
 28 18  1  0
 27 21  1  0
  3 29  1  0
  4 30  1  0
  4 31  1  0
  8 32  1  0
  8 33  1  0
  9 34  1  0
  9 35  1  0
 10 36  1  1
 12 37  1  0
 13 38  1  0
 16 39  1  0
 17 40  1  0
 19 41  1  0
 20 42  1  0
 22 43  1  0
 25 44  1  0
 26 45  1  0
M  END
>  <smiles>  (75) 
O=C(NCC(=O)N1CCC1c1ccc(Cl)cc1)c1ccc2cc(F)ccc2n1

>  <score_type>  (75) 
oracle

>  <origin>  (75) 
autodockgpu

>  <m_score__min__energy>  (75) 
-8.7300000000000004

>  <m_primary>  (75) 
energy

>  <rmsd>  (75) 
8.627544736862182

>  <m_score__min__rmsd>  (75) 
8.627544736862182

>  <meeko>  (75) 
{"free_energy": -8.24, "intermolecular_energy": -9.73, "internal_energy": -1.92, "cluster_size": 28, "cluster_id": 2, "rank_in_cluster": 15}

>  <energy>  (75) 
-8.32

>  <cluster_rmsd>  (75) 
1.21

>  <cluster>  (75) 
2

$$$$

     RDKit          3D

 45 48  0  0  0  0  0  0  0  0999 V2000
  140.3840   70.9230  221.7540 O   0  0  0  0  0  0  0  0  0  0  0  0
  140.1490   71.6580  222.7730 C   0  0  0  0  0  0  0  0  0  0  0  0
  139.7570   73.0190  222.6410 N   0  0  0  0  0  0  0  0  0  0  0  0
  139.6010   73.6570  221.3270 C   0  0  0  0  0  0  0  0  0  0  0  0
  139.2880   75.0640  221.5520 C   0  0  0  0  0  0  0  0  0  0  0  0
  138.4760   75.3600  222.4940 O   0  0  0  0  0  0  0  0  0  0  0  0
  139.8010   76.1580  220.8170 N   0  0  0  0  0  0  0  0  0  0  0  0
  139.1540   77.1470  219.9460 C   0  0  0  0  0  0  0  0  0  0  0  0
  140.4750   77.3990  219.2360 C   0  0  0  0  0  0  0  0  0  0  0  0
  141.0480   76.8380  220.5280 C   0  0  1  0  0  0  0  0  0  0  0  0
  141.3840   77.9840  221.4160 C   0  0  0  0  0  0  0  0  0  0  0  0
  141.8040   79.2070  220.9500 C   0  0  0  0  0  0  0  0  0  0  0  0
  142.1060   80.2720  221.7950 C   0  0  0  0  0  0  0  0  0  0  0  0
  141.9920   80.1300  223.1620 C   0  0  0  0  0  0  0  0  0  0  0  0
  142.3740   81.4750  224.2150 Cl  0  0  0  0  0  0  0  0  0  0  0  0
  141.5730   78.9110  223.6530 C   0  0  0  0  0  0  0  0  0  0  0  0
  141.2770   77.8650  222.8020 C   0  0  0  0  0  0  0  0  0  0  0  0
  140.2830   71.0950  224.1350 C   0  0  0  0  0  0  0  0  0  0  0  0
  140.8960   71.8850  225.1130 C   0  0  0  0  0  0  0  0  0  0  0  0
  141.0340   71.3880  226.3900 C   0  0  0  0  0  0  0  0  0  0  0  0
  140.5700   70.1240  226.6880 C   0  0  0  0  0  0  0  0  0  0  0  0
  140.6710   69.5630  227.9330 C   0  0  0  0  0  0  0  0  0  0  0  0
  140.2090   68.3150  228.2150 C   0  0  0  0  0  0  0  0  0  0  0  0
  140.3290   67.7910  229.4670 F   0  0  0  0  0  0  0  0  0  0  0  0
  139.6090   67.5730  227.2130 C   0  0  0  0  0  0  0  0  0  0  0  0
  139.5120   68.1430  225.9690 C   0  0  0  0  0  0  0  0  0  0  0  0
  139.9790   69.4120  225.6720 C   0  0  0  0  0  0  0  0  0  0  0  0
  139.8320   69.8760  224.4190 N   0  0  0  0  0  0  0  0  0  0  0  0
  139.5810   73.5620  223.5340 H   0  0  0  0  0  0  0  0  0  0  0  0
  140.5357   73.5680  220.7539 H   0  0  0  0  0  0  0  0  0  0  0  0
  138.7974   73.1700  220.7550 H   0  0  0  0  0  0  0  0  0  0  0  0
  138.3701   76.7281  219.2979 H   0  0  0  0  0  0  0  0  0  0  0  0
  138.5912   77.9853  220.3825 H   0  0  0  0  0  0  0  0  0  0  0  0
  140.6542   76.7968  218.3331 H   0  0  0  0  0  0  0  0  0  0  0  0
  140.7680   78.3629  218.7944 H   0  0  0  0  0  0  0  0  0  0  0  0
  141.9642   76.2312  220.5765 H   0  0  0  0  0  0  0  0  0  0  0  0
  141.9058   79.3506  219.8642 H   0  0  0  0  0  0  0  0  0  0  0  0
  142.4371   81.2311  221.3700 H   0  0  0  0  0  0  0  0  0  0  0  0
  141.4732   78.7701  224.7394 H   0  0  0  0  0  0  0  0  0  0  0  0
  140.9463   76.9073  223.2303 H   0  0  0  0  0  0  0  0  0  0  0  0
  141.2636   72.8917  224.8651 H   0  0  0  0  0  0  0  0  0  0  0  0
  141.5131   71.9977  227.1702 H   0  0  0  0  0  0  0  0  0  0  0  0
  141.1447   70.1448  228.7374 H   0  0  0  0  0  0  0  0  0  0  0  0
  139.2232   66.5613  227.4072 H   0  0  0  0  0  0  0  0  0  0  0  0
  139.0381   67.5610  225.1649 H   0  0  0  0  0  0  0  0  0  0  0  0
  1  2  2  0
  2  3  1  0
  3  4  1  0
  4  5  1  0
  5  6  2  0
  5  7  1  0
  7  8  1  0
  8  9  1  0
  9 10  1  0
 10 11  1  0
 11 12  2  0
 12 13  1  0
 13 14  2  0
 14 15  1  0
 14 16  1  0
 16 17  2  0
  2 18  1  0
 18 19  2  0
 19 20  1  0
 20 21  2  0
 21 22  1  0
 22 23  2  0
 23 24  1  0
 23 25  1  0
 25 26  2  0
 26 27  1  0
 27 28  2  0
 10  7  1  0
 17 11  1  0
 28 18  1  0
 27 21  1  0
  3 29  1  0
  4 30  1  0
  4 31  1  0
  8 32  1  0
  8 33  1  0
  9 34  1  0
  9 35  1  0
 10 36  1  6
 12 37  1  0
 13 38  1  0
 16 39  1  0
 17 40  1  0
 19 41  1  0
 20 42  1  0
 22 43  1  0
 25 44  1  0
 26 45  1  0
M  END
>  <smiles>  (76) 
O=C(NCC(=O)N1CCC1c1ccc(Cl)cc1)c1ccc2cc(F)ccc2n1

>  <score_type>  (76) 
oracle

>  <origin>  (76) 
autodockgpu

>  <m_score__min__energy>  (76) 
-8.7300000000000004

>  <m_primary>  (76) 
energy

>  <rmsd>  (76) 
3.170436426878143

>  <m_score__min__rmsd>  (76) 
3.170436426878143

>  <meeko>  (76) 
{"free_energy": -8.35, "intermolecular_energy": -9.84, "internal_energy": -1.43, "cluster_size": 22, "cluster_id": 1, "rank_in_cluster": 20}

>  <energy>  (76) 
-8.31

>  <cluster_rmsd>  (76) 
1.22

>  <cluster>  (76) 
2

$$$$

     RDKit          3D

 45 48  0  0  0  0  0  0  0  0999 V2000
  137.1760   76.1130  221.9410 O   0  0  0  0  0  0  0  0  0  0  0  0
  138.4270   76.1760  222.1970 C   0  0  0  0  0  0  0  0  0  0  0  0
  139.2730   75.0370  222.0870 N   0  0  0  0  0  0  0  0  0  0  0  0
  138.7570   73.7260  221.6750 C   0  0  0  0  0  0  0  0  0  0  0  0
  139.5700   72.7050  222.3280 C   0  0  0  0  0  0  0  0  0  0  0  0
  140.7520   73.0200  222.7000 O   0  0  0  0  0  0  0  0  0  0  0  0
  139.1770   71.3730  222.5940 N   0  0  0  0  0  0  0  0  0  0  0  0
  139.5320   70.0980  221.9580 C   0  0  0  0  0  0  0  0  0  0  0  0
  138.2440   69.4730  222.4730 C   0  0  0  0  0  0  0  0  0  0  0  0
  138.3350   70.6020  223.4870 C   0  0  1  0  0  0  0  0  0  0  0  0
  139.0000   70.0680  224.7070 C   0  0  0  0  0  0  0  0  0  0  0  0
  138.7960   68.7970  225.1880 C   0  0  0  0  0  0  0  0  0  0  0  0
  139.4340   68.3110  226.3270 C   0  0  0  0  0  0  0  0  0  0  0  0
  140.3140   69.1100  227.0260 C   0  0  0  0  0  0  0  0  0  0  0  0
  141.1100   68.4880  228.4570 Cl  0  0  0  0  0  0  0  0  0  0  0  0
  140.5350   70.3890  226.5630 C   0  0  0  0  0  0  0  0  0  0  0  0
  139.8940   70.8570  225.4320 C   0  0  0  0  0  0  0  0  0  0  0  0
  139.0300   77.4600  222.6200 C   0  0  0  0  0  0  0  0  0  0  0  0
  138.1680   78.4980  222.9870 C   0  0  0  0  0  0  0  0  0  0  0  0
  138.7000   79.7050  223.3860 C   0  0  0  0  0  0  0  0  0  0  0  0
  140.0680   79.8740  223.4170 C   0  0  0  0  0  0  0  0  0  0  0  0
  140.6700   81.0420  223.8020 C   0  0  0  0  0  0  0  0  0  0  0  0
  142.0210   81.1970  223.8290 C   0  0  0  0  0  0  0  0  0  0  0  0
  142.5820   82.3770  224.2180 F   0  0  0  0  0  0  0  0  0  0  0  0
  142.8310   80.1390  223.4570 C   0  0  0  0  0  0  0  0  0  0  0  0
  142.2200   78.9730  223.0730 C   0  0  0  0  0  0  0  0  0  0  0  0
  140.8470   78.8050  223.0420 C   0  0  0  0  0  0  0  0  0  0  0  0
  140.3510   77.6180  222.6500 N   0  0  0  0  0  0  0  0  0  0  0  0
  140.2980   75.1720  222.3170 H   0  0  0  0  0  0  0  0  0  0  0  0
  137.7064   73.6227  221.9840 H   0  0  0  0  0  0  0  0  0  0  0  0
  138.8074   73.6180  220.5815 H   0  0  0  0  0  0  0  0  0  0  0  0
  139.5983   70.1478  220.8611 H   0  0  0  0  0  0  0  0  0  0  0  0
  140.5015   69.6238  222.1707 H   0  0  0  0  0  0  0  0  0  0  0  0
  137.3852   69.5156  221.7870 H   0  0  0  0  0  0  0  0  0  0  0  0
  138.1320   68.4108  222.7360 H   0  0  0  0  0  0  0  0  0  0  0  0
  137.4587   71.1176  223.9067 H   0  0  0  0  0  0  0  0  0  0  0  0
  138.0999   68.1358  224.6512 H   0  0  0  0  0  0  0  0  0  0  0  0
  139.2349   67.2851  226.6704 H   0  0  0  0  0  0  0  0  0  0  0  0
  141.2323   71.0473  227.1020 H   0  0  0  0  0  0  0  0  0  0  0  0
  140.0947   71.8838  225.0924 H   0  0  0  0  0  0  0  0  0  0  0  0
  137.0780   78.3528  222.9576 H   0  0  0  0  0  0  0  0  0  0  0  0
  138.0353   80.5311  223.6789 H   0  0  0  0  0  0  0  0  0  0  0  0
  140.0354   81.8891  224.1015 H   0  0  0  0  0  0  0  0  0  0  0  0
  143.9272   80.2299  223.4688 H   0  0  0  0  0  0  0  0  0  0  0  0
  142.8552   78.1263  222.7737 H   0  0  0  0  0  0  0  0  0  0  0  0
  1  2  2  0
  2  3  1  0
  3  4  1  0
  4  5  1  0
  5  6  2  0
  5  7  1  0
  7  8  1  0
  8  9  1  0
  9 10  1  0
 10 11  1  0
 11 12  2  0
 12 13  1  0
 13 14  2  0
 14 15  1  0
 14 16  1  0
 16 17  2  0
  2 18  1  0
 18 19  2  0
 19 20  1  0
 20 21  2  0
 21 22  1  0
 22 23  2  0
 23 24  1  0
 23 25  1  0
 25 26  2  0
 26 27  1  0
 27 28  2  0
 10  7  1  0
 17 11  1  0
 28 18  1  0
 27 21  1  0
  3 29  1  0
  4 30  1  0
  4 31  1  0
  8 32  1  0
  8 33  1  0
  9 34  1  0
  9 35  1  0
 10 36  1  1
 12 37  1  0
 13 38  1  0
 16 39  1  0
 17 40  1  0
 19 41  1  0
 20 42  1  0
 22 43  1  0
 25 44  1  0
 26 45  1  0
M  END
>  <smiles>  (77) 
O=C(NCC(=O)N1CCC1c1ccc(Cl)cc1)c1ccc2cc(F)ccc2n1

>  <score_type>  (77) 
oracle

>  <origin>  (77) 
autodockgpu

>  <m_score__min__energy>  (77) 
-8.7300000000000004

>  <m_primary>  (77) 
energy

>  <rmsd>  (77) 
8.747477283724214

>  <m_score__min__rmsd>  (77) 
8.747477283724214

>  <meeko>  (77) 
{"free_energy": -8.29, "intermolecular_energy": -9.78, "internal_energy": -1.91, "cluster_size": 28, "cluster_id": 2, "rank_in_cluster": 8}

>  <energy>  (77) 
-8.3

>  <cluster_rmsd>  (77) 
1.2

>  <cluster>  (77) 
2

$$$$

     RDKit          3D

 45 48  0  0  0  0  0  0  0  0999 V2000
  141.4270   73.9110  219.9260 O   0  0  0  0  0  0  0  0  0  0  0  0
  140.8250   74.5760  220.8370 C   0  0  0  0  0  0  0  0  0  0  0  0
  139.8430   73.9790  221.6740 N   0  0  0  0  0  0  0  0  0  0  0  0
  139.4640   72.5670  221.5400 C   0  0  0  0  0  0  0  0  0  0  0  0
  139.6890   71.9230  222.8300 C   0  0  0  0  0  0  0  0  0  0  0  0
  140.4450   72.5130  223.6760 O   0  0  0  0  0  0  0  0  0  0  0  0
  139.1470   70.6860  223.2480 N   0  0  0  0  0  0  0  0  0  0  0  0
  139.2040   69.3400  222.6640 C   0  0  0  0  0  0  0  0  0  0  0  0
  137.9320   68.9560  223.4050 C   0  0  0  0  0  0  0  0  0  0  0  0
  138.3490   70.1040  224.3090 C   0  0  1  0  0  0  0  0  0  0  0  0
  139.1080   69.5330  225.4550 C   0  0  0  0  0  0  0  0  0  0  0  0
  139.0930   68.2000  225.7860 C   0  0  0  0  0  0  0  0  0  0  0  0
  139.8160   67.6810  226.8570 C   0  0  0  0  0  0  0  0  0  0  0  0
  140.5920   68.5100  227.6400 C   0  0  0  0  0  0  0  0  0  0  0  0
  141.4980   67.8470  228.9840 Cl  0  0  0  0  0  0  0  0  0  0  0  0
  140.6230   69.8520  227.3270 C   0  0  0  0  0  0  0  0  0  0  0  0
  139.8990   70.3520  226.2620 C   0  0  0  0  0  0  0  0  0  0  0  0
  141.1470   76.0060  221.0400 C   0  0  0  0  0  0  0  0  0  0  0  0
  141.8890   76.6580  220.0500 C   0  0  0  0  0  0  0  0  0  0  0  0
  142.2020   77.9900  220.2120 C   0  0  0  0  0  0  0  0  0  0  0  0
  141.7840   78.6610  221.3410 C   0  0  0  0  0  0  0  0  0  0  0  0
  142.0560   79.9820  221.5720 C   0  0  0  0  0  0  0  0  0  0  0  0
  141.6380   80.6340  222.6900 C   0  0  0  0  0  0  0  0  0  0  0  0
  141.9310   81.9510  222.8820 F   0  0  0  0  0  0  0  0  0  0  0  0
  140.9050   79.9450  223.6400 C   0  0  0  0  0  0  0  0  0  0  0  0
  140.6370   78.6210  223.4010 C   0  0  0  0  0  0  0  0  0  0  0  0
  141.0580   77.9490  222.2670 C   0  0  0  0  0  0  0  0  0  0  0  0
  140.7400   76.6500  222.1310 N   0  0  0  0  0  0  0  0  0  0  0  0
  139.3900   74.5970  222.4060 H   0  0  0  0  0  0  0  0  0  0  0  0
  138.4025   72.4887  221.2622 H   0  0  0  0  0  0  0  0  0  0  0  0
  140.0631   72.0799  220.7565 H   0  0  0  0  0  0  0  0  0  0  0  0
  139.1067   69.3226  221.5684 H   0  0  0  0  0  0  0  0  0  0  0  0
  140.1124   68.7285  222.7688 H   0  0  0  0  0  0  0  0  0  0  0  0
  136.9936   69.1020  222.8500 H   0  0  0  0  0  0  0  0  0  0  0  0
  137.7027   67.9399  223.7584 H   0  0  0  0  0  0  0  0  0  0  0  0
  137.6364   70.7727  224.8139 H   0  0  0  0  0  0  0  0  0  0  0  0
  138.4841   67.5134  225.1794 H   0  0  0  0  0  0  0  0  0  0  0  0
  139.7680   66.6048  227.0796 H   0  0  0  0  0  0  0  0  0  0  0  0
  141.2339   70.5356  227.9348 H   0  0  0  0  0  0  0  0  0  0  0  0
  139.9475   71.4289  226.0433 H   0  0  0  0  0  0  0  0  0  0  0  0
  142.2188   76.1139  219.1527 H   0  0  0  0  0  0  0  0  0  0  0  0
  142.7844   78.5169  219.4418 H   0  0  0  0  0  0  0  0  0  0  0  0
  142.6367   80.5397  220.8225 H   0  0  0  0  0  0  0  0  0  0  0  0
  140.5496   80.4416  224.5549 H   0  0  0  0  0  0  0  0  0  0  0  0
  140.0564   78.0638  224.1509 H   0  0  0  0  0  0  0  0  0  0  0  0
  1  2  2  0
  2  3  1  0
  3  4  1  0
  4  5  1  0
  5  6  2  0
  5  7  1  0
  7  8  1  0
  8  9  1  0
  9 10  1  0
 10 11  1  0
 11 12  2  0
 12 13  1  0
 13 14  2  0
 14 15  1  0
 14 16  1  0
 16 17  2  0
  2 18  1  0
 18 19  2  0
 19 20  1  0
 20 21  2  0
 21 22  1  0
 22 23  2  0
 23 24  1  0
 23 25  1  0
 25 26  2  0
 26 27  1  0
 27 28  2  0
 10  7  1  0
 17 11  1  0
 28 18  1  0
 27 21  1  0
  3 29  1  0
  4 30  1  0
  4 31  1  0
  8 32  1  0
  8 33  1  0
  9 34  1  0
  9 35  1  0
 10 36  1  1
 12 37  1  0
 13 38  1  0
 16 39  1  0
 17 40  1  0
 19 41  1  0
 20 42  1  0
 22 43  1  0
 25 44  1  0
 26 45  1  0
M  END
>  <smiles>  (78) 
O=C(NCC(=O)N1CCC1c1ccc(Cl)cc1)c1ccc2cc(F)ccc2n1

>  <score_type>  (78) 
oracle

>  <origin>  (78) 
autodockgpu

>  <m_score__min__energy>  (78) 
-8.7300000000000004

>  <m_primary>  (78) 
energy

>  <rmsd>  (78) 
8.758742682254544

>  <m_score__min__rmsd>  (78) 
8.758742682254544

>  <meeko>  (78) 
{"free_energy": -7.71, "intermolecular_energy": -9.2, "internal_energy": -1.48, "cluster_size": 28, "cluster_id": 2, "rank_in_cluster": 28}

>  <energy>  (78) 
-8.29

>  <cluster_rmsd>  (78) 
1.2

>  <cluster>  (78) 
2

$$$$

     RDKit          3D

 45 48  0  0  0  0  0  0  0  0999 V2000
  137.0900   76.2380  221.9950 O   0  0  0  0  0  0  0  0  0  0  0  0
  138.3270   76.2600  222.3170 C   0  0  0  0  0  0  0  0  0  0  0  0
  139.1210   75.0800  222.3180 N   0  0  0  0  0  0  0  0  0  0  0  0
  138.5660   73.7710  221.9500 C   0  0  0  0  0  0  0  0  0  0  0  0
  139.5690   72.7600  222.2660 C   0  0  0  0  0  0  0  0  0  0  0  0
  140.7920   73.1260  222.3480 O   0  0  0  0  0  0  0  0  0  0  0  0
  139.3220   71.3860  222.4930 N   0  0  0  0  0  0  0  0  0  0  0  0
  139.8740   70.1730  221.8750 C   0  0  0  0  0  0  0  0  0  0  0  0
  138.6380   69.3900  222.2900 C   0  0  0  0  0  0  0  0  0  0  0  0
  138.5200   70.5050  223.3170 C   0  0  1  0  0  0  0  0  0  0  0  0
  139.1570   70.0350  224.5780 C   0  0  0  0  0  0  0  0  0  0  0  0
  139.9380   70.8350  225.3770 C   0  0  0  0  0  0  0  0  0  0  0  0
  140.5200   70.3810  226.5580 C   0  0  0  0  0  0  0  0  0  0  0  0
  140.3250   69.0810  226.9750 C   0  0  0  0  0  0  0  0  0  0  0  0
  141.0600   68.5210  228.4630 Cl  0  0  0  0  0  0  0  0  0  0  0  0
  139.5440   68.2600  226.1900 C   0  0  0  0  0  0  0  0  0  0  0  0
  138.9750   68.7240  225.0210 C   0  0  0  0  0  0  0  0  0  0  0  0
  138.9670   77.5380  222.7020 C   0  0  0  0  0  0  0  0  0  0  0  0
  138.1360   78.6200  223.0090 C   0  0  0  0  0  0  0  0  0  0  0  0
  138.7040   79.8210  223.3720 C   0  0  0  0  0  0  0  0  0  0  0  0
  140.0760   79.9440  223.4270 C   0  0  0  0  0  0  0  0  0  0  0  0
  140.7120   81.1040  223.7780 C   0  0  0  0  0  0  0  0  0  0  0  0
  142.0670   81.2120  223.8290 C   0  0  0  0  0  0  0  0  0  0  0  0
  142.6620   82.3860  224.1820 F   0  0  0  0  0  0  0  0  0  0  0  0
  142.8450   80.1120  223.5160 C   0  0  0  0  0  0  0  0  0  0  0  0
  142.2000   78.9530  223.1650 C   0  0  0  0  0  0  0  0  0  0  0  0
  140.8220   78.8330  223.1100 C   0  0  0  0  0  0  0  0  0  0  0  0
  140.2920   77.6500  222.7550 N   0  0  0  0  0  0  0  0  0  0  0  0
  140.1390   75.1810  222.5970 H   0  0  0  0  0  0  0  0  0  0  0  0
  137.6469   73.5791  222.5231 H   0  0  0  0  0  0  0  0  0  0  0  0
  138.3168   73.7452  220.8789 H   0  0  0  0  0  0  0  0  0  0  0  0
  140.0121   70.2480  220.7863 H   0  0  0  0  0  0  0  0  0  0  0  0
  140.8761   69.8156  222.1543 H   0  0  0  0  0  0  0  0  0  0  0  0
  137.8312   69.3408  221.5439 H   0  0  0  0  0  0  0  0  0  0  0  0
  138.6365   68.3178  222.5356 H   0  0  0  0  0  0  0  0  0  0  0  0
  137.5604   70.9044  223.6770 H   0  0  0  0  0  0  0  0  0  0  0  0
  140.1107   71.8774  225.0710 H   0  0  0  0  0  0  0  0  0  0  0  0
  141.1381   71.0625  227.1610 H   0  0  0  0  0  0  0  0  0  0  0  0
  139.3715   67.2188  226.5000 H   0  0  0  0  0  0  0  0  0  0  0  0
  138.3589   68.0391  224.4198 H   0  0  0  0  0  0  0  0  0  0  0  0
  137.0422   78.5132  222.9612 H   0  0  0  0  0  0  0  0  0  0  0  0
  138.0637   80.6810  223.6177 H   0  0  0  0  0  0  0  0  0  0  0  0
  140.1027   81.9847  224.0291 H   0  0  0  0  0  0  0  0  0  0  0  0
  143.9433   80.1646  223.5474 H   0  0  0  0  0  0  0  0  0  0  0  0
  142.8100   78.0727  222.9140 H   0  0  0  0  0  0  0  0  0  0  0  0
  1  2  2  0
  2  3  1  0
  3  4  1  0
  4  5  1  0
  5  6  2  0
  5  7  1  0
  7  8  1  0
  8  9  1  0
  9 10  1  0
 10 11  1  0
 11 12  2  0
 12 13  1  0
 13 14  2  0
 14 15  1  0
 14 16  1  0
 16 17  2  0
  2 18  1  0
 18 19  2  0
 19 20  1  0
 20 21  2  0
 21 22  1  0
 22 23  2  0
 23 24  1  0
 23 25  1  0
 25 26  2  0
 26 27  1  0
 27 28  2  0
 10  7  1  0
 17 11  1  0
 28 18  1  0
 27 21  1  0
  3 29  1  0
  4 30  1  0
  4 31  1  0
  8 32  1  0
  8 33  1  0
  9 34  1  0
  9 35  1  0
 10 36  1  1
 12 37  1  0
 13 38  1  0
 16 39  1  0
 17 40  1  0
 19 41  1  0
 20 42  1  0
 22 43  1  0
 25 44  1  0
 26 45  1  0
M  END
>  <smiles>  (79) 
O=C(NCC(=O)N1CCC1c1ccc(Cl)cc1)c1ccc2cc(F)ccc2n1

>  <score_type>  (79) 
oracle

>  <origin>  (79) 
autodockgpu

>  <m_score__min__energy>  (79) 
-8.7300000000000004

>  <m_primary>  (79) 
energy

>  <rmsd>  (79) 
8.624507841820414

>  <m_score__min__rmsd>  (79) 
8.624507841820414

>  <meeko>  (79) 
{"free_energy": -8.21, "intermolecular_energy": -9.7, "internal_energy": -1.93, "cluster_size": 28, "cluster_id": 2, "rank_in_cluster": 17}

>  <energy>  (79) 
-8.29

>  <cluster_rmsd>  (79) 
1.24

>  <cluster>  (79) 
2

$$$$

     RDKit          3D

 45 48  0  0  0  0  0  0  0  0999 V2000
  136.9400   76.0660  222.3320 O   0  0  0  0  0  0  0  0  0  0  0  0
  138.2130   76.1430  222.4180 C   0  0  0  0  0  0  0  0  0  0  0  0
  139.0460   75.0030  222.2430 N   0  0  0  0  0  0  0  0  0  0  0  0
  138.4910   73.6750  221.9540 C   0  0  0  0  0  0  0  0  0  0  0  0
  139.5230   72.6890  222.2570 C   0  0  0  0  0  0  0  0  0  0  0  0
  140.7320   73.0900  222.3590 O   0  0  0  0  0  0  0  0  0  0  0  0
  139.3170   71.3030  222.4520 N   0  0  0  0  0  0  0  0  0  0  0  0
  139.9380   70.1210  221.8390 C   0  0  0  0  0  0  0  0  0  0  0  0
  138.7150   69.2870  222.1890 C   0  0  0  0  0  0  0  0  0  0  0  0
  138.5140   70.3790  223.2280 C   0  0  1  0  0  0  0  0  0  0  0  0
  139.1140   69.9110  224.5060 C   0  0  0  0  0  0  0  0  0  0  0  0
  139.0000   68.6220  224.9710 C   0  0  0  0  0  0  0  0  0  0  0  0
  139.5760   68.1990  226.1670 C   0  0  0  0  0  0  0  0  0  0  0  0
  140.2980   69.0820  226.9420 C   0  0  0  0  0  0  0  0  0  0  0  0
  141.0180   68.5390  228.4430 Cl  0  0  0  0  0  0  0  0  0  0  0  0
  140.4260   70.3800  226.4960 C   0  0  0  0  0  0  0  0  0  0  0  0
  139.8490   70.7850  225.3090 C   0  0  0  0  0  0  0  0  0  0  0  0
  138.8550   77.4440  222.7070 C   0  0  0  0  0  0  0  0  0  0  0  0
  138.0320   78.5660  222.8400 C   0  0  0  0  0  0  0  0  0  0  0  0
  138.6010   79.7910  223.1100 C   0  0  0  0  0  0  0  0  0  0  0  0
  139.9690   79.8970  223.2450 C   0  0  0  0  0  0  0  0  0  0  0  0
  140.6070   81.0780  223.5130 C   0  0  0  0  0  0  0  0  0  0  0  0
  141.9580   81.1690  223.6440 C   0  0  0  0  0  0  0  0  0  0  0  0
  142.5550   82.3660  223.9100 F   0  0  0  0  0  0  0  0  0  0  0  0
  142.7300   80.0300  223.5040 C   0  0  0  0  0  0  0  0  0  0  0  0
  142.0820   78.8500  223.2360 C   0  0  0  0  0  0  0  0  0  0  0  0
  140.7090   78.7470  223.1000 C   0  0  0  0  0  0  0  0  0  0  0  0
  140.1760   77.5410  222.8380 N   0  0  0  0  0  0  0  0  0  0  0  0
  140.0920   75.1490  222.3300 H   0  0  0  0  0  0  0  0  0  0  0  0
  137.6048   73.4947  222.5802 H   0  0  0  0  0  0  0  0  0  0  0  0
  138.1880   73.6047  220.8989 H   0  0  0  0  0  0  0  0  0  0  0  0
  140.1186   70.2196  220.7584 H   0  0  0  0  0  0  0  0  0  0  0  0
  140.9399   69.7949  222.1549 H   0  0  0  0  0  0  0  0  0  0  0  0
  137.9422   69.2222  221.4089 H   0  0  0  0  0  0  0  0  0  0  0  0
  138.7424   68.2113  222.4171 H   0  0  0  0  0  0  0  0  0  0  0  0
  137.5263   70.7373  223.5538 H   0  0  0  0  0  0  0  0  0  0  0  0
  138.4304   67.8946  224.3739 H   0  0  0  0  0  0  0  0  0  0  0  0
  139.4543   67.1560  226.4946 H   0  0  0  0  0  0  0  0  0  0  0  0
  140.9969   71.1045  227.0953 H   0  0  0  0  0  0  0  0  0  0  0  0
  139.9723   71.8292  224.9858 H   0  0  0  0  0  0  0  0  0  0  0  0
  136.9416   78.4717  222.7302 H   0  0  0  0  0  0  0  0  0  0  0  0
  137.9656   80.6824  223.2176 H   0  0  0  0  0  0  0  0  0  0  0  0
  140.0030   81.9902  223.6270 H   0  0  0  0  0  0  0  0  0  0  0  0
  143.8248   80.0684  223.6039 H   0  0  0  0  0  0  0  0  0  0  0  0
  142.6864   77.9378  223.1234 H   0  0  0  0  0  0  0  0  0  0  0  0
  1  2  2  0
  2  3  1  0
  3  4  1  0
  4  5  1  0
  5  6  2  0
  5  7  1  0
  7  8  1  0
  8  9  1  0
  9 10  1  0
 10 11  1  0
 11 12  2  0
 12 13  1  0
 13 14  2  0
 14 15  1  0
 14 16  1  0
 16 17  2  0
  2 18  1  0
 18 19  2  0
 19 20  1  0
 20 21  2  0
 21 22  1  0
 22 23  2  0
 23 24  1  0
 23 25  1  0
 25 26  2  0
 26 27  1  0
 27 28  2  0
 10  7  1  0
 17 11  1  0
 28 18  1  0
 27 21  1  0
  3 29  1  0
  4 30  1  0
  4 31  1  0
  8 32  1  0
  8 33  1  0
  9 34  1  0
  9 35  1  0
 10 36  1  1
 12 37  1  0
 13 38  1  0
 16 39  1  0
 17 40  1  0
 19 41  1  0
 20 42  1  0
 22 43  1  0
 25 44  1  0
 26 45  1  0
M  END
>  <smiles>  (80) 
O=C(NCC(=O)N1CCC1c1ccc(Cl)cc1)c1ccc2cc(F)ccc2n1

>  <score_type>  (80) 
oracle

>  <origin>  (80) 
autodockgpu

>  <m_score__min__energy>  (80) 
-8.7300000000000004

>  <m_primary>  (80) 
energy

>  <rmsd>  (80) 
8.747569671925532

>  <m_score__min__rmsd>  (80) 
8.747569671925532

>  <meeko>  (80) 
{"free_energy": -8.01, "intermolecular_energy": -9.5, "internal_energy": -1.97, "cluster_size": 28, "cluster_id": 2, "rank_in_cluster": 26}

>  <energy>  (80) 
-8.29

>  <cluster_rmsd>  (80) 
1.19

>  <cluster>  (80) 
2

$$$$

     RDKit          3D

 45 48  0  0  0  0  0  0  0  0999 V2000
  138.0770   70.5840  221.8230 O   0  0  0  0  0  0  0  0  0  0  0  0
  138.7540   71.1060  222.7740 C   0  0  0  0  0  0  0  0  0  0  0  0
  139.1530   72.4710  222.7460 N   0  0  0  0  0  0  0  0  0  0  0  0
  138.8120   73.3570  221.6250 C   0  0  0  0  0  0  0  0  0  0  0  0
  139.5100   74.6210  221.8320 C   0  0  0  0  0  0  0  0  0  0  0  0
  140.7800   74.5950  221.9740 O   0  0  0  0  0  0  0  0  0  0  0  0
  138.9110   75.9010  221.8940 N   0  0  0  0  0  0  0  0  0  0  0  0
  137.8170   76.4350  222.7150 C   0  0  0  0  0  0  0  0  0  0  0  0
  137.5560   77.5160  221.6780 C   0  0  0  0  0  0  0  0  0  0  0  0
  138.9960   77.2170  221.2930 C   0  0  1  0  0  0  0  0  0  0  0  0
  139.8700   78.1960  221.9940 C   0  0  0  0  0  0  0  0  0  0  0  0
  139.6470   79.5530  221.9890 C   0  0  0  0  0  0  0  0  0  0  0  0
  140.4710   80.4540  222.6570 C   0  0  0  0  0  0  0  0  0  0  0  0
  141.5660   80.0050  223.3650 C   0  0  0  0  0  0  0  0  0  0  0  0
  142.5950   81.1470  224.2020 Cl  0  0  0  0  0  0  0  0  0  0  0  0
  141.8100   78.6480  223.3850 C   0  0  0  0  0  0  0  0  0  0  0  0
  140.9850   77.7660  222.7160 C   0  0  0  0  0  0  0  0  0  0  0  0
  139.1400   70.2850  223.9420 C   0  0  0  0  0  0  0  0  0  0  0  0
  138.8690   68.9140  223.8970 C   0  0  0  0  0  0  0  0  0  0  0  0
  139.2190   68.1230  224.9700 C   0  0  0  0  0  0  0  0  0  0  0  0
  139.8260   68.6900  226.0700 C   0  0  0  0  0  0  0  0  0  0  0  0
  140.2020   67.9700  227.1730 C   0  0  0  0  0  0  0  0  0  0  0  0
  140.8020   68.5410  228.2520 C   0  0  0  0  0  0  0  0  0  0  0  0
  141.1600   67.7890  229.3310 F   0  0  0  0  0  0  0  0  0  0  0  0
  141.0480   69.9020  228.2480 C   0  0  0  0  0  0  0  0  0  0  0  0
  140.6690   70.6150  227.1390 C   0  0  0  0  0  0  0  0  0  0  0  0
  140.0580   70.0450  226.0370 C   0  0  0  0  0  0  0  0  0  0  0  0
  139.7280   70.8360  225.0010 N   0  0  0  0  0  0  0  0  0  0  0  0
  139.7110   72.8290  223.5730 H   0  0  0  0  0  0  0  0  0  0  0  0
  139.1336   72.9022  220.6765 H   0  0  0  0  0  0  0  0  0  0  0  0
  137.7251   73.5196  221.5787 H   0  0  0  0  0  0  0  0  0  0  0  0
  136.9791   75.7361  222.8541 H   0  0  0  0  0  0  0  0  0  0  0  0
  137.9946   76.7067  223.7660 H   0  0  0  0  0  0  0  0  0  0  0  0
  136.7987   77.2750  220.9175 H   0  0  0  0  0  0  0  0  0  0  0  0
  137.1725   78.5201  221.9120 H   0  0  0  0  0  0  0  0  0  0  0  0
  139.3749   77.2654  220.2615 H   0  0  0  0  0  0  0  0  0  0  0  0
  138.7811   79.9427  221.4337 H   0  0  0  0  0  0  0  0  0  0  0  0
  140.2476   81.5304  222.6200 H   0  0  0  0  0  0  0  0  0  0  0  0
  142.6759   78.2620  223.9429 H   0  0  0  0  0  0  0  0  0  0  0  0
  141.2133   76.6906  222.7530 H   0  0  0  0  0  0  0  0  0  0  0  0
  138.3821   68.4718  223.0153 H   0  0  0  0  0  0  0  0  0  0  0  0
  139.0145   67.0424  224.9486 H   0  0  0  0  0  0  0  0  0  0  0  0
  140.0111   66.8868  227.1867 H   0  0  0  0  0  0  0  0  0  0  0  0
  141.5308   70.3956  229.1043 H   0  0  0  0  0  0  0  0  0  0  0  0
  140.8614   71.6980  227.1255 H   0  0  0  0  0  0  0  0  0  0  0  0
  1  2  2  0
  2  3  1  0
  3  4  1  0
  4  5  1  0
  5  6  2  0
  5  7  1  0
  7  8  1  0
  8  9  1  0
  9 10  1  0
 10 11  1  0
 11 12  2  0
 12 13  1  0
 13 14  2  0
 14 15  1  0
 14 16  1  0
 16 17  2  0
  2 18  1  0
 18 19  2  0
 19 20  1  0
 20 21  2  0
 21 22  1  0
 22 23  2  0
 23 24  1  0
 23 25  1  0
 25 26  2  0
 26 27  1  0
 27 28  2  0
 10  7  1  0
 17 11  1  0
 28 18  1  0
 27 21  1  0
  3 29  1  0
  4 30  1  0
  4 31  1  0
  8 32  1  0
  8 33  1  0
  9 34  1  0
  9 35  1  0
 10 36  1  6
 12 37  1  0
 13 38  1  0
 16 39  1  0
 17 40  1  0
 19 41  1  0
 20 42  1  0
 22 43  1  0
 25 44  1  0
 26 45  1  0
M  END
>  <smiles>  (81) 
O=C(NCC(=O)N1CCC1c1ccc(Cl)cc1)c1ccc2cc(F)ccc2n1

>  <score_type>  (81) 
oracle

>  <origin>  (81) 
autodockgpu

>  <m_score__min__energy>  (81) 
-8.7300000000000004

>  <m_primary>  (81) 
energy

>  <rmsd>  (81) 
2.767257721944507

>  <m_score__min__rmsd>  (81) 
2.767257721944507

>  <meeko>  (81) 
{"free_energy": -8.73, "intermolecular_energy": -10.22, "internal_energy": -1.53, "cluster_size": 22, "cluster_id": 1, "rank_in_cluster": 1}

>  <energy>  (81) 
-8.28

>  <cluster_rmsd>  (81) 
1.27

>  <cluster>  (81) 
2

$$$$

     RDKit          3D

 45 48  0  0  0  0  0  0  0  0999 V2000
  137.0220   76.1730  222.1390 O   0  0  0  0  0  0  0  0  0  0  0  0
  138.2830   76.2280  222.3430 C   0  0  0  0  0  0  0  0  0  0  0  0
  139.1120   75.0790  222.2160 N   0  0  0  0  0  0  0  0  0  0  0  0
  138.5680   73.7670  221.8450 C   0  0  0  0  0  0  0  0  0  0  0  0
  139.5530   72.7580  222.2190 C   0  0  0  0  0  0  0  0  0  0  0  0
  140.7640   73.1280  222.3910 O   0  0  0  0  0  0  0  0  0  0  0  0
  139.2990   71.3800  222.4140 N   0  0  0  0  0  0  0  0  0  0  0  0
  139.8590   70.1780  221.7810 C   0  0  0  0  0  0  0  0  0  0  0  0
  138.6130   69.3900  222.1580 C   0  0  0  0  0  0  0  0  0  0  0  0
  138.4800   70.4840  223.2050 C   0  0  1  0  0  0  0  0  0  0  0  0
  139.0920   69.9870  224.4670 C   0  0  0  0  0  0  0  0  0  0  0  0
  138.9510   68.6990  224.9240 C   0  0  0  0  0  0  0  0  0  0  0  0
  139.5390   68.2480  226.1030 C   0  0  0  0  0  0  0  0  0  0  0  0
  140.3020   69.1030  226.8710 C   0  0  0  0  0  0  0  0  0  0  0  0
  141.0370   68.5260  228.3520 Cl  0  0  0  0  0  0  0  0  0  0  0  0
  140.4580   70.4010  226.4330 C   0  0  0  0  0  0  0  0  0  0  0  0
  139.8680   70.8330  225.2620 C   0  0  0  0  0  0  0  0  0  0  0  0
  138.9130   77.5120  222.7210 C   0  0  0  0  0  0  0  0  0  0  0  0
  138.0750   78.5900  223.0230 C   0  0  0  0  0  0  0  0  0  0  0  0
  138.6340   79.7970  223.3800 C   0  0  0  0  0  0  0  0  0  0  0  0
  140.0050   79.9290  223.4340 C   0  0  0  0  0  0  0  0  0  0  0  0
  140.6330   81.0950  223.7790 C   0  0  0  0  0  0  0  0  0  0  0  0
  141.9880   81.2130  223.8280 C   0  0  0  0  0  0  0  0  0  0  0  0
  142.5740   82.3940  224.1770 F   0  0  0  0  0  0  0  0  0  0  0  0
  142.7740   80.1180  223.5210 C   0  0  0  0  0  0  0  0  0  0  0  0
  142.1360   78.9520  223.1760 C   0  0  0  0  0  0  0  0  0  0  0  0
  140.7600   78.8220  223.1220 C   0  0  0  0  0  0  0  0  0  0  0  0
  140.2380   77.6340  222.7730 N   0  0  0  0  0  0  0  0  0  0  0  0
  140.1480   75.2070  222.4010 H   0  0  0  0  0  0  0  0  0  0  0  0
  137.6247   73.5870  222.3815 H   0  0  0  0  0  0  0  0  0  0  0  0
  138.3640   73.7253  220.7649 H   0  0  0  0  0  0  0  0  0  0  0  0
  140.0168   70.2749  220.6967 H   0  0  0  0  0  0  0  0  0  0  0  0
  140.8551   69.8120  222.0706 H   0  0  0  0  0  0  0  0  0  0  0  0
  137.8195   69.3585  221.3969 H   0  0  0  0  0  0  0  0  0  0  0  0
  138.6042   68.3130  222.3816 H   0  0  0  0  0  0  0  0  0  0  0  0
  137.5150   70.8788  223.5556 H   0  0  0  0  0  0  0  0  0  0  0  0
  138.3478   67.9939  224.3333 H   0  0  0  0  0  0  0  0  0  0  0  0
  139.3945   67.2056  226.4233 H   0  0  0  0  0  0  0  0  0  0  0  0
  141.0621   71.1035  227.0260 H   0  0  0  0  0  0  0  0  0  0  0  0
  140.0138   71.8763  224.9453 H   0  0  0  0  0  0  0  0  0  0  0  0
  136.9820   78.4753  222.9760 H   0  0  0  0  0  0  0  0  0  0  0  0
  137.9878   80.6538  223.6215 H   0  0  0  0  0  0  0  0  0  0  0  0
  140.0176   81.9725  224.0268 H   0  0  0  0  0  0  0  0  0  0  0  0
  143.8719   80.1786  223.5520 H   0  0  0  0  0  0  0  0  0  0  0  0
  142.7520   78.0746  222.9294 H   0  0  0  0  0  0  0  0  0  0  0  0
  1  2  2  0
  2  3  1  0
  3  4  1  0
  4  5  1  0
  5  6  2  0
  5  7  1  0
  7  8  1  0
  8  9  1  0
  9 10  1  0
 10 11  1  0
 11 12  2  0
 12 13  1  0
 13 14  2  0
 14 15  1  0
 14 16  1  0
 16 17  2  0
  2 18  1  0
 18 19  2  0
 19 20  1  0
 20 21  2  0
 21 22  1  0
 22 23  2  0
 23 24  1  0
 23 25  1  0
 25 26  2  0
 26 27  1  0
 27 28  2  0
 10  7  1  0
 17 11  1  0
 28 18  1  0
 27 21  1  0
  3 29  1  0
  4 30  1  0
  4 31  1  0
  8 32  1  0
  8 33  1  0
  9 34  1  0
  9 35  1  0
 10 36  1  1
 12 37  1  0
 13 38  1  0
 16 39  1  0
 17 40  1  0
 19 41  1  0
 20 42  1  0
 22 43  1  0
 25 44  1  0
 26 45  1  0
M  END
>  <smiles>  (82) 
O=C(NCC(=O)N1CCC1c1ccc(Cl)cc1)c1ccc2cc(F)ccc2n1

>  <score_type>  (82) 
oracle

>  <origin>  (82) 
autodockgpu

>  <m_score__min__energy>  (82) 
-8.7300000000000004

>  <m_primary>  (82) 
energy

>  <rmsd>  (82) 
8.733046855770185

>  <m_score__min__rmsd>  (82) 
8.733046855770185

>  <meeko>  (82) 
{"free_energy": -8.17, "intermolecular_energy": -9.66, "internal_energy": -1.96, "cluster_size": 28, "cluster_id": 2, "rank_in_cluster": 20}

>  <energy>  (82) 
-8.28

>  <cluster_rmsd>  (82) 
1.2

>  <cluster>  (82) 
2

$$$$

     RDKit          3D

 45 48  0  0  0  0  0  0  0  0999 V2000
  140.9860   72.9670  222.2130 O   0  0  0  0  0  0  0  0  0  0  0  0
  139.8900   72.5760  222.7430 C   0  0  0  0  0  0  0  0  0  0  0  0
  138.6290   73.0520  222.2890 N   0  0  0  0  0  0  0  0  0  0  0  0
  138.5140   74.0180  221.1890 C   0  0  0  0  0  0  0  0  0  0  0  0
  139.0060   75.3020  221.6740 C   0  0  0  0  0  0  0  0  0  0  0  0
  138.6830   75.6670  222.8560 O   0  0  0  0  0  0  0  0  0  0  0  0
  139.8210   76.2060  220.9530 N   0  0  0  0  0  0  0  0  0  0  0  0
  139.5290   77.1230  219.8440 C   0  0  0  0  0  0  0  0  0  0  0  0
  140.9940   77.1100  219.4360 C   0  0  0  0  0  0  0  0  0  0  0  0
  141.1870   76.6850  220.8830 C   0  0  1  0  0  0  0  0  0  0  0  0
  141.4910   77.9030  221.6810 C   0  0  0  0  0  0  0  0  0  0  0  0
  141.8880   79.0960  221.1250 C   0  0  0  0  0  0  0  0  0  0  0  0
  142.1600   80.2290  221.8870 C   0  0  0  0  0  0  0  0  0  0  0  0
  142.0370   80.1910  223.2600 C   0  0  0  0  0  0  0  0  0  0  0  0
  142.3810   81.6220  224.2090 Cl  0  0  0  0  0  0  0  0  0  0  0  0
  141.6400   79.0050  223.8410 C   0  0  0  0  0  0  0  0  0  0  0  0
  141.3740   77.8900  223.0730 C   0  0  0  0  0  0  0  0  0  0  0  0
  139.9150   71.6030  223.8570 C   0  0  0  0  0  0  0  0  0  0  0  0
  139.3130   70.3580  223.6530 C   0  0  0  0  0  0  0  0  0  0  0  0
  139.3220   69.4320  224.6730 C   0  0  0  0  0  0  0  0  0  0  0  0
  139.9180   69.7420  225.8770 C   0  0  0  0  0  0  0  0  0  0  0  0
  139.9670   68.8750  226.9350 C   0  0  0  0  0  0  0  0  0  0  0  0
  140.5580   69.1920  228.1180 C   0  0  0  0  0  0  0  0  0  0  0  0
  140.5840   68.3000  229.1480 F   0  0  0  0  0  0  0  0  0  0  0  0
  141.1400   70.4380  228.2700 C   0  0  0  0  0  0  0  0  0  0  0  0
  141.0880   71.3010  227.2050 C   0  0  0  0  0  0  0  0  0  0  0  0
  140.4880   70.9870  225.9980 C   0  0  0  0  0  0  0  0  0  0  0  0
  140.4930   71.9070  225.0170 N   0  0  0  0  0  0  0  0  0  0  0  0
  137.7660   72.6800  222.7790 H   0  0  0  0  0  0  0  0  0  0  0  0
  139.1184   73.6844  220.3326 H   0  0  0  0  0  0  0  0  0  0  0  0
  137.4679   74.1052  220.8604 H   0  0  0  0  0  0  0  0  0  0  0  0
  138.8493   76.7067  219.0859 H   0  0  0  0  0  0  0  0  0  0  0  0
  139.0157   78.0770  220.0347 H   0  0  0  0  0  0  0  0  0  0  0  0
  141.2719   76.3631  218.6778 H   0  0  0  0  0  0  0  0  0  0  0  0
  141.5140   77.9563  218.9633 H   0  0  0  0  0  0  0  0  0  0  0  0
  141.9712   75.9890  221.2156 H   0  0  0  0  0  0  0  0  0  0  0  0
  141.9953   79.1580  220.0320 H   0  0  0  0  0  0  0  0  0  0  0  0
  142.4746   81.1592  221.3913 H   0  0  0  0  0  0  0  0  0  0  0  0
  141.5337   78.9470  224.9343 H   0  0  0  0  0  0  0  0  0  0  0  0
  141.0599   76.9617  223.5725 H   0  0  0  0  0  0  0  0  0  0  0  0
  138.8379   70.1205  222.6897 H   0  0  0  0  0  0  0  0  0  0  0  0
  138.8545   68.4470  224.5271 H   0  0  0  0  0  0  0  0  0  0  0  0
  139.5095   67.8809  226.8238 H   0  0  0  0  0  0  0  0  0  0  0  0
  141.6278   70.7267  229.2127 H   0  0  0  0  0  0  0  0  0  0  0  0
  141.5471   72.2944  227.3161 H   0  0  0  0  0  0  0  0  0  0  0  0
  1  2  2  0
  2  3  1  0
  3  4  1  0
  4  5  1  0
  5  6  2  0
  5  7  1  0
  7  8  1  0
  8  9  1  0
  9 10  1  0
 10 11  1  0
 11 12  2  0
 12 13  1  0
 13 14  2  0
 14 15  1  0
 14 16  1  0
 16 17  2  0
  2 18  1  0
 18 19  2  0
 19 20  1  0
 20 21  2  0
 21 22  1  0
 22 23  2  0
 23 24  1  0
 23 25  1  0
 25 26  2  0
 26 27  1  0
 27 28  2  0
 10  7  1  0
 17 11  1  0
 28 18  1  0
 27 21  1  0
  3 29  1  0
  4 30  1  0
  4 31  1  0
  8 32  1  0
  8 33  1  0
  9 34  1  0
  9 35  1  0
 10 36  1  6
 12 37  1  0
 13 38  1  0
 16 39  1  0
 17 40  1  0
 19 41  1  0
 20 42  1  0
 22 43  1  0
 25 44  1  0
 26 45  1  0
M  END
>  <smiles>  (83) 
O=C(NCC(=O)N1CCC1c1ccc(Cl)cc1)c1ccc2cc(F)ccc2n1

>  <score_type>  (83) 
oracle

>  <origin>  (83) 
autodockgpu

>  <m_score__min__energy>  (83) 
-8.7300000000000004

>  <m_primary>  (83) 
energy

>  <rmsd>  (83) 
2.237059039041843

>  <m_score__min__rmsd>  (83) 
2.237059039041843

>  <meeko>  (83) 
{"free_energy": -8.59, "intermolecular_energy": -10.08, "internal_energy": -1.19, "cluster_size": 22, "cluster_id": 1, "rank_in_cluster": 5}

>  <energy>  (83) 
-8.28

>  <cluster_rmsd>  (83) 
1.21

>  <cluster>  (83) 
2

$$$$

     RDKit          3D

 45 48  0  0  0  0  0  0  0  0999 V2000
  137.0740   76.1640  222.1040 O   0  0  0  0  0  0  0  0  0  0  0  0
  138.3360   76.2240  222.3040 C   0  0  0  0  0  0  0  0  0  0  0  0
  139.1730   75.0840  222.1530 N   0  0  0  0  0  0  0  0  0  0  0  0
  138.6380   73.7750  221.7590 C   0  0  0  0  0  0  0  0  0  0  0  0
  139.5140   72.7520  222.3180 C   0  0  0  0  0  0  0  0  0  0  0  0
  140.7230   73.0700  222.5830 O   0  0  0  0  0  0  0  0  0  0  0  0
  139.1550   71.4130  222.6010 N   0  0  0  0  0  0  0  0  0  0  0  0
  139.5440   70.1400  221.9820 C   0  0  0  0  0  0  0  0  0  0  0  0
  138.2720   69.4890  222.5030 C   0  0  0  0  0  0  0  0  0  0  0  0
  138.3340   70.6320  223.5030 C   0  0  1  0  0  0  0  0  0  0  0  0
  139.0110   70.1310  224.7300 C   0  0  0  0  0  0  0  0  0  0  0  0
  139.8800   70.8870  225.4800 C   0  0  0  0  0  0  0  0  0  0  0  0
  140.4990   70.4050  226.6310 C   0  0  0  0  0  0  0  0  0  0  0  0
  140.2540   69.1200  227.0660 C   0  0  0  0  0  0  0  0  0  0  0  0
  141.0370   68.5230  228.5140 Cl  0  0  0  0  0  0  0  0  0  0  0  0
  139.3860   68.3410  226.3300 C   0  0  0  0  0  0  0  0  0  0  0  0
  138.7810   68.8330  225.1900 C   0  0  0  0  0  0  0  0  0  0  0  0
  138.9580   77.5060  222.7040 C   0  0  0  0  0  0  0  0  0  0  0  0
  138.1140   78.5650  223.0480 C   0  0  0  0  0  0  0  0  0  0  0  0
  138.6650   79.7700  223.4260 C   0  0  0  0  0  0  0  0  0  0  0  0
  140.0360   79.9170  223.4590 C   0  0  0  0  0  0  0  0  0  0  0  0
  140.6560   81.0810  223.8230 C   0  0  0  0  0  0  0  0  0  0  0  0
  142.0100   81.2140  223.8520 C   0  0  0  0  0  0  0  0  0  0  0  0
  142.5890   82.3910  224.2200 F   0  0  0  0  0  0  0  0  0  0  0  0
  142.8030   80.1350  223.5030 C   0  0  0  0  0  0  0  0  0  0  0  0
  142.1730   78.9720  223.1400 C   0  0  0  0  0  0  0  0  0  0  0  0
  140.7970   78.8270  223.1070 C   0  0  0  0  0  0  0  0  0  0  0  0
  140.2820   77.6420  222.7360 N   0  0  0  0  0  0  0  0  0  0  0  0
  140.2080   75.2160  222.3370 H   0  0  0  0  0  0  0  0  0  0  0  0
  137.6188   73.6524  222.1542 H   0  0  0  0  0  0  0  0  0  0  0  0
  138.5961   73.6897  220.6631 H   0  0  0  0  0  0  0  0  0  0  0  0
  139.6109   70.1775  220.8847 H   0  0  0  0  0  0  0  0  0  0  0  0
  140.5251   69.6938  222.2020 H   0  0  0  0  0  0  0  0  0  0  0  0
  137.4131   69.5017  221.8159 H   0  0  0  0  0  0  0  0  0  0  0  0
  138.1862   68.4275  222.7785 H   0  0  0  0  0  0  0  0  0  0  0  0
  137.4447   71.1301  223.9166 H   0  0  0  0  0  0  0  0  0  0  0  0
  140.0958   71.9163  225.1576 H   0  0  0  0  0  0  0  0  0  0  0  0
  141.1863   71.0525  227.1953 H   0  0  0  0  0  0  0  0  0  0  0  0
  139.1723   67.3123  226.6558 H   0  0  0  0  0  0  0  0  0  0  0  0
  138.0964   68.1817  224.6268 H   0  0  0  0  0  0  0  0  0  0  0  0
  137.0218   78.4382  223.0174 H   0  0  0  0  0  0  0  0  0  0  0  0
  138.0132   80.6125  223.7007 H   0  0  0  0  0  0  0  0  0  0  0  0
  140.0348   81.9444  224.1036 H   0  0  0  0  0  0  0  0  0  0  0  0
  143.9005   80.2075  223.5163 H   0  0  0  0  0  0  0  0  0  0  0  0
  142.7945   78.1086  222.8602 H   0  0  0  0  0  0  0  0  0  0  0  0
  1  2  2  0
  2  3  1  0
  3  4  1  0
  4  5  1  0
  5  6  2  0
  5  7  1  0
  7  8  1  0
  8  9  1  0
  9 10  1  0
 10 11  1  0
 11 12  2  0
 12 13  1  0
 13 14  2  0
 14 15  1  0
 14 16  1  0
 16 17  2  0
  2 18  1  0
 18 19  2  0
 19 20  1  0
 20 21  2  0
 21 22  1  0
 22 23  2  0
 23 24  1  0
 23 25  1  0
 25 26  2  0
 26 27  1  0
 27 28  2  0
 10  7  1  0
 17 11  1  0
 28 18  1  0
 27 21  1  0
  3 29  1  0
  4 30  1  0
  4 31  1  0
  8 32  1  0
  8 33  1  0
  9 34  1  0
  9 35  1  0
 10 36  1  1
 12 37  1  0
 13 38  1  0
 16 39  1  0
 17 40  1  0
 19 41  1  0
 20 42  1  0
 22 43  1  0
 25 44  1  0
 26 45  1  0
M  END
>  <smiles>  (84) 
O=C(NCC(=O)N1CCC1c1ccc(Cl)cc1)c1ccc2cc(F)ccc2n1

>  <score_type>  (84) 
oracle

>  <origin>  (84) 
autodockgpu

>  <m_score__min__energy>  (84) 
-8.7300000000000004

>  <m_primary>  (84) 
energy

>  <rmsd>  (84) 
8.624571666044844

>  <m_score__min__rmsd>  (84) 
8.624571666044844

>  <meeko>  (84) 
{"free_energy": -8.29, "intermolecular_energy": -9.78, "internal_energy": -1.92, "cluster_size": 28, "cluster_id": 2, "rank_in_cluster": 7}

>  <energy>  (84) 
-8.28

>  <cluster_rmsd>  (84) 
1.14

>  <cluster>  (84) 
2

$$$$

     RDKit          3D

 45 48  0  0  0  0  0  0  0  0999 V2000
  137.4330   75.9430  221.8680 O   0  0  0  0  0  0  0  0  0  0  0  0
  138.6920   76.0780  222.0470 C   0  0  0  0  0  0  0  0  0  0  0  0
  139.6000   75.0080  221.8110 N   0  0  0  0  0  0  0  0  0  0  0  0
  139.1440   73.6910  221.3510 C   0  0  0  0  0  0  0  0  0  0  0  0
  139.7340   72.6860  222.2280 C   0  0  0  0  0  0  0  0  0  0  0  0
  140.8900   72.9180  222.7210 O   0  0  0  0  0  0  0  0  0  0  0  0
  139.1460   71.4530  222.5950 N   0  0  0  0  0  0  0  0  0  0  0  0
  139.2190   70.1130  222.0000 C   0  0  0  0  0  0  0  0  0  0  0  0
  137.8960   69.7420  222.6520 C   0  0  0  0  0  0  0  0  0  0  0  0
  138.2710   70.8740  223.5950 C   0  0  1  0  0  0  0  0  0  0  0  0
  138.9450   70.2770  224.7810 C   0  0  0  0  0  0  0  0  0  0  0  0
  138.6520   69.0270  225.2710 C   0  0  0  0  0  0  0  0  0  0  0  0
  139.2990   68.4810  226.3770 C   0  0  0  0  0  0  0  0  0  0  0  0
  140.2790   69.1960  227.0330 C   0  0  0  0  0  0  0  0  0  0  0  0
  141.0850   68.4990  228.4230 Cl  0  0  0  0  0  0  0  0  0  0  0  0
  140.5890   70.4530  226.5600 C   0  0  0  0  0  0  0  0  0  0  0  0
  139.9390   70.9810  225.4630 C   0  0  0  0  0  0  0  0  0  0  0  0
  139.2370   77.3730  222.5100 C   0  0  0  0  0  0  0  0  0  0  0  0
  138.3300   78.3630  222.9020 C   0  0  0  0  0  0  0  0  0  0  0  0
  138.8090   79.5780  223.3400 C   0  0  0  0  0  0  0  0  0  0  0  0
  140.1680   79.8050  223.3840 C   0  0  0  0  0  0  0  0  0  0  0  0
  140.7180   80.9850  223.8060 C   0  0  0  0  0  0  0  0  0  0  0  0
  142.0610   81.1970  223.8450 C   0  0  0  0  0  0  0  0  0  0  0  0
  142.5680   82.3880  224.2710 F   0  0  0  0  0  0  0  0  0  0  0  0
  142.9170   80.1860  223.4470 C   0  0  0  0  0  0  0  0  0  0  0  0
  142.3570   79.0060  223.0260 C   0  0  0  0  0  0  0  0  0  0  0  0
  140.9930   78.7810  222.9810 C   0  0  0  0  0  0  0  0  0  0  0  0
  140.5500   77.5860  222.5530 N   0  0  0  0  0  0  0  0  0  0  0  0
  140.6280   75.2000  221.9820 H   0  0  0  0  0  0  0  0  0  0  0  0
  138.0466   73.6355  221.4026 H   0  0  0  0  0  0  0  0  0  0  0  0
  139.4502   73.5199  220.3084 H   0  0  0  0  0  0  0  0  0  0  0  0
  139.1929   70.1093  220.9003 H   0  0  0  0  0  0  0  0  0  0  0  0
  140.1087   69.4853  222.1563 H   0  0  0  0  0  0  0  0  0  0  0  0
  136.9981   69.9090  222.0388 H   0  0  0  0  0  0  0  0  0  0  0  0
  137.6284   68.7260  222.9779 H   0  0  0  0  0  0  0  0  0  0  0  0
  137.5379   71.5495  224.0601 H   0  0  0  0  0  0  0  0  0  0  0  0
  137.8742   68.4330  224.7689 H   0  0  0  0  0  0  0  0  0  0  0  0
  139.0271   67.4749  226.7289 H   0  0  0  0  0  0  0  0  0  0  0  0
  141.3668   71.0447  227.0649 H   0  0  0  0  0  0  0  0  0  0  0  0
  140.2127   71.9880  225.1152 H   0  0  0  0  0  0  0  0  0  0  0  0
  137.2472   78.1736  222.8610 H   0  0  0  0  0  0  0  0  0  0  0  0
  138.1084   80.3657  223.6541 H   0  0  0  0  0  0  0  0  0  0  0  0
  140.0465   81.7951  224.1267 H   0  0  0  0  0  0  0  0  0  0  0  0
  144.0083   80.3230  223.4672 H   0  0  0  0  0  0  0  0  0  0  0  0
  143.0290   78.1956  222.7072 H   0  0  0  0  0  0  0  0  0  0  0  0
  1  2  2  0
  2  3  1  0
  3  4  1  0
  4  5  1  0
  5  6  2  0
  5  7  1  0
  7  8  1  0
  8  9  1  0
  9 10  1  0
 10 11  1  0
 11 12  2  0
 12 13  1  0
 13 14  2  0
 14 15  1  0
 14 16  1  0
 16 17  2  0
  2 18  1  0
 18 19  2  0
 19 20  1  0
 20 21  2  0
 21 22  1  0
 22 23  2  0
 23 24  1  0
 23 25  1  0
 25 26  2  0
 26 27  1  0
 27 28  2  0
 10  7  1  0
 17 11  1  0
 28 18  1  0
 27 21  1  0
  3 29  1  0
  4 30  1  0
  4 31  1  0
  8 32  1  0
  8 33  1  0
  9 34  1  0
  9 35  1  0
 10 36  1  1
 12 37  1  0
 13 38  1  0
 16 39  1  0
 17 40  1  0
 19 41  1  0
 20 42  1  0
 22 43  1  0
 25 44  1  0
 26 45  1  0
M  END
>  <smiles>  (85) 
O=C(NCC(=O)N1CCC1c1ccc(Cl)cc1)c1ccc2cc(F)ccc2n1

>  <score_type>  (85) 
oracle

>  <origin>  (85) 
autodockgpu

>  <m_score__min__energy>  (85) 
-8.7300000000000004

>  <m_primary>  (85) 
energy

>  <rmsd>  (85) 
8.703600771418351

>  <m_score__min__rmsd>  (85) 
8.703600771418351

>  <meeko>  (85) 
{"free_energy": -8.28, "intermolecular_energy": -9.77, "internal_energy": -1.73, "cluster_size": 28, "cluster_id": 2, "rank_in_cluster": 12}

>  <energy>  (85) 
-8.27

>  <cluster_rmsd>  (85) 
1.26

>  <cluster>  (85) 
2

$$$$

     RDKit          3D

 45 48  0  0  0  0  0  0  0  0999 V2000
  137.0920   76.2200  221.9870 O   0  0  0  0  0  0  0  0  0  0  0  0
  138.3280   76.2390  222.3150 C   0  0  0  0  0  0  0  0  0  0  0  0
  139.1200   75.0570  222.3190 N   0  0  0  0  0  0  0  0  0  0  0  0
  138.5640   73.7500  221.9470 C   0  0  0  0  0  0  0  0  0  0  0  0
  139.5760   72.7400  222.2350 C   0  0  0  0  0  0  0  0  0  0  0  0
  140.7950   73.1150  222.3270 O   0  0  0  0  0  0  0  0  0  0  0  0
  139.3420   71.3580  222.4240 N   0  0  0  0  0  0  0  0  0  0  0  0
  139.9280   70.1670  221.7940 C   0  0  0  0  0  0  0  0  0  0  0  0
  138.6910   69.3580  222.1570 C   0  0  0  0  0  0  0  0  0  0  0  0
  138.5300   70.4470  223.2050 C   0  0  1  0  0  0  0  0  0  0  0  0
  139.1380   69.9580  224.4720 C   0  0  0  0  0  0  0  0  0  0  0  0
  138.9920   68.6720  224.9370 C   0  0  0  0  0  0  0  0  0  0  0  0
  139.5760   68.2280  226.1210 C   0  0  0  0  0  0  0  0  0  0  0  0
  140.3390   69.0860  226.8850 C   0  0  0  0  0  0  0  0  0  0  0  0
  141.0680   68.5170  228.3720 Cl  0  0  0  0  0  0  0  0  0  0  0  0
  140.5000   70.3800  226.4390 C   0  0  0  0  0  0  0  0  0  0  0  0
  139.9140   70.8060  225.2630 C   0  0  0  0  0  0  0  0  0  0  0  0
  138.9680   77.5150  222.7030 C   0  0  0  0  0  0  0  0  0  0  0  0
  138.1390   78.5970  223.0140 C   0  0  0  0  0  0  0  0  0  0  0  0
  138.7070   79.7970  223.3800 C   0  0  0  0  0  0  0  0  0  0  0  0
  140.0790   79.9180  223.4340 C   0  0  0  0  0  0  0  0  0  0  0  0
  140.7160   81.0770  223.7890 C   0  0  0  0  0  0  0  0  0  0  0  0
  142.0710   81.1840  223.8390 C   0  0  0  0  0  0  0  0  0  0  0  0
  142.6670   82.3570  224.1970 F   0  0  0  0  0  0  0  0  0  0  0  0
  142.8490   80.0850  223.5230 C   0  0  0  0  0  0  0  0  0  0  0  0
  142.2020   78.9270  223.1690 C   0  0  0  0  0  0  0  0  0  0  0  0
  140.8250   78.8080  223.1150 C   0  0  0  0  0  0  0  0  0  0  0  0
  140.2930   77.6270  222.7560 N   0  0  0  0  0  0  0  0  0  0  0  0
  140.1360   75.1560  222.6020 H   0  0  0  0  0  0  0  0  0  0  0  0
  137.6557   73.5484  222.5338 H   0  0  0  0  0  0  0  0  0  0  0  0
  138.2965   73.7344  220.8802 H   0  0  0  0  0  0  0  0  0  0  0  0
  140.0950   70.2690  220.7115 H   0  0  0  0  0  0  0  0  0  0  0  0
  140.9270   69.8166  222.0926 H   0  0  0  0  0  0  0  0  0  0  0  0
  137.9056   69.3156  221.3880 H   0  0  0  0  0  0  0  0  0  0  0  0
  138.6974   68.2805  222.3780 H   0  0  0  0  0  0  0  0  0  0  0  0
  137.5551   70.8246  223.5470 H   0  0  0  0  0  0  0  0  0  0  0  0
  138.3888   67.9644  224.3493 H   0  0  0  0  0  0  0  0  0  0  0  0
  139.4280   67.1883  226.4482 H   0  0  0  0  0  0  0  0  0  0  0  0
  141.1047   71.0846  227.0288 H   0  0  0  0  0  0  0  0  0  0  0  0
  140.0638   71.8467  224.9398 H   0  0  0  0  0  0  0  0  0  0  0  0
  137.0451   78.4910  222.9669 H   0  0  0  0  0  0  0  0  0  0  0  0
  138.0674   80.6567  223.6286 H   0  0  0  0  0  0  0  0  0  0  0  0
  140.1073   81.9570  224.0440 H   0  0  0  0  0  0  0  0  0  0  0  0
  143.9473   80.1369  223.5542 H   0  0  0  0  0  0  0  0  0  0  0  0
  142.8111   78.0470  222.9148 H   0  0  0  0  0  0  0  0  0  0  0  0
  1  2  2  0
  2  3  1  0
  3  4  1  0
  4  5  1  0
  5  6  2  0
  5  7  1  0
  7  8  1  0
  8  9  1  0
  9 10  1  0
 10 11  1  0
 11 12  2  0
 12 13  1  0
 13 14  2  0
 14 15  1  0
 14 16  1  0
 16 17  2  0
  2 18  1  0
 18 19  2  0
 19 20  1  0
 20 21  2  0
 21 22  1  0
 22 23  2  0
 23 24  1  0
 23 25  1  0
 25 26  2  0
 26 27  1  0
 27 28  2  0
 10  7  1  0
 17 11  1  0
 28 18  1  0
 27 21  1  0
  3 29  1  0
  4 30  1  0
  4 31  1  0
  8 32  1  0
  8 33  1  0
  9 34  1  0
  9 35  1  0
 10 36  1  1
 12 37  1  0
 13 38  1  0
 16 39  1  0
 17 40  1  0
 19 41  1  0
 20 42  1  0
 22 43  1  0
 25 44  1  0
 26 45  1  0
M  END
>  <smiles>  (86) 
O=C(NCC(=O)N1CCC1c1ccc(Cl)cc1)c1ccc2cc(F)ccc2n1

>  <score_type>  (86) 
oracle

>  <origin>  (86) 
autodockgpu

>  <m_score__min__energy>  (86) 
-8.7300000000000004

>  <m_primary>  (86) 
energy

>  <rmsd>  (86) 
8.733393822402435

>  <m_score__min__rmsd>  (86) 
8.733393822402435

>  <meeko>  (86) 
{"free_energy": -8.16, "intermolecular_energy": -9.65, "internal_energy": -1.94, "cluster_size": 28, "cluster_id": 2, "rank_in_cluster": 21}

>  <energy>  (86) 
-8.26

>  <cluster_rmsd>  (86) 
1.11

>  <cluster>  (86) 
2

$$$$

     RDKit          3D

 45 48  0  0  0  0  0  0  0  0999 V2000
  137.1540   76.1100  222.0610 O   0  0  0  0  0  0  0  0  0  0  0  0
  138.4170   76.1920  222.2440 C   0  0  0  0  0  0  0  0  0  0  0  0
  139.2740   75.0720  222.0600 N   0  0  0  0  0  0  0  0  0  0  0  0
  138.7590   73.7600  221.6490 C   0  0  0  0  0  0  0  0  0  0  0  0
  139.5610   72.7400  222.3160 C   0  0  0  0  0  0  0  0  0  0  0  0
  140.7540   73.0410  222.6630 O   0  0  0  0  0  0  0  0  0  0  0  0
  139.1450   71.4240  222.6230 N   0  0  0  0  0  0  0  0  0  0  0  0
  139.4450   70.1280  222.0010 C   0  0  0  0  0  0  0  0  0  0  0  0
  138.1620   69.5460  222.5740 C   0  0  0  0  0  0  0  0  0  0  0  0
  138.3190   70.6910  223.5620 C   0  0  1  0  0  0  0  0  0  0  0  0
  139.0150   70.1640  224.7670 C   0  0  0  0  0  0  0  0  0  0  0  0
  139.9420   70.8830  225.4830 C   0  0  0  0  0  0  0  0  0  0  0  0
  140.5780   70.3770  226.6140 C   0  0  0  0  0  0  0  0  0  0  0  0
  140.2910   69.1050  227.0640 C   0  0  0  0  0  0  0  0  0  0  0  0
  141.0960   68.4790  228.4870 Cl  0  0  0  0  0  0  0  0  0  0  0  0
  139.3640   68.3650  226.3610 C   0  0  0  0  0  0  0  0  0  0  0  0
  138.7420   68.8800  225.2410 C   0  0  0  0  0  0  0  0  0  0  0  0
  139.0200   77.4780  222.6590 C   0  0  0  0  0  0  0  0  0  0  0  0
  138.1600   78.5170  223.0260 C   0  0  0  0  0  0  0  0  0  0  0  0
  138.6930   79.7250  223.4180 C   0  0  0  0  0  0  0  0  0  0  0  0
  140.0610   79.8960  223.4430 C   0  0  0  0  0  0  0  0  0  0  0  0
  140.6630   81.0650  223.8210 C   0  0  0  0  0  0  0  0  0  0  0  0
  142.0150   81.2210  223.8410 C   0  0  0  0  0  0  0  0  0  0  0  0
  142.5760   82.4030  224.2230 F   0  0  0  0  0  0  0  0  0  0  0  0
  142.8240   80.1630  223.4700 C   0  0  0  0  0  0  0  0  0  0  0  0
  142.2110   78.9940  223.0930 C   0  0  0  0  0  0  0  0  0  0  0  0
  140.8380   78.8250  223.0680 C   0  0  0  0  0  0  0  0  0  0  0  0
  140.3410   77.6370  222.6830 N   0  0  0  0  0  0  0  0  0  0  0  0
  140.3090   75.2210  222.2310 H   0  0  0  0  0  0  0  0  0  0  0  0
  137.7046   73.6614  221.9466 H   0  0  0  0  0  0  0  0  0  0  0  0
  138.8219   73.6463  220.5567 H   0  0  0  0  0  0  0  0  0  0  0  0
  139.4727   70.1547  220.9017 H   0  0  0  0  0  0  0  0  0  0  0  0
  140.4096   69.6337  222.1888 H   0  0  0  0  0  0  0  0  0  0  0  0
  137.2798   69.5981  221.9190 H   0  0  0  0  0  0  0  0  0  0  0  0
  138.0330   68.4920  222.8612 H   0  0  0  0  0  0  0  0  0  0  0  0
  137.4721   71.2363  224.0041 H   0  0  0  0  0  0  0  0  0  0  0  0
  140.1921   71.9007  225.1488 H   0  0  0  0  0  0  0  0  0  0  0  0
  141.3128   70.9947  227.1511 H   0  0  0  0  0  0  0  0  0  0  0  0
  139.1159   67.3477  226.6979 H   0  0  0  0  0  0  0  0  0  0  0  0
  138.0086   68.2590  224.7057 H   0  0  0  0  0  0  0  0  0  0  0  0
  137.0699   78.3715  223.0020 H   0  0  0  0  0  0  0  0  0  0  0  0
  138.0288   80.5516  223.7105 H   0  0  0  0  0  0  0  0  0  0  0  0
  140.0291   81.9126  224.1207 H   0  0  0  0  0  0  0  0  0  0  0  0
  143.9202   80.2547  223.4767 H   0  0  0  0  0  0  0  0  0  0  0  0
  142.8453   78.1462  222.7948 H   0  0  0  0  0  0  0  0  0  0  0  0
  1  2  2  0
  2  3  1  0
  3  4  1  0
  4  5  1  0
  5  6  2  0
  5  7  1  0
  7  8  1  0
  8  9  1  0
  9 10  1  0
 10 11  1  0
 11 12  2  0
 12 13  1  0
 13 14  2  0
 14 15  1  0
 14 16  1  0
 16 17  2  0
  2 18  1  0
 18 19  2  0
 19 20  1  0
 20 21  2  0
 21 22  1  0
 22 23  2  0
 23 24  1  0
 23 25  1  0
 25 26  2  0
 26 27  1  0
 27 28  2  0
 10  7  1  0
 17 11  1  0
 28 18  1  0
 27 21  1  0
  3 29  1  0
  4 30  1  0
  4 31  1  0
  8 32  1  0
  8 33  1  0
  9 34  1  0
  9 35  1  0
 10 36  1  1
 12 37  1  0
 13 38  1  0
 16 39  1  0
 17 40  1  0
 19 41  1  0
 20 42  1  0
 22 43  1  0
 25 44  1  0
 26 45  1  0
M  END
>  <smiles>  (87) 
O=C(NCC(=O)N1CCC1c1ccc(Cl)cc1)c1ccc2cc(F)ccc2n1

>  <score_type>  (87) 
oracle

>  <origin>  (87) 
autodockgpu

>  <m_score__min__energy>  (87) 
-8.7300000000000004

>  <m_primary>  (87) 
energy

>  <rmsd>  (87) 
8.619004285123303

>  <m_score__min__rmsd>  (87) 
8.619004285123303

>  <meeko>  (87) 
{"free_energy": -8.32, "intermolecular_energy": -9.81, "internal_energy": -1.87, "cluster_size": 28, "cluster_id": 2, "rank_in_cluster": 3}

>  <energy>  (87) 
-8.24

>  <cluster_rmsd>  (87) 
1.28

>  <cluster>  (87) 
2

$$$$

     RDKit          3D

 45 48  0  0  0  0  0  0  0  0999 V2000
  139.9710   70.9650  221.0500 O   0  0  0  0  0  0  0  0  0  0  0  0
  139.8360   71.5640  222.1720 C   0  0  0  0  0  0  0  0  0  0  0  0
  139.6780   72.9750  222.2520 N   0  0  0  0  0  0  0  0  0  0  0  0
  139.6620   73.8230  221.0530 C   0  0  0  0  0  0  0  0  0  0  0  0
  139.4910   75.2050  221.4900 C   0  0  0  0  0  0  0  0  0  0  0  0
  138.9280   75.4170  222.6180 O   0  0  0  0  0  0  0  0  0  0  0  0
  139.8910   76.3580  220.7760 N   0  0  0  0  0  0  0  0  0  0  0  0
  139.1270   77.3670  220.0300 C   0  0  0  0  0  0  0  0  0  0  0  0
  140.3640   77.7120  219.2150 C   0  0  0  0  0  0  0  0  0  0  0  0
  141.0780   77.1040  220.4110 C   0  0  1  0  0  0  0  0  0  0  0  0
  141.4580   78.2120  221.3290 C   0  0  0  0  0  0  0  0  0  0  0  0
  141.8610   79.4530  220.8960 C   0  0  0  0  0  0  0  0  0  0  0  0
  142.2050   80.4810  221.7700 C   0  0  0  0  0  0  0  0  0  0  0  0
  142.1500   80.2830  223.1340 C   0  0  0  0  0  0  0  0  0  0  0  0
  142.5840   81.5830  224.2240 Cl  0  0  0  0  0  0  0  0  0  0  0  0
  141.7480   79.0460  223.5920 C   0  0  0  0  0  0  0  0  0  0  0  0
  141.4110   78.0360  222.7130 C   0  0  0  0  0  0  0  0  0  0  0  0
  139.8400   70.7850  223.4300 C   0  0  0  0  0  0  0  0  0  0  0  0
  139.3060   69.4930  223.4030 C   0  0  0  0  0  0  0  0  0  0  0  0
  139.2980   68.7440  224.5590 C   0  0  0  0  0  0  0  0  0  0  0  0
  139.8120   69.2740  225.7230 C   0  0  0  0  0  0  0  0  0  0  0  0
  139.8390   68.5910  226.9090 C   0  0  0  0  0  0  0  0  0  0  0  0
  140.3500   69.1250  228.0520 C   0  0  0  0  0  0  0  0  0  0  0  0
  140.3570   68.4120  229.2130 F   0  0  0  0  0  0  0  0  0  0  0  0
  140.8670   70.4070  228.0270 C   0  0  0  0  0  0  0  0  0  0  0  0
  140.8370   71.0840  226.8340 C   0  0  0  0  0  0  0  0  0  0  0  0
  140.3190   70.5510  225.6670 C   0  0  0  0  0  0  0  0  0  0  0  0
  140.3390   71.3000  224.5510 N   0  0  0  0  0  0  0  0  0  0  0  0
  139.5700   73.3970  223.2180 H   0  0  0  0  0  0  0  0  0  0  0  0
  140.6108   73.7174  220.5066 H   0  0  0  0  0  0  0  0  0  0  0  0
  138.8423   73.5266  220.3820 H   0  0  0  0  0  0  0  0  0  0  0  0
  138.2997   76.9529  219.4350 H   0  0  0  0  0  0  0  0  0  0  0  0
  138.5790   78.1556  220.5664 H   0  0  0  0  0  0  0  0  0  0  0  0
  140.4766   77.1690  218.2650 H   0  0  0  0  0  0  0  0  0  0  0  0
  140.5788   78.7103  218.8059 H   0  0  0  0  0  0  0  0  0  0  0  0
  142.0153   76.5331  220.3368 H   0  0  0  0  0  0  0  0  0  0  0  0
  141.9139   79.6418  219.8136 H   0  0  0  0  0  0  0  0  0  0  0  0
  142.5222   81.4557  221.3708 H   0  0  0  0  0  0  0  0  0  0  0  0
  141.6950   78.8609  224.6750 H   0  0  0  0  0  0  0  0  0  0  0  0
  141.0956   77.0622  223.1159 H   0  0  0  0  0  0  0  0  0  0  0  0
  138.8970   69.0795  222.4693 H   0  0  0  0  0  0  0  0  0  0  0  0
  138.8825   67.7255  224.5533 H   0  0  0  0  0  0  0  0  0  0  0  0
  139.4314   67.5698  226.9396 H   0  0  0  0  0  0  0  0  0  0  0  0
  141.2880   70.8684  228.9325 H   0  0  0  0  0  0  0  0  0  0  0  0
  141.2464   72.1045  226.8037 H   0  0  0  0  0  0  0  0  0  0  0  0
  1  2  2  0
  2  3  1  0
  3  4  1  0
  4  5  1  0
  5  6  2  0
  5  7  1  0
  7  8  1  0
  8  9  1  0
  9 10  1  0
 10 11  1  0
 11 12  2  0
 12 13  1  0
 13 14  2  0
 14 15  1  0
 14 16  1  0
 16 17  2  0
  2 18  1  0
 18 19  2  0
 19 20  1  0
 20 21  2  0
 21 22  1  0
 22 23  2  0
 23 24  1  0
 23 25  1  0
 25 26  2  0
 26 27  1  0
 27 28  2  0
 10  7  1  0
 17 11  1  0
 28 18  1  0
 27 21  1  0
  3 29  1  0
  4 30  1  0
  4 31  1  0
  8 32  1  0
  8 33  1  0
  9 34  1  0
  9 35  1  0
 10 36  1  6
 12 37  1  0
 13 38  1  0
 16 39  1  0
 17 40  1  0
 19 41  1  0
 20 42  1  0
 22 43  1  0
 25 44  1  0
 26 45  1  0
M  END
>  <smiles>  (88) 
O=C(NCC(=O)N1CCC1c1ccc(Cl)cc1)c1ccc2cc(F)ccc2n1

>  <score_type>  (88) 
oracle

>  <origin>  (88) 
autodockgpu

>  <m_score__min__energy>  (88) 
-8.7300000000000004

>  <m_primary>  (88) 
energy

>  <rmsd>  (88) 
2.2012252255418634

>  <m_score__min__rmsd>  (88) 
2.2012252255418634

>  <meeko>  (88) 
{"free_energy": -8.4, "intermolecular_energy": -9.89, "internal_energy": -1.81, "cluster_size": 22, "cluster_id": 1, "rank_in_cluster": 17}

>  <energy>  (88) 
-8.23

>  <cluster_rmsd>  (88) 
1.27

>  <cluster>  (88) 
2

$$$$

     RDKit          3D

 45 48  0  0  0  0  0  0  0  0999 V2000
  136.9960   76.1650  222.1520 O   0  0  0  0  0  0  0  0  0  0  0  0
  138.2580   76.2230  222.3490 C   0  0  0  0  0  0  0  0  0  0  0  0
  139.0900   75.0770  222.2140 N   0  0  0  0  0  0  0  0  0  0  0  0
  138.5480   73.7640  221.8430 C   0  0  0  0  0  0  0  0  0  0  0  0
  139.5280   72.7550  222.2280 C   0  0  0  0  0  0  0  0  0  0  0  0
  140.7460   73.1170  222.3680 O   0  0  0  0  0  0  0  0  0  0  0  0
  139.2630   71.3860  222.4660 N   0  0  0  0  0  0  0  0  0  0  0  0
  139.7950   70.1610  221.8550 C   0  0  0  0  0  0  0  0  0  0  0  0
  138.5490   69.3980  222.2800 C   0  0  0  0  0  0  0  0  0  0  0  0
  138.4510   70.5220  223.2990 C   0  0  1  0  0  0  0  0  0  0  0  0
  139.0850   70.0520  224.5610 C   0  0  0  0  0  0  0  0  0  0  0  0
  139.8790   70.8470  225.3530 C   0  0  0  0  0  0  0  0  0  0  0  0
  140.4580   70.3930  226.5360 C   0  0  0  0  0  0  0  0  0  0  0  0
  140.2480   69.0990  226.9610 C   0  0  0  0  0  0  0  0  0  0  0  0
  140.9810   68.5390  228.4500 Cl  0  0  0  0  0  0  0  0  0  0  0  0
  139.4550   68.2820  226.1830 C   0  0  0  0  0  0  0  0  0  0  0  0
  138.8890   68.7460  225.0120 C   0  0  0  0  0  0  0  0  0  0  0  0
  138.8870   77.5070  222.7270 C   0  0  0  0  0  0  0  0  0  0  0  0
  138.0490   78.5960  222.9880 C   0  0  0  0  0  0  0  0  0  0  0  0
  138.6070   79.8040  223.3440 C   0  0  0  0  0  0  0  0  0  0  0  0
  139.9770   79.9270  223.4360 C   0  0  0  0  0  0  0  0  0  0  0  0
  140.6040   81.0930  223.7830 C   0  0  0  0  0  0  0  0  0  0  0  0
  141.9570   81.2020  223.8720 C   0  0  0  0  0  0  0  0  0  0  0  0
  142.5420   82.3820  224.2200 F   0  0  0  0  0  0  0  0  0  0  0  0
  142.7430   80.0950  223.6040 C   0  0  0  0  0  0  0  0  0  0  0  0
  142.1070   78.9300  223.2580 C   0  0  0  0  0  0  0  0  0  0  0  0
  140.7310   78.8100  223.1640 C   0  0  0  0  0  0  0  0  0  0  0  0
  140.2100   77.6200  222.8170 N   0  0  0  0  0  0  0  0  0  0  0  0
  140.1260   75.2070  222.3940 H   0  0  0  0  0  0  0  0  0  0  0  0
  137.6001   73.5868  222.3723 H   0  0  0  0  0  0  0  0  0  0  0  0
  138.3534   73.7192  220.7613 H   0  0  0  0  0  0  0  0  0  0  0  0
  139.9302   70.2263  220.7653 H   0  0  0  0  0  0  0  0  0  0  0  0
  140.7929   69.7913  222.1335 H   0  0  0  0  0  0  0  0  0  0  0  0
  137.7388   69.3549  221.5372 H   0  0  0  0  0  0  0  0  0  0  0  0
  138.5330   68.3277  222.5333 H   0  0  0  0  0  0  0  0  0  0  0  0
  137.4985   70.9379  223.6591 H   0  0  0  0  0  0  0  0  0  0  0  0
  140.0649   71.8849  225.0396 H   0  0  0  0  0  0  0  0  0  0  0  0
  141.0856   71.0705  227.1336 H   0  0  0  0  0  0  0  0  0  0  0  0
  139.2705   67.2450  226.5000 H   0  0  0  0  0  0  0  0  0  0  0  0
  138.2640   68.0648  224.4159 H   0  0  0  0  0  0  0  0  0  0  0  0
  136.9570   78.4890  222.9099 H   0  0  0  0  0  0  0  0  0  0  0  0
  137.9607   80.6689  223.5545 H   0  0  0  0  0  0  0  0  0  0  0  0
  139.9884   81.9787  223.9989 H   0  0  0  0  0  0  0  0  0  0  0  0
  143.8400   80.1475  223.6663 H   0  0  0  0  0  0  0  0  0  0  0  0
  142.7229   78.0441  223.0438 H   0  0  0  0  0  0  0  0  0  0  0  0
  1  2  2  0
  2  3  1  0
  3  4  1  0
  4  5  1  0
  5  6  2  0
  5  7  1  0
  7  8  1  0
  8  9  1  0
  9 10  1  0
 10 11  1  0
 11 12  2  0
 12 13  1  0
 13 14  2  0
 14 15  1  0
 14 16  1  0
 16 17  2  0
  2 18  1  0
 18 19  2  0
 19 20  1  0
 20 21  2  0
 21 22  1  0
 22 23  2  0
 23 24  1  0
 23 25  1  0
 25 26  2  0
 26 27  1  0
 27 28  2  0
 10  7  1  0
 17 11  1  0
 28 18  1  0
 27 21  1  0
  3 29  1  0
  4 30  1  0
  4 31  1  0
  8 32  1  0
  8 33  1  0
  9 34  1  0
  9 35  1  0
 10 36  1  1
 12 37  1  0
 13 38  1  0
 16 39  1  0
 17 40  1  0
 19 41  1  0
 20 42  1  0
 22 43  1  0
 25 44  1  0
 26 45  1  0
M  END
>  <smiles>  (89) 
O=C(NCC(=O)N1CCC1c1ccc(Cl)cc1)c1ccc2cc(F)ccc2n1

>  <score_type>  (89) 
oracle

>  <origin>  (89) 
autodockgpu

>  <m_score__min__energy>  (89) 
-8.7300000000000004

>  <m_primary>  (89) 
energy

>  <rmsd>  (89) 
8.601326970893945

>  <m_score__min__rmsd>  (89) 
8.601326970893945

>  <meeko>  (89) 
{"free_energy": -8.14, "intermolecular_energy": -9.63, "internal_energy": -1.96, "cluster_size": 28, "cluster_id": 2, "rank_in_cluster": 23}

>  <energy>  (89) 
-8.21

>  <cluster_rmsd>  (89) 
1.27

>  <cluster>  (89) 
2

$$$$

     RDKit          3D

 45 48  0  0  0  0  0  0  0  0999 V2000
  139.7990   70.9590  221.0690 O   0  0  0  0  0  0  0  0  0  0  0  0
  139.6940   71.5430  222.2010 C   0  0  0  0  0  0  0  0  0  0  0  0
  139.5440   72.9540  222.3040 N   0  0  0  0  0  0  0  0  0  0  0  0
  139.5010   73.8180  221.1180 C   0  0  0  0  0  0  0  0  0  0  0  0
  139.4750   75.2020  221.5790 C   0  0  0  0  0  0  0  0  0  0  0  0
  139.0150   75.4420  222.7470 O   0  0  0  0  0  0  0  0  0  0  0  0
  139.9150   76.3300  220.8480 N   0  0  0  0  0  0  0  0  0  0  0  0
  139.1920   77.3190  220.0370 C   0  0  0  0  0  0  0  0  0  0  0  0
  140.4670   77.6320  219.2680 C   0  0  0  0  0  0  0  0  0  0  0  0
  141.1230   77.0570  220.5130 C   0  0  1  0  0  0  0  0  0  0  0  0
  141.4700   78.1910  221.4120 C   0  0  0  0  0  0  0  0  0  0  0  0
  141.8400   79.4340  220.9580 C   0  0  0  0  0  0  0  0  0  0  0  0
  142.1520   80.4870  221.8150 C   0  0  0  0  0  0  0  0  0  0  0  0
  142.0990   80.3120  223.1820 C   0  0  0  0  0  0  0  0  0  0  0  0
  142.4940   81.6420  224.2490 Cl  0  0  0  0  0  0  0  0  0  0  0  0
  141.7310   79.0730  223.6610 C   0  0  0  0  0  0  0  0  0  0  0  0
  141.4240   78.0380  222.7990 C   0  0  0  0  0  0  0  0  0  0  0  0
  139.7270   70.7470  223.4490 C   0  0  0  0  0  0  0  0  0  0  0  0
  139.1830   69.4600  223.4190 C   0  0  0  0  0  0  0  0  0  0  0  0
  139.2010   68.6950  224.5650 C   0  0  0  0  0  0  0  0  0  0  0  0
  139.7510   69.2050  225.7210 C   0  0  0  0  0  0  0  0  0  0  0  0
  139.8060   68.5070  226.8970 C   0  0  0  0  0  0  0  0  0  0  0  0
  140.3520   69.0210  228.0320 C   0  0  0  0  0  0  0  0  0  0  0  0
  140.3860   68.2920  229.1830 F   0  0  0  0  0  0  0  0  0  0  0  0
  140.8780   70.3000  228.0100 C   0  0  0  0  0  0  0  0  0  0  0  0
  140.8200   70.9930  226.8270 C   0  0  0  0  0  0  0  0  0  0  0  0
  140.2660   70.4790  225.6680 C   0  0  0  0  0  0  0  0  0  0  0  0
  140.2610   71.2430  224.5620 N   0  0  0  0  0  0  0  0  0  0  0  0
  139.4630   73.3630  223.2790 H   0  0  0  0  0  0  0  0  0  0  0  0
  140.3926   73.6466  220.4969 H   0  0  0  0  0  0  0  0  0  0  0  0
  138.6101   73.5967  220.5119 H   0  0  0  0  0  0  0  0  0  0  0  0
  138.3896   76.8906  219.4185 H   0  0  0  0  0  0  0  0  0  0  0  0
  138.6257   78.1270  220.5233 H   0  0  0  0  0  0  0  0  0  0  0  0
  140.6181   77.0594  218.3410 H   0  0  0  0  0  0  0  0  0  0  0  0
  140.7067   78.6161  218.8389 H   0  0  0  0  0  0  0  0  0  0  0  0
  142.0583   76.4782  220.4982 H   0  0  0  0  0  0  0  0  0  0  0  0
  141.8920   79.6047  219.8726 H   0  0  0  0  0  0  0  0  0  0  0  0
  142.4421   81.4632  221.3992 H   0  0  0  0  0  0  0  0  0  0  0  0
  141.6810   78.9057  224.7470 H   0  0  0  0  0  0  0  0  0  0  0  0
  141.1343   77.0632  223.2184 H   0  0  0  0  0  0  0  0  0  0  0  0
  138.7455   69.0623  222.4914 H   0  0  0  0  0  0  0  0  0  0  0  0
  138.7774   67.6799  224.5571 H   0  0  0  0  0  0  0  0  0  0  0  0
  139.3916   67.4884  226.9256 H   0  0  0  0  0  0  0  0  0  0  0  0
  141.3272   70.7462  228.9095 H   0  0  0  0  0  0  0  0  0  0  0  0
  141.2359   72.0109  226.7986 H   0  0  0  0  0  0  0  0  0  0  0  0
  1  2  2  0
  2  3  1  0
  3  4  1  0
  4  5  1  0
  5  6  2  0
  5  7  1  0
  7  8  1  0
  8  9  1  0
  9 10  1  0
 10 11  1  0
 11 12  2  0
 12 13  1  0
 13 14  2  0
 14 15  1  0
 14 16  1  0
 16 17  2  0
  2 18  1  0
 18 19  2  0
 19 20  1  0
 20 21  2  0
 21 22  1  0
 22 23  2  0
 23 24  1  0
 23 25  1  0
 25 26  2  0
 26 27  1  0
 27 28  2  0
 10  7  1  0
 17 11  1  0
 28 18  1  0
 27 21  1  0
  3 29  1  0
  4 30  1  0
  4 31  1  0
  8 32  1  0
  8 33  1  0
  9 34  1  0
  9 35  1  0
 10 36  1  6
 12 37  1  0
 13 38  1  0
 16 39  1  0
 17 40  1  0
 19 41  1  0
 20 42  1  0
 22 43  1  0
 25 44  1  0
 26 45  1  0
M  END
>  <smiles>  (90) 
O=C(NCC(=O)N1CCC1c1ccc(Cl)cc1)c1ccc2cc(F)ccc2n1

>  <score_type>  (90) 
oracle

>  <origin>  (90) 
autodockgpu

>  <m_score__min__energy>  (90) 
-8.7300000000000004

>  <m_primary>  (90) 
energy

>  <rmsd>  (90) 
2.178435502765153

>  <m_score__min__rmsd>  (90) 
2.178435502765153

>  <meeko>  (90) 
{"free_energy": -8.48, "intermolecular_energy": -9.97, "internal_energy": -1.81, "cluster_size": 22, "cluster_id": 1, "rank_in_cluster": 13}

>  <energy>  (90) 
-8.21

>  <cluster_rmsd>  (90) 
1.29

>  <cluster>  (90) 
2

$$$$

     RDKit          3D

 45 48  0  0  0  0  0  0  0  0999 V2000
  140.6030   74.0590  220.2990 O   0  0  0  0  0  0  0  0  0  0  0  0
  140.1300   74.8050  221.2230 C   0  0  0  0  0  0  0  0  0  0  0  0
  139.1020   74.3550  222.0970 N   0  0  0  0  0  0  0  0  0  0  0  0
  138.5270   73.0080  221.9880 C   0  0  0  0  0  0  0  0  0  0  0  0
  139.4250   72.0860  222.6730 C   0  0  0  0  0  0  0  0  0  0  0  0
  140.5880   72.5040  223.0000 O   0  0  0  0  0  0  0  0  0  0  0  0
  139.1350   70.7450  223.0190 N   0  0  0  0  0  0  0  0  0  0  0  0
  139.5430   69.4660  222.4230 C   0  0  0  0  0  0  0  0  0  0  0  0
  138.3260   68.7860  223.0330 C   0  0  0  0  0  0  0  0  0  0  0  0
  138.3930   69.9650  223.9900 C   0  0  1  0  0  0  0  0  0  0  0  0
  139.1530   69.5340  225.1950 C   0  0  0  0  0  0  0  0  0  0  0  0
  139.9480   70.3780  225.9320 C   0  0  0  0  0  0  0  0  0  0  0  0
  140.6450   69.9600  227.0630 C   0  0  0  0  0  0  0  0  0  0  0  0
  140.5580   68.6520  227.4900 C   0  0  0  0  0  0  0  0  0  0  0  0
  141.4390   68.1360  228.9130 Cl  0  0  0  0  0  0  0  0  0  0  0  0
  139.7660   67.7860  226.7660 C   0  0  0  0  0  0  0  0  0  0  0  0
  139.0810   68.2150  225.6460 C   0  0  0  0  0  0  0  0  0  0  0  0
  140.6530   76.1780  221.4030 C   0  0  0  0  0  0  0  0  0  0  0  0
  141.5620   76.6620  220.4570 C   0  0  0  0  0  0  0  0  0  0  0  0
  142.0650   77.9360  220.5980 C   0  0  0  0  0  0  0  0  0  0  0  0
  141.6700   78.7160  221.6640 C   0  0  0  0  0  0  0  0  0  0  0  0
  142.1250   79.9900  221.8710 C   0  0  0  0  0  0  0  0  0  0  0  0
  141.7270   80.7500  222.9270 C   0  0  0  0  0  0  0  0  0  0  0  0
  142.2060   82.0150  223.0980 F   0  0  0  0  0  0  0  0  0  0  0  0
  140.8250   80.2260  223.8350 C   0  0  0  0  0  0  0  0  0  0  0  0
  140.3730   78.9480  223.6200 C   0  0  0  0  0  0  0  0  0  0  0  0
  140.7720   78.1670  222.5500 C   0  0  0  0  0  0  0  0  0  0  0  0
  140.2670   76.9270  222.4320 N   0  0  0  0  0  0  0  0  0  0  0  0
  138.7630   75.0330  222.8370 H   0  0  0  0  0  0  0  0  0  0  0  0
  137.5342   72.9850  222.4612 H   0  0  0  0  0  0  0  0  0  0  0  0
  138.4133   72.7219  220.9320 H   0  0  0  0  0  0  0  0  0  0  0  0
  139.5516   69.4667  221.3230 H   0  0  0  0  0  0  0  0  0  0  0  0
  140.5513   69.0659  222.6052 H   0  0  0  0  0  0  0  0  0  0  0  0
  137.4330   68.7415  222.3923 H   0  0  0  0  0  0  0  0  0  0  0  0
  138.2975   67.7325  223.3482 H   0  0  0  0  0  0  0  0  0  0  0  0
  137.5069   70.4425  224.4336 H   0  0  0  0  0  0  0  0  0  0  0  0
  140.0378   71.4277  225.6156 H   0  0  0  0  0  0  0  0  0  0  0  0
  141.2678   70.6768  227.6182 H   0  0  0  0  0  0  0  0  0  0  0  0
  139.6784   66.7371  227.0854 H   0  0  0  0  0  0  0  0  0  0  0  0
  138.4598   67.4953  225.0926 H   0  0  0  0  0  0  0  0  0  0  0  0
  141.8716   76.0322  219.6100 H   0  0  0  0  0  0  0  0  0  0  0  0
  142.7806   78.3306  219.8616 H   0  0  0  0  0  0  0  0  0  0  0  0
  142.8419   80.4170  221.1542 H   0  0  0  0  0  0  0  0  0  0  0  0
  140.4817   80.8131  224.6996 H   0  0  0  0  0  0  0  0  0  0  0  0
  139.6553   78.5220  224.3366 H   0  0  0  0  0  0  0  0  0  0  0  0
  1  2  2  0
  2  3  1  0
  3  4  1  0
  4  5  1  0
  5  6  2  0
  5  7  1  0
  7  8  1  0
  8  9  1  0
  9 10  1  0
 10 11  1  0
 11 12  2  0
 12 13  1  0
 13 14  2  0
 14 15  1  0
 14 16  1  0
 16 17  2  0
  2 18  1  0
 18 19  2  0
 19 20  1  0
 20 21  2  0
 21 22  1  0
 22 23  2  0
 23 24  1  0
 23 25  1  0
 25 26  2  0
 26 27  1  0
 27 28  2  0
 10  7  1  0
 17 11  1  0
 28 18  1  0
 27 21  1  0
  3 29  1  0
  4 30  1  0
  4 31  1  0
  8 32  1  0
  8 33  1  0
  9 34  1  0
  9 35  1  0
 10 36  1  1
 12 37  1  0
 13 38  1  0
 16 39  1  0
 17 40  1  0
 19 41  1  0
 20 42  1  0
 22 43  1  0
 25 44  1  0
 26 45  1  0
M  END
>  <smiles>  (91) 
O=C(NCC(=O)N1CCC1c1ccc(Cl)cc1)c1ccc2cc(F)ccc2n1

>  <score_type>  (91) 
oracle

>  <origin>  (91) 
autodockgpu

>  <m_score__min__energy>  (91) 
-8.7300000000000004

>  <m_primary>  (91) 
energy

>  <rmsd>  (91) 
8.532162243788887

>  <m_score__min__rmsd>  (91) 
8.532162243788887

>  <meeko>  (91) 
{"free_energy": -8.33, "intermolecular_energy": -9.82, "internal_energy": -1.42, "cluster_size": 28, "cluster_id": 2, "rank_in_cluster": 2}

>  <energy>  (91) 
-8.2

>  <cluster_rmsd>  (91) 
1.29

>  <cluster>  (91) 
2

$$$$

     RDKit          3D

 45 48  0  0  0  0  0  0  0  0999 V2000
  137.9690   70.8190  221.9140 O   0  0  0  0  0  0  0  0  0  0  0  0
  138.7620   71.2740  222.8080 C   0  0  0  0  0  0  0  0  0  0  0  0
  139.3010   72.5880  222.7310 N   0  0  0  0  0  0  0  0  0  0  0  0
  138.9780   73.4950  221.6220 C   0  0  0  0  0  0  0  0  0  0  0  0
  139.9060   74.6190  221.6840 C   0  0  0  0  0  0  0  0  0  0  0  0
  141.0280   74.4450  222.2710 O   0  0  0  0  0  0  0  0  0  0  0  0
  139.6850   75.9100  221.1500 N   0  0  0  0  0  0  0  0  0  0  0  0
  138.4800   76.7450  221.0620 C   0  0  0  0  0  0  0  0  0  0  0  0
  139.0840   77.5070  219.8920 C   0  0  0  0  0  0  0  0  0  0  0  0
  140.3850   76.9910  220.4850 C   0  0  1  0  0  0  0  0  0  0  0  0
  140.9370   78.0510  221.3720 C   0  0  0  0  0  0  0  0  0  0  0  0
  141.3450   79.2830  220.9190 C   0  0  0  0  0  0  0  0  0  0  0  0
  141.8510   80.2670  221.7650 C   0  0  0  0  0  0  0  0  0  0  0  0
  141.9620   80.0310  223.1190 C   0  0  0  0  0  0  0  0  0  0  0  0
  142.5990   81.2750  224.1730 Cl  0  0  0  0  0  0  0  0  0  0  0  0
  141.5580   78.8020  223.5970 C   0  0  0  0  0  0  0  0  0  0  0  0
  141.0590   77.8360  222.7460 C   0  0  0  0  0  0  0  0  0  0  0  0
  139.1410   70.4270  223.9600 C   0  0  0  0  0  0  0  0  0  0  0  0
  138.8470   69.0610  223.8930 C   0  0  0  0  0  0  0  0  0  0  0  0
  139.1890   68.2470  224.9510 C   0  0  0  0  0  0  0  0  0  0  0  0
  139.8110   68.7850  226.0570 C   0  0  0  0  0  0  0  0  0  0  0  0
  140.1800   68.0410  227.1450 C   0  0  0  0  0  0  0  0  0  0  0  0
  140.7940   68.5830  228.2320 C   0  0  0  0  0  0  0  0  0  0  0  0
  141.1450   67.8070  229.2960 F   0  0  0  0  0  0  0  0  0  0  0  0
  141.0630   69.9400  228.2500 C   0  0  0  0  0  0  0  0  0  0  0  0
  140.6900   70.6780  227.1550 C   0  0  0  0  0  0  0  0  0  0  0  0
  140.0650   70.1360  226.0460 C   0  0  0  0  0  0  0  0  0  0  0  0
  139.7420   70.9500  225.0260 N   0  0  0  0  0  0  0  0  0  0  0  0
  139.9510   72.8920  223.5100 H   0  0  0  0  0  0  0  0  0  0  0  0
  139.0905   72.9687  220.6626 H   0  0  0  0  0  0  0  0  0  0  0  0
  137.9393   73.8479  221.7028 H   0  0  0  0  0  0  0  0  0  0  0  0
  137.5661   76.1874  220.8094 H   0  0  0  0  0  0  0  0  0  0  0  0
  138.1154   77.2868  221.9472 H   0  0  0  0  0  0  0  0  0  0  0  0
  138.8307   77.1254  218.8919 H   0  0  0  0  0  0  0  0  0  0  0  0
  138.8804   78.5648  219.6692 H   0  0  0  0  0  0  0  0  0  0  0  0
  141.2625   76.7137  219.8824 H   0  0  0  0  0  0  0  0  0  0  0  0
  141.2687   79.5009  219.8435 H   0  0  0  0  0  0  0  0  0  0  0  0
  142.1635   81.2370  221.3510 H   0  0  0  0  0  0  0  0  0  0  0  0
  141.6345   78.5880  224.6733 H   0  0  0  0  0  0  0  0  0  0  0  0
  140.7480   76.8670  223.1635 H   0  0  0  0  0  0  0  0  0  0  0  0
  138.3488   68.6417  223.0064 H   0  0  0  0  0  0  0  0  0  0  0  0
  138.9661   67.1705  224.9129 H   0  0  0  0  0  0  0  0  0  0  0  0
  139.9718   66.9609  227.1407 H   0  0  0  0  0  0  0  0  0  0  0  0
  141.5585   70.4108  229.1119 H   0  0  0  0  0  0  0  0  0  0  0  0
  140.8990   71.7580  227.1591 H   0  0  0  0  0  0  0  0  0  0  0  0
  1  2  2  0
  2  3  1  0
  3  4  1  0
  4  5  1  0
  5  6  2  0
  5  7  1  0
  7  8  1  0
  8  9  1  0
  9 10  1  0
 10 11  1  0
 11 12  2  0
 12 13  1  0
 13 14  2  0
 14 15  1  0
 14 16  1  0
 16 17  2  0
  2 18  1  0
 18 19  2  0
 19 20  1  0
 20 21  2  0
 21 22  1  0
 22 23  2  0
 23 24  1  0
 23 25  1  0
 25 26  2  0
 26 27  1  0
 27 28  2  0
 10  7  1  0
 17 11  1  0
 28 18  1  0
 27 21  1  0
  3 29  1  0
  4 30  1  0
  4 31  1  0
  8 32  1  0
  8 33  1  0
  9 34  1  0
  9 35  1  0
 10 36  1  6
 12 37  1  0
 13 38  1  0
 16 39  1  0
 17 40  1  0
 19 41  1  0
 20 42  1  0
 22 43  1  0
 25 44  1  0
 26 45  1  0
M  END
>  <smiles>  (92) 
O=C(NCC(=O)N1CCC1c1ccc(Cl)cc1)c1ccc2cc(F)ccc2n1

>  <score_type>  (92) 
oracle

>  <origin>  (92) 
autodockgpu

>  <m_score__min__energy>  (92) 
-8.7300000000000004

>  <m_primary>  (92) 
energy

>  <rmsd>  (92) 
2.1959506885223137

>  <m_score__min__rmsd>  (92) 
2.1959506885223137

>  <meeko>  (92) 
{"free_energy": -8.5, "intermolecular_energy": -9.99, "internal_energy": -1.83, "cluster_size": 22, "cluster_id": 1, "rank_in_cluster": 12}

>  <energy>  (92) 
-8.17

>  <cluster_rmsd>  (92) 
1.3

>  <cluster>  (92) 
2

$$$$

     RDKit          3D

 45 48  0  0  0  0  0  0  0  0999 V2000
  137.1880   76.1350  221.9470 O   0  0  0  0  0  0  0  0  0  0  0  0
  138.4410   76.2010  222.1960 C   0  0  0  0  0  0  0  0  0  0  0  0
  139.2900   75.0670  222.0700 N   0  0  0  0  0  0  0  0  0  0  0  0
  138.7760   73.7570  221.6490 C   0  0  0  0  0  0  0  0  0  0  0  0
  139.5640   72.7330  222.3280 C   0  0  0  0  0  0  0  0  0  0  0  0
  140.7440   73.0350  222.7140 O   0  0  0  0  0  0  0  0  0  0  0  0
  139.1460   71.4110  222.6060 N   0  0  0  0  0  0  0  0  0  0  0  0
  139.4630   70.1260  221.9720 C   0  0  0  0  0  0  0  0  0  0  0  0
  138.1700   69.5320  222.5090 C   0  0  0  0  0  0  0  0  0  0  0  0
  138.3020   70.6630  223.5160 C   0  0  1  0  0  0  0  0  0  0  0  0
  138.9740   70.1200  224.7280 C   0  0  0  0  0  0  0  0  0  0  0  0
  138.7510   68.8550  225.2170 C   0  0  0  0  0  0  0  0  0  0  0  0
  139.3960   68.3600  226.3490 C   0  0  0  0  0  0  0  0  0  0  0  0
  140.3020   69.1440  227.0320 C   0  0  0  0  0  0  0  0  0  0  0  0
  141.1070   68.5110  228.4530 Cl  0  0  0  0  0  0  0  0  0  0  0  0
  140.5420   70.4170  226.5600 C   0  0  0  0  0  0  0  0  0  0  0  0
  139.8950   70.8940  225.4370 C   0  0  0  0  0  0  0  0  0  0  0  0
  139.0410   77.4830  222.6270 C   0  0  0  0  0  0  0  0  0  0  0  0
  138.1780   78.5120  223.0160 C   0  0  0  0  0  0  0  0  0  0  0  0
  138.7080   79.7170  223.4230 C   0  0  0  0  0  0  0  0  0  0  0  0
  140.0750   79.8940  223.4410 C   0  0  0  0  0  0  0  0  0  0  0  0
  140.6750   81.0600  223.8330 C   0  0  0  0  0  0  0  0  0  0  0  0
  142.0260   81.2220  223.8470 C   0  0  0  0  0  0  0  0  0  0  0  0
  142.5840   82.4010  224.2430 F   0  0  0  0  0  0  0  0  0  0  0  0
  142.8370   80.1730  223.4530 C   0  0  0  0  0  0  0  0  0  0  0  0
  142.2280   79.0080  223.0630 C   0  0  0  0  0  0  0  0  0  0  0  0
  140.8550   78.8330  223.0450 C   0  0  0  0  0  0  0  0  0  0  0  0
  140.3610   77.6480  222.6450 N   0  0  0  0  0  0  0  0  0  0  0  0
  140.3160   75.2030  222.2950 H   0  0  0  0  0  0  0  0  0  0  0  0
  137.7167   73.6622  221.9297 H   0  0  0  0  0  0  0  0  0  0  0  0
  138.8554   73.6442  220.5577 H   0  0  0  0  0  0  0  0  0  0  0  0
  139.5140   70.1689  220.8740 H   0  0  0  0  0  0  0  0  0  0  0  0
  140.4249   69.6317  222.1730 H   0  0  0  0  0  0  0  0  0  0  0  0
  137.3019   69.5908  221.8360 H   0  0  0  0  0  0  0  0  0  0  0  0
  138.0383   68.4737  222.7784 H   0  0  0  0  0  0  0  0  0  0  0  0
  137.4442   71.1998  223.9473 H   0  0  0  0  0  0  0  0  0  0  0  0
  138.0336   68.2063  224.6931 H   0  0  0  0  0  0  0  0  0  0  0  0
  139.1815   67.3395  226.6992 H   0  0  0  0  0  0  0  0  0  0  0  0
  141.2602   71.0630  227.0862 H   0  0  0  0  0  0  0  0  0  0  0  0
  140.1119   71.9152  225.0903 H   0  0  0  0  0  0  0  0  0  0  0  0
  137.0885   78.3613  222.9973 H   0  0  0  0  0  0  0  0  0  0  0  0
  138.0419   80.5358  223.7328 H   0  0  0  0  0  0  0  0  0  0  0  0
  140.0394   81.9001  224.1495 H   0  0  0  0  0  0  0  0  0  0  0  0
  143.9327   80.2700  223.4526 H   0  0  0  0  0  0  0  0  0  0  0  0
  142.8643   78.1679  222.7477 H   0  0  0  0  0  0  0  0  0  0  0  0
  1  2  2  0
  2  3  1  0
  3  4  1  0
  4  5  1  0
  5  6  2  0
  5  7  1  0
  7  8  1  0
  8  9  1  0
  9 10  1  0
 10 11  1  0
 11 12  2  0
 12 13  1  0
 13 14  2  0
 14 15  1  0
 14 16  1  0
 16 17  2  0
  2 18  1  0
 18 19  2  0
 19 20  1  0
 20 21  2  0
 21 22  1  0
 22 23  2  0
 23 24  1  0
 23 25  1  0
 25 26  2  0
 26 27  1  0
 27 28  2  0
 10  7  1  0
 17 11  1  0
 28 18  1  0
 27 21  1  0
  3 29  1  0
  4 30  1  0
  4 31  1  0
  8 32  1  0
  8 33  1  0
  9 34  1  0
  9 35  1  0
 10 36  1  1
 12 37  1  0
 13 38  1  0
 16 39  1  0
 17 40  1  0
 19 41  1  0
 20 42  1  0
 22 43  1  0
 25 44  1  0
 26 45  1  0
M  END
>  <smiles>  (93) 
O=C(NCC(=O)N1CCC1c1ccc(Cl)cc1)c1ccc2cc(F)ccc2n1

>  <score_type>  (93) 
oracle

>  <origin>  (93) 
autodockgpu

>  <m_score__min__energy>  (93) 
-8.7300000000000004

>  <m_primary>  (93) 
energy

>  <rmsd>  (93) 
8.753789097224235

>  <m_score__min__rmsd>  (93) 
8.753789097224235

>  <meeko>  (93) 
{"free_energy": -8.28, "intermolecular_energy": -9.77, "internal_energy": -1.89, "cluster_size": 28, "cluster_id": 2, "rank_in_cluster": 10}

>  <energy>  (93) 
-8.16

>  <cluster_rmsd>  (93) 
1.28

>  <cluster>  (93) 
2

$$$$

     RDKit          3D

 45 48  0  0  0  0  0  0  0  0999 V2000
  137.1260   76.1200  222.0470 O   0  0  0  0  0  0  0  0  0  0  0  0
  138.3870   76.1930  222.2470 C   0  0  0  0  0  0  0  0  0  0  0  0
  139.2360   75.0630  222.0890 N   0  0  0  0  0  0  0  0  0  0  0  0
  138.7130   73.7500  221.6880 C   0  0  0  0  0  0  0  0  0  0  0  0
  139.5530   72.7310  222.3080 C   0  0  0  0  0  0  0  0  0  0  0  0
  140.7480   73.0470  222.6320 O   0  0  0  0  0  0  0  0  0  0  0  0
  139.1720   71.3990  222.5910 N   0  0  0  0  0  0  0  0  0  0  0  0
  139.5290   70.1200  221.9650 C   0  0  0  0  0  0  0  0  0  0  0  0
  138.2510   69.4920  222.4990 C   0  0  0  0  0  0  0  0  0  0  0  0
  138.3460   70.6310  223.5010 C   0  0  1  0  0  0  0  0  0  0  0  0
  139.0270   70.1140  224.7190 C   0  0  0  0  0  0  0  0  0  0  0  0
  139.9330   70.8450  225.4500 C   0  0  0  0  0  0  0  0  0  0  0  0
  140.5550   70.3480  226.5930 C   0  0  0  0  0  0  0  0  0  0  0  0
  140.2750   69.0730  227.0390 C   0  0  0  0  0  0  0  0  0  0  0  0
  141.0630   68.4590  228.4770 Cl  0  0  0  0  0  0  0  0  0  0  0  0
  139.3690   68.3210  226.3220 C   0  0  0  0  0  0  0  0  0  0  0  0
  138.7610   68.8270  225.1910 C   0  0  0  0  0  0  0  0  0  0  0  0
  138.9960   77.4780  222.6540 C   0  0  0  0  0  0  0  0  0  0  0  0
  138.1410   78.5370  222.9730 C   0  0  0  0  0  0  0  0  0  0  0  0
  138.6800   79.7450  223.3570 C   0  0  0  0  0  0  0  0  0  0  0  0
  140.0490   79.8970  223.4190 C   0  0  0  0  0  0  0  0  0  0  0  0
  140.6580   81.0650  223.7910 C   0  0  0  0  0  0  0  0  0  0  0  0
  142.0100   81.2020  223.8490 C   0  0  0  0  0  0  0  0  0  0  0  0
  142.5770   82.3840  224.2230 F   0  0  0  0  0  0  0  0  0  0  0  0
  142.8140   80.1250  223.5230 C   0  0  0  0  0  0  0  0  0  0  0  0
  142.1960   78.9570  223.1520 C   0  0  0  0  0  0  0  0  0  0  0  0
  140.8210   78.8080  223.0890 C   0  0  0  0  0  0  0  0  0  0  0  0
  140.3180   77.6190  222.7140 N   0  0  0  0  0  0  0  0  0  0  0  0
  140.2700   75.2040  222.2730 H   0  0  0  0  0  0  0  0  0  0  0  0
  137.6740   73.6394  222.0319 H   0  0  0  0  0  0  0  0  0  0  0  0
  138.7268   73.6473  220.5929 H   0  0  0  0  0  0  0  0  0  0  0  0
  139.5841   70.1588  220.8671 H   0  0  0  0  0  0  0  0  0  0  0  0
  140.5037   69.6545  222.1730 H   0  0  0  0  0  0  0  0  0  0  0  0
  137.3847   69.5228  221.8218 H   0  0  0  0  0  0  0  0  0  0  0  0
  138.1483   68.4316  222.7730 H   0  0  0  0  0  0  0  0  0  0  0  0
  137.4711   71.1448  223.9259 H   0  0  0  0  0  0  0  0  0  0  0  0
  140.1770   71.8651  225.1185 H   0  0  0  0  0  0  0  0  0  0  0  0
  141.2726   70.9750  227.1424 H   0  0  0  0  0  0  0  0  0  0  0  0
  139.1268   67.3015  226.6566 H   0  0  0  0  0  0  0  0  0  0  0  0
  138.0443   68.1966  224.6442 H   0  0  0  0  0  0  0  0  0  0  0  0
  137.0501   78.4070  222.9180 H   0  0  0  0  0  0  0  0  0  0  0  0
  138.0197   80.5866  223.6136 H   0  0  0  0  0  0  0  0  0  0  0  0
  140.0285   81.9279  224.0537 H   0  0  0  0  0  0  0  0  0  0  0  0
  143.9107   80.2018  223.5598 H   0  0  0  0  0  0  0  0  0  0  0  0
  142.8262   78.0940  222.8910 H   0  0  0  0  0  0  0  0  0  0  0  0
  1  2  2  0
  2  3  1  0
  3  4  1  0
  4  5  1  0
  5  6  2  0
  5  7  1  0
  7  8  1  0
  8  9  1  0
  9 10  1  0
 10 11  1  0
 11 12  2  0
 12 13  1  0
 13 14  2  0
 14 15  1  0
 14 16  1  0
 16 17  2  0
  2 18  1  0
 18 19  2  0
 19 20  1  0
 20 21  2  0
 21 22  1  0
 22 23  2  0
 23 24  1  0
 23 25  1  0
 25 26  2  0
 26 27  1  0
 27 28  2  0
 10  7  1  0
 17 11  1  0
 28 18  1  0
 27 21  1  0
  3 29  1  0
  4 30  1  0
  4 31  1  0
  8 32  1  0
  8 33  1  0
  9 34  1  0
  9 35  1  0
 10 36  1  1
 12 37  1  0
 13 38  1  0
 16 39  1  0
 17 40  1  0
 19 41  1  0
 20 42  1  0
 22 43  1  0
 25 44  1  0
 26 45  1  0
M  END
>  <smiles>  (94) 
O=C(NCC(=O)N1CCC1c1ccc(Cl)cc1)c1ccc2cc(F)ccc2n1

>  <score_type>  (94) 
oracle

>  <origin>  (94) 
autodockgpu

>  <m_score__min__energy>  (94) 
-8.7300000000000004

>  <m_primary>  (94) 
energy

>  <rmsd>  (94) 
8.613077596897899

>  <m_score__min__rmsd>  (94) 
8.613077596897899

>  <meeko>  (94) 
{"free_energy": -8.31, "intermolecular_energy": -9.8, "internal_energy": -1.9, "cluster_size": 28, "cluster_id": 2, "rank_in_cluster": 4}

>  <energy>  (94) 
-8.14

>  <cluster_rmsd>  (94) 
1.3

>  <cluster>  (94) 
2

$$$$

     RDKit          3D

 45 48  0  0  0  0  0  0  0  0999 V2000
  137.1110   76.1720  222.1010 O   0  0  0  0  0  0  0  0  0  0  0  0
  138.3700   76.2280  222.3120 C   0  0  0  0  0  0  0  0  0  0  0  0
  139.2040   75.0840  222.1720 N   0  0  0  0  0  0  0  0  0  0  0  0
  138.6670   73.7760  221.7780 C   0  0  0  0  0  0  0  0  0  0  0  0
  139.6160   72.7570  222.2140 C   0  0  0  0  0  0  0  0  0  0  0  0
  140.8340   73.1020  222.3910 O   0  0  0  0  0  0  0  0  0  0  0  0
  139.3190   71.3970  222.4650 N   0  0  0  0  0  0  0  0  0  0  0  0
  139.8100   70.1560  221.8540 C   0  0  0  0  0  0  0  0  0  0  0  0
  138.5520   69.4280  222.3040 C   0  0  0  0  0  0  0  0  0  0  0  0
  138.4990   70.5600  223.3180 C   0  0  1  0  0  0  0  0  0  0  0  0
  139.1420   70.0820  224.5720 C   0  0  0  0  0  0  0  0  0  0  0  0
  139.9370   70.8730  225.3660 C   0  0  0  0  0  0  0  0  0  0  0  0
  140.5240   70.4110  226.5420 C   0  0  0  0  0  0  0  0  0  0  0  0
  140.3210   69.1120  226.9580 C   0  0  0  0  0  0  0  0  0  0  0  0
  141.0640   68.5420  228.4370 Cl  0  0  0  0  0  0  0  0  0  0  0  0
  139.5270   68.2990  226.1770 C   0  0  0  0  0  0  0  0  0  0  0  0
  138.9530   68.7710  225.0130 C   0  0  0  0  0  0  0  0  0  0  0  0
  138.9950   77.5080  222.7130 C   0  0  0  0  0  0  0  0  0  0  0  0
  138.1520   78.5660  223.0660 C   0  0  0  0  0  0  0  0  0  0  0  0
  138.7060   79.7700  223.4450 C   0  0  0  0  0  0  0  0  0  0  0  0
  140.0760   79.9170  223.4700 C   0  0  0  0  0  0  0  0  0  0  0  0
  140.6990   81.0800  223.8350 C   0  0  0  0  0  0  0  0  0  0  0  0
  142.0520   81.2130  223.8570 C   0  0  0  0  0  0  0  0  0  0  0  0
  142.6330   82.3900  224.2250 F   0  0  0  0  0  0  0  0  0  0  0  0
  142.8430   80.1360  223.4990 C   0  0  0  0  0  0  0  0  0  0  0  0
  142.2110   78.9740  223.1350 C   0  0  0  0  0  0  0  0  0  0  0  0
  140.8350   78.8290  223.1100 C   0  0  0  0  0  0  0  0  0  0  0  0
  140.3190   77.6450  222.7380 N   0  0  0  0  0  0  0  0  0  0  0  0
  140.2380   75.2120  222.3650 H   0  0  0  0  0  0  0  0  0  0  0  0
  137.6921   73.6107  222.2599 H   0  0  0  0  0  0  0  0  0  0  0  0
  138.5261   73.7299  220.6880 H   0  0  0  0  0  0  0  0  0  0  0  0
  139.9293   70.2110  220.7619 H   0  0  0  0  0  0  0  0  0  0  0  0
  140.8026   69.7628  222.1188 H   0  0  0  0  0  0  0  0  0  0  0  0
  137.7290   69.4015  221.5746 H   0  0  0  0  0  0  0  0  0  0  0  0
  138.5130   68.3599  222.5642 H   0  0  0  0  0  0  0  0  0  0  0  0
  137.5636   71.0021  223.6917 H   0  0  0  0  0  0  0  0  0  0  0  0
  140.1174   71.9142  225.0604 H   0  0  0  0  0  0  0  0  0  0  0  0
  141.1525   71.0858  227.1417 H   0  0  0  0  0  0  0  0  0  0  0  0
  139.3480   67.2585  226.4859 H   0  0  0  0  0  0  0  0  0  0  0  0
  138.3272   68.0926  224.4145 H   0  0  0  0  0  0  0  0  0  0  0  0
  137.0596   78.4392  223.0416 H   0  0  0  0  0  0  0  0  0  0  0  0
  138.0560   80.6115  223.7269 H   0  0  0  0  0  0  0  0  0  0  0  0
  140.0796   81.9424  224.1223 H   0  0  0  0  0  0  0  0  0  0  0  0
  143.9406   80.2088  223.5059 H   0  0  0  0  0  0  0  0  0  0  0  0
  142.8309   78.1119  222.8478 H   0  0  0  0  0  0  0  0  0  0  0  0
  1  2  2  0
  2  3  1  0
  3  4  1  0
  4  5  1  0
  5  6  2  0
  5  7  1  0
  7  8  1  0
  8  9  1  0
  9 10  1  0
 10 11  1  0
 11 12  2  0
 12 13  1  0
 13 14  2  0
 14 15  1  0
 14 16  1  0
 16 17  2  0
  2 18  1  0
 18 19  2  0
 19 20  1  0
 20 21  2  0
 21 22  1  0
 22 23  2  0
 23 24  1  0
 23 25  1  0
 25 26  2  0
 26 27  1  0
 27 28  2  0
 10  7  1  0
 17 11  1  0
 28 18  1  0
 27 21  1  0
  3 29  1  0
  4 30  1  0
  4 31  1  0
  8 32  1  0
  8 33  1  0
  9 34  1  0
  9 35  1  0
 10 36  1  1
 12 37  1  0
 13 38  1  0
 16 39  1  0
 17 40  1  0
 19 41  1  0
 20 42  1  0
 22 43  1  0
 25 44  1  0
 26 45  1  0
M  END
>  <smiles>  (95) 
O=C(NCC(=O)N1CCC1c1ccc(Cl)cc1)c1ccc2cc(F)ccc2n1

>  <score_type>  (95) 
oracle

>  <origin>  (95) 
autodockgpu

>  <m_score__min__energy>  (95) 
-8.7300000000000004

>  <m_primary>  (95) 
energy

>  <rmsd>  (95) 
8.604860889756157

>  <m_score__min__rmsd>  (95) 
8.604860889756157

>  <meeko>  (95) 
{"free_energy": -8.27, "intermolecular_energy": -9.76, "internal_energy": -1.94, "cluster_size": 28, "cluster_id": 2, "rank_in_cluster": 13}

>  <energy>  (95) 
-8.14

>  <cluster_rmsd>  (95) 
1.3

>  <cluster>  (95) 
2

$$$$

     RDKit          3D

 45 48  0  0  0  0  0  0  0  0999 V2000
  137.9390   70.8340  221.8590 O   0  0  0  0  0  0  0  0  0  0  0  0
  138.7080   71.2980  222.7690 C   0  0  0  0  0  0  0  0  0  0  0  0
  139.2120   72.6270  222.7170 N   0  0  0  0  0  0  0  0  0  0  0  0
  138.8790   73.5410  221.6160 C   0  0  0  0  0  0  0  0  0  0  0  0
  139.9230   74.5570  221.5530 C   0  0  0  0  0  0  0  0  0  0  0  0
  141.0710   74.2770  222.0420 O   0  0  0  0  0  0  0  0  0  0  0  0
  139.7920   75.8500  220.9960 N   0  0  0  0  0  0  0  0  0  0  0  0
  138.6240   76.7130  220.7760 C   0  0  0  0  0  0  0  0  0  0  0  0
  139.3670   77.4550  219.6770 C   0  0  0  0  0  0  0  0  0  0  0  0
  140.5850   76.9110  220.4070 C   0  0  1  0  0  0  0  0  0  0  0  0
  141.0630   77.9630  221.3450 C   0  0  0  0  0  0  0  0  0  0  0  0
  141.0680   77.8150  222.7120 C   0  0  0  0  0  0  0  0  0  0  0  0
  141.5280   78.8070  223.5750 C   0  0  0  0  0  0  0  0  0  0  0  0
  142.0040   80.0000  223.0740 C   0  0  0  0  0  0  0  0  0  0  0  0
  142.5790   81.2400  224.1680 Cl  0  0  0  0  0  0  0  0  0  0  0  0
  142.0080   80.1710  221.7060 C   0  0  0  0  0  0  0  0  0  0  0  0
  141.5490   79.1790  220.8620 C   0  0  0  0  0  0  0  0  0  0  0  0
  139.0950   70.4450  223.9150 C   0  0  0  0  0  0  0  0  0  0  0  0
  138.7860   69.0830  223.8500 C   0  0  0  0  0  0  0  0  0  0  0  0
  139.1350   68.2630  224.9010 C   0  0  0  0  0  0  0  0  0  0  0  0
  139.7780   68.7930  225.9990 C   0  0  0  0  0  0  0  0  0  0  0  0
  140.1560   68.0430  227.0810 C   0  0  0  0  0  0  0  0  0  0  0  0
  140.7910   68.5770  228.1590 C   0  0  0  0  0  0  0  0  0  0  0  0
  141.1490   67.7960  229.2160 F   0  0  0  0  0  0  0  0  0  0  0  0
  141.0740   69.9310  228.1750 C   0  0  0  0  0  0  0  0  0  0  0  0
  140.6930   70.6750  227.0870 C   0  0  0  0  0  0  0  0  0  0  0  0
  140.0460   70.1410  225.9860 C   0  0  0  0  0  0  0  0  0  0  0  0
  139.7170   70.9600  224.9720 N   0  0  0  0  0  0  0  0  0  0  0  0
  139.8440   72.9370  223.5090 H   0  0  0  0  0  0  0  0  0  0  0  0
  138.8386   72.9858  220.6672 H   0  0  0  0  0  0  0  0  0  0  0  0
  137.8971   74.0071  221.7854 H   0  0  0  0  0  0  0  0  0  0  0  0
  137.7296   76.1756  220.4276 H   0  0  0  0  0  0  0  0  0  0  0  0
  138.1797   77.2677  221.6156 H   0  0  0  0  0  0  0  0  0  0  0  0
  139.2131   77.0752  218.6562 H   0  0  0  0  0  0  0  0  0  0  0  0
  139.2135   78.5163  219.4319 H   0  0  0  0  0  0  0  0  0  0  0  0
  141.5151   76.6097  219.9029 H   0  0  0  0  0  0  0  0  0  0  0  0
  140.6932   76.8744  223.1419 H   0  0  0  0  0  0  0  0  0  0  0  0
  141.5114   78.6376  224.6618 H   0  0  0  0  0  0  0  0  0  0  0  0
  142.3830   81.1132  221.2797 H   0  0  0  0  0  0  0  0  0  0  0  0
  141.5669   79.3525  219.7759 H   0  0  0  0  0  0  0  0  0  0  0  0
  138.2703   68.6708  222.9701 H   0  0  0  0  0  0  0  0  0  0  0  0
  138.9012   67.1888  224.8639 H   0  0  0  0  0  0  0  0  0  0  0  0
  139.9372   66.9650  227.0781 H   0  0  0  0  0  0  0  0  0  0  0  0
  141.5868   70.3951  229.0304 H   0  0  0  0  0  0  0  0  0  0  0  0
  140.9133   71.7527  227.0898 H   0  0  0  0  0  0  0  0  0  0  0  0
  1  2  2  0
  2  3  1  0
  3  4  1  0
  4  5  1  0
  5  6  2  0
  5  7  1  0
  7  8  1  0
  8  9  1  0
  9 10  1  0
 10 11  1  0
 11 12  2  0
 12 13  1  0
 13 14  2  0
 14 15  1  0
 14 16  1  0
 16 17  2  0
  2 18  1  0
 18 19  2  0
 19 20  1  0
 20 21  2  0
 21 22  1  0
 22 23  2  0
 23 24  1  0
 23 25  1  0
 25 26  2  0
 26 27  1  0
 27 28  2  0
 10  7  1  0
 17 11  1  0
 28 18  1  0
 27 21  1  0
  3 29  1  0
  4 30  1  0
  4 31  1  0
  8 32  1  0
  8 33  1  0
  9 34  1  0
  9 35  1  0
 10 36  1  6
 12 37  1  0
 13 38  1  0
 16 39  1  0
 17 40  1  0
 19 41  1  0
 20 42  1  0
 22 43  1  0
 25 44  1  0
 26 45  1  0
M  END
>  <smiles>  (96) 
O=C(NCC(=O)N1CCC1c1ccc(Cl)cc1)c1ccc2cc(F)ccc2n1

>  <score_type>  (96) 
oracle

>  <origin>  (96) 
autodockgpu

>  <m_score__min__energy>  (96) 
-8.7300000000000004

>  <m_primary>  (96) 
energy

>  <rmsd>  (96) 
2.337002050800372

>  <m_score__min__rmsd>  (96) 
2.337002050800372

>  <meeko>  (96) 
{"free_energy": -8.63, "intermolecular_energy": -10.12, "internal_energy": -1.75, "cluster_size": 22, "cluster_id": 1, "rank_in_cluster": 2}

>  <energy>  (96) 
-8.13

>  <cluster_rmsd>  (96) 
1.29

>  <cluster>  (96) 
2

$$$$

     RDKit          3D

 45 48  0  0  0  0  0  0  0  0999 V2000
  137.9170   70.8530  221.9180 O   0  0  0  0  0  0  0  0  0  0  0  0
  138.7220   71.3020  222.8040 C   0  0  0  0  0  0  0  0  0  0  0  0
  139.2620   72.6160  222.7290 N   0  0  0  0  0  0  0  0  0  0  0  0
  138.9260   73.5300  221.6300 C   0  0  0  0  0  0  0  0  0  0  0  0
  139.9160   74.6010  221.6270 C   0  0  0  0  0  0  0  0  0  0  0  0
  141.0520   74.3770  222.1690 O   0  0  0  0  0  0  0  0  0  0  0  0
  139.7430   75.8920  221.0750 N   0  0  0  0  0  0  0  0  0  0  0  0
  138.5580   76.7470  220.9260 C   0  0  0  0  0  0  0  0  0  0  0  0
  139.2280   77.4900  219.7810 C   0  0  0  0  0  0  0  0  0  0  0  0
  140.4920   76.9550  220.4350 C   0  0  1  0  0  0  0  0  0  0  0  0
  141.0210   78.0120  221.3390 C   0  0  0  0  0  0  0  0  0  0  0  0
  141.4670   79.2350  220.8980 C   0  0  0  0  0  0  0  0  0  0  0  0
  141.9520   80.2160  221.7590 C   0  0  0  0  0  0  0  0  0  0  0  0
  142.0000   79.9870  223.1180 C   0  0  0  0  0  0  0  0  0  0  0  0
  142.6110   81.2280  224.1920 Cl  0  0  0  0  0  0  0  0  0  0  0  0
  141.5580   78.7680  223.5850 C   0  0  0  0  0  0  0  0  0  0  0  0
  141.0810   77.8040  222.7180 C   0  0  0  0  0  0  0  0  0  0  0  0
  139.1140   70.4460  223.9460 C   0  0  0  0  0  0  0  0  0  0  0  0
  138.8250   69.0800  223.8710 C   0  0  0  0  0  0  0  0  0  0  0  0
  139.1800   68.2590  224.9180 C   0  0  0  0  0  0  0  0  0  0  0  0
  139.8080   68.7900  226.0240 C   0  0  0  0  0  0  0  0  0  0  0  0
  140.1900   68.0380  227.1030 C   0  0  0  0  0  0  0  0  0  0  0  0
  140.8110   68.5740  228.1880 C   0  0  0  0  0  0  0  0  0  0  0  0
  141.1740   67.7910  229.2430 F   0  0  0  0  0  0  0  0  0  0  0  0
  141.0740   69.9320  228.2150 C   0  0  0  0  0  0  0  0  0  0  0  0
  140.6890   70.6780  227.1300 C   0  0  0  0  0  0  0  0  0  0  0  0
  140.0570   70.1420  226.0220 C   0  0  0  0  0  0  0  0  0  0  0  0
  139.7220   70.9630  225.0110 N   0  0  0  0  0  0  0  0  0  0  0  0
  139.9220   72.9130  223.5020 H   0  0  0  0  0  0  0  0  0  0  0  0
  138.9545   72.9905  220.6718 H   0  0  0  0  0  0  0  0  0  0  0  0
  137.9143   73.9403  221.7651 H   0  0  0  0  0  0  0  0  0  0  0  0
  137.6471   76.2033  220.6349 H   0  0  0  0  0  0  0  0  0  0  0  0
  138.1625   77.3012  221.7900 H   0  0  0  0  0  0  0  0  0  0  0  0
  139.0133   77.1064  218.7727 H   0  0  0  0  0  0  0  0  0  0  0  0
  139.0538   78.5498  219.5435 H   0  0  0  0  0  0  0  0  0  0  0  0
  141.3906   76.6574  219.8747 H   0  0  0  0  0  0  0  0  0  0  0  0
  141.4396   79.4478  219.8191 H   0  0  0  0  0  0  0  0  0  0  0  0
  142.2984   81.1780  221.3533 H   0  0  0  0  0  0  0  0  0  0  0  0
  141.5855   78.5594  224.6647 H   0  0  0  0  0  0  0  0  0  0  0  0
  140.7377   76.8424  223.1272 H   0  0  0  0  0  0  0  0  0  0  0  0
  138.3199   68.6660  222.9859 H   0  0  0  0  0  0  0  0  0  0  0  0
  138.9628   67.1816  224.8717 H   0  0  0  0  0  0  0  0  0  0  0  0
  139.9864   66.9571  227.0917 H   0  0  0  0  0  0  0  0  0  0  0  0
  141.5746   70.3975  229.0768 H   0  0  0  0  0  0  0  0  0  0  0  0
  140.8934   71.7588  227.1415 H   0  0  0  0  0  0  0  0  0  0  0  0
  1  2  2  0
  2  3  1  0
  3  4  1  0
  4  5  1  0
  5  6  2  0
  5  7  1  0
  7  8  1  0
  8  9  1  0
  9 10  1  0
 10 11  1  0
 11 12  2  0
 12 13  1  0
 13 14  2  0
 14 15  1  0
 14 16  1  0
 16 17  2  0
  2 18  1  0
 18 19  2  0
 19 20  1  0
 20 21  2  0
 21 22  1  0
 22 23  2  0
 23 24  1  0
 23 25  1  0
 25 26  2  0
 26 27  1  0
 27 28  2  0
 10  7  1  0
 17 11  1  0
 28 18  1  0
 27 21  1  0
  3 29  1  0
  4 30  1  0
  4 31  1  0
  8 32  1  0
  8 33  1  0
  9 34  1  0
  9 35  1  0
 10 36  1  6
 12 37  1  0
 13 38  1  0
 16 39  1  0
 17 40  1  0
 19 41  1  0
 20 42  1  0
 22 43  1  0
 25 44  1  0
 26 45  1  0
M  END
>  <smiles>  (97) 
O=C(NCC(=O)N1CCC1c1ccc(Cl)cc1)c1ccc2cc(F)ccc2n1

>  <score_type>  (97) 
oracle

>  <origin>  (97) 
autodockgpu

>  <m_score__min__energy>  (97) 
-8.7300000000000004

>  <m_primary>  (97) 
energy

>  <rmsd>  (97) 
2.1632294800320886

>  <m_score__min__rmsd>  (97) 
2.1632294800320886

>  <meeko>  (97) 
{"free_energy": -8.55, "intermolecular_energy": -10.05, "internal_energy": -1.81, "cluster_size": 22, "cluster_id": 1, "rank_in_cluster": 10}

>  <energy>  (97) 
-8.08

>  <cluster_rmsd>  (97) 
0.98

>  <cluster>  (97) 
2

$$$$

     RDKit          3D

 45 48  0  0  0  0  0  0  0  0999 V2000
  137.8160   70.9970  221.8880 O   0  0  0  0  0  0  0  0  0  0  0  0
  138.6250   71.4290  222.7790 C   0  0  0  0  0  0  0  0  0  0  0  0
  139.1800   72.7370  222.7150 N   0  0  0  0  0  0  0  0  0  0  0  0
  138.8570   73.6640  221.6230 C   0  0  0  0  0  0  0  0  0  0  0  0
  139.9560   74.6170  221.5110 C   0  0  0  0  0  0  0  0  0  0  0  0
  141.0880   74.2960  222.0120 O   0  0  0  0  0  0  0  0  0  0  0  0
  139.8950   75.8880  220.8940 N   0  0  0  0  0  0  0  0  0  0  0  0
  138.7670   76.7720  220.5720 C   0  0  0  0  0  0  0  0  0  0  0  0
  139.5930   77.4440  219.4870 C   0  0  0  0  0  0  0  0  0  0  0  0
  140.7510   76.9000  220.3070 C   0  0  1  0  0  0  0  0  0  0  0  0
  141.2070   77.9770  221.2270 C   0  0  0  0  0  0  0  0  0  0  0  0
  141.7540   79.1620  220.7950 C   0  0  0  0  0  0  0  0  0  0  0  0
  142.1680   80.1640  221.6700 C   0  0  0  0  0  0  0  0  0  0  0  0
  142.0390   79.9950  223.0330 C   0  0  0  0  0  0  0  0  0  0  0  0
  142.5630   81.2610  224.1230 Cl  0  0  0  0  0  0  0  0  0  0  0  0
  141.4940   78.8140  223.4890 C   0  0  0  0  0  0  0  0  0  0  0  0
  141.0890   77.8300  222.6100 C   0  0  0  0  0  0  0  0  0  0  0  0
  139.0050   70.5590  223.9150 C   0  0  0  0  0  0  0  0  0  0  0  0
  138.6340   69.2120  223.8610 C   0  0  0  0  0  0  0  0  0  0  0  0
  138.9750   68.3790  224.9030 C   0  0  0  0  0  0  0  0  0  0  0  0
  139.6730   68.8790  225.9820 C   0  0  0  0  0  0  0  0  0  0  0  0
  140.0470   68.1130  227.0530 C   0  0  0  0  0  0  0  0  0  0  0  0
  140.7350   68.6190  228.1120 C   0  0  0  0  0  0  0  0  0  0  0  0
  141.0880   67.8220  229.1610 F   0  0  0  0  0  0  0  0  0  0  0  0
  141.0790   69.9590  228.1180 C   0  0  0  0  0  0  0  0  0  0  0  0
  140.7010   70.7180  227.0400 C   0  0  0  0  0  0  0  0  0  0  0  0
  140.0000   70.2140  225.9590 C   0  0  0  0  0  0  0  0  0  0  0  0
  139.6800   71.0470  224.9530 N   0  0  0  0  0  0  0  0  0  0  0  0
  139.8430   73.0210  223.4920 H   0  0  0  0  0  0  0  0  0  0  0  0
  138.7454   73.1082  220.6803 H   0  0  0  0  0  0  0  0  0  0  0  0
  137.9120   74.1879  221.8290 H   0  0  0  0  0  0  0  0  0  0  0  0
  137.8778   76.2447  220.1961 H   0  0  0  0  0  0  0  0  0  0  0  0
  138.2927   77.3747  221.3606 H   0  0  0  0  0  0  0  0  0  0  0  0
  139.4852   77.0239  218.4761 H   0  0  0  0  0  0  0  0  0  0  0  0
  139.4854   78.4974  219.1890 H   0  0  0  0  0  0  0  0  0  0  0  0
  141.6984   76.5526  219.8691 H   0  0  0  0  0  0  0  0  0  0  0  0
  141.8696   79.3258  219.7134 H   0  0  0  0  0  0  0  0  0  0  0  0
  142.5997   81.0942  221.2721 H   0  0  0  0  0  0  0  0  0  0  0  0
  141.3800   78.6531  224.5712 H   0  0  0  0  0  0  0  0  0  0  0  0
  140.6596   76.9005  223.0121 H   0  0  0  0  0  0  0  0  0  0  0  0
  138.0764   68.8224  222.9965 H   0  0  0  0  0  0  0  0  0  0  0  0
  138.6911   67.3166  224.8747 H   0  0  0  0  0  0  0  0  0  0  0  0
  139.7806   67.0457  227.0576 H   0  0  0  0  0  0  0  0  0  0  0  0
  141.6360   70.4001  228.9577 H   0  0  0  0  0  0  0  0  0  0  0  0
  140.9696   71.7847  227.0346 H   0  0  0  0  0  0  0  0  0  0  0  0
  1  2  2  0
  2  3  1  0
  3  4  1  0
  4  5  1  0
  5  6  2  0
  5  7  1  0
  7  8  1  0
  8  9  1  0
  9 10  1  0
 10 11  1  0
 11 12  2  0
 12 13  1  0
 13 14  2  0
 14 15  1  0
 14 16  1  0
 16 17  2  0
  2 18  1  0
 18 19  2  0
 19 20  1  0
 20 21  2  0
 21 22  1  0
 22 23  2  0
 23 24  1  0
 23 25  1  0
 25 26  2  0
 26 27  1  0
 27 28  2  0
 10  7  1  0
 17 11  1  0
 28 18  1  0
 27 21  1  0
  3 29  1  0
  4 30  1  0
  4 31  1  0
  8 32  1  0
  8 33  1  0
  9 34  1  0
  9 35  1  0
 10 36  1  6
 12 37  1  0
 13 38  1  0
 16 39  1  0
 17 40  1  0
 19 41  1  0
 20 42  1  0
 22 43  1  0
 25 44  1  0
 26 45  1  0
M  END
>  <smiles>  (98) 
O=C(NCC(=O)N1CCC1c1ccc(Cl)cc1)c1ccc2cc(F)ccc2n1

>  <score_type>  (98) 
oracle

>  <origin>  (98) 
autodockgpu

>  <m_score__min__energy>  (98) 
-8.7300000000000004

>  <m_primary>  (98) 
energy

>  <rmsd>  (98) 
2.090758454496919

>  <m_score__min__rmsd>  (98) 
2.090758454496919

>  <meeko>  (98) 
{"free_energy": -8.57, "intermolecular_energy": -10.06, "internal_energy": -1.77, "cluster_size": 22, "cluster_id": 1, "rank_in_cluster": 8}

>  <energy>  (98) 
-8.01

>  <cluster_rmsd>  (98) 
1.32

>  <cluster>  (98) 
2

$$$$

     RDKit          3D

 45 48  0  0  0  0  0  0  0  0999 V2000
  139.6190   70.9130  221.0760 O   0  0  0  0  0  0  0  0  0  0  0  0
  139.6030   71.5100  222.2070 C   0  0  0  0  0  0  0  0  0  0  0  0
  139.5060   72.9250  222.3050 N   0  0  0  0  0  0  0  0  0  0  0  0
  139.4190   73.7810  221.1140 C   0  0  0  0  0  0  0  0  0  0  0  0
  139.3850   75.1670  221.5670 C   0  0  0  0  0  0  0  0  0  0  0  0
  138.8650   75.4190  222.7070 O   0  0  0  0  0  0  0  0  0  0  0  0
  139.8790   76.2870  220.8570 N   0  0  0  0  0  0  0  0  0  0  0  0
  139.2110   77.2930  220.0210 C   0  0  0  0  0  0  0  0  0  0  0  0
  140.5210   77.5780  219.3030 C   0  0  0  0  0  0  0  0  0  0  0  0
  141.1150   76.9870  220.5710 C   0  0  1  0  0  0  0  0  0  0  0  0
  141.4520   78.1110  221.4860 C   0  0  0  0  0  0  0  0  0  0  0  0
  141.4090   78.0130  222.8560 C   0  0  0  0  0  0  0  0  0  0  0  0
  141.7360   79.0730  223.6980 C   0  0  0  0  0  0  0  0  0  0  0  0
  142.1230   80.2870  223.1700 C   0  0  0  0  0  0  0  0  0  0  0  0
  142.5310   81.6140  224.2380 Cl  0  0  0  0  0  0  0  0  0  0  0  0
  142.1720   80.4100  221.7980 C   0  0  0  0  0  0  0  0  0  0  0  0
  141.8450   79.3500  220.9760 C   0  0  0  0  0  0  0  0  0  0  0  0
  139.6860   70.7230  223.4580 C   0  0  0  0  0  0  0  0  0  0  0  0
  139.2030   69.4110  223.4400 C   0  0  0  0  0  0  0  0  0  0  0  0
  139.2690   68.6550  224.5890 C   0  0  0  0  0  0  0  0  0  0  0  0
  139.8050   69.1960  225.7370 C   0  0  0  0  0  0  0  0  0  0  0  0
  139.9040   68.5080  226.9160 C   0  0  0  0  0  0  0  0  0  0  0  0
  140.4360   69.0530  228.0430 C   0  0  0  0  0  0  0  0  0  0  0  0
  140.5150   68.3330  229.1980 F   0  0  0  0  0  0  0  0  0  0  0  0
  140.9010   70.3560  228.0100 C   0  0  0  0  0  0  0  0  0  0  0  0
  140.7990   71.0390  226.8240 C   0  0  0  0  0  0  0  0  0  0  0  0
  140.2590   70.4930  225.6730 C   0  0  0  0  0  0  0  0  0  0  0  0
  140.2070   71.2500  224.5630 N   0  0  0  0  0  0  0  0  0  0  0  0
  139.4980   73.3440  223.2780 H   0  0  0  0  0  0  0  0  0  0  0  0
  140.2963   73.6183  220.4706 H   0  0  0  0  0  0  0  0  0  0  0  0
  138.5159   73.5428  220.5329 H   0  0  0  0  0  0  0  0  0  0  0  0
  138.4237   76.8838  219.3708 H   0  0  0  0  0  0  0  0  0  0  0  0
  138.6447   78.1130  220.4868 H   0  0  0  0  0  0  0  0  0  0  0  0
  140.6951   77.0033  218.3814 H   0  0  0  0  0  0  0  0  0  0  0  0
  140.7992   78.5569  218.8855 H   0  0  0  0  0  0  0  0  0  0  0  0
  142.0372   76.3877  220.5909 H   0  0  0  0  0  0  0  0  0  0  0  0
  141.1035   77.0571  223.3065 H   0  0  0  0  0  0  0  0  0  0  0  0
  141.6854   78.9415  224.7889 H   0  0  0  0  0  0  0  0  0  0  0  0
  142.4764   81.3678  221.3509 H   0  0  0  0  0  0  0  0  0  0  0  0
  141.8957   79.4857  219.8856 H   0  0  0  0  0  0  0  0  0  0  0  0
  138.7754   68.9878  222.5191 H   0  0  0  0  0  0  0  0  0  0  0  0
  138.8943   67.6208  224.5902 H   0  0  0  0  0  0  0  0  0  0  0  0
  139.5382   67.4713  226.9537 H   0  0  0  0  0  0  0  0  0  0  0  0
  141.3370   70.8277  228.9030 H   0  0  0  0  0  0  0  0  0  0  0  0
  141.1659   72.0753  226.7865 H   0  0  0  0  0  0  0  0  0  0  0  0
  1  2  2  0
  2  3  1  0
  3  4  1  0
  4  5  1  0
  5  6  2  0
  5  7  1  0
  7  8  1  0
  8  9  1  0
  9 10  1  0
 10 11  1  0
 11 12  2  0
 12 13  1  0
 13 14  2  0
 14 15  1  0
 14 16  1  0
 16 17  2  0
  2 18  1  0
 18 19  2  0
 19 20  1  0
 20 21  2  0
 21 22  1  0
 22 23  2  0
 23 24  1  0
 23 25  1  0
 25 26  2  0
 26 27  1  0
 27 28  2  0
 10  7  1  0
 17 11  1  0
 28 18  1  0
 27 21  1  0
  3 29  1  0
  4 30  1  0
  4 31  1  0
  8 32  1  0
  8 33  1  0
  9 34  1  0
  9 35  1  0
 10 36  1  6
 12 37  1  0
 13 38  1  0
 16 39  1  0
 17 40  1  0
 19 41  1  0
 20 42  1  0
 22 43  1  0
 25 44  1  0
 26 45  1  0
M  END
>  <smiles>  (99) 
O=C(NCC(=O)N1CCC1c1ccc(Cl)cc1)c1ccc2cc(F)ccc2n1

>  <score_type>  (99) 
oracle

>  <origin>  (99) 
autodockgpu

>  <m_score__min__energy>  (99) 
-8.7300000000000004

>  <m_primary>  (99) 
energy

>  <rmsd>  (99) 
2.374626786390047

>  <m_score__min__rmsd>  (99) 
2.374626786390047

>  <meeko>  (99) 
{"free_energy": -8.43, "intermolecular_energy": -9.92, "internal_energy": -1.79, "cluster_size": 22, "cluster_id": 1, "rank_in_cluster": 15}

>  <energy>  (99) 
-7.99

>  <cluster_rmsd>  (99) 
1.0

>  <cluster>  (99) 
2

$$$$

     RDKit          3D

 45 48  0  0  0  0  0  0  0  0999 V2000
  137.6250   75.9380  221.6930 O   0  0  0  0  0  0  0  0  0  0  0  0
  138.8730   76.0720  221.9370 C   0  0  0  0  0  0  0  0  0  0  0  0
  139.7930   75.0060  221.7380 N   0  0  0  0  0  0  0  0  0  0  0  0
  139.3630   73.6930  221.2420 C   0  0  0  0  0  0  0  0  0  0  0  0
  139.9040   72.6800  222.1420 C   0  0  0  0  0  0  0  0  0  0  0  0
  141.0800   72.8540  222.6110 O   0  0  0  0  0  0  0  0  0  0  0  0
  139.2450   71.4990  222.5570 N   0  0  0  0  0  0  0  0  0  0  0  0
  139.1960   70.1480  221.9840 C   0  0  0  0  0  0  0  0  0  0  0  0
  137.8800   69.8840  222.6990 C   0  0  0  0  0  0  0  0  0  0  0  0
  138.3760   71.0000  223.6040 C   0  0  1  0  0  0  0  0  0  0  0  0
  139.0560   70.3760  224.7700 C   0  0  0  0  0  0  0  0  0  0  0  0
  140.0330   71.0040  225.5050 C   0  0  0  0  0  0  0  0  0  0  0  0
  140.6530   70.4070  226.6000 C   0  0  0  0  0  0  0  0  0  0  0  0
  140.2980   69.1340  226.9930 C   0  0  0  0  0  0  0  0  0  0  0  0
  141.0840   68.3930  228.3710 Cl  0  0  0  0  0  0  0  0  0  0  0  0
  139.3190   68.4830  226.2710 C   0  0  0  0  0  0  0  0  0  0  0  0
  138.7140   69.0880  225.1870 C   0  0  0  0  0  0  0  0  0  0  0  0
  139.3920   77.3640  222.4400 C   0  0  0  0  0  0  0  0  0  0  0  0
  138.4650   78.3240  222.8580 C   0  0  0  0  0  0  0  0  0  0  0  0
  138.9190   79.5350  223.3320 C   0  0  0  0  0  0  0  0  0  0  0  0
  140.2730   79.7860  223.3880 C   0  0  0  0  0  0  0  0  0  0  0  0
  140.7990   80.9630  223.8470 C   0  0  0  0  0  0  0  0  0  0  0  0
  142.1380   81.1990  223.8980 C   0  0  0  0  0  0  0  0  0  0  0  0
  142.6220   82.3860  224.3610 F   0  0  0  0  0  0  0  0  0  0  0  0
  143.0140   80.2170  223.4730 C   0  0  0  0  0  0  0  0  0  0  0  0
  142.4790   79.0390  223.0160 C   0  0  0  0  0  0  0  0  0  0  0  0
  141.1190   78.7900  222.9600 C   0  0  0  0  0  0  0  0  0  0  0  0
  140.7000   77.6000  222.4940 N   0  0  0  0  0  0  0  0  0  0  0  0
  140.8110   75.1970  221.9630 H   0  0  0  0  0  0  0  0  0  0  0  0
  138.2644   73.6375  221.2325 H   0  0  0  0  0  0  0  0  0  0  0  0
  139.7261   73.5307  220.2164 H   0  0  0  0  0  0  0  0  0  0  0  0
  139.1212   70.1293  220.8867 H   0  0  0  0  0  0  0  0  0  0  0  0
  140.0446   69.4601  222.1133 H   0  0  0  0  0  0  0  0  0  0  0  0
  136.9703   70.1061  222.1219 H   0  0  0  0  0  0  0  0  0  0  0  0
  137.5551   68.8952  223.0549 H   0  0  0  0  0  0  0  0  0  0  0  0
  137.7141   71.7335  224.0876 H   0  0  0  0  0  0  0  0  0  0  0  0
  140.3380   72.0207  225.2163 H   0  0  0  0  0  0  0  0  0  0  0  0
  141.4300   70.9540  227.1542 H   0  0  0  0  0  0  0  0  0  0  0  0
  139.0158   67.4668  226.5632 H   0  0  0  0  0  0  0  0  0  0  0  0
  137.9381   68.5378  224.6345 H   0  0  0  0  0  0  0  0  0  0  0  0
  137.3862   78.1145  222.8089 H   0  0  0  0  0  0  0  0  0  0  0  0
  138.2024   80.3002  223.6651 H   0  0  0  0  0  0  0  0  0  0  0  0
  140.1112   81.7505  224.1887 H   0  0  0  0  0  0  0  0  0  0  0  0
  144.1023   80.3748  223.5004 H   0  0  0  0  0  0  0  0  0  0  0  0
  143.1674   78.2512  222.6763 H   0  0  0  0  0  0  0  0  0  0  0  0
  1  2  2  0
  2  3  1  0
  3  4  1  0
  4  5  1  0
  5  6  2  0
  5  7  1  0
  7  8  1  0
  8  9  1  0
  9 10  1  0
 10 11  1  0
 11 12  2  0
 12 13  1  0
 13 14  2  0
 14 15  1  0
 14 16  1  0
 16 17  2  0
  2 18  1  0
 18 19  2  0
 19 20  1  0
 20 21  2  0
 21 22  1  0
 22 23  2  0
 23 24  1  0
 23 25  1  0
 25 26  2  0
 26 27  1  0
 27 28  2  0
 10  7  1  0
 17 11  1  0
 28 18  1  0
 27 21  1  0
  3 29  1  0
  4 30  1  0
  4 31  1  0
  8 32  1  0
  8 33  1  0
  9 34  1  0
  9 35  1  0
 10 36  1  1
 12 37  1  0
 13 38  1  0
 16 39  1  0
 17 40  1  0
 19 41  1  0
 20 42  1  0
 22 43  1  0
 25 44  1  0
 26 45  1  0
M  END
>  <smiles>  (100) 
O=C(NCC(=O)N1CCC1c1ccc(Cl)cc1)c1ccc2cc(F)ccc2n1

>  <score_type>  (100) 
oracle

>  <origin>  (100) 
autodockgpu

>  <m_score__min__energy>  (100) 
-8.7300000000000004

>  <m_primary>  (100) 
energy

>  <rmsd>  (100) 
8.554639203806516

>  <m_score__min__rmsd>  (100) 
8.554639203806516

>  <meeko>  (100) 
{"free_energy": -8.26, "intermolecular_energy": -9.75, "internal_energy": -1.68, "cluster_size": 28, "cluster_id": 2, "rank_in_cluster": 14}

>  <energy>  (100) 
-7.71

>  <cluster_rmsd>  (100) 
1.05

>  <cluster>  (100) 
2

$$$$
