
     RDKit          3D

 59 62  0  0  0  0  0  0  0  0999 V2000
  136.6750   72.9710  219.3800 C   0  0  0  0  0  0  0  0  0  0  0  0
  137.4010   74.2940  219.6580 C   0  0  2  0  0  0  0  0  0  0  0  0
  138.7000   73.9230  220.1860 N   0  0  0  0  0  0  0  0  0  0  0  0
  139.5840   73.2040  219.3390 C   0  0  0  0  0  0  0  0  0  0  0  0
  139.2860   72.8790  218.1590 O   0  0  0  0  0  0  0  0  0  0  0  0
  140.9220   72.8120  219.8590 C   0  0  0  0  0  0  0  0  0  0  0  0
  140.6920   71.9340  220.9970 N   0  0  0  0  0  0  0  0  0  0  0  0
  140.3880   72.5070  222.2570 C   0  0  0  0  0  0  0  0  0  0  0  0
  140.3300   73.7540  222.3380 O   0  0  0  0  0  0  0  0  0  0  0  0
  140.1510   71.6550  223.4180 C   0  0  0  0  0  0  0  0  0  0  0  0
  139.3200   70.5590  223.3060 C   0  0  0  0  0  0  0  0  0  0  0  0
  139.0450   69.7070  224.3540 C   0  0  0  0  0  0  0  0  0  0  0  0
  139.6420   69.9790  225.5800 C   0  0  0  0  0  0  0  0  0  0  0  0
  139.4170   69.1720  226.6750 C   0  0  0  0  0  0  0  0  0  0  0  0
  140.0080   69.4360  227.9040 C   0  0  0  0  0  0  0  0  0  0  0  0
  140.8380   70.5400  227.9920 C   0  0  0  0  0  0  0  0  0  0  0  0
  141.0700   71.3570  226.8920 C   0  0  0  0  0  0  0  0  0  0  0  0
  140.4740   71.0800  225.6810 C   0  0  0  0  0  0  0  0  0  0  0  0
  140.7170   71.8950  224.6190 N   0  0  0  0  0  0  0  0  0  0  0  0
  136.5640   75.0860  220.6390 C   0  0  1  0  0  0  0  0  0  0  0  0
  135.1950   74.4430  220.8140 C   0  0  0  0  0  0  0  0  0  0  0  0
  135.2300   73.7020  222.1180 C   0  0  0  0  0  0  0  0  0  0  0  0
  136.6030   73.9950  222.6820 C   0  0  0  0  0  0  0  0  0  0  0  0
  137.1300   75.1010  221.9480 N   0  0  0  0  0  0  0  0  0  0  0  0
  137.1270   76.3580  222.6230 C   0  0  0  0  0  0  0  0  0  0  0  0
  138.4040   77.0730  222.6580 C   0  0  0  0  0  0  0  0  0  0  0  0
  139.6100   76.4770  222.3020 C   0  0  0  0  0  0  0  0  0  0  0  0
  140.8100   77.1560  222.3370 C   0  0  0  0  0  0  0  0  0  0  0  0
  140.8680   78.4700  222.7320 C   0  0  0  0  0  0  0  0  0  0  0  0
  142.3530   79.3930  222.8020 Cl  0  0  0  0  0  0  0  0  0  0  0  0
  139.6920   79.0860  223.0900 C   0  0  0  0  0  0  0  0  0  0  0  0
  138.4880   78.3990  223.0520 C   0  0  0  0  0  0  0  0  0  0  0  0
  136.4111   72.4902  220.3335 H   0  0  0  0  0  0  0  0  0  0  0  0
  135.7593   73.1693  218.8036 H   0  0  0  0  0  0  0  0  0  0  0  0
  137.3341   72.3051  218.8036 H   0  0  0  0  0  0  0  0  0  0  0  0
  137.5405   74.9289  218.7706 H   0  0  0  0  0  0  0  0  0  0  0  0
  138.9250   74.2030  221.1660 H   0  0  0  0  0  0  0  0  0  0  0  0
  141.4900   72.2815  219.0805 H   0  0  0  0  0  0  0  0  0  0  0  0
  141.5043   73.6969  220.1554 H   0  0  0  0  0  0  0  0  0  0  0  0
  140.7380   70.8940  220.9380 H   0  0  0  0  0  0  0  0  0  0  0  0
  138.8534   70.3550  222.3310 H   0  0  0  0  0  0  0  0  0  0  0  0
  138.3770   68.8426  224.2251 H   0  0  0  0  0  0  0  0  0  0  0  0
  138.7547   68.2996  226.5731 H   0  0  0  0  0  0  0  0  0  0  0  0
  139.8230   68.7910  228.7757 H   0  0  0  0  0  0  0  0  0  0  0  0
  141.3232   70.7752  228.9508 H   0  0  0  0  0  0  0  0  0  0  0  0
  141.7330   72.2294  226.9886 H   0  0  0  0  0  0  0  0  0  0  0  0
  136.5088   76.1021  220.2212 H   0  0  0  0  0  0  0  0  0  0  0  0
  134.4133   75.2165  220.8384 H   0  0  0  0  0  0  0  0  0  0  0  0
  134.9673   73.7639  219.9791 H   0  0  0  0  0  0  0  0  0  0  0  0
  134.4448   74.0691  222.7952 H   0  0  0  0  0  0  0  0  0  0  0  0
  135.0502   72.6241  221.9921 H   0  0  0  0  0  0  0  0  0  0  0  0
  136.5259   74.2522  223.7487 H   0  0  0  0  0  0  0  0  0  0  0  0
  137.2592   73.1167  222.5925 H   0  0  0  0  0  0  0  0  0  0  0  0
  136.3924   77.0063  222.1229 H   0  0  0  0  0  0  0  0  0  0  0  0
  136.8872   76.1296  223.6720 H   0  0  0  0  0  0  0  0  0  0  0  0
  139.6061   75.4250  221.9807 H   0  0  0  0  0  0  0  0  0  0  0  0
  141.7347   76.6372  222.0441 H   0  0  0  0  0  0  0  0  0  0  0  0
  139.7064   80.1380  223.4109 H   0  0  0  0  0  0  0  0  0  0  0  0
  137.5674   78.9250  223.3449 H   0  0  0  0  0  0  0  0  0  0  0  0
  1  2  1  0
  2  3  1  0
  3  4  1  0
  4  5  2  0
  4  6  1  0
  6  7  1  0
  7  8  1  0
  8  9  2  0
  8 10  1  0
 10 11  2  0
 11 12  1  0
 12 13  2  0
 13 14  1  0
 14 15  2  0
 15 16  1  0
 16 17  2  0
 17 18  1  0
 18 19  2  0
  2 20  1  0
 20 21  1  0
 21 22  1  0
 22 23  1  0
 23 24  1  0
 24 25  1  0
 25 26  1  0
 26 27  2  0
 27 28  1  0
 28 29  2  0
 29 30  1  0
 29 31  1  0
 31 32  2  0
 19 10  1  0
 24 20  1  0
 32 26  1  0
 18 13  1  0
  1 33  1  0
  1 34  1  0
  1 35  1  0
  2 36  1  6
  3 37  1  0
  6 38  1  0
  6 39  1  0
  7 40  1  0
 11 41  1  0
 12 42  1  0
 14 43  1  0
 15 44  1  0
 16 45  1  0
 17 46  1  0
 20 47  1  6
 21 48  1  0
 21 49  1  0
 22 50  1  0
 22 51  1  0
 23 52  1  0
 23 53  1  0
 25 54  1  0
 25 55  1  0
 27 56  1  0
 28 57  1  0
 31 58  1  0
 32 59  1  0
M  END
>  <smiles>  (1) 
C[C@H](NC(=O)CNC(=O)c1ccc2ccccc2n1)[C@H]1CCCN1Cc1ccc(Cl)cc1

>  <score_type>  (1) 
oracle

>  <origin>  (1) 
autodockgpu

>  <m_score__min__energy>  (1) 
-9.4600000000000009

>  <m_primary>  (1) 
energy

>  <rmsd>  (1) 
3.8559978935723866

>  <m_score__min__rmsd>  (1) 
3.8559978935723866

>  <meeko>  (1) 
{"free_energy": -7.18, "intermolecular_energy": -9.27, "internal_energy": -3.55, "cluster_size": 5, "cluster_id": 7, "rank_in_cluster": 5}

>  <energy>  (1) 
-9.46

>  <cluster_rmsd>  (1) 
0.0

>  <cluster>  (1) 
1

$$$$

     RDKit          3D

 59 62  0  0  0  0  0  0  0  0999 V2000
  136.5370   72.4200  220.5420 C   0  0  0  0  0  0  0  0  0  0  0  0
  137.2730   72.3000  221.8830 C   0  0  2  0  0  0  0  0  0  0  0  0
  137.1450   73.5970  222.5170 N   0  0  0  0  0  0  0  0  0  0  0  0
  135.8380   74.1090  222.7340 C   0  0  0  0  0  0  0  0  0  0  0  0
  134.7970   73.4840  222.3990 O   0  0  0  0  0  0  0  0  0  0  0  0
  135.6810   75.4390  223.3820 C   0  0  0  0  0  0  0  0  0  0  0  0
  137.0130   76.0150  223.4880 N   0  0  0  0  0  0  0  0  0  0  0  0
  137.3740   77.0760  222.6210 C   0  0  0  0  0  0  0  0  0  0  0  0
  136.5240   77.4760  221.7940 O   0  0  0  0  0  0  0  0  0  0  0  0
  138.7020   77.6770  222.7020 C   0  0  0  0  0  0  0  0  0  0  0  0
  139.8000   76.9760  222.2480 C   0  0  0  0  0  0  0  0  0  0  0  0
  141.0860   77.4730  222.2910 C   0  0  0  0  0  0  0  0  0  0  0  0
  141.2680   78.7460  222.8200 C   0  0  0  0  0  0  0  0  0  0  0  0
  142.5230   79.3110  222.8950 C   0  0  0  0  0  0  0  0  0  0  0  0
  142.7160   80.5820  223.4230 C   0  0  0  0  0  0  0  0  0  0  0  0
  141.5990   81.2650  223.8710 C   0  0  0  0  0  0  0  0  0  0  0  0
  140.3310   80.7020  223.7970 C   0  0  0  0  0  0  0  0  0  0  0  0
  140.1600   79.4390  223.2710 C   0  0  0  0  0  0  0  0  0  0  0  0
  138.9090   78.9100  223.2100 N   0  0  0  0  0  0  0  0  0  0  0  0
  138.7090   71.9200  221.5910 C   0  0  1  0  0  0  0  0  0  0  0  0
  139.0790   72.2890  220.1610 C   0  0  0  0  0  0  0  0  0  0  0  0
  139.8900   73.5480  220.2370 C   0  0  0  0  0  0  0  0  0  0  0  0
  140.0130   73.8300  221.7190 C   0  0  0  0  0  0  0  0  0  0  0  0
  139.6370   72.6350  222.4050 N   0  0  0  0  0  0  0  0  0  0  0  0
  140.7040   71.8720  222.9650 C   0  0  0  0  0  0  0  0  0  0  0  0
  140.4490   71.2700  224.2740 C   0  0  0  0  0  0  0  0  0  0  0  0
  140.9710   71.7890  225.4550 C   0  0  0  0  0  0  0  0  0  0  0  0
  140.7270   71.2160  226.6860 C   0  0  0  0  0  0  0  0  0  0  0  0
  139.9460   70.0920  226.8020 C   0  0  0  0  0  0  0  0  0  0  0  0
  139.5950   69.3130  228.3280 Cl  0  0  0  0  0  0  0  0  0  0  0  0
  139.4160   69.5570  225.6520 C   0  0  0  0  0  0  0  0  0  0  0  0
  139.6650   70.1360  224.4160 C   0  0  0  0  0  0  0  0  0  0  0  0
  135.4666   72.5945  220.7256 H   0  0  0  0  0  0  0  0  0  0  0  0
  136.9529   73.2622  219.9695 H   0  0  0  0  0  0  0  0  0  0  0  0
  136.6639   71.4893  219.9695 H   0  0  0  0  0  0  0  0  0  0  0  0
  136.8668   71.5294  222.5547 H   0  0  0  0  0  0  0  0  0  0  0  0
  138.0210   74.0970  222.7860 H   0  0  0  0  0  0  0  0  0  0  0  0
  135.0366   76.0856  222.7682 H   0  0  0  0  0  0  0  0  0  0  0  0
  135.2128   75.3425  224.3727 H   0  0  0  0  0  0  0  0  0  0  0  0
  137.7280   75.6890  224.1740 H   0  0  0  0  0  0  0  0  0  0  0  0
  139.6421   75.9705  221.8309 H   0  0  0  0  0  0  0  0  0  0  0  0
  141.9372   76.8833  221.9200 H   0  0  0  0  0  0  0  0  0  0  0  0
  143.3911   78.7433  222.5288 H   0  0  0  0  0  0  0  0  0  0  0  0
  143.7195   81.0285  223.4826 H   0  0  0  0  0  0  0  0  0  0  0  0
  141.7173   82.2735  224.2940 H   0  0  0  0  0  0  0  0  0  0  0  0
  139.4594   81.2665  224.1598 H   0  0  0  0  0  0  0  0  0  0  0  0
  138.7688   70.8384  221.7821 H   0  0  0  0  0  0  0  0  0  0  0  0
  139.6715   71.4834  219.7028 H   0  0  0  0  0  0  0  0  0  0  0  0
  138.1796   72.4343  219.5445 H   0  0  0  0  0  0  0  0  0  0  0  0
  140.8821   73.3994  219.7857 H   0  0  0  0  0  0  0  0  0  0  0  0
  139.4230   74.3803  219.6900 H   0  0  0  0  0  0  0  0  0  0  0  0
  141.0506   74.0976  221.9676 H   0  0  0  0  0  0  0  0  0  0  0  0
  139.3675   74.6707  222.0131 H   0  0  0  0  0  0  0  0  0  0  0  0
  140.9407   71.0596  222.2622 H   0  0  0  0  0  0  0  0  0  0  0  0
  141.5253   72.5863  223.1240 H   0  0  0  0  0  0  0  0  0  0  0  0
  141.6013   72.6892  225.4052 H   0  0  0  0  0  0  0  0  0  0  0  0
  141.1649   71.6664  227.5890 H   0  0  0  0  0  0  0  0  0  0  0  0
  138.7858   68.6574  225.7125 H   0  0  0  0  0  0  0  0  0  0  0  0
  139.2248   69.6791  223.5174 H   0  0  0  0  0  0  0  0  0  0  0  0
  1  2  1  0
  2  3  1  0
  3  4  1  0
  4  5  2  0
  4  6  1  0
  6  7  1  0
  7  8  1  0
  8  9  2  0
  8 10  1  0
 10 11  2  0
 11 12  1  0
 12 13  2  0
 13 14  1  0
 14 15  2  0
 15 16  1  0
 16 17  2  0
 17 18  1  0
 18 19  2  0
  2 20  1  0
 20 21  1  0
 21 22  1  0
 22 23  1  0
 23 24  1  0
 24 25  1  0
 25 26  1  0
 26 27  2  0
 27 28  1  0
 28 29  2  0
 29 30  1  0
 29 31  1  0
 31 32  2  0
 19 10  1  0
 24 20  1  0
 32 26  1  0
 18 13  1  0
  1 33  1  0
  1 34  1  0
  1 35  1  0
  2 36  1  1
  3 37  1  0
  6 38  1  0
  6 39  1  0
  7 40  1  0
 11 41  1  0
 12 42  1  0
 14 43  1  0
 15 44  1  0
 16 45  1  0
 17 46  1  0
 20 47  1  6
 21 48  1  0
 21 49  1  0
 22 50  1  0
 22 51  1  0
 23 52  1  0
 23 53  1  0
 25 54  1  0
 25 55  1  0
 27 56  1  0
 28 57  1  0
 31 58  1  0
 32 59  1  0
M  END
>  <smiles>  (2) 
C[C@H](NC(=O)CNC(=O)c1ccc2ccccc2n1)[C@H]1CCCN1Cc1ccc(Cl)cc1

>  <score_type>  (2) 
oracle

>  <origin>  (2) 
autodockgpu

>  <m_score__min__energy>  (2) 
-9.4600000000000009

>  <m_primary>  (2) 
energy

>  <rmsd>  (2) 
9.166644651583503

>  <m_score__min__rmsd>  (2) 
9.166644651583503

>  <meeko>  (2) 
{"free_energy": -8.34, "intermolecular_energy": -10.43, "internal_energy": -2.59, "cluster_size": 4, "cluster_id": 5, "rank_in_cluster": 2}

>  <energy>  (2) 
-9.35

>  <cluster_rmsd>  (2) 
0.45

>  <cluster>  (2) 
1

$$$$

     RDKit          3D

 59 62  0  0  0  0  0  0  0  0999 V2000
  143.9780   75.3690  216.8860 C   0  0  0  0  0  0  0  0  0  0  0  0
  142.4630   75.4880  217.1020 C   0  0  2  0  0  0  0  0  0  0  0  0
  142.1580   76.8980  216.9610 N   0  0  0  0  0  0  0  0  0  0  0  0
  142.5040   77.5380  215.7410 C   0  0  0  0  0  0  0  0  0  0  0  0
  143.0610   76.9330  214.7870 O   0  0  0  0  0  0  0  0  0  0  0  0
  142.2010   78.9850  215.5730 C   0  0  0  0  0  0  0  0  0  0  0  0
  142.3640   79.6040  216.8810 N   0  0  0  0  0  0  0  0  0  0  0  0
  141.2920   79.5490  217.8060 C   0  0  0  0  0  0  0  0  0  0  0  0
  140.2420   78.9640  217.4570 O   0  0  0  0  0  0  0  0  0  0  0  0
  141.4240   80.1590  219.1250 C   0  0  0  0  0  0  0  0  0  0  0  0
  140.9730   81.4460  219.3330 C   0  0  0  0  0  0  0  0  0  0  0  0
  141.0620   82.0930  220.5480 C   0  0  0  0  0  0  0  0  0  0  0  0
  141.6370   81.3990  221.6070 C   0  0  0  0  0  0  0  0  0  0  0  0
  141.7600   81.9780  222.8520 C   0  0  0  0  0  0  0  0  0  0  0  0
  142.3340   81.2940  223.9170 C   0  0  0  0  0  0  0  0  0  0  0  0
  142.7780   80.0040  223.6840 C   0  0  0  0  0  0  0  0  0  0  0  0
  142.6560   79.4150  222.4310 C   0  0  0  0  0  0  0  0  0  0  0  0
  142.0850   80.1090  221.3870 C   0  0  0  0  0  0  0  0  0  0  0  0
  141.9770   79.5110  220.1710 N   0  0  0  0  0  0  0  0  0  0  0  0
  142.1470   74.9460  218.4790 C   0  0  1  0  0  0  0  0  0  0  0  0
  143.3840   74.3120  219.1010 C   0  0  0  0  0  0  0  0  0  0  0  0
  143.9210   75.2990  220.0940 C   0  0  0  0  0  0  0  0  0  0  0  0
  142.9360   76.4480  220.0560 C   0  0  0  0  0  0  0  0  0  0  0  0
  141.7640   75.9720  219.3930 N   0  0  0  0  0  0  0  0  0  0  0  0
  140.6440   75.6880  220.2280 C   0  0  0  0  0  0  0  0  0  0  0  0
  140.1030   76.8160  220.9870 C   0  0  0  0  0  0  0  0  0  0  0  0
  140.3560   77.0000  222.3440 C   0  0  0  0  0  0  0  0  0  0  0  0
  139.8430   78.0660  223.0540 C   0  0  0  0  0  0  0  0  0  0  0  0
  139.0490   79.0070  222.4440 C   0  0  0  0  0  0  0  0  0  0  0  0
  138.3650   80.3820  223.2810 Cl  0  0  0  0  0  0  0  0  0  0  0  0
  138.7820   78.8520  221.1050 C   0  0  0  0  0  0  0  0  0  0  0  0
  139.3000   77.7780  220.3950 C   0  0  0  0  0  0  0  0  0  0  0  0
  144.4854   75.3291  217.8612 H   0  0  0  0  0  0  0  0  0  0  0  0
  144.1968   74.4509  216.3210 H   0  0  0  0  0  0  0  0  0  0  0  0
  144.3375   76.2417  216.3210 H   0  0  0  0  0  0  0  0  0  0  0  0
  141.8571   74.9148  216.3848 H   0  0  0  0  0  0  0  0  0  0  0  0
  141.6960   77.3800  217.7640 H   0  0  0  0  0  0  0  0  0  0  0  0
  142.8975   79.4363  214.8511 H   0  0  0  0  0  0  0  0  0  0  0  0
  141.1800   79.1326  215.1911 H   0  0  0  0  0  0  0  0  0  0  0  0
  143.2350   80.0930  217.1790 H   0  0  0  0  0  0  0  0  0  0  0  0
  140.5195   81.9835  218.4872 H   0  0  0  0  0  0  0  0  0  0  0  0
  140.6914   83.1209  220.6746 H   0  0  0  0  0  0  0  0  0  0  0  0
  141.3956   83.0044  223.0060 H   0  0  0  0  0  0  0  0  0  0  0  0
  142.4318   81.7606  224.9083 H   0  0  0  0  0  0  0  0  0  0  0  0
  143.2360   79.4342  224.5059 H   0  0  0  0  0  0  0  0  0  0  0  0
  143.0176   78.3884  222.2720 H   0  0  0  0  0  0  0  0  0  0  0  0
  141.3284   74.2270  218.3276 H   0  0  0  0  0  0  0  0  0  0  0  0
  143.1150   73.3731  219.6072 H   0  0  0  0  0  0  0  0  0  0  0  0
  144.1352   74.0743  218.3334 H   0  0  0  0  0  0  0  0  0  0  0  0
  143.9626   74.8554  221.0997 H   0  0  0  0  0  0  0  0  0  0  0  0
  144.9460   75.6183  219.8544 H   0  0  0  0  0  0  0  0  0  0  0  0
  142.6880   76.7668  221.0791 H   0  0  0  0  0  0  0  0  0  0  0  0
  143.3623   77.3129  219.5267 H   0  0  0  0  0  0  0  0  0  0  0  0
  139.8391   75.2966  219.5886 H   0  0  0  0  0  0  0  0  0  0  0  0
  141.0107   74.9747  220.9808 H   0  0  0  0  0  0  0  0  0  0  0  0
  140.9880   76.2687  222.8691 H   0  0  0  0  0  0  0  0  0  0  0  0
  140.0732   78.1641  224.1252 H   0  0  0  0  0  0  0  0  0  0  0  0
  138.1492   79.5891  220.5890 H   0  0  0  0  0  0  0  0  0  0  0  0
  139.0649   77.6870  219.3243 H   0  0  0  0  0  0  0  0  0  0  0  0
  1  2  1  0
  2  3  1  0
  3  4  1  0
  4  5  2  0
  4  6  1  0
  6  7  1  0
  7  8  1  0
  8  9  2  0
  8 10  1  0
 10 11  2  0
 11 12  1  0
 12 13  2  0
 13 14  1  0
 14 15  2  0
 15 16  1  0
 16 17  2  0
 17 18  1  0
 18 19  2  0
  2 20  1  0
 20 21  1  0
 21 22  1  0
 22 23  1  0
 23 24  1  0
 24 25  1  0
 25 26  1  0
 26 27  2  0
 27 28  1  0
 28 29  2  0
 29 30  1  0
 29 31  1  0
 31 32  2  0
 19 10  1  0
 24 20  1  0
 32 26  1  0
 18 13  1  0
  1 33  1  0
  1 34  1  0
  1 35  1  0
  2 36  1  6
  3 37  1  0
  6 38  1  0
  6 39  1  0
  7 40  1  0
 11 41  1  0
 12 42  1  0
 14 43  1  0
 15 44  1  0
 16 45  1  0
 17 46  1  0
 20 47  1  6
 21 48  1  0
 21 49  1  0
 22 50  1  0
 22 51  1  0
 23 52  1  0
 23 53  1  0
 25 54  1  0
 25 55  1  0
 27 56  1  0
 28 57  1  0
 31 58  1  0
 32 59  1  0
M  END
>  <smiles>  (3) 
C[C@H](NC(=O)CNC(=O)c1ccc2ccccc2n1)[C@H]1CCCN1Cc1ccc(Cl)cc1

>  <score_type>  (3) 
oracle

>  <origin>  (3) 
autodockgpu

>  <m_score__min__energy>  (3) 
-9.4600000000000009

>  <m_primary>  (3) 
energy

>  <rmsd>  (3) 
8.806346556173791

>  <m_score__min__rmsd>  (3) 
8.806346556173791

>  <meeko>  (3) 
{"free_energy": -5.81, "intermolecular_energy": -7.9, "internal_energy": -5.06, "cluster_size": 1, "cluster_id": 15, "rank_in_cluster": 1}

>  <energy>  (3) 
-9.34

>  <cluster_rmsd>  (3) 
0.18

>  <cluster>  (3) 
1

$$$$

     RDKit          3D

 59 62  0  0  0  0  0  0  0  0999 V2000
  139.7960   78.6700  223.0740 C   0  0  0  0  0  0  0  0  0  0  0  0
  139.1900   78.5220  221.6720 C   0  0  2  0  0  0  0  0  0  0  0  0
  139.6970   77.2660  221.1570 N   0  0  0  0  0  0  0  0  0  0  0  0
  139.3100   76.0690  221.8160 C   0  0  0  0  0  0  0  0  0  0  0  0
  138.5510   76.0580  222.8210 O   0  0  0  0  0  0  0  0  0  0  0  0
  139.8190   74.7670  221.3060 C   0  0  0  0  0  0  0  0  0  0  0  0
  139.5830   73.7830  222.3530 N   0  0  0  0  0  0  0  0  0  0  0  0
  140.4610   72.6770  222.4660 C   0  0  0  0  0  0  0  0  0  0  0  0
  141.4100   72.5920  221.6550 O   0  0  0  0  0  0  0  0  0  0  0  0
  140.2530   71.6730  223.5050 C   0  0  0  0  0  0  0  0  0  0  0  0
  139.5900   70.5010  223.2040 C   0  0  0  0  0  0  0  0  0  0  0  0
  139.3530   69.5060  224.1280 C   0  0  0  0  0  0  0  0  0  0  0  0
  139.8120   69.7080  225.4250 C   0  0  0  0  0  0  0  0  0  0  0  0
  139.6140   68.7580  226.4050 C   0  0  0  0  0  0  0  0  0  0  0  0
  140.0680   68.9510  227.7040 C   0  0  0  0  0  0  0  0  0  0  0  0
  140.7300   70.1340  227.9820 C   0  0  0  0  0  0  0  0  0  0  0  0
  140.9330   71.0940  226.9990 C   0  0  0  0  0  0  0  0  0  0  0  0
  140.4760   70.8860  225.7160 C   0  0  0  0  0  0  0  0  0  0  0  0
  140.6870   71.8420  224.7710 N   0  0  0  0  0  0  0  0  0  0  0  0
  139.6220   79.7190  220.8510 C   0  0  1  0  0  0  0  0  0  0  0  0
  140.3340   80.7390  221.7290 C   0  0  0  0  0  0  0  0  0  0  0  0
  141.8020   80.5840  221.4670 C   0  0  0  0  0  0  0  0  0  0  0  0
  141.8840   79.5170  220.3970 C   0  0  0  0  0  0  0  0  0  0  0  0
  140.5740   79.3750  219.8470 N   0  0  0  0  0  0  0  0  0  0  0  0
  140.3700   79.9520  218.5590 C   0  0  0  0  0  0  0  0  0  0  0  0
  141.2460   81.0700  218.2070 C   0  0  0  0  0  0  0  0  0  0  0  0
  140.9500   82.3900  218.5350 C   0  0  0  0  0  0  0  0  0  0  0  0
  141.7800   83.4400  218.2010 C   0  0  0  0  0  0  0  0  0  0  0  0
  142.9530   83.2250  217.5190 C   0  0  0  0  0  0  0  0  0  0  0  0
  144.0530   84.5070  217.0620 Cl  0  0  0  0  0  0  0  0  0  0  0  0
  143.2720   81.9310  217.1810 C   0  0  0  0  0  0  0  0  0  0  0  0
  142.4350   80.8790  217.5190 C   0  0  0  0  0  0  0  0  0  0  0  0
  139.0203   78.4806  223.8306 H   0  0  0  0  0  0  0  0  0  0  0  0
  140.6141   77.9453  223.1982 H   0  0  0  0  0  0  0  0  0  0  0  0
  140.1880   79.6903  223.1982 H   0  0  0  0  0  0  0  0  0  0  0  0
  138.0903   78.5006  221.6548 H   0  0  0  0  0  0  0  0  0  0  0  0
  140.3250   77.2980  220.3240 H   0  0  0  0  0  0  0  0  0  0  0  0
  139.2799   74.4822  220.3904 H   0  0  0  0  0  0  0  0  0  0  0  0
  140.8890   74.8313  221.0591 H   0  0  0  0  0  0  0  0  0  0  0  0
  138.7950   73.8460  223.0320 H   0  0  0  0  0  0  0  0  0  0  0  0
  139.2324   70.3532  222.1743 H   0  0  0  0  0  0  0  0  0  0  0  0
  138.8198   68.5851  223.8494 H   0  0  0  0  0  0  0  0  0  0  0  0
  139.0851   67.8271  226.1528 H   0  0  0  0  0  0  0  0  0  0  0  0
  139.9071   68.1912  228.4829 H   0  0  0  0  0  0  0  0  0  0  0  0
  141.1024   70.3175  229.0006 H   0  0  0  0  0  0  0  0  0  0  0  0
  141.4620   72.0262  227.2464 H   0  0  0  0  0  0  0  0  0  0  0  0
  138.6985   80.1120  220.4007 H   0  0  0  0  0  0  0  0  0  0  0  0
  140.0079   81.7567  221.4683 H   0  0  0  0  0  0  0  0  0  0  0  0
  140.1027   80.5757  222.7919 H   0  0  0  0  0  0  0  0  0  0  0  0
  142.2350   81.5292  221.1078 H   0  0  0  0  0  0  0  0  0  0  0  0
  142.3628   80.3121  222.3734 H   0  0  0  0  0  0  0  0  0  0  0  0
  142.5919   79.8225  219.6125 H   0  0  0  0  0  0  0  0  0  0  0  0
  142.2377   78.5647  220.8189 H   0  0  0  0  0  0  0  0  0  0  0  0
  140.5177   79.1607  217.8093 H   0  0  0  0  0  0  0  0  0  0  0  0
  139.3528   80.3700  218.5809 H   0  0  0  0  0  0  0  0  0  0  0  0
  140.0193   82.6039  219.0810 H   0  0  0  0  0  0  0  0  0  0  0  0
  141.4984   84.4647  218.4850 H   0  0  0  0  0  0  0  0  0  0  0  0
  144.2048   81.7276  216.6346 H   0  0  0  0  0  0  0  0  0  0  0  0
  142.7238   79.8573  217.2316 H   0  0  0  0  0  0  0  0  0  0  0  0
  1  2  1  0
  2  3  1  0
  3  4  1  0
  4  5  2  0
  4  6  1  0
  6  7  1  0
  7  8  1  0
  8  9  2  0
  8 10  1  0
 10 11  2  0
 11 12  1  0
 12 13  2  0
 13 14  1  0
 14 15  2  0
 15 16  1  0
 16 17  2  0
 17 18  1  0
 18 19  2  0
  2 20  1  0
 20 21  1  0
 21 22  1  0
 22 23  1  0
 23 24  1  0
 24 25  1  0
 25 26  1  0
 26 27  2  0
 27 28  1  0
 28 29  2  0
 29 30  1  0
 29 31  1  0
 31 32  2  0
 19 10  1  0
 24 20  1  0
 32 26  1  0
 18 13  1  0
  1 33  1  0
  1 34  1  0
  1 35  1  0
  2 36  1  1
  3 37  1  0
  6 38  1  0
  6 39  1  0
  7 40  1  0
 11 41  1  0
 12 42  1  0
 14 43  1  0
 15 44  1  0
 16 45  1  0
 17 46  1  0
 20 47  1  6
 21 48  1  0
 21 49  1  0
 22 50  1  0
 22 51  1  0
 23 52  1  0
 23 53  1  0
 25 54  1  0
 25 55  1  0
 27 56  1  0
 28 57  1  0
 31 58  1  0
 32 59  1  0
M  END
>  <smiles>  (4) 
C[C@H](NC(=O)CNC(=O)c1ccc2ccccc2n1)[C@H]1CCCN1Cc1ccc(Cl)cc1

>  <score_type>  (4) 
oracle

>  <origin>  (4) 
autodockgpu

>  <m_score__min__energy>  (4) 
-9.4600000000000009

>  <m_primary>  (4) 
energy

>  <rmsd>  (4) 
3.0679419159789645

>  <m_score__min__rmsd>  (4) 
3.0679419159789645

>  <meeko>  (4) 
{"free_energy": -7.9, "intermolecular_energy": -9.99, "internal_energy": -2.7, "cluster_size": 3, "cluster_id": 3, "rank_in_cluster": 3}

>  <energy>  (4) 
-9.21

>  <cluster_rmsd>  (4) 
0.47

>  <cluster>  (4) 
1

$$$$

     RDKit          3D

 59 62  0  0  0  0  0  0  0  0999 V2000
  142.6540   71.1160  219.9800 C   0  0  0  0  0  0  0  0  0  0  0  0
  142.6910   72.2540  221.0100 C   0  0  2  0  0  0  0  0  0  0  0  0
  141.4090   72.9220  220.9000 N   0  0  0  0  0  0  0  0  0  0  0  0
  140.4120   72.6180  221.8650 C   0  0  0  0  0  0  0  0  0  0  0  0
  140.5980   71.7970  222.8020 O   0  0  0  0  0  0  0  0  0  0  0  0
  139.0890   73.2910  221.7720 C   0  0  0  0  0  0  0  0  0  0  0  0
  139.2570   74.6270  222.3240 N   0  0  0  0  0  0  0  0  0  0  0  0
  139.8020   75.6460  221.5030 C   0  0  0  0  0  0  0  0  0  0  0  0
  140.1170   75.3510  220.3290 O   0  0  0  0  0  0  0  0  0  0  0  0
  139.9820   76.9970  222.0250 C   0  0  0  0  0  0  0  0  0  0  0  0
  138.8950   77.8390  222.1380 C   0  0  0  0  0  0  0  0  0  0  0  0
  138.9830   79.1280  222.6200 C   0  0  0  0  0  0  0  0  0  0  0  0
  140.2380   79.5880  223.0070 C   0  0  0  0  0  0  0  0  0  0  0  0
  140.4050   80.8640  223.5000 C   0  0  0  0  0  0  0  0  0  0  0  0
  141.6540   81.3330  223.8890 C   0  0  0  0  0  0  0  0  0  0  0  0
  142.7290   80.4700  223.7660 C   0  0  0  0  0  0  0  0  0  0  0  0
  142.5660   79.1820  223.2710 C   0  0  0  0  0  0  0  0  0  0  0  0
  141.3200   78.7340  222.8890 C   0  0  0  0  0  0  0  0  0  0  0  0
  141.1860   77.4700  222.4080 N   0  0  0  0  0  0  0  0  0  0  0  0
  143.8610   73.1510  220.6670 C   0  0  1  0  0  0  0  0  0  0  0  0
  144.9950   72.3410  220.0550 C   0  0  0  0  0  0  0  0  0  0  0  0
  144.9460   72.5790  218.5750 C   0  0  0  0  0  0  0  0  0  0  0  0
  143.8190   73.5720  218.3900 C   0  0  0  0  0  0  0  0  0  0  0  0
  143.5300   74.1220  219.6760 N   0  0  0  0  0  0  0  0  0  0  0  0
  143.9990   75.4480  219.9090 C   0  0  0  0  0  0  0  0  0  0  0  0
  143.2950   76.5160  219.1970 C   0  0  0  0  0  0  0  0  0  0  0  0
  143.3380   76.6510  217.8120 C   0  0  0  0  0  0  0  0  0  0  0  0
  142.6730   77.6600  217.1460 C   0  0  0  0  0  0  0  0  0  0  0  0
  141.9260   78.5870  217.8310 C   0  0  0  0  0  0  0  0  0  0  0  0
  141.0570   79.8920  217.0540 Cl  0  0  0  0  0  0  0  0  0  0  0  0
  141.8640   78.4780  219.2000 C   0  0  0  0  0  0  0  0  0  0  0  0
  142.5350   77.4630  219.8650 C   0  0  0  0  0  0  0  0  0  0  0  0
  142.6226   70.1489  220.5031 H   0  0  0  0  0  0  0  0  0  0  0  0
  141.7588   71.2211  219.3495 H   0  0  0  0  0  0  0  0  0  0  0  0
  143.5541   71.1627  219.3495 H   0  0  0  0  0  0  0  0  0  0  0  0
  142.8354   71.9210  222.0484 H   0  0  0  0  0  0  0  0  0  0  0  0
  141.2780   73.5980  220.1160 H   0  0  0  0  0  0  0  0  0  0  0  0
  138.7686   73.3529  220.7215 H   0  0  0  0  0  0  0  0  0  0  0  0
  138.3210   72.7296  222.3242 H   0  0  0  0  0  0  0  0  0  0  0  0
  138.9970   74.8820  223.3010 H   0  0  0  0  0  0  0  0  0  0  0  0
  137.9087   77.4633  221.8281 H   0  0  0  0  0  0  0  0  0  0  0  0
  138.0928   79.7697  222.6959 H   0  0  0  0  0  0  0  0  0  0  0  0
  139.5306   81.5257  223.5875 H   0  0  0  0  0  0  0  0  0  0  0  0
  141.7835   82.3528  224.2804 H   0  0  0  0  0  0  0  0  0  0  0  0
  143.7312   80.8102  224.0658 H   0  0  0  0  0  0  0  0  0  0  0  0
  143.4369   78.5158  223.1835 H   0  0  0  0  0  0  0  0  0  0  0  0
  144.1438   73.6341  221.6139 H   0  0  0  0  0  0  0  0  0  0  0  0
  145.9613   72.6752  220.4607 H   0  0  0  0  0  0  0  0  0  0  0  0
  144.8867   71.2712  220.2871 H   0  0  0  0  0  0  0  0  0  0  0  0
  145.8974   72.9990  218.2167 H   0  0  0  0  0  0  0  0  0  0  0  0
  144.7846   71.6512  218.0065 H   0  0  0  0  0  0  0  0  0  0  0  0
  144.1285   74.3700  217.6990 H   0  0  0  0  0  0  0  0  0  0  0  0
  142.9308   73.0820  217.9646 H   0  0  0  0  0  0  0  0  0  0  0  0
  143.9134   75.6499  220.9869 H   0  0  0  0  0  0  0  0  0  0  0  0
  145.0298   75.4678  219.5256 H   0  0  0  0  0  0  0  0  0  0  0  0
  143.9237   75.9266  217.2271 H   0  0  0  0  0  0  0  0  0  0  0  0
  142.7422   77.7229  216.0500 H   0  0  0  0  0  0  0  0  0  0  0  0
  141.2739   79.2061  219.7759 H   0  0  0  0  0  0  0  0  0  0  0  0
  142.4615   77.4075  220.9611 H   0  0  0  0  0  0  0  0  0  0  0  0
  1  2  1  0
  2  3  1  0
  3  4  1  0
  4  5  2  0
  4  6  1  0
  6  7  1  0
  7  8  1  0
  8  9  2  0
  8 10  1  0
 10 11  2  0
 11 12  1  0
 12 13  2  0
 13 14  1  0
 14 15  2  0
 15 16  1  0
 16 17  2  0
 17 18  1  0
 18 19  2  0
  2 20  1  0
 20 21  1  0
 21 22  1  0
 22 23  1  0
 23 24  1  0
 24 25  1  0
 25 26  1  0
 26 27  2  0
 27 28  1  0
 28 29  2  0
 29 30  1  0
 29 31  1  0
 31 32  2  0
 19 10  1  0
 24 20  1  0
 32 26  1  0
 18 13  1  0
  1 33  1  0
  1 34  1  0
  1 35  1  0
  2 36  1  1
  3 37  1  0
  6 38  1  0
  6 39  1  0
  7 40  1  0
 11 41  1  0
 12 42  1  0
 14 43  1  0
 15 44  1  0
 16 45  1  0
 17 46  1  0
 20 47  1  1
 21 48  1  0
 21 49  1  0
 22 50  1  0
 22 51  1  0
 23 52  1  0
 23 53  1  0
 25 54  1  0
 25 55  1  0
 27 56  1  0
 28 57  1  0
 31 58  1  0
 32 59  1  0
M  END
>  <smiles>  (5) 
C[C@H](NC(=O)CNC(=O)c1ccc2ccccc2n1)[C@H]1CCCN1Cc1ccc(Cl)cc1

>  <score_type>  (5) 
oracle

>  <origin>  (5) 
autodockgpu

>  <m_score__min__energy>  (5) 
-9.4600000000000009

>  <m_primary>  (5) 
energy

>  <rmsd>  (5) 
7.368830175250838

>  <m_score__min__rmsd>  (5) 
7.368830175250838

>  <meeko>  (5) 
{"free_energy": -7.25, "intermolecular_energy": -9.33, "internal_energy": -3.66, "cluster_size": 2, "cluster_id": 10, "rank_in_cluster": 1}

>  <energy>  (5) 
-9.18

>  <cluster_rmsd>  (5) 
0.85

>  <cluster>  (5) 
1

$$$$

     RDKit          3D

 59 62  0  0  0  0  0  0  0  0999 V2000
  143.4140   75.9350  216.9010 C   0  0  0  0  0  0  0  0  0  0  0  0
  143.2600   76.9150  218.0720 C   0  0  2  0  0  0  0  0  0  0  0  0
  142.4720   76.2150  219.0670 N   0  0  0  0  0  0  0  0  0  0  0  0
  143.1200   75.2320  219.8620 C   0  0  0  0  0  0  0  0  0  0  0  0
  144.3410   74.9490  219.7360 O   0  0  0  0  0  0  0  0  0  0  0  0
  142.3320   74.5000  220.8900 C   0  0  0  0  0  0  0  0  0  0  0  0
  141.4730   75.4800  221.5390 N   0  0  0  0  0  0  0  0  0  0  0  0
  140.2120   75.7770  220.9640 C   0  0  0  0  0  0  0  0  0  0  0  0
  139.8870   75.1790  219.9150 O   0  0  0  0  0  0  0  0  0  0  0  0
  139.3270   76.7540  221.5910 C   0  0  0  0  0  0  0  0  0  0  0  0
  137.9730   76.7210  221.3270 C   0  0  0  0  0  0  0  0  0  0  0  0
  137.0730   77.6090  221.8770 C   0  0  0  0  0  0  0  0  0  0  0  0
  137.5700   78.5800  222.7400 C   0  0  0  0  0  0  0  0  0  0  0  0
  136.7320   79.5020  223.3300 C   0  0  0  0  0  0  0  0  0  0  0  0
  137.2180   80.4770  224.1920 C   0  0  0  0  0  0  0  0  0  0  0  0
  138.5790   80.4900  224.4410 C   0  0  0  0  0  0  0  0  0  0  0  0
  139.4290   79.5630  223.8500 C   0  0  0  0  0  0  0  0  0  0  0  0
  138.9290   78.6030  222.9970 C   0  0  0  0  0  0  0  0  0  0  0  0
  139.7810   77.7080  222.4300 N   0  0  0  0  0  0  0  0  0  0  0  0
  142.5830   78.1630  217.5460 C   0  0  1  0  0  0  0  0  0  0  0  0
  142.3120   78.0350  216.0530 C   0  0  0  0  0  0  0  0  0  0  0  0
  140.8550   77.7120  215.9050 C   0  0  0  0  0  0  0  0  0  0  0  0
  140.3190   77.7260  217.3210 C   0  0  0  0  0  0  0  0  0  0  0  0
  141.3000   78.3730  218.1330 N   0  0  0  0  0  0  0  0  0  0  0  0
  141.0000   79.7080  218.5330 C   0  0  0  0  0  0  0  0  0  0  0  0
  141.3750   80.0720  219.9000 C   0  0  0  0  0  0  0  0  0  0  0  0
  141.2910   81.3750  220.3820 C   0  0  0  0  0  0  0  0  0  0  0  0
  141.6460   81.7120  221.6710 C   0  0  0  0  0  0  0  0  0  0  0  0
  142.1050   80.7610  222.5500 C   0  0  0  0  0  0  0  0  0  0  0  0
  142.5730   81.1150  224.1980 Cl  0  0  0  0  0  0  0  0  0  0  0  0
  142.1980   79.4640  222.1030 C   0  0  0  0  0  0  0  0  0  0  0  0
  141.8400   79.1310  220.8050 C   0  0  0  0  0  0  0  0  0  0  0  0
  143.5736   74.9191  217.2916 H   0  0  0  0  0  0  0  0  0  0  0  0
  142.5021   75.9523  216.2860 H   0  0  0  0  0  0  0  0  0  0  0  0
  144.2766   76.2311  216.2860 H   0  0  0  0  0  0  0  0  0  0  0  0
  144.2109   77.2324  218.5248 H   0  0  0  0  0  0  0  0  0  0  0  0
  141.4630   76.4660  219.1540 H   0  0  0  0  0  0  0  0  0  0  0  0
  141.7220   73.7183  220.4137 H   0  0  0  0  0  0  0  0  0  0  0  0
  142.9938   74.0108  221.6198 H   0  0  0  0  0  0  0  0  0  0  0  0
  141.7360   75.9840  222.4130 H   0  0  0  0  0  0  0  0  0  0  0  0
  137.5926   75.9476  220.6435 H   0  0  0  0  0  0  0  0  0  0  0  0
  136.0000   77.5516  221.6416 H   0  0  0  0  0  0  0  0  0  0  0  0
  135.6542   79.4648  223.1133 H   0  0  0  0  0  0  0  0  0  0  0  0
  136.5457   81.2116  224.6593 H   0  0  0  0  0  0  0  0  0  0  0  0
  138.9961   81.2486  225.1197 H   0  0  0  0  0  0  0  0  0  0  0  0
  140.5074   79.5957  224.0643 H   0  0  0  0  0  0  0  0  0  0  0  0
  143.2676   78.9897  217.7866 H   0  0  0  0  0  0  0  0  0  0  0  0
  142.5440   78.9817  215.5432 H   0  0  0  0  0  0  0  0  0  0  0  0
  142.9386   77.2507  215.6032 H   0  0  0  0  0  0  0  0  0  0  0  0
  140.3489   78.4707  215.2900 H   0  0  0  0  0  0  0  0  0  0  0  0
  140.6888   76.7470  215.4039 H   0  0  0  0  0  0  0  0  0  0  0  0
  139.3703   78.2814  217.3602 H   0  0  0  0  0  0  0  0  0  0  0  0
  140.1268   76.7034  217.6779 H   0  0  0  0  0  0  0  0  0  0  0  0
  141.5252   80.3898  217.8480 H   0  0  0  0  0  0  0  0  0  0  0  0
  139.9034   79.7869  218.4974 H   0  0  0  0  0  0  0  0  0  0  0  0
  140.9277   82.1658  219.7092 H   0  0  0  0  0  0  0  0  0  0  0  0
  141.5604   82.7580  222.0006 H   0  0  0  0  0  0  0  0  0  0  0  0
  142.5611   78.6801  222.7839 H   0  0  0  0  0  0  0  0  0  0  0  0
  141.9283   78.0830  220.4825 H   0  0  0  0  0  0  0  0  0  0  0  0
  1  2  1  0
  2  3  1  0
  3  4  1  0
  4  5  2  0
  4  6  1  0
  6  7  1  0
  7  8  1  0
  8  9  2  0
  8 10  1  0
 10 11  2  0
 11 12  1  0
 12 13  2  0
 13 14  1  0
 14 15  2  0
 15 16  1  0
 16 17  2  0
 17 18  1  0
 18 19  2  0
  2 20  1  0
 20 21  1  0
 21 22  1  0
 22 23  1  0
 23 24  1  0
 24 25  1  0
 25 26  1  0
 26 27  2  0
 27 28  1  0
 28 29  2  0
 29 30  1  0
 29 31  1  0
 31 32  2  0
 19 10  1  0
 24 20  1  0
 32 26  1  0
 18 13  1  0
  1 33  1  0
  1 34  1  0
  1 35  1  0
  2 36  1  1
  3 37  1  0
  6 38  1  0
  6 39  1  0
  7 40  1  0
 11 41  1  0
 12 42  1  0
 14 43  1  0
 15 44  1  0
 16 45  1  0
 17 46  1  0
 20 47  1  6
 21 48  1  0
 21 49  1  0
 22 50  1  0
 22 51  1  0
 23 52  1  0
 23 53  1  0
 25 54  1  0
 25 55  1  0
 27 56  1  0
 28 57  1  0
 31 58  1  0
 32 59  1  0
M  END
>  <smiles>  (6) 
C[C@H](NC(=O)CNC(=O)c1ccc2ccccc2n1)[C@H]1CCCN1Cc1ccc(Cl)cc1

>  <score_type>  (6) 
oracle

>  <origin>  (6) 
autodockgpu

>  <m_score__min__energy>  (6) 
-9.4600000000000009

>  <m_primary>  (6) 
energy

>  <rmsd>  (6) 
6.578680567665681

>  <m_score__min__rmsd>  (6) 
6.578680567665681

>  <meeko>  (6) 
{"free_energy": -6.03, "intermolecular_energy": -8.12, "internal_energy": -4.79, "cluster_size": 3, "cluster_id": 14, "rank_in_cluster": 3}

>  <energy>  (6) 
-8.96

>  <cluster_rmsd>  (6) 
0.95

>  <cluster>  (6) 
1

$$$$

     RDKit          3D

 59 62  0  0  0  0  0  0  0  0999 V2000
  136.8630   76.6800  221.4390 C   0  0  0  0  0  0  0  0  0  0  0  0
  137.2680   75.9940  222.7510 C   0  0  2  0  0  0  0  0  0  0  0  0
  138.1240   74.8890  222.3670 N   0  0  0  0  0  0  0  0  0  0  0  0
  139.2940   75.1800  221.6170 C   0  0  0  0  0  0  0  0  0  0  0  0
  139.6130   76.3500  221.2760 O   0  0  0  0  0  0  0  0  0  0  0  0
  140.1880   74.0630  221.2110 C   0  0  0  0  0  0  0  0  0  0  0  0
  140.3320   73.1950  222.3710 N   0  0  0  0  0  0  0  0  0  0  0  0
  139.3730   72.1740  222.5880 C   0  0  0  0  0  0  0  0  0  0  0  0
  138.4370   72.0600  221.7660 O   0  0  0  0  0  0  0  0  0  0  0  0
  139.4880   71.2870  223.7410 C   0  0  0  0  0  0  0  0  0  0  0  0
  138.8320   70.0730  223.7400 C   0  0  0  0  0  0  0  0  0  0  0  0
  138.8890   69.1810  224.7900 C   0  0  0  0  0  0  0  0  0  0  0  0
  139.6510   69.5360  225.8970 C   0  0  0  0  0  0  0  0  0  0  0  0
  139.7580   68.6960  226.9850 C   0  0  0  0  0  0  0  0  0  0  0  0
  140.5160   69.0410  228.0970 C   0  0  0  0  0  0  0  0  0  0  0  0
  141.1650   70.2640  228.0740 C   0  0  0  0  0  0  0  0  0  0  0  0
  141.0620   71.1150  226.9810 C   0  0  0  0  0  0  0  0  0  0  0  0
  140.3050   70.7550  225.8870 C   0  0  0  0  0  0  0  0  0  0  0  0
  140.2190   71.6050  224.8290 N   0  0  0  0  0  0  0  0  0  0  0  0
  136.0020   75.5500  223.4520 C   0  0  1  0  0  0  0  0  0  0  0  0
  134.7740   76.0700  222.7180 C   0  0  0  0  0  0  0  0  0  0  0  0
  134.2200   74.9180  221.9330 C   0  0  0  0  0  0  0  0  0  0  0  0
  135.1160   73.7520  222.2920 C   0  0  0  0  0  0  0  0  0  0  0  0
  135.8510   74.1320  223.4560 N   0  0  0  0  0  0  0  0  0  0  0  0
  135.4270   73.5450  224.6840 C   0  0  0  0  0  0  0  0  0  0  0  0
  134.4660   74.3180  225.4710 C   0  0  0  0  0  0  0  0  0  0  0  0
  133.1160   73.9870  225.5460 C   0  0  0  0  0  0  0  0  0  0  0  0
  132.2140   74.7200  226.2890 C   0  0  0  0  0  0  0  0  0  0  0  0
  132.6150   75.8260  226.9990 C   0  0  0  0  0  0  0  0  0  0  0  0
  131.5280   76.8020  227.9610 Cl  0  0  0  0  0  0  0  0  0  0  0  0
  133.9420   76.1780  226.9440 C   0  0  0  0  0  0  0  0  0  0  0  0
  134.8460   75.4370  226.1950 C   0  0  0  0  0  0  0  0  0  0  0  0
  136.3156   77.6072  221.6638 H   0  0  0  0  0  0  0  0  0  0  0  0
  137.7650   76.9188  220.8565 H   0  0  0  0  0  0  0  0  0  0  0  0
  136.2182   76.0056  220.8565 H   0  0  0  0  0  0  0  0  0  0  0  0
  137.8122   76.6439  223.4520 H   0  0  0  0  0  0  0  0  0  0  0  0
  137.8410   73.9290  222.6600 H   0  0  0  0  0  0  0  0  0  0  0  0
  139.7413   73.5057  220.3744 H   0  0  0  0  0  0  0  0  0  0  0  0
  141.1657   74.4416  220.8782 H   0  0  0  0  0  0  0  0  0  0  0  0
  141.1080   73.2820  223.0610 H   0  0  0  0  0  0  0  0  0  0  0  0
  138.2336   69.8033  222.8573 H   0  0  0  0  0  0  0  0  0  0  0  0
  138.3506   68.2225  224.7529 H   0  0  0  0  0  0  0  0  0  0  0  0
  139.2311   67.7305  226.9723 H   0  0  0  0  0  0  0  0  0  0  0  0
  140.5976   68.3679  228.9632 H   0  0  0  0  0  0  0  0  0  0  0  0
  141.7740   70.5676  228.9382 H   0  0  0  0  0  0  0  0  0  0  0  0
  141.5874   72.0814  226.9886 H   0  0  0  0  0  0  0  0  0  0  0  0
  136.0849   75.9409  224.4769 H   0  0  0  0  0  0  0  0  0  0  0  0
  134.0263   76.4316  223.4392 H   0  0  0  0  0  0  0  0  0  0  0  0
  135.0346   76.9098  222.0571 H   0  0  0  0  0  0  0  0  0  0  0  0
  133.1792   74.7132  222.2243 H   0  0  0  0  0  0  0  0  0  0  0  0
  134.2041   75.1169  220.8512 H   0  0  0  0  0  0  0  0  0  0  0  0
  134.5082   72.8599  222.5037 H   0  0  0  0  0  0  0  0  0  0  0  0
  135.7950   73.5089  221.4614 H   0  0  0  0  0  0  0  0  0  0  0  0
  134.9658   72.5741  224.4504 H   0  0  0  0  0  0  0  0  0  0  0  0
  136.3315   73.4782  225.3064 H   0  0  0  0  0  0  0  0  0  0  0  0
  132.7549   73.1080  224.9920 H   0  0  0  0  0  0  0  0  0  0  0  0
  131.1576   74.4144  226.3135 H   0  0  0  0  0  0  0  0  0  0  0  0
  134.2930   77.0591  227.5012 H   0  0  0  0  0  0  0  0  0  0  0  0
  135.9007   75.7489  226.1755 H   0  0  0  0  0  0  0  0  0  0  0  0
  1  2  1  0
  2  3  1  0
  3  4  1  0
  4  5  2  0
  4  6  1  0
  6  7  1  0
  7  8  1  0
  8  9  2  0
  8 10  1  0
 10 11  2  0
 11 12  1  0
 12 13  2  0
 13 14  1  0
 14 15  2  0
 15 16  1  0
 16 17  2  0
 17 18  1  0
 18 19  2  0
  2 20  1  0
 20 21  1  0
 21 22  1  0
 22 23  1  0
 23 24  1  0
 24 25  1  0
 25 26  1  0
 26 27  2  0
 27 28  1  0
 28 29  2  0
 29 30  1  0
 29 31  1  0
 31 32  2  0
 19 10  1  0
 24 20  1  0
 32 26  1  0
 18 13  1  0
  1 33  1  0
  1 34  1  0
  1 35  1  0
  2 36  1  1
  3 37  1  0
  6 38  1  0
  6 39  1  0
  7 40  1  0
 11 41  1  0
 12 42  1  0
 14 43  1  0
 15 44  1  0
 16 45  1  0
 17 46  1  0
 20 47  1  1
 21 48  1  0
 21 49  1  0
 22 50  1  0
 22 51  1  0
 23 52  1  0
 23 53  1  0
 25 54  1  0
 25 55  1  0
 27 56  1  0
 28 57  1  0
 31 58  1  0
 32 59  1  0
M  END
>  <smiles>  (7) 
C[C@H](NC(=O)CNC(=O)c1ccc2ccccc2n1)[C@H]1CCCN1Cc1ccc(Cl)cc1

>  <score_type>  (7) 
oracle

>  <origin>  (7) 
autodockgpu

>  <m_score__min__energy>  (7) 
-9.4600000000000009

>  <m_primary>  (7) 
energy

>  <rmsd>  (7) 
5.782055389753288

>  <m_score__min__rmsd>  (7) 
5.782055389753288

>  <meeko>  (7) 
{"free_energy": -7.27, "intermolecular_energy": -9.36, "internal_energy": -3.39, "cluster_size": 2, "cluster_id": 9, "rank_in_cluster": 1}

>  <energy>  (7) 
-8.91

>  <cluster_rmsd>  (7) 
1.91

>  <cluster>  (7) 
1

$$$$

     RDKit          3D

 59 62  0  0  0  0  0  0  0  0999 V2000
  143.5570   74.0330  220.1500 C   0  0  0  0  0  0  0  0  0  0  0  0
  142.4410   74.8280  220.8410 C   0  0  2  0  0  0  0  0  0  0  0  0
  141.2460   74.0170  220.7140 N   0  0  0  0  0  0  0  0  0  0  0  0
  140.1220   74.3530  221.5140 C   0  0  0  0  0  0  0  0  0  0  0  0
  140.1240   75.3200  222.3220 O   0  0  0  0  0  0  0  0  0  0  0  0
  138.8840   73.5350  221.4010 C   0  0  0  0  0  0  0  0  0  0  0  0
  138.8540   72.6550  222.5590 N   0  0  0  0  0  0  0  0  0  0  0  0
  139.8750   71.6830  222.7110 C   0  0  0  0  0  0  0  0  0  0  0  0
  140.7670   71.6250  221.8350 O   0  0  0  0  0  0  0  0  0  0  0  0
  139.8750   70.7850  223.8610 C   0  0  0  0  0  0  0  0  0  0  0  0
  139.2670   69.5500  223.7670 C   0  0  0  0  0  0  0  0  0  0  0  0
  139.2220   68.6460  224.8070 C   0  0  0  0  0  0  0  0  0  0  0  0
  139.8250   69.0120  226.0050 C   0  0  0  0  0  0  0  0  0  0  0  0
  139.8240   68.1610  227.0900 C   0  0  0  0  0  0  0  0  0  0  0  0
  140.4220   68.5180  228.2920 C   0  0  0  0  0  0  0  0  0  0  0  0
  141.0260   69.7610  228.3630 C   0  0  0  0  0  0  0  0  0  0  0  0
  141.0320   70.6230  227.2720 C   0  0  0  0  0  0  0  0  0  0  0  0
  140.4320   70.2520  226.0880 C   0  0  0  0  0  0  0  0  0  0  0  0
  140.4510   71.1130  225.0360 N   0  0  0  0  0  0  0  0  0  0  0  0
  142.3270   76.1680  220.1460 C   0  0  1  0  0  0  0  0  0  0  0  0
  143.3240   76.2620  219.0000 C   0  0  0  0  0  0  0  0  0  0  0  0
  142.5500   76.0350  217.7360 C   0  0  0  0  0  0  0  0  0  0  0  0
  141.1160   75.8790  218.1930 C   0  0  0  0  0  0  0  0  0  0  0  0
  141.0520   76.3580  219.5370 N   0  0  0  0  0  0  0  0  0  0  0  0
  140.4500   77.6380  219.7170 C   0  0  0  0  0  0  0  0  0  0  0  0
  140.9750   78.4490  220.8170 C   0  0  0  0  0  0  0  0  0  0  0  0
  140.7960   78.1090  222.1540 C   0  0  0  0  0  0  0  0  0  0  0  0
  141.2930   78.8770  223.1870 C   0  0  0  0  0  0  0  0  0  0  0  0
  141.9990   80.0290  222.9350 C   0  0  0  0  0  0  0  0  0  0  0  0
  142.6580   81.0510  224.1920 Cl  0  0  0  0  0  0  0  0  0  0  0  0
  142.1930   80.3900  221.6230 C   0  0  0  0  0  0  0  0  0  0  0  0
  141.6900   79.6140  220.5890 C   0  0  0  0  0  0  0  0  0  0  0  0
  144.2040   73.5721  220.9109 H   0  0  0  0  0  0  0  0  0  0  0  0
  143.1124   73.2470  219.5219 H   0  0  0  0  0  0  0  0  0  0  0  0
  144.1546   74.7100  219.5219 H   0  0  0  0  0  0  0  0  0  0  0  0
  142.6251   75.0334  221.9059 H   0  0  0  0  0  0  0  0  0  0  0  0
  141.2670   73.2220  220.0390 H   0  0  0  0  0  0  0  0  0  0  0  0
  137.9982   74.1872  221.3981 H   0  0  0  0  0  0  0  0  0  0  0  0
  138.8775   72.9564  220.4655 H   0  0  0  0  0  0  0  0  0  0  0  0
  138.1150   72.6960  223.2930 H   0  0  0  0  0  0  0  0  0  0  0  0
  138.7940   69.2724  222.8135 H   0  0  0  0  0  0  0  0  0  0  0  0
  138.7269   67.6704  224.6930 H   0  0  0  0  0  0  0  0  0  0  0  0
  139.3390   67.1777  227.0018 H   0  0  0  0  0  0  0  0  0  0  0  0
  140.4156   67.8373  229.1560 H   0  0  0  0  0  0  0  0  0  0  0  0
  141.5104   70.0730  229.3000 H   0  0  0  0  0  0  0  0  0  0  0  0
  141.5182   71.6063  227.3543 H   0  0  0  0  0  0  0  0  0  0  0  0
  142.5052   76.9185  220.9302 H   0  0  0  0  0  0  0  0  0  0  0  0
  143.7913   77.2577  218.9848 H   0  0  0  0  0  0  0  0  0  0  0  0
  144.1265   75.5180  219.1116 H   0  0  0  0  0  0  0  0  0  0  0  0
  142.6508   76.8957  217.0584 H   0  0  0  0  0  0  0  0  0  0  0  0
  142.9089   75.1580  217.1774 H   0  0  0  0  0  0  0  0  0  0  0  0
  140.4478   76.4698  217.5491 H   0  0  0  0  0  0  0  0  0  0  0  0
  140.7976   74.8277  218.1352 H   0  0  0  0  0  0  0  0  0  0  0  0
  140.5860   78.2071  218.7855 H   0  0  0  0  0  0  0  0  0  0  0  0
  139.3997   77.4364  219.9744 H   0  0  0  0  0  0  0  0  0  0  0  0
  140.2371   77.1932  222.3969 H   0  0  0  0  0  0  0  0  0  0  0  0
  141.1217   78.5627  224.2271 H   0  0  0  0  0  0  0  0  0  0  0  0
  142.7547   81.3066  221.3898 H   0  0  0  0  0  0  0  0  0  0  0  0
  141.8649   79.9347  219.5514 H   0  0  0  0  0  0  0  0  0  0  0  0
  1  2  1  0
  2  3  1  0
  3  4  1  0
  4  5  2  0
  4  6  1  0
  6  7  1  0
  7  8  1  0
  8  9  2  0
  8 10  1  0
 10 11  2  0
 11 12  1  0
 12 13  2  0
 13 14  1  0
 14 15  2  0
 15 16  1  0
 16 17  2  0
 17 18  1  0
 18 19  2  0
  2 20  1  0
 20 21  1  0
 21 22  1  0
 22 23  1  0
 23 24  1  0
 24 25  1  0
 25 26  1  0
 26 27  2  0
 27 28  1  0
 28 29  2  0
 29 30  1  0
 29 31  1  0
 31 32  2  0
 19 10  1  0
 24 20  1  0
 32 26  1  0
 18 13  1  0
  1 33  1  0
  1 34  1  0
  1 35  1  0
  2 36  1  1
  3 37  1  0
  6 38  1  0
  6 39  1  0
  7 40  1  0
 11 41  1  0
 12 42  1  0
 14 43  1  0
 15 44  1  0
 16 45  1  0
 17 46  1  0
 20 47  1  1
 21 48  1  0
 21 49  1  0
 22 50  1  0
 22 51  1  0
 23 52  1  0
 23 53  1  0
 25 54  1  0
 25 55  1  0
 27 56  1  0
 28 57  1  0
 31 58  1  0
 32 59  1  0
M  END
>  <smiles>  (8) 
C[C@H](NC(=O)CNC(=O)c1ccc2ccccc2n1)[C@H]1CCCN1Cc1ccc(Cl)cc1

>  <score_type>  (8) 
oracle

>  <origin>  (8) 
autodockgpu

>  <m_score__min__energy>  (8) 
-9.4600000000000009

>  <m_primary>  (8) 
energy

>  <rmsd>  (8) 
2.5954313984814568

>  <m_score__min__rmsd>  (8) 
2.5954313984814568

>  <meeko>  (8) 
{"free_energy": -9.34, "intermolecular_energy": -11.43, "internal_energy": -2.26, "cluster_size": 19, "cluster_id": 1, "rank_in_cluster": 3}

>  <energy>  (8) 
-8.72

>  <cluster_rmsd>  (8) 
1.32

>  <cluster>  (8) 
1

$$$$

     RDKit          3D

 59 62  0  0  0  0  0  0  0  0999 V2000
  137.6340   76.1130  222.7290 C   0  0  0  0  0  0  0  0  0  0  0  0
  138.6010   75.4070  221.7700 C   0  0  2  0  0  0  0  0  0  0  0  0
  138.3380   73.9890  221.9240 N   0  0  0  0  0  0  0  0  0  0  0  0
  138.1620   73.2110  220.7490 C   0  0  0  0  0  0  0  0  0  0  0  0
  138.2240   73.7020  219.5900 O   0  0  0  0  0  0  0  0  0  0  0  0
  137.8910   71.7550  220.8810 C   0  0  0  0  0  0  0  0  0  0  0  0
  138.2310   71.3850  222.2470 N   0  0  0  0  0  0  0  0  0  0  0  0
  139.5940   71.3670  222.6350 C   0  0  0  0  0  0  0  0  0  0  0  0
  140.4540   71.6730  221.7790 O   0  0  0  0  0  0  0  0  0  0  0  0
  139.9700   71.0010  223.9970 C   0  0  0  0  0  0  0  0  0  0  0  0
  140.6980   71.8840  224.7680 C   0  0  0  0  0  0  0  0  0  0  0  0
  141.0920   71.6130  226.0610 C   0  0  0  0  0  0  0  0  0  0  0  0
  140.7290   70.3850  226.6020 C   0  0  0  0  0  0  0  0  0  0  0  0
  141.0850   70.0420  227.8890 C   0  0  0  0  0  0  0  0  0  0  0  0
  140.7280   68.8170  228.4380 C   0  0  0  0  0  0  0  0  0  0  0  0
  139.9970   67.9480  227.6460 C   0  0  0  0  0  0  0  0  0  0  0  0
  139.6350   68.2880  226.3480 C   0  0  0  0  0  0  0  0  0  0  0  0
  139.9990   69.5080  225.8200 C   0  0  0  0  0  0  0  0  0  0  0  0
  139.6320   69.8170  224.5470 N   0  0  0  0  0  0  0  0  0  0  0  0
  140.0100   75.7960  222.1630 C   0  0  1  0  0  0  0  0  0  0  0  0
  141.0140   74.7900  221.6180 C   0  0  0  0  0  0  0  0  0  0  0  0
  141.6460   75.4200  220.4120 C   0  0  0  0  0  0  0  0  0  0  0  0
  141.0270   76.7990  220.3390 C   0  0  0  0  0  0  0  0  0  0  0  0
  140.4050   77.0460  221.6010 N   0  0  0  0  0  0  0  0  0  0  0  0
  141.0920   77.9420  222.4720 C   0  0  0  0  0  0  0  0  0  0  0  0
  140.9860   79.3650  222.1490 C   0  0  0  0  0  0  0  0  0  0  0  0
  141.7950   79.9830  221.2000 C   0  0  0  0  0  0  0  0  0  0  0  0
  141.6900   81.3250  220.8990 C   0  0  0  0  0  0  0  0  0  0  0  0
  140.7680   82.1230  221.5320 C   0  0  0  0  0  0  0  0  0  0  0  0
  140.5800   83.8310  221.2020 Cl  0  0  0  0  0  0  0  0  0  0  0  0
  139.9550   81.5400  222.4740 C   0  0  0  0  0  0  0  0  0  0  0  0
  140.0640   80.1900  222.7740 C   0  0  0  0  0  0  0  0  0  0  0  0
  137.9265   75.8994  223.7677 H   0  0  0  0  0  0  0  0  0  0  0  0
  137.6707   77.1983  222.5535 H   0  0  0  0  0  0  0  0  0  0  0  0
  136.6114   75.7475  222.5535 H   0  0  0  0  0  0  0  0  0  0  0  0
  138.4739   75.6847  220.7133 H   0  0  0  0  0  0  0  0  0  0  0  0
  138.2910   73.6050  222.8930 H   0  0  0  0  0  0  0  0  0  0  0  0
  136.8282   71.5487  220.6864 H   0  0  0  0  0  0  0  0  0  0  0  0
  138.4834   71.1765  220.1568 H   0  0  0  0  0  0  0  0  0  0  0  0
  137.5220   71.1280  222.9660 H   0  0  0  0  0  0  0  0  0  0  0  0
  140.9780   72.8529  224.3288 H   0  0  0  0  0  0  0  0  0  0  0  0
  141.6731   72.3427  226.6440 H   0  0  0  0  0  0  0  0  0  0  0  0
  141.6647   70.7543  228.4946 H   0  0  0  0  0  0  0  0  0  0  0  0
  141.0157   68.5471  229.4649 H   0  0  0  0  0  0  0  0  0  0  0  0
  139.6972   66.9704  228.0516 H   0  0  0  0  0  0  0  0  0  0  0  0
  139.0547   67.5795  225.7386 H   0  0  0  0  0  0  0  0  0  0  0  0
  140.0039   75.8411  223.2621 H   0  0  0  0  0  0  0  0  0  0  0  0
  141.7802   74.5706  222.3762 H   0  0  0  0  0  0  0  0  0  0  0  0
  140.5212   73.8421  221.3562 H   0  0  0  0  0  0  0  0  0  0  0  0
  142.7368   75.4892  220.5357 H   0  0  0  0  0  0  0  0  0  0  0  0
  141.4757   74.8352  219.4960 H   0  0  0  0  0  0  0  0  0  0  0  0
  141.8052   77.5525  220.1477 H   0  0  0  0  0  0  0  0  0  0  0  0
  140.2927   76.8565  219.5220 H   0  0  0  0  0  0  0  0  0  0  0  0
  140.6915   77.7973  223.4862 H   0  0  0  0  0  0  0  0  0  0  0  0
  142.1587   77.6949  222.3669 H   0  0  0  0  0  0  0  0  0  0  0  0
  142.5461   79.3787  220.6702 H   0  0  0  0  0  0  0  0  0  0  0  0
  142.3550   81.7632  220.1402 H   0  0  0  0  0  0  0  0  0  0  0  0
  139.2067   82.1528  222.9979 H   0  0  0  0  0  0  0  0  0  0  0  0
  139.3956   79.7593  223.5342 H   0  0  0  0  0  0  0  0  0  0  0  0
  1  2  1  0
  2  3  1  0
  3  4  1  0
  4  5  2  0
  4  6  1  0
  6  7  1  0
  7  8  1  0
  8  9  2  0
  8 10  1  0
 10 11  2  0
 11 12  1  0
 12 13  2  0
 13 14  1  0
 14 15  2  0
 15 16  1  0
 16 17  2  0
 17 18  1  0
 18 19  2  0
  2 20  1  0
 20 21  1  0
 21 22  1  0
 22 23  1  0
 23 24  1  0
 24 25  1  0
 25 26  1  0
 26 27  2  0
 27 28  1  0
 28 29  2  0
 29 30  1  0
 29 31  1  0
 31 32  2  0
 19 10  1  0
 24 20  1  0
 32 26  1  0
 18 13  1  0
  1 33  1  0
  1 34  1  0
  1 35  1  0
  2 36  1  6
  3 37  1  0
  6 38  1  0
  6 39  1  0
  7 40  1  0
 11 41  1  0
 12 42  1  0
 14 43  1  0
 15 44  1  0
 16 45  1  0
 17 46  1  0
 20 47  1  1
 21 48  1  0
 21 49  1  0
 22 50  1  0
 22 51  1  0
 23 52  1  0
 23 53  1  0
 25 54  1  0
 25 55  1  0
 27 56  1  0
 28 57  1  0
 31 58  1  0
 32 59  1  0
M  END
>  <smiles>  (9) 
C[C@H](NC(=O)CNC(=O)c1ccc2ccccc2n1)[C@H]1CCCN1Cc1ccc(Cl)cc1

>  <score_type>  (9) 
oracle

>  <origin>  (9) 
autodockgpu

>  <m_score__min__energy>  (9) 
-9.4600000000000009

>  <m_primary>  (9) 
energy

>  <rmsd>  (9) 
3.350993656045038

>  <m_score__min__rmsd>  (9) 
3.350993656045038

>  <meeko>  (9) 
{"free_energy": -8.34, "intermolecular_energy": -10.43, "internal_energy": -2.08, "cluster_size": 19, "cluster_id": 1, "rank_in_cluster": 12}

>  <energy>  (9) 
-8.57

>  <cluster_rmsd>  (9) 
1.22

>  <cluster>  (9) 
1

$$$$

     RDKit          3D

 59 62  0  0  0  0  0  0  0  0999 V2000
  142.0530   78.6470  223.4870 C   0  0  0  0  0  0  0  0  0  0  0  0
  140.6690   78.1620  223.0380 C   0  0  2  0  0  0  0  0  0  0  0  0
  140.8860   76.8580  222.4400 N   0  0  0  0  0  0  0  0  0  0  0  0
  139.7580   76.1610  221.9300 C   0  0  0  0  0  0  0  0  0  0  0  0
  138.5890   76.6280  221.9770 O   0  0  0  0  0  0  0  0  0  0  0  0
  139.9560   74.8220  221.3130 C   0  0  0  0  0  0  0  0  0  0  0  0
  139.6880   73.8370  222.3510 N   0  0  0  0  0  0  0  0  0  0  0  0
  140.5270   72.6980  222.4500 C   0  0  0  0  0  0  0  0  0  0  0  0
  141.4700   72.5890  221.6350 O   0  0  0  0  0  0  0  0  0  0  0  0
  140.2860   71.6920  223.4790 C   0  0  0  0  0  0  0  0  0  0  0  0
  139.6190   70.5280  223.1570 C   0  0  0  0  0  0  0  0  0  0  0  0
  139.3520   69.5310  224.0710 C   0  0  0  0  0  0  0  0  0  0  0  0
  139.7830   69.7220  225.3790 C   0  0  0  0  0  0  0  0  0  0  0  0
  139.5550   68.7690  226.3490 C   0  0  0  0  0  0  0  0  0  0  0  0
  139.9810   68.9510  227.6590 C   0  0  0  0  0  0  0  0  0  0  0  0
  140.6480   70.1260  227.9570 C   0  0  0  0  0  0  0  0  0  0  0  0
  140.8830   71.0900  226.9840 C   0  0  0  0  0  0  0  0  0  0  0  0
  140.4510   70.8920  225.6900 C   0  0  0  0  0  0  0  0  0  0  0  0
  140.6930   71.8500  224.7560 N   0  0  0  0  0  0  0  0  0  0  0  0
  140.1150   79.1780  222.0620 C   0  0  1  0  0  0  0  0  0  0  0  0
  138.9320   79.9160  222.6730 C   0  0  0  0  0  0  0  0  0  0  0  0
  139.4380   81.2590  223.1060 C   0  0  0  0  0  0  0  0  0  0  0  0
  140.8880   81.2750  222.6730 C   0  0  0  0  0  0  0  0  0  0  0  0
  141.0590   80.2000  221.7480 N   0  0  0  0  0  0  0  0  0  0  0  0
  141.1590   80.5670  220.3740 C   0  0  0  0  0  0  0  0  0  0  0  0
  141.7400   79.5650  219.4790 C   0  0  0  0  0  0  0  0  0  0  0  0
  142.0100   79.8220  218.1380 C   0  0  0  0  0  0  0  0  0  0  0  0
  142.5580   78.8730  217.2990 C   0  0  0  0  0  0  0  0  0  0  0  0
  142.8650   77.6160  217.7580 C   0  0  0  0  0  0  0  0  0  0  0  0
  143.5600   76.3640  216.7520 Cl  0  0  0  0  0  0  0  0  0  0  0  0
  142.6090   77.3330  219.0780 C   0  0  0  0  0  0  0  0  0  0  0  0
  142.0580   78.2900  219.9180 C   0  0  0  0  0  0  0  0  0  0  0  0
  142.0973   78.6625  224.5860 H   0  0  0  0  0  0  0  0  0  0  0  0
  142.8242   77.9656  223.0985 H   0  0  0  0  0  0  0  0  0  0  0  0
  142.2301   79.6608  223.0985 H   0  0  0  0  0  0  0  0  0  0  0  0
  139.9369   78.0674  223.8535 H   0  0  0  0  0  0  0  0  0  0  0  0
  141.8620   76.4920  222.4120 H   0  0  0  0  0  0  0  0  0  0  0  0
  139.2596   74.6856  220.4725 H   0  0  0  0  0  0  0  0  0  0  0  0
  140.9784   74.7149  220.9217 H   0  0  0  0  0  0  0  0  0  0  0  0
  138.9050   73.9200  223.0330 H   0  0  0  0  0  0  0  0  0  0  0  0
  139.2834   70.3884  222.1188 H   0  0  0  0  0  0  0  0  0  0  0  0
  138.8168   68.6165  223.7758 H   0  0  0  0  0  0  0  0  0  0  0  0
  139.0240   67.8440  226.0798 H   0  0  0  0  0  0  0  0  0  0  0  0
  139.7949   68.1893  228.4304 H   0  0  0  0  0  0  0  0  0  0  0  0
  140.9993   70.3006  228.9847 H   0  0  0  0  0  0  0  0  0  0  0  0
  141.4162   72.0153  227.2476 H   0  0  0  0  0  0  0  0  0  0  0  0
  139.8427   78.6022  221.1651 H   0  0  0  0  0  0  0  0  0  0  0  0
  138.1329   80.0348  221.9265 H   0  0  0  0  0  0  0  0  0  0  0  0
  138.5145   79.3577  223.5239 H   0  0  0  0  0  0  0  0  0  0  0  0
  138.8755   82.0645  222.6112 H   0  0  0  0  0  0  0  0  0  0  0  0
  139.3227   81.4206  224.1879 H   0  0  0  0  0  0  0  0  0  0  0  0
  141.1268   82.2328  222.1876 H   0  0  0  0  0  0  0  0  0  0  0  0
  141.5575   81.1591  223.5380 H   0  0  0  0  0  0  0  0  0  0  0  0
  140.1451   80.7928  220.0121 H   0  0  0  0  0  0  0  0  0  0  0  0
  141.8499   81.4225  220.3469 H   0  0  0  0  0  0  0  0  0  0  0  0
  141.7782   80.8177  217.7321 H   0  0  0  0  0  0  0  0  0  0  0  0
  142.7517   79.1276  216.2466 H   0  0  0  0  0  0  0  0  0  0  0  0
  142.8441   76.3341  219.4742 H   0  0  0  0  0  0  0  0  0  0  0  0
  141.8670   78.0273  220.9690 H   0  0  0  0  0  0  0  0  0  0  0  0
  1  2  1  0
  2  3  1  0
  3  4  1  0
  4  5  2  0
  4  6  1  0
  6  7  1  0
  7  8  1  0
  8  9  2  0
  8 10  1  0
 10 11  2  0
 11 12  1  0
 12 13  2  0
 13 14  1  0
 14 15  2  0
 15 16  1  0
 16 17  2  0
 17 18  1  0
 18 19  2  0
  2 20  1  0
 20 21  1  0
 21 22  1  0
 22 23  1  0
 23 24  1  0
 24 25  1  0
 25 26  1  0
 26 27  2  0
 27 28  1  0
 28 29  2  0
 29 30  1  0
 29 31  1  0
 31 32  2  0
 19 10  1  0
 24 20  1  0
 32 26  1  0
 18 13  1  0
  1 33  1  0
  1 34  1  0
  1 35  1  0
  2 36  1  1
  3 37  1  0
  6 38  1  0
  6 39  1  0
  7 40  1  0
 11 41  1  0
 12 42  1  0
 14 43  1  0
 15 44  1  0
 16 45  1  0
 17 46  1  0
 20 47  1  6
 21 48  1  0
 21 49  1  0
 22 50  1  0
 22 51  1  0
 23 52  1  0
 23 53  1  0
 25 54  1  0
 25 55  1  0
 27 56  1  0
 28 57  1  0
 31 58  1  0
 32 59  1  0
M  END
>  <smiles>  (10) 
C[C@H](NC(=O)CNC(=O)c1ccc2ccccc2n1)[C@H]1CCCN1Cc1ccc(Cl)cc1

>  <score_type>  (10) 
oracle

>  <origin>  (10) 
autodockgpu

>  <m_score__min__energy>  (10) 
-9.4600000000000009

>  <m_primary>  (10) 
energy

>  <rmsd>  (10) 
3.5308361261156165

>  <m_score__min__rmsd>  (10) 
3.5308361261156165

>  <meeko>  (10) 
{"free_energy": -9.33, "intermolecular_energy": -11.42, "internal_energy": -1.63, "cluster_size": 3, "cluster_id": 2, "rank_in_cluster": 1}

>  <energy>  (10) 
-8.5

>  <cluster_rmsd>  (10) 
1.23

>  <cluster>  (10) 
1

$$$$

     RDKit          3D

 59 62  0  0  0  0  0  0  0  0999 V2000
  143.4700   75.8860  216.8940 C   0  0  0  0  0  0  0  0  0  0  0  0
  143.2700   76.8330  218.0850 C   0  0  2  0  0  0  0  0  0  0  0  0
  142.4390   76.1080  219.0260 N   0  0  0  0  0  0  0  0  0  0  0  0
  143.0830   75.3020  220.0030 C   0  0  0  0  0  0  0  0  0  0  0  0
  144.3360   75.1950  220.0810 O   0  0  0  0  0  0  0  0  0  0  0  0
  142.2510   74.5490  220.9790 C   0  0  0  0  0  0  0  0  0  0  0  0
  141.3890   75.5200  221.6360 N   0  0  0  0  0  0  0  0  0  0  0  0
  140.1280   75.8180  221.0640 C   0  0  0  0  0  0  0  0  0  0  0  0
  139.8060   75.2280  220.0090 O   0  0  0  0  0  0  0  0  0  0  0  0
  139.2390   76.7870  221.6980 C   0  0  0  0  0  0  0  0  0  0  0  0
  137.8790   76.7150  221.4800 C   0  0  0  0  0  0  0  0  0  0  0  0
  136.9750   77.5920  222.0410 C   0  0  0  0  0  0  0  0  0  0  0  0
  137.4740   78.5940  222.8650 C   0  0  0  0  0  0  0  0  0  0  0  0
  136.6330   79.5070  223.4630 C   0  0  0  0  0  0  0  0  0  0  0  0
  137.1220   80.5130  224.2880 C   0  0  0  0  0  0  0  0  0  0  0  0
  138.4900   80.5650  224.4920 C   0  0  0  0  0  0  0  0  0  0  0  0
  139.3430   79.6460  223.8930 C   0  0  0  0  0  0  0  0  0  0  0  0
  138.8400   78.6560  223.0770 C   0  0  0  0  0  0  0  0  0  0  0  0
  139.6960   77.7690  222.5020 N   0  0  0  0  0  0  0  0  0  0  0  0
  142.6190   78.0980  217.5680 C   0  0  1  0  0  0  0  0  0  0  0  0
  142.3880   78.0040  216.0660 C   0  0  0  0  0  0  0  0  0  0  0  0
  140.9330   77.6990  215.8720 C   0  0  0  0  0  0  0  0  0  0  0  0
  140.3580   77.6890  217.2720 C   0  0  0  0  0  0  0  0  0  0  0  0
  141.3230   78.3080  218.1240 N   0  0  0  0  0  0  0  0  0  0  0  0
  141.0240   79.6380  218.5440 C   0  0  0  0  0  0  0  0  0  0  0  0
  141.3940   79.9790  219.9180 C   0  0  0  0  0  0  0  0  0  0  0  0
  141.8410   79.0300  220.8340 C   0  0  0  0  0  0  0  0  0  0  0  0
  142.1890   79.3570  222.1280 C   0  0  0  0  0  0  0  0  0  0  0  0
  142.1080   80.6530  222.5770 C   0  0  0  0  0  0  0  0  0  0  0  0
  142.5310   81.1400  224.2030 Cl  0  0  0  0  0  0  0  0  0  0  0  0
  141.6700   81.6120  221.6950 C   0  0  0  0  0  0  0  0  0  0  0  0
  141.3210   81.2780  220.3940 C   0  0  0  0  0  0  0  0  0  0  0  0
  143.6841   74.8723  217.2635 H   0  0  0  0  0  0  0  0  0  0  0  0
  142.5559   75.8679  216.2824 H   0  0  0  0  0  0  0  0  0  0  0  0
  144.3134   76.2391  216.2824 H   0  0  0  0  0  0  0  0  0  0  0  0
  144.2023   77.1336  218.5854 H   0  0  0  0  0  0  0  0  0  0  0  0
  141.4040   76.2120  218.9430 H   0  0  0  0  0  0  0  0  0  0  0  0
  141.6431   73.7958  220.4564 H   0  0  0  0  0  0  0  0  0  0  0  0
  142.8814   74.0227  221.7109 H   0  0  0  0  0  0  0  0  0  0  0  0
  141.6490   76.0170  222.5150 H   0  0  0  0  0  0  0  0  0  0  0  0
  137.4963   75.9178  220.8257 H   0  0  0  0  0  0  0  0  0  0  0  0
  135.8967   77.5019  221.8434 H   0  0  0  0  0  0  0  0  0  0  0  0
  135.5499   79.4382  223.2834 H   0  0  0  0  0  0  0  0  0  0  0  0
  136.4467   81.2410  224.7613 H   0  0  0  0  0  0  0  0  0  0  0  0
  138.9097   81.3483  225.1403 H   0  0  0  0  0  0  0  0  0  0  0  0
  140.4266   79.7092  224.0713 H   0  0  0  0  0  0  0  0  0  0  0  0
  143.3040   78.9129  217.8450 H   0  0  0  0  0  0  0  0  0  0  0  0
  142.6429   78.9587  215.5828 H   0  0  0  0  0  0  0  0  0  0  0  0
  143.0192   77.2231  215.6168 H   0  0  0  0  0  0  0  0  0  0  0  0
  140.4513   78.4753  215.2594 H   0  0  0  0  0  0  0  0  0  0  0  0
  140.7718   76.7460  215.3468 H   0  0  0  0  0  0  0  0  0  0  0  0
  139.4144   78.2539  217.2969 H   0  0  0  0  0  0  0  0  0  0  0  0
  140.1449   76.6614  217.6016 H   0  0  0  0  0  0  0  0  0  0  0  0
  141.5537   80.3294  217.8721 H   0  0  0  0  0  0  0  0  0  0  0  0
  139.9278   79.7202  218.5048 H   0  0  0  0  0  0  0  0  0  0  0  0
  141.9195   77.9806  220.5136 H   0  0  0  0  0  0  0  0  0  0  0  0
  142.5367   78.5680  222.8111 H   0  0  0  0  0  0  0  0  0  0  0  0
  141.5951   82.6587  222.0250 H   0  0  0  0  0  0  0  0  0  0  0  0
  140.9742   82.0726  219.7169 H   0  0  0  0  0  0  0  0  0  0  0  0
  1  2  1  0
  2  3  1  0
  3  4  1  0
  4  5  2  0
  4  6  1  0
  6  7  1  0
  7  8  1  0
  8  9  2  0
  8 10  1  0
 10 11  2  0
 11 12  1  0
 12 13  2  0
 13 14  1  0
 14 15  2  0
 15 16  1  0
 16 17  2  0
 17 18  1  0
 18 19  2  0
  2 20  1  0
 20 21  1  0
 21 22  1  0
 22 23  1  0
 23 24  1  0
 24 25  1  0
 25 26  1  0
 26 27  2  0
 27 28  1  0
 28 29  2  0
 29 30  1  0
 29 31  1  0
 31 32  2  0
 19 10  1  0
 24 20  1  0
 32 26  1  0
 18 13  1  0
  1 33  1  0
  1 34  1  0
  1 35  1  0
  2 36  1  1
  3 37  1  0
  6 38  1  0
  6 39  1  0
  7 40  1  0
 11 41  1  0
 12 42  1  0
 14 43  1  0
 15 44  1  0
 16 45  1  0
 17 46  1  0
 20 47  1  6
 21 48  1  0
 21 49  1  0
 22 50  1  0
 22 51  1  0
 23 52  1  0
 23 53  1  0
 25 54  1  0
 25 55  1  0
 27 56  1  0
 28 57  1  0
 31 58  1  0
 32 59  1  0
M  END
>  <smiles>  (11) 
C[C@H](NC(=O)CNC(=O)c1ccc2ccccc2n1)[C@H]1CCCN1Cc1ccc(Cl)cc1

>  <score_type>  (11) 
oracle

>  <origin>  (11) 
autodockgpu

>  <m_score__min__energy>  (11) 
-9.4600000000000009

>  <m_primary>  (11) 
energy

>  <rmsd>  (11) 
6.574064398644502

>  <m_score__min__rmsd>  (11) 
6.574064398644502

>  <meeko>  (11) 
{"free_energy": -6.04, "intermolecular_energy": -8.13, "internal_energy": -4.73, "cluster_size": 3, "cluster_id": 14, "rank_in_cluster": 2}

>  <energy>  (11) 
-8.44

>  <cluster_rmsd>  (11) 
0.91

>  <cluster>  (11) 
1

$$$$

     RDKit          3D

 59 62  0  0  0  0  0  0  0  0999 V2000
  143.6180   74.4810  219.0370 C   0  0  0  0  0  0  0  0  0  0  0  0
  142.6510   75.0230  220.0980 C   0  0  2  0  0  0  0  0  0  0  0  0
  141.4730   74.1810  220.0190 N   0  0  0  0  0  0  0  0  0  0  0  0
  140.5660   74.1970  221.1120 C   0  0  0  0  0  0  0  0  0  0  0  0
  140.7450   74.9070  222.1370 O   0  0  0  0  0  0  0  0  0  0  0  0
  139.3510   73.3410  221.0540 C   0  0  0  0  0  0  0  0  0  0  0  0
  139.2740   72.6320  222.3240 N   0  0  0  0  0  0  0  0  0  0  0  0
  139.9870   71.4170  222.4770 C   0  0  0  0  0  0  0  0  0  0  0  0
  140.6590   71.0020  221.5070 O   0  0  0  0  0  0  0  0  0  0  0  0
  139.9310   70.6830  223.7370 C   0  0  0  0  0  0  0  0  0  0  0  0
  139.2570   69.4810  223.8010 C   0  0  0  0  0  0  0  0  0  0  0  0
  139.1580   68.7280  224.9520 C   0  0  0  0  0  0  0  0  0  0  0  0
  139.7740   69.2190  226.0980 C   0  0  0  0  0  0  0  0  0  0  0  0
  139.7190   68.5230  227.2870 C   0  0  0  0  0  0  0  0  0  0  0  0
  140.3310   69.0040  228.4380 C   0  0  0  0  0  0  0  0  0  0  0  0
  141.0010   70.2120  228.3490 C   0  0  0  0  0  0  0  0  0  0  0  0
  141.0600   70.9180  227.1540 C   0  0  0  0  0  0  0  0  0  0  0  0
  140.4470   70.4250  226.0220 C   0  0  0  0  0  0  0  0  0  0  0  0
  140.5190   71.1340  224.8640 N   0  0  0  0  0  0  0  0  0  0  0  0
  142.3680   76.4740  219.7700 C   0  0  1  0  0  0  0  0  0  0  0  0
  143.3160   76.9710  218.6880 C   0  0  0  0  0  0  0  0  0  0  0  0
  142.5380   76.9860  217.4060 C   0  0  0  0  0  0  0  0  0  0  0  0
  141.1440   76.5540  217.8050 C   0  0  0  0  0  0  0  0  0  0  0  0
  141.0630   76.6630  219.2270 N   0  0  0  0  0  0  0  0  0  0  0  0
  140.3260   77.7770  219.7280 C   0  0  0  0  0  0  0  0  0  0  0  0
  140.9480   78.5220  220.8230 C   0  0  0  0  0  0  0  0  0  0  0  0
  140.9340   78.0730  222.1410 C   0  0  0  0  0  0  0  0  0  0  0  0
  141.5220   78.7800  223.1690 C   0  0  0  0  0  0  0  0  0  0  0  0
  142.1570   79.9750  222.9340 C   0  0  0  0  0  0  0  0  0  0  0  0
  142.9240   80.9250  224.1880 Cl  0  0  0  0  0  0  0  0  0  0  0  0
  142.1870   80.4440  221.6420 C   0  0  0  0  0  0  0  0  0  0  0  0
  141.5940   79.7290  220.6110 C   0  0  0  0  0  0  0  0  0  0  0  0
  144.4746   74.0009  219.5327 H   0  0  0  0  0  0  0  0  0  0  0  0
  143.0972   73.7433  218.4089 H   0  0  0  0  0  0  0  0  0  0  0  0
  143.9754   75.3103  218.4089 H   0  0  0  0  0  0  0  0  0  0  0  0
  143.0447   74.9970  221.1248 H   0  0  0  0  0  0  0  0  0  0  0  0
  141.3450   73.6010  219.1610 H   0  0  0  0  0  0  0  0  0  0  0  0
  138.4554   73.9640  220.9133 H   0  0  0  0  0  0  0  0  0  0  0  0
  139.4050   72.6360  220.2113 H   0  0  0  0  0  0  0  0  0  0  0  0
  138.7160   72.9710  223.1370 H   0  0  0  0  0  0  0  0  0  0  0  0
  138.7740   69.1041  222.8874 H   0  0  0  0  0  0  0  0  0  0  0  0
  138.6115   67.7734  224.9632 H   0  0  0  0  0  0  0  0  0  0  0  0
  139.1786   67.5657  227.3252 H   0  0  0  0  0  0  0  0  0  0  0  0
  140.2848   68.4456  229.3846 H   0  0  0  0  0  0  0  0  0  0  0  0
  141.4964   70.6209  229.2419 H   0  0  0  0  0  0  0  0  0  0  0  0
  141.5990   71.8759  227.1109 H   0  0  0  0  0  0  0  0  0  0  0  0
  142.4824   77.0160  220.7203 H   0  0  0  0  0  0  0  0  0  0  0  0
  143.6684   77.9847  218.9293 H   0  0  0  0  0  0  0  0  0  0  0  0
  144.1992   76.3204  218.6069 H   0  0  0  0  0  0  0  0  0  0  0  0
  142.5228   77.9967  216.9720 H   0  0  0  0  0  0  0  0  0  0  0  0
  142.9775   76.3282  216.6418 H   0  0  0  0  0  0  0  0  0  0  0  0
  140.3963   77.2083  217.3329 H   0  0  0  0  0  0  0  0  0  0  0  0
  140.9446   75.5226  217.4787 H   0  0  0  0  0  0  0  0  0  0  0  0
  140.1663   78.4764  218.8941 H   0  0  0  0  0  0  0  0  0  0  0  0
  139.4010   77.3542  220.1471 H   0  0  0  0  0  0  0  0  0  0  0  0
  140.4358   77.1196  222.3707 H   0  0  0  0  0  0  0  0  0  0  0  0
  141.4818   78.3805  224.1931 H   0  0  0  0  0  0  0  0  0  0  0  0
  142.6876   81.3986  221.4226 H   0  0  0  0  0  0  0  0  0  0  0  0
  141.6385   80.1349  219.5896 H   0  0  0  0  0  0  0  0  0  0  0  0
  1  2  1  0
  2  3  1  0
  3  4  1  0
  4  5  2  0
  4  6  1  0
  6  7  1  0
  7  8  1  0
  8  9  2  0
  8 10  1  0
 10 11  2  0
 11 12  1  0
 12 13  2  0
 13 14  1  0
 14 15  2  0
 15 16  1  0
 16 17  2  0
 17 18  1  0
 18 19  2  0
  2 20  1  0
 20 21  1  0
 21 22  1  0
 22 23  1  0
 23 24  1  0
 24 25  1  0
 25 26  1  0
 26 27  2  0
 27 28  1  0
 28 29  2  0
 29 30  1  0
 29 31  1  0
 31 32  2  0
 19 10  1  0
 24 20  1  0
 32 26  1  0
 18 13  1  0
  1 33  1  0
  1 34  1  0
  1 35  1  0
  2 36  1  1
  3 37  1  0
  6 38  1  0
  6 39  1  0
  7 40  1  0
 11 41  1  0
 12 42  1  0
 14 43  1  0
 15 44  1  0
 16 45  1  0
 17 46  1  0
 20 47  1  1
 21 48  1  0
 21 49  1  0
 22 50  1  0
 22 51  1  0
 23 52  1  0
 23 53  1  0
 25 54  1  0
 25 55  1  0
 27 56  1  0
 28 57  1  0
 31 58  1  0
 32 59  1  0
M  END
>  <smiles>  (12) 
C[C@H](NC(=O)CNC(=O)c1ccc2ccccc2n1)[C@H]1CCCN1Cc1ccc(Cl)cc1

>  <score_type>  (12) 
oracle

>  <origin>  (12) 
autodockgpu

>  <m_score__min__energy>  (12) 
-9.4600000000000009

>  <m_primary>  (12) 
energy

>  <rmsd>  (12) 
2.5247965425449497

>  <m_score__min__rmsd>  (12) 
2.5247965425449497

>  <meeko>  (12) 
{"free_energy": -9.35, "intermolecular_energy": -11.44, "internal_energy": -2.09, "cluster_size": 19, "cluster_id": 1, "rank_in_cluster": 2}

>  <energy>  (12) 
-8.34

>  <cluster_rmsd>  (12) 
1.86

>  <cluster>  (12) 
1

$$$$

     RDKit          3D

 59 62  0  0  0  0  0  0  0  0999 V2000
  132.4570   69.8240  222.2620 C   0  0  0  0  0  0  0  0  0  0  0  0
  133.0980   70.8890  223.1620 C   0  0  2  0  0  0  0  0  0  0  0  0
  134.4820   70.9780  222.7370 N   0  0  0  0  0  0  0  0  0  0  0  0
  135.0760   72.2660  222.6630 C   0  0  0  0  0  0  0  0  0  0  0  0
  134.4530   73.3220  222.9500 O   0  0  0  0  0  0  0  0  0  0  0  0
  136.4940   72.3830  222.2290 C   0  0  0  0  0  0  0  0  0  0  0  0
  137.3100   71.8390  223.3050 N   0  0  0  0  0  0  0  0  0  0  0  0
  137.5740   70.4470  223.3320 C   0  0  0  0  0  0  0  0  0  0  0  0
  137.0900   69.7390  222.4210 O   0  0  0  0  0  0  0  0  0  0  0  0
  138.3890   69.8700  224.3960 C   0  0  0  0  0  0  0  0  0  0  0  0
  138.5620   68.5030  224.4620 C   0  0  0  0  0  0  0  0  0  0  0  0
  139.3150   67.8820  225.4360 C   0  0  0  0  0  0  0  0  0  0  0  0
  139.9240   68.6870  226.3930 C   0  0  0  0  0  0  0  0  0  0  0  0
  140.6930   68.1390  227.3970 C   0  0  0  0  0  0  0  0  0  0  0  0
  141.3050   68.9350  228.3580 C   0  0  0  0  0  0  0  0  0  0  0  0
  141.1160   70.3030  228.2710 C   0  0  0  0  0  0  0  0  0  0  0  0
  140.3430   70.8610  227.2600 C   0  0  0  0  0  0  0  0  0  0  0  0
  139.7430   70.0560  226.3160 C   0  0  0  0  0  0  0  0  0  0  0  0
  138.9900   70.6260  225.3370 N   0  0  0  0  0  0  0  0  0  0  0  0
  132.9450   70.4350  224.5980 C   0  0  1  0  0  0  0  0  0  0  0  0
  132.8980   68.9150  224.6760 C   0  0  0  0  0  0  0  0  0  0  0  0
  134.2510   68.4650  225.1400 C   0  0  0  0  0  0  0  0  0  0  0  0
  135.0170   69.7490  225.3730 C   0  0  0  0  0  0  0  0  0  0  0  0
  134.0590   70.8070  225.4070 N   0  0  0  0  0  0  0  0  0  0  0  0
  133.7550   71.3350  226.6960 C   0  0  0  0  0  0  0  0  0  0  0  0
  133.4650   72.7690  226.7550 C   0  0  0  0  0  0  0  0  0  0  0  0
  134.2170   73.7160  226.0650 C   0  0  0  0  0  0  0  0  0  0  0  0
  133.9400   75.0660  226.1240 C   0  0  0  0  0  0  0  0  0  0  0  0
  132.8930   75.5410  226.8760 C   0  0  0  0  0  0  0  0  0  0  0  0
  132.4840   77.2380  226.9980 Cl  0  0  0  0  0  0  0  0  0  0  0  0
  132.1330   74.6290  227.5680 C   0  0  0  0  0  0  0  0  0  0  0  0
  132.4160   73.2730  227.5060 C   0  0  0  0  0  0  0  0  0  0  0  0
  131.9902   69.0484  222.8870 H   0  0  0  0  0  0  0  0  0  0  0  0
  131.6912   70.2932  221.6269 H   0  0  0  0  0  0  0  0  0  0  0  0
  133.2302   69.3669  221.6269 H   0  0  0  0  0  0  0  0  0  0  0  0
  132.6337   71.8835  223.0883 H   0  0  0  0  0  0  0  0  0  0  0  0
  134.9780   70.0900  222.5040 H   0  0  0  0  0  0  0  0  0  0  0  0
  136.6555   71.8095  221.3043 H   0  0  0  0  0  0  0  0  0  0  0  0
  136.7587   73.4309  222.0243 H   0  0  0  0  0  0  0  0  0  0  0  0
  137.7170   72.4220  224.0680 H   0  0  0  0  0  0  0  0  0  0  0  0
  138.0750   67.8772  223.6997 H   0  0  0  0  0  0  0  0  0  0  0  0
  139.4301   66.7882  225.4555 H   0  0  0  0  0  0  0  0  0  0  0  0
  140.8252   67.0478  227.4386 H   0  0  0  0  0  0  0  0  0  0  0  0
  141.9171   68.4937  229.1584 H   0  0  0  0  0  0  0  0  0  0  0  0
  141.5865   70.9612  229.0162 H   0  0  0  0  0  0  0  0  0  0  0  0
  140.2092   71.9518  227.2129 H   0  0  0  0  0  0  0  0  0  0  0  0
  132.0201   70.9103  224.9567 H   0  0  0  0  0  0  0  0  0  0  0  0
  132.1263   68.5959  225.3919 H   0  0  0  0  0  0  0  0  0  0  0  0
  132.6490   68.4763  223.6985 H   0  0  0  0  0  0  0  0  0  0  0  0
  134.1700   67.8859  226.0717 H   0  0  0  0  0  0  0  0  0  0  0  0
  134.7469   67.8083  224.4101 H   0  0  0  0  0  0  0  0  0  0  0  0
  135.5574   69.6980  226.3297 H   0  0  0  0  0  0  0  0  0  0  0  0
  135.7565   69.9148  224.5757 H   0  0  0  0  0  0  0  0  0  0  0  0
  132.8746   70.7984  227.0794 H   0  0  0  0  0  0  0  0  0  0  0  0
  134.6671   71.1942  227.2945 H   0  0  0  0  0  0  0  0  0  0  0  0
  135.0631   73.3751  225.4502 H   0  0  0  0  0  0  0  0  0  0  0  0
  134.5668   75.7728  225.5605 H   0  0  0  0  0  0  0  0  0  0  0  0
  131.2885   74.9795  228.1795 H   0  0  0  0  0  0  0  0  0  0  0  0
  131.7851   72.5728  228.0733 H   0  0  0  0  0  0  0  0  0  0  0  0
  1  2  1  0
  2  3  1  0
  3  4  1  0
  4  5  2  0
  4  6  1  0
  6  7  1  0
  7  8  1  0
  8  9  2  0
  8 10  1  0
 10 11  2  0
 11 12  1  0
 12 13  2  0
 13 14  1  0
 14 15  2  0
 15 16  1  0
 16 17  2  0
 17 18  1  0
 18 19  2  0
  2 20  1  0
 20 21  1  0
 21 22  1  0
 22 23  1  0
 23 24  1  0
 24 25  1  0
 25 26  1  0
 26 27  2  0
 27 28  1  0
 28 29  2  0
 29 30  1  0
 29 31  1  0
 31 32  2  0
 19 10  1  0
 24 20  1  0
 32 26  1  0
 18 13  1  0
  1 33  1  0
  1 34  1  0
  1 35  1  0
  2 36  1  1
  3 37  1  0
  6 38  1  0
  6 39  1  0
  7 40  1  0
 11 41  1  0
 12 42  1  0
 14 43  1  0
 15 44  1  0
 16 45  1  0
 17 46  1  0
 20 47  1  1
 21 48  1  0
 21 49  1  0
 22 50  1  0
 22 51  1  0
 23 52  1  0
 23 53  1  0
 25 54  1  0
 25 55  1  0
 27 56  1  0
 28 57  1  0
 31 58  1  0
 32 59  1  0
M  END
>  <smiles>  (13) 
C[C@H](NC(=O)CNC(=O)c1ccc2ccccc2n1)[C@H]1CCCN1Cc1ccc(Cl)cc1

>  <score_type>  (13) 
oracle

>  <origin>  (13) 
autodockgpu

>  <m_score__min__energy>  (13) 
-9.4600000000000009

>  <m_primary>  (13) 
energy

>  <rmsd>  (13) 
7.96683267151176

>  <m_score__min__rmsd>  (13) 
7.96683267151176

>  <meeko>  (13) 
{"free_energy": -7.11, "intermolecular_energy": -9.2, "internal_energy": -3.55, "cluster_size": 1, "cluster_id": 11, "rank_in_cluster": 1}

>  <energy>  (13) 
-8.17

>  <cluster_rmsd>  (13) 
1.36

>  <cluster>  (13) 
1

$$$$

     RDKit          3D

 59 62  0  0  0  0  0  0  0  0999 V2000
  142.3340   77.5150  218.8900 C   0  0  0  0  0  0  0  0  0  0  0  0
  141.6980   77.1860  220.2470 C   0  0  2  0  0  0  0  0  0  0  0  0
  140.9230   75.9800  220.0340 N   0  0  0  0  0  0  0  0  0  0  0  0
  140.5480   75.2170  221.1710 C   0  0  0  0  0  0  0  0  0  0  0  0
  140.8600   75.5450  222.3470 O   0  0  0  0  0  0  0  0  0  0  0  0
  139.7520   73.9740  220.9770 C   0  0  0  0  0  0  0  0  0  0  0  0
  139.7330   73.2820  222.2570 N   0  0  0  0  0  0  0  0  0  0  0  0
  139.9050   71.8750  222.2800 C   0  0  0  0  0  0  0  0  0  0  0  0
  140.0680   71.2840  221.1900 O   0  0  0  0  0  0  0  0  0  0  0  0
  139.8920   71.1510  223.5470 C   0  0  0  0  0  0  0  0  0  0  0  0
  139.3890   69.8670  223.5980 C   0  0  0  0  0  0  0  0  0  0  0  0
  139.3400   69.1180  224.7540 C   0  0  0  0  0  0  0  0  0  0  0  0
  139.8270   69.6990  225.9200 C   0  0  0  0  0  0  0  0  0  0  0  0
  139.8130   69.0120  227.1150 C   0  0  0  0  0  0  0  0  0  0  0  0
  140.2960   69.5840  228.2860 C   0  0  0  0  0  0  0  0  0  0  0  0
  140.7950   70.8720  228.2100 C   0  0  0  0  0  0  0  0  0  0  0  0
  140.8130   71.5690  227.0080 C   0  0  0  0  0  0  0  0  0  0  0  0
  140.3290   70.9860  225.8570 C   0  0  0  0  0  0  0  0  0  0  0  0
  140.3560   71.6890  224.6940 N   0  0  0  0  0  0  0  0  0  0  0  0
  140.8520   78.3710  220.6630 C   0  0  1  0  0  0  0  0  0  0  0  0
  140.4460   78.2510  222.1250 C   0  0  0  0  0  0  0  0  0  0  0  0
  141.3380   79.1770  222.8970 C   0  0  0  0  0  0  0  0  0  0  0  0
  142.1910   79.8480  221.8420 C   0  0  0  0  0  0  0  0  0  0  0  0
  141.5660   79.6030  220.5820 N   0  0  0  0  0  0  0  0  0  0  0  0
  140.8630   80.7030  220.0070 C   0  0  0  0  0  0  0  0  0  0  0  0
  141.5950   81.4850  219.0100 C   0  0  0  0  0  0  0  0  0  0  0  0
  142.5640   80.9280  218.1810 C   0  0  0  0  0  0  0  0  0  0  0  0
  143.2510   81.6700  217.2420 C   0  0  0  0  0  0  0  0  0  0  0  0
  143.0030   83.0120  217.0820 C   0  0  0  0  0  0  0  0  0  0  0  0
  143.8340   84.0150  215.9130 Cl  0  0  0  0  0  0  0  0  0  0  0  0
  142.0500   83.5900  217.8860 C   0  0  0  0  0  0  0  0  0  0  0  0
  141.3620   82.8400  218.8290 C   0  0  0  0  0  0  0  0  0  0  0  0
  143.3007   78.0151  219.0497 H   0  0  0  0  0  0  0  0  0  0  0  0
  142.4913   76.5852  218.3237 H   0  0  0  0  0  0  0  0  0  0  0  0
  141.6660   78.1806  218.3237 H   0  0  0  0  0  0  0  0  0  0  0  0
  142.4231   77.0099  221.0552 H   0  0  0  0  0  0  0  0  0  0  0  0
  140.6760   75.7270  219.0520 H   0  0  0  0  0  0  0  0  0  0  0  0
  138.7269   74.2254  220.6673 H   0  0  0  0  0  0  0  0  0  0  0  0
  140.1936   73.3412  220.1931 H   0  0  0  0  0  0  0  0  0  0  0  0
  139.5980   73.7660  223.1700 H   0  0  0  0  0  0  0  0  0  0  0  0
  139.0078   69.4184  222.6688 H   0  0  0  0  0  0  0  0  0  0  0  0
  138.9303   68.0971  224.7543 H   0  0  0  0  0  0  0  0  0  0  0  0
  139.4107   67.9886  227.1424 H   0  0  0  0  0  0  0  0  0  0  0  0
  140.2820   69.0330  229.2379 H   0  0  0  0  0  0  0  0  0  0  0  0
  141.1851   71.3538  229.1187 H   0  0  0  0  0  0  0  0  0  0  0  0
  141.2159   72.5920  226.9751 H   0  0  0  0  0  0  0  0  0  0  0  0
  139.9904   78.3684  219.9792 H   0  0  0  0  0  0  0  0  0  0  0  0
  139.3936   78.5451  222.2516 H   0  0  0  0  0  0  0  0  0  0  0  0
  140.5483   77.2151  222.4805 H   0  0  0  0  0  0  0  0  0  0  0  0
  140.7433   79.9210  223.4472 H   0  0  0  0  0  0  0  0  0  0  0  0
  141.9418   78.6468  223.6482 H   0  0  0  0  0  0  0  0  0  0  0  0
  142.2458   80.9300  222.0325 H   0  0  0  0  0  0  0  0  0  0  0  0
  143.2166   79.4506  221.8553 H   0  0  0  0  0  0  0  0  0  0  0  0
  139.9569   80.3075  219.5247 H   0  0  0  0  0  0  0  0  0  0  0  0
  140.6665   81.3952  220.8390 H   0  0  0  0  0  0  0  0  0  0  0  0
  142.7908   79.8560  218.2778 H   0  0  0  0  0  0  0  0  0  0  0  0
  144.0083   81.1800  216.6124 H   0  0  0  0  0  0  0  0  0  0  0  0
  141.8295   84.6625  217.7804 H   0  0  0  0  0  0  0  0  0  0  0  0
  140.6059   83.3372  219.4544 H   0  0  0  0  0  0  0  0  0  0  0  0
  1  2  1  0
  2  3  1  0
  3  4  1  0
  4  5  2  0
  4  6  1  0
  6  7  1  0
  7  8  1  0
  8  9  2  0
  8 10  1  0
 10 11  2  0
 11 12  1  0
 12 13  2  0
 13 14  1  0
 14 15  2  0
 15 16  1  0
 16 17  2  0
 17 18  1  0
 18 19  2  0
  2 20  1  0
 20 21  1  0
 21 22  1  0
 22 23  1  0
 23 24  1  0
 24 25  1  0
 25 26  1  0
 26 27  2  0
 27 28  1  0
 28 29  2  0
 29 30  1  0
 29 31  1  0
 31 32  2  0
 19 10  1  0
 24 20  1  0
 32 26  1  0
 18 13  1  0
  1 33  1  0
  1 34  1  0
  1 35  1  0
  2 36  1  1
  3 37  1  0
  6 38  1  0
  6 39  1  0
  7 40  1  0
 11 41  1  0
 12 42  1  0
 14 43  1  0
 15 44  1  0
 16 45  1  0
 17 46  1  0
 20 47  1  6
 21 48  1  0
 21 49  1  0
 22 50  1  0
 22 51  1  0
 23 52  1  0
 23 53  1  0
 25 54  1  0
 25 55  1  0
 27 56  1  0
 28 57  1  0
 31 58  1  0
 32 59  1  0
M  END
>  <smiles>  (14) 
C[C@H](NC(=O)CNC(=O)c1ccc2ccccc2n1)[C@H]1CCCN1Cc1ccc(Cl)cc1

>  <score_type>  (14) 
oracle

>  <origin>  (14) 
autodockgpu

>  <m_score__min__energy>  (14) 
-9.4600000000000009

>  <m_primary>  (14) 
energy

>  <rmsd>  (14) 
2.582418193168735

>  <m_score__min__rmsd>  (14) 
2.582418193168735

>  <meeko>  (14) 
{"free_energy": -8.84, "intermolecular_energy": -10.93, "internal_energy": -1.99, "cluster_size": 3, "cluster_id": 3, "rank_in_cluster": 1}

>  <energy>  (14) 
-8.06

>  <cluster_rmsd>  (14) 
1.37

>  <cluster>  (14) 
1

$$$$

     RDKit          3D

 59 62  0  0  0  0  0  0  0  0999 V2000
  138.1850   76.3110  222.7520 C   0  0  0  0  0  0  0  0  0  0  0  0
  138.6150   76.3680  221.2800 C   0  0  2  0  0  0  0  0  0  0  0  0
  139.3290   75.1310  221.0330 N   0  0  0  0  0  0  0  0  0  0  0  0
  138.6230   74.0630  220.4180 C   0  0  0  0  0  0  0  0  0  0  0  0
  137.4120   74.1500  220.0820 O   0  0  0  0  0  0  0  0  0  0  0  0
  139.3340   72.7840  220.1550 C   0  0  0  0  0  0  0  0  0  0  0  0
  139.2260   71.9850  221.3670 N   0  0  0  0  0  0  0  0  0  0  0  0
  140.0500   72.3020  222.4750 C   0  0  0  0  0  0  0  0  0  0  0  0
  140.8420   73.2640  222.3640 O   0  0  0  0  0  0  0  0  0  0  0  0
  139.9660   71.5210  223.7050 C   0  0  0  0  0  0  0  0  0  0  0  0
  139.2760   70.3250  223.7130 C   0  0  0  0  0  0  0  0  0  0  0  0
  139.1500   69.5310  224.8330 C   0  0  0  0  0  0  0  0  0  0  0  0
  139.7530   69.9700  226.0060 C   0  0  0  0  0  0  0  0  0  0  0  0
  139.6720   69.2310  227.1670 C   0  0  0  0  0  0  0  0  0  0  0  0
  140.2710   69.6610  228.3440 C   0  0  0  0  0  0  0  0  0  0  0  0
  140.9560   70.8630  228.3120 C   0  0  0  0  0  0  0  0  0  0  0  0
  141.0430   71.6120  227.1450 C   0  0  0  0  0  0  0  0  0  0  0  0
  140.4420   71.1700  225.9870 C   0  0  0  0  0  0  0  0  0  0  0  0
  140.5400   71.9220  224.8580 N   0  0  0  0  0  0  0  0  0  0  0  0
  139.4770   77.5990  221.0960 C   0  0  1  0  0  0  0  0  0  0  0  0
  139.0570   78.6940  222.0670 C   0  0  0  0  0  0  0  0  0  0  0  0
  140.0640   78.6940  223.1790 C   0  0  0  0  0  0  0  0  0  0  0  0
  141.0690   77.6350  222.7780 C   0  0  0  0  0  0  0  0  0  0  0  0
  140.8490   77.3520  221.3960 N   0  0  0  0  0  0  0  0  0  0  0  0
  141.8020   77.8960  220.4850 C   0  0  0  0  0  0  0  0  0  0  0  0
  142.4520   76.9430  219.5850 C   0  0  0  0  0  0  0  0  0  0  0  0
  142.8140   75.6590  219.9840 C   0  0  0  0  0  0  0  0  0  0  0  0
  143.4270   74.7640  219.1310 C   0  0  0  0  0  0  0  0  0  0  0  0
  143.7090   75.1060  217.8310 C   0  0  0  0  0  0  0  0  0  0  0  0
  144.4840   74.0250  216.6940 Cl  0  0  0  0  0  0  0  0  0  0  0  0
  143.3630   76.3680  217.4080 C   0  0  0  0  0  0  0  0  0  0  0  0
  142.7470   77.2640  218.2700 C   0  0  0  0  0  0  0  0  0  0  0  0
  139.0684   76.4281  223.3969 H   0  0  0  0  0  0  0  0  0  0  0  0
  137.4711   77.1224  222.9571 H   0  0  0  0  0  0  0  0  0  0  0  0
  137.7072   75.3417  222.9571 H   0  0  0  0  0  0  0  0  0  0  0  0
  137.7807   76.4507  220.5679 H   0  0  0  0  0  0  0  0  0  0  0  0
  140.3310   75.0810  221.3200 H   0  0  0  0  0  0  0  0  0  0  0  0
  138.8651   72.2568  219.3110 H   0  0  0  0  0  0  0  0  0  0  0  0
  140.3873   72.9647  219.8943 H   0  0  0  0  0  0  0  0  0  0  0  0
  138.5690   71.1810  221.4680 H   0  0  0  0  0  0  0  0  0  0  0  0
  138.8030   69.9887  222.7786 H   0  0  0  0  0  0  0  0  0  0  0  0
  138.5920   68.5836  224.7996 H   0  0  0  0  0  0  0  0  0  0  0  0
  139.1205   68.2793  227.1611 H   0  0  0  0  0  0  0  0  0  0  0  0
  140.2034   69.0678  229.2679 H   0  0  0  0  0  0  0  0  0  0  0  0
  141.4407   71.2324  229.2277 H   0  0  0  0  0  0  0  0  0  0  0  0
  141.5950   72.5635  227.1458 H   0  0  0  0  0  0  0  0  0  0  0  0
  139.3499   77.8892  220.0426 H   0  0  0  0  0  0  0  0  0  0  0  0
  139.0530   79.6698  221.5592 H   0  0  0  0  0  0  0  0  0  0  0  0
  138.0425   78.5134  222.4520 H   0  0  0  0  0  0  0  0  0  0  0  0
  140.5487   79.6777  223.2650 H   0  0  0  0  0  0  0  0  0  0  0  0
  139.6069   78.4884  224.1582 H   0  0  0  0  0  0  0  0  0  0  0  0
  142.0924   78.0092  222.9286 H   0  0  0  0  0  0  0  0  0  0  0  0
  140.9478   76.7279  223.3884 H   0  0  0  0  0  0  0  0  0  0  0  0
  141.2853   78.6439  219.8656 H   0  0  0  0  0  0  0  0  0  0  0  0
  142.6078   78.3059  221.1117 H   0  0  0  0  0  0  0  0  0  0  0  0
  142.6035   75.3465  221.0174 H   0  0  0  0  0  0  0  0  0  0  0  0
  143.6937   73.7618  219.4977 H   0  0  0  0  0  0  0  0  0  0  0  0
  143.5775   76.6711  216.3726 H   0  0  0  0  0  0  0  0  0  0  0  0
  142.4836   78.2644  217.8961 H   0  0  0  0  0  0  0  0  0  0  0  0
  1  2  1  0
  2  3  1  0
  3  4  1  0
  4  5  2  0
  4  6  1  0
  6  7  1  0
  7  8  1  0
  8  9  2  0
  8 10  1  0
 10 11  2  0
 11 12  1  0
 12 13  2  0
 13 14  1  0
 14 15  2  0
 15 16  1  0
 16 17  2  0
 17 18  1  0
 18 19  2  0
  2 20  1  0
 20 21  1  0
 21 22  1  0
 22 23  1  0
 23 24  1  0
 24 25  1  0
 25 26  1  0
 26 27  2  0
 27 28  1  0
 28 29  2  0
 29 30  1  0
 29 31  1  0
 31 32  2  0
 19 10  1  0
 24 20  1  0
 32 26  1  0
 18 13  1  0
  1 33  1  0
  1 34  1  0
  1 35  1  0
  2 36  1  6
  3 37  1  0
  6 38  1  0
  6 39  1  0
  7 40  1  0
 11 41  1  0
 12 42  1  0
 14 43  1  0
 15 44  1  0
 16 45  1  0
 17 46  1  0
 20 47  1  6
 21 48  1  0
 21 49  1  0
 22 50  1  0
 22 51  1  0
 23 52  1  0
 23 53  1  0
 25 54  1  0
 25 55  1  0
 27 56  1  0
 28 57  1  0
 31 58  1  0
 32 59  1  0
M  END
>  <smiles>  (15) 
C[C@H](NC(=O)CNC(=O)c1ccc2ccccc2n1)[C@H]1CCCN1Cc1ccc(Cl)cc1

>  <score_type>  (15) 
oracle

>  <origin>  (15) 
autodockgpu

>  <m_score__min__energy>  (15) 
-9.4600000000000009

>  <m_primary>  (15) 
energy

>  <rmsd>  (15) 
4.093371831371596

>  <m_score__min__rmsd>  (15) 
4.093371831371596

>  <meeko>  (15) 
{"free_energy": -7.7, "intermolecular_energy": -9.79, "internal_energy": -2.98, "cluster_size": 3, "cluster_id": 2, "rank_in_cluster": 3}

>  <energy>  (15) 
-8.03

>  <cluster_rmsd>  (15) 
1.57

>  <cluster>  (15) 
1

$$$$

     RDKit          3D

 59 62  0  0  0  0  0  0  0  0999 V2000
  140.8960   82.1580  221.0860 C   0  0  0  0  0  0  0  0  0  0  0  0
  141.8570   80.9630  221.1320 C   0  0  2  0  0  0  0  0  0  0  0  0
  141.5690   80.1840  219.9440 N   0  0  0  0  0  0  0  0  0  0  0  0
  141.9760   80.7060  218.6870 C   0  0  0  0  0  0  0  0  0  0  0  0
  142.5720   81.8100  218.5680 O   0  0  0  0  0  0  0  0  0  0  0  0
  141.6910   79.9250  217.4540 C   0  0  0  0  0  0  0  0  0  0  0  0
  142.5130   78.7260  217.5150 N   0  0  0  0  0  0  0  0  0  0  0  0
  142.0750   77.6310  218.3000 C   0  0  0  0  0  0  0  0  0  0  0  0
  140.9900   77.7430  218.9130 O   0  0  0  0  0  0  0  0  0  0  0  0
  142.8760   76.4140  218.3820 C   0  0  0  0  0  0  0  0  0  0  0  0
  143.1900   75.7210  217.2310 C   0  0  0  0  0  0  0  0  0  0  0  0
  143.9390   74.5640  217.2250 C   0  0  0  0  0  0  0  0  0  0  0  0
  144.3950   74.0840  218.4480 C   0  0  0  0  0  0  0  0  0  0  0  0
  145.1520   72.9340  218.5220 C   0  0  0  0  0  0  0  0  0  0  0  0
  145.6110   72.4450  219.7390 C   0  0  0  0  0  0  0  0  0  0  0  0
  145.2840   73.1580  220.8800 C   0  0  0  0  0  0  0  0  0  0  0  0
  144.5230   74.3180  220.8110 C   0  0  0  0  0  0  0  0  0  0  0  0
  144.0750   74.7870  219.5950 C   0  0  0  0  0  0  0  0  0  0  0  0
  143.3310   75.9250  219.5540 N   0  0  0  0  0  0  0  0  0  0  0  0
  141.5950   80.2060  222.4170 C   0  0  1  0  0  0  0  0  0  0  0  0
  140.9660   81.1220  223.4570 C   0  0  0  0  0  0  0  0  0  0  0  0
  139.5010   80.8010  223.4860 C   0  0  0  0  0  0  0  0  0  0  0  0
  139.3450   79.6620  222.5000 C   0  0  0  0  0  0  0  0  0  0  0  0
  140.6530   79.1500  222.2430 N   0  0  0  0  0  0  0  0  0  0  0  0
  140.9730   77.9090  222.8690 C   0  0  0  0  0  0  0  0  0  0  0  0
  140.5630   76.7000  222.1530 C   0  0  0  0  0  0  0  0  0  0  0  0
  139.2830   76.5330  221.6320 C   0  0  0  0  0  0  0  0  0  0  0  0
  138.9010   75.3920  220.9580 C   0  0  0  0  0  0  0  0  0  0  0  0
  139.7820   74.3550  220.7680 C   0  0  0  0  0  0  0  0  0  0  0  0
  139.3690   72.8790  219.9240 Cl  0  0  0  0  0  0  0  0  0  0  0  0
  141.0540   74.4910  221.2710 C   0  0  0  0  0  0  0  0  0  0  0  0
  141.4330   75.6410  221.9480 C   0  0  0  0  0  0  0  0  0  0  0  0
  140.6468   82.4678  222.1116 H   0  0  0  0  0  0  0  0  0  0  0  0
  141.3760   82.9943  220.5567 H   0  0  0  0  0  0  0  0  0  0  0  0
  139.9762   81.8686  220.5567 H   0  0  0  0  0  0  0  0  0  0  0  0
  142.9219   81.2387  221.1330 H   0  0  0  0  0  0  0  0  0  0  0  0
  141.0740   79.2730  220.0660 H   0  0  0  0  0  0  0  0  0  0  0  0
  140.6260   79.6522  217.4165 H   0  0  0  0  0  0  0  0  0  0  0  0
  141.9187   80.5136  216.5531 H   0  0  0  0  0  0  0  0  0  0  0  0
  143.4190   78.6240  217.0080 H   0  0  0  0  0  0  0  0  0  0  0  0
  142.8242   76.1115  216.2699 H   0  0  0  0  0  0  0  0  0  0  0  0
  144.1680   74.0388  216.2860 H   0  0  0  0  0  0  0  0  0  0  0  0
  145.3980   72.3916  217.5972 H   0  0  0  0  0  0  0  0  0  0  0  0
  146.2120   71.5253  219.7939 H   0  0  0  0  0  0  0  0  0  0  0  0
  145.6334   72.7991  221.8594 H   0  0  0  0  0  0  0  0  0  0  0  0
  144.2764   74.8656  221.7326 H   0  0  0  0  0  0  0  0  0  0  0  0
  142.5740   79.8136  222.7292 H   0  0  0  0  0  0  0  0  0  0  0  0
  141.4139   80.9378  224.4447 H   0  0  0  0  0  0  0  0  0  0  0  0
  141.1340   82.1796  223.2055 H   0  0  0  0  0  0  0  0  0  0  0  0
  139.1910   80.4883  224.4940 H   0  0  0  0  0  0  0  0  0  0  0  0
  138.8766   81.6686  223.2264 H   0  0  0  0  0  0  0  0  0  0  0  0
  138.7089   78.8744  222.9302 H   0  0  0  0  0  0  0  0  0  0  0  0
  138.8700   80.0096  221.5707 H   0  0  0  0  0  0  0  0  0  0  0  0
  142.0648   77.8693  222.9971 H   0  0  0  0  0  0  0  0  0  0  0  0
  140.4061   77.8997  223.8116 H   0  0  0  0  0  0  0  0  0  0  0  0
  138.5486   77.3414  221.7628 H   0  0  0  0  0  0  0  0  0  0  0  0
  137.8761   75.3110  220.5668 H   0  0  0  0  0  0  0  0  0  0  0  0
  141.7812   73.6770  221.1349 H   0  0  0  0  0  0  0  0  0  0  0  0
  142.4598   75.7148  222.3356 H   0  0  0  0  0  0  0  0  0  0  0  0
  1  2  1  0
  2  3  1  0
  3  4  1  0
  4  5  2  0
  4  6  1  0
  6  7  1  0
  7  8  1  0
  8  9  2  0
  8 10  1  0
 10 11  2  0
 11 12  1  0
 12 13  2  0
 13 14  1  0
 14 15  2  0
 15 16  1  0
 16 17  2  0
 17 18  1  0
 18 19  2  0
  2 20  1  0
 20 21  1  0
 21 22  1  0
 22 23  1  0
 23 24  1  0
 24 25  1  0
 25 26  1  0
 26 27  2  0
 27 28  1  0
 28 29  2  0
 29 30  1  0
 29 31  1  0
 31 32  2  0
 19 10  1  0
 24 20  1  0
 32 26  1  0
 18 13  1  0
  1 33  1  0
  1 34  1  0
  1 35  1  0
  2 36  1  6
  3 37  1  0
  6 38  1  0
  6 39  1  0
  7 40  1  0
 11 41  1  0
 12 42  1  0
 14 43  1  0
 15 44  1  0
 16 45  1  0
 17 46  1  0
 20 47  1  1
 21 48  1  0
 21 49  1  0
 22 50  1  0
 22 51  1  0
 23 52  1  0
 23 53  1  0
 25 54  1  0
 25 55  1  0
 27 56  1  0
 28 57  1  0
 31 58  1  0
 32 59  1  0
M  END
>  <smiles>  (16) 
C[C@H](NC(=O)CNC(=O)c1ccc2ccccc2n1)[C@H]1CCCN1Cc1ccc(Cl)cc1

>  <score_type>  (16) 
oracle

>  <origin>  (16) 
autodockgpu

>  <m_score__min__energy>  (16) 
-9.4600000000000009

>  <m_primary>  (16) 
energy

>  <rmsd>  (16) 
7.7226400216674

>  <m_score__min__rmsd>  (16) 
7.7226400216674

>  <meeko>  (16) 
{"free_energy": -6.58, "intermolecular_energy": -8.67, "internal_energy": -4.11, "cluster_size": 1, "cluster_id": 13, "rank_in_cluster": 1}

>  <energy>  (16) 
-8.03

>  <cluster_rmsd>  (16) 
1.56

>  <cluster>  (16) 
1

$$$$

     RDKit          3D

 59 62  0  0  0  0  0  0  0  0999 V2000
  142.4450   71.0230  220.1150 C   0  0  0  0  0  0  0  0  0  0  0  0
  142.5740   72.2690  221.0020 C   0  0  2  0  0  0  0  0  0  0  0  0
  141.3010   72.9550  220.9000 N   0  0  0  0  0  0  0  0  0  0  0  0
  140.2940   72.6390  221.8500 C   0  0  0  0  0  0  0  0  0  0  0  0
  140.4630   71.7930  222.7680 O   0  0  0  0  0  0  0  0  0  0  0  0
  138.9790   73.3290  221.7650 C   0  0  0  0  0  0  0  0  0  0  0  0
  139.1670   74.6620  222.3190 N   0  0  0  0  0  0  0  0  0  0  0  0
  139.7300   75.6730  221.5010 C   0  0  0  0  0  0  0  0  0  0  0  0
  140.0440   75.3750  220.3270 O   0  0  0  0  0  0  0  0  0  0  0  0
  139.9310   77.0200  222.0250 C   0  0  0  0  0  0  0  0  0  0  0  0
  138.8450   77.8460  222.2300 C   0  0  0  0  0  0  0  0  0  0  0  0
  138.9520   79.1300  222.7210 C   0  0  0  0  0  0  0  0  0  0  0  0
  140.2250   79.6030  223.0190 C   0  0  0  0  0  0  0  0  0  0  0  0
  140.4120   80.8760  223.5150 C   0  0  0  0  0  0  0  0  0  0  0  0
  141.6800   81.3580  223.8160 C   0  0  0  0  0  0  0  0  0  0  0  0
  142.7540   80.5110  223.6020 C   0  0  0  0  0  0  0  0  0  0  0  0
  142.5720   79.2270  223.1040 C   0  0  0  0  0  0  0  0  0  0  0  0
  141.3070   78.7660  222.8100 C   0  0  0  0  0  0  0  0  0  0  0  0
  141.1540   77.5060  222.3230 N   0  0  0  0  0  0  0  0  0  0  0  0
  143.7350   73.0890  220.4820 C   0  0  1  0  0  0  0  0  0  0  0  0
  144.6830   72.2180  219.6690 C   0  0  0  0  0  0  0  0  0  0  0  0
  144.4030   72.5080  218.2250 C   0  0  0  0  0  0  0  0  0  0  0  0
  143.3410   73.5860  218.2540 C   0  0  0  0  0  0  0  0  0  0  0  0
  143.3170   74.1130  219.5810 N   0  0  0  0  0  0  0  0  0  0  0  0
  143.9200   75.3930  219.7570 C   0  0  0  0  0  0  0  0  0  0  0  0
  143.2390   76.5200  219.1170 C   0  0  0  0  0  0  0  0  0  0  0  0
  142.4720   77.4380  219.8290 C   0  0  0  0  0  0  0  0  0  0  0  0
  141.8330   78.4980  219.2210 C   0  0  0  0  0  0  0  0  0  0  0  0
  141.9270   78.6970  217.8650 C   0  0  0  0  0  0  0  0  0  0  0  0
  141.1440   80.0180  217.0270 Cl  0  0  0  0  0  0  0  0  0  0  0  0
  142.6780   77.8070  217.1350 C   0  0  0  0  0  0  0  0  0  0  0  0
  143.3190   76.7420  217.7520 C   0  0  0  0  0  0  0  0  0  0  0  0
  142.3525   70.1292  220.7495 H   0  0  0  0  0  0  0  0  0  0  0  0
  141.5517   71.1159  219.4799 H   0  0  0  0  0  0  0  0  0  0  0  0
  143.3384   70.9309  219.4799 H   0  0  0  0  0  0  0  0  0  0  0  0
  142.7821   72.0522  222.0601 H   0  0  0  0  0  0  0  0  0  0  0  0
  141.1830   73.6510  220.1310 H   0  0  0  0  0  0  0  0  0  0  0  0
  138.6542   73.3971  220.7163 H   0  0  0  0  0  0  0  0  0  0  0  0
  138.2066   72.7763  222.3198 H   0  0  0  0  0  0  0  0  0  0  0  0
  138.9090   74.9200  223.2960 H   0  0  0  0  0  0  0  0  0  0  0  0
  137.8431   77.4607  221.9896 H   0  0  0  0  0  0  0  0  0  0  0  0
  138.0615   79.7580  222.8716 H   0  0  0  0  0  0  0  0  0  0  0  0
  139.5380   81.5243  223.6759 H   0  0  0  0  0  0  0  0  0  0  0  0
  141.8251   82.3748  224.2097 H   0  0  0  0  0  0  0  0  0  0  0  0
  143.7712   80.8616  223.8308 H   0  0  0  0  0  0  0  0  0  0  0  0
  143.4428   78.5744  222.9434 H   0  0  0  0  0  0  0  0  0  0  0  0
  144.2106   73.5195  221.3756 H   0  0  0  0  0  0  0  0  0  0  0  0
  145.7271   72.4666  219.9101 H   0  0  0  0  0  0  0  0  0  0  0  0
  144.5327   71.1520  219.8949 H   0  0  0  0  0  0  0  0  0  0  0  0
  145.3099   72.8692  217.7180 H   0  0  0  0  0  0  0  0  0  0  0  0
  144.0762   71.6135  217.6745 H   0  0  0  0  0  0  0  0  0  0  0  0
  143.5904   74.3813  217.5362 H   0  0  0  0  0  0  0  0  0  0  0  0
  142.3585   73.1766  217.9764 H   0  0  0  0  0  0  0  0  0  0  0  0
  143.9655   75.5973  220.8369 H   0  0  0  0  0  0  0  0  0  0  0  0
  144.9031   75.3259  219.2680 H   0  0  0  0  0  0  0  0  0  0  0  0
  142.3719   77.3132  220.9173 H   0  0  0  0  0  0  0  0  0  0  0  0
  141.2391   79.1946  219.8309 H   0  0  0  0  0  0  0  0  0  0  0  0
  142.7722   77.9407  216.0472 H   0  0  0  0  0  0  0  0  0  0  0  0
  143.9114   76.0498  217.1355 H   0  0  0  0  0  0  0  0  0  0  0  0
  1  2  1  0
  2  3  1  0
  3  4  1  0
  4  5  2  0
  4  6  1  0
  6  7  1  0
  7  8  1  0
  8  9  2  0
  8 10  1  0
 10 11  2  0
 11 12  1  0
 12 13  2  0
 13 14  1  0
 14 15  2  0
 15 16  1  0
 16 17  2  0
 17 18  1  0
 18 19  2  0
  2 20  1  0
 20 21  1  0
 21 22  1  0
 22 23  1  0
 23 24  1  0
 24 25  1  0
 25 26  1  0
 26 27  2  0
 27 28  1  0
 28 29  2  0
 29 30  1  0
 29 31  1  0
 31 32  2  0
 19 10  1  0
 24 20  1  0
 32 26  1  0
 18 13  1  0
  1 33  1  0
  1 34  1  0
  1 35  1  0
  2 36  1  1
  3 37  1  0
  6 38  1  0
  6 39  1  0
  7 40  1  0
 11 41  1  0
 12 42  1  0
 14 43  1  0
 15 44  1  0
 16 45  1  0
 17 46  1  0
 20 47  1  1
 21 48  1  0
 21 49  1  0
 22 50  1  0
 22 51  1  0
 23 52  1  0
 23 53  1  0
 25 54  1  0
 25 55  1  0
 27 56  1  0
 28 57  1  0
 31 58  1  0
 32 59  1  0
M  END
>  <smiles>  (17) 
C[C@H](NC(=O)CNC(=O)c1ccc2ccccc2n1)[C@H]1CCCN1Cc1ccc(Cl)cc1

>  <score_type>  (17) 
oracle

>  <origin>  (17) 
autodockgpu

>  <m_score__min__energy>  (17) 
-9.4600000000000009

>  <m_primary>  (17) 
energy

>  <rmsd>  (17) 
7.335939089872757

>  <m_score__min__rmsd>  (17) 
7.335939089872757

>  <meeko>  (17) 
{"free_energy": -7.19, "intermolecular_energy": -9.27, "internal_energy": -3.8, "cluster_size": 2, "cluster_id": 10, "rank_in_cluster": 2}

>  <energy>  (17) 
-7.83

>  <cluster_rmsd>  (17) 
1.65

>  <cluster>  (17) 
1

$$$$

     RDKit          3D

 59 62  0  0  0  0  0  0  0  0999 V2000
  143.9260   74.2410  218.6090 C   0  0  0  0  0  0  0  0  0  0  0  0
  143.2570   75.4060  219.3500 C   0  0  2  0  0  0  0  0  0  0  0  0
  141.9290   74.9390  219.6950 N   0  0  0  0  0  0  0  0  0  0  0  0
  141.8150   73.8960  220.6530 C   0  0  0  0  0  0  0  0  0  0  0  0
  142.8140   73.3680  221.2070 O   0  0  0  0  0  0  0  0  0  0  0  0
  140.4620   73.4000  221.0220 C   0  0  0  0  0  0  0  0  0  0  0  0
  140.6430   72.4640  222.1220 N   0  0  0  0  0  0  0  0  0  0  0  0
  139.5020   71.9970  222.8210 C   0  0  0  0  0  0  0  0  0  0  0  0
  138.3780   72.4110  222.4590 O   0  0  0  0  0  0  0  0  0  0  0  0
  139.6480   71.0580  223.9290 C   0  0  0  0  0  0  0  0  0  0  0  0
  139.1720   69.7690  223.8030 C   0  0  0  0  0  0  0  0  0  0  0  0
  139.2700   68.8240  224.8020 C   0  0  0  0  0  0  0  0  0  0  0  0
  139.8830   69.2040  225.9910 C   0  0  0  0  0  0  0  0  0  0  0  0
  140.0210   68.3150  227.0350 C   0  0  0  0  0  0  0  0  0  0  0  0
  140.6310   68.6840  228.2270 C   0  0  0  0  0  0  0  0  0  0  0  0
  141.1010   69.9820  228.3300 C   0  0  0  0  0  0  0  0  0  0  0  0
  140.9670   70.8830  227.2800 C   0  0  0  0  0  0  0  0  0  0  0  0
  140.3580   70.4980  226.1060 C   0  0  0  0  0  0  0  0  0  0  0  0
  140.2380   71.3980  225.0930 N   0  0  0  0  0  0  0  0  0  0  0  0
  143.2450   76.6010  218.4200 C   0  0  1  0  0  0  0  0  0  0  0  0
  143.7080   76.1980  217.0270 C   0  0  0  0  0  0  0  0  0  0  0  0
  142.4760   76.0820  216.1800 C   0  0  0  0  0  0  0  0  0  0  0  0
  141.3440   76.4830  217.1020 C   0  0  0  0  0  0  0  0  0  0  0  0
  141.9340   77.1290  218.2310 N   0  0  0  0  0  0  0  0  0  0  0  0
  141.8130   78.5490  218.2740 C   0  0  0  0  0  0  0  0  0  0  0  0
  141.8160   79.1580  219.6050 C   0  0  0  0  0  0  0  0  0  0  0  0
  141.8280   80.5360  219.8020 C   0  0  0  0  0  0  0  0  0  0  0  0
  141.8310   81.1040  221.0590 C   0  0  0  0  0  0  0  0  0  0  0  0
  141.8210   80.3220  222.1880 C   0  0  0  0  0  0  0  0  0  0  0  0
  141.8240   80.9720  223.8130 Cl  0  0  0  0  0  0  0  0  0  0  0  0
  141.8070   78.9570  222.0250 C   0  0  0  0  0  0  0  0  0  0  0  0
  141.8050   78.3910  220.7590 C   0  0  0  0  0  0  0  0  0  0  0  0
  144.3353   73.5282  219.3400 H   0  0  0  0  0  0  0  0  0  0  0  0
  143.1823   73.7325  217.9778 H   0  0  0  0  0  0  0  0  0  0  0  0
  144.7400   74.6270  217.9778 H   0  0  0  0  0  0  0  0  0  0  0  0
  143.7781   75.7181  220.2671 H   0  0  0  0  0  0  0  0  0  0  0  0
  141.1150   75.3910  219.2230 H   0  0  0  0  0  0  0  0  0  0  0  0
  139.8247   74.2386  221.3393 H   0  0  0  0  0  0  0  0  0  0  0  0
  139.9730   72.9129  220.1655 H   0  0  0  0  0  0  0  0  0  0  0  0
  141.5750   72.1140  222.4310 H   0  0  0  0  0  0  0  0  0  0  0  0
  138.6898   69.4807  222.8573 H   0  0  0  0  0  0  0  0  0  0  0  0
  138.8774   67.8058  224.6636 H   0  0  0  0  0  0  0  0  0  0  0  0
  139.6393   67.2896  226.9217 H   0  0  0  0  0  0  0  0  0  0  0  0
  140.7367   67.9714  229.0582 H   0  0  0  0  0  0  0  0  0  0  0  0
  141.5898   70.3066  229.2604 H   0  0  0  0  0  0  0  0  0  0  0  0
  141.3493   71.9088  227.3872 H   0  0  0  0  0  0  0  0  0  0  0  0
  143.9052   77.3441  218.8912 H   0  0  0  0  0  0  0  0  0  0  0  0
  144.3807   76.9644  216.6146 H   0  0  0  0  0  0  0  0  0  0  0  0
  144.2608   75.2474  217.0535 H   0  0  0  0  0  0  0  0  0  0  0  0
  142.5327   76.7604  215.3159 H   0  0  0  0  0  0  0  0  0  0  0  0
  142.3435   75.0698  215.7701 H   0  0  0  0  0  0  0  0  0  0  0  0
  140.6623   77.1742  216.5848 H   0  0  0  0  0  0  0  0  0  0  0  0
  140.7609   75.6037  217.4132 H   0  0  0  0  0  0  0  0  0  0  0  0
  142.6548   78.9748  217.7083 H   0  0  0  0  0  0  0  0  0  0  0  0
  140.8230   78.7730  217.8501 H   0  0  0  0  0  0  0  0  0  0  0  0
  141.8354   81.1966  218.9225 H   0  0  0  0  0  0  0  0  0  0  0  0
  141.8415   82.1994  221.1586 H   0  0  0  0  0  0  0  0  0  0  0  0
  141.7973   78.3049  222.9108 H   0  0  0  0  0  0  0  0  0  0  0  0
  141.7943   77.2948  220.6677 H   0  0  0  0  0  0  0  0  0  0  0  0
  1  2  1  0
  2  3  1  0
  3  4  1  0
  4  5  2  0
  4  6  1  0
  6  7  1  0
  7  8  1  0
  8  9  2  0
  8 10  1  0
 10 11  2  0
 11 12  1  0
 12 13  2  0
 13 14  1  0
 14 15  2  0
 15 16  1  0
 16 17  2  0
 17 18  1  0
 18 19  2  0
  2 20  1  0
 20 21  1  0
 21 22  1  0
 22 23  1  0
 23 24  1  0
 24 25  1  0
 25 26  1  0
 26 27  2  0
 27 28  1  0
 28 29  2  0
 29 30  1  0
 29 31  1  0
 31 32  2  0
 19 10  1  0
 24 20  1  0
 32 26  1  0
 18 13  1  0
  1 33  1  0
  1 34  1  0
  1 35  1  0
  2 36  1  1
  3 37  1  0
  6 38  1  0
  6 39  1  0
  7 40  1  0
 11 41  1  0
 12 42  1  0
 14 43  1  0
 15 44  1  0
 16 45  1  0
 17 46  1  0
 20 47  1  1
 21 48  1  0
 21 49  1  0
 22 50  1  0
 22 51  1  0
 23 52  1  0
 23 53  1  0
 25 54  1  0
 25 55  1  0
 27 56  1  0
 28 57  1  0
 31 58  1  0
 32 59  1  0
M  END
>  <smiles>  (18) 
C[C@H](NC(=O)CNC(=O)c1ccc2ccccc2n1)[C@H]1CCCN1Cc1ccc(Cl)cc1

>  <score_type>  (18) 
oracle

>  <origin>  (18) 
autodockgpu

>  <m_score__min__energy>  (18) 
-9.4600000000000009

>  <m_primary>  (18) 
energy

>  <rmsd>  (18) 
2.959342364573179

>  <m_score__min__rmsd>  (18) 
2.959342364573179

>  <meeko>  (18) 
{"free_energy": -8.06, "intermolecular_energy": -10.15, "internal_energy": -2.84, "cluster_size": 19, "cluster_id": 1, "rank_in_cluster": 14}

>  <energy>  (18) 
-7.82

>  <cluster_rmsd>  (18) 
1.76

>  <cluster>  (18) 
1

$$$$

     RDKit          3D

 59 62  0  0  0  0  0  0  0  0999 V2000
  142.1100   74.2230  218.8500 C   0  0  0  0  0  0  0  0  0  0  0  0
  142.0210   74.3240  220.3790 C   0  0  2  0  0  0  0  0  0  0  0  0
  140.8650   73.5350  220.7560 N   0  0  0  0  0  0  0  0  0  0  0  0
  140.8580   72.1560  220.4160 C   0  0  0  0  0  0  0  0  0  0  0  0
  141.8090   71.5990  219.8060 O   0  0  0  0  0  0  0  0  0  0  0  0
  139.6820   71.3250  220.7920 C   0  0  0  0  0  0  0  0  0  0  0  0
  139.9740   70.7490  222.0970 N   0  0  0  0  0  0  0  0  0  0  0  0
  140.1260   71.6110  223.2110 C   0  0  0  0  0  0  0  0  0  0  0  0
  140.0010   72.8420  223.0240 O   0  0  0  0  0  0  0  0  0  0  0  0
  140.4180   71.0650  224.5330 C   0  0  0  0  0  0  0  0  0  0  0  0
  140.6500   71.9190  225.5910 C   0  0  0  0  0  0  0  0  0  0  0  0
  140.9330   71.4830  226.8680 C   0  0  0  0  0  0  0  0  0  0  0  0
  140.9830   70.1100  227.0840 C   0  0  0  0  0  0  0  0  0  0  0  0
  141.2590   69.5970  228.3330 C   0  0  0  0  0  0  0  0  0  0  0  0
  141.3130   68.2270  228.5590 C   0  0  0  0  0  0  0  0  0  0  0  0
  141.0760   67.3910  227.4820 C   0  0  0  0  0  0  0  0  0  0  0  0
  140.7970   67.9020  226.2210 C   0  0  0  0  0  0  0  0  0  0  0  0
  140.7490   69.2630  226.0150 C   0  0  0  0  0  0  0  0  0  0  0  0
  140.4730   69.7390  224.7710 N   0  0  0  0  0  0  0  0  0  0  0  0
  141.8860   75.7880  220.7400 C   0  0  1  0  0  0  0  0  0  0  0  0
  141.5810   76.6180  219.5000 C   0  0  0  0  0  0  0  0  0  0  0  0
  140.1130   76.9250  219.5380 C   0  0  0  0  0  0  0  0  0  0  0  0
  139.6320   76.3120  220.8350 C   0  0  0  0  0  0  0  0  0  0  0  0
  140.7910   76.0310  221.6200 N   0  0  0  0  0  0  0  0  0  0  0  0
  141.0400   76.9190  222.7080 C   0  0  0  0  0  0  0  0  0  0  0  0
  141.0240   78.3480  222.3910 C   0  0  0  0  0  0  0  0  0  0  0  0
  139.8800   79.1320  222.5120 C   0  0  0  0  0  0  0  0  0  0  0  0
  139.8710   80.4790  222.2120 C   0  0  0  0  0  0  0  0  0  0  0  0
  141.0070   81.1140  221.7740 C   0  0  0  0  0  0  0  0  0  0  0  0
  141.0690   82.8160  221.3750 Cl  0  0  0  0  0  0  0  0  0  0  0  0
  142.1530   80.3650  221.6450 C   0  0  0  0  0  0  0  0  0  0  0  0
  142.1570   79.0120  221.9480 C   0  0  0  0  0  0  0  0  0  0  0  0
  142.8143   73.4238  218.5757 H   0  0  0  0  0  0  0  0  0  0  0  0
  141.1159   73.9926  218.4393 H   0  0  0  0  0  0  0  0  0  0  0  0
  142.4636   75.1802  218.4393 H   0  0  0  0  0  0  0  0  0  0  0  0
  142.9057   73.9430  220.9102 H   0  0  0  0  0  0  0  0  0  0  0  0
  140.0900   74.0170  221.2610 H   0  0  0  0  0  0  0  0  0  0  0  0
  138.7787   71.9502  220.8476 H   0  0  0  0  0  0  0  0  0  0  0  0
  139.4996   70.5383  220.0452 H   0  0  0  0  0  0  0  0  0  0  0  0
  140.0800   69.7250  222.2610 H   0  0  0  0  0  0  0  0  0  0  0  0
  140.6071   73.0026  225.4066 H   0  0  0  0  0  0  0  0  0  0  0  0
  141.1128   72.1955  227.6866 H   0  0  0  0  0  0  0  0  0  0  0  0
  141.4406   70.2875  229.1698 H   0  0  0  0  0  0  0  0  0  0  0  0
  141.5359   67.8220  229.5571 H   0  0  0  0  0  0  0  0  0  0  0  0
  141.1092   66.3011  227.6273 H   0  0  0  0  0  0  0  0  0  0  0  0
  140.6132   67.2154  225.3815 H   0  0  0  0  0  0  0  0  0  0  0  0
  142.8408   76.0613  221.2129 H   0  0  0  0  0  0  0  0  0  0  0  0
  142.1640   77.5507  219.5151 H   0  0  0  0  0  0  0  0  0  0  0  0
  141.8478   76.0724  218.5829 H   0  0  0  0  0  0  0  0  0  0  0  0
  139.9427   78.0117  219.5347 H   0  0  0  0  0  0  0  0  0  0  0  0
  139.5791   76.5258  218.6630 H   0  0  0  0  0  0  0  0  0  0  0  0
  138.9779   77.0186  221.3669 H   0  0  0  0  0  0  0  0  0  0  0  0
  139.0552   75.3948  220.6451 H   0  0  0  0  0  0  0  0  0  0  0  0
  140.2714   76.7361  223.4734 H   0  0  0  0  0  0  0  0  0  0  0  0
  142.0668   76.7014  223.0373 H   0  0  0  0  0  0  0  0  0  0  0  0
  138.9489   78.6604  222.8595 H   0  0  0  0  0  0  0  0  0  0  0  0
  138.9394   81.0528  222.3255 H   0  0  0  0  0  0  0  0  0  0  0  0
  143.0791   80.8458  221.2967 H   0  0  0  0  0  0  0  0  0  0  0  0
  143.0928   78.4454  221.8327 H   0  0  0  0  0  0  0  0  0  0  0  0
  1  2  1  0
  2  3  1  0
  3  4  1  0
  4  5  2  0
  4  6  1  0
  6  7  1  0
  7  8  1  0
  8  9  2  0
  8 10  1  0
 10 11  2  0
 11 12  1  0
 12 13  2  0
 13 14  1  0
 14 15  2  0
 15 16  1  0
 16 17  2  0
 17 18  1  0
 18 19  2  0
  2 20  1  0
 20 21  1  0
 21 22  1  0
 22 23  1  0
 23 24  1  0
 24 25  1  0
 25 26  1  0
 26 27  2  0
 27 28  1  0
 28 29  2  0
 29 30  1  0
 29 31  1  0
 31 32  2  0
 19 10  1  0
 24 20  1  0
 32 26  1  0
 18 13  1  0
  1 33  1  0
  1 34  1  0
  1 35  1  0
  2 36  1  1
  3 37  1  0
  6 38  1  0
  6 39  1  0
  7 40  1  0
 11 41  1  0
 12 42  1  0
 14 43  1  0
 15 44  1  0
 16 45  1  0
 17 46  1  0
 20 47  1  1
 21 48  1  0
 21 49  1  0
 22 50  1  0
 22 51  1  0
 23 52  1  0
 23 53  1  0
 25 54  1  0
 25 55  1  0
 27 56  1  0
 28 57  1  0
 31 58  1  0
 32 59  1  0
M  END
>  <smiles>  (19) 
C[C@H](NC(=O)CNC(=O)c1ccc2ccccc2n1)[C@H]1CCCN1Cc1ccc(Cl)cc1

>  <score_type>  (19) 
oracle

>  <origin>  (19) 
autodockgpu

>  <m_score__min__energy>  (19) 
-9.4600000000000009

>  <m_primary>  (19) 
energy

>  <rmsd>  (19) 
3.277661281796075

>  <m_score__min__rmsd>  (19) 
3.277661281796075

>  <meeko>  (19) 
{"free_energy": -7.82, "intermolecular_energy": -9.91, "internal_energy": -3.18, "cluster_size": 19, "cluster_id": 1, "rank_in_cluster": 18}

>  <energy>  (19) 
-7.66

>  <cluster_rmsd>  (19) 
1.53

>  <cluster>  (19) 
1

$$$$

     RDKit          3D

 59 62  0  0  0  0  0  0  0  0999 V2000
  143.3280   74.5130  218.7770 C   0  0  0  0  0  0  0  0  0  0  0  0
  142.8540   75.6440  219.6990 C   0  0  2  0  0  0  0  0  0  0  0  0
  141.5580   75.2260  220.1970 N   0  0  0  0  0  0  0  0  0  0  0  0
  141.4850   74.0160  220.9350 C   0  0  0  0  0  0  0  0  0  0  0  0
  142.4930   73.2990  221.1720 O   0  0  0  0  0  0  0  0  0  0  0  0
  140.1660   73.5660  221.4560 C   0  0  0  0  0  0  0  0  0  0  0  0
  139.5560   74.7150  222.1080 N   0  0  0  0  0  0  0  0  0  0  0  0
  138.9000   75.6890  221.3140 C   0  0  0  0  0  0  0  0  0  0  0  0
  138.8720   75.5160  220.0750 O   0  0  0  0  0  0  0  0  0  0  0  0
  138.2780   76.8530  221.9370 C   0  0  0  0  0  0  0  0  0  0  0  0
  136.9110   77.0200  221.8650 C   0  0  0  0  0  0  0  0  0  0  0  0
  136.2480   78.0920  222.4260 C   0  0  0  0  0  0  0  0  0  0  0  0
  137.0110   79.0430  223.0950 C   0  0  0  0  0  0  0  0  0  0  0  0
  136.4210   80.1410  223.6830 C   0  0  0  0  0  0  0  0  0  0  0  0
  137.1740   81.0980  224.3520 C   0  0  0  0  0  0  0  0  0  0  0  0
  138.5440   80.9080  224.4120 C   0  0  0  0  0  0  0  0  0  0  0  0
  139.1440   79.8020  223.8220 C   0  0  0  0  0  0  0  0  0  0  0  0
  138.3810   78.8640  223.1610 C   0  0  0  0  0  0  0  0  0  0  0  0
  138.9930   77.7910  222.5920 N   0  0  0  0  0  0  0  0  0  0  0  0
  142.7950   76.9160  218.8800 C   0  0  1  0  0  0  0  0  0  0  0  0
  143.3530   76.6780  217.4840 C   0  0  0  0  0  0  0  0  0  0  0  0
  142.1750   76.5530  216.5640 C   0  0  0  0  0  0  0  0  0  0  0  0
  140.9740   76.7850  217.4550 C   0  0  0  0  0  0  0  0  0  0  0  0
  141.4580   77.3640  218.6670 N   0  0  0  0  0  0  0  0  0  0  0  0
  141.2270   78.7620  218.8290 C   0  0  0  0  0  0  0  0  0  0  0  0
  141.5540   79.3220  220.1410 C   0  0  0  0  0  0  0  0  0  0  0  0
  141.8080   78.5280  221.2560 C   0  0  0  0  0  0  0  0  0  0  0  0
  142.1170   79.0620  222.4900 C   0  0  0  0  0  0  0  0  0  0  0  0
  142.1880   80.4220  222.6750 C   0  0  0  0  0  0  0  0  0  0  0  0
  142.5730   81.1680  224.2100 Cl  0  0  0  0  0  0  0  0  0  0  0  0
  141.9430   81.2310  221.5920 C   0  0  0  0  0  0  0  0  0  0  0  0
  141.6330   80.6900  220.3530 C   0  0  0  0  0  0  0  0  0  0  0  0
  143.6822   73.6679  219.3856 H   0  0  0  0  0  0  0  0  0  0  0  0
  142.4925   74.1830  218.1422 H   0  0  0  0  0  0  0  0  0  0  0  0
  144.1492   74.8773  218.1422 H   0  0  0  0  0  0  0  0  0  0  0  0
  143.5202   75.8419  220.5517 H   0  0  0  0  0  0  0  0  0  0  0  0
  140.7370   75.8350  219.9880 H   0  0  0  0  0  0  0  0  0  0  0  0
  139.5304   73.2191  220.6280 H   0  0  0  0  0  0  0  0  0  0  0  0
  140.2850   72.7299  222.1609 H   0  0  0  0  0  0  0  0  0  0  0  0
  139.5750   74.8670  223.1400 H   0  0  0  0  0  0  0  0  0  0  0  0
  136.3193   76.2601  221.3335 H   0  0  0  0  0  0  0  0  0  0  0  0
  135.1553   78.1909  222.3470 H   0  0  0  0  0  0  0  0  0  0  0  0
  135.3295   80.2624  223.6213 H   0  0  0  0  0  0  0  0  0  0  0  0
  136.6990   81.9745  224.8169 H   0  0  0  0  0  0  0  0  0  0  0  0
  139.1690   81.6459  224.9362 H   0  0  0  0  0  0  0  0  0  0  0  0
  140.2349   79.6745  223.8830 H   0  0  0  0  0  0  0  0  0  0  0  0
  143.3730   77.6574  219.4511 H   0  0  0  0  0  0  0  0  0  0  0  0
  143.9842   77.5255  217.1785 H   0  0  0  0  0  0  0  0  0  0  0  0
  143.9747   75.7710  217.4559 H   0  0  0  0  0  0  0  0  0  0  0  0
  142.2210   77.3107  215.7679 H   0  0  0  0  0  0  0  0  0  0  0  0
  142.1396   75.5763  216.0591 H   0  0  0  0  0  0  0  0  0  0  0  0
  140.2671   77.4706  216.9649 H   0  0  0  0  0  0  0  0  0  0  0  0
  140.4458   75.8411  217.6549 H   0  0  0  0  0  0  0  0  0  0  0  0
  141.8313   79.2915  218.0777 H   0  0  0  0  0  0  0  0  0  0  0  0
  140.1415   78.8970  218.7129 H   0  0  0  0  0  0  0  0  0  0  0  0
  141.7606   77.4342  221.1491 H   0  0  0  0  0  0  0  0  0  0  0  0
  142.3095   78.3891  223.3386 H   0  0  0  0  0  0  0  0  0  0  0  0
  141.9934   82.3236  221.7091 H   0  0  0  0  0  0  0  0  0  0  0  0
  141.4432   81.3698  219.5093 H   0  0  0  0  0  0  0  0  0  0  0  0
  1  2  1  0
  2  3  1  0
  3  4  1  0
  4  5  2  0
  4  6  1  0
  6  7  1  0
  7  8  1  0
  8  9  2  0
  8 10  1  0
 10 11  2  0
 11 12  1  0
 12 13  2  0
 13 14  1  0
 14 15  2  0
 15 16  1  0
 16 17  2  0
 17 18  1  0
 18 19  2  0
  2 20  1  0
 20 21  1  0
 21 22  1  0
 22 23  1  0
 23 24  1  0
 24 25  1  0
 25 26  1  0
 26 27  2  0
 27 28  1  0
 28 29  2  0
 29 30  1  0
 29 31  1  0
 31 32  2  0
 19 10  1  0
 24 20  1  0
 32 26  1  0
 18 13  1  0
  1 33  1  0
  1 34  1  0
  1 35  1  0
  2 36  1  1
  3 37  1  0
  6 38  1  0
  6 39  1  0
  7 40  1  0
 11 41  1  0
 12 42  1  0
 14 43  1  0
 15 44  1  0
 16 45  1  0
 17 46  1  0
 20 47  1  1
 21 48  1  0
 21 49  1  0
 22 50  1  0
 22 51  1  0
 23 52  1  0
 23 53  1  0
 25 54  1  0
 25 55  1  0
 27 56  1  0
 28 57  1  0
 31 58  1  0
 32 59  1  0
M  END
>  <smiles>  (20) 
C[C@H](NC(=O)CNC(=O)c1ccc2ccccc2n1)[C@H]1CCCN1Cc1ccc(Cl)cc1

>  <score_type>  (20) 
oracle

>  <origin>  (20) 
autodockgpu

>  <m_score__min__energy>  (20) 
-9.4600000000000009

>  <m_primary>  (20) 
energy

>  <rmsd>  (20) 
6.623537911758784

>  <m_score__min__rmsd>  (20) 
6.623537911758784

>  <meeko>  (20) 
{"free_energy": -6.3, "intermolecular_energy": -8.38, "internal_energy": -4.27, "cluster_size": 3, "cluster_id": 14, "rank_in_cluster": 1}

>  <energy>  (20) 
-9.33

>  <cluster_rmsd>  (20) 
0.0

>  <cluster>  (20) 
2

$$$$

     RDKit          3D

 59 62  0  0  0  0  0  0  0  0999 V2000
  142.8060   75.2210  218.6200 C   0  0  0  0  0  0  0  0  0  0  0  0
  142.3770   75.0350  220.0810 C   0  0  2  0  0  0  0  0  0  0  0  0
  141.3930   73.9700  220.0670 N   0  0  0  0  0  0  0  0  0  0  0  0
  141.8290   72.6610  219.7290 C   0  0  0  0  0  0  0  0  0  0  0  0
  143.0270   72.3940  219.4450 O   0  0  0  0  0  0  0  0  0  0  0  0
  140.8370   71.5530  219.7080 C   0  0  0  0  0  0  0  0  0  0  0  0
  140.7950   70.9990  221.0530 N   0  0  0  0  0  0  0  0  0  0  0  0
  140.1570   71.7370  222.0810 C   0  0  0  0  0  0  0  0  0  0  0  0
  139.6520   72.8430  221.7850 O   0  0  0  0  0  0  0  0  0  0  0  0
  140.0970   71.2100  223.4400 C   0  0  0  0  0  0  0  0  0  0  0  0
  139.4550   70.0130  223.6830 C   0  0  0  0  0  0  0  0  0  0  0  0
  139.3540   69.4490  224.9380 C   0  0  0  0  0  0  0  0  0  0  0  0
  139.9330   70.1330  226.0010 C   0  0  0  0  0  0  0  0  0  0  0  0
  139.8750   69.6330  227.2840 C   0  0  0  0  0  0  0  0  0  0  0  0
  140.4490   70.3090  228.3530 C   0  0  0  0  0  0  0  0  0  0  0  0
  141.0870   71.5070  228.0840 C   0  0  0  0  0  0  0  0  0  0  0  0
  141.1510   72.0170  226.7930 C   0  0  0  0  0  0  0  0  0  0  0  0
  140.5740   71.3320  225.7450 C   0  0  0  0  0  0  0  0  0  0  0  0
  140.6490   71.8520  224.4900 N   0  0  0  0  0  0  0  0  0  0  0  0
  141.8200   76.3540  220.5720 C   0  0  1  0  0  0  0  0  0  0  0  0
  142.2490   77.4900  219.6540 C   0  0  0  0  0  0  0  0  0  0  0  0
  141.0680   77.8150  218.7900 C   0  0  0  0  0  0  0  0  0  0  0  0
  139.9730   76.8930  219.2820 C   0  0  0  0  0  0  0  0  0  0  0  0
  140.3940   76.3840  220.5480 N   0  0  0  0  0  0  0  0  0  0  0  0
  139.7550   76.9450  221.6930 C   0  0  0  0  0  0  0  0  0  0  0  0
  140.4470   78.0630  222.3350 C   0  0  0  0  0  0  0  0  0  0  0  0
  141.4360   77.8830  223.2980 C   0  0  0  0  0  0  0  0  0  0  0  0
  142.0850   78.9400  223.9000 C   0  0  0  0  0  0  0  0  0  0  0  0
  141.7790   80.2380  223.5690 C   0  0  0  0  0  0  0  0  0  0  0  0
  142.5610   81.6280  224.2910 Cl  0  0  0  0  0  0  0  0  0  0  0  0
  140.8070   80.4480  222.6210 C   0  0  0  0  0  0  0  0  0  0  0  0
  140.1570   79.3810  222.0190 C   0  0  0  0  0  0  0  0  0  0  0  0
  143.8148   75.6584  218.5869 H   0  0  0  0  0  0  0  0  0  0  0  0
  142.8127   74.2450  218.1127 H   0  0  0  0  0  0  0  0  0  0  0  0
  142.0982   75.8930  218.1127 H   0  0  0  0  0  0  0  0  0  0  0  0
  143.1958   74.7593  220.7618 H   0  0  0  0  0  0  0  0  0  0  0  0
  140.4070   74.2150  220.3060 H   0  0  0  0  0  0  0  0  0  0  0  0
  139.8458   71.9377  219.4260 H   0  0  0  0  0  0  0  0  0  0  0  0
  141.1201   70.7844  218.9738 H   0  0  0  0  0  0  0  0  0  0  0  0
  141.2130   70.0790  221.3080 H   0  0  0  0  0  0  0  0  0  0  0  0
  139.0010   69.4818  222.8335 H   0  0  0  0  0  0  0  0  0  0  0  0
  138.8338   68.4921  225.0922 H   0  0  0  0  0  0  0  0  0  0  0  0
  139.3624   68.6768  227.4655 H   0  0  0  0  0  0  0  0  0  0  0  0
  140.3983   69.9069  229.3756 H   0  0  0  0  0  0  0  0  0  0  0  0
  141.5528   72.0668  228.9085 H   0  0  0  0  0  0  0  0  0  0  0  0
  141.6645   72.9717  226.6064 H   0  0  0  0  0  0  0  0  0  0  0  0
  142.2001   76.4671  221.5980 H   0  0  0  0  0  0  0  0  0  0  0  0
  142.5373   78.3695  220.2485 H   0  0  0  0  0  0  0  0  0  0  0  0
  143.1173   77.1996  219.0443 H   0  0  0  0  0  0  0  0  0  0  0  0
  140.7742   78.8679  218.9131 H   0  0  0  0  0  0  0  0  0  0  0  0
  141.2819   77.6765  217.7199 H   0  0  0  0  0  0  0  0  0  0  0  0
  139.0312   77.4504  219.3931 H   0  0  0  0  0  0  0  0  0  0  0  0
  139.7984   76.0746  218.5680 H   0  0  0  0  0  0  0  0  0  0  0  0
  138.7608   77.2990  221.3829 H   0  0  0  0  0  0  0  0  0  0  0  0
  139.7351   76.1407  222.4432 H   0  0  0  0  0  0  0  0  0  0  0  0
  141.7101   76.8584  223.5898 H   0  0  0  0  0  0  0  0  0  0  0  0
  142.8589   78.7414  224.6561 H   0  0  0  0  0  0  0  0  0  0  0  0
  140.5407   81.4764  222.3356 H   0  0  0  0  0  0  0  0  0  0  0  0
  139.3841   79.5880  221.2642 H   0  0  0  0  0  0  0  0  0  0  0  0
  1  2  1  0
  2  3  1  0
  3  4  1  0
  4  5  2  0
  4  6  1  0
  6  7  1  0
  7  8  1  0
  8  9  2  0
  8 10  1  0
 10 11  2  0
 11 12  1  0
 12 13  2  0
 13 14  1  0
 14 15  2  0
 15 16  1  0
 16 17  2  0
 17 18  1  0
 18 19  2  0
  2 20  1  0
 20 21  1  0
 21 22  1  0
 22 23  1  0
 23 24  1  0
 24 25  1  0
 25 26  1  0
 26 27  2  0
 27 28  1  0
 28 29  2  0
 29 30  1  0
 29 31  1  0
 31 32  2  0
 19 10  1  0
 24 20  1  0
 32 26  1  0
 18 13  1  0
  1 33  1  0
  1 34  1  0
  1 35  1  0
  2 36  1  1
  3 37  1  0
  6 38  1  0
  6 39  1  0
  7 40  1  0
 11 41  1  0
 12 42  1  0
 14 43  1  0
 15 44  1  0
 16 45  1  0
 17 46  1  0
 20 47  1  1
 21 48  1  0
 21 49  1  0
 22 50  1  0
 22 51  1  0
 23 52  1  0
 23 53  1  0
 25 54  1  0
 25 55  1  0
 27 56  1  0
 28 57  1  0
 31 58  1  0
 32 59  1  0
M  END
>  <smiles>  (21) 
C[C@H](NC(=O)CNC(=O)c1ccc2ccccc2n1)[C@H]1CCCN1Cc1ccc(Cl)cc1

>  <score_type>  (21) 
oracle

>  <origin>  (21) 
autodockgpu

>  <m_score__min__energy>  (21) 
-9.4600000000000009

>  <m_primary>  (21) 
energy

>  <rmsd>  (21) 
2.9395626781724133

>  <m_score__min__rmsd>  (21) 
2.9395626781724133

>  <meeko>  (21) 
{"free_energy": -8.03, "intermolecular_energy": -10.12, "internal_energy": -3.03, "cluster_size": 19, "cluster_id": 1, "rank_in_cluster": 15}

>  <energy>  (21) 
-9.19

>  <cluster_rmsd>  (21) 
1.95

>  <cluster>  (21) 
2

$$$$

     RDKit          3D

 59 62  0  0  0  0  0  0  0  0999 V2000
  135.9630   73.6270  221.1130 C   0  0  0  0  0  0  0  0  0  0  0  0
  136.9280   74.5380  220.3430 C   0  0  2  0  0  0  0  0  0  0  0  0
  138.2480   73.9800  220.5590 N   0  0  0  0  0  0  0  0  0  0  0  0
  138.7030   72.9740  219.6650 C   0  0  0  0  0  0  0  0  0  0  0  0
  138.0090   72.5520  218.7030 O   0  0  0  0  0  0  0  0  0  0  0  0
  140.0540   72.3850  219.8670 C   0  0  0  0  0  0  0  0  0  0  0  0
  139.9910   71.5930  221.0870 N   0  0  0  0  0  0  0  0  0  0  0  0
  140.2090   72.2310  222.3330 C   0  0  0  0  0  0  0  0  0  0  0  0
  140.4490   73.4590  222.3320 O   0  0  0  0  0  0  0  0  0  0  0  0
  140.1530   71.4660  223.5740 C   0  0  0  0  0  0  0  0  0  0  0  0
  139.5860   70.2080  223.5790 C   0  0  0  0  0  0  0  0  0  0  0  0
  139.4930   69.4230  224.7080 C   0  0  0  0  0  0  0  0  0  0  0  0
  140.0010   69.9390  225.8960 C   0  0  0  0  0  0  0  0  0  0  0  0
  139.9460   69.2130  227.0670 C   0  0  0  0  0  0  0  0  0  0  0  0
  140.4500   69.7200  228.2580 C   0  0  0  0  0  0  0  0  0  0  0  0
  141.0130   70.9840  228.2290 C   0  0  0  0  0  0  0  0  0  0  0  0
  141.0730   71.7200  227.0520 C   0  0  0  0  0  0  0  0  0  0  0  0
  140.5670   71.2010  225.8790 C   0  0  0  0  0  0  0  0  0  0  0  0
  140.6370   71.9410  224.7410 N   0  0  0  0  0  0  0  0  0  0  0  0
  136.7780   75.9410  220.8910 C   0  0  1  0  0  0  0  0  0  0  0  0
  135.8900   75.9400  222.1270 C   0  0  0  0  0  0  0  0  0  0  0  0
  136.8010   76.0460  223.3130 C   0  0  0  0  0  0  0  0  0  0  0  0
  138.1860   76.1680  222.7160 C   0  0  0  0  0  0  0  0  0  0  0  0
  138.0190   76.4870  221.3340 N   0  0  0  0  0  0  0  0  0  0  0  0
  138.2810   77.8400  220.9680 C   0  0  0  0  0  0  0  0  0  0  0  0
  139.3840   78.4970  221.6710 C   0  0  0  0  0  0  0  0  0  0  0  0
  139.1820   79.4810  222.6340 C   0  0  0  0  0  0  0  0  0  0  0  0
  140.2250   80.0970  223.2930 C   0  0  0  0  0  0  0  0  0  0  0  0
  141.5300   79.7600  223.0240 C   0  0  0  0  0  0  0  0  0  0  0  0
  142.9020   80.4980  223.8200 Cl  0  0  0  0  0  0  0  0  0  0  0  0
  141.7600   78.7900  222.0770 C   0  0  0  0  0  0  0  0  0  0  0  0
  140.7080   78.1740  221.4170 C   0  0  0  0  0  0  0  0  0  0  0  0
  136.1109   73.7666  222.1941 H   0  0  0  0  0  0  0  0  0  0  0  0
  134.9266   73.8837  220.8485 H   0  0  0  0  0  0  0  0  0  0  0  0
  136.1597   72.5775  220.8485 H   0  0  0  0  0  0  0  0  0  0  0  0
  136.7329   74.5934  219.2619 H   0  0  0  0  0  0  0  0  0  0  0  0
  138.8060   74.3440  221.3630 H   0  0  0  0  0  0  0  0  0  0  0  0
  140.3190   71.7442  219.0131 H   0  0  0  0  0  0  0  0  0  0  0  0
  140.8189   73.1715  219.9468 H   0  0  0  0  0  0  0  0  0  0  0  0
  139.7930   70.5700  221.0970 H   0  0  0  0  0  0  0  0  0  0  0  0
  139.1878   69.8114  222.6334 H   0  0  0  0  0  0  0  0  0  0  0  0
  139.0336   68.4242  224.6711 H   0  0  0  0  0  0  0  0  0  0  0  0
  139.4932   68.2106  227.0578 H   0  0  0  0  0  0  0  0  0  0  0  0
  140.4033   69.1380  229.1903 H   0  0  0  0  0  0  0  0  0  0  0  0
  141.4208   71.4142  229.1556 H   0  0  0  0  0  0  0  0  0  0  0  0
  141.5266   72.7221  227.0560 H   0  0  0  0  0  0  0  0  0  0  0  0
  136.3588   76.5331  220.0642 H   0  0  0  0  0  0  0  0  0  0  0  0
  135.2018   76.7977  222.0999 H   0  0  0  0  0  0  0  0  0  0  0  0
  135.2819   75.0247  222.1762 H   0  0  0  0  0  0  0  0  0  0  0  0
  136.5564   76.9348  223.9131 H   0  0  0  0  0  0  0  0  0  0  0  0
  136.7109   75.1826  223.9886 H   0  0  0  0  0  0  0  0  0  0  0  0
  138.7467   76.9671  223.2230 H   0  0  0  0  0  0  0  0  0  0  0  0
  138.7493   75.2310  222.8370 H   0  0  0  0  0  0  0  0  0  0  0  0
  138.5101   77.8585  219.8923 H   0  0  0  0  0  0  0  0  0  0  0  0
  137.3773   78.4012  221.2479 H   0  0  0  0  0  0  0  0  0  0  0  0
  138.1517   79.7786  222.8787 H   0  0  0  0  0  0  0  0  0  0  0  0
  140.0093   80.8699  224.0454 H   0  0  0  0  0  0  0  0  0  0  0  0
  142.7938   78.4986  221.8396 H   0  0  0  0  0  0  0  0  0  0  0  0
  140.9315   77.4022  220.6658 H   0  0  0  0  0  0  0  0  0  0  0  0
  1  2  1  0
  2  3  1  0
  3  4  1  0
  4  5  2  0
  4  6  1  0
  6  7  1  0
  7  8  1  0
  8  9  2  0
  8 10  1  0
 10 11  2  0
 11 12  1  0
 12 13  2  0
 13 14  1  0
 14 15  2  0
 15 16  1  0
 16 17  2  0
 17 18  1  0
 18 19  2  0
  2 20  1  0
 20 21  1  0
 21 22  1  0
 22 23  1  0
 23 24  1  0
 24 25  1  0
 25 26  1  0
 26 27  2  0
 27 28  1  0
 28 29  2  0
 29 30  1  0
 29 31  1  0
 31 32  2  0
 19 10  1  0
 24 20  1  0
 32 26  1  0
 18 13  1  0
  1 33  1  0
  1 34  1  0
  1 35  1  0
  2 36  1  6
  3 37  1  0
  6 38  1  0
  6 39  1  0
  7 40  1  0
 11 41  1  0
 12 42  1  0
 14 43  1  0
 15 44  1  0
 16 45  1  0
 17 46  1  0
 20 47  1  6
 21 48  1  0
 21 49  1  0
 22 50  1  0
 22 51  1  0
 23 52  1  0
 23 53  1  0
 25 54  1  0
 25 55  1  0
 27 56  1  0
 28 57  1  0
 31 58  1  0
 32 59  1  0
M  END
>  <smiles>  (22) 
C[C@H](NC(=O)CNC(=O)c1ccc2ccccc2n1)[C@H]1CCCN1Cc1ccc(Cl)cc1

>  <score_type>  (22) 
oracle

>  <origin>  (22) 
autodockgpu

>  <m_score__min__energy>  (22) 
-9.4600000000000009

>  <m_primary>  (22) 
energy

>  <rmsd>  (22) 
3.3797782904263265

>  <m_score__min__rmsd>  (22) 
3.3797782904263265

>  <meeko>  (22) 
{"free_energy": -7.74, "intermolecular_energy": -9.83, "internal_energy": -3.08, "cluster_size": 5, "cluster_id": 7, "rank_in_cluster": 3}

>  <energy>  (22) 
-7.7

>  <cluster_rmsd>  (22) 
1.73

>  <cluster>  (22) 
2

$$$$

     RDKit          3D

 59 62  0  0  0  0  0  0  0  0999 V2000
  141.7890   78.4270  219.1370 C   0  0  0  0  0  0  0  0  0  0  0  0
  141.5570   77.7400  220.4890 C   0  0  2  0  0  0  0  0  0  0  0  0
  140.7220   76.5900  220.2060 N   0  0  0  0  0  0  0  0  0  0  0  0
  140.5620   75.6130  221.2240 C   0  0  0  0  0  0  0  0  0  0  0  0
  141.1130   75.7080  222.3530 O   0  0  0  0  0  0  0  0  0  0  0  0
  139.7100   74.4230  220.9560 C   0  0  0  0  0  0  0  0  0  0  0  0
  139.6720   73.6460  222.1870 N   0  0  0  0  0  0  0  0  0  0  0  0
  139.8780   72.2450  222.1220 C   0  0  0  0  0  0  0  0  0  0  0  0
  140.0860   71.7320  221.0010 O   0  0  0  0  0  0  0  0  0  0  0  0
  139.8460   71.4380  223.3370 C   0  0  0  0  0  0  0  0  0  0  0  0
  139.2980   70.1720  223.3060 C   0  0  0  0  0  0  0  0  0  0  0  0
  139.2290   69.3490  224.4100 C   0  0  0  0  0  0  0  0  0  0  0  0
  139.7440   69.8320  225.6080 C   0  0  0  0  0  0  0  0  0  0  0  0
  139.7130   69.0670  226.7540 C   0  0  0  0  0  0  0  0  0  0  0  0
  140.2230   69.5410  227.9560 C   0  0  0  0  0  0  0  0  0  0  0  0
  140.7680   70.8130  227.9630 C   0  0  0  0  0  0  0  0  0  0  0  0
  140.8030   71.5890  226.8110 C   0  0  0  0  0  0  0  0  0  0  0  0
  140.2910   71.1020  225.6280 C   0  0  0  0  0  0  0  0  0  0  0  0
  140.3370   71.8810  224.5140 N   0  0  0  0  0  0  0  0  0  0  0  0
  140.8950   78.7430  221.4100 C   0  0  1  0  0  0  0  0  0  0  0  0
  141.1040   78.3510  222.8660 C   0  0  0  0  0  0  0  0  0  0  0  0
  142.1890   79.2380  223.4000 C   0  0  0  0  0  0  0  0  0  0  0  0
  142.5270   80.1580  222.2470 C   0  0  0  0  0  0  0  0  0  0  0  0
  141.4660   80.0450  221.2970 N   0  0  0  0  0  0  0  0  0  0  0  0
  140.5490   81.1360  221.2510 C   0  0  0  0  0  0  0  0  0  0  0  0
  139.3590   81.0140  222.0940 C   0  0  0  0  0  0  0  0  0  0  0  0
  139.4200   81.0090  223.4850 C   0  0  0  0  0  0  0  0  0  0  0  0
  138.2940   80.8940  224.2750 C   0  0  0  0  0  0  0  0  0  0  0  0
  137.0460   80.7780  223.7140 C   0  0  0  0  0  0  0  0  0  0  0  0
  135.5760   80.6270  224.6520 Cl  0  0  0  0  0  0  0  0  0  0  0  0
  136.9540   80.7790  222.3420 C   0  0  0  0  0  0  0  0  0  0  0  0
  138.0890   80.8950  221.5530 C   0  0  0  0  0  0  0  0  0  0  0  0
  142.1369   79.4571  219.3040 H   0  0  0  0  0  0  0  0  0  0  0  0
  142.5492   77.8709  218.5688 H   0  0  0  0  0  0  0  0  0  0  0  0
  140.8473   78.4456  218.5688 H   0  0  0  0  0  0  0  0  0  0  0  0
  142.4769   77.4022  220.9886 H   0  0  0  0  0  0  0  0  0  0  0  0
  140.2760   76.5320  219.2640 H   0  0  0  0  0  0  0  0  0  0  0  0
  138.6943   74.7398  220.6768 H   0  0  0  0  0  0  0  0  0  0  0  0
  140.1156   73.8265  220.1255 H   0  0  0  0  0  0  0  0  0  0  0  0
  139.4990   74.0660  223.1250 H   0  0  0  0  0  0  0  0  0  0  0  0
  138.8958   69.8005  222.3520 H   0  0  0  0  0  0  0  0  0  0  0  0
  138.7824   68.3458  224.3454 H   0  0  0  0  0  0  0  0  0  0  0  0
  139.2747   68.0588  226.7160 H   0  0  0  0  0  0  0  0  0  0  0  0
  140.1947   68.9278  228.8688 H   0  0  0  0  0  0  0  0  0  0  0  0
  141.1815   71.2175  228.8986 H   0  0  0  0  0  0  0  0  0  0  0  0
  141.2416   72.5972  226.8435 H   0  0  0  0  0  0  0  0  0  0  0  0
  139.8346   78.7506  221.1175 H   0  0  0  0  0  0  0  0  0  0  0  0
  140.1757   78.5024  223.4363 H   0  0  0  0  0  0  0  0  0  0  0  0
  141.3812   77.2901  222.9541 H   0  0  0  0  0  0  0  0  0  0  0  0
  141.8295   79.8145  224.2651 H   0  0  0  0  0  0  0  0  0  0  0  0
  143.0619   78.6674  223.7499 H   0  0  0  0  0  0  0  0  0  0  0  0
  142.6065   81.1958  222.6027 H   0  0  0  0  0  0  0  0  0  0  0  0
  143.4905   79.8815  221.7939 H   0  0  0  0  0  0  0  0  0  0  0  0
  141.0894   82.0423  221.5619 H   0  0  0  0  0  0  0  0  0  0  0  0
  140.1761   81.1645  220.2165 H   0  0  0  0  0  0  0  0  0  0  0  0
  140.4019   81.1001  223.9724 H   0  0  0  0  0  0  0  0  0  0  0  0
  138.3979   80.8953  225.3701 H   0  0  0  0  0  0  0  0  0  0  0  0
  135.9676   80.6866  221.8640 H   0  0  0  0  0  0  0  0  0  0  0  0
  137.9768   80.8924  220.4587 H   0  0  0  0  0  0  0  0  0  0  0  0
  1  2  1  0
  2  3  1  0
  3  4  1  0
  4  5  2  0
  4  6  1  0
  6  7  1  0
  7  8  1  0
  8  9  2  0
  8 10  1  0
 10 11  2  0
 11 12  1  0
 12 13  2  0
 13 14  1  0
 14 15  2  0
 15 16  1  0
 16 17  2  0
 17 18  1  0
 18 19  2  0
  2 20  1  0
 20 21  1  0
 21 22  1  0
 22 23  1  0
 23 24  1  0
 24 25  1  0
 25 26  1  0
 26 27  2  0
 27 28  1  0
 28 29  2  0
 29 30  1  0
 29 31  1  0
 31 32  2  0
 19 10  1  0
 24 20  1  0
 32 26  1  0
 18 13  1  0
  1 33  1  0
  1 34  1  0
  1 35  1  0
  2 36  1  1
  3 37  1  0
  6 38  1  0
  6 39  1  0
  7 40  1  0
 11 41  1  0
 12 42  1  0
 14 43  1  0
 15 44  1  0
 16 45  1  0
 17 46  1  0
 20 47  1  6
 21 48  1  0
 21 49  1  0
 22 50  1  0
 22 51  1  0
 23 52  1  0
 23 53  1  0
 25 54  1  0
 25 55  1  0
 27 56  1  0
 28 57  1  0
 31 58  1  0
 32 59  1  0
M  END
>  <smiles>  (23) 
C[C@H](NC(=O)CNC(=O)c1ccc2ccccc2n1)[C@H]1CCCN1Cc1ccc(Cl)cc1

>  <score_type>  (23) 
oracle

>  <origin>  (23) 
autodockgpu

>  <m_score__min__energy>  (23) 
-9.4600000000000009

>  <m_primary>  (23) 
energy

>  <rmsd>  (23) 
2.1148042431914673

>  <m_score__min__rmsd>  (23) 
2.1148042431914673

>  <meeko>  (23) 
{"free_energy": -8.84, "intermolecular_energy": -10.93, "internal_energy": -1.94, "cluster_size": 2, "cluster_id": 4, "rank_in_cluster": 1}

>  <energy>  (23) 
-8.84

>  <cluster_rmsd>  (23) 
0.0

>  <cluster>  (23) 
3

$$$$

     RDKit          3D

 59 62  0  0  0  0  0  0  0  0999 V2000
  137.0290   73.0120  220.0590 C   0  0  0  0  0  0  0  0  0  0  0  0
  137.5200   72.4910  221.4160 C   0  0  2  0  0  0  0  0  0  0  0  0
  137.3700   73.6000  222.3380 N   0  0  0  0  0  0  0  0  0  0  0  0
  136.0910   74.2080  222.4490 C   0  0  0  0  0  0  0  0  0  0  0  0
  135.0930   73.8240  221.7840 O   0  0  0  0  0  0  0  0  0  0  0  0
  135.9130   75.3480  223.3880 C   0  0  0  0  0  0  0  0  0  0  0  0
  137.2030   76.0150  223.4910 N   0  0  0  0  0  0  0  0  0  0  0  0
  137.6400   76.8350  222.4210 C   0  0  0  0  0  0  0  0  0  0  0  0
  136.8910   76.9530  221.4250 O   0  0  0  0  0  0  0  0  0  0  0  0
  138.9280   77.5180  222.4920 C   0  0  0  0  0  0  0  0  0  0  0  0
  140.0390   76.9490  221.9060 C   0  0  0  0  0  0  0  0  0  0  0  0
  141.2890   77.5300  221.9300 C   0  0  0  0  0  0  0  0  0  0  0  0
  141.4210   78.7510  222.5830 C   0  0  0  0  0  0  0  0  0  0  0  0
  142.6380   79.3940  222.6490 C   0  0  0  0  0  0  0  0  0  0  0  0
  142.7800   80.6130  223.3000 C   0  0  0  0  0  0  0  0  0  0  0  0
  141.6510   81.1640  223.8810 C   0  0  0  0  0  0  0  0  0  0  0  0
  140.4210   80.5220  223.8170 C   0  0  0  0  0  0  0  0  0  0  0  0
  140.2990   79.3120  223.1680 C   0  0  0  0  0  0  0  0  0  0  0  0
  139.0850   78.7030  223.1190 N   0  0  0  0  0  0  0  0  0  0  0  0
  138.9570   72.0460  221.2500 C   0  0  1  0  0  0  0  0  0  0  0  0
  139.5640   72.6580  219.9950 C   0  0  0  0  0  0  0  0  0  0  0  0
  140.4300   73.7960  220.4460 C   0  0  0  0  0  0  0  0  0  0  0  0
  140.3420   73.7640  221.9560 C   0  0  0  0  0  0  0  0  0  0  0  0
  139.7920   72.4950  222.3150 N   0  0  0  0  0  0  0  0  0  0  0  0
  140.7120   71.5410  222.8430 C   0  0  0  0  0  0  0  0  0  0  0  0
  140.4520   71.0810  224.2070 C   0  0  0  0  0  0  0  0  0  0  0  0
  141.0750   71.6390  225.3200 C   0  0  0  0  0  0  0  0  0  0  0  0
  140.8270   71.2010  226.6050 C   0  0  0  0  0  0  0  0  0  0  0  0
  139.9400   70.1800  226.8450 C   0  0  0  0  0  0  0  0  0  0  0  0
  139.5760   69.5730  228.4450 Cl  0  0  0  0  0  0  0  0  0  0  0  0
  139.3090   69.6090  225.7650 C   0  0  0  0  0  0  0  0  0  0  0  0
  139.5620   70.0530  224.4750 C   0  0  0  0  0  0  0  0  0  0  0  0
  136.2826   73.8041  220.2186 H   0  0  0  0  0  0  0  0  0  0  0  0
  137.8798   73.4187  219.4927 H   0  0  0  0  0  0  0  0  0  0  0  0
  136.5726   72.1868  219.4927 H   0  0  0  0  0  0  0  0  0  0  0  0
  136.9585   71.6259  221.7985 H   0  0  0  0  0  0  0  0  0  0  0  0
  138.2110   73.9020  222.8780 H   0  0  0  0  0  0  0  0  0  0  0  0
  135.1566   76.0450  222.9980 H   0  0  0  0  0  0  0  0  0  0  0  0
  135.5706   74.9977  224.3729 H   0  0  0  0  0  0  0  0  0  0  0  0
  137.8330   75.9230  224.3160 H   0  0  0  0  0  0  0  0  0  0  0  0
  139.9220   75.9827  221.3935 H   0  0  0  0  0  0  0  0  0  0  0  0
  142.1516   77.0450  221.4496 H   0  0  0  0  0  0  0  0  0  0  0  0
  143.5167   78.9317  222.1756 H   0  0  0  0  0  0  0  0  0  0  0  0
  143.7539   81.1217  223.3518 H   0  0  0  0  0  0  0  0  0  0  0  0
  141.7294   82.1288  224.4034 H   0  0  0  0  0  0  0  0  0  0  0  0
  139.5391   80.9818  224.2869 H   0  0  0  0  0  0  0  0  0  0  0  0
  138.9192   70.9472  221.2149 H   0  0  0  0  0  0  0  0  0  0  0  0
  140.1688   71.9092  219.4625 H   0  0  0  0  0  0  0  0  0  0  0  0
  138.7805   73.0060  219.3058 H   0  0  0  0  0  0  0  0  0  0  0  0
  141.4684   73.6497  220.1139 H   0  0  0  0  0  0  0  0  0  0  0  0
  140.1044   74.7602  220.0285 H   0  0  0  0  0  0  0  0  0  0  0  0
  141.3438   73.8796  222.3954 H   0  0  0  0  0  0  0  0  0  0  0  0
  139.7127   74.5849  222.3303 H   0  0  0  0  0  0  0  0  0  0  0  0
  140.6985   70.6608  222.1834 H   0  0  0  0  0  0  0  0  0  0  0  0
  141.6815   72.0589  222.8862 H   0  0  0  0  0  0  0  0  0  0  0  0
  141.7918   72.4597  225.1695 H   0  0  0  0  0  0  0  0  0  0  0  0
  141.3473   71.6765  227.4495 H   0  0  0  0  0  0  0  0  0  0  0  0
  138.5938   68.7889  225.9259 H   0  0  0  0  0  0  0  0  0  0  0  0
  139.0379   69.5723  223.6358 H   0  0  0  0  0  0  0  0  0  0  0  0
  1  2  1  0
  2  3  1  0
  3  4  1  0
  4  5  2  0
  4  6  1  0
  6  7  1  0
  7  8  1  0
  8  9  2  0
  8 10  1  0
 10 11  2  0
 11 12  1  0
 12 13  2  0
 13 14  1  0
 14 15  2  0
 15 16  1  0
 16 17  2  0
 17 18  1  0
 18 19  2  0
  2 20  1  0
 20 21  1  0
 21 22  1  0
 22 23  1  0
 23 24  1  0
 24 25  1  0
 25 26  1  0
 26 27  2  0
 27 28  1  0
 28 29  2  0
 29 30  1  0
 29 31  1  0
 31 32  2  0
 19 10  1  0
 24 20  1  0
 32 26  1  0
 18 13  1  0
  1 33  1  0
  1 34  1  0
  1 35  1  0
  2 36  1  1
  3 37  1  0
  6 38  1  0
  6 39  1  0
  7 40  1  0
 11 41  1  0
 12 42  1  0
 14 43  1  0
 15 44  1  0
 16 45  1  0
 17 46  1  0
 20 47  1  6
 21 48  1  0
 21 49  1  0
 22 50  1  0
 22 51  1  0
 23 52  1  0
 23 53  1  0
 25 54  1  0
 25 55  1  0
 27 56  1  0
 28 57  1  0
 31 58  1  0
 32 59  1  0
M  END
>  <smiles>  (24) 
C[C@H](NC(=O)CNC(=O)c1ccc2ccccc2n1)[C@H]1CCCN1Cc1ccc(Cl)cc1

>  <score_type>  (24) 
oracle

>  <origin>  (24) 
autodockgpu

>  <m_score__min__energy>  (24) 
-9.4600000000000009

>  <m_primary>  (24) 
energy

>  <rmsd>  (24) 
9.104802924348913

>  <m_score__min__rmsd>  (24) 
9.104802924348913

>  <meeko>  (24) 
{"free_energy": -8.08, "intermolecular_energy": -10.17, "internal_energy": -2.73, "cluster_size": 4, "cluster_id": 5, "rank_in_cluster": 3}

>  <energy>  (24) 
-8.22

>  <cluster_rmsd>  (24) 
1.76

>  <cluster>  (24) 
3

$$$$

     RDKit          3D

 59 62  0  0  0  0  0  0  0  0999 V2000
  143.1550   74.8140  218.4540 C   0  0  0  0  0  0  0  0  0  0  0  0
  142.5360   75.8360  219.4170 C   0  0  2  0  0  0  0  0  0  0  0  0
  141.1860   75.3700  219.6670 N   0  0  0  0  0  0  0  0  0  0  0  0
  140.9790   74.4700  220.7470 C   0  0  0  0  0  0  0  0  0  0  0  0
  141.9150   74.0660  221.4870 O   0  0  0  0  0  0  0  0  0  0  0  0
  139.6030   73.9770  221.0220 C   0  0  0  0  0  0  0  0  0  0  0  0
  139.6500   73.2890  222.3040 N   0  0  0  0  0  0  0  0  0  0  0  0
  139.9230   71.8990  222.3270 C   0  0  0  0  0  0  0  0  0  0  0  0
  140.1150   71.3170  221.2360 O   0  0  0  0  0  0  0  0  0  0  0  0
  139.9790   71.1790  223.5960 C   0  0  0  0  0  0  0  0  0  0  0  0
  139.5090   69.8830  223.6700 C   0  0  0  0  0  0  0  0  0  0  0  0
  139.5250   69.1370  224.8290 C   0  0  0  0  0  0  0  0  0  0  0  0
  140.0440   69.7340  225.9730 C   0  0  0  0  0  0  0  0  0  0  0  0
  140.0950   69.0520  227.1700 C   0  0  0  0  0  0  0  0  0  0  0  0
  140.6110   69.6400  228.3190 C   0  0  0  0  0  0  0  0  0  0  0  0
  141.0750   70.9390  228.2190 C   0  0  0  0  0  0  0  0  0  0  0  0
  141.0280   71.6320  227.0160 C   0  0  0  0  0  0  0  0  0  0  0  0
  140.5120   71.0330  225.8870 C   0  0  0  0  0  0  0  0  0  0  0  0
  140.4760   71.7320  224.7210 N   0  0  0  0  0  0  0  0  0  0  0  0
  142.5820   77.1920  218.7470 C   0  0  1  0  0  0  0  0  0  0  0  0
  143.3130   77.1050  217.4140 C   0  0  0  0  0  0  0  0  0  0  0  0
  142.2620   77.1010  216.3450 C   0  0  0  0  0  0  0  0  0  0  0  0
  140.9570   77.2490  217.0980 C   0  0  0  0  0  0  0  0  0  0  0  0
  141.2830   77.6810  218.4190 N   0  0  0  0  0  0  0  0  0  0  0  0
  141.0340   79.0550  218.7080 C   0  0  0  0  0  0  0  0  0  0  0  0
  141.4140   79.5120  220.0460 C   0  0  0  0  0  0  0  0  0  0  0  0
  141.3980   78.6760  221.1590 C   0  0  0  0  0  0  0  0  0  0  0  0
  141.7560   79.1130  222.4170 C   0  0  0  0  0  0  0  0  0  0  0  0
  142.1510   80.4110  222.6300 C   0  0  0  0  0  0  0  0  0  0  0  0
  142.6190   81.0330  224.1970 Cl  0  0  0  0  0  0  0  0  0  0  0  0
  142.1780   81.2600  221.5500 C   0  0  0  0  0  0  0  0  0  0  0  0
  141.8160   80.8170  220.2860 C   0  0  0  0  0  0  0  0  0  0  0  0
  143.6401   74.0132  219.0314 H   0  0  0  0  0  0  0  0  0  0  0  0
  142.3661   74.3828  217.8202 H   0  0  0  0  0  0  0  0  0  0  0  0
  143.9025   75.3134  217.8202 H   0  0  0  0  0  0  0  0  0  0  0  0
  143.0669   75.9334  220.3755 H   0  0  0  0  0  0  0  0  0  0  0  0
  140.4270   75.7170  219.0410 H   0  0  0  0  0  0  0  0  0  0  0  0
  138.9009   74.8224  221.0716 H   0  0  0  0  0  0  0  0  0  0  0  0
  139.2594   73.3017  220.2245 H   0  0  0  0  0  0  0  0  0  0  0  0
  139.4920   73.7650  223.2170 H   0  0  0  0  0  0  0  0  0  0  0  0
  139.1012   69.4225  222.7581 H   0  0  0  0  0  0  0  0  0  0  0  0
  139.1410   68.1064  224.8484 H   0  0  0  0  0  0  0  0  0  0  0  0
  139.7189   68.0194  227.2169 H   0  0  0  0  0  0  0  0  0  0  0  0
  140.6489   69.0925  229.2723 H   0  0  0  0  0  0  0  0  0  0  0  0
  141.4896   71.4333  229.1099 H   0  0  0  0  0  0  0  0  0  0  0  0
  141.4046   72.6642  226.9642 H   0  0  0  0  0  0  0  0  0  0  0  0
  143.0832   77.8554  219.4671 H   0  0  0  0  0  0  0  0  0  0  0  0
  143.9775   77.9726  217.2889 H   0  0  0  0  0  0  0  0  0  0  0  0
  143.9335   76.1982  217.3618 H   0  0  0  0  0  0  0  0  0  0  0  0
  142.4088   77.9424  215.6519 H   0  0  0  0  0  0  0  0  0  0  0  0
  142.2909   76.1877  215.7325 H   0  0  0  0  0  0  0  0  0  0  0  0
  140.3182   77.9956  216.6034 H   0  0  0  0  0  0  0  0  0  0  0  0
  140.4075   76.2964  217.1214 H   0  0  0  0  0  0  0  0  0  0  0  0
  141.5910   79.6584  217.9762 H   0  0  0  0  0  0  0  0  0  0  0  0
  139.9418   79.1744  218.6546 H   0  0  0  0  0  0  0  0  0  0  0  0
  141.0884   77.6283  221.0303 H   0  0  0  0  0  0  0  0  0  0  0  0
  141.7247   78.4109  223.2632 H   0  0  0  0  0  0  0  0  0  0  0  0
  142.4909   82.3053  221.6894 H   0  0  0  0  0  0  0  0  0  0  0  0
  141.8491   81.5256  219.4453 H   0  0  0  0  0  0  0  0  0  0  0  0
  1  2  1  0
  2  3  1  0
  3  4  1  0
  4  5  2  0
  4  6  1  0
  6  7  1  0
  7  8  1  0
  8  9  2  0
  8 10  1  0
 10 11  2  0
 11 12  1  0
 12 13  2  0
 13 14  1  0
 14 15  2  0
 15 16  1  0
 16 17  2  0
 17 18  1  0
 18 19  2  0
  2 20  1  0
 20 21  1  0
 21 22  1  0
 22 23  1  0
 23 24  1  0
 24 25  1  0
 25 26  1  0
 26 27  2  0
 27 28  1  0
 28 29  2  0
 29 30  1  0
 29 31  1  0
 31 32  2  0
 19 10  1  0
 24 20  1  0
 32 26  1  0
 18 13  1  0
  1 33  1  0
  1 34  1  0
  1 35  1  0
  2 36  1  1
  3 37  1  0
  6 38  1  0
  6 39  1  0
  7 40  1  0
 11 41  1  0
 12 42  1  0
 14 43  1  0
 15 44  1  0
 16 45  1  0
 17 46  1  0
 20 47  1  1
 21 48  1  0
 21 49  1  0
 22 50  1  0
 22 51  1  0
 23 52  1  0
 23 53  1  0
 25 54  1  0
 25 55  1  0
 27 56  1  0
 28 57  1  0
 31 58  1  0
 32 59  1  0
M  END
>  <smiles>  (25) 
C[C@H](NC(=O)CNC(=O)c1ccc2ccccc2n1)[C@H]1CCCN1Cc1ccc(Cl)cc1

>  <score_type>  (25) 
oracle

>  <origin>  (25) 
autodockgpu

>  <m_score__min__energy>  (25) 
-9.4600000000000009

>  <m_primary>  (25) 
energy

>  <rmsd>  (25) 
2.4679387768697323

>  <m_score__min__rmsd>  (25) 
2.4679387768697323

>  <meeko>  (25) 
{"free_energy": -8.57, "intermolecular_energy": -10.66, "internal_energy": -2.42, "cluster_size": 19, "cluster_id": 1, "rank_in_cluster": 9}

>  <energy>  (25) 
-7.9

>  <cluster_rmsd>  (25) 
1.2

>  <cluster>  (25) 
3

$$$$

     RDKit          3D

 59 62  0  0  0  0  0  0  0  0999 V2000
  134.8900   71.3580  224.1130 C   0  0  0  0  0  0  0  0  0  0  0  0
  136.2120   72.1290  224.2150 C   0  0  2  0  0  0  0  0  0  0  0  0
  136.0500   73.2980  223.3720 N   0  0  0  0  0  0  0  0  0  0  0  0
  135.2600   74.3710  223.8630 C   0  0  0  0  0  0  0  0  0  0  0  0
  134.7000   74.3460  224.9910 O   0  0  0  0  0  0  0  0  0  0  0  0
  135.0790   75.5800  223.0150 C   0  0  0  0  0  0  0  0  0  0  0  0
  136.2790   76.3880  223.1720 N   0  0  0  0  0  0  0  0  0  0  0  0
  137.4400   76.0460  222.4350 C   0  0  0  0  0  0  0  0  0  0  0  0
  137.3830   75.0550  221.6730 O   0  0  0  0  0  0  0  0  0  0  0  0
  138.6600   76.8360  222.5690 C   0  0  0  0  0  0  0  0  0  0  0  0
  139.8790   76.2730  222.2540 C   0  0  0  0  0  0  0  0  0  0  0  0
  141.0750   76.9510  222.3550 C   0  0  0  0  0  0  0  0  0  0  0  0
  141.0330   78.2690  222.7970 C   0  0  0  0  0  0  0  0  0  0  0  0
  142.1870   79.0130  222.9230 C   0  0  0  0  0  0  0  0  0  0  0  0
  142.1570   80.3300  223.3650 C   0  0  0  0  0  0  0  0  0  0  0  0
  140.9220   80.8730  223.6740 C   0  0  0  0  0  0  0  0  0  0  0  0
  139.7550   80.1290  223.5490 C   0  0  0  0  0  0  0  0  0  0  0  0
  139.8050   78.8230  223.1100 C   0  0  0  0  0  0  0  0  0  0  0  0
  138.6500   78.1160  222.9960 N   0  0  0  0  0  0  0  0  0  0  0  0
  137.3220   71.2100  223.7510 C   0  0  1  0  0  0  0  0  0  0  0  0
  136.7670   70.1140  222.8530 C   0  0  0  0  0  0  0  0  0  0  0  0
  137.0970   70.5030  221.4430 C   0  0  0  0  0  0  0  0  0  0  0  0
  137.8890   71.7850  221.5800 C   0  0  0  0  0  0  0  0  0  0  0  0
  138.2870   71.8860  222.9480 N   0  0  0  0  0  0  0  0  0  0  0  0
  139.6550   71.5930  223.2250 C   0  0  0  0  0  0  0  0  0  0  0  0
  139.9210   70.8600  224.4630 C   0  0  0  0  0  0  0  0  0  0  0  0
  139.7300   69.4860  224.5790 C   0  0  0  0  0  0  0  0  0  0  0  0
  139.9810   68.8000  225.7490 C   0  0  0  0  0  0  0  0  0  0  0  0
  140.4390   69.4530  226.8680 C   0  0  0  0  0  0  0  0  0  0  0  0
  140.7790   68.6490  228.3840 Cl  0  0  0  0  0  0  0  0  0  0  0  0
  140.6380   70.8100  226.7830 C   0  0  0  0  0  0  0  0  0  0  0  0
  140.3830   71.4960  225.6040 C   0  0  0  0  0  0  0  0  0  0  0  0
  134.5144   71.1389  225.1234 H   0  0  0  0  0  0  0  0  0  0  0  0
  134.1513   71.9669  223.5712 H   0  0  0  0  0  0  0  0  0  0  0  0
  135.0562   70.4152  223.5712 H   0  0  0  0  0  0  0  0  0  0  0  0
  136.4688   72.4534  225.2342 H   0  0  0  0  0  0  0  0  0  0  0  0
  136.5230   73.2960  222.4420 H   0  0  0  0  0  0  0  0  0  0  0  0
  134.9541   75.2884  221.9617 H   0  0  0  0  0  0  0  0  0  0  0  0
  134.1827   76.1423  223.3160 H   0  0  0  0  0  0  0  0  0  0  0  0
  136.3360   77.2150  223.8050 H   0  0  0  0  0  0  0  0  0  0  0  0
  139.8978   75.2302  221.9045 H   0  0  0  0  0  0  0  0  0  0  0  0
  142.0281   76.4671  222.0954 H   0  0  0  0  0  0  0  0  0  0  0  0
  143.1533   78.5535  222.6678 H   0  0  0  0  0  0  0  0  0  0  0  0
  143.0805   80.9191  223.4656 H   0  0  0  0  0  0  0  0  0  0  0  0
  140.8631   81.9137  224.0253 H   0  0  0  0  0  0  0  0  0  0  0  0
  138.7861   80.5845  223.8017 H   0  0  0  0  0  0  0  0  0  0  0  0
  137.7796   70.8178  224.6712 H   0  0  0  0  0  0  0  0  0  0  0  0
  137.2345   69.1492  223.0993 H   0  0  0  0  0  0  0  0  0  0  0  0
  135.6810   70.0036  222.9889 H   0  0  0  0  0  0  0  0  0  0  0  0
  137.7005   69.7232  220.9555 H   0  0  0  0  0  0  0  0  0  0  0  0
  136.1977   70.6308  220.8226 H   0  0  0  0  0  0  0  0  0  0  0  0
  138.7758   71.7524  220.9300 H   0  0  0  0  0  0  0  0  0  0  0  0
  137.2838   72.6539  221.2821 H   0  0  0  0  0  0  0  0  0  0  0  0
  140.0456   70.9935  222.3895 H   0  0  0  0  0  0  0  0  0  0  0  0
  140.1456   72.5696  223.3500 H   0  0  0  0  0  0  0  0  0  0  0  0
  139.3653   68.9265  223.7050 H   0  0  0  0  0  0  0  0  0  0  0  0
  139.8120   67.7137  225.7869 H   0  0  0  0  0  0  0  0  0  0  0  0
  141.0047   71.3603  227.6620 H   0  0  0  0  0  0  0  0  0  0  0  0
  140.5535   72.5823  225.5742 H   0  0  0  0  0  0  0  0  0  0  0  0
  1  2  1  0
  2  3  1  0
  3  4  1  0
  4  5  2  0
  4  6  1  0
  6  7  1  0
  7  8  1  0
  8  9  2  0
  8 10  1  0
 10 11  2  0
 11 12  1  0
 12 13  2  0
 13 14  1  0
 14 15  2  0
 15 16  1  0
 16 17  2  0
 17 18  1  0
 18 19  2  0
  2 20  1  0
 20 21  1  0
 21 22  1  0
 22 23  1  0
 23 24  1  0
 24 25  1  0
 25 26  1  0
 26 27  2  0
 27 28  1  0
 28 29  2  0
 29 30  1  0
 29 31  1  0
 31 32  2  0
 19 10  1  0
 24 20  1  0
 32 26  1  0
 18 13  1  0
  1 33  1  0
  1 34  1  0
  1 35  1  0
  2 36  1  1
  3 37  1  0
  6 38  1  0
  6 39  1  0
  7 40  1  0
 11 41  1  0
 12 42  1  0
 14 43  1  0
 15 44  1  0
 16 45  1  0
 17 46  1  0
 20 47  1  1
 21 48  1  0
 21 49  1  0
 22 50  1  0
 22 51  1  0
 23 52  1  0
 23 53  1  0
 25 54  1  0
 25 55  1  0
 27 56  1  0
 28 57  1  0
 31 58  1  0
 32 59  1  0
M  END
>  <smiles>  (26) 
C[C@H](NC(=O)CNC(=O)c1ccc2ccccc2n1)[C@H]1CCCN1Cc1ccc(Cl)cc1

>  <score_type>  (26) 
oracle

>  <origin>  (26) 
autodockgpu

>  <m_score__min__energy>  (26) 
-9.4600000000000009

>  <m_primary>  (26) 
energy

>  <rmsd>  (26) 
9.461779044120249

>  <m_score__min__rmsd>  (26) 
9.461779044120249

>  <meeko>  (26) 
{"free_energy": -7.79, "intermolecular_energy": -9.88, "internal_energy": -3.31, "cluster_size": 4, "cluster_id": 5, "rank_in_cluster": 4}

>  <energy>  (26) 
-8.84

>  <cluster_rmsd>  (26) 
0.0

>  <cluster>  (26) 
4

$$$$

     RDKit          3D

 59 62  0  0  0  0  0  0  0  0999 V2000
  143.4820   75.0960  218.4700 C   0  0  0  0  0  0  0  0  0  0  0  0
  142.6120   75.5630  219.6460 C   0  0  2  0  0  0  0  0  0  0  0  0
  141.5460   74.5860  219.7550 N   0  0  0  0  0  0  0  0  0  0  0  0
  140.8640   74.4780  220.9960 C   0  0  0  0  0  0  0  0  0  0  0  0
  141.1480   75.1910  221.9950 O   0  0  0  0  0  0  0  0  0  0  0  0
  139.7670   73.4820  221.1330 C   0  0  0  0  0  0  0  0  0  0  0  0
  139.8200   72.9820  222.4990 N   0  0  0  0  0  0  0  0  0  0  0  0
  140.1740   71.6280  222.7220 C   0  0  0  0  0  0  0  0  0  0  0  0
  140.4290   70.9140  221.7270 O   0  0  0  0  0  0  0  0  0  0  0  0
  140.2360   71.0950  224.0790 C   0  0  0  0  0  0  0  0  0  0  0  0
  140.7060   71.8880  225.1060 C   0  0  0  0  0  0  0  0  0  0  0  0
  140.7970   71.4590  226.4130 C   0  0  0  0  0  0  0  0  0  0  0  0
  140.3910   70.1590  226.6950 C   0  0  0  0  0  0  0  0  0  0  0  0
  140.4510   69.6590  227.9780 C   0  0  0  0  0  0  0  0  0  0  0  0
  140.0490   68.3610  228.2700 C   0  0  0  0  0  0  0  0  0  0  0  0
  139.5820   67.5850  227.2240 C   0  0  0  0  0  0  0  0  0  0  0  0
  139.5180   68.0840  225.9290 C   0  0  0  0  0  0  0  0  0  0  0  0
  139.9220   69.3740  225.6580 C   0  0  0  0  0  0  0  0  0  0  0  0
  139.8500   69.8390  224.3820 N   0  0  0  0  0  0  0  0  0  0  0  0
  142.1120   76.9560  219.3280 C   0  0  1  0  0  0  0  0  0  0  0  0
  142.6960   77.4460  218.0100 C   0  0  0  0  0  0  0  0  0  0  0  0
  141.6170   77.2990  216.9790 C   0  0  0  0  0  0  0  0  0  0  0  0
  140.4220   76.7850  217.7530 C   0  0  0  0  0  0  0  0  0  0  0  0
  140.6990   76.9960  219.1380 N   0  0  0  0  0  0  0  0  0  0  0  0
  140.0090   78.0800  219.7560 C   0  0  0  0  0  0  0  0  0  0  0  0
  140.7300   78.7820  220.8180 C   0  0  0  0  0  0  0  0  0  0  0  0
  141.3740   79.9990  220.6130 C   0  0  0  0  0  0  0  0  0  0  0  0
  142.0530   80.6560  221.6170 C   0  0  0  0  0  0  0  0  0  0  0  0
  142.1240   80.1310  222.8850 C   0  0  0  0  0  0  0  0  0  0  0  0
  142.9660   80.9080  224.2070 Cl  0  0  0  0  0  0  0  0  0  0  0  0
  141.4970   78.9300  223.1180 C   0  0  0  0  0  0  0  0  0  0  0  0
  140.8160   78.2730  222.1040 C   0  0  0  0  0  0  0  0  0  0  0  0
  144.3895   74.6088  218.8561 H   0  0  0  0  0  0  0  0  0  0  0  0
  142.9151   74.3810  217.8558 H   0  0  0  0  0  0  0  0  0  0  0  0
  143.7646   75.9637  217.8558 H   0  0  0  0  0  0  0  0  0  0  0  0
  143.1441   75.6245  220.6068 H   0  0  0  0  0  0  0  0  0  0  0  0
  141.3290   74.0060  218.9150 H   0  0  0  0  0  0  0  0  0  0  0  0
  138.7951   73.9607  220.9426 H   0  0  0  0  0  0  0  0  0  0  0  0
  139.8853   72.6629  220.4084 H   0  0  0  0  0  0  0  0  0  0  0  0
  139.6090   73.5690  223.3340 H   0  0  0  0  0  0  0  0  0  0  0  0
  141.0241   72.9142  224.8698 H   0  0  0  0  0  0  0  0  0  0  0  0
  141.1772   72.1213  227.2047 H   0  0  0  0  0  0  0  0  0  0  0  0
  140.8253   70.3014  228.7887 H   0  0  0  0  0  0  0  0  0  0  0  0
  140.1002   67.9652  229.2950 H   0  0  0  0  0  0  0  0  0  0  0  0
  139.2552   66.5534  227.4215 H   0  0  0  0  0  0  0  0  0  0  0  0
  139.1428   67.4461  225.1151 H   0  0  0  0  0  0  0  0  0  0  0  0
  142.4129   77.5759  220.1854 H   0  0  0  0  0  0  0  0  0  0  0  0
  142.9958   78.5008  218.0971 H   0  0  0  0  0  0  0  0  0  0  0  0
  143.5890   76.8664  217.7333 H   0  0  0  0  0  0  0  0  0  0  0  0
  141.3902   78.2689  216.5123 H   0  0  0  0  0  0  0  0  0  0  0  0
  141.9084   76.6232  216.1614 H   0  0  0  0  0  0  0  0  0  0  0  0
  139.5167   77.3371  217.4605 H   0  0  0  0  0  0  0  0  0  0  0  0
  140.2491   75.7187  217.5454 H   0  0  0  0  0  0  0  0  0  0  0  0
  139.7665   78.8137  218.9731 H   0  0  0  0  0  0  0  0  0  0  0  0
  139.1307   77.6311  220.2429 H   0  0  0  0  0  0  0  0  0  0  0  0
  141.3398   80.4537  219.6120 H   0  0  0  0  0  0  0  0  0  0  0  0
  142.5455   81.6153  221.3997 H   0  0  0  0  0  0  0  0  0  0  0  0
  141.5359   78.4838  224.1227 H   0  0  0  0  0  0  0  0  0  0  0  0
  140.3267   77.3137  222.3286 H   0  0  0  0  0  0  0  0  0  0  0  0
  1  2  1  0
  2  3  1  0
  3  4  1  0
  4  5  2  0
  4  6  1  0
  6  7  1  0
  7  8  1  0
  8  9  2  0
  8 10  1  0
 10 11  2  0
 11 12  1  0
 12 13  2  0
 13 14  1  0
 14 15  2  0
 15 16  1  0
 16 17  2  0
 17 18  1  0
 18 19  2  0
  2 20  1  0
 20 21  1  0
 21 22  1  0
 22 23  1  0
 23 24  1  0
 24 25  1  0
 25 26  1  0
 26 27  2  0
 27 28  1  0
 28 29  2  0
 29 30  1  0
 29 31  1  0
 31 32  2  0
 19 10  1  0
 24 20  1  0
 32 26  1  0
 18 13  1  0
  1 33  1  0
  1 34  1  0
  1 35  1  0
  2 36  1  1
  3 37  1  0
  6 38  1  0
  6 39  1  0
  7 40  1  0
 11 41  1  0
 12 42  1  0
 14 43  1  0
 15 44  1  0
 16 45  1  0
 17 46  1  0
 20 47  1  1
 21 48  1  0
 21 49  1  0
 22 50  1  0
 22 51  1  0
 23 52  1  0
 23 53  1  0
 25 54  1  0
 25 55  1  0
 27 56  1  0
 28 57  1  0
 31 58  1  0
 32 59  1  0
M  END
>  <smiles>  (27) 
C[C@H](NC(=O)CNC(=O)c1ccc2ccccc2n1)[C@H]1CCCN1Cc1ccc(Cl)cc1

>  <score_type>  (27) 
oracle

>  <origin>  (27) 
autodockgpu

>  <m_score__min__energy>  (27) 
-9.4600000000000009

>  <m_primary>  (27) 
energy

>  <rmsd>  (27) 
3.3891677356941523

>  <m_score__min__rmsd>  (27) 
3.3891677356941523

>  <meeko>  (27) 
{"free_energy": -8.96, "intermolecular_energy": -11.05, "internal_energy": -2.16, "cluster_size": 19, "cluster_id": 1, "rank_in_cluster": 6}

>  <energy>  (27) 
-8.57

>  <cluster_rmsd>  (27) 
0.53

>  <cluster>  (27) 
4

$$$$

     RDKit          3D

 59 62  0  0  0  0  0  0  0  0999 V2000
  135.8030   70.2950  221.3530 C   0  0  0  0  0  0  0  0  0  0  0  0
  136.6950   70.4700  222.5890 C   0  0  2  0  0  0  0  0  0  0  0  0
  137.9150   71.0880  222.1070 N   0  0  0  0  0  0  0  0  0  0  0  0
  137.9840   72.5060  222.0900 C   0  0  0  0  0  0  0  0  0  0  0  0
  137.0350   73.2400  222.4730 O   0  0  0  0  0  0  0  0  0  0  0  0
  139.2250   73.1630  221.5990 C   0  0  0  0  0  0  0  0  0  0  0  0
  139.2160   74.5230  222.1170 N   0  0  0  0  0  0  0  0  0  0  0  0
  140.2710   75.4010  221.7630 C   0  0  0  0  0  0  0  0  0  0  0  0
  141.1730   74.9660  221.0140 O   0  0  0  0  0  0  0  0  0  0  0  0
  140.2910   76.7710  222.2660 C   0  0  0  0  0  0  0  0  0  0  0  0
  139.1070   77.3970  222.5970 C   0  0  0  0  0  0  0  0  0  0  0  0
  139.0420   78.6880  223.0760 C   0  0  0  0  0  0  0  0  0  0  0  0
  140.2380   79.3810  223.2280 C   0  0  0  0  0  0  0  0  0  0  0  0
  140.2540   80.6760  223.7030 C   0  0  0  0  0  0  0  0  0  0  0  0
  141.4430   81.3770  223.8570 C   0  0  0  0  0  0  0  0  0  0  0  0
  142.6180   80.7280  223.5180 C   0  0  0  0  0  0  0  0  0  0  0  0
  142.6080   79.4230  223.0400 C   0  0  0  0  0  0  0  0  0  0  0  0
  141.4190   78.7430  222.8930 C   0  0  0  0  0  0  0  0  0  0  0  0
  141.4360   77.4680  222.4220 N   0  0  0  0  0  0  0  0  0  0  0  0
  136.9210   69.1020  223.1960 C   0  0  1  0  0  0  0  0  0  0  0  0
  136.0600   68.0590  222.4960 C   0  0  0  0  0  0  0  0  0  0  0  0
  136.9630   67.3100  221.5630 C   0  0  0  0  0  0  0  0  0  0  0  0
  138.3330   67.9070  221.8020 C   0  0  0  0  0  0  0  0  0  0  0  0
  138.2600   68.6450  223.0230 N   0  0  0  0  0  0  0  0  0  0  0  0
  138.8720   68.0370  224.1580 C   0  0  0  0  0  0  0  0  0  0  0  0
  139.4190   68.9500  225.1630 C   0  0  0  0  0  0  0  0  0  0  0  0
  139.6000   68.5840  226.4930 C   0  0  0  0  0  0  0  0  0  0  0  0
  140.1160   69.4490  227.4360 C   0  0  0  0  0  0  0  0  0  0  0  0
  140.4810   70.7290  227.0960 C   0  0  0  0  0  0  0  0  0  0  0  0
  141.1410   71.8800  228.2370 Cl  0  0  0  0  0  0  0  0  0  0  0  0
  140.3140   71.1200  225.7890 C   0  0  0  0  0  0  0  0  0  0  0  0
  139.7940   70.2460  224.8450 C   0  0  0  0  0  0  0  0  0  0  0  0
  134.7700   70.0923  221.6721 H   0  0  0  0  0  0  0  0  0  0  0  0
  135.8268   71.2149  220.7504 H   0  0  0  0  0  0  0  0  0  0  0  0
  136.1726   69.4523  220.7504 H   0  0  0  0  0  0  0  0  0  0  0  0
  136.2579   71.1019  223.3761 H   0  0  0  0  0  0  0  0  0  0  0  0
  138.6880   70.4610  221.7940 H   0  0  0  0  0  0  0  0  0  0  0  0
  140.1100   72.6236  221.9676 H   0  0  0  0  0  0  0  0  0  0  0  0
  139.2637   73.1604  220.4997 H   0  0  0  0  0  0  0  0  0  0  0  0
  138.4690   74.8940  222.7420 H   0  0  0  0  0  0  0  0  0  0  0  0
  138.1678   76.8380  222.4725 H   0  0  0  0  0  0  0  0  0  0  0  0
  138.0781   79.1536  223.3291 H   0  0  0  0  0  0  0  0  0  0  0  0
  139.3039   81.1643  223.9656 H   0  0  0  0  0  0  0  0  0  0  0  0
  141.4509   82.4102  224.2345 H   0  0  0  0  0  0  0  0  0  0  0  0
  143.5772   81.2549  223.6290 H   0  0  0  0  0  0  0  0  0  0  0  0
  143.5556   78.9300  222.7773 H   0  0  0  0  0  0  0  0  0  0  0  0
  136.6769   69.2125  224.2629 H   0  0  0  0  0  0  0  0  0  0  0  0
  135.6230   67.3708  223.2345 H   0  0  0  0  0  0  0  0  0  0  0  0
  135.2314   68.5327  221.9491 H   0  0  0  0  0  0  0  0  0  0  0  0
  136.9605   66.2355  221.7984 H   0  0  0  0  0  0  0  0  0  0  0  0
  136.6457   67.3973  220.5134 H   0  0  0  0  0  0  0  0  0  0  0  0
  139.0836   67.1075  221.8882 H   0  0  0  0  0  0  0  0  0  0  0  0
  138.6283   68.5588  220.9665 H   0  0  0  0  0  0  0  0  0  0  0  0
  138.1155   67.4090  224.6512 H   0  0  0  0  0  0  0  0  0  0  0  0
  139.7353   67.4804  223.7645 H   0  0  0  0  0  0  0  0  0  0  0  0
  139.3212   67.5665  226.8045 H   0  0  0  0  0  0  0  0  0  0  0  0
  140.2368   69.1088  228.4751 H   0  0  0  0  0  0  0  0  0  0  0  0
  140.5963   72.1394  225.4873 H   0  0  0  0  0  0  0  0  0  0  0  0
  139.6752   70.5937  223.8082 H   0  0  0  0  0  0  0  0  0  0  0  0
  1  2  1  0
  2  3  1  0
  3  4  1  0
  4  5  2  0
  4  6  1  0
  6  7  1  0
  7  8  1  0
  8  9  2  0
  8 10  1  0
 10 11  2  0
 11 12  1  0
 12 13  2  0
 13 14  1  0
 14 15  2  0
 15 16  1  0
 16 17  2  0
 17 18  1  0
 18 19  2  0
  2 20  1  0
 20 21  1  0
 21 22  1  0
 22 23  1  0
 23 24  1  0
 24 25  1  0
 25 26  1  0
 26 27  2  0
 27 28  1  0
 28 29  2  0
 29 30  1  0
 29 31  1  0
 31 32  2  0
 19 10  1  0
 24 20  1  0
 32 26  1  0
 18 13  1  0
  1 33  1  0
  1 34  1  0
  1 35  1  0
  2 36  1  1
  3 37  1  0
  6 38  1  0
  6 39  1  0
  7 40  1  0
 11 41  1  0
 12 42  1  0
 14 43  1  0
 15 44  1  0
 16 45  1  0
 17 46  1  0
 20 47  1  1
 21 48  1  0
 21 49  1  0
 22 50  1  0
 22 51  1  0
 23 52  1  0
 23 53  1  0
 25 54  1  0
 25 55  1  0
 27 56  1  0
 28 57  1  0
 31 58  1  0
 32 59  1  0
M  END
>  <smiles>  (28) 
C[C@H](NC(=O)CNC(=O)c1ccc2ccccc2n1)[C@H]1CCCN1Cc1ccc(Cl)cc1

>  <score_type>  (28) 
oracle

>  <origin>  (28) 
autodockgpu

>  <m_score__min__energy>  (28) 
-9.4600000000000009

>  <m_primary>  (28) 
energy

>  <rmsd>  (28) 
9.726325170937436

>  <m_score__min__rmsd>  (28) 
9.726325170937436

>  <meeko>  (28) 
{"free_energy": -8.33, "intermolecular_energy": -10.42, "internal_energy": -2.85, "cluster_size": 1, "cluster_id": 6, "rank_in_cluster": 1}

>  <energy>  (28) 
-8.48

>  <cluster_rmsd>  (28) 
0.0

>  <cluster>  (28) 
5

$$$$

     RDKit          3D

 59 62  0  0  0  0  0  0  0  0999 V2000
  144.0170   74.2840  219.8830 C   0  0  0  0  0  0  0  0  0  0  0  0
  142.8140   75.0370  220.4670 C   0  0  2  0  0  0  0  0  0  0  0  0
  141.7040   74.1060  220.4100 N   0  0  0  0  0  0  0  0  0  0  0  0
  140.6080   74.3200  221.2870 C   0  0  0  0  0  0  0  0  0  0  0  0
  140.5640   75.2780  222.1040 O   0  0  0  0  0  0  0  0  0  0  0  0
  139.4580   73.3770  221.2480 C   0  0  0  0  0  0  0  0  0  0  0  0
  139.4750   72.6390  222.5030 N   0  0  0  0  0  0  0  0  0  0  0  0
  139.7780   71.2550  222.4830 C   0  0  0  0  0  0  0  0  0  0  0  0
  140.0220   70.7220  221.3770 O   0  0  0  0  0  0  0  0  0  0  0  0
  139.8040   70.4870  223.7230 C   0  0  0  0  0  0  0  0  0  0  0  0
  139.2140   69.2410  223.7700 C   0  0  0  0  0  0  0  0  0  0  0  0
  139.1940   68.4540  224.9030 C   0  0  0  0  0  0  0  0  0  0  0  0
  139.8060   68.9560  226.0470 C   0  0  0  0  0  0  0  0  0  0  0  0
  139.8290   68.2280  227.2170 C   0  0  0  0  0  0  0  0  0  0  0  0
  140.4360   68.7200  228.3660 C   0  0  0  0  0  0  0  0  0  0  0  0
  141.0220   69.9720  228.2940 C   0  0  0  0  0  0  0  0  0  0  0  0
  141.0030   70.7100  227.1170 C   0  0  0  0  0  0  0  0  0  0  0  0
  140.3950   70.2060  225.9870 C   0  0  0  0  0  0  0  0  0  0  0  0
  140.3900   70.9480  224.8480 N   0  0  0  0  0  0  0  0  0  0  0  0
  142.5930   76.2780  219.6280 C   0  0  1  0  0  0  0  0  0  0  0  0
  143.3310   76.1650  218.3010 C   0  0  0  0  0  0  0  0  0  0  0  0
  142.3050   75.8160  217.2650 C   0  0  0  0  0  0  0  0  0  0  0  0
  140.9940   75.7990  218.0210 C   0  0  0  0  0  0  0  0  0  0  0  0
  141.2230   76.4540  219.2700 N   0  0  0  0  0  0  0  0  0  0  0  0
  140.7050   77.7780  219.3870 C   0  0  0  0  0  0  0  0  0  0  0  0
  141.1840   78.5600  220.5270 C   0  0  0  0  0  0  0  0  0  0  0  0
  141.7530   79.8230  220.3870 C   0  0  0  0  0  0  0  0  0  0  0  0
  142.2030   80.5560  221.4660 C   0  0  0  0  0  0  0  0  0  0  0  0
  142.1080   80.0630  222.7450 C   0  0  0  0  0  0  0  0  0  0  0  0
  142.6570   80.9350  224.1580 Cl  0  0  0  0  0  0  0  0  0  0  0  0
  141.5500   78.8180  222.9140 C   0  0  0  0  0  0  0  0  0  0  0  0
  141.0990   78.0850  221.8260 C   0  0  0  0  0  0  0  0  0  0  0  0
  144.6389   73.8947  220.7025 H   0  0  0  0  0  0  0  0  0  0  0  0
  143.6606   73.4475  219.2639 H   0  0  0  0  0  0  0  0  0  0  0  0
  144.6137   74.9701  219.2639 H   0  0  0  0  0  0  0  0  0  0  0  0
  142.9502   75.3712  221.5061 H   0  0  0  0  0  0  0  0  0  0  0  0
  141.7620   73.3200  219.7270 H   0  0  0  0  0  0  0  0  0  0  0  0
  138.5147   73.9343  221.1494 H   0  0  0  0  0  0  0  0  0  0  0  0
  139.5364   72.6950  220.3885 H   0  0  0  0  0  0  0  0  0  0  0  0
  139.2730   73.0750  223.4280 H   0  0  0  0  0  0  0  0  0  0  0  0
  138.7352   68.8553  222.8579 H   0  0  0  0  0  0  0  0  0  0  0  0
  138.7116   67.4654  224.9018 H   0  0  0  0  0  0  0  0  0  0  0  0
  139.3562   67.2351  227.2418 H   0  0  0  0  0  0  0  0  0  0  0  0
  140.4503   68.1362  229.2982 H   0  0  0  0  0  0  0  0  0  0  0  0
  141.5120   70.3905  229.1855 H   0  0  0  0  0  0  0  0  0  0  0  0
  141.4760   71.7026  227.0866 H   0  0  0  0  0  0  0  0  0  0  0  0
  142.9510   77.1150  220.2455 H   0  0  0  0  0  0  0  0  0  0  0  0
  143.8109   77.1228  218.0515 H   0  0  0  0  0  0  0  0  0  0  0  0
  144.1190   75.3991  218.3508 H   0  0  0  0  0  0  0  0  0  0  0  0
  142.2843   76.5735  216.4676 H   0  0  0  0  0  0  0  0  0  0  0  0
  142.5169   74.8551  216.7734 H   0  0  0  0  0  0  0  0  0  0  0  0
  140.2216   76.3347  217.4497 H   0  0  0  0  0  0  0  0  0  0  0  0
  140.6444   74.7678  218.1770 H   0  0  0  0  0  0  0  0  0  0  0  0
  140.9701   78.3245  218.4699 H   0  0  0  0  0  0  0  0  0  0  0  0
  139.6231   77.6582  219.5456 H   0  0  0  0  0  0  0  0  0  0  0  0
  141.8473   80.2525  219.3787 H   0  0  0  0  0  0  0  0  0  0  0  0
  142.6443   81.5498  221.2998 H   0  0  0  0  0  0  0  0  0  0  0  0
  141.4599   78.3971  223.9263 H   0  0  0  0  0  0  0  0  0  0  0  0
  140.6586   77.0922  222.0005 H   0  0  0  0  0  0  0  0  0  0  0  0
  1  2  1  0
  2  3  1  0
  3  4  1  0
  4  5  2  0
  4  6  1  0
  6  7  1  0
  7  8  1  0
  8  9  2  0
  8 10  1  0
 10 11  2  0
 11 12  1  0
 12 13  2  0
 13 14  1  0
 14 15  2  0
 15 16  1  0
 16 17  2  0
 17 18  1  0
 18 19  2  0
  2 20  1  0
 20 21  1  0
 21 22  1  0
 22 23  1  0
 23 24  1  0
 24 25  1  0
 25 26  1  0
 26 27  2  0
 27 28  1  0
 28 29  2  0
 29 30  1  0
 29 31  1  0
 31 32  2  0
 19 10  1  0
 24 20  1  0
 32 26  1  0
 18 13  1  0
  1 33  1  0
  1 34  1  0
  1 35  1  0
  2 36  1  1
  3 37  1  0
  6 38  1  0
  6 39  1  0
  7 40  1  0
 11 41  1  0
 12 42  1  0
 14 43  1  0
 15 44  1  0
 16 45  1  0
 17 46  1  0
 20 47  1  1
 21 48  1  0
 21 49  1  0
 22 50  1  0
 22 51  1  0
 23 52  1  0
 23 53  1  0
 25 54  1  0
 25 55  1  0
 27 56  1  0
 28 57  1  0
 31 58  1  0
 32 59  1  0
M  END
>  <smiles>  (29) 
C[C@H](NC(=O)CNC(=O)c1ccc2ccccc2n1)[C@H]1CCCN1Cc1ccc(Cl)cc1

>  <score_type>  (29) 
oracle

>  <origin>  (29) 
autodockgpu

>  <m_score__min__energy>  (29) 
-9.4600000000000009

>  <m_primary>  (29) 
energy

>  <rmsd>  (29) 
2.866477443992548

>  <m_score__min__rmsd>  (29) 
2.866477443992548

>  <meeko>  (29) 
{"free_energy": -9.21, "intermolecular_energy": -11.3, "internal_energy": -2.08, "cluster_size": 19, "cluster_id": 1, "rank_in_cluster": 4}

>  <energy>  (29) 
-8.34

>  <cluster_rmsd>  (29) 
0.25

>  <cluster>  (29) 
5

$$$$

     RDKit          3D

 59 62  0  0  0  0  0  0  0  0999 V2000
  143.5660   74.0770  217.7020 C   0  0  0  0  0  0  0  0  0  0  0  0
  143.2880   75.1920  218.7190 C   0  0  2  0  0  0  0  0  0  0  0  0
  141.9740   74.9080  219.2620 N   0  0  0  0  0  0  0  0  0  0  0  0
  141.8520   73.8410  220.1910 C   0  0  0  0  0  0  0  0  0  0  0  0
  142.8320   73.1400  220.5570 O   0  0  0  0  0  0  0  0  0  0  0  0
  140.5140   73.5300  220.7610 C   0  0  0  0  0  0  0  0  0  0  0  0
  140.7370   72.6710  221.9150 N   0  0  0  0  0  0  0  0  0  0  0  0
  139.6240   72.2550  222.6880 C   0  0  0  0  0  0  0  0  0  0  0  0
  138.4870   72.6470  222.3420 O   0  0  0  0  0  0  0  0  0  0  0  0
  139.8130   71.3940  223.8510 C   0  0  0  0  0  0  0  0  0  0  0  0
  139.4660   70.0610  223.7800 C   0  0  0  0  0  0  0  0  0  0  0  0
  139.6120   69.1830  224.8340 C   0  0  0  0  0  0  0  0  0  0  0  0
  140.1380   69.6830  226.0210 C   0  0  0  0  0  0  0  0  0  0  0  0
  140.3160   68.8670  227.1180 C   0  0  0  0  0  0  0  0  0  0  0  0
  140.8400   69.3560  228.3080 C   0  0  0  0  0  0  0  0  0  0  0  0
  141.1810   70.6960  228.3540 C   0  0  0  0  0  0  0  0  0  0  0  0
  141.0050   71.5240  227.2520 C   0  0  0  0  0  0  0  0  0  0  0  0
  140.4830   71.0210  226.0800 C   0  0  0  0  0  0  0  0  0  0  0  0
  140.3200   71.8510  225.0150 N   0  0  0  0  0  0  0  0  0  0  0  0
  143.3560   76.5160  217.9860 C   0  0  1  0  0  0  0  0  0  0  0  0
  143.9760   76.3320  216.6080 C   0  0  0  0  0  0  0  0  0  0  0  0
  142.8460   76.3440  215.6220 C   0  0  0  0  0  0  0  0  0  0  0  0
  141.6130   76.5980  216.4620 C   0  0  0  0  0  0  0  0  0  0  0  0
  142.0630   77.0640  217.7350 N   0  0  0  0  0  0  0  0  0  0  0  0
  141.9120   78.4610  217.9790 C   0  0  0  0  0  0  0  0  0  0  0  0
  141.8940   78.8720  219.3830 C   0  0  0  0  0  0  0  0  0  0  0  0
  142.1500   80.1790  219.7880 C   0  0  0  0  0  0  0  0  0  0  0  0
  142.1320   80.5610  221.1130 C   0  0  0  0  0  0  0  0  0  0  0  0
  141.8570   79.6540  222.1070 C   0  0  0  0  0  0  0  0  0  0  0  0
  141.8170   80.0670  223.8070 Cl  0  0  0  0  0  0  0  0  0  0  0  0
  141.6000   78.3550  221.7380 C   0  0  0  0  0  0  0  0  0  0  0  0
  141.6190   77.9760  220.4040 C   0  0  0  0  0  0  0  0  0  0  0  0
  143.7987   73.1437  218.2356 H   0  0  0  0  0  0  0  0  0  0  0  0
  142.6778   73.9268  217.0707 H   0  0  0  0  0  0  0  0  0  0  0  0
  144.4207   74.3613  217.0707 H   0  0  0  0  0  0  0  0  0  0  0  0
  144.0144   75.2438  219.5434 H   0  0  0  0  0  0  0  0  0  0  0  0
  141.1770   75.5020  218.9440 H   0  0  0  0  0  0  0  0  0  0  0  0
  140.0098   74.4572  221.0710 H   0  0  0  0  0  0  0  0  0  0  0  0
  139.8742   73.0328  220.0170 H   0  0  0  0  0  0  0  0  0  0  0  0
  141.6800   72.3410  222.2110 H   0  0  0  0  0  0  0  0  0  0  0  0
  139.0520   69.6787  222.8353 H   0  0  0  0  0  0  0  0  0  0  0  0
  139.3230   68.1259  224.7394 H   0  0  0  0  0  0  0  0  0  0  0  0
  140.0369   67.8052  227.0494 H   0  0  0  0  0  0  0  0  0  0  0  0
  140.9787   68.7019  229.1815 H   0  0  0  0  0  0  0  0  0  0  0  0
  141.5997   71.1142  229.2812 H   0  0  0  0  0  0  0  0  0  0  0  0
  141.2837   72.5862  227.3155 H   0  0  0  0  0  0  0  0  0  0  0  0
  143.9468   77.1793  218.6348 H   0  0  0  0  0  0  0  0  0  0  0  0
  144.6748   77.1541  216.3938 H   0  0  0  0  0  0  0  0  0  0  0  0
  144.5410   75.3899  216.5509 H   0  0  0  0  0  0  0  0  0  0  0  0
  142.9842   77.1460  214.8819 H   0  0  0  0  0  0  0  0  0  0  0  0
  142.7780   75.4055  215.0522 H   0  0  0  0  0  0  0  0  0  0  0  0
  140.9801   77.3597  215.9831 H   0  0  0  0  0  0  0  0  0  0  0  0
  141.0153   75.6807  216.5689 H   0  0  0  0  0  0  0  0  0  0  0  0
  142.7483   78.9800  217.4878 H   0  0  0  0  0  0  0  0  0  0  0  0
  140.9206   78.7243  217.5819 H   0  0  0  0  0  0  0  0  0  0  0  0
  142.3752   80.9358  219.0221 H   0  0  0  0  0  0  0  0  0  0  0  0
  142.3411   81.6080  221.3778 H   0  0  0  0  0  0  0  0  0  0  0  0
  141.3762   77.6057  222.5116 H   0  0  0  0  0  0  0  0  0  0  0  0
  141.4084   76.9273  220.1473 H   0  0  0  0  0  0  0  0  0  0  0  0
  1  2  1  0
  2  3  1  0
  3  4  1  0
  4  5  2  0
  4  6  1  0
  6  7  1  0
  7  8  1  0
  8  9  2  0
  8 10  1  0
 10 11  2  0
 11 12  1  0
 12 13  2  0
 13 14  1  0
 14 15  2  0
 15 16  1  0
 16 17  2  0
 17 18  1  0
 18 19  2  0
  2 20  1  0
 20 21  1  0
 21 22  1  0
 22 23  1  0
 23 24  1  0
 24 25  1  0
 25 26  1  0
 26 27  2  0
 27 28  1  0
 28 29  2  0
 29 30  1  0
 29 31  1  0
 31 32  2  0
 19 10  1  0
 24 20  1  0
 32 26  1  0
 18 13  1  0
  1 33  1  0
  1 34  1  0
  1 35  1  0
  2 36  1  1
  3 37  1  0
  6 38  1  0
  6 39  1  0
  7 40  1  0
 11 41  1  0
 12 42  1  0
 14 43  1  0
 15 44  1  0
 16 45  1  0
 17 46  1  0
 20 47  1  1
 21 48  1  0
 21 49  1  0
 22 50  1  0
 22 51  1  0
 23 52  1  0
 23 53  1  0
 25 54  1  0
 25 55  1  0
 27 56  1  0
 28 57  1  0
 31 58  1  0
 32 59  1  0
M  END
>  <smiles>  (30) 
C[C@H](NC(=O)CNC(=O)c1ccc2ccccc2n1)[C@H]1CCCN1Cc1ccc(Cl)cc1

>  <score_type>  (30) 
oracle

>  <origin>  (30) 
autodockgpu

>  <m_score__min__energy>  (30) 
-9.4600000000000009

>  <m_primary>  (30) 
energy

>  <rmsd>  (30) 
3.1436493704282413

>  <m_score__min__rmsd>  (30) 
3.1436493704282413

>  <meeko>  (30) 
{"free_energy": -7.66, "intermolecular_energy": -9.75, "internal_energy": -2.87, "cluster_size": 19, "cluster_id": 1, "rank_in_cluster": 19}

>  <energy>  (30) 
-8.08

>  <cluster_rmsd>  (30) 
0.57

>  <cluster>  (30) 
5

$$$$

     RDKit          3D

 59 62  0  0  0  0  0  0  0  0999 V2000
  138.0690   77.4650  222.9360 C   0  0  0  0  0  0  0  0  0  0  0  0
  138.7670   77.6040  221.5770 C   0  0  2  0  0  0  0  0  0  0  0  0
  139.5510   76.3950  221.4140 N   0  0  0  0  0  0  0  0  0  0  0  0
  138.8680   75.1970  221.0740 C   0  0  0  0  0  0  0  0  0  0  0  0
  137.6200   75.1460  220.9110 O   0  0  0  0  0  0  0  0  0  0  0  0
  139.6510   73.9440  220.9030 C   0  0  0  0  0  0  0  0  0  0  0  0
  139.7060   73.2990  222.2070 N   0  0  0  0  0  0  0  0  0  0  0  0
  139.9360   71.9020  222.2740 C   0  0  0  0  0  0  0  0  0  0  0  0
  140.0830   71.2770  221.2000 O   0  0  0  0  0  0  0  0  0  0  0  0
  139.9970   71.2260  223.5660 C   0  0  0  0  0  0  0  0  0  0  0  0
  139.5510   69.9250  223.6810 C   0  0  0  0  0  0  0  0  0  0  0  0
  139.5740   69.2180  224.8640 C   0  0  0  0  0  0  0  0  0  0  0  0
  140.0760   69.8620  225.9900 C   0  0  0  0  0  0  0  0  0  0  0  0
  140.1330   69.2210  227.2090 C   0  0  0  0  0  0  0  0  0  0  0  0
  140.6320   69.8550  228.3400 C   0  0  0  0  0  0  0  0  0  0  0  0
  141.0730   71.1590  228.2000 C   0  0  0  0  0  0  0  0  0  0  0  0
  141.0190   71.8110  226.9740 C   0  0  0  0  0  0  0  0  0  0  0  0
  140.5210   71.1660  225.8630 C   0  0  0  0  0  0  0  0  0  0  0  0
  140.4780   71.8250  224.6740 N   0  0  0  0  0  0  0  0  0  0  0  0
  139.6120   78.8600  221.6150 C   0  0  1  0  0  0  0  0  0  0  0  0
  139.3640   79.6310  222.9040 C   0  0  0  0  0  0  0  0  0  0  0  0
  140.5270   79.3490  223.8070 C   0  0  0  0  0  0  0  0  0  0  0  0
  141.4410   78.4690  222.9810 C   0  0  0  0  0  0  0  0  0  0  0  0
  141.0090   78.5750  221.6240 N   0  0  0  0  0  0  0  0  0  0  0  0
  141.8220   79.3750  220.7680 C   0  0  0  0  0  0  0  0  0  0  0  0
  141.4380   80.7820  220.6440 C   0  0  0  0  0  0  0  0  0  0  0  0
  140.8120   81.2940  219.5110 C   0  0  0  0  0  0  0  0  0  0  0  0
  140.4530   82.6210  219.3990 C   0  0  0  0  0  0  0  0  0  0  0  0
  140.7000   83.5090  220.4180 C   0  0  0  0  0  0  0  0  0  0  0  0
  140.2720   85.2040  220.3460 Cl  0  0  0  0  0  0  0  0  0  0  0  0
  141.3170   83.0320  221.5500 C   0  0  0  0  0  0  0  0  0  0  0  0
  141.6770   81.6970  221.6580 C   0  0  0  0  0  0  0  0  0  0  0  0
  138.8032   77.6112  223.7420 H   0  0  0  0  0  0  0  0  0  0  0  0
  137.2762   78.2229  223.0203 H   0  0  0  0  0  0  0  0  0  0  0  0
  137.6271   76.4612  223.0203 H   0  0  0  0  0  0  0  0  0  0  0  0
  138.0796   77.7053  220.7242 H   0  0  0  0  0  0  0  0  0  0  0  0
  140.5830   76.4610  221.5540 H   0  0  0  0  0  0  0  0  0  0  0  0
  139.1555   73.2845  220.1753 H   0  0  0  0  0  0  0  0  0  0  0  0
  140.6621   74.1595  220.5271 H   0  0  0  0  0  0  0  0  0  0  0  0
  139.5840   73.8120  223.1060 H   0  0  0  0  0  0  0  0  0  0  0  0
  139.1571   69.4269  222.7828 H   0  0  0  0  0  0  0  0  0  0  0  0
  139.2085   68.1818  224.9157 H   0  0  0  0  0  0  0  0  0  0  0  0
  139.7752   68.1838  227.2881 H   0  0  0  0  0  0  0  0  0  0  0  0
  140.6749   69.3395  229.3108 H   0  0  0  0  0  0  0  0  0  0  0  0
  141.4741   71.6898  229.0760 H   0  0  0  0  0  0  0  0  0  0  0  0
  141.3759   72.8481  226.8900 H   0  0  0  0  0  0  0  0  0  0  0  0
  139.3309   79.4279  220.7158 H   0  0  0  0  0  0  0  0  0  0  0  0
  139.2998   80.7089  222.6943 H   0  0  0  0  0  0  0  0  0  0  0  0
  138.4170   79.3240  223.3720 H   0  0  0  0  0  0  0  0  0  0  0  0
  141.0360   80.2825  224.0890 H   0  0  0  0  0  0  0  0  0  0  0  0
  140.2203   78.8684  224.7477 H   0  0  0  0  0  0  0  0  0  0  0  0
  142.4817   78.8129  223.0740 H   0  0  0  0  0  0  0  0  0  0  0  0
  141.3980   77.4254  223.3261 H   0  0  0  0  0  0  0  0  0  0  0  0
  142.8515   79.3406  221.1540 H   0  0  0  0  0  0  0  0  0  0  0  0
  141.7019   78.9466  219.7620 H   0  0  0  0  0  0  0  0  0  0  0  0
  140.5954   80.6146  218.6734 H   0  0  0  0  0  0  0  0  0  0  0  0
  139.9616   82.9737  218.4802 H   0  0  0  0  0  0  0  0  0  0  0  0
  141.5283   83.7193  222.3825 H   0  0  0  0  0  0  0  0  0  0  0  0
  142.1689   81.3523  222.5795 H   0  0  0  0  0  0  0  0  0  0  0  0
  1  2  1  0
  2  3  1  0
  3  4  1  0
  4  5  2  0
  4  6  1  0
  6  7  1  0
  7  8  1  0
  8  9  2  0
  8 10  1  0
 10 11  2  0
 11 12  1  0
 12 13  2  0
 13 14  1  0
 14 15  2  0
 15 16  1  0
 16 17  2  0
 17 18  1  0
 18 19  2  0
  2 20  1  0
 20 21  1  0
 21 22  1  0
 22 23  1  0
 23 24  1  0
 24 25  1  0
 25 26  1  0
 26 27  2  0
 27 28  1  0
 28 29  2  0
 29 30  1  0
 29 31  1  0
 31 32  2  0
 19 10  1  0
 24 20  1  0
 32 26  1  0
 18 13  1  0
  1 33  1  0
  1 34  1  0
  1 35  1  0
  2 36  1  6
  3 37  1  0
  6 38  1  0
  6 39  1  0
  7 40  1  0
 11 41  1  0
 12 42  1  0
 14 43  1  0
 15 44  1  0
 16 45  1  0
 17 46  1  0
 20 47  1  6
 21 48  1  0
 21 49  1  0
 22 50  1  0
 22 51  1  0
 23 52  1  0
 23 53  1  0
 25 54  1  0
 25 55  1  0
 27 56  1  0
 28 57  1  0
 31 58  1  0
 32 59  1  0
M  END
>  <smiles>  (31) 
C[C@H](NC(=O)CNC(=O)c1ccc2ccccc2n1)[C@H]1CCCN1Cc1ccc(Cl)cc1

>  <score_type>  (31) 
oracle

>  <origin>  (31) 
autodockgpu

>  <m_score__min__energy>  (31) 
-9.4600000000000009

>  <m_primary>  (31) 
energy

>  <rmsd>  (31) 
2.4523738256042282

>  <m_score__min__rmsd>  (31) 
2.4523738256042282

>  <meeko>  (31) 
{"free_energy": -8.22, "intermolecular_energy": -10.3, "internal_energy": -2.42, "cluster_size": 3, "cluster_id": 3, "rank_in_cluster": 2}

>  <energy>  (31) 
-7.79

>  <cluster_rmsd>  (31) 
1.38

>  <cluster>  (31) 
5

$$$$

     RDKit          3D

 59 62  0  0  0  0  0  0  0  0999 V2000
  142.6270   75.0810  218.5160 C   0  0  0  0  0  0  0  0  0  0  0  0
  142.2860   74.8040  219.9870 C   0  0  2  0  0  0  0  0  0  0  0  0
  141.2550   73.7860  219.9640 N   0  0  0  0  0  0  0  0  0  0  0  0
  141.6410   72.4490  219.6770 C   0  0  0  0  0  0  0  0  0  0  0  0
  142.8350   72.1200  219.4440 O   0  0  0  0  0  0  0  0  0  0  0  0
  140.6000   71.3870  219.6470 C   0  0  0  0  0  0  0  0  0  0  0  0
  140.5530   70.8060  220.9810 N   0  0  0  0  0  0  0  0  0  0  0  0
  140.1010   71.6040  222.0620 C   0  0  0  0  0  0  0  0  0  0  0  0
  139.7590   72.7830  221.8210 O   0  0  0  0  0  0  0  0  0  0  0  0
  140.0410   71.0520  223.4120 C   0  0  0  0  0  0  0  0  0  0  0  0
  139.3850   69.8590  223.6360 C   0  0  0  0  0  0  0  0  0  0  0  0
  139.2830   69.2740  224.8800 C   0  0  0  0  0  0  0  0  0  0  0  0
  139.8760   69.9310  225.9530 C   0  0  0  0  0  0  0  0  0  0  0  0
  139.8170   69.4070  227.2270 C   0  0  0  0  0  0  0  0  0  0  0  0
  140.4050   70.0560  228.3060 C   0  0  0  0  0  0  0  0  0  0  0  0
  141.0570   71.2510  228.0560 C   0  0  0  0  0  0  0  0  0  0  0  0
  141.1210   71.7840  226.7740 C   0  0  0  0  0  0  0  0  0  0  0  0
  140.5300   71.1260  225.7160 C   0  0  0  0  0  0  0  0  0  0  0  0
  140.6060   71.6680  224.4710 N   0  0  0  0  0  0  0  0  0  0  0  0
  141.8240   76.1050  220.6080 C   0  0  1  0  0  0  0  0  0  0  0  0
  142.2740   77.2890  219.7640 C   0  0  0  0  0  0  0  0  0  0  0  0
  141.0760   77.7450  218.9860 C   0  0  0  0  0  0  0  0  0  0  0  0
  139.9550   76.8430  219.4560 C   0  0  0  0  0  0  0  0  0  0  0  0
  140.4020   76.2100  220.6550 N   0  0  0  0  0  0  0  0  0  0  0  0
  139.8460   76.7070  221.8710 C   0  0  0  0  0  0  0  0  0  0  0  0
  140.4710   77.9090  222.4220 C   0  0  0  0  0  0  0  0  0  0  0  0
  140.1060   79.1940  222.0300 C   0  0  0  0  0  0  0  0  0  0  0  0
  140.6990   80.3250  222.5530 C   0  0  0  0  0  0  0  0  0  0  0  0
  141.6900   80.2300  223.4990 C   0  0  0  0  0  0  0  0  0  0  0  0
  142.4870   81.6180  224.2060 Cl  0  0  0  0  0  0  0  0  0  0  0  0
  142.0720   78.9740  223.9070 C   0  0  0  0  0  0  0  0  0  0  0  0
  141.4730   77.8400  223.3780 C   0  0  0  0  0  0  0  0  0  0  0  0
  143.4798   75.7737  218.4615 H   0  0  0  0  0  0  0  0  0  0  0  0
  142.8891   74.1368  218.0163 H   0  0  0  0  0  0  0  0  0  0  0  0
  141.7565   75.5310  218.0163 H   0  0  0  0  0  0  0  0  0  0  0  0
  143.1337   74.4441  220.5886 H   0  0  0  0  0  0  0  0  0  0  0  0
  140.2730   74.0810  220.1590 H   0  0  0  0  0  0  0  0  0  0  0  0
  139.6231   71.8216  219.3886 H   0  0  0  0  0  0  0  0  0  0  0  0
  140.8373   70.6230  218.8920 H   0  0  0  0  0  0  0  0  0  0  0  0
  140.8360   69.8250  221.1910 H   0  0  0  0  0  0  0  0  0  0  0  0
  138.9202   69.3493  222.7792 H   0  0  0  0  0  0  0  0  0  0  0  0
  138.7514   68.3211  225.0192 H   0  0  0  0  0  0  0  0  0  0  0  0
  139.2929   68.4542  227.3930 H   0  0  0  0  0  0  0  0  0  0  0  0
  140.3541   69.6355  229.3212 H   0  0  0  0  0  0  0  0  0  0  0  0
  141.5339   71.7894  228.8883 H   0  0  0  0  0  0  0  0  0  0  0  0
  141.6457   72.7355  226.6025 H   0  0  0  0  0  0  0  0  0  0  0  0
  142.2542   76.1136  221.6204 H   0  0  0  0  0  0  0  0  0  0  0  0
  142.6362   78.1005  220.4123 H   0  0  0  0  0  0  0  0  0  0  0  0
  143.0971   77.0051  219.0918 H   0  0  0  0  0  0  0  0  0  0  0  0
  140.8466   78.7980  219.2065 H   0  0  0  0  0  0  0  0  0  0  0  0
  141.2345   77.6846  217.8992 H   0  0  0  0  0  0  0  0  0  0  0  0
  139.0514   77.4372  219.6570 H   0  0  0  0  0  0  0  0  0  0  0  0
  139.7046   76.0961  218.6882 H   0  0  0  0  0  0  0  0  0  0  0  0
  138.7855   76.9341  221.6872 H   0  0  0  0  0  0  0  0  0  0  0  0
  140.0167   75.9174  222.6176 H   0  0  0  0  0  0  0  0  0  0  0  0
  139.3150   79.3123  221.2748 H   0  0  0  0  0  0  0  0  0  0  0  0
  140.3732   81.3171  222.2071 H   0  0  0  0  0  0  0  0  0  0  0  0
  142.8635   78.8667  224.6633 H   0  0  0  0  0  0  0  0  0  0  0  0
  141.8045   76.8517  223.7292 H   0  0  0  0  0  0  0  0  0  0  0  0
  1  2  1  0
  2  3  1  0
  3  4  1  0
  4  5  2  0
  4  6  1  0
  6  7  1  0
  7  8  1  0
  8  9  2  0
  8 10  1  0
 10 11  2  0
 11 12  1  0
 12 13  2  0
 13 14  1  0
 14 15  2  0
 15 16  1  0
 16 17  2  0
 17 18  1  0
 18 19  2  0
  2 20  1  0
 20 21  1  0
 21 22  1  0
 22 23  1  0
 23 24  1  0
 24 25  1  0
 25 26  1  0
 26 27  2  0
 27 28  1  0
 28 29  2  0
 29 30  1  0
 29 31  1  0
 31 32  2  0
 19 10  1  0
 24 20  1  0
 32 26  1  0
 18 13  1  0
  1 33  1  0
  1 34  1  0
  1 35  1  0
  2 36  1  1
  3 37  1  0
  6 38  1  0
  6 39  1  0
  7 40  1  0
 11 41  1  0
 12 42  1  0
 14 43  1  0
 15 44  1  0
 16 45  1  0
 17 46  1  0
 20 47  1  1
 21 48  1  0
 21 49  1  0
 22 50  1  0
 22 51  1  0
 23 52  1  0
 23 53  1  0
 25 54  1  0
 25 55  1  0
 27 56  1  0
 28 57  1  0
 31 58  1  0
 32 59  1  0
M  END
>  <smiles>  (32) 
C[C@H](NC(=O)CNC(=O)c1ccc2ccccc2n1)[C@H]1CCCN1Cc1ccc(Cl)cc1

>  <score_type>  (32) 
oracle

>  <origin>  (32) 
autodockgpu

>  <m_score__min__energy>  (32) 
-9.4600000000000009

>  <m_primary>  (32) 
energy

>  <rmsd>  (32) 
3.006133213294347

>  <m_score__min__rmsd>  (32) 
3.006133213294347

>  <meeko>  (32) 
{"free_energy": -8.03, "intermolecular_energy": -10.12, "internal_energy": -2.98, "cluster_size": 19, "cluster_id": 1, "rank_in_cluster": 16}

>  <energy>  (32) 
-8.33

>  <cluster_rmsd>  (32) 
0.0

>  <cluster>  (32) 
6

$$$$

     RDKit          3D

 59 62  0  0  0  0  0  0  0  0999 V2000
  142.1090   73.9780  218.3700 C   0  0  0  0  0  0  0  0  0  0  0  0
  142.2210   73.8040  219.8910 C   0  0  2  0  0  0  0  0  0  0  0  0
  140.9950   73.1470  220.3000 N   0  0  0  0  0  0  0  0  0  0  0  0
  140.9020   71.7400  220.1280 C   0  0  0  0  0  0  0  0  0  0  0  0
  141.8340   71.0500  219.6370 O   0  0  0  0  0  0  0  0  0  0  0  0
  139.6540   71.0430  220.5400 C   0  0  0  0  0  0  0  0  0  0  0  0
  139.8670   70.5650  221.8980 N   0  0  0  0  0  0  0  0  0  0  0  0
  140.0500   71.5110  222.9380 C   0  0  0  0  0  0  0  0  0  0  0  0
  140.0200   72.7260  222.6420 O   0  0  0  0  0  0  0  0  0  0  0  0
  140.2660   71.0650  224.3110 C   0  0  0  0  0  0  0  0  0  0  0  0
  140.8530   71.9160  225.2240 C   0  0  0  0  0  0  0  0  0  0  0  0
  141.0920   71.5700  226.5370 C   0  0  0  0  0  0  0  0  0  0  0  0
  140.7150   70.2960  226.9470 C   0  0  0  0  0  0  0  0  0  0  0  0
  140.9190   69.8770  228.2450 C   0  0  0  0  0  0  0  0  0  0  0  0
  140.5480   68.6060  228.6640 C   0  0  0  0  0  0  0  0  0  0  0  0
  139.9600   67.7700  227.7300 C   0  0  0  0  0  0  0  0  0  0  0  0
  139.7500   68.1860  226.4210 C   0  0  0  0  0  0  0  0  0  0  0  0
  140.1270   69.4510  226.0230 C   0  0  0  0  0  0  0  0  0  0  0  0
  139.9110   69.8350  224.7370 N   0  0  0  0  0  0  0  0  0  0  0  0
  142.3920   75.1780  220.5030 C   0  0  1  0  0  0  0  0  0  0  0  0
  143.0540   76.1260  219.5130 C   0  0  0  0  0  0  0  0  0  0  0  0
  141.9670   76.9930  218.9520 C   0  0  0  0  0  0  0  0  0  0  0  0
  140.7180   76.5560  219.6870 C   0  0  0  0  0  0  0  0  0  0  0  0
  141.1430   75.7930  220.8160 N   0  0  0  0  0  0  0  0  0  0  0  0
  141.0610   76.4470  222.0810 C   0  0  0  0  0  0  0  0  0  0  0  0
  141.0190   77.9090  222.0490 C   0  0  0  0  0  0  0  0  0  0  0  0
  139.8400   78.6320  222.2100 C   0  0  0  0  0  0  0  0  0  0  0  0
  139.8060   80.0100  222.1790 C   0  0  0  0  0  0  0  0  0  0  0  0
  140.9530   80.7420  221.9860 C   0  0  0  0  0  0  0  0  0  0  0  0
  140.9860   82.4900  221.9350 Cl  0  0  0  0  0  0  0  0  0  0  0  0
  142.1330   80.0560  221.8240 C   0  0  0  0  0  0  0  0  0  0  0  0
  142.1620   78.6700  221.8560 C   0  0  0  0  0  0  0  0  0  0  0  0
  141.5260   74.8836  218.1465 H   0  0  0  0  0  0  0  0  0  0  0  0
  143.1156   74.0736  217.9368 H   0  0  0  0  0  0  0  0  0  0  0  0
  141.6051   73.1014  217.9368 H   0  0  0  0  0  0  0  0  0  0  0  0
  143.0800   73.1985  220.2157 H   0  0  0  0  0  0  0  0  0  0  0  0
  140.2360   73.7380  220.7040 H   0  0  0  0  0  0  0  0  0  0  0  0
  138.8042   71.7409  220.5133 H   0  0  0  0  0  0  0  0  0  0  0  0
  139.4251   70.2093  219.8599 H   0  0  0  0  0  0  0  0  0  0  0  0
  139.8940   69.5550  222.1540 H   0  0  0  0  0  0  0  0  0  0  0  0
  141.1453   72.9217  224.8875 H   0  0  0  0  0  0  0  0  0  0  0  0
  141.5641   72.2767  227.2354 H   0  0  0  0  0  0  0  0  0  0  0  0
  141.3862   70.5652  228.9648 H   0  0  0  0  0  0  0  0  0  0  0  0
  140.7151   68.2756  229.6998 H   0  0  0  0  0  0  0  0  0  0  0  0
  139.6533   66.7571  228.0300 H   0  0  0  0  0  0  0  0  0  0  0  0
  139.2804   67.5024  225.6984 H   0  0  0  0  0  0  0  0  0  0  0  0
  142.9931   75.0192  221.4104 H   0  0  0  0  0  0  0  0  0  0  0  0
  143.8056   76.7446  220.0254 H   0  0  0  0  0  0  0  0  0  0  0  0
  143.5667   75.5690  218.7149 H   0  0  0  0  0  0  0  0  0  0  0  0
  142.1792   78.0553  219.1430 H   0  0  0  0  0  0  0  0  0  0  0  0
  141.8691   76.8887  217.8613 H   0  0  0  0  0  0  0  0  0  0  0  0
  140.1477   77.4361  220.0190 H   0  0  0  0  0  0  0  0  0  0  0  0
  140.0664   75.9585  219.0325 H   0  0  0  0  0  0  0  0  0  0  0  0
  140.1471   76.0956  222.5822 H   0  0  0  0  0  0  0  0  0  0  0  0
  141.9923   76.1900  222.6070 H   0  0  0  0  0  0  0  0  0  0  0  0
  138.9000   78.0830  222.3679 H   0  0  0  0  0  0  0  0  0  0  0  0
  138.8464   80.5313  222.3107 H   0  0  0  0  0  0  0  0  0  0  0  0
  143.0676   80.6144  221.6668 H   0  0  0  0  0  0  0  0  0  0  0  0
  143.1256   78.1562  221.7236 H   0  0  0  0  0  0  0  0  0  0  0  0
  1  2  1  0
  2  3  1  0
  3  4  1  0
  4  5  2  0
  4  6  1  0
  6  7  1  0
  7  8  1  0
  8  9  2  0
  8 10  1  0
 10 11  2  0
 11 12  1  0
 12 13  2  0
 13 14  1  0
 14 15  2  0
 15 16  1  0
 16 17  2  0
 17 18  1  0
 18 19  2  0
  2 20  1  0
 20 21  1  0
 21 22  1  0
 22 23  1  0
 23 24  1  0
 24 25  1  0
 25 26  1  0
 26 27  2  0
 27 28  1  0
 28 29  2  0
 29 30  1  0
 29 31  1  0
 31 32  2  0
 19 10  1  0
 24 20  1  0
 32 26  1  0
 18 13  1  0
  1 33  1  0
  1 34  1  0
  1 35  1  0
  2 36  1  6
  3 37  1  0
  6 38  1  0
  6 39  1  0
  7 40  1  0
 11 41  1  0
 12 42  1  0
 14 43  1  0
 15 44  1  0
 16 45  1  0
 17 46  1  0
 20 47  1  1
 21 48  1  0
 21 49  1  0
 22 50  1  0
 22 51  1  0
 23 52  1  0
 23 53  1  0
 25 54  1  0
 25 55  1  0
 27 56  1  0
 28 57  1  0
 31 58  1  0
 32 59  1  0
M  END
>  <smiles>  (33) 
C[C@H](NC(=O)CNC(=O)c1ccc2ccccc2n1)[C@H]1CCCN1Cc1ccc(Cl)cc1

>  <score_type>  (33) 
oracle

>  <origin>  (33) 
autodockgpu

>  <m_score__min__energy>  (33) 
-9.4600000000000009

>  <m_primary>  (33) 
energy

>  <rmsd>  (33) 
3.35070738971872

>  <m_score__min__rmsd>  (33) 
3.35070738971872

>  <meeko>  (33) 
{"free_energy": -7.83, "intermolecular_energy": -9.91, "internal_energy": -2.98, "cluster_size": 19, "cluster_id": 1, "rank_in_cluster": 17}

>  <energy>  (33) 
-8.1

>  <cluster_rmsd>  (33) 
0.0

>  <cluster>  (33) 
7

$$$$

     RDKit          3D

 59 62  0  0  0  0  0  0  0  0999 V2000
  137.4170   73.7340  219.7500 C   0  0  0  0  0  0  0  0  0  0  0  0
  138.1750   75.0690  219.7560 C   0  0  2  0  0  0  0  0  0  0  0  0
  139.4340   74.8010  220.4240 N   0  0  0  0  0  0  0  0  0  0  0  0
  140.2880   73.8130  219.8660 C   0  0  0  0  0  0  0  0  0  0  0  0
  139.9970   73.1690  218.8240 O   0  0  0  0  0  0  0  0  0  0  0  0
  141.5850   73.5210  220.5340 C   0  0  0  0  0  0  0  0  0  0  0  0
  141.3450   72.4210  221.4570 N   0  0  0  0  0  0  0  0  0  0  0  0
  140.4850   72.6290  222.5640 C   0  0  0  0  0  0  0  0  0  0  0  0
  139.9640   73.7580  222.7010 O   0  0  0  0  0  0  0  0  0  0  0  0
  140.2230   71.5470  223.5080 C   0  0  0  0  0  0  0  0  0  0  0  0
  139.4390   70.4780  223.1250 C   0  0  0  0  0  0  0  0  0  0  0  0
  139.1440   69.4190  223.9580 C   0  0  0  0  0  0  0  0  0  0  0  0
  139.6710   69.4440  225.2440 C   0  0  0  0  0  0  0  0  0  0  0  0
  139.4210   68.4210  226.1340 C   0  0  0  0  0  0  0  0  0  0  0  0
  139.9420   68.4370  227.4220 C   0  0  0  0  0  0  0  0  0  0  0  0
  140.7250   69.5190  227.7830 C   0  0  0  0  0  0  0  0  0  0  0  0
  140.9810   70.5530  226.8900 C   0  0  0  0  0  0  0  0  0  0  0  0
  140.4550   70.5210  225.6170 C   0  0  0  0  0  0  0  0  0  0  0  0
  140.7200   71.5450  224.7620 N   0  0  0  0  0  0  0  0  0  0  0  0
  137.3190   76.0840  220.4850 C   0  0  1  0  0  0  0  0  0  0  0  0
  135.9830   75.4710  220.8790 C   0  0  0  0  0  0  0  0  0  0  0  0
  136.0700   75.1490  222.3410 C   0  0  0  0  0  0  0  0  0  0  0  0
  137.4380   75.6450  222.7560 C   0  0  0  0  0  0  0  0  0  0  0  0
  137.9050   76.5050  221.7150 N   0  0  0  0  0  0  0  0  0  0  0  0
  137.8590   77.9030  221.9910 C   0  0  0  0  0  0  0  0  0  0  0  0
  139.1120   78.5150  222.4340 C   0  0  0  0  0  0  0  0  0  0  0  0
  140.3340   77.8500  222.3790 C   0  0  0  0  0  0  0  0  0  0  0  0
  141.5130   78.4320  222.7980 C   0  0  0  0  0  0  0  0  0  0  0  0
  141.5320   79.7120  223.2960 C   0  0  0  0  0  0  0  0  0  0  0  0
  142.9870   80.5120  223.8450 Cl  0  0  0  0  0  0  0  0  0  0  0  0
  140.3400   80.3940  223.3620 C   0  0  0  0  0  0  0  0  0  0  0  0
  139.1580   79.8050  222.9390 C   0  0  0  0  0  0  0  0  0  0  0  0
  137.2340   73.4116  220.7857 H   0  0  0  0  0  0  0  0  0  0  0  0
  136.4559   73.8604  219.2300 H   0  0  0  0  0  0  0  0  0  0  0  0
  138.0180   72.9734  219.2300 H   0  0  0  0  0  0  0  0  0  0  0  0
  138.3784   75.4789  218.7557 H   0  0  0  0  0  0  0  0  0  0  0  0
  139.6540   75.3470  221.2850 H   0  0  0  0  0  0  0  0  0  0  0  0
  142.3387   73.2309  219.7871 H   0  0  0  0  0  0  0  0  0  0  0  0
  141.9632   74.4067  221.0656 H   0  0  0  0  0  0  0  0  0  0  0  0
  141.7750   71.4780  221.3500 H   0  0  0  0  0  0  0  0  0  0  0  0
  139.0288   70.4700  222.1044 H   0  0  0  0  0  0  0  0  0  0  0  0
  138.5141   68.5843  223.6168 H   0  0  0  0  0  0  0  0  0  0  0  0
  138.7953   67.5735  225.8174 H   0  0  0  0  0  0  0  0  0  0  0  0
  139.7393   67.6190  228.1290 H   0  0  0  0  0  0  0  0  0  0  0  0
  141.1529   69.5618  228.7955 H   0  0  0  0  0  0  0  0  0  0  0  0
  141.6073   71.4019  227.2015 H   0  0  0  0  0  0  0  0  0  0  0  0
  137.2123   76.9293  219.7892 H   0  0  0  0  0  0  0  0  0  0  0  0
  135.1687   76.1877  220.6966 H   0  0  0  0  0  0  0  0  0  0  0  0
  135.7726   74.5680  220.2872 H   0  0  0  0  0  0  0  0  0  0  0  0
  135.2804   75.6705  222.9019 H   0  0  0  0  0  0  0  0  0  0  0  0
  135.9346   74.0761  222.5424 H   0  0  0  0  0  0  0  0  0  0  0  0
  137.3669   76.2016  223.7021 H   0  0  0  0  0  0  0  0  0  0  0  0
  138.1301   74.8039  222.9099 H   0  0  0  0  0  0  0  0  0  0  0  0
  137.5413   78.4164  221.0715 H   0  0  0  0  0  0  0  0  0  0  0  0
  137.1623   78.0139  222.8350 H   0  0  0  0  0  0  0  0  0  0  0  0
  140.3606   76.8226  221.9870 H   0  0  0  0  0  0  0  0  0  0  0  0
  142.4517   77.8623  222.7322 H   0  0  0  0  0  0  0  0  0  0  0  0
  140.3237   81.4210  223.7558 H   0  0  0  0  0  0  0  0  0  0  0  0
  138.2239   80.3819  223.0066 H   0  0  0  0  0  0  0  0  0  0  0  0
  1  2  1  0
  2  3  1  0
  3  4  1  0
  4  5  2  0
  4  6  1  0
  6  7  1  0
  7  8  1  0
  8  9  2  0
  8 10  1  0
 10 11  2  0
 11 12  1  0
 12 13  2  0
 13 14  1  0
 14 15  2  0
 15 16  1  0
 16 17  2  0
 17 18  1  0
 18 19  2  0
  2 20  1  0
 20 21  1  0
 21 22  1  0
 22 23  1  0
 23 24  1  0
 24 25  1  0
 25 26  1  0
 26 27  2  0
 27 28  1  0
 28 29  2  0
 29 30  1  0
 29 31  1  0
 31 32  2  0
 19 10  1  0
 24 20  1  0
 32 26  1  0
 18 13  1  0
  1 33  1  0
  1 34  1  0
  1 35  1  0
  2 36  1  6
  3 37  1  0
  6 38  1  0
  6 39  1  0
  7 40  1  0
 11 41  1  0
 12 42  1  0
 14 43  1  0
 15 44  1  0
 16 45  1  0
 17 46  1  0
 20 47  1  6
 21 48  1  0
 21 49  1  0
 22 50  1  0
 22 51  1  0
 23 52  1  0
 23 53  1  0
 25 54  1  0
 25 55  1  0
 27 56  1  0
 28 57  1  0
 31 58  1  0
 32 59  1  0
M  END
>  <smiles>  (34) 
C[C@H](NC(=O)CNC(=O)c1ccc2ccccc2n1)[C@H]1CCCN1Cc1ccc(Cl)cc1

>  <score_type>  (34) 
oracle

>  <origin>  (34) 
autodockgpu

>  <m_score__min__energy>  (34) 
-9.4600000000000009

>  <m_primary>  (34) 
energy

>  <rmsd>  (34) 
3.3596180168488563

>  <m_score__min__rmsd>  (34) 
3.3596180168488563

>  <meeko>  (34) 
{"free_energy": -7.57, "intermolecular_energy": -9.66, "internal_energy": -3.15, "cluster_size": 5, "cluster_id": 7, "rank_in_cluster": 4}

>  <energy>  (34) 
-7.81

>  <cluster_rmsd>  (34) 
1.17

>  <cluster>  (34) 
7

$$$$

     RDKit          3D

 59 62  0  0  0  0  0  0  0  0999 V2000
  140.7050   74.2640  217.4470 C   0  0  0  0  0  0  0  0  0  0  0  0
  141.2440   73.4120  218.6040 C   0  0  2  0  0  0  0  0  0  0  0  0
  140.5120   73.8420  219.7800 N   0  0  0  0  0  0  0  0  0  0  0  0
  139.1350   73.5090  219.8680 C   0  0  0  0  0  0  0  0  0  0  0  0
  138.5310   72.8610  218.9720 O   0  0  0  0  0  0  0  0  0  0  0  0
  138.3630   73.9390  221.0650 C   0  0  0  0  0  0  0  0  0  0  0  0
  138.4630   72.8630  222.0400 N   0  0  0  0  0  0  0  0  0  0  0  0
  139.7010   72.6410  222.6940 C   0  0  0  0  0  0  0  0  0  0  0  0
  140.6620   73.3870  222.4030 O   0  0  0  0  0  0  0  0  0  0  0  0
  139.8340   71.5710  223.6770 C   0  0  0  0  0  0  0  0  0  0  0  0
  139.4350   70.2900  223.3550 C   0  0  0  0  0  0  0  0  0  0  0  0
  139.5280   69.2270  224.2280 C   0  0  0  0  0  0  0  0  0  0  0  0
  140.0520   69.4730  225.4920 C   0  0  0  0  0  0  0  0  0  0  0  0
  140.1780   68.4600  226.4190 C   0  0  0  0  0  0  0  0  0  0  0  0
  140.6990   68.6960  227.6850 C   0  0  0  0  0  0  0  0  0  0  0  0
  141.0920   69.9890  227.9850 C   0  0  0  0  0  0  0  0  0  0  0  0
  140.9700   71.0140  227.0540 C   0  0  0  0  0  0  0  0  0  0  0  0
  140.4490   70.7610  225.8040 C   0  0  0  0  0  0  0  0  0  0  0  0
  140.3390   71.7810  224.9110 N   0  0  0  0  0  0  0  0  0  0  0  0
  142.7340   73.6600  218.7070 C   0  0  1  0  0  0  0  0  0  0  0  0
  143.1520   74.7940  217.7810 C   0  0  0  0  0  0  0  0  0  0  0  0
  143.3360   76.0080  218.6420 C   0  0  0  0  0  0  0  0  0  0  0  0
  143.0760   75.5160  220.0500 C   0  0  0  0  0  0  0  0  0  0  0  0
  143.1250   74.0890  220.0100 N   0  0  0  0  0  0  0  0  0  0  0  0
  144.3010   73.4870  220.5460 C   0  0  0  0  0  0  0  0  0  0  0  0
  144.5680   72.1100  220.1310 C   0  0  0  0  0  0  0  0  0  0  0  0
  145.7170   71.7430  219.4360 C   0  0  0  0  0  0  0  0  0  0  0  0
  145.9640   70.4430  219.0470 C   0  0  0  0  0  0  0  0  0  0  0  0
  145.0720   69.4370  219.3330 C   0  0  0  0  0  0  0  0  0  0  0  0
  145.3190   67.7680  218.8710 Cl  0  0  0  0  0  0  0  0  0  0  0  0
  143.9280   69.7690  220.0190 C   0  0  0  0  0  0  0  0  0  0  0  0
  143.6850   71.0780  220.4080 C   0  0  0  0  0  0  0  0  0  0  0  0
  140.1582   75.1283  217.8519 H   0  0  0  0  0  0  0  0  0  0  0  0
  141.5442   74.6174  216.8299 H   0  0  0  0  0  0  0  0  0  0  0  0
  140.0262   73.6570  216.8299 H   0  0  0  0  0  0  0  0  0  0  0  0
  141.1072   72.3287  218.4708 H   0  0  0  0  0  0  0  0  0  0  0  0
  141.0330   74.3770  220.5090 H   0  0  0  0  0  0  0  0  0  0  0  0
  138.7897   74.8649  221.4781 H   0  0  0  0  0  0  0  0  0  0  0  0
  137.3130   74.1398  220.8057 H   0  0  0  0  0  0  0  0  0  0  0  0
  137.6670   72.2370  222.2880 H   0  0  0  0  0  0  0  0  0  0  0  0
  139.0222   70.1078  222.3518 H   0  0  0  0  0  0  0  0  0  0  0  0
  139.1990   68.2192  223.9346 H   0  0  0  0  0  0  0  0  0  0  0  0
  139.8588   67.4423  226.1501 H   0  0  0  0  0  0  0  0  0  0  0  0
  140.7957   67.8852  228.4220 H   0  0  0  0  0  0  0  0  0  0  0  0
  141.5087   70.2095  228.9789 H   0  0  0  0  0  0  0  0  0  0  0  0
  141.2912   72.0327  227.3168 H   0  0  0  0  0  0  0  0  0  0  0  0
  143.2075   72.7012  218.4490 H   0  0  0  0  0  0  0  0  0  0  0  0
  144.0954   74.5418  217.2747 H   0  0  0  0  0  0  0  0  0  0  0  0
  142.3931   74.9709  217.0046 H   0  0  0  0  0  0  0  0  0  0  0  0
  144.3600   76.3989  218.5494 H   0  0  0  0  0  0  0  0  0  0  0  0
  142.6641   76.8304  218.3552 H   0  0  0  0  0  0  0  0  0  0  0  0
  143.8472   75.9014  220.7332 H   0  0  0  0  0  0  0  0  0  0  0  0
  142.0981   75.8650  220.4132 H   0  0  0  0  0  0  0  0  0  0  0  0
  145.1611   74.1018  220.2423 H   0  0  0  0  0  0  0  0  0  0  0  0
  144.1389   73.4408  221.6330 H   0  0  0  0  0  0  0  0  0  0  0  0
  146.4559   72.5191  219.1877 H   0  0  0  0  0  0  0  0  0  0  0  0
  146.8887   70.2077  218.4997 H   0  0  0  0  0  0  0  0  0  0  0  0
  143.1951   68.9858  220.2628 H   0  0  0  0  0  0  0  0  0  0  0  0
  142.7586   71.3053  220.9558 H   0  0  0  0  0  0  0  0  0  0  0  0
  1  2  1  0
  2  3  1  0
  3  4  1  0
  4  5  2  0
  4  6  1  0
  6  7  1  0
  7  8  1  0
  8  9  2  0
  8 10  1  0
 10 11  2  0
 11 12  1  0
 12 13  2  0
 13 14  1  0
 14 15  2  0
 15 16  1  0
 16 17  2  0
 17 18  1  0
 18 19  2  0
  2 20  1  0
 20 21  1  0
 21 22  1  0
 22 23  1  0
 23 24  1  0
 24 25  1  0
 25 26  1  0
 26 27  2  0
 27 28  1  0
 28 29  2  0
 29 30  1  0
 29 31  1  0
 31 32  2  0
 19 10  1  0
 24 20  1  0
 32 26  1  0
 18 13  1  0
  1 33  1  0
  1 34  1  0
  1 35  1  0
  2 36  1  6
  3 37  1  0
  6 38  1  0
  6 39  1  0
  7 40  1  0
 11 41  1  0
 12 42  1  0
 14 43  1  0
 15 44  1  0
 16 45  1  0
 17 46  1  0
 20 47  1  6
 21 48  1  0
 21 49  1  0
 22 50  1  0
 22 51  1  0
 23 52  1  0
 23 53  1  0
 25 54  1  0
 25 55  1  0
 27 56  1  0
 28 57  1  0
 31 58  1  0
 32 59  1  0
M  END
>  <smiles>  (35) 
C[C@H](NC(=O)CNC(=O)c1ccc2ccccc2n1)[C@H]1CCCN1Cc1ccc(Cl)cc1

>  <score_type>  (35) 
oracle

>  <origin>  (35) 
autodockgpu

>  <m_score__min__energy>  (35) 
-9.4600000000000009

>  <m_primary>  (35) 
energy

>  <rmsd>  (35) 
6.3617873530084825

>  <m_score__min__rmsd>  (35) 
6.3617873530084825

>  <meeko>  (35) 
{"free_energy": -7.28, "intermolecular_energy": -9.37, "internal_energy": -3.29, "cluster_size": 2, "cluster_id": 8, "rank_in_cluster": 2}

>  <energy>  (35) 
-7.74

>  <cluster_rmsd>  (35) 
1.23

>  <cluster>  (35) 
7

$$$$

     RDKit          3D

 59 62  0  0  0  0  0  0  0  0999 V2000
  143.5400   74.0040  219.7610 C   0  0  0  0  0  0  0  0  0  0  0  0
  142.5110   74.7120  220.6520 C   0  0  2  0  0  0  0  0  0  0  0  0
  141.3010   73.9190  220.5580 N   0  0  0  0  0  0  0  0  0  0  0  0
  140.2300   74.2270  221.4390 C   0  0  0  0  0  0  0  0  0  0  0  0
  140.2920   75.1530  222.2900 O   0  0  0  0  0  0  0  0  0  0  0  0
  138.9780   73.4260  221.3610 C   0  0  0  0  0  0  0  0  0  0  0  0
  138.9450   72.5810  222.5460 N   0  0  0  0  0  0  0  0  0  0  0  0
  139.8890   71.5310  222.6680 C   0  0  0  0  0  0  0  0  0  0  0  0
  140.7190   71.3750  221.7450 O   0  0  0  0  0  0  0  0  0  0  0  0
  139.8820   70.6660  223.8430 C   0  0  0  0  0  0  0  0  0  0  0  0
  139.2740   69.4290  223.7810 C   0  0  0  0  0  0  0  0  0  0  0  0
  139.2240   68.5550  224.8460 C   0  0  0  0  0  0  0  0  0  0  0  0
  139.8220   68.9540  226.0360 C   0  0  0  0  0  0  0  0  0  0  0  0
  139.8150   68.1340  227.1450 C   0  0  0  0  0  0  0  0  0  0  0  0
  140.4080   68.5240  228.3390 C   0  0  0  0  0  0  0  0  0  0  0  0
  141.0120   69.7690  228.3770 C   0  0  0  0  0  0  0  0  0  0  0  0
  141.0240   70.5990  227.2630 C   0  0  0  0  0  0  0  0  0  0  0  0
  140.4290   70.1960  226.0870 C   0  0  0  0  0  0  0  0  0  0  0  0
  140.4540   71.0270  225.0110 N   0  0  0  0  0  0  0  0  0  0  0  0
  142.3400   76.1230  220.1310 C   0  0  1  0  0  0  0  0  0  0  0  0
  143.3420   76.4080  219.0220 C   0  0  0  0  0  0  0  0  0  0  0  0
  142.5920   76.3090  217.7270 C   0  0  0  0  0  0  0  0  0  0  0  0
  141.1630   76.0290  218.1380 C   0  0  0  0  0  0  0  0  0  0  0  0
  141.0620   76.3290  219.5310 N   0  0  0  0  0  0  0  0  0  0  0  0
  140.3980   77.5470  219.8630 C   0  0  0  0  0  0  0  0  0  0  0  0
  141.0050   78.3430  220.9300 C   0  0  0  0  0  0  0  0  0  0  0  0
  140.9400   77.9780  222.2720 C   0  0  0  0  0  0  0  0  0  0  0  0
  141.5140   78.7320  223.2730 C   0  0  0  0  0  0  0  0  0  0  0  0
  142.1870   79.8950  222.9860 C   0  0  0  0  0  0  0  0  0  0  0  0
  142.9390   80.9020  224.2030 Cl  0  0  0  0  0  0  0  0  0  0  0  0
  142.2690   80.2810  221.6690 C   0  0  0  0  0  0  0  0  0  0  0  0
  141.6890   79.5190  220.6650 C   0  0  0  0  0  0  0  0  0  0  0  0
  144.2821   73.4934  220.3924 H   0  0  0  0  0  0  0  0  0  0  0  0
  143.0287   73.2656  219.1259 H   0  0  0  0  0  0  0  0  0  0  0  0
  144.0469   74.7454  219.1259 H   0  0  0  0  0  0  0  0  0  0  0  0
  142.8066   74.7935  221.7084 H   0  0  0  0  0  0  0  0  0  0  0  0
  141.2720   73.1570  219.8460 H   0  0  0  0  0  0  0  0  0  0  0  0
  138.1026   74.0920  221.3462 H   0  0  0  0  0  0  0  0  0  0  0  0
  138.9535   72.8201  220.4432 H   0  0  0  0  0  0  0  0  0  0  0  0
  138.2570   72.7040  223.3190 H   0  0  0  0  0  0  0  0  0  0  0  0
  138.8053   69.1247  222.8335 H   0  0  0  0  0  0  0  0  0  0  0  0
  138.7286   67.5769  224.7574 H   0  0  0  0  0  0  0  0  0  0  0  0
  139.3290   67.1492  227.0825 H   0  0  0  0  0  0  0  0  0  0  0  0
  140.3980   67.8678  229.2218 H   0  0  0  0  0  0  0  0  0  0  0  0
  141.4917   70.1076  229.3072 H   0  0  0  0  0  0  0  0  0  0  0  0
  141.5112   71.5836  227.3199 H   0  0  0  0  0  0  0  0  0  0  0  0
  142.4750   76.7756  221.0062 H   0  0  0  0  0  0  0  0  0  0  0  0
  143.7617   77.4178  219.1407 H   0  0  0  0  0  0  0  0  0  0  0  0
  144.1776   75.6932  219.0507 H   0  0  0  0  0  0  0  0  0  0  0  0
  142.6576   77.2532  217.1664 H   0  0  0  0  0  0  0  0  0  0  0  0
  142.9982   75.5286  217.0667 H   0  0  0  0  0  0  0  0  0  0  0  0
  140.4733   76.6651  217.5637 H   0  0  0  0  0  0  0  0  0  0  0  0
  140.8970   74.9797  217.9424 H   0  0  0  0  0  0  0  0  0  0  0  0
  140.3656   78.1695  218.9567 H   0  0  0  0  0  0  0  0  0  0  0  0
  139.4096   77.2495  220.2433 H   0  0  0  0  0  0  0  0  0  0  0  0
  140.4105   77.0529  222.5438 H   0  0  0  0  0  0  0  0  0  0  0  0
  141.4320   78.3975  224.3177 H   0  0  0  0  0  0  0  0  0  0  0  0
  142.8020   81.2071  221.4076 H   0  0  0  0  0  0  0  0  0  0  0  0
  141.7750   79.8600  219.6227 H   0  0  0  0  0  0  0  0  0  0  0  0
  1  2  1  0
  2  3  1  0
  3  4  1  0
  4  5  2  0
  4  6  1  0
  6  7  1  0
  7  8  1  0
  8  9  2  0
  8 10  1  0
 10 11  2  0
 11 12  1  0
 12 13  2  0
 13 14  1  0
 14 15  2  0
 15 16  1  0
 16 17  2  0
 17 18  1  0
 18 19  2  0
  2 20  1  0
 20 21  1  0
 21 22  1  0
 22 23  1  0
 23 24  1  0
 24 25  1  0
 25 26  1  0
 26 27  2  0
 27 28  1  0
 28 29  2  0
 29 30  1  0
 29 31  1  0
 31 32  2  0
 19 10  1  0
 24 20  1  0
 32 26  1  0
 18 13  1  0
  1 33  1  0
  1 34  1  0
  1 35  1  0
  2 36  1  1
  3 37  1  0
  6 38  1  0
  6 39  1  0
  7 40  1  0
 11 41  1  0
 12 42  1  0
 14 43  1  0
 15 44  1  0
 16 45  1  0
 17 46  1  0
 20 47  1  1
 21 48  1  0
 21 49  1  0
 22 50  1  0
 22 51  1  0
 23 52  1  0
 23 53  1  0
 25 54  1  0
 25 55  1  0
 27 56  1  0
 28 57  1  0
 31 58  1  0
 32 59  1  0
M  END
>  <smiles>  (36) 
C[C@H](NC(=O)CNC(=O)c1ccc2ccccc2n1)[C@H]1CCCN1Cc1ccc(Cl)cc1

>  <score_type>  (36) 
oracle

>  <origin>  (36) 
autodockgpu

>  <m_score__min__energy>  (36) 
-9.4600000000000009

>  <m_primary>  (36) 
energy

>  <rmsd>  (36) 
2.629264957642142

>  <m_score__min__rmsd>  (36) 
2.629264957642142

>  <meeko>  (36) 
{"free_energy": -9.46, "intermolecular_energy": -11.55, "internal_energy": -2.16, "cluster_size": 19, "cluster_id": 1, "rank_in_cluster": 1}

>  <energy>  (36) 
-7.57

>  <cluster_rmsd>  (36) 
1.57

>  <cluster>  (36) 
7

$$$$

     RDKit          3D

 59 62  0  0  0  0  0  0  0  0999 V2000
  137.8740   77.1330  221.5340 C   0  0  0  0  0  0  0  0  0  0  0  0
  137.9360   76.2560  222.7910 C   0  0  2  0  0  0  0  0  0  0  0  0
  138.3290   74.9390  222.3310 N   0  0  0  0  0  0  0  0  0  0  0  0
  139.5760   74.8090  221.6640 C   0  0  0  0  0  0  0  0  0  0  0  0
  140.3460   75.7850  221.4590 O   0  0  0  0  0  0  0  0  0  0  0  0
  140.0000   73.4670  221.1810 C   0  0  0  0  0  0  0  0  0  0  0  0
  140.1860   72.6350  222.3610 N   0  0  0  0  0  0  0  0  0  0  0  0
  139.0800   71.9100  222.8710 C   0  0  0  0  0  0  0  0  0  0  0  0
  137.9820   72.0170  222.2810 O   0  0  0  0  0  0  0  0  0  0  0  0
  139.2320   71.0660  224.0520 C   0  0  0  0  0  0  0  0  0  0  0  0
  138.5580   69.8650  224.1280 C   0  0  0  0  0  0  0  0  0  0  0  0
  138.6480   69.0120  225.2080 C   0  0  0  0  0  0  0  0  0  0  0  0
  139.4640   69.3970  226.2660 C   0  0  0  0  0  0  0  0  0  0  0  0
  139.6060   68.5970  227.3810 C   0  0  0  0  0  0  0  0  0  0  0  0
  140.4190   68.9720  228.4440 C   0  0  0  0  0  0  0  0  0  0  0  0
  141.0850   70.1810  228.3440 C   0  0  0  0  0  0  0  0  0  0  0  0
  140.9470   70.9910  227.2230 C   0  0  0  0  0  0  0  0  0  0  0  0
  140.1360   70.6030  226.1790 C   0  0  0  0  0  0  0  0  0  0  0  0
  140.0170   71.4130  225.0940 N   0  0  0  0  0  0  0  0  0  0  0  0
  136.5680   76.2770  223.4390 C   0  0  1  0  0  0  0  0  0  0  0  0
  135.5930   77.0930  222.6030 C   0  0  0  0  0  0  0  0  0  0  0  0
  134.7400   76.1120  221.8550 C   0  0  0  0  0  0  0  0  0  0  0  0
  135.2130   74.7570  222.3350 C   0  0  0  0  0  0  0  0  0  0  0  0
  135.9840   74.9780  223.5170 N   0  0  0  0  0  0  0  0  0  0  0  0
  135.3510   74.6430  224.7500 C   0  0  0  0  0  0  0  0  0  0  0  0
  135.0640   73.2240  224.9630 C   0  0  0  0  0  0  0  0  0  0  0  0
  135.6870   72.2130  224.2370 C   0  0  0  0  0  0  0  0  0  0  0  0
  135.4130   70.8770  224.4420 C   0  0  0  0  0  0  0  0  0  0  0  0
  134.4980   70.4800  225.3870 C   0  0  0  0  0  0  0  0  0  0  0  0
  134.0990   68.8050  225.7010 Cl  0  0  0  0  0  0  0  0  0  0  0  0
  133.8660   71.4560  226.1200 C   0  0  0  0  0  0  0  0  0  0  0  0
  134.1450   72.7980  225.9100 C   0  0  0  0  0  0  0  0  0  0  0  0
  137.7992   78.1904  221.8279 H   0  0  0  0  0  0  0  0  0  0  0  0
  138.7850   76.9821  220.9363 H   0  0  0  0  0  0  0  0  0  0  0  0
  136.9932   76.8554  220.9363 H   0  0  0  0  0  0  0  0  0  0  0  0
  138.6551   76.6013  223.5484 H   0  0  0  0  0  0  0  0  0  0  0  0
  137.6760   74.1450  222.5110 H   0  0  0  0  0  0  0  0  0  0  0  0
  139.2238   73.0355  220.5319 H   0  0  0  0  0  0  0  0  0  0  0  0
  140.9283   73.5336  220.5946 H   0  0  0  0  0  0  0  0  0  0  0  0
  141.0960   72.5400  222.8590 H   0  0  0  0  0  0  0  0  0  0  0  0
  137.9159   69.5726  223.2841 H   0  0  0  0  0  0  0  0  0  0  0  0
  138.0944   68.0617  225.2315 H   0  0  0  0  0  0  0  0  0  0  0  0
  139.0637   67.6412  227.4297 H   0  0  0  0  0  0  0  0  0  0  0  0
  140.5290   68.3317  229.3317 H   0  0  0  0  0  0  0  0  0  0  0  0
  141.7365   70.5074  229.1680 H   0  0  0  0  0  0  0  0  0  0  0  0
  141.4883   71.9471  227.1691 H   0  0  0  0  0  0  0  0  0  0  0  0
  136.7273   76.6992  224.4422 H   0  0  0  0  0  0  0  0  0  0  0  0
  134.9669   77.7197  223.2551 H   0  0  0  0  0  0  0  0  0  0  0  0
  136.1276   77.7604  221.9110 H   0  0  0  0  0  0  0  0  0  0  0  0
  133.6765   76.2598  222.0939 H   0  0  0  0  0  0  0  0  0  0  0  0
  134.8303   76.2248  220.7645 H   0  0  0  0  0  0  0  0  0  0  0  0
  134.3497   74.1142  222.5619 H   0  0  0  0  0  0  0  0  0  0  0  0
  135.8141   74.2550  221.5626 H   0  0  0  0  0  0  0  0  0  0  0  0
  136.0070   74.9792  225.5665 H   0  0  0  0  0  0  0  0  0  0  0  0
  134.3707   75.1413  224.7232 H   0  0  0  0  0  0  0  0  0  0  0  0
  136.4259   72.4901  223.4707 H   0  0  0  0  0  0  0  0  0  0  0  0
  135.9346   70.1182  223.8402 H   0  0  0  0  0  0  0  0  0  0  0  0
  133.1286   71.1685  226.8839 H   0  0  0  0  0  0  0  0  0  0  0  0
  133.6191   73.5507  226.5157 H   0  0  0  0  0  0  0  0  0  0  0  0
  1  2  1  0
  2  3  1  0
  3  4  1  0
  4  5  2  0
  4  6  1  0
  6  7  1  0
  7  8  1  0
  8  9  2  0
  8 10  1  0
 10 11  2  0
 11 12  1  0
 12 13  2  0
 13 14  1  0
 14 15  2  0
 15 16  1  0
 16 17  2  0
 17 18  1  0
 18 19  2  0
  2 20  1  0
 20 21  1  0
 21 22  1  0
 22 23  1  0
 23 24  1  0
 24 25  1  0
 25 26  1  0
 26 27  2  0
 27 28  1  0
 28 29  2  0
 29 30  1  0
 29 31  1  0
 31 32  2  0
 19 10  1  0
 24 20  1  0
 32 26  1  0
 18 13  1  0
  1 33  1  0
  1 34  1  0
  1 35  1  0
  2 36  1  1
  3 37  1  0
  6 38  1  0
  6 39  1  0
  7 40  1  0
 11 41  1  0
 12 42  1  0
 14 43  1  0
 15 44  1  0
 16 45  1  0
 17 46  1  0
 20 47  1  1
 21 48  1  0
 21 49  1  0
 22 50  1  0
 22 51  1  0
 23 52  1  0
 23 53  1  0
 25 54  1  0
 25 55  1  0
 27 56  1  0
 28 57  1  0
 31 58  1  0
 32 59  1  0
M  END
>  <smiles>  (37) 
C[C@H](NC(=O)CNC(=O)c1ccc2ccccc2n1)[C@H]1CCCN1Cc1ccc(Cl)cc1

>  <score_type>  (37) 
oracle

>  <origin>  (37) 
autodockgpu

>  <m_score__min__energy>  (37) 
-9.4600000000000009

>  <m_primary>  (37) 
energy

>  <rmsd>  (37) 
6.411024110975141

>  <m_score__min__rmsd>  (37) 
6.411024110975141

>  <meeko>  (37) 
{"free_energy": -7.03, "intermolecular_energy": -9.12, "internal_energy": -3.96, "cluster_size": 2, "cluster_id": 9, "rank_in_cluster": 2}

>  <energy>  (37) 
-7.18

>  <cluster_rmsd>  (37) 
1.76

>  <cluster>  (37) 
7

$$$$

     RDKit          3D

 59 62  0  0  0  0  0  0  0  0999 V2000
  141.1250   78.1680  219.1830 C   0  0  0  0  0  0  0  0  0  0  0  0
  141.0220   77.5190  220.5690 C   0  0  2  0  0  0  0  0  0  0  0  0
  140.1110   76.4020  220.4110 N   0  0  0  0  0  0  0  0  0  0  0  0
  140.2260   75.3130  221.3160 C   0  0  0  0  0  0  0  0  0  0  0  0
  141.0800   75.2810  222.2410 O   0  0  0  0  0  0  0  0  0  0  0  0
  139.3020   74.1550  221.1730 C   0  0  0  0  0  0  0  0  0  0  0  0
  139.4390   73.3560  222.3820 N   0  0  0  0  0  0  0  0  0  0  0  0
  139.3380   71.9450  222.2880 C   0  0  0  0  0  0  0  0  0  0  0  0
  139.1350   71.4430  221.1600 O   0  0  0  0  0  0  0  0  0  0  0  0
  139.4710   71.1150  223.4800 C   0  0  0  0  0  0  0  0  0  0  0  0
  139.0330   69.8060  223.4570 C   0  0  0  0  0  0  0  0  0  0  0  0
  139.1210   68.9590  224.5410 C   0  0  0  0  0  0  0  0  0  0  0  0
  139.6840   69.4620  225.7090 C   0  0  0  0  0  0  0  0  0  0  0  0
  139.8080   68.6750  226.8340 C   0  0  0  0  0  0  0  0  0  0  0  0
  140.3680   69.1690  228.0060 C   0  0  0  0  0  0  0  0  0  0  0  0
  140.8000   70.4840  228.0050 C   0  0  0  0  0  0  0  0  0  0  0  0
  140.6790   71.2820  226.8740 C   0  0  0  0  0  0  0  0  0  0  0  0
  140.1200   70.7750  225.7200 C   0  0  0  0  0  0  0  0  0  0  0  0
  140.0120   71.5760  224.6270 N   0  0  0  0  0  0  0  0  0  0  0  0
  140.5140   78.5680  221.5360 C   0  0  1  0  0  0  0  0  0  0  0  0
  140.6210   78.0690  222.9700 C   0  0  0  0  0  0  0  0  0  0  0  0
  141.8250   78.7310  223.5690 C   0  0  0  0  0  0  0  0  0  0  0  0
  142.3400   79.6410  222.4750 C   0  0  0  0  0  0  0  0  0  0  0  0
  141.2980   79.7590  221.5050 N   0  0  0  0  0  0  0  0  0  0  0  0
  140.5770   80.9890  221.5080 C   0  0  0  0  0  0  0  0  0  0  0  0
  139.4040   81.0480  222.3810 C   0  0  0  0  0  0  0  0  0  0  0  0
  139.4900   80.9260  223.7650 C   0  0  0  0  0  0  0  0  0  0  0  0
  138.3810   80.9820  224.5840 C   0  0  0  0  0  0  0  0  0  0  0  0
  137.1240   81.1640  224.0600 C   0  0  0  0  0  0  0  0  0  0  0  0
  135.6740   81.2440  225.0360 Cl  0  0  0  0  0  0  0  0  0  0  0  0
  137.0070   81.2870  222.6960 C   0  0  0  0  0  0  0  0  0  0  0  0
  138.1260   81.2300  221.8770 C   0  0  0  0  0  0  0  0  0  0  0  0
  141.2965   79.2487  219.2960 H   0  0  0  0  0  0  0  0  0  0  0  0
  141.9632   77.7196  218.6295 H   0  0  0  0  0  0  0  0  0  0  0  0
  140.1891   78.0012  218.6295 H   0  0  0  0  0  0  0  0  0  0  0  0
  141.9785   77.1504  220.9681 H   0  0  0  0  0  0  0  0  0  0  0  0
  139.4110   76.4490  219.6380 H   0  0  0  0  0  0  0  0  0  0  0  0
  138.2656   74.5082  221.0679 H   0  0  0  0  0  0  0  0  0  0  0  0
  139.5465   73.5629  220.2788 H   0  0  0  0  0  0  0  0  0  0  0  0
  139.6080   73.7660  223.3250 H   0  0  0  0  0  0  0  0  0  0  0  0
  138.5915   69.4193  222.5267 H   0  0  0  0  0  0  0  0  0  0  0  0
  138.7587   67.9219  224.4842 H   0  0  0  0  0  0  0  0  0  0  0  0
  139.4560   67.6333  226.8033 H   0  0  0  0  0  0  0  0  0  0  0  0
  140.4644   68.5380  228.9018 H   0  0  0  0  0  0  0  0  0  0  0  0
  141.2477   70.9054  228.9171 H   0  0  0  0  0  0  0  0  0  0  0  0
  141.0311   72.3238  226.8994 H   0  0  0  0  0  0  0  0  0  0  0  0
  139.4768   78.7693  221.2300 H   0  0  0  0  0  0  0  0  0  0  0  0
  139.7177   78.3429  223.5349 H   0  0  0  0  0  0  0  0  0  0  0  0
  140.7159   76.9735  223.0012 H   0  0  0  0  0  0  0  0  0  0  0  0
  141.5460   79.3130  224.4597 H   0  0  0  0  0  0  0  0  0  0  0  0
  142.5815   78.0039  223.8992 H   0  0  0  0  0  0  0  0  0  0  0  0
  142.5837   80.6302  222.8899 H   0  0  0  0  0  0  0  0  0  0  0  0
  143.2542   79.2309  222.0212 H   0  0  0  0  0  0  0  0  0  0  0  0
  141.2698   81.7834  221.8226 H   0  0  0  0  0  0  0  0  0  0  0  0
  140.1890   81.1054  220.4853 H   0  0  0  0  0  0  0  0  0  0  0  0
  140.4793   80.7794  224.2230 H   0  0  0  0  0  0  0  0  0  0  0  0
  138.5050   80.8795  225.6722 H   0  0  0  0  0  0  0  0  0  0  0  0
  136.0132   81.4326  222.2475 H   0  0  0  0  0  0  0  0  0  0  0  0
  137.9939   81.3329  220.7898 H   0  0  0  0  0  0  0  0  0  0  0  0
  1  2  1  0
  2  3  1  0
  3  4  1  0
  4  5  2  0
  4  6  1  0
  6  7  1  0
  7  8  1  0
  8  9  2  0
  8 10  1  0
 10 11  2  0
 11 12  1  0
 12 13  2  0
 13 14  1  0
 14 15  2  0
 15 16  1  0
 16 17  2  0
 17 18  1  0
 18 19  2  0
  2 20  1  0
 20 21  1  0
 21 22  1  0
 22 23  1  0
 23 24  1  0
 24 25  1  0
 25 26  1  0
 26 27  2  0
 27 28  1  0
 28 29  2  0
 29 30  1  0
 29 31  1  0
 31 32  2  0
 19 10  1  0
 24 20  1  0
 32 26  1  0
 18 13  1  0
  1 33  1  0
  1 34  1  0
  1 35  1  0
  2 36  1  1
  3 37  1  0
  6 38  1  0
  6 39  1  0
  7 40  1  0
 11 41  1  0
 12 42  1  0
 14 43  1  0
 15 44  1  0
 16 45  1  0
 17 46  1  0
 20 47  1  6
 21 48  1  0
 21 49  1  0
 22 50  1  0
 22 51  1  0
 23 52  1  0
 23 53  1  0
 25 54  1  0
 25 55  1  0
 27 56  1  0
 28 57  1  0
 31 58  1  0
 32 59  1  0
M  END
>  <smiles>  (38) 
C[C@H](NC(=O)CNC(=O)c1ccc2ccccc2n1)[C@H]1CCCN1Cc1ccc(Cl)cc1

>  <score_type>  (38) 
oracle

>  <origin>  (38) 
autodockgpu

>  <m_score__min__energy>  (38) 
-9.4600000000000009

>  <m_primary>  (38) 
energy

>  <rmsd>  (38) 
1.991349931414677

>  <m_score__min__rmsd>  (38) 
1.991349931414677

>  <meeko>  (38) 
{"free_energy": -8.57, "intermolecular_energy": -10.66, "internal_energy": -2.14, "cluster_size": 2, "cluster_id": 4, "rank_in_cluster": 2}

>  <energy>  (38) 
-7.3

>  <cluster_rmsd>  (38) 
0.0

>  <cluster>  (38) 
8

$$$$

     RDKit          3D

 59 62  0  0  0  0  0  0  0  0999 V2000
  143.5640   75.1080  218.4210 C   0  0  0  0  0  0  0  0  0  0  0  0
  142.6930   75.4060  219.6490 C   0  0  2  0  0  0  0  0  0  0  0  0
  141.6800   74.3680  219.6710 N   0  0  0  0  0  0  0  0  0  0  0  0
  141.0370   74.0880  220.9060 C   0  0  0  0  0  0  0  0  0  0  0  0
  141.3110   74.7010  221.9720 O   0  0  0  0  0  0  0  0  0  0  0  0
  139.9950   73.0280  220.9530 C   0  0  0  0  0  0  0  0  0  0  0  0
  140.0690   72.4230  222.2750 N   0  0  0  0  0  0  0  0  0  0  0  0
  139.6310   71.0860  222.4450 C   0  0  0  0  0  0  0  0  0  0  0  0
  139.1980   70.4760  221.4420 O   0  0  0  0  0  0  0  0  0  0  0  0
  139.6920   70.4500  223.7570 C   0  0  0  0  0  0  0  0  0  0  0  0
  139.1500   69.1940  223.9370 C   0  0  0  0  0  0  0  0  0  0  0  0
  139.1670   68.5280  225.1430 C   0  0  0  0  0  0  0  0  0  0  0  0
  139.7630   69.1660  226.2250 C   0  0  0  0  0  0  0  0  0  0  0  0
  139.8200   68.5640  227.4640 C   0  0  0  0  0  0  0  0  0  0  0  0
  140.4130   69.1940  228.5510 C   0  0  0  0  0  0  0  0  0  0  0  0
  140.9490   70.4530  228.3460 C   0  0  0  0  0  0  0  0  0  0  0  0
  140.8970   71.0650  227.1000 C   0  0  0  0  0  0  0  0  0  0  0  0
  140.3040   70.4250  226.0330 C   0  0  0  0  0  0  0  0  0  0  0  0
  140.2640   71.0460  224.8240 N   0  0  0  0  0  0  0  0  0  0  0  0
  142.1170   76.7960  219.4830 C   0  0  1  0  0  0  0  0  0  0  0  0
  142.6940   77.4690  218.2450 C   0  0  0  0  0  0  0  0  0  0  0  0
  141.6440   77.3830  217.1780 C   0  0  0  0  0  0  0  0  0  0  0  0
  140.4680   76.7150  217.8580 C   0  0  0  0  0  0  0  0  0  0  0  0
  140.7080   76.7770  219.2640 N   0  0  0  0  0  0  0  0  0  0  0  0
  139.9440   77.7410  219.9870 C   0  0  0  0  0  0  0  0  0  0  0  0
  140.6600   78.4850  221.0240 C   0  0  0  0  0  0  0  0  0  0  0  0
  140.8440   77.9910  222.3130 C   0  0  0  0  0  0  0  0  0  0  0  0
  141.5190   78.6970  223.2870 C   0  0  0  0  0  0  0  0  0  0  0  0
  142.0480   79.9370  223.0230 C   0  0  0  0  0  0  0  0  0  0  0  0
  142.9160   80.8880  224.2080 Cl  0  0  0  0  0  0  0  0  0  0  0  0
  141.8830   80.4510  221.7590 C   0  0  0  0  0  0  0  0  0  0  0  0
  141.2020   79.7370  220.7830 C   0  0  0  0  0  0  0  0  0  0  0  0
  144.5572   74.7682  218.7497 H   0  0  0  0  0  0  0  0  0  0  0  0
  143.0888   74.3213  217.8166 H   0  0  0  0  0  0  0  0  0  0  0  0
  143.6703   76.0209  217.8166 H   0  0  0  0  0  0  0  0  0  0  0  0
  143.2388   75.3969  220.6040 H   0  0  0  0  0  0  0  0  0  0  0  0
  141.4700   73.8740  218.7760 H   0  0  0  0  0  0  0  0  0  0  0  0
  138.9997   73.4682  220.7933 H   0  0  0  0  0  0  0  0  0  0  0  0
  140.1600   72.2775  220.1659 H   0  0  0  0  0  0  0  0  0  0  0  0
  140.4290   72.9230  223.1160 H   0  0  0  0  0  0  0  0  0  0  0  0
  138.6805   68.6993  223.0739 H   0  0  0  0  0  0  0  0  0  0  0  0
  138.7244   67.5263  225.2462 H   0  0  0  0  0  0  0  0  0  0  0  0
  139.3860   67.5618  227.5949 H   0  0  0  0  0  0  0  0  0  0  0  0
  140.4548   68.7099  229.5379 H   0  0  0  0  0  0  0  0  0  0  0  0
  141.4256   70.9796  229.1860 H   0  0  0  0  0  0  0  0  0  0  0  0
  141.3317   72.0663  226.9641 H   0  0  0  0  0  0  0  0  0  0  0  0
  142.3652   77.3276  220.4135 H   0  0  0  0  0  0  0  0  0  0  0  0
  142.9296   78.5216  218.4609 H   0  0  0  0  0  0  0  0  0  0  0  0
  143.6243   76.9770  217.9248 H   0  0  0  0  0  0  0  0  0  0  0  0
  141.3686   78.3865  216.8215 H   0  0  0  0  0  0  0  0  0  0  0  0
  141.9891   76.8253  216.2949 H   0  0  0  0  0  0  0  0  0  0  0  0
  139.5370   77.2457  217.6100 H   0  0  0  0  0  0  0  0  0  0  0  0
  140.3618   75.6724  217.5237 H   0  0  0  0  0  0  0  0  0  0  0  0
  139.5500   78.4691  219.2627 H   0  0  0  0  0  0  0  0  0  0  0  0
  139.1700   77.1666  220.5172 H   0  0  0  0  0  0  0  0  0  0  0  0
  140.4358   77.0008  222.5638 H   0  0  0  0  0  0  0  0  0  0  0  0
  141.6354   78.2606  224.2900 H   0  0  0  0  0  0  0  0  0  0  0  0
  142.2962   81.4415  221.5178 H   0  0  0  0  0  0  0  0  0  0  0  0
  141.0886   80.1808  219.7829 H   0  0  0  0  0  0  0  0  0  0  0  0
  1  2  1  0
  2  3  1  0
  3  4  1  0
  4  5  2  0
  4  6  1  0
  6  7  1  0
  7  8  1  0
  8  9  2  0
  8 10  1  0
 10 11  2  0
 11 12  1  0
 12 13  2  0
 13 14  1  0
 14 15  2  0
 15 16  1  0
 16 17  2  0
 17 18  1  0
 18 19  2  0
  2 20  1  0
 20 21  1  0
 21 22  1  0
 22 23  1  0
 23 24  1  0
 24 25  1  0
 25 26  1  0
 26 27  2  0
 27 28  1  0
 28 29  2  0
 29 30  1  0
 29 31  1  0
 31 32  2  0
 19 10  1  0
 24 20  1  0
 32 26  1  0
 18 13  1  0
  1 33  1  0
  1 34  1  0
  1 35  1  0
  2 36  1  1
  3 37  1  0
  6 38  1  0
  6 39  1  0
  7 40  1  0
 11 41  1  0
 12 42  1  0
 14 43  1  0
 15 44  1  0
 16 45  1  0
 17 46  1  0
 20 47  1  1
 21 48  1  0
 21 49  1  0
 22 50  1  0
 22 51  1  0
 23 52  1  0
 23 53  1  0
 25 54  1  0
 25 55  1  0
 27 56  1  0
 28 57  1  0
 31 58  1  0
 32 59  1  0
M  END
>  <smiles>  (39) 
C[C@H](NC(=O)CNC(=O)c1ccc2ccccc2n1)[C@H]1CCCN1Cc1ccc(Cl)cc1

>  <score_type>  (39) 
oracle

>  <origin>  (39) 
autodockgpu

>  <m_score__min__energy>  (39) 
-9.4600000000000009

>  <m_primary>  (39) 
energy

>  <rmsd>  (39) 
2.493299520489784

>  <m_score__min__rmsd>  (39) 
2.493299520489784

>  <meeko>  (39) 
{"free_energy": -8.44, "intermolecular_energy": -10.53, "internal_energy": -2.68, "cluster_size": 19, "cluster_id": 1, "rank_in_cluster": 11}

>  <energy>  (39) 
-7.28

>  <cluster_rmsd>  (39) 
0.15

>  <cluster>  (39) 
8

$$$$

     RDKit          3D

 59 62  0  0  0  0  0  0  0  0999 V2000
  137.8610   78.0410  219.8070 C   0  0  0  0  0  0  0  0  0  0  0  0
  138.7230   77.4040  220.9050 C   0  0  2  0  0  0  0  0  0  0  0  0
  138.8150   75.9980  220.5640 N   0  0  0  0  0  0  0  0  0  0  0  0
  139.2730   75.0970  221.5610 C   0  0  0  0  0  0  0  0  0  0  0  0
  139.5990   75.4700  222.7200 O   0  0  0  0  0  0  0  0  0  0  0  0
  139.3770   73.6490  221.2340 C   0  0  0  0  0  0  0  0  0  0  0  0
  139.5600   72.9450  222.4950 N   0  0  0  0  0  0  0  0  0  0  0  0
  139.3960   71.5370  222.5260 C   0  0  0  0  0  0  0  0  0  0  0  0
  139.0990   70.9550  221.4590 O   0  0  0  0  0  0  0  0  0  0  0  0
  139.5730   70.8000  223.7730 C   0  0  0  0  0  0  0  0  0  0  0  0
  139.1690   69.4840  223.8550 C   0  0  0  0  0  0  0  0  0  0  0  0
  139.3010   68.7210  224.9960 C   0  0  0  0  0  0  0  0  0  0  0  0
  139.8720   69.3230  226.1120 C   0  0  0  0  0  0  0  0  0  0  0  0
  140.0380   68.6250  227.2890 C   0  0  0  0  0  0  0  0  0  0  0  0
  140.6070   69.2170  228.4100 C   0  0  0  0  0  0  0  0  0  0  0  0
  141.0040   70.5390  228.3030 C   0  0  0  0  0  0  0  0  0  0  0  0
  140.8400   71.2480  227.1190 C   0  0  0  0  0  0  0  0  0  0  0  0
  140.2730   70.6440  226.0180 C   0  0  0  0  0  0  0  0  0  0  0  0
  140.1230   71.3590  224.8710 N   0  0  0  0  0  0  0  0  0  0  0  0
  138.0380   77.6500  222.2330 C   0  0  1  0  0  0  0  0  0  0  0  0
  138.8660   78.5930  223.0940 C   0  0  0  0  0  0  0  0  0  0  0  0
  138.2140   79.9410  223.0080 C   0  0  0  0  0  0  0  0  0  0  0  0
  136.9910   79.7150  222.1450 C   0  0  0  0  0  0  0  0  0  0  0  0
  136.7790   78.3040  222.0820 N   0  0  0  0  0  0  0  0  0  0  0  0
  135.7050   77.7960  222.8720 C   0  0  0  0  0  0  0  0  0  0  0  0
  135.7170   76.3550  223.1270 C   0  0  0  0  0  0  0  0  0  0  0  0
  135.5000   75.8140  224.3910 C   0  0  0  0  0  0  0  0  0  0  0  0
  135.5130   74.4550  224.6270 C   0  0  0  0  0  0  0  0  0  0  0  0
  135.7430   73.5630  223.6080 C   0  0  0  0  0  0  0  0  0  0  0  0
  135.7730   71.8280  223.8320 Cl  0  0  0  0  0  0  0  0  0  0  0  0
  135.9600   74.0680  222.3480 C   0  0  0  0  0  0  0  0  0  0  0  0
  135.9470   75.4350  222.1160 C   0  0  0  0  0  0  0  0  0  0  0  0
  137.0582   78.6343  220.2691 H   0  0  0  0  0  0  0  0  0  0  0  0
  138.4872   78.6950  219.1824 H   0  0  0  0  0  0  0  0  0  0  0  0
  137.4196   77.2504  219.1824 H   0  0  0  0  0  0  0  0  0  0  0  0
  139.7372   77.8225  220.9838 H   0  0  0  0  0  0  0  0  0  0  0  0
  138.5400   75.7120  219.5990 H   0  0  0  0  0  0  0  0  0  0  0  0
  138.4568   73.3056  220.7387 H   0  0  0  0  0  0  0  0  0  0  0  0
  140.2171   73.4582  220.5500 H   0  0  0  0  0  0  0  0  0  0  0  0
  139.8080   73.4210  223.3880 H   0  0  0  0  0  0  0  0  0  0  0  0
  138.7188   69.0195  222.9653 H   0  0  0  0  0  0  0  0  0  0  0  0
  138.9665   67.6734  225.0225 H   0  0  0  0  0  0  0  0  0  0  0  0
  139.7127   67.5756  227.3421 H   0  0  0  0  0  0  0  0  0  0  0  0
  140.7371   68.6563  229.3474 H   0  0  0  0  0  0  0  0  0  0  0  0
  141.4580   71.0378  229.1719 H   0  0  0  0  0  0  0  0  0  0  0  0
  141.1647   72.2974  227.0605 H   0  0  0  0  0  0  0  0  0  0  0  0
  137.9142   76.6553  222.6861 H   0  0  0  0  0  0  0  0  0  0  0  0
  138.8767   78.2431  224.1368 H   0  0  0  0  0  0  0  0  0  0  0  0
  139.9082   78.6349  222.7445 H   0  0  0  0  0  0  0  0  0  0  0  0
  137.9243   80.2975  224.0075 H   0  0  0  0  0  0  0  0  0  0  0  0
  138.8859   80.7052  222.5901 H   0  0  0  0  0  0  0  0  0  0  0  0
  136.1161   80.2088  222.5930 H   0  0  0  0  0  0  0  0  0  0  0  0
  137.1375   80.1351  221.1390 H   0  0  0  0  0  0  0  0  0  0  0  0
  135.7315   78.3093  223.8445 H   0  0  0  0  0  0  0  0  0  0  0  0
  134.7933   77.9841  222.2859 H   0  0  0  0  0  0  0  0  0  0  0  0
  135.3111   76.4958  225.2333 H   0  0  0  0  0  0  0  0  0  0  0  0
  135.3366   74.0801  225.6460 H   0  0  0  0  0  0  0  0  0  0  0  0
  136.1466   73.3779  221.5120 H   0  0  0  0  0  0  0  0  0  0  0  0
  136.1254   75.8020  221.0945 H   0  0  0  0  0  0  0  0  0  0  0  0
  1  2  1  0
  2  3  1  0
  3  4  1  0
  4  5  2  0
  4  6  1  0
  6  7  1  0
  7  8  1  0
  8  9  2  0
  8 10  1  0
 10 11  2  0
 11 12  1  0
 12 13  2  0
 13 14  1  0
 14 15  2  0
 15 16  1  0
 16 17  2  0
 17 18  1  0
 18 19  2  0
  2 20  1  0
 20 21  1  0
 21 22  1  0
 22 23  1  0
 23 24  1  0
 24 25  1  0
 25 26  1  0
 26 27  2  0
 27 28  1  0
 28 29  2  0
 29 30  1  0
 29 31  1  0
 31 32  2  0
 19 10  1  0
 24 20  1  0
 32 26  1  0
 18 13  1  0
  1 33  1  0
  1 34  1  0
  1 35  1  0
  2 36  1  1
  3 37  1  0
  6 38  1  0
  6 39  1  0
  7 40  1  0
 11 41  1  0
 12 42  1  0
 14 43  1  0
 15 44  1  0
 16 45  1  0
 17 46  1  0
 20 47  1  1
 21 48  1  0
 21 49  1  0
 22 50  1  0
 22 51  1  0
 23 52  1  0
 23 53  1  0
 25 54  1  0
 25 55  1  0
 27 56  1  0
 28 57  1  0
 31 58  1  0
 32 59  1  0
M  END
>  <smiles>  (40) 
C[C@H](NC(=O)CNC(=O)c1ccc2ccccc2n1)[C@H]1CCCN1Cc1ccc(Cl)cc1

>  <score_type>  (40) 
oracle

>  <origin>  (40) 
autodockgpu

>  <m_score__min__energy>  (40) 
-9.4600000000000009

>  <m_primary>  (40) 
energy

>  <rmsd>  (40) 
4.442488088056296

>  <m_score__min__rmsd>  (40) 
4.442488088056296

>  <meeko>  (40) 
{"free_energy": -7.05, "intermolecular_energy": -9.14, "internal_energy": -3.18, "cluster_size": 1, "cluster_id": 12, "rank_in_cluster": 1}

>  <energy>  (40) 
-7.27

>  <cluster_rmsd>  (40) 
0.0

>  <cluster>  (40) 
9

$$$$

     RDKit          3D

 59 62  0  0  0  0  0  0  0  0999 V2000
  144.1990   73.6360  220.5510 C   0  0  0  0  0  0  0  0  0  0  0  0
  143.1580   74.7590  220.4570 C   0  0  2  0  0  0  0  0  0  0  0  0
  141.8690   74.0960  220.4330 N   0  0  0  0  0  0  0  0  0  0  0  0
  140.7830   74.7210  221.1030 C   0  0  0  0  0  0  0  0  0  0  0  0
  140.8970   75.8180  221.7110 O   0  0  0  0  0  0  0  0  0  0  0  0
  139.4510   74.0590  221.0920 C   0  0  0  0  0  0  0  0  0  0  0  0
  139.3600   73.2740  222.3150 N   0  0  0  0  0  0  0  0  0  0  0  0
  140.2300   72.1680  222.4880 C   0  0  0  0  0  0  0  0  0  0  0  0
  141.0450   71.9120  221.5740 O   0  0  0  0  0  0  0  0  0  0  0  0
  140.1650   71.3610  223.7020 C   0  0  0  0  0  0  0  0  0  0  0  0
  139.5840   70.1100  223.6640 C   0  0  0  0  0  0  0  0  0  0  0  0
  139.4830   69.2890  224.7660 C   0  0  0  0  0  0  0  0  0  0  0  0
  139.9980   69.7580  225.9700 C   0  0  0  0  0  0  0  0  0  0  0  0
  139.9350   68.9940  227.1160 C   0  0  0  0  0  0  0  0  0  0  0  0
  140.4450   69.4540  228.3230 C   0  0  0  0  0  0  0  0  0  0  0  0
  141.0230   70.7120  228.3370 C   0  0  0  0  0  0  0  0  0  0  0  0
  141.0900   71.4860  227.1850 C   0  0  0  0  0  0  0  0  0  0  0  0
  140.5780   71.0140  225.9960 C   0  0  0  0  0  0  0  0  0  0  0  0
  140.6550   71.7910  224.8830 N   0  0  0  0  0  0  0  0  0  0  0  0
  143.4430   75.5520  219.1990 C   0  0  1  0  0  0  0  0  0  0  0  0
  143.6130   74.6200  218.0080 C   0  0  0  0  0  0  0  0  0  0  0  0
  142.3330   74.6790  217.2280 C   0  0  0  0  0  0  0  0  0  0  0  0
  141.4870   75.6940  217.9650 C   0  0  0  0  0  0  0  0  0  0  0  0
  142.3610   76.4090  218.8400 N   0  0  0  0  0  0  0  0  0  0  0  0
  142.7100   77.7310  218.4340 C   0  0  0  0  0  0  0  0  0  0  0  0
  142.2040   78.8190  219.2710 C   0  0  0  0  0  0  0  0  0  0  0  0
  142.0630   80.1230  218.8050 C   0  0  0  0  0  0  0  0  0  0  0  0
  141.5850   81.1450  219.5990 C   0  0  0  0  0  0  0  0  0  0  0  0
  141.2210   80.9160  220.9040 C   0  0  0  0  0  0  0  0  0  0  0  0
  140.6080   82.1620  221.9680 Cl  0  0  0  0  0  0  0  0  0  0  0  0
  141.3480   79.6370  221.3920 C   0  0  0  0  0  0  0  0  0  0  0  0
  141.8300   78.6130  220.5900 C   0  0  0  0  0  0  0  0  0  0  0  0
  144.4046   73.4142  221.6086 H   0  0  0  0  0  0  0  0  0  0  0  0
  143.8107   72.7337  220.0559 H   0  0  0  0  0  0  0  0  0  0  0  0
  145.1281   73.9549  220.0559 H   0  0  0  0  0  0  0  0  0  0  0  0
  143.1819   75.4696  221.2963 H   0  0  0  0  0  0  0  0  0  0  0  0
  141.7970   73.1880  219.9230 H   0  0  0  0  0  0  0  0  0  0  0  0
  138.6527   74.8153  221.0674 H   0  0  0  0  0  0  0  0  0  0  0  0
  139.3356   73.4201  220.2040 H   0  0  0  0  0  0  0  0  0  0  0  0
  138.6840   73.4800  223.0800 H   0  0  0  0  0  0  0  0  0  0  0  0
  139.1812   69.7500  222.7058 H   0  0  0  0  0  0  0  0  0  0  0  0
  139.0117   68.2976  224.6961 H   0  0  0  0  0  0  0  0  0  0  0  0
  139.4704   67.9979  227.0733 H   0  0  0  0  0  0  0  0  0  0  0  0
  140.3917   68.8411  229.2349 H   0  0  0  0  0  0  0  0  0  0  0  0
  141.4366   71.1059  229.2771 H   0  0  0  0  0  0  0  0  0  0  0  0
  141.5549   72.4822  227.2224 H   0  0  0  0  0  0  0  0  0  0  0  0
  144.3502   76.1334  219.4201 H   0  0  0  0  0  0  0  0  0  0  0  0
  144.4539   74.9539  217.3824 H   0  0  0  0  0  0  0  0  0  0  0  0
  143.8287   73.5928  218.3371 H   0  0  0  0  0  0  0  0  0  0  0  0
  142.5218   75.0068  216.1951 H   0  0  0  0  0  0  0  0  0  0  0  0
  141.8412   73.6977  217.1561 H   0  0  0  0  0  0  0  0  0  0  0  0
  141.0190   76.3864  217.2498 H   0  0  0  0  0  0  0  0  0  0  0  0
  140.6836   75.1992  218.5305 H   0  0  0  0  0  0  0  0  0  0  0  0
  143.8078   77.7995  218.4222 H   0  0  0  0  0  0  0  0  0  0  0  0
  142.2366   77.8715  217.4511 H   0  0  0  0  0  0  0  0  0  0  0  0
  142.3431   80.3470  217.7651 H   0  0  0  0  0  0  0  0  0  0  0  0
  141.4939   82.1584  219.1810 H   0  0  0  0  0  0  0  0  0  0  0  0
  141.0635   79.4228  222.4327 H   0  0  0  0  0  0  0  0  0  0  0  0
  141.9186   77.6024  221.0153 H   0  0  0  0  0  0  0  0  0  0  0  0
  1  2  1  0
  2  3  1  0
  3  4  1  0
  4  5  2  0
  4  6  1  0
  6  7  1  0
  7  8  1  0
  8  9  2  0
  8 10  1  0
 10 11  2  0
 11 12  1  0
 12 13  2  0
 13 14  1  0
 14 15  2  0
 15 16  1  0
 16 17  2  0
 17 18  1  0
 18 19  2  0
  2 20  1  0
 20 21  1  0
 21 22  1  0
 22 23  1  0
 23 24  1  0
 24 25  1  0
 25 26  1  0
 26 27  2  0
 27 28  1  0
 28 29  2  0
 29 30  1  0
 29 31  1  0
 31 32  2  0
 19 10  1  0
 24 20  1  0
 32 26  1  0
 18 13  1  0
  1 33  1  0
  1 34  1  0
  1 35  1  0
  2 36  1  1
  3 37  1  0
  6 38  1  0
  6 39  1  0
  7 40  1  0
 11 41  1  0
 12 42  1  0
 14 43  1  0
 15 44  1  0
 16 45  1  0
 17 46  1  0
 20 47  1  1
 21 48  1  0
 21 49  1  0
 22 50  1  0
 22 51  1  0
 23 52  1  0
 23 53  1  0
 25 54  1  0
 25 55  1  0
 27 56  1  0
 28 57  1  0
 31 58  1  0
 32 59  1  0
M  END
>  <smiles>  (41) 
C[C@H](NC(=O)CNC(=O)c1ccc2ccccc2n1)[C@H]1CCCN1Cc1ccc(Cl)cc1

>  <score_type>  (41) 
oracle

>  <origin>  (41) 
autodockgpu

>  <m_score__min__energy>  (41) 
-9.4600000000000009

>  <m_primary>  (41) 
energy

>  <rmsd>  (41) 
2.964938262983138

>  <m_score__min__rmsd>  (41) 
2.964938262983138

>  <meeko>  (41) 
{"free_energy": -8.5, "intermolecular_energy": -10.58, "internal_energy": -2.44, "cluster_size": 19, "cluster_id": 1, "rank_in_cluster": 10}

>  <energy>  (41) 
-7.03

>  <cluster_rmsd>  (41) 
1.99

>  <cluster>  (41) 
9

$$$$

     RDKit          3D

 59 62  0  0  0  0  0  0  0  0999 V2000
  143.7150   74.2910  218.6540 C   0  0  0  0  0  0  0  0  0  0  0  0
  143.1790   75.4910  219.4460 C   0  0  2  0  0  0  0  0  0  0  0  0
  141.8450   75.1150  219.8700 N   0  0  0  0  0  0  0  0  0  0  0  0
  141.7120   74.0160  220.7600 C   0  0  0  0  0  0  0  0  0  0  0  0
  142.6990   73.3620  221.1900 O   0  0  0  0  0  0  0  0  0  0  0  0
  140.3520   73.6100  221.2090 C   0  0  0  0  0  0  0  0  0  0  0  0
  140.5320   72.7290  222.3530 N   0  0  0  0  0  0  0  0  0  0  0  0
  139.4360   71.9480  222.7980 C   0  0  0  0  0  0  0  0  0  0  0  0
  138.3520   72.0500  222.1820 O   0  0  0  0  0  0  0  0  0  0  0  0
  139.5820   71.0540  223.9420 C   0  0  0  0  0  0  0  0  0  0  0  0
  139.0450   69.7840  223.8930 C   0  0  0  0  0  0  0  0  0  0  0  0
  139.1390   68.8810  224.9300 C   0  0  0  0  0  0  0  0  0  0  0  0
  139.8130   69.2850  226.0780 C   0  0  0  0  0  0  0  0  0  0  0  0
  139.9510   68.4380  227.1570 C   0  0  0  0  0  0  0  0  0  0  0  0
  140.6220   68.8330  228.3080 C   0  0  0  0  0  0  0  0  0  0  0  0
  141.1520   70.1110  228.3330 C   0  0  0  0  0  0  0  0  0  0  0  0
  141.0180   70.9690  227.2480 C   0  0  0  0  0  0  0  0  0  0  0  0
  140.3480   70.5600  226.1150 C   0  0  0  0  0  0  0  0  0  0  0  0
  140.2310   71.4190  225.0670 N   0  0  0  0  0  0  0  0  0  0  0  0
  143.1950   76.6960  218.5300 C   0  0  1  0  0  0  0  0  0  0  0  0
  143.6640   76.3020  217.1370 C   0  0  0  0  0  0  0  0  0  0  0  0
  142.4390   76.2150  216.2770 C   0  0  0  0  0  0  0  0  0  0  0  0
  141.3050   76.6230  217.1930 C   0  0  0  0  0  0  0  0  0  0  0  0
  141.8940   77.2470  218.3350 N   0  0  0  0  0  0  0  0  0  0  0  0
  141.7940   78.6680  218.3930 C   0  0  0  0  0  0  0  0  0  0  0  0
  141.8180   79.2630  219.7290 C   0  0  0  0  0  0  0  0  0  0  0  0
  141.8310   78.4980  220.8930 C   0  0  0  0  0  0  0  0  0  0  0  0
  141.8540   79.0640  222.1500 C   0  0  0  0  0  0  0  0  0  0  0  0
  141.8640   80.4280  222.3120 C   0  0  0  0  0  0  0  0  0  0  0  0
  141.8920   81.2150  223.8750 Cl  0  0  0  0  0  0  0  0  0  0  0  0
  141.8510   81.2100  221.1820 C   0  0  0  0  0  0  0  0  0  0  0  0
  141.8290   80.6360  219.9190 C   0  0  0  0  0  0  0  0  0  0  0  0
  144.0614   73.5155  219.3530 H   0  0  0  0  0  0  0  0  0  0  0  0
  142.9139   73.8823  218.0206 H   0  0  0  0  0  0  0  0  0  0  0  0
  144.5540   74.6149  218.0206 H   0  0  0  0  0  0  0  0  0  0  0  0
  143.7775   75.7530  220.3309 H   0  0  0  0  0  0  0  0  0  0  0  0
  141.0420   75.6700  219.5020 H   0  0  0  0  0  0  0  0  0  0  0  0
  139.7696   74.4962  221.5015 H   0  0  0  0  0  0  0  0  0  0  0  0
  139.8055   73.1011  220.4013 H   0  0  0  0  0  0  0  0  0  0  0  0
  141.4310   72.6380  222.8720 H   0  0  0  0  0  0  0  0  0  0  0  0
  138.5147   69.4765  222.9796 H   0  0  0  0  0  0  0  0  0  0  0  0
  138.6969   67.8767  224.8527 H   0  0  0  0  0  0  0  0  0  0  0  0
  139.5204   67.4271  227.1057 H   0  0  0  0  0  0  0  0  0  0  0  0
  140.7279   68.1548  229.1675 H   0  0  0  0  0  0  0  0  0  0  0  0
  141.6898   70.4544  229.2290 H   0  0  0  0  0  0  0  0  0  0  0  0
  141.4490   71.9800  227.2936 H   0  0  0  0  0  0  0  0  0  0  0  0
  143.8629   77.4226  219.0158 H   0  0  0  0  0  0  0  0  0  0  0  0
  144.3525   77.0624  216.7398 H   0  0  0  0  0  0  0  0  0  0  0  0
  144.2012   75.3423  217.1577 H   0  0  0  0  0  0  0  0  0  0  0  0
  142.5146   76.9023  215.4215 H   0  0  0  0  0  0  0  0  0  0  0  0
  142.2948   75.2099  215.8538 H   0  0  0  0  0  0  0  0  0  0  0  0
  140.6390   77.3306  216.6775 H   0  0  0  0  0  0  0  0  0  0  0  0
  140.7057   75.7493  217.4887 H   0  0  0  0  0  0  0  0  0  0  0  0
  142.6367   79.0873  217.8237 H   0  0  0  0  0  0  0  0  0  0  0  0
  140.8036   78.9105  217.9804 H   0  0  0  0  0  0  0  0  0  0  0  0
  141.8226   77.4015  220.8061 H   0  0  0  0  0  0  0  0  0  0  0  0
  141.8645   78.4133  223.0368 H   0  0  0  0  0  0  0  0  0  0  0  0
  141.8581   82.3056  221.2801 H   0  0  0  0  0  0  0  0  0  0  0  0
  141.8200   81.2937  219.0374 H   0  0  0  0  0  0  0  0  0  0  0  0
  1  2  1  0
  2  3  1  0
  3  4  1  0
  4  5  2  0
  4  6  1  0
  6  7  1  0
  7  8  1  0
  8  9  2  0
  8 10  1  0
 10 11  2  0
 11 12  1  0
 12 13  2  0
 13 14  1  0
 14 15  2  0
 15 16  1  0
 16 17  2  0
 17 18  1  0
 18 19  2  0
  2 20  1  0
 20 21  1  0
 21 22  1  0
 22 23  1  0
 23 24  1  0
 24 25  1  0
 25 26  1  0
 26 27  2  0
 27 28  1  0
 28 29  2  0
 29 30  1  0
 29 31  1  0
 31 32  2  0
 19 10  1  0
 24 20  1  0
 32 26  1  0
 18 13  1  0
  1 33  1  0
  1 34  1  0
  1 35  1  0
  2 36  1  1
  3 37  1  0
  6 38  1  0
  6 39  1  0
  7 40  1  0
 11 41  1  0
 12 42  1  0
 14 43  1  0
 15 44  1  0
 16 45  1  0
 17 46  1  0
 20 47  1  1
 21 48  1  0
 21 49  1  0
 22 50  1  0
 22 51  1  0
 23 52  1  0
 23 53  1  0
 25 54  1  0
 25 55  1  0
 27 56  1  0
 28 57  1  0
 31 58  1  0
 32 59  1  0
M  END
>  <smiles>  (42) 
C[C@H](NC(=O)CNC(=O)c1ccc2ccccc2n1)[C@H]1CCCN1Cc1ccc(Cl)cc1

>  <score_type>  (42) 
oracle

>  <origin>  (42) 
autodockgpu

>  <m_score__min__energy>  (42) 
-9.4600000000000009

>  <m_primary>  (42) 
energy

>  <rmsd>  (42) 
2.7523251125055217

>  <m_score__min__rmsd>  (42) 
2.7523251125055217

>  <meeko>  (42) 
{"free_energy": -8.17, "intermolecular_energy": -10.25, "internal_energy": -2.86, "cluster_size": 19, "cluster_id": 1, "rank_in_cluster": 13}

>  <energy>  (42) 
-7.25

>  <cluster_rmsd>  (42) 
0.0

>  <cluster>  (42) 
10

$$$$

     RDKit          3D

 59 62  0  0  0  0  0  0  0  0999 V2000
  141.5780   77.0910  219.7200 C   0  0  0  0  0  0  0  0  0  0  0  0
  140.9550   76.9260  221.1130 C   0  0  2  0  0  0  0  0  0  0  0  0
  139.8740   75.9740  220.9470 N   0  0  0  0  0  0  0  0  0  0  0  0
  140.0760   74.6470  221.4100 C   0  0  0  0  0  0  0  0  0  0  0  0
  141.1480   74.2700  221.9540 O   0  0  0  0  0  0  0  0  0  0  0  0
  138.9810   73.6520  221.2510 C   0  0  0  0  0  0  0  0  0  0  0  0
  138.9780   72.8320  222.4540 N   0  0  0  0  0  0  0  0  0  0  0  0
  139.8610   71.7270  222.5340 C   0  0  0  0  0  0  0  0  0  0  0  0
  140.6130   71.5010  221.5600 O   0  0  0  0  0  0  0  0  0  0  0  0
  139.8840   70.8850  223.7260 C   0  0  0  0  0  0  0  0  0  0  0  0
  139.3120   69.6300  223.6900 C   0  0  0  0  0  0  0  0  0  0  0  0
  139.2910   68.7760  224.7730 C   0  0  0  0  0  0  0  0  0  0  0  0
  139.8800   69.2170  225.9530 C   0  0  0  0  0  0  0  0  0  0  0  0
  139.9000   68.4190  227.0780 C   0  0  0  0  0  0  0  0  0  0  0  0
  140.4860   68.8500  228.2620 C   0  0  0  0  0  0  0  0  0  0  0  0
  141.0530   70.1130  228.2730 C   0  0  0  0  0  0  0  0  0  0  0  0
  141.0370   70.9210  227.1430 C   0  0  0  0  0  0  0  0  0  0  0  0
  140.4510   70.4770  225.9770 C   0  0  0  0  0  0  0  0  0  0  0  0
  140.4480   71.2860  224.8840 N   0  0  0  0  0  0  0  0  0  0  0  0
  140.4820   78.2890  221.5730 C   0  0  1  0  0  0  0  0  0  0  0  0
  140.4410   78.3540  223.0940 C   0  0  0  0  0  0  0  0  0  0  0  0
  141.6580   79.1160  223.5260 C   0  0  0  0  0  0  0  0  0  0  0  0
  142.3300   79.5200  222.2320 C   0  0  0  0  0  0  0  0  0  0  0  0
  141.3740   79.3320  221.1880 N   0  0  0  0  0  0  0  0  0  0  0  0
  140.7730   80.5170  220.6690 C   0  0  0  0  0  0  0  0  0  0  0  0
  141.4790   81.1690  219.5660 C   0  0  0  0  0  0  0  0  0  0  0  0
  141.3510   82.5270  219.2890 C   0  0  0  0  0  0  0  0  0  0  0  0
  142.0200   83.1370  218.2480 C   0  0  0  0  0  0  0  0  0  0  0  0
  142.8550   82.4190  217.4270 C   0  0  0  0  0  0  0  0  0  0  0  0
  143.7340   83.1250  216.0890 Cl  0  0  0  0  0  0  0  0  0  0  0  0
  143.0020   81.0760  217.6760 C   0  0  0  0  0  0  0  0  0  0  0  0
  142.3270   80.4670  218.7240 C   0  0  0  0  0  0  0  0  0  0  0  0
  142.6367   77.3714  219.8227 H   0  0  0  0  0  0  0  0  0  0  0  0
  141.5018   76.1417  219.1695 H   0  0  0  0  0  0  0  0  0  0  0  0
  141.0420   77.8781  219.1695 H   0  0  0  0  0  0  0  0  0  0  0  0
  141.6502   76.5517  221.8789 H   0  0  0  0  0  0  0  0  0  0  0  0
  138.9950   76.3080  220.4930 H   0  0  0  0  0  0  0  0  0  0  0  0
  138.0150   74.1666  221.1414 H   0  0  0  0  0  0  0  0  0  0  0  0
  139.1364   73.0349  220.3538 H   0  0  0  0  0  0  0  0  0  0  0  0
  138.3560   73.0130  223.2700 H   0  0  0  0  0  0  0  0  0  0  0  0
  138.8494   69.2935  222.7504 H   0  0  0  0  0  0  0  0  0  0  0  0
  138.8251   67.7818  224.7057 H   0  0  0  0  0  0  0  0  0  0  0  0
  139.4421   67.4197  227.0370 H   0  0  0  0  0  0  0  0  0  0  0  0
  140.4989   68.2113  229.1575 H   0  0  0  0  0  0  0  0  0  0  0  0
  141.5254   70.4840  229.1945 H   0  0  0  0  0  0  0  0  0  0  0  0
  141.4945   71.9207  227.1790 H   0  0  0  0  0  0  0  0  0  0  0  0
  139.4927   78.4254  221.1118 H   0  0  0  0  0  0  0  0  0  0  0  0
  139.5304   78.8737  223.4268 H   0  0  0  0  0  0  0  0  0  0  0  0
  140.4294   77.3454  223.5328 H   0  0  0  0  0  0  0  0  0  0  0  0
  141.3741   80.0036  224.1105 H   0  0  0  0  0  0  0  0  0  0  0  0
  142.3184   78.5189  224.1720 H   0  0  0  0  0  0  0  0  0  0  0  0
  142.6355   80.5757  222.2787 H   0  0  0  0  0  0  0  0  0  0  0  0
  143.2311   78.9152  222.0524 H   0  0  0  0  0  0  0  0  0  0  0  0
  139.7654   80.2547  220.3142 H   0  0  0  0  0  0  0  0  0  0  0  0
  140.7870   81.2413  221.4968 H   0  0  0  0  0  0  0  0  0  0  0  0
  140.6916   83.1368  219.9240 H   0  0  0  0  0  0  0  0  0  0  0  0
  141.8827   84.2143  218.0729 H   0  0  0  0  0  0  0  0  0  0  0  0
  143.6642   80.4750  217.0354 H   0  0  0  0  0  0  0  0  0  0  0  0
  142.4698   79.3894  218.8925 H   0  0  0  0  0  0  0  0  0  0  0  0
  1  2  1  0
  2  3  1  0
  3  4  1  0
  4  5  2  0
  4  6  1  0
  6  7  1  0
  7  8  1  0
  8  9  2  0
  8 10  1  0
 10 11  2  0
 11 12  1  0
 12 13  2  0
 13 14  1  0
 14 15  2  0
 15 16  1  0
 16 17  2  0
 17 18  1  0
 18 19  2  0
  2 20  1  0
 20 21  1  0
 21 22  1  0
 22 23  1  0
 23 24  1  0
 24 25  1  0
 25 26  1  0
 26 27  2  0
 27 28  1  0
 28 29  2  0
 29 30  1  0
 29 31  1  0
 31 32  2  0
 19 10  1  0
 24 20  1  0
 32 26  1  0
 18 13  1  0
  1 33  1  0
  1 34  1  0
  1 35  1  0
  2 36  1  1
  3 37  1  0
  6 38  1  0
  6 39  1  0
  7 40  1  0
 11 41  1  0
 12 42  1  0
 14 43  1  0
 15 44  1  0
 16 45  1  0
 17 46  1  0
 20 47  1  6
 21 48  1  0
 21 49  1  0
 22 50  1  0
 22 51  1  0
 23 52  1  0
 23 53  1  0
 25 54  1  0
 25 55  1  0
 27 56  1  0
 28 57  1  0
 31 58  1  0
 32 59  1  0
M  END
>  <smiles>  (43) 
C[C@H](NC(=O)CNC(=O)c1ccc2ccccc2n1)[C@H]1CCCN1Cc1ccc(Cl)cc1

>  <score_type>  (43) 
oracle

>  <origin>  (43) 
autodockgpu

>  <m_score__min__energy>  (43) 
-9.4600000000000009

>  <m_primary>  (43) 
energy

>  <rmsd>  (43) 
2.216587271434174

>  <m_score__min__rmsd>  (43) 
2.216587271434174

>  <meeko>  (43) 
{"free_energy": -9.19, "intermolecular_energy": -11.28, "internal_energy": -1.49, "cluster_size": 3, "cluster_id": 2, "rank_in_cluster": 2}

>  <energy>  (43) 
-7.19

>  <cluster_rmsd>  (43) 
0.21

>  <cluster>  (43) 
10

$$$$

     RDKit          3D

 59 62  0  0  0  0  0  0  0  0999 V2000
  140.7620   74.0720  217.4010 C   0  0  0  0  0  0  0  0  0  0  0  0
  141.3090   73.2650  218.5860 C   0  0  2  0  0  0  0  0  0  0  0  0
  140.5660   73.7200  219.7450 N   0  0  0  0  0  0  0  0  0  0  0  0
  139.1830   73.4040  219.8170 C   0  0  0  0  0  0  0  0  0  0  0  0
  138.5840   72.7520  218.9220 O   0  0  0  0  0  0  0  0  0  0  0  0
  138.3990   73.8600  220.9970 C   0  0  0  0  0  0  0  0  0  0  0  0
  138.5000   72.8110  222.0010 N   0  0  0  0  0  0  0  0  0  0  0  0
  139.7270   72.6340  222.6890 C   0  0  0  0  0  0  0  0  0  0  0  0
  140.6780   73.3950  222.4020 O   0  0  0  0  0  0  0  0  0  0  0  0
  139.8610   71.5920  223.7020 C   0  0  0  0  0  0  0  0  0  0  0  0
  139.4770   70.2990  223.4110 C   0  0  0  0  0  0  0  0  0  0  0  0
  139.5710   69.2610  224.3120 C   0  0  0  0  0  0  0  0  0  0  0  0
  140.0810   69.5460  225.5740 C   0  0  0  0  0  0  0  0  0  0  0  0
  140.2070   68.5590  226.5290 C   0  0  0  0  0  0  0  0  0  0  0  0
  140.7140   68.8340  227.7930 C   0  0  0  0  0  0  0  0  0  0  0  0
  141.0930   70.1380  228.0620 C   0  0  0  0  0  0  0  0  0  0  0  0
  140.9690   71.1360  227.1030 C   0  0  0  0  0  0  0  0  0  0  0  0
  140.4630   70.8450  225.8550 C   0  0  0  0  0  0  0  0  0  0  0  0
  140.3520   71.8400  224.9340 N   0  0  0  0  0  0  0  0  0  0  0  0
  142.7940   73.5390  218.6870 C   0  0  1  0  0  0  0  0  0  0  0  0
  143.1840   74.7070  217.7910 C   0  0  0  0  0  0  0  0  0  0  0  0
  143.3500   75.8990  218.6850 C   0  0  0  0  0  0  0  0  0  0  0  0
  143.1090   75.3630  220.0800 C   0  0  0  0  0  0  0  0  0  0  0  0
  143.1850   73.9390  219.9990 N   0  0  0  0  0  0  0  0  0  0  0  0
  144.3770   73.3460  220.5110 C   0  0  0  0  0  0  0  0  0  0  0  0
  144.6460   71.9710  220.0880 C   0  0  0  0  0  0  0  0  0  0  0  0
  143.7450   70.9310  220.2930 C   0  0  0  0  0  0  0  0  0  0  0  0
  144.0040   69.6360  219.8920 C   0  0  0  0  0  0  0  0  0  0  0  0
  145.1820   69.3140  219.2630 C   0  0  0  0  0  0  0  0  0  0  0  0
  145.5780   67.6960  218.7280 Cl  0  0  0  0  0  0  0  0  0  0  0  0
  146.0920   70.3210  219.0460 C   0  0  0  0  0  0  0  0  0  0  0  0
  145.8260   71.6200  219.4510 C   0  0  0  0  0  0  0  0  0  0  0  0
  140.1819   74.9278  217.7768 H   0  0  0  0  0  0  0  0  0  0  0  0
  141.5994   74.4373  216.7884 H   0  0  0  0  0  0  0  0  0  0  0  0
  140.1125   73.4294  216.7884 H   0  0  0  0  0  0  0  0  0  0  0  0
  141.1892   72.1761  218.4859 H   0  0  0  0  0  0  0  0  0  0  0  0
  141.0820   74.2590  220.4740 H   0  0  0  0  0  0  0  0  0  0  0  0
  138.8159   74.7998  221.3882 H   0  0  0  0  0  0  0  0  0  0  0  0
  137.3495   74.0459  220.7252 H   0  0  0  0  0  0  0  0  0  0  0  0
  137.7130   72.1730  222.2460 H   0  0  0  0  0  0  0  0  0  0  0  0
  139.0756   70.0863  222.4092 H   0  0  0  0  0  0  0  0  0  0  0  0
  139.2538   68.2427  224.0427 H   0  0  0  0  0  0  0  0  0  0  0  0
  139.8994   67.5316  226.2846 H   0  0  0  0  0  0  0  0  0  0  0  0
  140.8108   68.0442  228.5525 H   0  0  0  0  0  0  0  0  0  0  0  0
  141.4997   70.3887  229.0528 H   0  0  0  0  0  0  0  0  0  0  0  0
  141.2767   72.1647  227.3418 H   0  0  0  0  0  0  0  0  0  0  0  0
  143.2842   72.5973  218.3992 H   0  0  0  0  0  0  0  0  0  0  0  0
  144.1288   74.4878  217.2721 H   0  0  0  0  0  0  0  0  0  0  0  0
  142.4168   74.8911  217.0245 H   0  0  0  0  0  0  0  0  0  0  0  0
  144.3656   76.3123  218.5974 H   0  0  0  0  0  0  0  0  0  0  0  0
  142.6602   76.7156  218.4257 H   0  0  0  0  0  0  0  0  0  0  0  0
  143.8773   75.7437  220.7690 H   0  0  0  0  0  0  0  0  0  0  0  0
  142.1272   75.6828  220.4593 H   0  0  0  0  0  0  0  0  0  0  0  0
  145.2259   73.9681  220.1910 H   0  0  0  0  0  0  0  0  0  0  0  0
  144.2378   73.2975  221.6011 H   0  0  0  0  0  0  0  0  0  0  0  0
  142.7901   71.1490  220.7936 H   0  0  0  0  0  0  0  0  0  0  0  0
  143.2567   68.8507  220.0787 H   0  0  0  0  0  0  0  0  0  0  0  0
  147.0440   70.0932  218.5443 H   0  0  0  0  0  0  0  0  0  0  0  0
  146.5780   72.3997  219.2601 H   0  0  0  0  0  0  0  0  0  0  0  0
  1  2  1  0
  2  3  1  0
  3  4  1  0
  4  5  2  0
  4  6  1  0
  6  7  1  0
  7  8  1  0
  8  9  2  0
  8 10  1  0
 10 11  2  0
 11 12  1  0
 12 13  2  0
 13 14  1  0
 14 15  2  0
 15 16  1  0
 16 17  2  0
 17 18  1  0
 18 19  2  0
  2 20  1  0
 20 21  1  0
 21 22  1  0
 22 23  1  0
 23 24  1  0
 24 25  1  0
 25 26  1  0
 26 27  2  0
 27 28  1  0
 28 29  2  0
 29 30  1  0
 29 31  1  0
 31 32  2  0
 19 10  1  0
 24 20  1  0
 32 26  1  0
 18 13  1  0
  1 33  1  0
  1 34  1  0
  1 35  1  0
  2 36  1  6
  3 37  1  0
  6 38  1  0
  6 39  1  0
  7 40  1  0
 11 41  1  0
 12 42  1  0
 14 43  1  0
 15 44  1  0
 16 45  1  0
 17 46  1  0
 20 47  1  6
 21 48  1  0
 21 49  1  0
 22 50  1  0
 22 51  1  0
 23 52  1  0
 23 53  1  0
 25 54  1  0
 25 55  1  0
 27 56  1  0
 28 57  1  0
 31 58  1  0
 32 59  1  0
M  END
>  <smiles>  (44) 
C[C@H](NC(=O)CNC(=O)c1ccc2ccccc2n1)[C@H]1CCCN1Cc1ccc(Cl)cc1

>  <score_type>  (44) 
oracle

>  <origin>  (44) 
autodockgpu

>  <m_score__min__energy>  (44) 
-9.4600000000000009

>  <m_primary>  (44) 
energy

>  <rmsd>  (44) 
6.355884768016981

>  <m_score__min__rmsd>  (44) 
6.355884768016981

>  <meeko>  (44) 
{"free_energy": -7.3, "intermolecular_energy": -9.39, "internal_energy": -3.25, "cluster_size": 2, "cluster_id": 8, "rank_in_cluster": 1}

>  <energy>  (44) 
-7.11

>  <cluster_rmsd>  (44) 
0.0

>  <cluster>  (44) 
11

$$$$

     RDKit          3D

 59 62  0  0  0  0  0  0  0  0999 V2000
  136.6340   75.6850  223.5990 C   0  0  0  0  0  0  0  0  0  0  0  0
  137.1090   75.8280  222.1470 C   0  0  2  0  0  0  0  0  0  0  0  0
  137.9950   74.7050  221.9120 N   0  0  0  0  0  0  0  0  0  0  0  0
  137.9780   74.0980  220.6280 C   0  0  0  0  0  0  0  0  0  0  0  0
  137.2300   74.4950  219.6950 O   0  0  0  0  0  0  0  0  0  0  0  0
  138.8780   72.9430  220.3640 C   0  0  0  0  0  0  0  0  0  0  0  0
  138.8430   72.1010  221.5510 N   0  0  0  0  0  0  0  0  0  0  0  0
  139.7350   72.3800  222.6170 C   0  0  0  0  0  0  0  0  0  0  0  0
  140.5190   73.3470  222.4910 O   0  0  0  0  0  0  0  0  0  0  0  0
  139.7260   71.5570  223.8220 C   0  0  0  0  0  0  0  0  0  0  0  0
  138.9990   70.3840  223.8450 C   0  0  0  0  0  0  0  0  0  0  0  0
  138.9380   69.5530  224.9430 C   0  0  0  0  0  0  0  0  0  0  0  0
  139.6510   69.9280  226.0760 C   0  0  0  0  0  0  0  0  0  0  0  0
  139.6410   69.1480  227.2130 C   0  0  0  0  0  0  0  0  0  0  0  0
  140.3490   69.5140  228.3510 C   0  0  0  0  0  0  0  0  0  0  0  0
  141.0710   70.6940  228.3030 C   0  0  0  0  0  0  0  0  0  0  0  0
  141.0860   71.4840  227.1600 C   0  0  0  0  0  0  0  0  0  0  0  0
  140.3770   71.1050  226.0410 C   0  0  0  0  0  0  0  0  0  0  0  0
  140.4070   71.8960  224.9350 N   0  0  0  0  0  0  0  0  0  0  0  0
  137.8010   77.1690  222.0160 C   0  0  1  0  0  0  0  0  0  0  0  0
  138.4750   77.2910  220.6560 C   0  0  0  0  0  0  0  0  0  0  0  0
  137.5900   78.1610  219.8130 C   0  0  0  0  0  0  0  0  0  0  0  0
  136.4610   78.5620  220.7390 C   0  0  0  0  0  0  0  0  0  0  0  0
  136.8850   78.2600  222.0690 N   0  0  0  0  0  0  0  0  0  0  0  0
  137.2770   79.3740  222.8690 C   0  0  0  0  0  0  0  0  0  0  0  0
  138.7110   79.6600  222.9190 C   0  0  0  0  0  0  0  0  0  0  0  0
  139.3390   80.5150  222.0190 C   0  0  0  0  0  0  0  0  0  0  0  0
  140.6920   80.7810  222.0700 C   0  0  0  0  0  0  0  0  0  0  0  0
  141.4900   80.2050  223.0290 C   0  0  0  0  0  0  0  0  0  0  0  0
  143.2100   80.4960  223.1550 Cl  0  0  0  0  0  0  0  0  0  0  0  0
  140.8970   79.3560  223.9330 C   0  0  0  0  0  0  0  0  0  0  0  0
  139.5370   79.0920  223.8760 C   0  0  0  0  0  0  0  0  0  0  0  0
  137.4602   75.9337  224.2813 H   0  0  0  0  0  0  0  0  0  0  0  0
  135.7917   76.3694  223.7783 H   0  0  0  0  0  0  0  0  0  0  0  0
  136.3096   74.6493  223.7783 H   0  0  0  0  0  0  0  0  0  0  0  0
  136.2995   75.8094  221.4024 H   0  0  0  0  0  0  0  0  0  0  0  0
  138.6050   74.3930  222.6990 H   0  0  0  0  0  0  0  0  0  0  0  0
  138.5229   72.3787  219.4891 H   0  0  0  0  0  0  0  0  0  0  0  0
  139.9026   73.2822  220.1514 H   0  0  0  0  0  0  0  0  0  0  0  0
  138.1930   71.2940  221.6640 H   0  0  0  0  0  0  0  0  0  0  0  0
  138.4402   70.0980  222.9417 H   0  0  0  0  0  0  0  0  0  0  0  0
  138.3462   68.6260  224.9235 H   0  0  0  0  0  0  0  0  0  0  0  0
  139.0591   68.2145  227.2192 H   0  0  0  0  0  0  0  0  0  0  0  0
  140.3363   68.8894  229.2564 H   0  0  0  0  0  0  0  0  0  0  0  0
  141.6438   71.0124  229.1865 H   0  0  0  0  0  0  0  0  0  0  0  0
  141.6675   72.4177  227.1484 H   0  0  0  0  0  0  0  0  0  0  0  0
  138.5146   77.2123  222.8520 H   0  0  0  0  0  0  0  0  0  0  0  0
  139.4676   77.7524  220.7648 H   0  0  0  0  0  0  0  0  0  0  0  0
  138.6149   76.3028  220.1936 H   0  0  0  0  0  0  0  0  0  0  0  0
  138.1377   79.0476  219.4608 H   0  0  0  0  0  0  0  0  0  0  0  0
  137.2288   77.6429  218.9124 H   0  0  0  0  0  0  0  0  0  0  0  0
  136.2576   79.6387  220.6426 H   0  0  0  0  0  0  0  0  0  0  0  0
  135.5368   78.0204  220.4889 H   0  0  0  0  0  0  0  0  0  0  0  0
  136.7703   80.2665  222.4731 H   0  0  0  0  0  0  0  0  0  0  0  0
  136.9928   79.1117  223.8988 H   0  0  0  0  0  0  0  0  0  0  0  0
  138.7340   80.9973  221.2371 H   0  0  0  0  0  0  0  0  0  0  0  0
  141.1383   81.4641  221.3323 H   0  0  0  0  0  0  0  0  0  0  0  0
  141.5099   78.8795  224.7123 H   0  0  0  0  0  0  0  0  0  0  0  0
  139.0981   78.4074  224.6167 H   0  0  0  0  0  0  0  0  0  0  0  0
  1  2  1  0
  2  3  1  0
  3  4  1  0
  4  5  2  0
  4  6  1  0
  6  7  1  0
  7  8  1  0
  8  9  2  0
  8 10  1  0
 10 11  2  0
 11 12  1  0
 12 13  2  0
 13 14  1  0
 14 15  2  0
 15 16  1  0
 16 17  2  0
 17 18  1  0
 18 19  2  0
  2 20  1  0
 20 21  1  0
 21 22  1  0
 22 23  1  0
 23 24  1  0
 24 25  1  0
 25 26  1  0
 26 27  2  0
 27 28  1  0
 28 29  2  0
 29 30  1  0
 29 31  1  0
 31 32  2  0
 19 10  1  0
 24 20  1  0
 32 26  1  0
 18 13  1  0
  1 33  1  0
  1 34  1  0
  1 35  1  0
  2 36  1  6
  3 37  1  0
  6 38  1  0
  6 39  1  0
  7 40  1  0
 11 41  1  0
 12 42  1  0
 14 43  1  0
 15 44  1  0
 16 45  1  0
 17 46  1  0
 20 47  1  1
 21 48  1  0
 21 49  1  0
 22 50  1  0
 22 51  1  0
 23 52  1  0
 23 53  1  0
 25 54  1  0
 25 55  1  0
 27 56  1  0
 28 57  1  0
 31 58  1  0
 32 59  1  0
M  END
>  <smiles>  (45) 
C[C@H](NC(=O)CNC(=O)c1ccc2ccccc2n1)[C@H]1CCCN1Cc1ccc(Cl)cc1

>  <score_type>  (45) 
oracle

>  <origin>  (45) 
autodockgpu

>  <m_score__min__energy>  (45) 
-9.4600000000000009

>  <m_primary>  (45) 
energy

>  <rmsd>  (45) 
3.4578939322291933

>  <m_score__min__rmsd>  (45) 
3.4578939322291933

>  <meeko>  (45) 
{"free_energy": -8.1, "intermolecular_energy": -10.18, "internal_energy": -2.47, "cluster_size": 5, "cluster_id": 7, "rank_in_cluster": 1}

>  <energy>  (45) 
-7.05

>  <cluster_rmsd>  (45) 
0.0

>  <cluster>  (45) 
12

$$$$

     RDKit          3D

 59 62  0  0  0  0  0  0  0  0999 V2000
  144.1790   74.4760  219.7600 C   0  0  0  0  0  0  0  0  0  0  0  0
  142.9740   75.3650  220.0930 C   0  0  2  0  0  0  0  0  0  0  0  0
  141.8190   74.4900  220.0500 N   0  0  0  0  0  0  0  0  0  0  0  0
  140.8720   74.5810  221.1050 C   0  0  0  0  0  0  0  0  0  0  0  0
  140.9980   75.3850  222.0670 O   0  0  0  0  0  0  0  0  0  0  0  0
  139.6790   73.6930  221.0830 C   0  0  0  0  0  0  0  0  0  0  0  0
  139.6440   73.0020  222.3640 N   0  0  0  0  0  0  0  0  0  0  0  0
  139.9590   71.6200  222.4070 C   0  0  0  0  0  0  0  0  0  0  0  0
  140.2560   71.0500  221.3350 O   0  0  0  0  0  0  0  0  0  0  0  0
  139.9340   70.8970  223.6750 C   0  0  0  0  0  0  0  0  0  0  0  0
  139.4070   69.6240  223.7280 C   0  0  0  0  0  0  0  0  0  0  0  0
  139.3460   68.8770  224.8850 C   0  0  0  0  0  0  0  0  0  0  0  0
  139.8460   69.4500  226.0490 C   0  0  0  0  0  0  0  0  0  0  0  0
  139.8220   68.7640  227.2460 C   0  0  0  0  0  0  0  0  0  0  0  0
  140.3170   69.3280  228.4150 C   0  0  0  0  0  0  0  0  0  0  0  0
  140.8410   70.6070  228.3370 C   0  0  0  0  0  0  0  0  0  0  0  0
  140.8700   71.3020  227.1340 C   0  0  0  0  0  0  0  0  0  0  0  0
  140.3720   70.7270  225.9850 C   0  0  0  0  0  0  0  0  0  0  0  0
  140.4110   71.4280  224.8200 N   0  0  0  0  0  0  0  0  0  0  0  0
  142.9180   76.4750  219.0650 C   0  0  1  0  0  0  0  0  0  0  0  0
  143.1660   75.9220  217.6690 C   0  0  0  0  0  0  0  0  0  0  0  0
  141.8290   75.8310  216.9970 C   0  0  0  0  0  0  0  0  0  0  0  0
  140.8570   76.3940  218.0120 C   0  0  0  0  0  0  0  0  0  0  0  0
  141.6310   77.0850  218.9930 N   0  0  0  0  0  0  0  0  0  0  0  0
  141.6100   78.5090  218.9180 C   0  0  0  0  0  0  0  0  0  0  0  0
  141.7510   79.2240  220.1870 C   0  0  0  0  0  0  0  0  0  0  0  0
  141.7640   80.6130  220.2700 C   0  0  0  0  0  0  0  0  0  0  0  0
  141.8970   81.2820  221.4690 C   0  0  0  0  0  0  0  0  0  0  0  0
  142.0250   80.5950  222.6520 C   0  0  0  0  0  0  0  0  0  0  0  0
  142.1990   81.3760  224.2080 Cl  0  0  0  0  0  0  0  0  0  0  0  0
  142.0160   79.2220  222.6010 C   0  0  0  0  0  0  0  0  0  0  0  0
  141.8810   78.5540  221.3930 C   0  0  0  0  0  0  0  0  0  0  0  0
  144.6482   74.1299  220.6928 H   0  0  0  0  0  0  0  0  0  0  0  0
  143.8432   73.6076  219.1742 H   0  0  0  0  0  0  0  0  0  0  0  0
  144.9096   75.0531  219.1742 H   0  0  0  0  0  0  0  0  0  0  0  0
  143.0255   75.8453  221.0813 H   0  0  0  0  0  0  0  0  0  0  0  0
  141.7350   73.8320  219.2440 H   0  0  0  0  0  0  0  0  0  0  0  0
  138.7649   74.2903  220.9501 H   0  0  0  0  0  0  0  0  0  0  0  0
  139.7360   72.9767  220.2501 H   0  0  0  0  0  0  0  0  0  0  0  0
  139.3980   73.4690  223.2620 H   0  0  0  0  0  0  0  0  0  0  0  0
  139.0154   69.1820  222.7999 H   0  0  0  0  0  0  0  0  0  0  0  0
  138.9172   67.8640  224.8872 H   0  0  0  0  0  0  0  0  0  0  0  0
  139.4016   67.7479  227.2752 H   0  0  0  0  0  0  0  0  0  0  0  0
  140.2935   68.7785  229.3676 H   0  0  0  0  0  0  0  0  0  0  0  0
  141.2420   71.0821  229.2445 H   0  0  0  0  0  0  0  0  0  0  0  0
  141.2929   72.3169  227.0987 H   0  0  0  0  0  0  0  0  0  0  0  0
  143.6816   77.2019  219.3789 H   0  0  0  0  0  0  0  0  0  0  0  0
  143.8279   76.5967  217.1062 H   0  0  0  0  0  0  0  0  0  0  0  0
  143.6533   74.9369  217.7148 H   0  0  0  0  0  0  0  0  0  0  0  0
  141.8164   76.4283  216.0733 H   0  0  0  0  0  0  0  0  0  0  0  0
  141.5775   74.8014  216.7025 H   0  0  0  0  0  0  0  0  0  0  0  0
  140.1600   77.0898  217.5220 H   0  0  0  0  0  0  0  0  0  0  0  0
  140.2636   75.5914  218.4743 H   0  0  0  0  0  0  0  0  0  0  0  0
  142.4354   78.8229  218.2622 H   0  0  0  0  0  0  0  0  0  0  0  0
  140.6096   78.7697  218.5423 H   0  0  0  0  0  0  0  0  0  0  0  0
  141.6645   81.1995  219.3448 H   0  0  0  0  0  0  0  0  0  0  0  0
  141.9006   82.3820  221.4781 H   0  0  0  0  0  0  0  0  0  0  0  0
  142.1173   78.6443  223.5316 H   0  0  0  0  0  0  0  0  0  0  0  0
  141.8770   77.4540  221.3923 H   0  0  0  0  0  0  0  0  0  0  0  0
  1  2  1  0
  2  3  1  0
  3  4  1  0
  4  5  2  0
  4  6  1  0
  6  7  1  0
  7  8  1  0
  8  9  2  0
  8 10  1  0
 10 11  2  0
 11 12  1  0
 12 13  2  0
 13 14  1  0
 14 15  2  0
 15 16  1  0
 16 17  2  0
 17 18  1  0
 18 19  2  0
  2 20  1  0
 20 21  1  0
 21 22  1  0
 22 23  1  0
 23 24  1  0
 24 25  1  0
 25 26  1  0
 26 27  2  0
 27 28  1  0
 28 29  2  0
 29 30  1  0
 29 31  1  0
 31 32  2  0
 19 10  1  0
 24 20  1  0
 32 26  1  0
 18 13  1  0
  1 33  1  0
  1 34  1  0
  1 35  1  0
  2 36  1  1
  3 37  1  0
  6 38  1  0
  6 39  1  0
  7 40  1  0
 11 41  1  0
 12 42  1  0
 14 43  1  0
 15 44  1  0
 16 45  1  0
 17 46  1  0
 20 47  1  1
 21 48  1  0
 21 49  1  0
 22 50  1  0
 22 51  1  0
 23 52  1  0
 23 53  1  0
 25 54  1  0
 25 55  1  0
 27 56  1  0
 28 57  1  0
 31 58  1  0
 32 59  1  0
M  END
>  <smiles>  (46) 
C[C@H](NC(=O)CNC(=O)c1ccc2ccccc2n1)[C@H]1CCCN1Cc1ccc(Cl)cc1

>  <score_type>  (46) 
oracle

>  <origin>  (46) 
autodockgpu

>  <m_score__min__energy>  (46) 
-9.4600000000000009

>  <m_primary>  (46) 
energy

>  <rmsd>  (46) 
2.7559704700468166

>  <m_score__min__rmsd>  (46) 
2.7559704700468166

>  <meeko>  (46) 
{"free_energy": -9.18, "intermolecular_energy": -11.27, "internal_energy": -2.05, "cluster_size": 19, "cluster_id": 1, "rank_in_cluster": 5}

>  <energy>  (46) 
-6.58

>  <cluster_rmsd>  (46) 
0.0

>  <cluster>  (46) 
13

$$$$

     RDKit          3D

 59 62  0  0  0  0  0  0  0  0999 V2000
  136.3360   72.0540  220.9890 C   0  0  0  0  0  0  0  0  0  0  0  0
  137.1690   72.1430  222.2750 C   0  0  2  0  0  0  0  0  0  0  0  0
  137.0800   73.5250  222.7030 N   0  0  0  0  0  0  0  0  0  0  0  0
  135.7890   74.0700  222.9370 C   0  0  0  0  0  0  0  0  0  0  0  0
  134.7300   73.4040  222.7870 O   0  0  0  0  0  0  0  0  0  0  0  0
  135.6720   75.4860  223.3770 C   0  0  0  0  0  0  0  0  0  0  0  0
  137.0250   76.0170  223.4530 N   0  0  0  0  0  0  0  0  0  0  0  0
  137.3530   77.1740  222.7040 C   0  0  0  0  0  0  0  0  0  0  0  0
  136.4570   77.6950  222.0030 O   0  0  0  0  0  0  0  0  0  0  0  0
  138.7000   77.7320  222.7590 C   0  0  0  0  0  0  0  0  0  0  0  0
  139.7710   76.9840  222.3140 C   0  0  0  0  0  0  0  0  0  0  0  0
  141.0730   77.4380  222.3340 C   0  0  0  0  0  0  0  0  0  0  0  0
  141.3020   78.7170  222.8290 C   0  0  0  0  0  0  0  0  0  0  0  0
  142.5760   79.2420  222.8800 C   0  0  0  0  0  0  0  0  0  0  0  0
  142.8150   80.5180  223.3740 C   0  0  0  0  0  0  0  0  0  0  0  0
  141.7260   81.2500  223.8130 C   0  0  0  0  0  0  0  0  0  0  0  0
  140.4390   80.7270  223.7640 C   0  0  0  0  0  0  0  0  0  0  0  0
  140.2210   79.4580  223.2720 C   0  0  0  0  0  0  0  0  0  0  0  0
  138.9530   78.9690  223.2340 N   0  0  0  0  0  0  0  0  0  0  0  0
  138.5830   71.7130  221.9420 C   0  0  1  0  0  0  0  0  0  0  0  0
  138.8360   71.8250  220.4450 C   0  0  0  0  0  0  0  0  0  0  0  0
  139.6360   73.0760  220.2350 C   0  0  0  0  0  0  0  0  0  0  0  0
  139.8700   73.6130  221.6300 C   0  0  0  0  0  0  0  0  0  0  0  0
  139.5630   72.5580  222.5420 N   0  0  0  0  0  0  0  0  0  0  0  0
  140.6790   71.9030  223.1420 C   0  0  0  0  0  0  0  0  0  0  0  0
  140.4370   71.2780  224.4430 C   0  0  0  0  0  0  0  0  0  0  0  0
  140.9790   71.7720  225.6260 C   0  0  0  0  0  0  0  0  0  0  0  0
  140.7480   71.1790  226.8500 C   0  0  0  0  0  0  0  0  0  0  0  0
  139.9610   70.0580  226.9560 C   0  0  0  0  0  0  0  0  0  0  0  0
  139.6260   69.2530  228.4720 Cl  0  0  0  0  0  0  0  0  0  0  0  0
  139.4120   69.5470  225.8040 C   0  0  0  0  0  0  0  0  0  0  0  0
  139.6470   70.1480  224.5750 C   0  0  0  0  0  0  0  0  0  0  0  0
  135.2729   71.9404  221.2479 H   0  0  0  0  0  0  0  0  0  0  0  0
  136.4736   72.9720  220.3987 H   0  0  0  0  0  0  0  0  0  0  0  0
  136.6644   71.1858  220.3987 H   0  0  0  0  0  0  0  0  0  0  0  0
  136.8179   71.4907  223.0881 H   0  0  0  0  0  0  0  0  0  0  0  0
  137.9700   74.0570  222.8210 H   0  0  0  0  0  0  0  0  0  0  0  0
  135.0801   76.0608  222.6494 H   0  0  0  0  0  0  0  0  0  0  0  0
  135.1659   75.5556  224.3512 H   0  0  0  0  0  0  0  0  0  0  0  0
  137.7780   75.5890  224.0340 H   0  0  0  0  0  0  0  0  0  0  0  0
  139.5762   75.9743  221.9235 H   0  0  0  0  0  0  0  0  0  0  0  0
  141.9007   76.8108  221.9714 H   0  0  0  0  0  0  0  0  0  0  0  0
  143.4218   78.6369  222.5216 H   0  0  0  0  0  0  0  0  0  0  0  0
  143.8334   80.9317  223.4147 H   0  0  0  0  0  0  0  0  0  0  0  0
  141.8816   82.2647  224.2082 H   0  0  0  0  0  0  0  0  0  0  0  0
  139.5899   81.3291  224.1198 H   0  0  0  0  0  0  0  0  0  0  0  0
  138.6699   70.6816  222.3143 H   0  0  0  0  0  0  0  0  0  0  0  0
  139.4002   70.9502  220.0895 H   0  0  0  0  0  0  0  0  0  0  0  0
  137.8895   71.8623  219.8857 H   0  0  0  0  0  0  0  0  0  0  0  0
  140.5918   72.8482  219.7404 H   0  0  0  0  0  0  0  0  0  0  0  0
  139.1188   73.8004  219.5887 H   0  0  0  0  0  0  0  0  0  0  0  0
  140.9204   73.9183  221.7457 H   0  0  0  0  0  0  0  0  0  0  0  0
  139.2388   74.4932  221.8221 H   0  0  0  0  0  0  0  0  0  0  0  0
  141.0194   71.1182  222.4505 H   0  0  0  0  0  0  0  0  0  0  0  0
  141.4202   72.6942  223.3282 H   0  0  0  0  0  0  0  0  0  0  0  0
  141.6151   72.6684  225.5834 H   0  0  0  0  0  0  0  0  0  0  0  0
  141.2009   71.6103  227.7549 H   0  0  0  0  0  0  0  0  0  0  0  0
  138.7779   68.6497  225.8568 H   0  0  0  0  0  0  0  0  0  0  0  0
  139.1899   69.7117  223.6746 H   0  0  0  0  0  0  0  0  0  0  0  0
  1  2  1  0
  2  3  1  0
  3  4  1  0
  4  5  2  0
  4  6  1  0
  6  7  1  0
  7  8  1  0
  8  9  2  0
  8 10  1  0
 10 11  2  0
 11 12  1  0
 12 13  2  0
 13 14  1  0
 14 15  2  0
 15 16  1  0
 16 17  2  0
 17 18  1  0
 18 19  2  0
  2 20  1  0
 20 21  1  0
 21 22  1  0
 22 23  1  0
 23 24  1  0
 24 25  1  0
 25 26  1  0
 26 27  2  0
 27 28  1  0
 28 29  2  0
 29 30  1  0
 29 31  1  0
 31 32  2  0
 19 10  1  0
 24 20  1  0
 32 26  1  0
 18 13  1  0
  1 33  1  0
  1 34  1  0
  1 35  1  0
  2 36  1  1
  3 37  1  0
  6 38  1  0
  6 39  1  0
  7 40  1  0
 11 41  1  0
 12 42  1  0
 14 43  1  0
 15 44  1  0
 16 45  1  0
 17 46  1  0
 20 47  1  1
 21 48  1  0
 21 49  1  0
 22 50  1  0
 22 51  1  0
 23 52  1  0
 23 53  1  0
 25 54  1  0
 25 55  1  0
 27 56  1  0
 28 57  1  0
 31 58  1  0
 32 59  1  0
M  END
>  <smiles>  (47) 
C[C@H](NC(=O)CNC(=O)c1ccc2ccccc2n1)[C@H]1CCCN1Cc1ccc(Cl)cc1

>  <score_type>  (47) 
oracle

>  <origin>  (47) 
autodockgpu

>  <m_score__min__energy>  (47) 
-9.4600000000000009

>  <m_primary>  (47) 
energy

>  <rmsd>  (47) 
9.244013201523034

>  <m_score__min__rmsd>  (47) 
9.244013201523034

>  <meeko>  (47) 
{"free_energy": -8.48, "intermolecular_energy": -10.57, "internal_energy": -2.51, "cluster_size": 4, "cluster_id": 5, "rank_in_cluster": 1}

>  <energy>  (47) 
-6.3

>  <cluster_rmsd>  (47) 
0.0

>  <cluster>  (47) 
14

$$$$

     RDKit          3D

 59 62  0  0  0  0  0  0  0  0999 V2000
  143.6820   74.6400  219.0670 C   0  0  0  0  0  0  0  0  0  0  0  0
  142.6610   75.1240  220.1050 C   0  0  2  0  0  0  0  0  0  0  0  0
  141.5640   74.1780  220.0470 N   0  0  0  0  0  0  0  0  0  0  0  0
  141.8300   72.8250  220.3890 C   0  0  0  0  0  0  0  0  0  0  0  0
  142.9710   72.4220  220.7380 O   0  0  0  0  0  0  0  0  0  0  0  0
  140.7210   71.8360  220.3360 C   0  0  0  0  0  0  0  0  0  0  0  0
  140.7130   71.1430  221.6160 N   0  0  0  0  0  0  0  0  0  0  0  0
  140.4080   71.8730  222.7920 C   0  0  0  0  0  0  0  0  0  0  0  0
  140.1550   73.0930  222.6780 O   0  0  0  0  0  0  0  0  0  0  0  0
  140.3910   71.2080  224.0910 C   0  0  0  0  0  0  0  0  0  0  0  0
  140.7760   71.9010  225.2210 C   0  0  0  0  0  0  0  0  0  0  0  0
  140.7890   71.3440  226.4820 C   0  0  0  0  0  0  0  0  0  0  0  0
  140.3920   70.0180  226.6060 C   0  0  0  0  0  0  0  0  0  0  0  0
  140.3770   69.3920  227.8340 C   0  0  0  0  0  0  0  0  0  0  0  0
  139.9820   68.0660  227.9680 C   0  0  0  0  0  0  0  0  0  0  0  0
  139.6010   67.3930  226.8210 C   0  0  0  0  0  0  0  0  0  0  0  0
  139.6120   68.0180  225.5800 C   0  0  0  0  0  0  0  0  0  0  0  0
  140.0080   69.3330  225.4660 C   0  0  0  0  0  0  0  0  0  0  0  0
  140.0110   69.9230  224.2410 N   0  0  0  0  0  0  0  0  0  0  0  0
  142.2520   76.5330  219.7300 C   0  0  1  0  0  0  0  0  0  0  0  0
  143.0120   77.0000  218.4970 C   0  0  0  0  0  0  0  0  0  0  0  0
  142.0660   76.8880  217.3390 C   0  0  0  0  0  0  0  0  0  0  0  0
  140.7670   76.4160  217.9560 C   0  0  0  0  0  0  0  0  0  0  0  0
  140.8760   76.6200  219.3660 N   0  0  0  0  0  0  0  0  0  0  0  0
  140.1510   77.7280  219.8960 C   0  0  0  0  0  0  0  0  0  0  0  0
  140.8340   78.5140  220.9240 C   0  0  0  0  0  0  0  0  0  0  0  0
  141.4880   79.7110  220.6460 C   0  0  0  0  0  0  0  0  0  0  0  0
  142.1300   80.4470  221.6190 C   0  0  0  0  0  0  0  0  0  0  0  0
  142.1530   80.0250  222.9260 C   0  0  0  0  0  0  0  0  0  0  0  0
  142.9480   80.9060  224.2120 Cl  0  0  0  0  0  0  0  0  0  0  0  0
  141.5160   78.8460  223.2320 C   0  0  0  0  0  0  0  0  0  0  0  0
  140.8710   78.1090  222.2490 C   0  0  0  0  0  0  0  0  0  0  0  0
  144.5600   74.2238  219.5827 H   0  0  0  0  0  0  0  0  0  0  0  0
  143.2243   73.8630  218.4371 H   0  0  0  0  0  0  0  0  0  0  0  0
  143.9937   75.4862  218.4371 H   0  0  0  0  0  0  0  0  0  0  0  0
  143.0468   75.1641  221.1344 H   0  0  0  0  0  0  0  0  0  0  0  0
  140.6280   74.5340  219.7550 H   0  0  0  0  0  0  0  0  0  0  0  0
  139.7618   72.3509  220.1783 H   0  0  0  0  0  0  0  0  0  0  0  0
  140.8626   71.1288  219.5055 H   0  0  0  0  0  0  0  0  0  0  0  0
  140.9230   70.1270  221.7210 H   0  0  0  0  0  0  0  0  0  0  0  0
  141.0880   72.9500  225.1098 H   0  0  0  0  0  0  0  0  0  0  0  0
  141.1027   71.9287  227.3593 H   0  0  0  0  0  0  0  0  0  0  0  0
  140.6845   69.9544  228.7280 H   0  0  0  0  0  0  0  0  0  0  0  0
  139.9727   67.5701  228.9499 H   0  0  0  0  0  0  0  0  0  0  0  0
  139.2831   66.3424  226.8928 H   0  0  0  0  0  0  0  0  0  0  0  0
  139.3030   67.4601  224.6838 H   0  0  0  0  0  0  0  0  0  0  0  0
  142.4645   77.1447  220.6192 H   0  0  0  0  0  0  0  0  0  0  0  0
  143.3344   78.0441  218.6234 H   0  0  0  0  0  0  0  0  0  0  0  0
  143.9122   76.3896  218.3326 H   0  0  0  0  0  0  0  0  0  0  0  0
  141.9322   77.8643  216.8502 H   0  0  0  0  0  0  0  0  0  0  0  0
  142.4343   76.2014  216.5625 H   0  0  0  0  0  0  0  0  0  0  0  0
  139.9245   76.9979  217.5541 H   0  0  0  0  0  0  0  0  0  0  0  0
  140.5853   75.3559  217.7256 H   0  0  0  0  0  0  0  0  0  0  0  0
  139.9117   78.4030  219.0610 H   0  0  0  0  0  0  0  0  0  0  0  0
  139.2711   77.2937  220.3932 H   0  0  0  0  0  0  0  0  0  0  0  0
  141.4927   80.0836  219.6110 H   0  0  0  0  0  0  0  0  0  0  0  0
  142.6316   81.3867  221.3445 H   0  0  0  0  0  0  0  0  0  0  0  0
  141.5176   78.4819  224.2700 H   0  0  0  0  0  0  0  0  0  0  0  0
  140.3716   77.1704  222.5312 H   0  0  0  0  0  0  0  0  0  0  0  0
  1  2  1  0
  2  3  1  0
  3  4  1  0
  4  5  2  0
  4  6  1  0
  6  7  1  0
  7  8  1  0
  8  9  2  0
  8 10  1  0
 10 11  2  0
 11 12  1  0
 12 13  2  0
 13 14  1  0
 14 15  2  0
 15 16  1  0
 16 17  2  0
 17 18  1  0
 18 19  2  0
  2 20  1  0
 20 21  1  0
 21 22  1  0
 22 23  1  0
 23 24  1  0
 24 25  1  0
 25 26  1  0
 26 27  2  0
 27 28  1  0
 28 29  2  0
 29 30  1  0
 29 31  1  0
 31 32  2  0
 19 10  1  0
 24 20  1  0
 32 26  1  0
 18 13  1  0
  1 33  1  0
  1 34  1  0
  1 35  1  0
  2 36  1  1
  3 37  1  0
  6 38  1  0
  6 39  1  0
  7 40  1  0
 11 41  1  0
 12 42  1  0
 14 43  1  0
 15 44  1  0
 16 45  1  0
 17 46  1  0
 20 47  1  1
 21 48  1  0
 21 49  1  0
 22 50  1  0
 22 51  1  0
 23 52  1  0
 23 53  1  0
 25 54  1  0
 25 55  1  0
 27 56  1  0
 28 57  1  0
 31 58  1  0
 32 59  1  0
M  END
>  <smiles>  (48) 
C[C@H](NC(=O)CNC(=O)c1ccc2ccccc2n1)[C@H]1CCCN1Cc1ccc(Cl)cc1

>  <score_type>  (48) 
oracle

>  <origin>  (48) 
autodockgpu

>  <m_score__min__energy>  (48) 
-9.4600000000000009

>  <m_primary>  (48) 
energy

>  <rmsd>  (48) 
3.7315278851674107

>  <m_score__min__rmsd>  (48) 
3.7315278851674107

>  <meeko>  (48) 
{"free_energy": -8.72, "intermolecular_energy": -10.81, "internal_energy": -2.57, "cluster_size": 19, "cluster_id": 1, "rank_in_cluster": 8}

>  <energy>  (48) 
-6.04

>  <cluster_rmsd>  (48) 
1.13

>  <cluster>  (48) 
14

$$$$

     RDKit          3D

 59 62  0  0  0  0  0  0  0  0999 V2000
  136.1330   73.7240  220.7030 C   0  0  0  0  0  0  0  0  0  0  0  0
  137.0230   74.8960  220.2690 C   0  0  2  0  0  0  0  0  0  0  0  0
  138.3830   74.4780  220.5490 N   0  0  0  0  0  0  0  0  0  0  0  0
  138.9040   73.3710  219.8280 C   0  0  0  0  0  0  0  0  0  0  0  0
  138.2350   72.7440  218.9640 O   0  0  0  0  0  0  0  0  0  0  0  0
  140.2970   72.9230  220.0980 C   0  0  0  0  0  0  0  0  0  0  0  0
  140.2310   71.9950  221.2170 N   0  0  0  0  0  0  0  0  0  0  0  0
  140.0490   72.5080  222.5260 C   0  0  0  0  0  0  0  0  0  0  0  0
  139.9510   73.7470  222.6640 O   0  0  0  0  0  0  0  0  0  0  0  0
  139.9790   71.6040  223.6700 C   0  0  0  0  0  0  0  0  0  0  0  0
  139.3090   70.4040  223.5550 C   0  0  0  0  0  0  0  0  0  0  0  0
  139.1970   69.4970  224.5880 C   0  0  0  0  0  0  0  0  0  0  0  0
  139.7950   69.8240  225.8000 C   0  0  0  0  0  0  0  0  0  0  0  0
  139.7270   68.9680  226.8790 C   0  0  0  0  0  0  0  0  0  0  0  0
  140.3210   69.2850  228.0950 C   0  0  0  0  0  0  0  0  0  0  0  0
  140.9870   70.4950  228.1850 C   0  0  0  0  0  0  0  0  0  0  0  0
  141.0600   71.3610  227.1010 C   0  0  0  0  0  0  0  0  0  0  0  0
  140.4650   71.0300  225.9030 C   0  0  0  0  0  0  0  0  0  0  0  0
  140.5490   71.8950  224.8570 N   0  0  0  0  0  0  0  0  0  0  0  0
  136.6010   76.1170  221.0590 C   0  0  1  0  0  0  0  0  0  0  0  0
  135.5820   75.7370  222.1240 C   0  0  0  0  0  0  0  0  0  0  0  0
  136.3190   75.6900  223.4290 C   0  0  0  0  0  0  0  0  0  0  0  0
  137.7320   76.1060  223.0810 C   0  0  0  0  0  0  0  0  0  0  0  0
  137.6850   76.6970  221.7820 N   0  0  0  0  0  0  0  0  0  0  0  0
  137.7840   78.1190  221.7370 C   0  0  0  0  0  0  0  0  0  0  0  0
  139.0300   78.6960  222.2420 C   0  0  0  0  0  0  0  0  0  0  0  0
  140.2590   78.0530  222.1210 C   0  0  0  0  0  0  0  0  0  0  0  0
  141.4320   78.6010  222.5990 C   0  0  0  0  0  0  0  0  0  0  0  0
  141.4370   79.8240  223.2250 C   0  0  0  0  0  0  0  0  0  0  0  0
  142.8840   80.5790  223.8550 Cl  0  0  0  0  0  0  0  0  0  0  0  0
  140.2390   80.4830  223.3580 C   0  0  0  0  0  0  0  0  0  0  0  0
  139.0620   79.9280  222.8760 C   0  0  0  0  0  0  0  0  0  0  0  0
  136.0977   73.6775  221.8015 H   0  0  0  0  0  0  0  0  0  0  0  0
  135.1163   73.8703  220.3094 H   0  0  0  0  0  0  0  0  0  0  0  0
  136.5469   72.7839  220.3094 H   0  0  0  0  0  0  0  0  0  0  0  0
  136.9385   75.1584  219.2041 H   0  0  0  0  0  0  0  0  0  0  0  0
  138.9190   75.0120  221.2690 H   0  0  0  0  0  0  0  0  0  0  0  0
  140.7111   72.4192  219.2122 H   0  0  0  0  0  0  0  0  0  0  0  0
  140.9481   73.7781  220.3324 H   0  0  0  0  0  0  0  0  0  0  0  0
  140.3130   70.9610  221.1110 H   0  0  0  0  0  0  0  0  0  0  0  0
  138.8403   70.1579  222.5908 H   0  0  0  0  0  0  0  0  0  0  0  0
  138.6542   68.5492  224.4578 H   0  0  0  0  0  0  0  0  0  0  0  0
  139.1908   68.0132  226.7751 H   0  0  0  0  0  0  0  0  0  0  0  0
  140.2639   68.5999  228.9537 H   0  0  0  0  0  0  0  0  0  0  0  0
  141.4679   70.7765  229.1334 H   0  0  0  0  0  0  0  0  0  0  0  0
  141.5959   72.3165  227.1997 H   0  0  0  0  0  0  0  0  0  0  0  0
  136.2002   76.8218  220.3156 H   0  0  0  0  0  0  0  0  0  0  0  0
  134.7811   76.4897  222.1679 H   0  0  0  0  0  0  0  0  0  0  0  0
  135.1166   74.7664  221.8975 H   0  0  0  0  0  0  0  0  0  0  0  0
  135.8745   76.3898  224.1520 H   0  0  0  0  0  0  0  0  0  0  0  0
  136.2789   74.6952  223.8966 H   0  0  0  0  0  0  0  0  0  0  0  0
  138.1024   76.8365  223.8152 H   0  0  0  0  0  0  0  0  0  0  0  0
  138.4107   75.2404  223.0942 H   0  0  0  0  0  0  0  0  0  0  0  0
  137.6709   78.4303  220.6880 H   0  0  0  0  0  0  0  0  0  0  0  0
  136.9947   78.4904  222.4071 H   0  0  0  0  0  0  0  0  0  0  0  0
  140.2965   77.0714  221.6259 H   0  0  0  0  0  0  0  0  0  0  0  0
  142.3766   78.0506  222.4770 H   0  0  0  0  0  0  0  0  0  0  0  0
  140.2123   81.4646  223.8536 H   0  0  0  0  0  0  0  0  0  0  0  0
  138.1219   80.4852  223.0015 H   0  0  0  0  0  0  0  0  0  0  0  0
  1  2  1  0
  2  3  1  0
  3  4  1  0
  4  5  2  0
  4  6  1  0
  6  7  1  0
  7  8  1  0
  8  9  2  0
  8 10  1  0
 10 11  2  0
 11 12  1  0
 12 13  2  0
 13 14  1  0
 14 15  2  0
 15 16  1  0
 16 17  2  0
 17 18  1  0
 18 19  2  0
  2 20  1  0
 20 21  1  0
 21 22  1  0
 22 23  1  0
 23 24  1  0
 24 25  1  0
 25 26  1  0
 26 27  2  0
 27 28  1  0
 28 29  2  0
 29 30  1  0
 29 31  1  0
 31 32  2  0
 19 10  1  0
 24 20  1  0
 32 26  1  0
 18 13  1  0
  1 33  1  0
  1 34  1  0
  1 35  1  0
  2 36  1  6
  3 37  1  0
  6 38  1  0
  6 39  1  0
  7 40  1  0
 11 41  1  0
 12 42  1  0
 14 43  1  0
 15 44  1  0
 16 45  1  0
 17 46  1  0
 20 47  1  6
 21 48  1  0
 21 49  1  0
 22 50  1  0
 22 51  1  0
 23 52  1  0
 23 53  1  0
 25 54  1  0
 25 55  1  0
 27 56  1  0
 28 57  1  0
 31 58  1  0
 32 59  1  0
M  END
>  <smiles>  (49) 
C[C@H](NC(=O)CNC(=O)c1ccc2ccccc2n1)[C@H]1CCCN1Cc1ccc(Cl)cc1

>  <score_type>  (49) 
oracle

>  <origin>  (49) 
autodockgpu

>  <m_score__min__energy>  (49) 
-9.4600000000000009

>  <m_primary>  (49) 
energy

>  <rmsd>  (49) 
3.4720116057589165

>  <m_score__min__rmsd>  (49) 
3.4720116057589165

>  <meeko>  (49) 
{"free_energy": -7.81, "intermolecular_energy": -9.89, "internal_energy": -3.19, "cluster_size": 5, "cluster_id": 7, "rank_in_cluster": 2}

>  <energy>  (49) 
-6.03

>  <cluster_rmsd>  (49) 
1.17

>  <cluster>  (49) 
14

$$$$

     RDKit          3D

 59 62  0  0  0  0  0  0  0  0999 V2000
  138.2200   77.0340  222.7740 C   0  0  0  0  0  0  0  0  0  0  0  0
  139.0280   76.2420  221.7380 C   0  0  2  0  0  0  0  0  0  0  0  0
  138.6740   74.8520  221.9450 N   0  0  0  0  0  0  0  0  0  0  0  0
  138.6110   74.0020  220.8090 C   0  0  0  0  0  0  0  0  0  0  0  0
  138.8480   74.4070  219.6400 O   0  0  0  0  0  0  0  0  0  0  0  0
  138.2490   72.5710  220.9970 C   0  0  0  0  0  0  0  0  0  0  0  0
  138.5840   72.2290  222.3720 N   0  0  0  0  0  0  0  0  0  0  0  0
  139.6260   71.2990  222.6140 C   0  0  0  0  0  0  0  0  0  0  0  0
  140.2190   70.8090  221.6280 O   0  0  0  0  0  0  0  0  0  0  0  0
  139.9870   70.9350  223.9810 C   0  0  0  0  0  0  0  0  0  0  0  0
  140.6690   71.8350  224.7730 C   0  0  0  0  0  0  0  0  0  0  0  0
  141.0470   71.5670  226.0710 C   0  0  0  0  0  0  0  0  0  0  0  0
  140.7160   70.3220  226.5950 C   0  0  0  0  0  0  0  0  0  0  0  0
  141.0580   69.9800  227.8860 C   0  0  0  0  0  0  0  0  0  0  0  0
  140.7320   68.7390  228.4190 C   0  0  0  0  0  0  0  0  0  0  0  0
  140.0480   67.8530  227.6050 C   0  0  0  0  0  0  0  0  0  0  0  0
  139.6990   68.1910  226.3030 C   0  0  0  0  0  0  0  0  0  0  0  0
  140.0310   69.4270  225.7920 C   0  0  0  0  0  0  0  0  0  0  0  0
  139.6790   69.7350  224.5150 N   0  0  0  0  0  0  0  0  0  0  0  0
  140.4960   76.5250  221.9800 C   0  0  1  0  0  0  0  0  0  0  0  0
  141.3430   75.3240  221.5850 C   0  0  0  0  0  0  0  0  0  0  0  0
  141.9530   75.6450  220.2530 C   0  0  0  0  0  0  0  0  0  0  0  0
  141.4830   77.0520  219.9520 C   0  0  0  0  0  0  0  0  0  0  0  0
  140.9830   77.5960  221.1740 N   0  0  0  0  0  0  0  0  0  0  0  0
  141.8220   78.5460  221.8260 C   0  0  0  0  0  0  0  0  0  0  0  0
  141.5260   79.9550  221.5650 C   0  0  0  0  0  0  0  0  0  0  0  0
  141.5540   80.5050  220.2870 C   0  0  0  0  0  0  0  0  0  0  0  0
  141.2740   81.8350  220.0470 C   0  0  0  0  0  0  0  0  0  0  0  0
  140.9500   82.6860  221.0750 C   0  0  0  0  0  0  0  0  0  0  0  0
  140.5830   84.3820  220.8460 Cl  0  0  0  0  0  0  0  0  0  0  0  0
  140.9140   82.1710  222.3490 C   0  0  0  0  0  0  0  0  0  0  0  0
  141.1970   80.8340  222.5850 C   0  0  0  0  0  0  0  0  0  0  0  0
  138.5270   76.7330  223.7865 H   0  0  0  0  0  0  0  0  0  0  0  0
  138.4055   78.1098  222.6392 H   0  0  0  0  0  0  0  0  0  0  0  0
  137.1481   76.8270  222.6392 H   0  0  0  0  0  0  0  0  0  0  0  0
  138.8162   76.5153  220.6938 H   0  0  0  0  0  0  0  0  0  0  0  0
  138.4820   74.5380  222.9220 H   0  0  0  0  0  0  0  0  0  0  0  0
  137.1726   72.4267  220.8225 H   0  0  0  0  0  0  0  0  0  0  0  0
  138.7927   71.9300  220.2874 H   0  0  0  0  0  0  0  0  0  0  0  0
  138.0950   72.6320  223.1990 H   0  0  0  0  0  0  0  0  0  0  0  0
  140.9242   72.8165  224.3470 H   0  0  0  0  0  0  0  0  0  0  0  0
  141.5910   72.3113  226.6711 H   0  0  0  0  0  0  0  0  0  0  0  0
  141.6014   70.7062  228.5083 H   0  0  0  0  0  0  0  0  0  0  0  0
  141.0073   68.4707  229.4496 H   0  0  0  0  0  0  0  0  0  0  0  0
  139.7753   66.8618  227.9963 H   0  0  0  0  0  0  0  0  0  0  0  0
  139.1550   67.4683  225.6771 H   0  0  0  0  0  0  0  0  0  0  0  0
  140.5734   76.7696  223.0497 H   0  0  0  0  0  0  0  0  0  0  0  0
  142.1322   75.1547  222.3323 H   0  0  0  0  0  0  0  0  0  0  0  0
  140.7325   74.4106  221.5304 H   0  0  0  0  0  0  0  0  0  0  0  0
  143.0509   75.6049  220.3080 H   0  0  0  0  0  0  0  0  0  0  0  0
  141.6566   74.9284  219.4729 H   0  0  0  0  0  0  0  0  0  0  0  0
  142.3224   77.6599  219.5835 H   0  0  0  0  0  0  0  0  0  0  0  0
  140.7031   77.0476  219.1763 H   0  0  0  0  0  0  0  0  0  0  0  0
  141.7373   78.3804  222.9102 H   0  0  0  0  0  0  0  0  0  0  0  0
  142.8301   78.3766  221.4197 H   0  0  0  0  0  0  0  0  0  0  0  0
  141.8088   79.8556  219.4365 H   0  0  0  0  0  0  0  0  0  0  0  0
  141.3109   82.2191  219.0169 H   0  0  0  0  0  0  0  0  0  0  0  0
  140.6572   82.8283  223.1928 H   0  0  0  0  0  0  0  0  0  0  0  0
  141.1591   80.4579  223.6180 H   0  0  0  0  0  0  0  0  0  0  0  0
  1  2  1  0
  2  3  1  0
  3  4  1  0
  4  5  2  0
  4  6  1  0
  6  7  1  0
  7  8  1  0
  8  9  2  0
  8 10  1  0
 10 11  2  0
 11 12  1  0
 12 13  2  0
 13 14  1  0
 14 15  2  0
 15 16  1  0
 16 17  2  0
 17 18  1  0
 18 19  2  0
  2 20  1  0
 20 21  1  0
 21 22  1  0
 22 23  1  0
 23 24  1  0
 24 25  1  0
 25 26  1  0
 26 27  2  0
 27 28  1  0
 28 29  2  0
 29 30  1  0
 29 31  1  0
 31 32  2  0
 19 10  1  0
 24 20  1  0
 32 26  1  0
 18 13  1  0
  1 33  1  0
  1 34  1  0
  1 35  1  0
  2 36  1  6
  3 37  1  0
  6 38  1  0
  6 39  1  0
  7 40  1  0
 11 41  1  0
 12 42  1  0
 14 43  1  0
 15 44  1  0
 16 45  1  0
 17 46  1  0
 20 47  1  1
 21 48  1  0
 21 49  1  0
 22 50  1  0
 22 51  1  0
 23 52  1  0
 23 53  1  0
 25 54  1  0
 25 55  1  0
 27 56  1  0
 28 57  1  0
 31 58  1  0
 32 59  1  0
M  END
>  <smiles>  (50) 
C[C@H](NC(=O)CNC(=O)c1ccc2ccccc2n1)[C@H]1CCCN1Cc1ccc(Cl)cc1

>  <score_type>  (50) 
oracle

>  <origin>  (50) 
autodockgpu

>  <m_score__min__energy>  (50) 
-9.4600000000000009

>  <m_primary>  (50) 
energy

>  <rmsd>  (50) 
3.126755475240134

>  <m_score__min__rmsd>  (50) 
3.126755475240134

>  <meeko>  (50) 
{"free_energy": -8.91, "intermolecular_energy": -11.0, "internal_energy": -1.75, "cluster_size": 19, "cluster_id": 1, "rank_in_cluster": 7}

>  <energy>  (50) 
-5.81

>  <cluster_rmsd>  (50) 
0.0

>  <cluster>  (50) 
15

$$$$
