
     RDKit          3D

 48 52  0  0  0  0  0  0  0  0999 V2000
  142.9200   75.0060  220.2250 O   0  0  0  0  0  0  0  0  0  0  0  0
  141.8700   74.7500  220.8940 C   0  0  0  0  0  0  0  0  0  0  0  0
  141.5050   73.3230  221.0700 C   0  0  0  0  0  0  0  0  0  0  0  0
  140.2710   73.1970  221.8730 C   0  0  0  0  0  0  0  0  0  0  0  0
  139.6460   71.8860  222.1620 C   0  0  0  0  0  0  0  0  0  0  0  0
  139.4430   70.9950  221.1160 C   0  0  0  0  0  0  0  0  0  0  0  0
  138.9450   69.7310  221.2990 C   0  0  0  0  0  0  0  0  0  0  0  0
  138.6360   69.3410  222.5910 C   0  0  0  0  0  0  0  0  0  0  0  0
  138.8350   70.2270  223.6580 C   0  0  0  0  0  0  0  0  0  0  0  0
  138.5130   69.6900  224.9770 C   0  0  0  0  0  0  0  0  0  0  0  0
  137.3320   69.4320  225.3180 O   0  0  0  0  0  0  0  0  0  0  0  0
  139.6010   69.4680  225.8680 N   0  0  0  0  0  0  0  0  0  0  0  0
  141.0500   69.6040  225.8740 C   0  0  0  0  0  0  0  0  0  0  0  0
  141.0720   68.4420  226.8440 C   0  0  0  0  0  0  0  0  0  0  0  0
  139.7330   69.0070  227.2640 C   0  0  0  0  0  0  0  0  0  0  0  0
  139.3330   71.4900  223.4420 C   0  0  0  0  0  0  0  0  0  0  0  0
  139.6280   74.2160  222.3410 N   0  0  0  0  0  0  0  0  0  0  0  0
  139.9840   75.5770  222.1620 C   0  0  0  0  0  0  0  0  0  0  0  0
  139.1610   76.5450  222.7050 C   0  0  0  0  0  0  0  0  0  0  0  0
  139.5150   77.8560  222.4800 C   0  0  0  0  0  0  0  0  0  0  0  0
  140.6420   78.1970  221.7460 C   0  0  0  0  0  0  0  0  0  0  0  0
  140.9190   79.6110  221.5290 C   0  0  0  0  0  0  0  0  0  0  0  0
  141.0320   80.5550  222.5060 C   0  0  0  0  0  0  0  0  0  0  0  0
  141.2950   81.8740  222.1240 C   0  0  0  0  0  0  0  0  0  0  0  0
  141.4370   82.2190  220.8290 N   0  0  0  0  0  0  0  0  0  0  0  0
  141.3310   81.3130  219.8380 C   0  0  0  0  0  0  0  0  0  0  0  0
  141.0720   80.0110  220.1950 C   0  0  0  0  0  0  0  0  0  0  0  0
  141.4380   77.1920  221.2250 C   0  0  0  0  0  0  0  0  0  0  0  0
  141.1140   75.8620  221.4290 C   0  0  0  0  0  0  0  0  0  0  0  0
  141.3417   72.8671  220.0823 H   0  0  0  0  0  0  0  0  0  0  0  0
  142.3239   72.8097  221.5953 H   0  0  0  0  0  0  0  0  0  0  0  0
  139.6931   71.3182  220.0947 H   0  0  0  0  0  0  0  0  0  0  0  0
  138.7960   69.0498  220.4483 H   0  0  0  0  0  0  0  0  0  0  0  0
  138.2339   68.3347  222.7800 H   0  0  0  0  0  0  0  0  0  0  0  0
  141.5357   69.4067  224.9070 H   0  0  0  0  0  0  0  0  0  0  0  0
  141.5459   70.5602  226.0969 H   0  0  0  0  0  0  0  0  0  0  0  0
  141.0441   67.4413  226.3881 H   0  0  0  0  0  0  0  0  0  0  0  0
  141.8990   68.2352  227.5392 H   0  0  0  0  0  0  0  0  0  0  0  0
  138.9910   68.2577  227.5772 H   0  0  0  0  0  0  0  0  0  0  0  0
  139.6222   69.6858  228.1224 H   0  0  0  0  0  0  0  0  0  0  0  0
  139.4802   72.1792  224.2866 H   0  0  0  0  0  0  0  0  0  0  0  0
  138.2667   76.2809  223.2885 H   0  0  0  0  0  0  0  0  0  0  0  0
  138.8856   78.6573  222.8945 H   0  0  0  0  0  0  0  0  0  0  0  0
  140.9193   80.2861  223.5667 H   0  0  0  0  0  0  0  0  0  0  0  0
  141.3883   82.6488  222.8992 H   0  0  0  0  0  0  0  0  0  0  0  0
  141.4472   81.6038  218.7835 H   0  0  0  0  0  0  0  0  0  0  0  0
  140.9814   79.2537  219.4024 H   0  0  0  0  0  0  0  0  0  0  0  0
  142.3352   77.4522  220.6442 H   0  0  0  0  0  0  0  0  0  0  0  0
  1  2  2  0
  2  3  1  0
  3  4  1  0
  4  5  1  0
  5  6  2  0
  6  7  1  0
  7  8  2  0
  8  9  1  0
  9 10  1  0
 10 11  2  0
 10 12  1  0
 12 13  1  0
 13 14  1  0
 14 15  1  0
  9 16  2  0
  4 17  2  0
 17 18  1  0
 18 19  2  0
 19 20  1  0
 20 21  2  0
 21 22  1  0
 22 23  2  0
 23 24  1  0
 24 25  2  0
 25 26  1  0
 26 27  2  0
 21 28  1  0
 28 29  2  0
 29  2  1  0
 16  5  1  0
 29 18  1  0
 15 12  1  0
 27 22  1  0
  3 30  1  0
  3 31  1  0
  6 32  1  0
  7 33  1  0
  8 34  1  0
 13 35  1  0
 13 36  1  0
 14 37  1  0
 14 38  1  0
 15 39  1  0
 15 40  1  0
 16 41  1  0
 19 42  1  0
 20 43  1  0
 23 44  1  0
 24 45  1  0
 26 46  1  0
 27 47  1  0
 28 48  1  0
M  END
>  <smiles>  (1) 
O=C1CC(c2cccc(C(=O)N3CCC3)c2)=Nc2ccc(-c3ccncc3)cc21

>  <score_type>  (1) 
oracle

>  <origin>  (1) 
autodockgpu

>  <m_score__min__energy>  (1) 
-8.6099999999999994

>  <m_primary>  (1) 
energy

>  <rmsd>  (1) 
6.631354408732655

>  <m_score__min__rmsd>  (1) 
6.631354408732655

>  <meeko>  (1) 
{"free_energy": -7.69, "intermolecular_energy": -8.58, "internal_energy": -0.94, "cluster_size": 50, "cluster_id": 1, "rank_in_cluster": 50}

>  <energy>  (1) 
-8.61

>  <cluster_rmsd>  (1) 
0.0

>  <cluster>  (1) 
1

$$$$

     RDKit          3D

 48 52  0  0  0  0  0  0  0  0999 V2000
  143.1880   74.6700  219.8260 O   0  0  0  0  0  0  0  0  0  0  0  0
  142.1910   74.4190  220.5750 C   0  0  0  0  0  0  0  0  0  0  0  0
  141.8720   72.9930  220.8290 C   0  0  0  0  0  0  0  0  0  0  0  0
  140.6980   72.8730  221.7180 C   0  0  0  0  0  0  0  0  0  0  0  0
  140.1240   71.5620  222.0980 C   0  0  0  0  0  0  0  0  0  0  0  0
  139.8970   70.6160  221.1060 C   0  0  0  0  0  0  0  0  0  0  0  0
  139.4430   69.3510  221.3720 C   0  0  0  0  0  0  0  0  0  0  0  0
  139.2060   69.0160  222.6930 C   0  0  0  0  0  0  0  0  0  0  0  0
  139.4300   69.9560  223.7080 C   0  0  0  0  0  0  0  0  0  0  0  0
  139.1850   69.4750  225.0640 C   0  0  0  0  0  0  0  0  0  0  0  0
  138.5130   68.4380  225.2890 O   0  0  0  0  0  0  0  0  0  0  0  0
  139.7420   70.2370  226.1300 N   0  0  0  0  0  0  0  0  0  0  0  0
  140.5580   71.4290  226.3080 C   0  0  0  0  0  0  0  0  0  0  0  0
  141.0830   70.7800  227.5710 C   0  0  0  0  0  0  0  0  0  0  0  0
  139.7050   70.1580  227.6040 C   0  0  0  0  0  0  0  0  0  0  0  0
  139.8820   71.2200  223.4090 C   0  0  0  0  0  0  0  0  0  0  0  0
  140.0650   73.8970  222.1920 N   0  0  0  0  0  0  0  0  0  0  0  0
  140.3770   75.2560  221.9380 C   0  0  0  0  0  0  0  0  0  0  0  0
  139.5720   76.2280  222.4990 C   0  0  0  0  0  0  0  0  0  0  0  0
  139.8790   77.5350  222.2030 C   0  0  0  0  0  0  0  0  0  0  0  0
  140.9460   77.8710  221.3810 C   0  0  0  0  0  0  0  0  0  0  0  0
  141.1750   79.2810  221.0930 C   0  0  0  0  0  0  0  0  0  0  0  0
  141.0800   79.8620  219.8630 C   0  0  0  0  0  0  0  0  0  0  0  0
  141.3390   81.2320  219.7590 C   0  0  0  0  0  0  0  0  0  0  0  0
  141.6730   81.9730  220.8340 N   0  0  0  0  0  0  0  0  0  0  0  0
  141.7760   81.4310  222.0630 C   0  0  0  0  0  0  0  0  0  0  0  0
  141.5260   80.0850  222.1850 C   0  0  0  0  0  0  0  0  0  0  0  0
  141.7280   76.8620  220.8440 C   0  0  0  0  0  0  0  0  0  0  0  0
  141.4480   75.5350  221.1200 C   0  0  0  0  0  0  0  0  0  0  0  0
  141.6535   72.4955  219.8725 H   0  0  0  0  0  0  0  0  0  0  0  0
  142.7360   72.5178  221.3165 H   0  0  0  0  0  0  0  0  0  0  0  0
  140.0906   70.8953  220.0598 H   0  0  0  0  0  0  0  0  0  0  0  0
  139.2727   68.6261  220.5623 H   0  0  0  0  0  0  0  0  0  0  0  0
  138.8410   68.0099  222.9473 H   0  0  0  0  0  0  0  0  0  0  0  0
  141.3132   71.5920  225.5250 H   0  0  0  0  0  0  0  0  0  0  0  0
  140.1235   72.4396  226.3078 H   0  0  0  0  0  0  0  0  0  0  0  0
  141.9185   70.0779  227.4330 H   0  0  0  0  0  0  0  0  0  0  0  0
  141.5287   71.3351  228.4096 H   0  0  0  0  0  0  0  0  0  0  0  0
  139.6664   69.1376  228.0129 H   0  0  0  0  0  0  0  0  0  0  0  0
  138.8808   70.5813  228.1969 H   0  0  0  0  0  0  0  0  0  0  0  0
  140.0490   71.9527  224.2123 H   0  0  0  0  0  0  0  0  0  0  0  0
  138.7254   75.9687  223.1517 H   0  0  0  0  0  0  0  0  0  0  0  0
  139.2608   78.3383  222.6302 H   0  0  0  0  0  0  0  0  0  0  0  0
  140.8072   79.2694  218.9774 H   0  0  0  0  0  0  0  0  0  0  0  0
  141.2683   81.7175  218.7745 H   0  0  0  0  0  0  0  0  0  0  0  0
  142.0497   82.0423  222.9356 H   0  0  0  0  0  0  0  0  0  0  0  0
  141.6046   79.6209  223.1792 H   0  0  0  0  0  0  0  0  0  0  0  0
  142.5776   77.1170  220.1935 H   0  0  0  0  0  0  0  0  0  0  0  0
  1  2  2  0
  2  3  1  0
  3  4  1  0
  4  5  1  0
  5  6  2  0
  6  7  1  0
  7  8  2  0
  8  9  1  0
  9 10  1  0
 10 11  2  0
 10 12  1  0
 12 13  1  0
 13 14  1  0
 14 15  1  0
  9 16  2  0
  4 17  2  0
 17 18  1  0
 18 19  2  0
 19 20  1  0
 20 21  2  0
 21 22  1  0
 22 23  2  0
 23 24  1  0
 24 25  2  0
 25 26  1  0
 26 27  2  0
 21 28  1  0
 28 29  2  0
 29  2  1  0
 16  5  1  0
 29 18  1  0
 15 12  1  0
 27 22  1  0
  3 30  1  0
  3 31  1  0
  6 32  1  0
  7 33  1  0
  8 34  1  0
 13 35  1  0
 13 36  1  0
 14 37  1  0
 14 38  1  0
 15 39  1  0
 15 40  1  0
 16 41  1  0
 19 42  1  0
 20 43  1  0
 23 44  1  0
 24 45  1  0
 26 46  1  0
 27 47  1  0
 28 48  1  0
M  END
>  <smiles>  (2) 
O=C1CC(c2cccc(C(=O)N3CCC3)c2)=Nc2ccc(-c3ccncc3)cc21

>  <score_type>  (2) 
oracle

>  <origin>  (2) 
autodockgpu

>  <m_score__min__energy>  (2) 
-8.6099999999999994

>  <m_primary>  (2) 
energy

>  <rmsd>  (2) 
6.451499090883313

>  <m_score__min__rmsd>  (2) 
6.451499090883313

>  <meeko>  (2) 
{"free_energy": -8.23, "intermolecular_energy": -9.13, "internal_energy": -0.82, "cluster_size": 50, "cluster_id": 1, "rank_in_cluster": 42}

>  <energy>  (2) 
-8.58

>  <cluster_rmsd>  (2) 
0.05

>  <cluster>  (2) 
1

$$$$

     RDKit          3D

 48 52  0  0  0  0  0  0  0  0999 V2000
  143.1850   73.6980  220.1210 O   0  0  0  0  0  0  0  0  0  0  0  0
  142.1310   73.6030  220.8270 C   0  0  0  0  0  0  0  0  0  0  0  0
  141.6990   72.2420  221.2260 C   0  0  0  0  0  0  0  0  0  0  0  0
  140.4710   72.3050  222.0440 C   0  0  0  0  0  0  0  0  0  0  0  0
  139.7860   71.0890  222.5370 C   0  0  0  0  0  0  0  0  0  0  0  0
  139.0660   70.3130  221.6380 C   0  0  0  0  0  0  0  0  0  0  0  0
  138.4650   69.1310  221.9860 C   0  0  0  0  0  0  0  0  0  0  0  0
  138.5930   68.7050  223.2970 C   0  0  0  0  0  0  0  0  0  0  0  0
  139.3160   69.4740  224.2180 C   0  0  0  0  0  0  0  0  0  0  0  0
  139.4160   68.9030  225.5580 C   0  0  0  0  0  0  0  0  0  0  0  0
  139.1580   67.6960  225.7860 O   0  0  0  0  0  0  0  0  0  0  0  0
  139.8220   69.7800  226.6040 N   0  0  0  0  0  0  0  0  0  0  0  0
  140.2150   71.1720  226.7700 C   0  0  0  0  0  0  0  0  0  0  0  0
  141.0800   70.7030  227.9210 C   0  0  0  0  0  0  0  0  0  0  0  0
  140.0000   69.6550  228.0650 C   0  0  0  0  0  0  0  0  0  0  0  0
  139.9040   70.6580  223.8390 C   0  0  0  0  0  0  0  0  0  0  0  0
  139.8840   73.4160  222.3510 N   0  0  0  0  0  0  0  0  0  0  0  0
  140.3050   74.7130  221.9600 C   0  0  0  0  0  0  0  0  0  0  0  0
  139.5380   75.7930  222.3480 C   0  0  0  0  0  0  0  0  0  0  0  0
  139.9530   77.0340  221.9200 C   0  0  0  0  0  0  0  0  0  0  0  0
  141.0860   77.1990  221.1360 C   0  0  0  0  0  0  0  0  0  0  0  0
  141.4290   78.5460  220.6980 C   0  0  0  0  0  0  0  0  0  0  0  0
  141.4090   79.6620  221.4820 C   0  0  0  0  0  0  0  0  0  0  0  0
  141.7630   80.8830  220.9010 C   0  0  0  0  0  0  0  0  0  0  0  0
  142.1180   80.9730  219.6050 N   0  0  0  0  0  0  0  0  0  0  0  0
  142.1490   79.8910  218.8020 C   0  0  0  0  0  0  0  0  0  0  0  0
  141.8030   78.6810  219.3550 C   0  0  0  0  0  0  0  0  0  0  0  0
  141.8250   76.0850  220.7740 C   0  0  0  0  0  0  0  0  0  0  0  0
  141.4380   74.8220  221.1860 C   0  0  0  0  0  0  0  0  0  0  0  0
  141.5014   71.6461  220.3227 H   0  0  0  0  0  0  0  0  0  0  0  0
  142.4982   71.7768  221.8216 H   0  0  0  0  0  0  0  0  0  0  0  0
  138.9737   70.6628  220.5992 H   0  0  0  0  0  0  0  0  0  0  0  0
  137.9004   68.5413  221.2488 H   0  0  0  0  0  0  0  0  0  0  0  0
  138.1263   67.7613  223.6159 H   0  0  0  0  0  0  0  0  0  0  0  0
  140.7688   71.5994  225.9211 H   0  0  0  0  0  0  0  0  0  0  0  0
  139.4755   71.9781  226.8855 H   0  0  0  0  0  0  0  0  0  0  0  0
  142.0754   70.3251  227.6445 H   0  0  0  0  0  0  0  0  0  0  0  0
  141.4205   71.3532  228.7404 H   0  0  0  0  0  0  0  0  0  0  0  0
  140.3517   68.6704  228.4069 H   0  0  0  0  0  0  0  0  0  0  0  0
  139.1645   69.7622  228.7724 H   0  0  0  0  0  0  0  0  0  0  0  0
  140.4650   71.2568  224.5716 H   0  0  0  0  0  0  0  0  0  0  0  0
  138.6387   75.6682  222.9691 H   0  0  0  0  0  0  0  0  0  0  0  0
  139.3693   77.9208  222.2080 H   0  0  0  0  0  0  0  0  0  0  0  0
  141.1222   79.6027  222.5423 H   0  0  0  0  0  0  0  0  0  0  0  0
  141.7513   81.7936  221.5180 H   0  0  0  0  0  0  0  0  0  0  0  0
  142.4401   79.9730  217.7444 H   0  0  0  0  0  0  0  0  0  0  0  0
  141.8205   77.7842  218.7182 H   0  0  0  0  0  0  0  0  0  0  0  0
  142.7260   76.2051  220.1545 H   0  0  0  0  0  0  0  0  0  0  0  0
  1  2  2  0
  2  3  1  0
  3  4  1  0
  4  5  1  0
  5  6  2  0
  6  7  1  0
  7  8  2  0
  8  9  1  0
  9 10  1  0
 10 11  2  0
 10 12  1  0
 12 13  1  0
 13 14  1  0
 14 15  1  0
  9 16  2  0
  4 17  2  0
 17 18  1  0
 18 19  2  0
 19 20  1  0
 20 21  2  0
 21 22  1  0
 22 23  2  0
 23 24  1  0
 24 25  2  0
 25 26  1  0
 26 27  2  0
 21 28  1  0
 28 29  2  0
 29  2  1  0
 16  5  1  0
 29 18  1  0
 15 12  1  0
 27 22  1  0
  3 30  1  0
  3 31  1  0
  6 32  1  0
  7 33  1  0
  8 34  1  0
 13 35  1  0
 13 36  1  0
 14 37  1  0
 14 38  1  0
 15 39  1  0
 15 40  1  0
 16 41  1  0
 19 42  1  0
 20 43  1  0
 23 44  1  0
 24 45  1  0
 26 46  1  0
 27 47  1  0
 28 48  1  0
M  END
>  <smiles>  (3) 
O=C1CC(c2cccc(C(=O)N3CCC3)c2)=Nc2ccc(-c3ccncc3)cc21

>  <score_type>  (3) 
oracle

>  <origin>  (3) 
autodockgpu

>  <m_score__min__energy>  (3) 
-8.6099999999999994

>  <m_primary>  (3) 
energy

>  <rmsd>  (3) 
6.282714371005153

>  <m_score__min__rmsd>  (3) 
6.282714371005153

>  <meeko>  (3) 
{"free_energy": -8.52, "intermolecular_energy": -9.42, "internal_energy": -0.82, "cluster_size": 50, "cluster_id": 1, "rank_in_cluster": 6}

>  <energy>  (3) 
-8.57

>  <cluster_rmsd>  (3) 
0.07

>  <cluster>  (3) 
1

$$$$

     RDKit          3D

 48 52  0  0  0  0  0  0  0  0999 V2000
  142.8620   73.0380  220.1870 O   0  0  0  0  0  0  0  0  0  0  0  0
  141.8340   73.2470  220.9050 C   0  0  0  0  0  0  0  0  0  0  0  0
  141.2390   72.0790  221.5990 C   0  0  0  0  0  0  0  0  0  0  0  0
  140.0630   72.4900  222.3940 C   0  0  0  0  0  0  0  0  0  0  0  0
  139.2400   71.5180  223.1490 C   0  0  0  0  0  0  0  0  0  0  0  0
  137.8690   71.4860  222.9300 C   0  0  0  0  0  0  0  0  0  0  0  0
  137.0400   70.5710  223.5240 C   0  0  0  0  0  0  0  0  0  0  0  0
  137.6110   69.6420  224.3760 C   0  0  0  0  0  0  0  0  0  0  0  0
  138.9920   69.6580  224.6090 C   0  0  0  0  0  0  0  0  0  0  0  0
  139.4840   68.6050  225.4930 C   0  0  0  0  0  0  0  0  0  0  0  0
  139.5660   67.4090  225.1200 O   0  0  0  0  0  0  0  0  0  0  0  0
  139.8690   68.9940  226.8070 N   0  0  0  0  0  0  0  0  0  0  0  0
  139.9490   70.2090  227.6060 C   0  0  0  0  0  0  0  0  0  0  0  0
  141.1070   69.5570  228.3310 C   0  0  0  0  0  0  0  0  0  0  0  0
  140.3540   68.2860  228.0090 C   0  0  0  0  0  0  0  0  0  0  0  0
  139.7980   70.5920  224.0010 C   0  0  0  0  0  0  0  0  0  0  0  0
  139.6440   73.7120  222.4530 N   0  0  0  0  0  0  0  0  0  0  0  0
  140.2200   74.8200  221.7820 C   0  0  0  0  0  0  0  0  0  0  0  0
  139.6220   76.0560  221.9290 C   0  0  0  0  0  0  0  0  0  0  0  0
  140.1830   77.1030  221.2340 C   0  0  0  0  0  0  0  0  0  0  0  0
  141.2960   76.9340  220.4230 C   0  0  0  0  0  0  0  0  0  0  0  0
  141.8000   78.0920  219.6960 C   0  0  0  0  0  0  0  0  0  0  0  0
  142.5410   78.0470  218.5530 C   0  0  0  0  0  0  0  0  0  0  0  0
  142.9510   79.2570  217.9840 C   0  0  0  0  0  0  0  0  0  0  0  0
  142.6300   80.4430  218.5360 N   0  0  0  0  0  0  0  0  0  0  0  0
  141.9000   80.5240  219.6660 C   0  0  0  0  0  0  0  0  0  0  0  0
  141.4880   79.3450  220.2400 C   0  0  0  0  0  0  0  0  0  0  0  0
  141.8630   75.6760  220.3090 C   0  0  0  0  0  0  0  0  0  0  0  0
  141.3260   74.5990  220.9930 C   0  0  0  0  0  0  0  0  0  0  0  0
  140.9278   71.3344  220.8516 H   0  0  0  0  0  0  0  0  0  0  0  0
  141.9913   71.6475  222.2757 H   0  0  0  0  0  0  0  0  0  0  0  0
  137.4286   72.2289  222.2487 H   0  0  0  0  0  0  0  0  0  0  0  0
  135.9572   70.5747  223.3302 H   0  0  0  0  0  0  0  0  0  0  0  0
  136.9793   68.8898  224.8711 H   0  0  0  0  0  0  0  0  0  0  0  0
  140.2104   71.1160  227.0412 H   0  0  0  0  0  0  0  0  0  0  0  0
  139.0779   70.6138  228.1420 H   0  0  0  0  0  0  0  0  0  0  0  0
  142.0899   69.6625  227.8486 H   0  0  0  0  0  0  0  0  0  0  0  0
  141.4373   69.8378  229.3419 H   0  0  0  0  0  0  0  0  0  0  0  0
  140.9879   67.4100  227.8070 H   0  0  0  0  0  0  0  0  0  0  0  0
  139.6717   67.8070  228.7267 H   0  0  0  0  0  0  0  0  0  0  0  0
  140.8809   70.5990  224.1942 H   0  0  0  0  0  0  0  0  0  0  0  0
  138.7397   76.1969  222.5707 H   0  0  0  0  0  0  0  0  0  0  0  0
  139.7356   78.1038  221.3241 H   0  0  0  0  0  0  0  0  0  0  0  0
  142.8092   77.0855  218.0908 H   0  0  0  0  0  0  0  0  0  0  0  0
  143.5509   79.2397  217.0622 H   0  0  0  0  0  0  0  0  0  0  0  0
  141.6437   81.4964  220.1118 H   0  0  0  0  0  0  0  0  0  0  0  0
  140.8901   79.3868  221.1624 H   0  0  0  0  0  0  0  0  0  0  0  0
  142.7467   75.5313  219.6702 H   0  0  0  0  0  0  0  0  0  0  0  0
  1  2  2  0
  2  3  1  0
  3  4  1  0
  4  5  1  0
  5  6  2  0
  6  7  1  0
  7  8  2  0
  8  9  1  0
  9 10  1  0
 10 11  2  0
 10 12  1  0
 12 13  1  0
 13 14  1  0
 14 15  1  0
  9 16  2  0
  4 17  2  0
 17 18  1  0
 18 19  2  0
 19 20  1  0
 20 21  2  0
 21 22  1  0
 22 23  2  0
 23 24  1  0
 24 25  2  0
 25 26  1  0
 26 27  2  0
 21 28  1  0
 28 29  2  0
 29  2  1  0
 16  5  1  0
 29 18  1  0
 15 12  1  0
 27 22  1  0
  3 30  1  0
  3 31  1  0
  6 32  1  0
  7 33  1  0
  8 34  1  0
 13 35  1  0
 13 36  1  0
 14 37  1  0
 14 38  1  0
 15 39  1  0
 15 40  1  0
 16 41  1  0
 19 42  1  0
 20 43  1  0
 23 44  1  0
 24 45  1  0
 26 46  1  0
 27 47  1  0
 28 48  1  0
M  END
>  <smiles>  (4) 
O=C1CC(c2cccc(C(=O)N3CCC3)c2)=Nc2ccc(-c3ccncc3)cc21

>  <score_type>  (4) 
oracle

>  <origin>  (4) 
autodockgpu

>  <m_score__min__energy>  (4) 
-8.6099999999999994

>  <m_primary>  (4) 
energy

>  <rmsd>  (4) 
6.503846842007211

>  <m_score__min__rmsd>  (4) 
6.503846842007211

>  <meeko>  (4) 
{"free_energy": -8.49, "intermolecular_energy": -9.39, "internal_energy": -0.93, "cluster_size": 50, "cluster_id": 1, "rank_in_cluster": 26}

>  <energy>  (4) 
-8.55

>  <cluster_rmsd>  (4) 
0.14

>  <cluster>  (4) 
1

$$$$

     RDKit          3D

 48 52  0  0  0  0  0  0  0  0999 V2000
  143.0360   75.1270  219.9930 O   0  0  0  0  0  0  0  0  0  0  0  0
  142.0330   74.8070  220.7050 C   0  0  0  0  0  0  0  0  0  0  0  0
  141.7710   73.3600  220.9010 C   0  0  0  0  0  0  0  0  0  0  0  0
  140.5820   73.1580  221.7540 C   0  0  0  0  0  0  0  0  0  0  0  0
  140.0570   71.8100  222.0720 C   0  0  0  0  0  0  0  0  0  0  0  0
  139.8920   70.8940  221.0420 C   0  0  0  0  0  0  0  0  0  0  0  0
  139.4870   69.6010  221.2510 C   0  0  0  0  0  0  0  0  0  0  0  0
  139.2380   69.2070  222.5540 C   0  0  0  0  0  0  0  0  0  0  0  0
  139.4000   70.1170  223.6070 C   0  0  0  0  0  0  0  0  0  0  0  0
  139.1480   69.5760  224.9390 C   0  0  0  0  0  0  0  0  0  0  0  0
  138.4600   68.5400  225.1150 O   0  0  0  0  0  0  0  0  0  0  0  0
  139.7190   70.2750  226.0390 N   0  0  0  0  0  0  0  0  0  0  0  0
  140.5540   71.4450  226.2730 C   0  0  0  0  0  0  0  0  0  0  0  0
  141.0690   70.7270  227.5030 C   0  0  0  0  0  0  0  0  0  0  0  0
  139.6820   70.1260  227.5080 C   0  0  0  0  0  0  0  0  0  0  0  0
  139.8040   71.4090  223.3640 C   0  0  0  0  0  0  0  0  0  0  0  0
  139.8920   74.1350  222.2450 N   0  0  0  0  0  0  0  0  0  0  0  0
  140.1500   75.5150  222.0480 C   0  0  0  0  0  0  0  0  0  0  0  0
  139.2880   76.4300  222.6200 C   0  0  0  0  0  0  0  0  0  0  0  0
  139.5450   77.7600  222.3770 C   0  0  0  0  0  0  0  0  0  0  0  0
  140.6160   78.1700  221.5960 C   0  0  0  0  0  0  0  0  0  0  0  0
  140.7890   79.5980  221.3630 C   0  0  0  0  0  0  0  0  0  0  0  0
  140.4650   80.5890  222.2420 C   0  0  0  0  0  0  0  0  0  0  0  0
  140.6920   81.9140  221.8570 C   0  0  0  0  0  0  0  0  0  0  0  0
  141.2160   82.2210  220.6540 N   0  0  0  0  0  0  0  0  0  0  0  0
  141.5460   81.2670  219.7610 C   0  0  0  0  0  0  0  0  0  0  0  0
  141.3300   79.9590  220.1220 C   0  0  0  0  0  0  0  0  0  0  0  0
  141.4550   77.2160  221.0460 C   0  0  0  0  0  0  0  0  0  0  0  0
  141.2280   75.8690  221.2680 C   0  0  0  0  0  0  0  0  0  0  0  0
  141.5984   72.8880  219.9225 H   0  0  0  0  0  0  0  0  0  0  0  0
  142.6428   72.9053  221.3942 H   0  0  0  0  0  0  0  0  0  0  0  0
  140.0954   71.2204  220.0114 H   0  0  0  0  0  0  0  0  0  0  0  0
  139.3642   68.9007  220.4117 H   0  0  0  0  0  0  0  0  0  0  0  0
  138.9123   68.1774  222.7634 H   0  0  0  0  0  0  0  0  0  0  0  0
  141.3114   71.6337  225.4980 H   0  0  0  0  0  0  0  0  0  0  0  0
  140.1357   72.4612  226.3218 H   0  0  0  0  0  0  0  0  0  0  0  0
  141.8932   70.0193  227.3302 H   0  0  0  0  0  0  0  0  0  0  0  0
  141.5236   71.2340  228.3669 H   0  0  0  0  0  0  0  0  0  0  0  0
  139.6277   69.0879  227.8676 H   0  0  0  0  0  0  0  0  0  0  0  0
  138.8650   70.5333  228.1217 H   0  0  0  0  0  0  0  0  0  0  0  0
  139.9241   72.1173  224.1970 H   0  0  0  0  0  0  0  0  0  0  0  0
  138.4371   76.1111  223.2399 H   0  0  0  0  0  0  0  0  0  0  0  0
  138.8817   78.5205  222.8149 H   0  0  0  0  0  0  0  0  0  0  0  0
  140.0367   80.3525  223.2272 H   0  0  0  0  0  0  0  0  0  0  0  0
  140.4364   82.7261  222.5536 H   0  0  0  0  0  0  0  0  0  0  0  0
  141.9721   81.5257  218.7804 H   0  0  0  0  0  0  0  0  0  0  0  0
  141.5922   79.1639  219.4085 H   0  0  0  0  0  0  0  0  0  0  0  0
  142.3086   77.5310  220.4278 H   0  0  0  0  0  0  0  0  0  0  0  0
  1  2  2  0
  2  3  1  0
  3  4  1  0
  4  5  1  0
  5  6  2  0
  6  7  1  0
  7  8  2  0
  8  9  1  0
  9 10  1  0
 10 11  2  0
 10 12  1  0
 12 13  1  0
 13 14  1  0
 14 15  1  0
  9 16  2  0
  4 17  2  0
 17 18  1  0
 18 19  2  0
 19 20  1  0
 20 21  2  0
 21 22  1  0
 22 23  2  0
 23 24  1  0
 24 25  2  0
 25 26  1  0
 26 27  2  0
 21 28  1  0
 28 29  2  0
 29  2  1  0
 16  5  1  0
 29 18  1  0
 15 12  1  0
 27 22  1  0
  3 30  1  0
  3 31  1  0
  6 32  1  0
  7 33  1  0
  8 34  1  0
 13 35  1  0
 13 36  1  0
 14 37  1  0
 14 38  1  0
 15 39  1  0
 15 40  1  0
 16 41  1  0
 19 42  1  0
 20 43  1  0
 23 44  1  0
 24 45  1  0
 26 46  1  0
 27 47  1  0
 28 48  1  0
M  END
>  <smiles>  (5) 
O=C1CC(c2cccc(C(=O)N3CCC3)c2)=Nc2ccc(-c3ccncc3)cc21

>  <score_type>  (5) 
oracle

>  <origin>  (5) 
autodockgpu

>  <m_score__min__energy>  (5) 
-8.6099999999999994

>  <m_primary>  (5) 
energy

>  <rmsd>  (5) 
6.499394841104109

>  <m_score__min__rmsd>  (5) 
6.499394841104109

>  <meeko>  (5) 
{"free_energy": -8.0, "intermolecular_energy": -8.89, "internal_energy": -0.84, "cluster_size": 50, "cluster_id": 1, "rank_in_cluster": 46}

>  <energy>  (5) 
-8.54

>  <cluster_rmsd>  (5) 
0.28

>  <cluster>  (5) 
1

$$$$

     RDKit          3D

 48 52  0  0  0  0  0  0  0  0999 V2000
  143.1650   74.1360  219.9950 O   0  0  0  0  0  0  0  0  0  0  0  0
  142.1350   73.9660  220.7200 C   0  0  0  0  0  0  0  0  0  0  0  0
  141.7530   72.5700  221.0450 C   0  0  0  0  0  0  0  0  0  0  0  0
  140.5460   72.5460  221.8970 C   0  0  0  0  0  0  0  0  0  0  0  0
  139.9090   71.2820  222.3310 C   0  0  0  0  0  0  0  0  0  0  0  0
  139.3240   70.4620  221.3740 C   0  0  0  0  0  0  0  0  0  0  0  0
  138.7820   69.2390  221.6720 C   0  0  0  0  0  0  0  0  0  0  0  0
  138.8280   68.8160  222.9880 C   0  0  0  0  0  0  0  0  0  0  0  0
  139.4150   69.6290  223.9670 C   0  0  0  0  0  0  0  0  0  0  0  0
  139.4420   69.0600  225.3110 C   0  0  0  0  0  0  0  0  0  0  0  0
  139.1450   67.8600  225.5300 O   0  0  0  0  0  0  0  0  0  0  0  0
  139.8230   69.9290  226.3730 N   0  0  0  0  0  0  0  0  0  0  0  0
  140.2420   71.3110  226.5540 C   0  0  0  0  0  0  0  0  0  0  0  0
  141.0430   70.8250  227.7430 C   0  0  0  0  0  0  0  0  0  0  0  0
  139.9330   69.8030  227.8400 C   0  0  0  0  0  0  0  0  0  0  0  0
  139.9480   70.8530  223.6380 C   0  0  0  0  0  0  0  0  0  0  0  0
  139.9360   73.6190  222.2860 N   0  0  0  0  0  0  0  0  0  0  0  0
  140.3090   74.9480  221.9660 C   0  0  0  0  0  0  0  0  0  0  0  0
  139.5220   75.9800  222.4390 C   0  0  0  0  0  0  0  0  0  0  0  0
  139.8900   77.2560  222.0780 C   0  0  0  0  0  0  0  0  0  0  0  0
  140.9960   77.5030  221.2780 C   0  0  0  0  0  0  0  0  0  0  0  0
  141.2890   78.8840  220.9160 C   0  0  0  0  0  0  0  0  0  0  0  0
  141.5120   79.3400  219.6500 C   0  0  0  0  0  0  0  0  0  0  0  0
  141.7850   80.7000  219.4770 C   0  0  0  0  0  0  0  0  0  0  0  0
  141.8310   81.5500  220.5210 N   0  0  0  0  0  0  0  0  0  0  0  0
  141.6170   81.1340  221.7840 C   0  0  0  0  0  0  0  0  0  0  0  0
  141.3460   79.8000  221.9740 C   0  0  0  0  0  0  0  0  0  0  0  0
  141.7570   76.4360  220.8290 C   0  0  0  0  0  0  0  0  0  0  0  0
  141.4170   75.1390  221.1710 C   0  0  0  0  0  0  0  0  0  0  0  0
  141.5478   72.0248  220.1119 H   0  0  0  0  0  0  0  0  0  0  0  0
  142.5812   72.0934  221.5899 H   0  0  0  0  0  0  0  0  0  0  0  0
  139.2946   70.8098  220.3309 H   0  0  0  0  0  0  0  0  0  0  0  0
  138.3254   68.6143  220.8902 H   0  0  0  0  0  0  0  0  0  0  0  0
  138.4033   67.8403  223.2666 H   0  0  0  0  0  0  0  0  0  0  0  0
  140.8433   71.7224  225.7299 H   0  0  0  0  0  0  0  0  0  0  0  0
  139.5179   72.1351  226.6350 H   0  0  0  0  0  0  0  0  0  0  0  0
  142.0405   70.4231  227.5120 H   0  0  0  0  0  0  0  0  0  0  0  0
  141.3617   71.4691  228.5758 H   0  0  0  0  0  0  0  0  0  0  0  0
  140.2458   68.8111  228.1982 H   0  0  0  0  0  0  0  0  0  0  0  0
  139.0697   69.9314  228.5095 H   0  0  0  0  0  0  0  0  0  0  0  0
  140.4028   71.4854  224.4147 H   0  0  0  0  0  0  0  0  0  0  0  0
  138.6436   75.7910  223.0735 H   0  0  0  0  0  0  0  0  0  0  0  0
  139.2891   78.1056  222.4345 H   0  0  0  0  0  0  0  0  0  0  0  0
  141.4779   78.6564  218.7889 H   0  0  0  0  0  0  0  0  0  0  0  0
  141.9668   81.0857  218.4630 H   0  0  0  0  0  0  0  0  0  0  0  0
  141.6576   81.8349  222.6308 H   0  0  0  0  0  0  0  0  0  0  0  0
  141.1668   79.4376  222.9970 H   0  0  0  0  0  0  0  0  0  0  0  0
  142.6376   76.6211  220.1963 H   0  0  0  0  0  0  0  0  0  0  0  0
  1  2  2  0
  2  3  1  0
  3  4  1  0
  4  5  1  0
  5  6  2  0
  6  7  1  0
  7  8  2  0
  8  9  1  0
  9 10  1  0
 10 11  2  0
 10 12  1  0
 12 13  1  0
 13 14  1  0
 14 15  1  0
  9 16  2  0
  4 17  2  0
 17 18  1  0
 18 19  2  0
 19 20  1  0
 20 21  2  0
 21 22  1  0
 22 23  2  0
 23 24  1  0
 24 25  2  0
 25 26  1  0
 26 27  2  0
 21 28  1  0
 28 29  2  0
 29  2  1  0
 16  5  1  0
 29 18  1  0
 15 12  1  0
 27 22  1  0
  3 30  1  0
  3 31  1  0
  6 32  1  0
  7 33  1  0
  8 34  1  0
 13 35  1  0
 13 36  1  0
 14 37  1  0
 14 38  1  0
 15 39  1  0
 15 40  1  0
 16 41  1  0
 19 42  1  0
 20 43  1  0
 23 44  1  0
 24 45  1  0
 26 46  1  0
 27 47  1  0
 28 48  1  0
M  END
>  <smiles>  (6) 
O=C1CC(c2cccc(C(=O)N3CCC3)c2)=Nc2ccc(-c3ccncc3)cc21

>  <score_type>  (6) 
oracle

>  <origin>  (6) 
autodockgpu

>  <m_score__min__energy>  (6) 
-8.6099999999999994

>  <m_primary>  (6) 
energy

>  <rmsd>  (6) 
6.328911761147704

>  <m_score__min__rmsd>  (6) 
6.328911761147704

>  <meeko>  (6) 
{"free_energy": -8.51, "intermolecular_energy": -9.4, "internal_energy": -0.81, "cluster_size": 50, "cluster_id": 1, "rank_in_cluster": 7}

>  <energy>  (6) 
-8.52

>  <cluster_rmsd>  (6) 
0.31

>  <cluster>  (6) 
1

$$$$

     RDKit          3D

 48 52  0  0  0  0  0  0  0  0999 V2000
  142.8570   73.0360  220.2270 O   0  0  0  0  0  0  0  0  0  0  0  0
  141.8230   73.2210  220.9430 C   0  0  0  0  0  0  0  0  0  0  0  0
  141.2330   72.0340  221.6080 C   0  0  0  0  0  0  0  0  0  0  0  0
  140.0490   72.4190  222.4040 C   0  0  0  0  0  0  0  0  0  0  0  0
  139.2300   71.4250  223.1330 C   0  0  0  0  0  0  0  0  0  0  0  0
  137.8810   71.3070  222.8210 C   0  0  0  0  0  0  0  0  0  0  0  0
  137.0640   70.3640  223.3870 C   0  0  0  0  0  0  0  0  0  0  0  0
  137.6230   69.4960  224.3080 C   0  0  0  0  0  0  0  0  0  0  0  0
  138.9820   69.5990  224.6360 C   0  0  0  0  0  0  0  0  0  0  0  0
  139.4670   68.6040  225.5880 C   0  0  0  0  0  0  0  0  0  0  0  0
  139.5300   67.3840  225.2990 O   0  0  0  0  0  0  0  0  0  0  0  0
  139.8690   69.0790  226.8680 N   0  0  0  0  0  0  0  0  0  0  0  0
  139.9720   70.3460  227.5790 C   0  0  0  0  0  0  0  0  0  0  0  0
  141.1290   69.7300  228.3390 C   0  0  0  0  0  0  0  0  0  0  0  0
  140.3550   68.4500  228.1130 C   0  0  0  0  0  0  0  0  0  0  0  0
  139.7750   70.5590  224.0540 C   0  0  0  0  0  0  0  0  0  0  0  0
  139.6190   73.6360  222.4860 N   0  0  0  0  0  0  0  0  0  0  0  0
  140.1900   74.7630  221.8410 C   0  0  0  0  0  0  0  0  0  0  0  0
  139.5800   75.9910  222.0100 C   0  0  0  0  0  0  0  0  0  0  0  0
  140.1370   77.0560  221.3410 C   0  0  0  0  0  0  0  0  0  0  0  0
  141.2570   76.9130  220.5340 C   0  0  0  0  0  0  0  0  0  0  0  0
  141.7560   78.0910  219.8340 C   0  0  0  0  0  0  0  0  0  0  0  0
  141.6300   79.3780  220.2640 C   0  0  0  0  0  0  0  0  0  0  0  0
  142.1630   80.3950  219.4670 C   0  0  0  0  0  0  0  0  0  0  0  0
  142.7870   80.1280  218.3030 N   0  0  0  0  0  0  0  0  0  0  0  0
  142.9280   78.8670  217.8480 C   0  0  0  0  0  0  0  0  0  0  0  0
  142.4100   77.8540  218.6180 C   0  0  0  0  0  0  0  0  0  0  0  0
  141.8350   75.6630  220.3970 C   0  0  0  0  0  0  0  0  0  0  0  0
  141.3030   74.5670  221.0550 C   0  0  0  0  0  0  0  0  0  0  0  0
  140.9322   71.3031  220.8429 H   0  0  0  0  0  0  0  0  0  0  0  0
  141.9844   71.5938  222.2800 H   0  0  0  0  0  0  0  0  0  0  0  0
  137.4494   72.0024  222.0861 H   0  0  0  0  0  0  0  0  0  0  0  0
  135.9993   70.2992  223.1182 H   0  0  0  0  0  0  0  0  0  0  0  0
  137.0002   68.7240  224.7835 H   0  0  0  0  0  0  0  0  0  0  0  0
  140.2400   71.2075  226.9498 H   0  0  0  0  0  0  0  0  0  0  0  0
  139.1112   70.7993  228.0924 H   0  0  0  0  0  0  0  0  0  0  0  0
  142.1087   69.7874  227.8422 H   0  0  0  0  0  0  0  0  0  0  0  0
  141.4728   70.0763  229.3248 H   0  0  0  0  0  0  0  0  0  0  0  0
  140.9747   67.5529  227.9679 H   0  0  0  0  0  0  0  0  0  0  0  0
  139.6726   68.0325  228.8680 H   0  0  0  0  0  0  0  0  0  0  0  0
  140.8390   70.6349  224.3226 H   0  0  0  0  0  0  0  0  0  0  0  0
  138.6923   76.1112  222.6483 H   0  0  0  0  0  0  0  0  0  0  0  0
  139.6809   78.0512  221.4489 H   0  0  0  0  0  0  0  0  0  0  0  0
  141.1229   79.6100  221.2121 H   0  0  0  0  0  0  0  0  0  0  0  0
  142.0707   81.4398  219.7984 H   0  0  0  0  0  0  0  0  0  0  0  0
  143.4384   78.6571  216.8965 H   0  0  0  0  0  0  0  0  0  0  0  0
  142.5127   76.8169  218.2662 H   0  0  0  0  0  0  0  0  0  0  0  0
  142.7237   75.5393  219.7607 H   0  0  0  0  0  0  0  0  0  0  0  0
  1  2  2  0
  2  3  1  0
  3  4  1  0
  4  5  1  0
  5  6  2  0
  6  7  1  0
  7  8  2  0
  8  9  1  0
  9 10  1  0
 10 11  2  0
 10 12  1  0
 12 13  1  0
 13 14  1  0
 14 15  1  0
  9 16  2  0
  4 17  2  0
 17 18  1  0
 18 19  2  0
 19 20  1  0
 20 21  2  0
 21 22  1  0
 22 23  2  0
 23 24  1  0
 24 25  2  0
 25 26  1  0
 26 27  2  0
 21 28  1  0
 28 29  2  0
 29  2  1  0
 16  5  1  0
 29 18  1  0
 15 12  1  0
 27 22  1  0
  3 30  1  0
  3 31  1  0
  6 32  1  0
  7 33  1  0
  8 34  1  0
 13 35  1  0
 13 36  1  0
 14 37  1  0
 14 38  1  0
 15 39  1  0
 15 40  1  0
 16 41  1  0
 19 42  1  0
 20 43  1  0
 23 44  1  0
 24 45  1  0
 26 46  1  0
 27 47  1  0
 28 48  1  0
M  END
>  <smiles>  (7) 
O=C1CC(c2cccc(C(=O)N3CCC3)c2)=Nc2ccc(-c3ccncc3)cc21

>  <score_type>  (7) 
oracle

>  <origin>  (7) 
autodockgpu

>  <m_score__min__energy>  (7) 
-8.6099999999999994

>  <m_primary>  (7) 
energy

>  <rmsd>  (7) 
6.460260201105254

>  <m_score__min__rmsd>  (7) 
6.460260201105254

>  <meeko>  (7) 
{"free_energy": -8.45, "intermolecular_energy": -9.34, "internal_energy": -0.94, "cluster_size": 50, "cluster_id": 1, "rank_in_cluster": 36}

>  <energy>  (7) 
-8.51

>  <cluster_rmsd>  (7) 
0.23

>  <cluster>  (7) 
1

$$$$

     RDKit          3D

 48 52  0  0  0  0  0  0  0  0999 V2000
  143.1510   74.8740  219.8290 O   0  0  0  0  0  0  0  0  0  0  0  0
  142.1580   74.6270  220.5840 C   0  0  0  0  0  0  0  0  0  0  0  0
  141.8220   73.2020  220.8240 C   0  0  0  0  0  0  0  0  0  0  0  0
  140.6560   73.0880  221.7240 C   0  0  0  0  0  0  0  0  0  0  0  0
  140.0680   71.7800  222.0930 C   0  0  0  0  0  0  0  0  0  0  0  0
  140.0460   70.7630  221.1480 C   0  0  0  0  0  0  0  0  0  0  0  0
  139.5950   69.4980  221.4230 C   0  0  0  0  0  0  0  0  0  0  0  0
  139.1450   69.2390  222.7060 C   0  0  0  0  0  0  0  0  0  0  0  0
  139.1610   70.2530  223.6730 C   0  0  0  0  0  0  0  0  0  0  0  0
  138.7010   69.8510  225.0000 C   0  0  0  0  0  0  0  0  0  0  0  0
  137.4890   69.6340  225.2440 O   0  0  0  0  0  0  0  0  0  0  0  0
  139.6930   69.7120  226.0120 N   0  0  0  0  0  0  0  0  0  0  0  0
  141.1360   69.8410  226.1500 C   0  0  0  0  0  0  0  0  0  0  0  0
  141.0440   68.7800  227.2260 C   0  0  0  0  0  0  0  0  0  0  0  0
  139.6790   69.3900  227.4530 C   0  0  0  0  0  0  0  0  0  0  0  0
  139.6160   71.5130  223.3660 C   0  0  0  0  0  0  0  0  0  0  0  0
  140.0400   74.1140  222.2150 N   0  0  0  0  0  0  0  0  0  0  0  0
  140.3690   75.4720  221.9750 C   0  0  0  0  0  0  0  0  0  0  0  0
  139.5810   76.4470  222.5550 C   0  0  0  0  0  0  0  0  0  0  0  0
  139.9030   77.7540  222.2700 C   0  0  0  0  0  0  0  0  0  0  0  0
  140.9660   78.0850  221.4420 C   0  0  0  0  0  0  0  0  0  0  0  0
  141.2110   79.4960  221.1680 C   0  0  0  0  0  0  0  0  0  0  0  0
  141.2040   80.0740  219.9330 C   0  0  0  0  0  0  0  0  0  0  0  0
  141.4650   81.4450  219.8450 C   0  0  0  0  0  0  0  0  0  0  0  0
  141.7180   82.1890  220.9400 N   0  0  0  0  0  0  0  0  0  0  0  0
  141.7340   81.6490  222.1740 C   0  0  0  0  0  0  0  0  0  0  0  0
  141.4790   80.3030  222.2810 C   0  0  0  0  0  0  0  0  0  0  0  0
  141.7300   77.0730  220.8860 C   0  0  0  0  0  0  0  0  0  0  0  0
  141.4350   75.7460  221.1490 C   0  0  0  0  0  0  0  0  0  0  0  0
  141.5865   72.7193  219.8640 H   0  0  0  0  0  0  0  0  0  0  0  0
  142.6844   72.7086  221.2961 H   0  0  0  0  0  0  0  0  0  0  0  0
  140.4069   70.9823  220.1323 H   0  0  0  0  0  0  0  0  0  0  0  0
  139.5909   68.7153  220.6501 H   0  0  0  0  0  0  0  0  0  0  0  0
  138.7746   68.2366  222.9667 H   0  0  0  0  0  0  0  0  0  0  0  0
  141.7125   69.5471  225.2605 H   0  0  0  0  0  0  0  0  0  0  0  0
  141.6214   70.8121  226.3271 H   0  0  0  0  0  0  0  0  0  0  0  0
  141.0465   67.7395  226.8692 H   0  0  0  0  0  0  0  0  0  0  0  0
  141.7948   68.6385  228.0174 H   0  0  0  0  0  0  0  0  0  0  0  0
  138.8987   68.6789  227.7619 H   0  0  0  0  0  0  0  0  0  0  0  0
  139.4936   70.1505  228.2258 H   0  0  0  0  0  0  0  0  0  0  0  0
  139.6191   72.3026  224.1318 H   0  0  0  0  0  0  0  0  0  0  0  0
  138.7372   76.1910  223.2126 H   0  0  0  0  0  0  0  0  0  0  0  0
  139.2996   78.5607  222.7118 H   0  0  0  0  0  0  0  0  0  0  0  0
  140.9988   79.4785  219.0312 H   0  0  0  0  0  0  0  0  0  0  0  0
  141.4638   81.9285  218.8570 H   0  0  0  0  0  0  0  0  0  0  0  0
  141.9433   82.2625  223.0627 H   0  0  0  0  0  0  0  0  0  0  0  0
  141.4856   79.8414  223.2794 H   0  0  0  0  0  0  0  0  0  0  0  0
  142.5770   77.3249  220.2309 H   0  0  0  0  0  0  0  0  0  0  0  0
  1  2  2  0
  2  3  1  0
  3  4  1  0
  4  5  1  0
  5  6  2  0
  6  7  1  0
  7  8  2  0
  8  9  1  0
  9 10  1  0
 10 11  2  0
 10 12  1  0
 12 13  1  0
 13 14  1  0
 14 15  1  0
  9 16  2  0
  4 17  2  0
 17 18  1  0
 18 19  2  0
 19 20  1  0
 20 21  2  0
 21 22  1  0
 22 23  2  0
 23 24  1  0
 24 25  2  0
 25 26  1  0
 26 27  2  0
 21 28  1  0
 28 29  2  0
 29  2  1  0
 16  5  1  0
 29 18  1  0
 15 12  1  0
 27 22  1  0
  3 30  1  0
  3 31  1  0
  6 32  1  0
  7 33  1  0
  8 34  1  0
 13 35  1  0
 13 36  1  0
 14 37  1  0
 14 38  1  0
 15 39  1  0
 15 40  1  0
 16 41  1  0
 19 42  1  0
 20 43  1  0
 23 44  1  0
 24 45  1  0
 26 46  1  0
 27 47  1  0
 28 48  1  0
M  END
>  <smiles>  (8) 
O=C1CC(c2cccc(C(=O)N3CCC3)c2)=Nc2ccc(-c3ccncc3)cc21

>  <score_type>  (8) 
oracle

>  <origin>  (8) 
autodockgpu

>  <m_score__min__energy>  (8) 
-8.6099999999999994

>  <m_primary>  (8) 
energy

>  <rmsd>  (8) 
6.732526850751687

>  <m_score__min__rmsd>  (8) 
6.732526850751687

>  <meeko>  (8) 
{"free_energy": -7.88, "intermolecular_energy": -8.77, "internal_energy": -0.94, "cluster_size": 50, "cluster_id": 1, "rank_in_cluster": 49}

>  <energy>  (8) 
-8.51

>  <cluster_rmsd>  (8) 
1.21

>  <cluster>  (8) 
1

$$$$

     RDKit          3D

 48 52  0  0  0  0  0  0  0  0999 V2000
  143.2530   74.1700  220.0750 O   0  0  0  0  0  0  0  0  0  0  0  0
  142.2090   74.0060  220.7820 C   0  0  0  0  0  0  0  0  0  0  0  0
  141.8330   72.6140  221.1300 C   0  0  0  0  0  0  0  0  0  0  0  0
  140.6090   72.5970  221.9570 C   0  0  0  0  0  0  0  0  0  0  0  0
  139.9750   71.3370  222.4060 C   0  0  0  0  0  0  0  0  0  0  0  0
  139.5060   70.4440  221.4500 C   0  0  0  0  0  0  0  0  0  0  0  0
  138.9770   69.2210  221.7690 C   0  0  0  0  0  0  0  0  0  0  0  0
  138.9170   68.8730  223.1070 C   0  0  0  0  0  0  0  0  0  0  0  0
  139.3870   69.7600  224.0850 C   0  0  0  0  0  0  0  0  0  0  0  0
  139.3090   69.2670  225.4570 C   0  0  0  0  0  0  0  0  0  0  0  0
  138.8500   68.1300  225.7290 O   0  0  0  0  0  0  0  0  0  0  0  0
  139.7790   70.1350  226.4820 N   0  0  0  0  0  0  0  0  0  0  0  0
  140.3740   71.4590  226.6030 C   0  0  0  0  0  0  0  0  0  0  0  0
  141.0780   70.9380  227.8380 C   0  0  0  0  0  0  0  0  0  0  0  0
  139.8400   70.0780  227.9570 C   0  0  0  0  0  0  0  0  0  0  0  0
  139.9080   70.9830  223.7340 C   0  0  0  0  0  0  0  0  0  0  0  0
  139.9810   73.6720  222.3100 N   0  0  0  0  0  0  0  0  0  0  0  0
  140.3490   74.9980  221.9670 C   0  0  0  0  0  0  0  0  0  0  0  0
  139.5420   76.0320  222.4020 C   0  0  0  0  0  0  0  0  0  0  0  0
  139.9060   77.3030  222.0200 C   0  0  0  0  0  0  0  0  0  0  0  0
  141.0260   77.5430  221.2370 C   0  0  0  0  0  0  0  0  0  0  0  0
  141.3130   78.9190  220.8510 C   0  0  0  0  0  0  0  0  0  0  0  0
  141.5840   79.3450  219.5840 C   0  0  0  0  0  0  0  0  0  0  0  0
  141.8440   80.7040  219.3860 C   0  0  0  0  0  0  0  0  0  0  0  0
  141.8320   81.5820  220.4080 N   0  0  0  0  0  0  0  0  0  0  0  0
  141.5690   81.1960  221.6710 C   0  0  0  0  0  0  0  0  0  0  0  0
  141.3110   79.8630  221.8860 C   0  0  0  0  0  0  0  0  0  0  0  0
  141.8060   76.4740  220.8280 C   0  0  0  0  0  0  0  0  0  0  0  0
  141.4710   75.1820  221.1920 C   0  0  0  0  0  0  0  0  0  0  0  0
  141.6523   72.0465  220.2052 H   0  0  0  0  0  0  0  0  0  0  0  0
  142.6540   72.1576  221.7025 H   0  0  0  0  0  0  0  0  0  0  0  0
  139.5620   70.7319  220.3898 H   0  0  0  0  0  0  0  0  0  0  0  0
  138.6121   68.5384  220.9874 H   0  0  0  0  0  0  0  0  0  0  0  0
  138.5000   67.8992  223.4033 H   0  0  0  0  0  0  0  0  0  0  0  0
  141.0419   71.7419  225.7761 H   0  0  0  0  0  0  0  0  0  0  0  0
  139.7640   72.3742  226.6206 H   0  0  0  0  0  0  0  0  0  0  0  0
  142.0178   70.3959  227.6564 H   0  0  0  0  0  0  0  0  0  0  0  0
  141.4620   71.5796  228.6447 H   0  0  0  0  0  0  0  0  0  0  0  0
  140.0104   69.0752  228.3758 H   0  0  0  0  0  0  0  0  0  0  0  0
  138.9874   70.3563  228.5939 H   0  0  0  0  0  0  0  0  0  0  0  0
  140.2690   71.6741  224.5099 H   0  0  0  0  0  0  0  0  0  0  0  0
  138.6527   75.8482  223.0228 H   0  0  0  0  0  0  0  0  0  0  0  0
  139.2903   78.1545  222.3453 H   0  0  0  0  0  0  0  0  0  0  0  0
  141.5976   78.6384  218.7411 H   0  0  0  0  0  0  0  0  0  0  0  0
  142.0638   81.0657  218.3707 H   0  0  0  0  0  0  0  0  0  0  0  0
  141.5609   81.9199  222.4992 H   0  0  0  0  0  0  0  0  0  0  0  0
  141.0947   79.5246  222.9101 H   0  0  0  0  0  0  0  0  0  0  0  0
  142.6978   76.6535  220.2096 H   0  0  0  0  0  0  0  0  0  0  0  0
  1  2  2  0
  2  3  1  0
  3  4  1  0
  4  5  1  0
  5  6  2  0
  6  7  1  0
  7  8  2  0
  8  9  1  0
  9 10  1  0
 10 11  2  0
 10 12  1  0
 12 13  1  0
 13 14  1  0
 14 15  1  0
  9 16  2  0
  4 17  2  0
 17 18  1  0
 18 19  2  0
 19 20  1  0
 20 21  2  0
 21 22  1  0
 22 23  2  0
 23 24  1  0
 24 25  2  0
 25 26  1  0
 26 27  2  0
 21 28  1  0
 28 29  2  0
 29  2  1  0
 16  5  1  0
 29 18  1  0
 15 12  1  0
 27 22  1  0
  3 30  1  0
  3 31  1  0
  6 32  1  0
  7 33  1  0
  8 34  1  0
 13 35  1  0
 13 36  1  0
 14 37  1  0
 14 38  1  0
 15 39  1  0
 15 40  1  0
 16 41  1  0
 19 42  1  0
 20 43  1  0
 23 44  1  0
 24 45  1  0
 26 46  1  0
 27 47  1  0
 28 48  1  0
M  END
>  <smiles>  (9) 
O=C1CC(c2cccc(C(=O)N3CCC3)c2)=Nc2ccc(-c3ccncc3)cc21

>  <score_type>  (9) 
oracle

>  <origin>  (9) 
autodockgpu

>  <m_score__min__energy>  (9) 
-8.6099999999999994

>  <m_primary>  (9) 
energy

>  <rmsd>  (9) 
6.348398133956584

>  <m_score__min__rmsd>  (9) 
6.348398133956584

>  <meeko>  (9) 
{"free_energy": -8.54, "intermolecular_energy": -9.44, "internal_energy": -0.79, "cluster_size": 50, "cluster_id": 1, "rank_in_cluster": 5}

>  <energy>  (9) 
-8.5

>  <cluster_rmsd>  (9) 
1.21

>  <cluster>  (9) 
1

$$$$

     RDKit          3D

 48 52  0  0  0  0  0  0  0  0999 V2000
  142.9360   73.0870  220.2710 O   0  0  0  0  0  0  0  0  0  0  0  0
  141.8880   73.2620  220.9700 C   0  0  0  0  0  0  0  0  0  0  0  0
  141.3010   72.0690  221.6270 C   0  0  0  0  0  0  0  0  0  0  0  0
  140.1000   72.4410  222.4030 C   0  0  0  0  0  0  0  0  0  0  0  0
  139.2800   71.4390  223.1200 C   0  0  0  0  0  0  0  0  0  0  0  0
  137.9360   71.3120  222.7920 C   0  0  0  0  0  0  0  0  0  0  0  0
  137.1200   70.3610  223.3470 C   0  0  0  0  0  0  0  0  0  0  0  0
  137.6750   69.4950  224.2720 C   0  0  0  0  0  0  0  0  0  0  0  0
  139.0290   69.6070  224.6140 C   0  0  0  0  0  0  0  0  0  0  0  0
  139.5110   68.6130  225.5690 C   0  0  0  0  0  0  0  0  0  0  0  0
  139.5720   67.3920  225.2820 O   0  0  0  0  0  0  0  0  0  0  0  0
  139.9130   69.0890  226.8490 N   0  0  0  0  0  0  0  0  0  0  0  0
  140.0170   70.3570  227.5580 C   0  0  0  0  0  0  0  0  0  0  0  0
  141.1710   69.7400  228.3200 C   0  0  0  0  0  0  0  0  0  0  0  0
  140.3950   68.4610  228.0960 C   0  0  0  0  0  0  0  0  0  0  0  0
  139.8220   70.5740  224.0440 C   0  0  0  0  0  0  0  0  0  0  0  0
  139.6550   73.6540  222.4750 N   0  0  0  0  0  0  0  0  0  0  0  0
  140.2240   74.7860  221.8390 C   0  0  0  0  0  0  0  0  0  0  0  0
  139.5970   76.0070  221.9960 C   0  0  0  0  0  0  0  0  0  0  0  0
  140.1530   77.0780  221.3340 C   0  0  0  0  0  0  0  0  0  0  0  0
  141.2870   76.9460  220.5460 C   0  0  0  0  0  0  0  0  0  0  0  0
  141.7840   78.1280  219.8530 C   0  0  0  0  0  0  0  0  0  0  0  0
  141.6610   79.4130  220.2920 C   0  0  0  0  0  0  0  0  0  0  0  0
  142.1920   80.4360  219.5000 C   0  0  0  0  0  0  0  0  0  0  0  0
  142.8110   80.1760  218.3320 N   0  0  0  0  0  0  0  0  0  0  0  0
  142.9490   78.9190  217.8670 C   0  0  0  0  0  0  0  0  0  0  0  0
  142.4330   77.9000  218.6330 C   0  0  0  0  0  0  0  0  0  0  0  0
  141.8820   75.7030  220.4210 C   0  0  0  0  0  0  0  0  0  0  0  0
  141.3520   74.6020  221.0720 C   0  0  0  0  0  0  0  0  0  0  0  0
  141.0212   71.3338  220.8581 H   0  0  0  0  0  0  0  0  0  0  0  0
  142.0464   71.6384  222.3118 H   0  0  0  0  0  0  0  0  0  0  0  0
  137.5076   72.0058  222.0537 H   0  0  0  0  0  0  0  0  0  0  0  0
  136.0589   70.2887  223.0662 H   0  0  0  0  0  0  0  0  0  0  0  0
  137.0527   68.7177  224.7395 H   0  0  0  0  0  0  0  0  0  0  0  0
  140.2876   71.2171  226.9278 H   0  0  0  0  0  0  0  0  0  0  0  0
  139.1563   70.8129  228.0693 H   0  0  0  0  0  0  0  0  0  0  0  0
  142.1514   69.7943  227.8241 H   0  0  0  0  0  0  0  0  0  0  0  0
  141.5142   70.0876  229.3056 H   0  0  0  0  0  0  0  0  0  0  0  0
  141.0131   67.5622  227.9539 H   0  0  0  0  0  0  0  0  0  0  0  0
  139.7105   68.0462  228.8506 H   0  0  0  0  0  0  0  0  0  0  0  0
  140.8826   70.6563  224.3241 H   0  0  0  0  0  0  0  0  0  0  0  0
  138.6976   76.1178  222.6195 H   0  0  0  0  0  0  0  0  0  0  0  0
  139.6841   78.0682  221.4327 H   0  0  0  0  0  0  0  0  0  0  0  0
  141.1576   79.6390  221.2436 H   0  0  0  0  0  0  0  0  0  0  0  0
  142.1020   81.4786  219.8390 H   0  0  0  0  0  0  0  0  0  0  0  0
  143.4549   78.7156  216.9116 H   0  0  0  0  0  0  0  0  0  0  0  0
  142.5340   76.8654  218.2734 H   0  0  0  0  0  0  0  0  0  0  0  0
  142.7827   75.5888  219.7999 H   0  0  0  0  0  0  0  0  0  0  0  0
  1  2  2  0
  2  3  1  0
  3  4  1  0
  4  5  1  0
  5  6  2  0
  6  7  1  0
  7  8  2  0
  8  9  1  0
  9 10  1  0
 10 11  2  0
 10 12  1  0
 12 13  1  0
 13 14  1  0
 14 15  1  0
  9 16  2  0
  4 17  2  0
 17 18  1  0
 18 19  2  0
 19 20  1  0
 20 21  2  0
 21 22  1  0
 22 23  2  0
 23 24  1  0
 24 25  2  0
 25 26  1  0
 26 27  2  0
 21 28  1  0
 28 29  2  0
 29  2  1  0
 16  5  1  0
 29 18  1  0
 15 12  1  0
 27 22  1  0
  3 30  1  0
  3 31  1  0
  6 32  1  0
  7 33  1  0
  8 34  1  0
 13 35  1  0
 13 36  1  0
 14 37  1  0
 14 38  1  0
 15 39  1  0
 15 40  1  0
 16 41  1  0
 19 42  1  0
 20 43  1  0
 23 44  1  0
 24 45  1  0
 26 46  1  0
 27 47  1  0
 28 48  1  0
M  END
>  <smiles>  (10) 
O=C1CC(c2cccc(C(=O)N3CCC3)c2)=Nc2ccc(-c3ccncc3)cc21

>  <score_type>  (10) 
oracle

>  <origin>  (10) 
autodockgpu

>  <m_score__min__energy>  (10) 
-8.6099999999999994

>  <m_primary>  (10) 
energy

>  <rmsd>  (10) 
6.462780643293367

>  <m_score__min__rmsd>  (10) 
6.462780643293367

>  <meeko>  (10) 
{"free_energy": -8.45, "intermolecular_energy": -9.34, "internal_energy": -0.94, "cluster_size": 50, "cluster_id": 1, "rank_in_cluster": 35}

>  <energy>  (10) 
-8.5

>  <cluster_rmsd>  (10) 
1.21

>  <cluster>  (10) 
1

$$$$

     RDKit          3D

 48 52  0  0  0  0  0  0  0  0999 V2000
  142.9370   72.9990  220.2070 O   0  0  0  0  0  0  0  0  0  0  0  0
  141.8930   73.1970  220.9030 C   0  0  0  0  0  0  0  0  0  0  0  0
  141.2990   72.0250  221.5900 C   0  0  0  0  0  0  0  0  0  0  0  0
  140.1020   72.4240  222.3600 C   0  0  0  0  0  0  0  0  0  0  0  0
  139.2770   71.4450  223.1030 C   0  0  0  0  0  0  0  0  0  0  0  0
  137.9200   71.3580  222.8200 C   0  0  0  0  0  0  0  0  0  0  0  0
  137.0950   70.4300  223.4000 C   0  0  0  0  0  0  0  0  0  0  0  0
  137.6550   69.5470  224.3050 C   0  0  0  0  0  0  0  0  0  0  0  0
  139.0220   69.6180  224.6030 C   0  0  0  0  0  0  0  0  0  0  0  0
  139.5050   68.6080  225.5400 C   0  0  0  0  0  0  0  0  0  0  0  0
  139.5750   67.3940  225.2300 O   0  0  0  0  0  0  0  0  0  0  0  0
  139.8990   69.0620  226.8310 N   0  0  0  0  0  0  0  0  0  0  0  0
  139.9920   70.3160  227.5650 C   0  0  0  0  0  0  0  0  0  0  0  0
  141.1460   69.6910  228.3200 C   0  0  0  0  0  0  0  0  0  0  0  0
  140.3790   68.4130  228.0680 C   0  0  0  0  0  0  0  0  0  0  0  0
  139.8240   70.5630  224.0070 C   0  0  0  0  0  0  0  0  0  0  0  0
  139.6660   73.6410  222.4040 N   0  0  0  0  0  0  0  0  0  0  0  0
  140.2410   74.7530  221.7390 C   0  0  0  0  0  0  0  0  0  0  0  0
  139.6230   75.9820  221.8680 C   0  0  0  0  0  0  0  0  0  0  0  0
  140.1840   77.0330  221.1800 C   0  0  0  0  0  0  0  0  0  0  0  0
  141.3160   76.8750  220.3920 C   0  0  0  0  0  0  0  0  0  0  0  0
  141.8190   78.0360  219.6700 C   0  0  0  0  0  0  0  0  0  0  0  0
  142.5040   77.9990  218.4910 C   0  0  0  0  0  0  0  0  0  0  0  0
  142.9220   79.2100  217.9320 C   0  0  0  0  0  0  0  0  0  0  0  0
  142.6630   80.3910  218.5280 N   0  0  0  0  0  0  0  0  0  0  0  0
  141.9900   80.4640  219.6930 C   0  0  0  0  0  0  0  0  0  0  0  0
  141.5710   79.2830  220.2580 C   0  0  0  0  0  0  0  0  0  0  0  0
  141.9020   75.6240  220.2960 C   0  0  0  0  0  0  0  0  0  0  0  0
  141.3650   74.5430  220.9740 C   0  0  0  0  0  0  0  0  0  0  0  0
  141.0121   71.2734  220.8398 H   0  0  0  0  0  0  0  0  0  0  0  0
  142.0430   71.6061  222.2835 H   0  0  0  0  0  0  0  0  0  0  0  0
  137.4879   72.0661  222.0976 H   0  0  0  0  0  0  0  0  0  0  0  0
  136.0237   70.3889  223.1540 H   0  0  0  0  0  0  0  0  0  0  0  0
  137.0258   68.7873  224.7919 H   0  0  0  0  0  0  0  0  0  0  0  0
  140.2603   71.1899  226.9532 H   0  0  0  0  0  0  0  0  0  0  0  0
  139.1263   70.7567  228.0811 H   0  0  0  0  0  0  0  0  0  0  0  0
  142.1282   69.7606  227.8297 H   0  0  0  0  0  0  0  0  0  0  0  0
  141.4828   70.0214  229.3137 H   0  0  0  0  0  0  0  0  0  0  0  0
  141.0030   67.5207  227.9116 H   0  0  0  0  0  0  0  0  0  0  0  0
  139.6935   67.9799  228.8113 H   0  0  0  0  0  0  0  0  0  0  0  0
  140.8954   70.6136  224.2511 H   0  0  0  0  0  0  0  0  0  0  0  0
  138.7258   76.1137  222.4907 H   0  0  0  0  0  0  0  0  0  0  0  0
  139.7218   78.0283  221.2565 H   0  0  0  0  0  0  0  0  0  0  0  0
  142.7215   77.0422  217.9937 H   0  0  0  0  0  0  0  0  0  0  0  0
  143.4762   79.1990  216.9819 H   0  0  0  0  0  0  0  0  0  0  0  0
  141.7838   81.4317  220.1736 H   0  0  0  0  0  0  0  0  0  0  0  0
  141.0194   79.3185  221.2090 H   0  0  0  0  0  0  0  0  0  0  0  0
  142.8008   75.4882  219.6765 H   0  0  0  0  0  0  0  0  0  0  0  0
  1  2  2  0
  2  3  1  0
  3  4  1  0
  4  5  1  0
  5  6  2  0
  6  7  1  0
  7  8  2  0
  8  9  1  0
  9 10  1  0
 10 11  2  0
 10 12  1  0
 12 13  1  0
 13 14  1  0
 14 15  1  0
  9 16  2  0
  4 17  2  0
 17 18  1  0
 18 19  2  0
 19 20  1  0
 20 21  2  0
 21 22  1  0
 22 23  2  0
 23 24  1  0
 24 25  2  0
 25 26  1  0
 26 27  2  0
 21 28  1  0
 28 29  2  0
 29  2  1  0
 16  5  1  0
 29 18  1  0
 15 12  1  0
 27 22  1  0
  3 30  1  0
  3 31  1  0
  6 32  1  0
  7 33  1  0
  8 34  1  0
 13 35  1  0
 13 36  1  0
 14 37  1  0
 14 38  1  0
 15 39  1  0
 15 40  1  0
 16 41  1  0
 19 42  1  0
 20 43  1  0
 23 44  1  0
 24 45  1  0
 26 46  1  0
 27 47  1  0
 28 48  1  0
M  END
>  <smiles>  (11) 
O=C1CC(c2cccc(C(=O)N3CCC3)c2)=Nc2ccc(-c3ccncc3)cc21

>  <score_type>  (11) 
oracle

>  <origin>  (11) 
autodockgpu

>  <m_score__min__energy>  (11) 
-8.6099999999999994

>  <m_primary>  (11) 
energy

>  <rmsd>  (11) 
6.479905385999239

>  <m_score__min__rmsd>  (11) 
6.479905385999239

>  <meeko>  (11) 
{"free_energy": -8.49, "intermolecular_energy": -9.38, "internal_energy": -0.93, "cluster_size": 50, "cluster_id": 1, "rank_in_cluster": 29}

>  <energy>  (11) 
-8.5

>  <cluster_rmsd>  (11) 
1.15

>  <cluster>  (11) 
1

$$$$

     RDKit          3D

 48 52  0  0  0  0  0  0  0  0999 V2000
  143.1600   73.8290  220.1560 O   0  0  0  0  0  0  0  0  0  0  0  0
  142.1020   73.7100  220.8510 C   0  0  0  0  0  0  0  0  0  0  0  0
  141.6950   72.3380  221.2400 C   0  0  0  0  0  0  0  0  0  0  0  0
  140.4570   72.3720  222.0470 C   0  0  0  0  0  0  0  0  0  0  0  0
  139.7920   71.1400  222.5280 C   0  0  0  0  0  0  0  0  0  0  0  0
  139.0890   70.3580  221.6200 C   0  0  0  0  0  0  0  0  0  0  0  0
  138.5090   69.1630  221.9570 C   0  0  0  0  0  0  0  0  0  0  0  0
  138.6400   68.7290  223.2650 C   0  0  0  0  0  0  0  0  0  0  0  0
  139.3470   69.5040  224.1940 C   0  0  0  0  0  0  0  0  0  0  0  0
  139.4520   68.9250  225.5300 C   0  0  0  0  0  0  0  0  0  0  0  0
  139.2150   67.7120  225.7490 O   0  0  0  0  0  0  0  0  0  0  0  0
  139.8400   69.8000  226.5840 N   0  0  0  0  0  0  0  0  0  0  0  0
  140.2080   71.1970  226.7620 C   0  0  0  0  0  0  0  0  0  0  0  0
  141.0780   70.7350  227.9130 C   0  0  0  0  0  0  0  0  0  0  0  0
  140.0160   69.6670  228.0450 C   0  0  0  0  0  0  0  0  0  0  0  0
  139.9140   70.7010  223.8270 C   0  0  0  0  0  0  0  0  0  0  0  0
  139.8450   73.4700  222.3520 N   0  0  0  0  0  0  0  0  0  0  0  0
  140.2430   74.7760  221.9700 C   0  0  0  0  0  0  0  0  0  0  0  0
  139.4500   75.8390  222.3550 C   0  0  0  0  0  0  0  0  0  0  0  0
  139.8430   77.0900  221.9360 C   0  0  0  0  0  0  0  0  0  0  0  0
  140.9800   77.2820  221.1650 C   0  0  0  0  0  0  0  0  0  0  0  0
  141.3000   78.6370  220.7360 C   0  0  0  0  0  0  0  0  0  0  0  0
  141.7380   78.9920  219.4950 C   0  0  0  0  0  0  0  0  0  0  0  0
  142.0060   80.3420  219.2500 C   0  0  0  0  0  0  0  0  0  0  0  0
  141.8390   81.2800  220.2020 N   0  0  0  0  0  0  0  0  0  0  0  0
  141.4080   80.9650  221.4390 C   0  0  0  0  0  0  0  0  0  0  0  0
  141.1410   79.6420  221.6990 C   0  0  0  0  0  0  0  0  0  0  0  0
  141.7460   76.1850  220.8050 C   0  0  0  0  0  0  0  0  0  0  0  0
  141.3810   74.9120  221.2080 C   0  0  0  0  0  0  0  0  0  0  0  0
  141.5187   71.7421  220.3323 H   0  0  0  0  0  0  0  0  0  0  0  0
  142.4981   71.8868  221.8412 H   0  0  0  0  0  0  0  0  0  0  0  0
  138.9936   70.7142  220.5836 H   0  0  0  0  0  0  0  0  0  0  0  0
  137.9579   68.5687  221.2133 H   0  0  0  0  0  0  0  0  0  0  0  0
  138.1887   67.7750  223.5753 H   0  0  0  0  0  0  0  0  0  0  0  0
  140.7568   71.6404  225.9181 H   0  0  0  0  0  0  0  0  0  0  0  0
  139.4539   71.9889  226.8812 H   0  0  0  0  0  0  0  0  0  0  0  0
  142.0809   70.3770  227.6372 H   0  0  0  0  0  0  0  0  0  0  0  0
  141.4043   71.3849  228.7383 H   0  0  0  0  0  0  0  0  0  0  0  0
  140.3840   68.6861  228.3803 H   0  0  0  0  0  0  0  0  0  0  0  0
  139.1765   69.7542  228.7504 H   0  0  0  0  0  0  0  0  0  0  0  0
  140.4615   71.3041  224.5662 H   0  0  0  0  0  0  0  0  0  0  0  0
  138.5477   75.6931  222.9670 H   0  0  0  0  0  0  0  0  0  0  0  0
  139.2376   77.9631  222.2210 H   0  0  0  0  0  0  0  0  0  0  0  0
  141.8769   78.2366  218.7075 H   0  0  0  0  0  0  0  0  0  0  0  0
  142.3622   80.6458  218.2546 H   0  0  0  0  0  0  0  0  0  0  0  0
  141.2749   81.7370  222.2112 H   0  0  0  0  0  0  0  0  0  0  0  0
  140.7887   79.3613  222.7025 H   0  0  0  0  0  0  0  0  0  0  0  0
  142.6503   76.3266  220.1949 H   0  0  0  0  0  0  0  0  0  0  0  0
  1  2  2  0
  2  3  1  0
  3  4  1  0
  4  5  1  0
  5  6  2  0
  6  7  1  0
  7  8  2  0
  8  9  1  0
  9 10  1  0
 10 11  2  0
 10 12  1  0
 12 13  1  0
 13 14  1  0
 14 15  1  0
  9 16  2  0
  4 17  2  0
 17 18  1  0
 18 19  2  0
 19 20  1  0
 20 21  2  0
 21 22  1  0
 22 23  2  0
 23 24  1  0
 24 25  2  0
 25 26  1  0
 26 27  2  0
 21 28  1  0
 28 29  2  0
 29  2  1  0
 16  5  1  0
 29 18  1  0
 15 12  1  0
 27 22  1  0
  3 30  1  0
  3 31  1  0
  6 32  1  0
  7 33  1  0
  8 34  1  0
 13 35  1  0
 13 36  1  0
 14 37  1  0
 14 38  1  0
 15 39  1  0
 15 40  1  0
 16 41  1  0
 19 42  1  0
 20 43  1  0
 23 44  1  0
 24 45  1  0
 26 46  1  0
 27 47  1  0
 28 48  1  0
M  END
>  <smiles>  (12) 
O=C1CC(c2cccc(C(=O)N3CCC3)c2)=Nc2ccc(-c3ccncc3)cc21

>  <score_type>  (12) 
oracle

>  <origin>  (12) 
autodockgpu

>  <m_score__min__energy>  (12) 
-8.6099999999999994

>  <m_primary>  (12) 
energy

>  <rmsd>  (12) 
6.293228241584331

>  <m_score__min__rmsd>  (12) 
6.293228241584331

>  <meeko>  (12) 
{"free_energy": -8.55, "intermolecular_energy": -9.44, "internal_energy": -0.82, "cluster_size": 50, "cluster_id": 1, "rank_in_cluster": 4}

>  <energy>  (12) 
-8.5

>  <cluster_rmsd>  (12) 
1.22

>  <cluster>  (12) 
1

$$$$

     RDKit          3D

 48 52  0  0  0  0  0  0  0  0999 V2000
  142.9540   73.0410  220.2310 O   0  0  0  0  0  0  0  0  0  0  0  0
  141.8960   73.2220  220.9120 C   0  0  0  0  0  0  0  0  0  0  0  0
  141.3070   72.0380  221.5830 C   0  0  0  0  0  0  0  0  0  0  0  0
  140.0940   72.4170  222.3360 C   0  0  0  0  0  0  0  0  0  0  0  0
  139.2700   71.4230  223.0610 C   0  0  0  0  0  0  0  0  0  0  0  0
  137.9260   71.2960  222.7310 C   0  0  0  0  0  0  0  0  0  0  0  0
  137.1070   70.3510  223.2920 C   0  0  0  0  0  0  0  0  0  0  0  0
  137.6580   69.4920  224.2250 C   0  0  0  0  0  0  0  0  0  0  0  0
  139.0110   69.6040  224.5700 C   0  0  0  0  0  0  0  0  0  0  0  0
  139.4890   68.6170  225.5350 C   0  0  0  0  0  0  0  0  0  0  0  0
  139.5640   67.3960  225.2530 O   0  0  0  0  0  0  0  0  0  0  0  0
  139.8700   69.1010  226.8180 N   0  0  0  0  0  0  0  0  0  0  0  0
  139.9550   70.3720  227.5240 C   0  0  0  0  0  0  0  0  0  0  0  0
  141.1040   69.7670  228.3030 C   0  0  0  0  0  0  0  0  0  0  0  0
  140.3420   68.4820  228.0730 C   0  0  0  0  0  0  0  0  0  0  0  0
  139.8080   70.5650  223.9930 C   0  0  0  0  0  0  0  0  0  0  0  0
  139.6410   73.6280  222.3820 N   0  0  0  0  0  0  0  0  0  0  0  0
  140.2120   74.7520  221.7340 C   0  0  0  0  0  0  0  0  0  0  0  0
  139.5770   75.9720  221.8610 C   0  0  0  0  0  0  0  0  0  0  0  0
  140.1350   77.0350  221.1880 C   0  0  0  0  0  0  0  0  0  0  0  0
  141.2810   76.8960  220.4170 C   0  0  0  0  0  0  0  0  0  0  0  0
  141.7800   78.0680  219.7100 C   0  0  0  0  0  0  0  0  0  0  0  0
  142.5310   78.0450  218.5720 C   0  0  0  0  0  0  0  0  0  0  0  0
  142.9350   79.2660  218.0230 C   0  0  0  0  0  0  0  0  0  0  0  0
  142.5990   80.4420  218.5890 N   0  0  0  0  0  0  0  0  0  0  0  0
  141.8590   80.5010  219.7130 C   0  0  0  0  0  0  0  0  0  0  0  0
  141.4530   79.3110  220.2680 C   0  0  0  0  0  0  0  0  0  0  0  0
  141.8840   75.6530  220.3210 C   0  0  0  0  0  0  0  0  0  0  0  0
  141.3510   74.5610  220.9840 C   0  0  0  0  0  0  0  0  0  0  0  0
  141.0416   71.2872  220.8241 H   0  0  0  0  0  0  0  0  0  0  0  0
  142.0457   71.6244  222.2854 H   0  0  0  0  0  0  0  0  0  0  0  0
  137.5005   71.9847  221.9863 H   0  0  0  0  0  0  0  0  0  0  0  0
  136.0464   70.2783  223.0094 H   0  0  0  0  0  0  0  0  0  0  0  0
  137.0330   68.7196  224.6970 H   0  0  0  0  0  0  0  0  0  0  0  0
  140.2268   71.2321  226.8944 H   0  0  0  0  0  0  0  0  0  0  0  0
  139.0842   70.8226  228.0227 H   0  0  0  0  0  0  0  0  0  0  0  0
  142.0903   69.8279  227.8198 H   0  0  0  0  0  0  0  0  0  0  0  0
  141.4315   70.1204  229.2919 H   0  0  0  0  0  0  0  0  0  0  0  0
  140.9694   67.5881  227.9417 H   0  0  0  0  0  0  0  0  0  0  0  0
  139.6514   68.0643  228.8204 H   0  0  0  0  0  0  0  0  0  0  0  0
  140.8682   70.6473  224.2745 H   0  0  0  0  0  0  0  0  0  0  0  0
  138.6689   76.0884  222.4707 H   0  0  0  0  0  0  0  0  0  0  0  0
  139.6589   78.0238  221.2633 H   0  0  0  0  0  0  0  0  0  0  0  0
  142.8113   77.0923  218.0990 H   0  0  0  0  0  0  0  0  0  0  0  0
  143.5424   79.2666  217.1059 H   0  0  0  0  0  0  0  0  0  0  0  0
  141.5898   81.4650  220.1693 H   0  0  0  0  0  0  0  0  0  0  0  0
  140.8477   79.3353  221.1862 H   0  0  0  0  0  0  0  0  0  0  0  0
  142.7931   75.5326  219.7135 H   0  0  0  0  0  0  0  0  0  0  0  0
  1  2  2  0
  2  3  1  0
  3  4  1  0
  4  5  1  0
  5  6  2  0
  6  7  1  0
  7  8  2  0
  8  9  1  0
  9 10  1  0
 10 11  2  0
 10 12  1  0
 12 13  1  0
 13 14  1  0
 14 15  1  0
  9 16  2  0
  4 17  2  0
 17 18  1  0
 18 19  2  0
 19 20  1  0
 20 21  2  0
 21 22  1  0
 22 23  2  0
 23 24  1  0
 24 25  2  0
 25 26  1  0
 26 27  2  0
 21 28  1  0
 28 29  2  0
 29  2  1  0
 16  5  1  0
 29 18  1  0
 15 12  1  0
 27 22  1  0
  3 30  1  0
  3 31  1  0
  6 32  1  0
  7 33  1  0
  8 34  1  0
 13 35  1  0
 13 36  1  0
 14 37  1  0
 14 38  1  0
 15 39  1  0
 15 40  1  0
 16 41  1  0
 19 42  1  0
 20 43  1  0
 23 44  1  0
 24 45  1  0
 26 46  1  0
 27 47  1  0
 28 48  1  0
M  END
>  <smiles>  (13) 
O=C1CC(c2cccc(C(=O)N3CCC3)c2)=Nc2ccc(-c3ccncc3)cc21

>  <score_type>  (13) 
oracle

>  <origin>  (13) 
autodockgpu

>  <m_score__min__energy>  (13) 
-8.6099999999999994

>  <m_primary>  (13) 
energy

>  <rmsd>  (13) 
6.460623419955133

>  <m_score__min__rmsd>  (13) 
6.460623419955133

>  <meeko>  (13) 
{"free_energy": -8.5, "intermolecular_energy": -9.39, "internal_energy": -0.94, "cluster_size": 50, "cluster_id": 1, "rank_in_cluster": 15}

>  <energy>  (13) 
-8.5

>  <cluster_rmsd>  (13) 
1.22

>  <cluster>  (13) 
1

$$$$

     RDKit          3D

 48 52  0  0  0  0  0  0  0  0999 V2000
  142.8770   72.9880  220.1780 O   0  0  0  0  0  0  0  0  0  0  0  0
  141.8520   73.2080  220.8970 C   0  0  0  0  0  0  0  0  0  0  0  0
  141.2550   72.0500  221.6050 C   0  0  0  0  0  0  0  0  0  0  0  0
  140.0830   72.4740  222.3990 C   0  0  0  0  0  0  0  0  0  0  0  0
  139.2590   71.5140  223.1670 C   0  0  0  0  0  0  0  0  0  0  0  0
  137.8820   71.5100  222.9800 C   0  0  0  0  0  0  0  0  0  0  0  0
  137.0490   70.6070  223.5880 C   0  0  0  0  0  0  0  0  0  0  0  0
  137.6210   69.6620  224.4210 C   0  0  0  0  0  0  0  0  0  0  0  0
  139.0080   69.6490  224.6210 C   0  0  0  0  0  0  0  0  0  0  0  0
  139.4990   68.5810  225.4870 C   0  0  0  0  0  0  0  0  0  0  0  0
  139.5740   67.3910  225.0960 O   0  0  0  0  0  0  0  0  0  0  0  0
  139.8940   68.9490  226.8040 N   0  0  0  0  0  0  0  0  0  0  0  0
  139.9840   70.1510  227.6200 C   0  0  0  0  0  0  0  0  0  0  0  0
  141.1440   69.4830  228.3290 C   0  0  0  0  0  0  0  0  0  0  0  0
  140.3820   68.2210  227.9930 C   0  0  0  0  0  0  0  0  0  0  0  0
  139.8170   70.5710  224.0000 C   0  0  0  0  0  0  0  0  0  0  0  0
  139.6680   73.6980  222.4460 N   0  0  0  0  0  0  0  0  0  0  0  0
  140.2460   74.7970  221.7610 C   0  0  0  0  0  0  0  0  0  0  0  0
  139.6520   76.0370  221.8960 C   0  0  0  0  0  0  0  0  0  0  0  0
  140.2150   77.0740  221.1880 C   0  0  0  0  0  0  0  0  0  0  0  0
  141.3250   76.8920  220.3760 C   0  0  0  0  0  0  0  0  0  0  0  0
  141.8310   78.0400  219.6340 C   0  0  0  0  0  0  0  0  0  0  0  0
  142.5320   77.9810  218.4660 C   0  0  0  0  0  0  0  0  0  0  0  0
  142.9500   79.1820  217.8860 C   0  0  0  0  0  0  0  0  0  0  0  0
  142.6760   80.3740  218.4520 N   0  0  0  0  0  0  0  0  0  0  0  0
  141.9870   80.4690  219.6060 C   0  0  0  0  0  0  0  0  0  0  0  0
  141.5680   79.2980  220.1920 C   0  0  0  0  0  0  0  0  0  0  0  0
  141.8880   75.6310  220.2740 C   0  0  0  0  0  0  0  0  0  0  0  0
  141.3490   74.5630  220.9710 C   0  0  0  0  0  0  0  0  0  0  0  0
  140.9387   71.2986  220.8665 H   0  0  0  0  0  0  0  0  0  0  0  0
  142.0077   71.6228  222.2839 H   0  0  0  0  0  0  0  0  0  0  0  0
  137.4404   72.2658  222.3138 H   0  0  0  0  0  0  0  0  0  0  0  0
  135.9623   70.6328  223.4193 H   0  0  0  0  0  0  0  0  0  0  0  0
  136.9862   68.9198  224.9271 H   0  0  0  0  0  0  0  0  0  0  0  0
  140.2462   71.0651  227.0671 H   0  0  0  0  0  0  0  0  0  0  0  0
  139.1178   70.5516  228.1671 H   0  0  0  0  0  0  0  0  0  0  0  0
  142.1245   69.5904  227.8422 H   0  0  0  0  0  0  0  0  0  0  0  0
  141.4822   69.7476  229.3417 H   0  0  0  0  0  0  0  0  0  0  0  0
  141.0098   67.3445  227.7747 H   0  0  0  0  0  0  0  0  0  0  0  0
  139.7011   67.7355  228.7076 H   0  0  0  0  0  0  0  0  0  0  0  0
  140.9040   70.5551  224.1679 H   0  0  0  0  0  0  0  0  0  0  0  0
  138.7718   76.1880  222.5382 H   0  0  0  0  0  0  0  0  0  0  0  0
  139.7716   78.0775  221.2683 H   0  0  0  0  0  0  0  0  0  0  0  0
  142.7622   77.0148  217.9932 H   0  0  0  0  0  0  0  0  0  0  0  0
  143.5169   79.1536  216.9438 H   0  0  0  0  0  0  0  0  0  0  0  0
  141.7682   81.4459  220.0618 H   0  0  0  0  0  0  0  0  0  0  0  0
  141.0046   79.3508  221.1353 H   0  0  0  0  0  0  0  0  0  0  0  0
  142.7697   75.4767  219.6347 H   0  0  0  0  0  0  0  0  0  0  0  0
  1  2  2  0
  2  3  1  0
  3  4  1  0
  4  5  1  0
  5  6  2  0
  6  7  1  0
  7  8  2  0
  8  9  1  0
  9 10  1  0
 10 11  2  0
 10 12  1  0
 12 13  1  0
 13 14  1  0
 14 15  1  0
  9 16  2  0
  4 17  2  0
 17 18  1  0
 18 19  2  0
 19 20  1  0
 20 21  2  0
 21 22  1  0
 22 23  2  0
 23 24  1  0
 24 25  2  0
 25 26  1  0
 26 27  2  0
 21 28  1  0
 28 29  2  0
 29  2  1  0
 16  5  1  0
 29 18  1  0
 15 12  1  0
 27 22  1  0
  3 30  1  0
  3 31  1  0
  6 32  1  0
  7 33  1  0
  8 34  1  0
 13 35  1  0
 13 36  1  0
 14 37  1  0
 14 38  1  0
 15 39  1  0
 15 40  1  0
 16 41  1  0
 19 42  1  0
 20 43  1  0
 23 44  1  0
 24 45  1  0
 26 46  1  0
 27 47  1  0
 28 48  1  0
M  END
>  <smiles>  (14) 
O=C1CC(c2cccc(C(=O)N3CCC3)c2)=Nc2ccc(-c3ccncc3)cc21

>  <score_type>  (14) 
oracle

>  <origin>  (14) 
autodockgpu

>  <m_score__min__energy>  (14) 
-8.6099999999999994

>  <m_primary>  (14) 
energy

>  <rmsd>  (14) 
6.515126238496875

>  <m_score__min__rmsd>  (14) 
6.515126238496875

>  <meeko>  (14) 
{"free_energy": -8.5, "intermolecular_energy": -9.4, "internal_energy": -0.93, "cluster_size": 50, "cluster_id": 1, "rank_in_cluster": 9}

>  <energy>  (14) 
-8.5

>  <cluster_rmsd>  (14) 
1.13

>  <cluster>  (14) 
1

$$$$

     RDKit          3D

 48 52  0  0  0  0  0  0  0  0999 V2000
  142.9110   73.0460  220.1980 O   0  0  0  0  0  0  0  0  0  0  0  0
  141.8700   73.2560  220.8960 C   0  0  0  0  0  0  0  0  0  0  0  0
  141.2740   72.0930  221.5970 C   0  0  0  0  0  0  0  0  0  0  0  0
  140.0820   72.5040  222.3670 C   0  0  0  0  0  0  0  0  0  0  0  0
  139.2550   71.5360  223.1230 C   0  0  0  0  0  0  0  0  0  0  0  0
  137.8810   71.5240  222.9200 C   0  0  0  0  0  0  0  0  0  0  0  0
  137.0470   70.6130  223.5150 C   0  0  0  0  0  0  0  0  0  0  0  0
  137.6160   69.6690  224.3510 C   0  0  0  0  0  0  0  0  0  0  0  0
  139.0010   69.6650  224.5670 C   0  0  0  0  0  0  0  0  0  0  0  0
  139.4890   68.5970  225.4360 C   0  0  0  0  0  0  0  0  0  0  0  0
  139.5760   67.4080  225.0410 O   0  0  0  0  0  0  0  0  0  0  0  0
  139.8670   68.9640  226.7580 N   0  0  0  0  0  0  0  0  0  0  0  0
  139.9400   70.1640  227.5790 C   0  0  0  0  0  0  0  0  0  0  0  0
  141.0950   69.5010  228.2980 C   0  0  0  0  0  0  0  0  0  0  0  0
  140.3460   68.2340  227.9500 C   0  0  0  0  0  0  0  0  0  0  0  0
  139.8110   70.5940  223.9590 C   0  0  0  0  0  0  0  0  0  0  0  0
  139.6500   73.7230  222.4020 N   0  0  0  0  0  0  0  0  0  0  0  0
  140.2270   74.8270  221.7240 C   0  0  0  0  0  0  0  0  0  0  0  0
  139.6150   76.0590  221.8430 C   0  0  0  0  0  0  0  0  0  0  0  0
  140.1780   77.1010  221.1430 C   0  0  0  0  0  0  0  0  0  0  0  0
  141.3060   76.9310  220.3520 C   0  0  0  0  0  0  0  0  0  0  0  0
  141.8110   78.0830  219.6170 C   0  0  0  0  0  0  0  0  0  0  0  0
  142.4980   78.0320  218.4400 C   0  0  0  0  0  0  0  0  0  0  0  0
  142.9180   79.2360  217.8680 C   0  0  0  0  0  0  0  0  0  0  0  0
  142.6590   80.4240  218.4490 N   0  0  0  0  0  0  0  0  0  0  0  0
  141.9840   80.5110  219.6120 C   0  0  0  0  0  0  0  0  0  0  0  0
  141.5630   79.3370  220.1900 C   0  0  0  0  0  0  0  0  0  0  0  0
  141.8870   75.6770  220.2660 C   0  0  0  0  0  0  0  0  0  0  0  0
  141.3480   74.6050  220.9560 C   0  0  0  0  0  0  0  0  0  0  0  0
  140.9815   71.3351  220.8554 H   0  0  0  0  0  0  0  0  0  0  0  0
  142.0190   71.6783  222.2919 H   0  0  0  0  0  0  0  0  0  0  0  0
  137.4422   72.2795  222.2517 H   0  0  0  0  0  0  0  0  0  0  0  0
  135.9622   70.6320  223.3338 H   0  0  0  0  0  0  0  0  0  0  0  0
  136.9806   68.9204  224.8470 H   0  0  0  0  0  0  0  0  0  0  0  0
  140.2027   71.0816  227.0323 H   0  0  0  0  0  0  0  0  0  0  0  0
  139.0652   70.5575  228.1175 H   0  0  0  0  0  0  0  0  0  0  0  0
  142.0802   69.6166  227.8225 H   0  0  0  0  0  0  0  0  0  0  0  0
  141.4195   69.7645  229.3155 H   0  0  0  0  0  0  0  0  0  0  0  0
  140.9824   67.3627  227.7359 H   0  0  0  0  0  0  0  0  0  0  0  0
  139.6608   67.7407  228.6550 H   0  0  0  0  0  0  0  0  0  0  0  0
  140.8961   70.5850  224.1391 H   0  0  0  0  0  0  0  0  0  0  0  0
  138.7205   76.2005  222.4674 H   0  0  0  0  0  0  0  0  0  0  0  0
  139.7205   78.0989  221.2122 H   0  0  0  0  0  0  0  0  0  0  0  0
  142.7156   77.0694  217.9541 H   0  0  0  0  0  0  0  0  0  0  0  0
  143.4742   79.2133  216.9193 H   0  0  0  0  0  0  0  0  0  0  0  0
  141.7777   81.4844  220.0810 H   0  0  0  0  0  0  0  0  0  0  0  0
  141.0098   79.3841  221.1396 H   0  0  0  0  0  0  0  0  0  0  0  0
  142.7832   75.5318  219.6449 H   0  0  0  0  0  0  0  0  0  0  0  0
  1  2  2  0
  2  3  1  0
  3  4  1  0
  4  5  1  0
  5  6  2  0
  6  7  1  0
  7  8  2  0
  8  9  1  0
  9 10  1  0
 10 11  2  0
 10 12  1  0
 12 13  1  0
 13 14  1  0
 14 15  1  0
  9 16  2  0
  4 17  2  0
 17 18  1  0
 18 19  2  0
 19 20  1  0
 20 21  2  0
 21 22  1  0
 22 23  2  0
 23 24  1  0
 24 25  2  0
 25 26  1  0
 26 27  2  0
 21 28  1  0
 28 29  2  0
 29  2  1  0
 16  5  1  0
 29 18  1  0
 15 12  1  0
 27 22  1  0
  3 30  1  0
  3 31  1  0
  6 32  1  0
  7 33  1  0
  8 34  1  0
 13 35  1  0
 13 36  1  0
 14 37  1  0
 14 38  1  0
 15 39  1  0
 15 40  1  0
 16 41  1  0
 19 42  1  0
 20 43  1  0
 23 44  1  0
 24 45  1  0
 26 46  1  0
 27 47  1  0
 28 48  1  0
M  END
>  <smiles>  (15) 
O=C1CC(c2cccc(C(=O)N3CCC3)c2)=Nc2ccc(-c3ccncc3)cc21

>  <score_type>  (15) 
oracle

>  <origin>  (15) 
autodockgpu

>  <m_score__min__energy>  (15) 
-8.6099999999999994

>  <m_primary>  (15) 
energy

>  <rmsd>  (15) 
6.511222115171026

>  <m_score__min__rmsd>  (15) 
6.511222115171026

>  <meeko>  (15) 
{"free_energy": -8.5, "intermolecular_energy": -9.39, "internal_energy": -0.93, "cluster_size": 50, "cluster_id": 1, "rank_in_cluster": 17}

>  <energy>  (15) 
-8.5

>  <cluster_rmsd>  (15) 
1.14

>  <cluster>  (15) 
1

$$$$

     RDKit          3D

 48 52  0  0  0  0  0  0  0  0999 V2000
  142.8100   73.0840  220.1670 O   0  0  0  0  0  0  0  0  0  0  0  0
  141.7930   73.2820  220.9040 C   0  0  0  0  0  0  0  0  0  0  0  0
  141.2000   72.1020  221.5790 C   0  0  0  0  0  0  0  0  0  0  0  0
  140.0380   72.5010  222.3990 C   0  0  0  0  0  0  0  0  0  0  0  0
  139.2200   71.5160  223.1430 C   0  0  0  0  0  0  0  0  0  0  0  0
  137.8500   71.4730  222.9160 C   0  0  0  0  0  0  0  0  0  0  0  0
  137.0260   70.5460  223.4990 C   0  0  0  0  0  0  0  0  0  0  0  0
  137.6010   69.6170  224.3480 C   0  0  0  0  0  0  0  0  0  0  0  0
  138.9810   69.6440  224.5890 C   0  0  0  0  0  0  0  0  0  0  0  0
  139.4770   68.5910  225.4700 C   0  0  0  0  0  0  0  0  0  0  0  0
  139.5550   67.3950  225.0950 O   0  0  0  0  0  0  0  0  0  0  0  0
  139.8730   68.9790  226.7810 N   0  0  0  0  0  0  0  0  0  0  0  0
  139.9600   70.1930  227.5800 C   0  0  0  0  0  0  0  0  0  0  0  0
  141.1230   69.5390  228.2950 C   0  0  0  0  0  0  0  0  0  0  0  0
  140.3650   68.2690  227.9790 C   0  0  0  0  0  0  0  0  0  0  0  0
  139.7810   70.5900  223.9930 C   0  0  0  0  0  0  0  0  0  0  0  0
  139.6260   73.7240  222.4920 N   0  0  0  0  0  0  0  0  0  0  0  0
  140.1990   74.8440  221.8380 C   0  0  0  0  0  0  0  0  0  0  0  0
  139.6100   76.0790  222.0210 C   0  0  0  0  0  0  0  0  0  0  0  0
  140.1670   77.1390  221.3430 C   0  0  0  0  0  0  0  0  0  0  0  0
  141.2680   76.9820  220.5130 C   0  0  0  0  0  0  0  0  0  0  0  0
  141.7690   78.1540  219.8060 C   0  0  0  0  0  0  0  0  0  0  0  0
  141.6490   79.4450  220.2290 C   0  0  0  0  0  0  0  0  0  0  0  0
  142.1820   80.4560  219.4240 C   0  0  0  0  0  0  0  0  0  0  0  0
  142.8030   80.1800  218.2610 N   0  0  0  0  0  0  0  0  0  0  0  0
  142.9390   78.9160  217.8130 C   0  0  0  0  0  0  0  0  0  0  0  0
  142.4200   77.9080  218.5900 C   0  0  0  0  0  0  0  0  0  0  0  0
  141.8270   75.7240  220.3630 C   0  0  0  0  0  0  0  0  0  0  0  0
  141.2940   74.6350  221.0290 C   0  0  0  0  0  0  0  0  0  0  0  0
  140.8740   71.3768  220.8189 H   0  0  0  0  0  0  0  0  0  0  0  0
  141.9587   71.6507  222.2353 H   0  0  0  0  0  0  0  0  0  0  0  0
  137.4066   72.2167  222.2376 H   0  0  0  0  0  0  0  0  0  0  0  0
  135.9444   70.5407  223.2988 H   0  0  0  0  0  0  0  0  0  0  0  0
  136.9735   68.8558  224.8347 H   0  0  0  0  0  0  0  0  0  0  0  0
  140.2178   71.1003  227.0140 H   0  0  0  0  0  0  0  0  0  0  0  0
  139.0936   70.5983  228.1231 H   0  0  0  0  0  0  0  0  0  0  0  0
  142.1020   69.6430  227.8043 H   0  0  0  0  0  0  0  0  0  0  0  0
  141.4624   69.8191  229.3032 H   0  0  0  0  0  0  0  0  0  0  0  0
  140.9955   67.3917  227.7721 H   0  0  0  0  0  0  0  0  0  0  0  0
  139.6873   67.7909  228.7016 H   0  0  0  0  0  0  0  0  0  0  0  0
  140.8623   70.6068  224.1941 H   0  0  0  0  0  0  0  0  0  0  0  0
  138.7371   76.2095  222.6775 H   0  0  0  0  0  0  0  0  0  0  0  0
  139.7267   78.1399  221.4624 H   0  0  0  0  0  0  0  0  0  0  0  0
  141.1465   79.6842  221.1778 H   0  0  0  0  0  0  0  0  0  0  0  0
  142.0920   81.5032  219.7485 H   0  0  0  0  0  0  0  0  0  0  0  0
  143.4463   78.6993  216.8613 H   0  0  0  0  0  0  0  0  0  0  0  0
  142.5195   76.8686  218.2440 H   0  0  0  0  0  0  0  0  0  0  0  0
  142.7014   75.5896  219.7093 H   0  0  0  0  0  0  0  0  0  0  0  0
  1  2  2  0
  2  3  1  0
  3  4  1  0
  4  5  1  0
  5  6  2  0
  6  7  1  0
  7  8  2  0
  8  9  1  0
  9 10  1  0
 10 11  2  0
 10 12  1  0
 12 13  1  0
 13 14  1  0
 14 15  1  0
  9 16  2  0
  4 17  2  0
 17 18  1  0
 18 19  2  0
 19 20  1  0
 20 21  2  0
 21 22  1  0
 22 23  2  0
 23 24  1  0
 24 25  2  0
 25 26  1  0
 26 27  2  0
 21 28  1  0
 28 29  2  0
 29  2  1  0
 16  5  1  0
 29 18  1  0
 15 12  1  0
 27 22  1  0
  3 30  1  0
  3 31  1  0
  6 32  1  0
  7 33  1  0
  8 34  1  0
 13 35  1  0
 13 36  1  0
 14 37  1  0
 14 38  1  0
 15 39  1  0
 15 40  1  0
 16 41  1  0
 19 42  1  0
 20 43  1  0
 23 44  1  0
 24 45  1  0
 26 46  1  0
 27 47  1  0
 28 48  1  0
M  END
>  <smiles>  (16) 
O=C1CC(c2cccc(C(=O)N3CCC3)c2)=Nc2ccc(-c3ccncc3)cc21

>  <score_type>  (16) 
oracle

>  <origin>  (16) 
autodockgpu

>  <m_score__min__energy>  (16) 
-8.6099999999999994

>  <m_primary>  (16) 
energy

>  <rmsd>  (16) 
6.498050665729554

>  <m_score__min__rmsd>  (16) 
6.498050665729554

>  <meeko>  (16) 
{"free_energy": -8.44, "intermolecular_energy": -9.34, "internal_energy": -0.94, "cluster_size": 50, "cluster_id": 1, "rank_in_cluster": 37}

>  <energy>  (16) 
-8.5

>  <cluster_rmsd>  (16) 
1.21

>  <cluster>  (16) 
1

$$$$

     RDKit          3D

 48 52  0  0  0  0  0  0  0  0999 V2000
  142.9060   73.0080  220.1770 O   0  0  0  0  0  0  0  0  0  0  0  0
  141.8640   73.2220  220.8730 C   0  0  0  0  0  0  0  0  0  0  0  0
  141.2620   72.0600  221.5710 C   0  0  0  0  0  0  0  0  0  0  0  0
  140.0690   72.4750  222.3390 C   0  0  0  0  0  0  0  0  0  0  0  0
  139.2380   71.5090  223.0920 C   0  0  0  0  0  0  0  0  0  0  0  0
  137.8650   71.4940  222.8760 C   0  0  0  0  0  0  0  0  0  0  0  0
  137.0270   70.5850  223.4680 C   0  0  0  0  0  0  0  0  0  0  0  0
  137.5900   69.6460  224.3140 C   0  0  0  0  0  0  0  0  0  0  0  0
  138.9720   69.6450  224.5430 C   0  0  0  0  0  0  0  0  0  0  0  0
  139.4540   68.5830  225.4220 C   0  0  0  0  0  0  0  0  0  0  0  0
  139.5210   67.3880  225.0430 O   0  0  0  0  0  0  0  0  0  0  0  0
  139.8480   68.9620  226.7360 N   0  0  0  0  0  0  0  0  0  0  0  0
  139.9450   70.1720  227.5400 C   0  0  0  0  0  0  0  0  0  0  0  0
  141.0980   69.5030  228.2570 C   0  0  0  0  0  0  0  0  0  0  0  0
  140.3280   68.2430  227.9330 C   0  0  0  0  0  0  0  0  0  0  0  0
  139.7860   70.5730  223.9380 C   0  0  0  0  0  0  0  0  0  0  0  0
  139.6430   73.6960  222.3730 N   0  0  0  0  0  0  0  0  0  0  0  0
  140.2260   74.7980  221.6980 C   0  0  0  0  0  0  0  0  0  0  0  0
  139.6180   76.0330  221.8170 C   0  0  0  0  0  0  0  0  0  0  0  0
  140.1870   77.0730  221.1190 C   0  0  0  0  0  0  0  0  0  0  0  0
  141.3160   76.8990  220.3310 C   0  0  0  0  0  0  0  0  0  0  0  0
  141.8280   78.0500  219.5980 C   0  0  0  0  0  0  0  0  0  0  0  0
  142.5100   77.9970  218.4190 C   0  0  0  0  0  0  0  0  0  0  0  0
  142.9380   79.2000  217.8490 C   0  0  0  0  0  0  0  0  0  0  0  0
  142.6890   80.3880  218.4350 N   0  0  0  0  0  0  0  0  0  0  0  0
  142.0190   80.4760  219.6000 C   0  0  0  0  0  0  0  0  0  0  0  0
  141.5910   79.3040  220.1760 C   0  0  0  0  0  0  0  0  0  0  0  0
  141.8920   75.6430  220.2450 C   0  0  0  0  0  0  0  0  0  0  0  0
  141.3480   74.5720  220.9330 C   0  0  0  0  0  0  0  0  0  0  0  0
  140.9684   71.3042  220.8277 H   0  0  0  0  0  0  0  0  0  0  0  0
  142.0037   71.6413  222.2671 H   0  0  0  0  0  0  0  0  0  0  0  0
  137.4314   72.2453  222.1996 H   0  0  0  0  0  0  0  0  0  0  0  0
  135.9438   70.6015  223.2770 H   0  0  0  0  0  0  0  0  0  0  0  0
  136.9512   68.8989  224.8077 H   0  0  0  0  0  0  0  0  0  0  0  0
  140.2147   71.0786  226.9784 H   0  0  0  0  0  0  0  0  0  0  0  0
  139.0808   70.5845  228.0813 H   0  0  0  0  0  0  0  0  0  0  0  0
  142.0800   69.5984  227.7707 H   0  0  0  0  0  0  0  0  0  0  0  0
  141.4363   69.7755  229.2676 H   0  0  0  0  0  0  0  0  0  0  0  0
  140.9500   67.3599  227.7252 H   0  0  0  0  0  0  0  0  0  0  0  0
  139.6423   67.7697  228.6512 H   0  0  0  0  0  0  0  0  0  0  0  0
  140.8692   70.5671  224.1293 H   0  0  0  0  0  0  0  0  0  0  0  0
  138.7227   76.1776  222.4395 H   0  0  0  0  0  0  0  0  0  0  0  0
  139.7333   78.0727  221.1876 H   0  0  0  0  0  0  0  0  0  0  0  0
  142.7180   77.0342  217.9293 H   0  0  0  0  0  0  0  0  0  0  0  0
  143.4917   79.1762  216.8988 H   0  0  0  0  0  0  0  0  0  0  0  0
  141.8218   81.4495  220.0727 H   0  0  0  0  0  0  0  0  0  0  0  0
  141.0412   79.3523  221.1275 H   0  0  0  0  0  0  0  0  0  0  0  0
  142.7887   75.4950  219.6253 H   0  0  0  0  0  0  0  0  0  0  0  0
  1  2  2  0
  2  3  1  0
  3  4  1  0
  4  5  1  0
  5  6  2  0
  6  7  1  0
  7  8  2  0
  8  9  1  0
  9 10  1  0
 10 11  2  0
 10 12  1  0
 12 13  1  0
 13 14  1  0
 14 15  1  0
  9 16  2  0
  4 17  2  0
 17 18  1  0
 18 19  2  0
 19 20  1  0
 20 21  2  0
 21 22  1  0
 22 23  2  0
 23 24  1  0
 24 25  2  0
 25 26  1  0
 26 27  2  0
 21 28  1  0
 28 29  2  0
 29  2  1  0
 16  5  1  0
 29 18  1  0
 15 12  1  0
 27 22  1  0
  3 30  1  0
  3 31  1  0
  6 32  1  0
  7 33  1  0
  8 34  1  0
 13 35  1  0
 13 36  1  0
 14 37  1  0
 14 38  1  0
 15 39  1  0
 15 40  1  0
 16 41  1  0
 19 42  1  0
 20 43  1  0
 23 44  1  0
 24 45  1  0
 26 46  1  0
 27 47  1  0
 28 48  1  0
M  END
>  <smiles>  (17) 
O=C1CC(c2cccc(C(=O)N3CCC3)c2)=Nc2ccc(-c3ccncc3)cc21

>  <score_type>  (17) 
oracle

>  <origin>  (17) 
autodockgpu

>  <m_score__min__energy>  (17) 
-8.6099999999999994

>  <m_primary>  (17) 
energy

>  <rmsd>  (17) 
6.498313458973698

>  <m_score__min__rmsd>  (17) 
6.498313458973698

>  <meeko>  (17) 
{"free_energy": -8.5, "intermolecular_energy": -9.39, "internal_energy": -0.93, "cluster_size": 50, "cluster_id": 1, "rank_in_cluster": 19}

>  <energy>  (17) 
-8.5

>  <cluster_rmsd>  (17) 
1.2

>  <cluster>  (17) 
1

$$$$

     RDKit          3D

 48 52  0  0  0  0  0  0  0  0999 V2000
  143.1770   74.7680  219.8870 O   0  0  0  0  0  0  0  0  0  0  0  0
  142.1690   74.5060  220.6160 C   0  0  0  0  0  0  0  0  0  0  0  0
  141.8490   73.0760  220.8470 C   0  0  0  0  0  0  0  0  0  0  0  0
  140.6620   72.9430  221.7160 C   0  0  0  0  0  0  0  0  0  0  0  0
  140.0850   71.6260  222.0700 C   0  0  0  0  0  0  0  0  0  0  0  0
  139.8870   70.6880  221.0650 C   0  0  0  0  0  0  0  0  0  0  0  0
  139.4330   69.4180  221.3100 C   0  0  0  0  0  0  0  0  0  0  0  0
  139.1650   69.0710  222.6220 C   0  0  0  0  0  0  0  0  0  0  0  0
  139.3590   70.0040  223.6490 C   0  0  0  0  0  0  0  0  0  0  0  0
  139.0820   69.5100  224.9950 C   0  0  0  0  0  0  0  0  0  0  0  0
  138.3570   68.5050  225.1970 O   0  0  0  0  0  0  0  0  0  0  0  0
  139.6730   70.2210  226.0780 N   0  0  0  0  0  0  0  0  0  0  0  0
  140.5480   71.3660  226.2820 C   0  0  0  0  0  0  0  0  0  0  0  0
  141.0320   70.6670  227.5350 C   0  0  0  0  0  0  0  0  0  0  0  0
  139.6240   70.1160  227.5500 C   0  0  0  0  0  0  0  0  0  0  0  0
  139.8120   71.2720  223.3720 C   0  0  0  0  0  0  0  0  0  0  0  0
  140.0190   73.9590  222.1920 N   0  0  0  0  0  0  0  0  0  0  0  0
  140.3320   75.3230  221.9600 C   0  0  0  0  0  0  0  0  0  0  0  0
  139.5150   76.2850  222.5200 C   0  0  0  0  0  0  0  0  0  0  0  0
  139.8250   77.5970  222.2450 C   0  0  0  0  0  0  0  0  0  0  0  0
  140.9040   77.9450  221.4440 C   0  0  0  0  0  0  0  0  0  0  0  0
  141.1340   79.3590  221.1770 C   0  0  0  0  0  0  0  0  0  0  0  0
  141.2080   79.9280  219.9400 C   0  0  0  0  0  0  0  0  0  0  0  0
  141.4420   81.3040  219.8590 C   0  0  0  0  0  0  0  0  0  0  0  0
  141.5900   82.0620  220.9630 N   0  0  0  0  0  0  0  0  0  0  0  0
  141.5240   81.5320  222.2000 C   0  0  0  0  0  0  0  0  0  0  0  0
  141.2960   80.1810  222.3000 C   0  0  0  0  0  0  0  0  0  0  0  0
  141.6960   76.9450  220.9070 C   0  0  0  0  0  0  0  0  0  0  0  0
  141.4160   75.6130  221.1620 C   0  0  0  0  0  0  0  0  0  0  0  0
  141.6462   72.5903  219.8811 H   0  0  0  0  0  0  0  0  0  0  0  0
  142.7063   72.5960  221.3416 H   0  0  0  0  0  0  0  0  0  0  0  0
  140.1042   70.9771  220.0261 H   0  0  0  0  0  0  0  0  0  0  0  0
  139.2867   68.6988  220.4906 H   0  0  0  0  0  0  0  0  0  0  0  0
  138.7991   68.0611  222.8593 H   0  0  0  0  0  0  0  0  0  0  0  0
  141.3149   71.5046  225.5057 H   0  0  0  0  0  0  0  0  0  0  0  0
  140.1661   72.3974  226.2989 H   0  0  0  0  0  0  0  0  0  0  0  0
  141.8312   69.9257  227.3874 H   0  0  0  0  0  0  0  0  0  0  0  0
  141.5008   71.1827  228.3861 H   0  0  0  0  0  0  0  0  0  0  0  0
  139.5310   69.0913  227.9391 H   0  0  0  0  0  0  0  0  0  0  0  0
  138.8193   70.5696  228.1473 H   0  0  0  0  0  0  0  0  0  0  0  0
  139.9553   71.9988  224.1852 H   0  0  0  0  0  0  0  0  0  0  0  0
  138.6581   76.0156  223.1550 H   0  0  0  0  0  0  0  0  0  0  0  0
  139.1990   78.3940  222.6727 H   0  0  0  0  0  0  0  0  0  0  0  0
  141.0869   79.3210  219.0307 H   0  0  0  0  0  0  0  0  0  0  0  0
  141.5069   81.7796  218.8693 H   0  0  0  0  0  0  0  0  0  0  0  0
  141.6480   82.1576  223.0962 H   0  0  0  0  0  0  0  0  0  0  0  0
  141.2384   79.7271  223.3003 H   0  0  0  0  0  0  0  0  0  0  0  0
  142.5546   77.2104  220.2727 H   0  0  0  0  0  0  0  0  0  0  0  0
  1  2  2  0
  2  3  1  0
  3  4  1  0
  4  5  1  0
  5  6  2  0
  6  7  1  0
  7  8  2  0
  8  9  1  0
  9 10  1  0
 10 11  2  0
 10 12  1  0
 12 13  1  0
 13 14  1  0
 14 15  1  0
  9 16  2  0
  4 17  2  0
 17 18  1  0
 18 19  2  0
 19 20  1  0
 20 21  2  0
 21 22  1  0
 22 23  2  0
 23 24  1  0
 24 25  2  0
 25 26  1  0
 26 27  2  0
 21 28  1  0
 28 29  2  0
 29  2  1  0
 16  5  1  0
 29 18  1  0
 15 12  1  0
 27 22  1  0
  3 30  1  0
  3 31  1  0
  6 32  1  0
  7 33  1  0
  8 34  1  0
 13 35  1  0
 13 36  1  0
 14 37  1  0
 14 38  1  0
 15 39  1  0
 15 40  1  0
 16 41  1  0
 19 42  1  0
 20 43  1  0
 23 44  1  0
 24 45  1  0
 26 46  1  0
 27 47  1  0
 28 48  1  0
M  END
>  <smiles>  (18) 
O=C1CC(c2cccc(C(=O)N3CCC3)c2)=Nc2ccc(-c3ccncc3)cc21

>  <score_type>  (18) 
oracle

>  <origin>  (18) 
autodockgpu

>  <m_score__min__energy>  (18) 
-8.6099999999999994

>  <m_primary>  (18) 
energy

>  <rmsd>  (18) 
6.458230340204161

>  <m_score__min__rmsd>  (18) 
6.458230340204161

>  <meeko>  (18) 
{"free_energy": -8.16, "intermolecular_energy": -9.05, "internal_energy": -0.84, "cluster_size": 50, "cluster_id": 1, "rank_in_cluster": 43}

>  <energy>  (18) 
-8.5

>  <cluster_rmsd>  (18) 
1.2

>  <cluster>  (18) 
1

$$$$

     RDKit          3D

 48 52  0  0  0  0  0  0  0  0999 V2000
  143.0630   73.5420  220.1690 O   0  0  0  0  0  0  0  0  0  0  0  0
  142.0020   73.4920  220.8680 C   0  0  0  0  0  0  0  0  0  0  0  0
  141.5340   72.1530  221.3000 C   0  0  0  0  0  0  0  0  0  0  0  0
  140.3010   72.2690  222.1070 C   0  0  0  0  0  0  0  0  0  0  0  0
  139.5820   71.0840  222.6260 C   0  0  0  0  0  0  0  0  0  0  0  0
  138.6540   70.4500  221.8090 C   0  0  0  0  0  0  0  0  0  0  0  0
  137.9990   69.3030  222.1750 C   0  0  0  0  0  0  0  0  0  0  0  0
  138.2880   68.7640  223.4160 C   0  0  0  0  0  0  0  0  0  0  0  0
  139.2210   69.3880  224.2540 C   0  0  0  0  0  0  0  0  0  0  0  0
  139.4730   68.7050  225.5190 C   0  0  0  0  0  0  0  0  0  0  0  0
  139.3510   67.4610  225.6380 O   0  0  0  0  0  0  0  0  0  0  0  0
  139.8660   69.5150  226.6230 N   0  0  0  0  0  0  0  0  0  0  0  0
  140.1310   70.9180  226.9060 C   0  0  0  0  0  0  0  0  0  0  0  0
  141.1180   70.4340  227.9470 C   0  0  0  0  0  0  0  0  0  0  0  0
  140.1590   69.2690  228.0490 C   0  0  0  0  0  0  0  0  0  0  0  0
  139.8600   70.5410  223.8600 C   0  0  0  0  0  0  0  0  0  0  0  0
  139.7400   73.4020  222.3790 N   0  0  0  0  0  0  0  0  0  0  0  0
  140.1960   74.6770  221.9570 C   0  0  0  0  0  0  0  0  0  0  0  0
  139.4540   75.7860  222.3100 C   0  0  0  0  0  0  0  0  0  0  0  0
  139.9030   77.0040  221.8530 C   0  0  0  0  0  0  0  0  0  0  0  0
  141.0450   77.1200  221.0740 C   0  0  0  0  0  0  0  0  0  0  0  0
  141.4250   78.4460  220.6040 C   0  0  0  0  0  0  0  0  0  0  0  0
  141.4150   79.5850  221.3540 C   0  0  0  0  0  0  0  0  0  0  0  0
  141.8050   80.7800  220.7440 C   0  0  0  0  0  0  0  0  0  0  0  0
  142.1860   80.8240  219.4520 N   0  0  0  0  0  0  0  0  0  0  0  0
  142.2080   79.7190  218.6820 C   0  0  0  0  0  0  0  0  0  0  0  0
  141.8270   78.5330  219.2640 C   0  0  0  0  0  0  0  0  0  0  0  0
  141.7590   75.9790  220.7480 C   0  0  0  0  0  0  0  0  0  0  0  0
  141.3380   74.7370  221.1900 C   0  0  0  0  0  0  0  0  0  0  0  0
  141.3282   71.5378  220.4116 H   0  0  0  0  0  0  0  0  0  0  0  0
  142.3172   71.6843  221.9139 H   0  0  0  0  0  0  0  0  0  0  0  0
  138.4352   70.8883  220.8241 H   0  0  0  0  0  0  0  0  0  0  0  0
  137.2682   68.8271  221.5046 H   0  0  0  0  0  0  0  0  0  0  0  0
  137.7840   67.8434  223.7453 H   0  0  0  0  0  0  0  0  0  0  0  0
  140.5777   71.4804  226.0729 H   0  0  0  0  0  0  0  0  0  0  0  0
  139.3262   71.6275  227.1488 H   0  0  0  0  0  0  0  0  0  0  0  0
  142.1232   70.1909  227.5723 H   0  0  0  0  0  0  0  0  0  0  0  0
  141.4509   71.0347  228.8063 H   0  0  0  0  0  0  0  0  0  0  0  0
  140.6293   68.2984  228.2654 H   0  0  0  0  0  0  0  0  0  0  0  0
  139.3699   69.2191  228.8138 H   0  0  0  0  0  0  0  0  0  0  0  0
  140.5883   71.0258  224.5268 H   0  0  0  0  0  0  0  0  0  0  0  0
  138.5473   75.7004  222.9270 H   0  0  0  0  0  0  0  0  0  0  0  0
  139.3397   77.9123  222.1131 H   0  0  0  0  0  0  0  0  0  0  0  0
  141.1083   79.5635  222.4102 H   0  0  0  0  0  0  0  0  0  0  0  0
  141.8010   81.7087  221.3334 H   0  0  0  0  0  0  0  0  0  0  0  0
  142.5189   79.7638  217.6278 H   0  0  0  0  0  0  0  0  0  0  0  0
  141.8381   77.6173  218.6546 H   0  0  0  0  0  0  0  0  0  0  0  0
  142.6675   76.0605  220.1332 H   0  0  0  0  0  0  0  0  0  0  0  0
  1  2  2  0
  2  3  1  0
  3  4  1  0
  4  5  1  0
  5  6  2  0
  6  7  1  0
  7  8  2  0
  8  9  1  0
  9 10  1  0
 10 11  2  0
 10 12  1  0
 12 13  1  0
 13 14  1  0
 14 15  1  0
  9 16  2  0
  4 17  2  0
 17 18  1  0
 18 19  2  0
 19 20  1  0
 20 21  2  0
 21 22  1  0
 22 23  2  0
 23 24  1  0
 24 25  2  0
 25 26  1  0
 26 27  2  0
 21 28  1  0
 28 29  2  0
 29  2  1  0
 16  5  1  0
 29 18  1  0
 15 12  1  0
 27 22  1  0
  3 30  1  0
  3 31  1  0
  6 32  1  0
  7 33  1  0
  8 34  1  0
 13 35  1  0
 13 36  1  0
 14 37  1  0
 14 38  1  0
 15 39  1  0
 15 40  1  0
 16 41  1  0
 19 42  1  0
 20 43  1  0
 23 44  1  0
 24 45  1  0
 26 46  1  0
 27 47  1  0
 28 48  1  0
M  END
>  <smiles>  (19) 
O=C1CC(c2cccc(C(=O)N3CCC3)c2)=Nc2ccc(-c3ccncc3)cc21

>  <score_type>  (19) 
oracle

>  <origin>  (19) 
autodockgpu

>  <m_score__min__energy>  (19) 
-8.6099999999999994

>  <m_primary>  (19) 
energy

>  <rmsd>  (19) 
6.288358849910562

>  <m_score__min__rmsd>  (19) 
6.288358849910562

>  <meeko>  (19) 
{"free_energy": -8.4, "intermolecular_energy": -9.3, "internal_energy": -0.87, "cluster_size": 50, "cluster_id": 1, "rank_in_cluster": 41}

>  <energy>  (19) 
-8.5

>  <cluster_rmsd>  (19) 
1.21

>  <cluster>  (19) 
1

$$$$

     RDKit          3D

 48 52  0  0  0  0  0  0  0  0999 V2000
  143.2290   73.8980  220.1290 O   0  0  0  0  0  0  0  0  0  0  0  0
  142.1770   73.7480  220.8260 C   0  0  0  0  0  0  0  0  0  0  0  0
  141.7950   72.3630  221.1940 C   0  0  0  0  0  0  0  0  0  0  0  0
  140.5600   72.3620  222.0060 C   0  0  0  0  0  0  0  0  0  0  0  0
  139.9200   71.1110  222.4700 C   0  0  0  0  0  0  0  0  0  0  0  0
  139.3210   70.2770  221.5340 C   0  0  0  0  0  0  0  0  0  0  0  0
  138.7730   69.0630  221.8600 C   0  0  0  0  0  0  0  0  0  0  0  0
  138.8290   68.6650  223.1840 C   0  0  0  0  0  0  0  0  0  0  0  0
  139.4300   69.4920  224.1410 C   0  0  0  0  0  0  0  0  0  0  0  0
  139.4650   68.9480  225.4960 C   0  0  0  0  0  0  0  0  0  0  0  0
  139.1770   67.7510  225.7380 O   0  0  0  0  0  0  0  0  0  0  0  0
  139.8440   69.8390  226.5400 N   0  0  0  0  0  0  0  0  0  0  0  0
  140.2540   71.2280  226.6940 C   0  0  0  0  0  0  0  0  0  0  0  0
  141.0630   70.7690  227.8890 C   0  0  0  0  0  0  0  0  0  0  0  0
  139.9590   69.7420  228.0090 C   0  0  0  0  0  0  0  0  0  0  0  0
  139.9670   70.7070  223.7850 C   0  0  0  0  0  0  0  0  0  0  0  0
  139.9300   73.4440  222.3320 N   0  0  0  0  0  0  0  0  0  0  0  0
  140.3030   74.7630  221.9710 C   0  0  0  0  0  0  0  0  0  0  0  0
  139.4940   75.8060  222.3770 C   0  0  0  0  0  0  0  0  0  0  0  0
  139.8630   77.0690  221.9770 C   0  0  0  0  0  0  0  0  0  0  0  0
  140.9930   77.2940  221.2040 C   0  0  0  0  0  0  0  0  0  0  0  0
  141.2870   78.6620  220.7960 C   0  0  0  0  0  0  0  0  0  0  0  0
  141.5420   79.0700  219.5200 C   0  0  0  0  0  0  0  0  0  0  0  0
  141.8120   80.4240  219.3020 C   0  0  0  0  0  0  0  0  0  0  0  0
  141.8230   81.3150  220.3120 N   0  0  0  0  0  0  0  0  0  0  0  0
  141.5760   80.9460  221.5850 C   0  0  0  0  0  0  0  0  0  0  0  0
  141.3090   79.6190  221.8190 C   0  0  0  0  0  0  0  0  0  0  0  0
  141.7760   76.2170  220.8230 C   0  0  0  0  0  0  0  0  0  0  0  0
  141.4360   74.9320  221.2060 C   0  0  0  0  0  0  0  0  0  0  0  0
  141.6253   71.7792  220.2773 H   0  0  0  0  0  0  0  0  0  0  0  0
  142.6081   71.9161  221.7849 H   0  0  0  0  0  0  0  0  0  0  0  0
  139.2848   70.6052  220.4847 H   0  0  0  0  0  0  0  0  0  0  0  0
  138.3046   68.4269  221.0946 H   0  0  0  0  0  0  0  0  0  0  0  0
  138.4008   67.6976  223.4853 H   0  0  0  0  0  0  0  0  0  0  0  0
  140.8493   71.6284  225.8602 H   0  0  0  0  0  0  0  0  0  0  0  0
  139.5245   72.0484  226.7626 H   0  0  0  0  0  0  0  0  0  0  0  0
  142.0621   70.3689  227.6616 H   0  0  0  0  0  0  0  0  0  0  0  0
  141.3812   71.4303  228.7085 H   0  0  0  0  0  0  0  0  0  0  0  0
  140.2788   68.7591  228.3853 H   0  0  0  0  0  0  0  0  0  0  0  0
  139.0969   69.8782  228.6785 H   0  0  0  0  0  0  0  0  0  0  0  0
  140.4310   71.3516  224.5460 H   0  0  0  0  0  0  0  0  0  0  0  0
  138.5975   75.6348  222.9909 H   0  0  0  0  0  0  0  0  0  0  0  0
  139.2437   77.9265  222.2790 H   0  0  0  0  0  0  0  0  0  0  0  0
  141.5354   78.3534  218.6855 H   0  0  0  0  0  0  0  0  0  0  0  0
  142.0209   80.7708  218.2792 H   0  0  0  0  0  0  0  0  0  0  0  0
  141.5878   81.6794  222.4048 H   0  0  0  0  0  0  0  0  0  0  0  0
  141.1044   79.2950  222.8501 H   0  0  0  0  0  0  0  0  0  0  0  0
  142.6748   76.3847  220.2114 H   0  0  0  0  0  0  0  0  0  0  0  0
  1  2  2  0
  2  3  1  0
  3  4  1  0
  4  5  1  0
  5  6  2  0
  6  7  1  0
  7  8  2  0
  8  9  1  0
  9 10  1  0
 10 11  2  0
 10 12  1  0
 12 13  1  0
 13 14  1  0
 14 15  1  0
  9 16  2  0
  4 17  2  0
 17 18  1  0
 18 19  2  0
 19 20  1  0
 20 21  2  0
 21 22  1  0
 22 23  2  0
 23 24  1  0
 24 25  2  0
 25 26  1  0
 26 27  2  0
 21 28  1  0
 28 29  2  0
 29  2  1  0
 16  5  1  0
 29 18  1  0
 15 12  1  0
 27 22  1  0
  3 30  1  0
  3 31  1  0
  6 32  1  0
  7 33  1  0
  8 34  1  0
 13 35  1  0
 13 36  1  0
 14 37  1  0
 14 38  1  0
 15 39  1  0
 15 40  1  0
 16 41  1  0
 19 42  1  0
 20 43  1  0
 23 44  1  0
 24 45  1  0
 26 46  1  0
 27 47  1  0
 28 48  1  0
M  END
>  <smiles>  (20) 
O=C1CC(c2cccc(C(=O)N3CCC3)c2)=Nc2ccc(-c3ccncc3)cc21

>  <score_type>  (20) 
oracle

>  <origin>  (20) 
autodockgpu

>  <m_score__min__energy>  (20) 
-8.6099999999999994

>  <m_primary>  (20) 
energy

>  <rmsd>  (20) 
6.295515465506799

>  <m_score__min__rmsd>  (20) 
6.295515465506799

>  <meeko>  (20) 
{"free_energy": -8.61, "intermolecular_energy": -9.5, "internal_energy": -0.81, "cluster_size": 50, "cluster_id": 1, "rank_in_cluster": 1}

>  <energy>  (20) 
-8.49

>  <cluster_rmsd>  (20) 
1.22

>  <cluster>  (20) 
1

$$$$

     RDKit          3D

 48 52  0  0  0  0  0  0  0  0999 V2000
  142.8430   73.0020  220.1780 O   0  0  0  0  0  0  0  0  0  0  0  0
  141.8260   73.2220  220.9080 C   0  0  0  0  0  0  0  0  0  0  0  0
  141.2290   72.0620  221.6130 C   0  0  0  0  0  0  0  0  0  0  0  0
  140.0660   72.4850  222.4200 C   0  0  0  0  0  0  0  0  0  0  0  0
  139.2450   71.5230  223.1890 C   0  0  0  0  0  0  0  0  0  0  0  0
  137.8670   71.5220  223.0060 C   0  0  0  0  0  0  0  0  0  0  0  0
  137.0360   70.6170  223.6140 C   0  0  0  0  0  0  0  0  0  0  0  0
  137.6110   69.6690  224.4420 C   0  0  0  0  0  0  0  0  0  0  0  0
  138.9980   69.6540  224.6370 C   0  0  0  0  0  0  0  0  0  0  0  0
  139.4920   68.5840  225.4990 C   0  0  0  0  0  0  0  0  0  0  0  0
  139.5730   67.3960  225.1000 O   0  0  0  0  0  0  0  0  0  0  0  0
  139.8800   68.9450  226.8200 N   0  0  0  0  0  0  0  0  0  0  0  0
  139.9610   70.1430  227.6430 C   0  0  0  0  0  0  0  0  0  0  0  0
  141.1220   69.4760  228.3510 C   0  0  0  0  0  0  0  0  0  0  0  0
  140.3680   68.2120  228.0050 C   0  0  0  0  0  0  0  0  0  0  0  0
  139.8060   70.5780  224.0170 C   0  0  0  0  0  0  0  0  0  0  0  0
  139.6580   73.7110  222.4800 N   0  0  0  0  0  0  0  0  0  0  0  0
  140.2350   74.8120  221.7980 C   0  0  0  0  0  0  0  0  0  0  0  0
  139.6490   76.0540  221.9470 C   0  0  0  0  0  0  0  0  0  0  0  0
  140.2100   77.0940  221.2420 C   0  0  0  0  0  0  0  0  0  0  0  0
  141.3120   76.9120  220.4180 C   0  0  0  0  0  0  0  0  0  0  0  0
  141.8170   78.0630  219.6810 C   0  0  0  0  0  0  0  0  0  0  0  0
  142.5160   78.0090  218.5120 C   0  0  0  0  0  0  0  0  0  0  0  0
  142.9340   79.2130  217.9360 C   0  0  0  0  0  0  0  0  0  0  0  0
  142.6610   80.4020  218.5070 N   0  0  0  0  0  0  0  0  0  0  0  0
  141.9740   80.4920  219.6630 C   0  0  0  0  0  0  0  0  0  0  0  0
  141.5550   79.3190  220.2440 C   0  0  0  0  0  0  0  0  0  0  0  0
  141.8680   75.6490  220.3020 C   0  0  0  0  0  0  0  0  0  0  0  0
  141.3300   74.5790  220.9960 C   0  0  0  0  0  0  0  0  0  0  0  0
  140.9029   71.3175  220.8718 H   0  0  0  0  0  0  0  0  0  0  0  0
  141.9854   71.6269  222.2827 H   0  0  0  0  0  0  0  0  0  0  0  0
  137.4239   72.2808  222.3442 H   0  0  0  0  0  0  0  0  0  0  0  0
  135.9487   70.6435  223.4492 H   0  0  0  0  0  0  0  0  0  0  0  0
  136.9775   68.9257  224.9481 H   0  0  0  0  0  0  0  0  0  0  0  0
  140.2203   71.0616  227.0963 H   0  0  0  0  0  0  0  0  0  0  0  0
  139.0913   70.5364  228.1896 H   0  0  0  0  0  0  0  0  0  0  0  0
  142.1034   69.5916  227.8678 H   0  0  0  0  0  0  0  0  0  0  0  0
  141.4556   69.7358  229.3665 H   0  0  0  0  0  0  0  0  0  0  0  0
  141.0012   67.3404  227.7829 H   0  0  0  0  0  0  0  0  0  0  0  0
  139.6878   67.7180  228.7144 H   0  0  0  0  0  0  0  0  0  0  0  0
  140.8935   70.5618  224.1819 H   0  0  0  0  0  0  0  0  0  0  0  0
  138.7754   76.2045  222.5983 H   0  0  0  0  0  0  0  0  0  0  0  0
  139.7724   78.0990  221.3341 H   0  0  0  0  0  0  0  0  0  0  0  0
  142.7451   77.0448  218.0347 H   0  0  0  0  0  0  0  0  0  0  0  0
  143.4999   79.1883  216.9931 H   0  0  0  0  0  0  0  0  0  0  0  0
  141.7569   81.4669  220.1239 H   0  0  0  0  0  0  0  0  0  0  0  0
  140.9920   79.3682  221.1877 H   0  0  0  0  0  0  0  0  0  0  0  0
  142.7433   75.4950  219.6538 H   0  0  0  0  0  0  0  0  0  0  0  0
  1  2  2  0
  2  3  1  0
  3  4  1  0
  4  5  1  0
  5  6  2  0
  6  7  1  0
  7  8  2  0
  8  9  1  0
  9 10  1  0
 10 11  2  0
 10 12  1  0
 12 13  1  0
 13 14  1  0
 14 15  1  0
  9 16  2  0
  4 17  2  0
 17 18  1  0
 18 19  2  0
 19 20  1  0
 20 21  2  0
 21 22  1  0
 22 23  2  0
 23 24  1  0
 24 25  2  0
 25 26  1  0
 26 27  2  0
 21 28  1  0
 28 29  2  0
 29  2  1  0
 16  5  1  0
 29 18  1  0
 15 12  1  0
 27 22  1  0
  3 30  1  0
  3 31  1  0
  6 32  1  0
  7 33  1  0
  8 34  1  0
 13 35  1  0
 13 36  1  0
 14 37  1  0
 14 38  1  0
 15 39  1  0
 15 40  1  0
 16 41  1  0
 19 42  1  0
 20 43  1  0
 23 44  1  0
 24 45  1  0
 26 46  1  0
 27 47  1  0
 28 48  1  0
M  END
>  <smiles>  (21) 
O=C1CC(c2cccc(C(=O)N3CCC3)c2)=Nc2ccc(-c3ccncc3)cc21

>  <score_type>  (21) 
oracle

>  <origin>  (21) 
autodockgpu

>  <m_score__min__energy>  (21) 
-8.6099999999999994

>  <m_primary>  (21) 
energy

>  <rmsd>  (21) 
6.51691474183119

>  <m_score__min__rmsd>  (21) 
6.51691474183119

>  <meeko>  (21) 
{"free_energy": -8.49, "intermolecular_energy": -9.39, "internal_energy": -0.93, "cluster_size": 50, "cluster_id": 1, "rank_in_cluster": 25}

>  <energy>  (21) 
-8.49

>  <cluster_rmsd>  (21) 
1.15

>  <cluster>  (21) 
1

$$$$

     RDKit          3D

 48 52  0  0  0  0  0  0  0  0999 V2000
  143.2290   73.8590  220.0670 O   0  0  0  0  0  0  0  0  0  0  0  0
  142.1840   73.7040  220.7740 C   0  0  0  0  0  0  0  0  0  0  0  0
  141.8060   72.3160  221.1360 C   0  0  0  0  0  0  0  0  0  0  0  0
  140.5800   72.3090  221.9610 C   0  0  0  0  0  0  0  0  0  0  0  0
  139.9450   71.0540  222.4220 C   0  0  0  0  0  0  0  0  0  0  0  0
  139.3710   70.2070  221.4810 C   0  0  0  0  0  0  0  0  0  0  0  0
  138.8310   68.9900  221.8050 C   0  0  0  0  0  0  0  0  0  0  0  0
  138.8670   68.6020  223.1320 C   0  0  0  0  0  0  0  0  0  0  0  0
  139.4410   69.4420  224.0950 C   0  0  0  0  0  0  0  0  0  0  0  0
  139.4580   68.9070  225.4530 C   0  0  0  0  0  0  0  0  0  0  0  0
  139.1450   67.7170  225.7020 O   0  0  0  0  0  0  0  0  0  0  0  0
  139.8470   69.7980  226.4930 N   0  0  0  0  0  0  0  0  0  0  0  0
  140.2830   71.1790  226.6390 C   0  0  0  0  0  0  0  0  0  0  0  0
  141.0750   70.7140  227.8430 C   0  0  0  0  0  0  0  0  0  0  0  0
  139.9510   69.7090  227.9630 C   0  0  0  0  0  0  0  0  0  0  0  0
  139.9720   70.6590  223.7400 C   0  0  0  0  0  0  0  0  0  0  0  0
  139.9540   73.3880  222.3030 N   0  0  0  0  0  0  0  0  0  0  0  0
  140.3230   74.7100  221.9480 C   0  0  0  0  0  0  0  0  0  0  0  0
  139.5180   75.7490  222.3700 C   0  0  0  0  0  0  0  0  0  0  0  0
  139.8840   77.0160  221.9770 C   0  0  0  0  0  0  0  0  0  0  0  0
  141.0050   77.2470  221.1930 C   0  0  0  0  0  0  0  0  0  0  0  0
  141.2950   78.6180  220.7940 C   0  0  0  0  0  0  0  0  0  0  0  0
  141.4730   79.0480  219.5120 C   0  0  0  0  0  0  0  0  0  0  0  0
  141.7510   80.4020  219.3020 C   0  0  0  0  0  0  0  0  0  0  0  0
  141.8430   81.2720  220.3270 N   0  0  0  0  0  0  0  0  0  0  0  0
  141.6740   80.8810  221.6050 C   0  0  0  0  0  0  0  0  0  0  0  0
  141.4000   79.5540  221.8310 C   0  0  0  0  0  0  0  0  0  0  0  0
  141.7840   76.1730  220.7950 C   0  0  0  0  0  0  0  0  0  0  0  0
  141.4470   74.8850  221.1720 C   0  0  0  0  0  0  0  0  0  0  0  0
  141.6265   71.7389  220.2169 H   0  0  0  0  0  0  0  0  0  0  0  0
  142.6254   71.8649  221.7148 H   0  0  0  0  0  0  0  0  0  0  0  0
  139.3493   70.5281  220.4291 H   0  0  0  0  0  0  0  0  0  0  0  0
  138.3839   68.3434  221.0355 H   0  0  0  0  0  0  0  0  0  0  0  0
  138.4441   67.6318  223.4319 H   0  0  0  0  0  0  0  0  0  0  0  0
  140.8916   71.5611  225.8061 H   0  0  0  0  0  0  0  0  0  0  0  0
  139.5692   72.0140  226.6963 H   0  0  0  0  0  0  0  0  0  0  0  0
  142.0679   70.2934  227.6256 H   0  0  0  0  0  0  0  0  0  0  0  0
  141.4000   71.3754  228.6597 H   0  0  0  0  0  0  0  0  0  0  0  0
  140.2497   68.7228  228.3480 H   0  0  0  0  0  0  0  0  0  0  0  0
  139.0875   69.8661  228.6261 H   0  0  0  0  0  0  0  0  0  0  0  0
  140.4159   71.3133  224.5048 H   0  0  0  0  0  0  0  0  0  0  0  0
  138.6270   75.5727  222.9905 H   0  0  0  0  0  0  0  0  0  0  0  0
  139.2693   77.8713  222.2940 H   0  0  0  0  0  0  0  0  0  0  0  0
  141.3998   78.3485  218.6662 H   0  0  0  0  0  0  0  0  0  0  0  0
  141.8983   80.7662  218.2745 H   0  0  0  0  0  0  0  0  0  0  0  0
  141.7524   81.5972  222.4362 H   0  0  0  0  0  0  0  0  0  0  0  0
  141.2574   79.2129  222.8670 H   0  0  0  0  0  0  0  0  0  0  0  0
  142.6763   76.3451  220.1752 H   0  0  0  0  0  0  0  0  0  0  0  0
  1  2  2  0
  2  3  1  0
  3  4  1  0
  4  5  1  0
  5  6  2  0
  6  7  1  0
  7  8  2  0
  8  9  1  0
  9 10  1  0
 10 11  2  0
 10 12  1  0
 12 13  1  0
 13 14  1  0
 14 15  1  0
  9 16  2  0
  4 17  2  0
 17 18  1  0
 18 19  2  0
 19 20  1  0
 20 21  2  0
 21 22  1  0
 22 23  2  0
 23 24  1  0
 24 25  2  0
 25 26  1  0
 26 27  2  0
 21 28  1  0
 28 29  2  0
 29  2  1  0
 16  5  1  0
 29 18  1  0
 15 12  1  0
 27 22  1  0
  3 30  1  0
  3 31  1  0
  6 32  1  0
  7 33  1  0
  8 34  1  0
 13 35  1  0
 13 36  1  0
 14 37  1  0
 14 38  1  0
 15 39  1  0
 15 40  1  0
 16 41  1  0
 19 42  1  0
 20 43  1  0
 23 44  1  0
 24 45  1  0
 26 46  1  0
 27 47  1  0
 28 48  1  0
M  END
>  <smiles>  (22) 
O=C1CC(c2cccc(C(=O)N3CCC3)c2)=Nc2ccc(-c3ccncc3)cc21

>  <score_type>  (22) 
oracle

>  <origin>  (22) 
autodockgpu

>  <m_score__min__energy>  (22) 
-8.6099999999999994

>  <m_primary>  (22) 
energy

>  <rmsd>  (22) 
6.289601481612943

>  <m_score__min__rmsd>  (22) 
6.289601481612943

>  <meeko>  (22) 
{"free_energy": -8.57, "intermolecular_energy": -9.46, "internal_energy": -0.8, "cluster_size": 50, "cluster_id": 1, "rank_in_cluster": 3}

>  <energy>  (22) 
-8.49

>  <cluster_rmsd>  (22) 
1.13

>  <cluster>  (22) 
1

$$$$

     RDKit          3D

 48 52  0  0  0  0  0  0  0  0999 V2000
  142.8340   72.9930  220.1790 O   0  0  0  0  0  0  0  0  0  0  0  0
  141.8160   73.2120  220.9080 C   0  0  0  0  0  0  0  0  0  0  0  0
  141.2230   72.0520  221.6170 C   0  0  0  0  0  0  0  0  0  0  0  0
  140.0590   72.4750  222.4230 C   0  0  0  0  0  0  0  0  0  0  0  0
  139.2410   71.5120  223.1950 C   0  0  0  0  0  0  0  0  0  0  0  0
  137.8630   71.5090  223.0160 C   0  0  0  0  0  0  0  0  0  0  0  0
  137.0340   70.6040  223.6270 C   0  0  0  0  0  0  0  0  0  0  0  0
  137.6120   69.6570  224.4550 C   0  0  0  0  0  0  0  0  0  0  0  0
  139.0000   69.6450  224.6460 C   0  0  0  0  0  0  0  0  0  0  0  0
  139.4970   68.5760  225.5080 C   0  0  0  0  0  0  0  0  0  0  0  0
  139.5740   67.3870  225.1120 O   0  0  0  0  0  0  0  0  0  0  0  0
  139.8960   68.9410  226.8250 N   0  0  0  0  0  0  0  0  0  0  0  0
  139.9850   70.1410  227.6440 C   0  0  0  0  0  0  0  0  0  0  0  0
  141.1490   69.4740  228.3470 C   0  0  0  0  0  0  0  0  0  0  0  0
  140.3890   68.2100  228.0090 C   0  0  0  0  0  0  0  0  0  0  0  0
  139.8050   70.5680  224.0230 C   0  0  0  0  0  0  0  0  0  0  0  0
  139.6470   73.7000  222.4790 N   0  0  0  0  0  0  0  0  0  0  0  0
  140.2210   74.8000  221.7930 C   0  0  0  0  0  0  0  0  0  0  0  0
  139.6300   76.0400  221.9380 C   0  0  0  0  0  0  0  0  0  0  0  0
  140.1880   77.0790  221.2290 C   0  0  0  0  0  0  0  0  0  0  0  0
  141.2910   76.8990  220.4070 C   0  0  0  0  0  0  0  0  0  0  0  0
  141.7920   78.0490  219.6660 C   0  0  0  0  0  0  0  0  0  0  0  0
  142.4860   77.9940  218.4930 C   0  0  0  0  0  0  0  0  0  0  0  0
  142.9000   79.1970  217.9140 C   0  0  0  0  0  0  0  0  0  0  0  0
  142.6290   80.3870  218.4850 N   0  0  0  0  0  0  0  0  0  0  0  0
  141.9470   80.4780  219.6430 C   0  0  0  0  0  0  0  0  0  0  0  0
  141.5310   79.3060  220.2280 C   0  0  0  0  0  0  0  0  0  0  0  0
  141.8500   75.6370  220.2950 C   0  0  0  0  0  0  0  0  0  0  0  0
  141.3160   74.5680  220.9920 C   0  0  0  0  0  0  0  0  0  0  0  0
  140.8988   71.3040  220.8785 H   0  0  0  0  0  0  0  0  0  0  0  0
  141.9809   71.6208  222.2875 H   0  0  0  0  0  0  0  0  0  0  0  0
  137.4174   72.2666  222.3545 H   0  0  0  0  0  0  0  0  0  0  0  0
  135.9463   70.6295  223.4648 H   0  0  0  0  0  0  0  0  0  0  0  0
  136.9810   68.9132  224.9635 H   0  0  0  0  0  0  0  0  0  0  0  0
  140.2428   71.0574  227.0929 H   0  0  0  0  0  0  0  0  0  0  0  0
  139.1195   70.5377  228.1949 H   0  0  0  0  0  0  0  0  0  0  0  0
  142.1277   69.5859  227.8574 H   0  0  0  0  0  0  0  0  0  0  0  0
  141.4897   69.7362  229.3595 H   0  0  0  0  0  0  0  0  0  0  0  0
  141.0185   67.3360  227.7856 H   0  0  0  0  0  0  0  0  0  0  0  0
  139.7118   67.7198  228.7239 H   0  0  0  0  0  0  0  0  0  0  0  0
  140.8929   70.5526  224.1848 H   0  0  0  0  0  0  0  0  0  0  0  0
  138.7558   76.1897  222.5886 H   0  0  0  0  0  0  0  0  0  0  0  0
  139.7462   78.0825  221.3166 H   0  0  0  0  0  0  0  0  0  0  0  0
  142.7136   77.0294  218.0158 H   0  0  0  0  0  0  0  0  0  0  0  0
  143.4612   79.1716  216.9683 H   0  0  0  0  0  0  0  0  0  0  0  0
  141.7312   81.4536  220.1031 H   0  0  0  0  0  0  0  0  0  0  0  0
  140.9716   79.3565  221.1738 H   0  0  0  0  0  0  0  0  0  0  0  0
  142.7254   75.4834  219.6468 H   0  0  0  0  0  0  0  0  0  0  0  0
  1  2  2  0
  2  3  1  0
  3  4  1  0
  4  5  1  0
  5  6  2  0
  6  7  1  0
  7  8  2  0
  8  9  1  0
  9 10  1  0
 10 11  2  0
 10 12  1  0
 12 13  1  0
 13 14  1  0
 14 15  1  0
  9 16  2  0
  4 17  2  0
 17 18  1  0
 18 19  2  0
 19 20  1  0
 20 21  2  0
 21 22  1  0
 22 23  2  0
 23 24  1  0
 24 25  2  0
 25 26  1  0
 26 27  2  0
 21 28  1  0
 28 29  2  0
 29  2  1  0
 16  5  1  0
 29 18  1  0
 15 12  1  0
 27 22  1  0
  3 30  1  0
  3 31  1  0
  6 32  1  0
  7 33  1  0
  8 34  1  0
 13 35  1  0
 13 36  1  0
 14 37  1  0
 14 38  1  0
 15 39  1  0
 15 40  1  0
 16 41  1  0
 19 42  1  0
 20 43  1  0
 23 44  1  0
 24 45  1  0
 26 46  1  0
 27 47  1  0
 28 48  1  0
M  END
>  <smiles>  (23) 
O=C1CC(c2cccc(C(=O)N3CCC3)c2)=Nc2ccc(-c3ccncc3)cc21

>  <score_type>  (23) 
oracle

>  <origin>  (23) 
autodockgpu

>  <m_score__min__energy>  (23) 
-8.6099999999999994

>  <m_primary>  (23) 
energy

>  <rmsd>  (23) 
6.516427045905474

>  <m_score__min__rmsd>  (23) 
6.516427045905474

>  <meeko>  (23) 
{"free_energy": -8.49, "intermolecular_energy": -9.38, "internal_energy": -0.93, "cluster_size": 50, "cluster_id": 1, "rank_in_cluster": 30}

>  <energy>  (23) 
-8.49

>  <cluster_rmsd>  (23) 
1.22

>  <cluster>  (23) 
1

$$$$

     RDKit          3D

 48 52  0  0  0  0  0  0  0  0999 V2000
  143.1750   74.7770  219.8300 O   0  0  0  0  0  0  0  0  0  0  0  0
  142.1760   74.5370  220.5790 C   0  0  0  0  0  0  0  0  0  0  0  0
  141.8380   73.1150  220.8280 C   0  0  0  0  0  0  0  0  0  0  0  0
  140.6640   73.0080  221.7190 C   0  0  0  0  0  0  0  0  0  0  0  0
  140.0720   71.7040  222.0940 C   0  0  0  0  0  0  0  0  0  0  0  0
  140.0330   70.6880  221.1480 C   0  0  0  0  0  0  0  0  0  0  0  0
  139.5770   69.4260  221.4280 C   0  0  0  0  0  0  0  0  0  0  0  0
  139.1400   69.1690  222.7160 C   0  0  0  0  0  0  0  0  0  0  0  0
  139.1720   70.1820  223.6830 C   0  0  0  0  0  0  0  0  0  0  0  0
  138.7250   69.7820  225.0150 C   0  0  0  0  0  0  0  0  0  0  0  0
  137.5090   69.6400  225.2910 O   0  0  0  0  0  0  0  0  0  0  0  0
  139.7330   69.5570  225.9940 N   0  0  0  0  0  0  0  0  0  0  0  0
  141.1850   69.5870  226.0910 C   0  0  0  0  0  0  0  0  0  0  0  0
  141.0540   68.5120  227.1490 C   0  0  0  0  0  0  0  0  0  0  0  0
  139.7400   69.2050  227.4280 C   0  0  0  0  0  0  0  0  0  0  0  0
  139.6320   71.4400  223.3710 C   0  0  0  0  0  0  0  0  0  0  0  0
  140.0450   74.0390  222.1970 N   0  0  0  0  0  0  0  0  0  0  0  0
  140.3770   75.3950  221.9480 C   0  0  0  0  0  0  0  0  0  0  0  0
  139.5850   76.3750  222.5140 C   0  0  0  0  0  0  0  0  0  0  0  0
  139.9110   77.6800  222.2220 C   0  0  0  0  0  0  0  0  0  0  0  0
  140.9810   78.0030  221.4000 C   0  0  0  0  0  0  0  0  0  0  0  0
  141.2290   79.4110  221.1160 C   0  0  0  0  0  0  0  0  0  0  0  0
  141.2000   79.9860  219.8800 C   0  0  0  0  0  0  0  0  0  0  0  0
  141.4680   81.3550  219.7820 C   0  0  0  0  0  0  0  0  0  0  0  0
  141.7480   82.1000  220.8690 N   0  0  0  0  0  0  0  0  0  0  0  0
  141.7860   81.5650  222.1040 C   0  0  0  0  0  0  0  0  0  0  0  0
  141.5250   80.2200  222.2210 C   0  0  0  0  0  0  0  0  0  0  0  0
  141.7470   76.9860  220.8570 C   0  0  0  0  0  0  0  0  0  0  0  0
  141.4500   75.6620  221.1290 C   0  0  0  0  0  0  0  0  0  0  0  0
  141.6108   72.6243  219.8701 H   0  0  0  0  0  0  0  0  0  0  0  0
  142.6963   72.6259  221.3119 H   0  0  0  0  0  0  0  0  0  0  0  0
  140.3837   70.9057  220.1284 H   0  0  0  0  0  0  0  0  0  0  0  0
  139.5589   68.6437  220.6549 H   0  0  0  0  0  0  0  0  0  0  0  0
  138.7673   68.1684  222.9805 H   0  0  0  0  0  0  0  0  0  0  0  0
  141.7146   69.2743  225.1790 H   0  0  0  0  0  0  0  0  0  0  0  0
  141.7389   70.5199  226.2720 H   0  0  0  0  0  0  0  0  0  0  0  0
  140.9775   67.4812  226.7727 H   0  0  0  0  0  0  0  0  0  0  0  0
  141.8161   68.3051  227.9147 H   0  0  0  0  0  0  0  0  0  0  0  0
  138.9235   68.5400  227.7461 H   0  0  0  0  0  0  0  0  0  0  0  0
  139.6281   69.9594  228.2207 H   0  0  0  0  0  0  0  0  0  0  0  0
  139.6481   72.2296  224.1367 H   0  0  0  0  0  0  0  0  0  0  0  0
  138.7353   76.1247  223.1662 H   0  0  0  0  0  0  0  0  0  0  0  0
  139.3053   78.4907  222.6531 H   0  0  0  0  0  0  0  0  0  0  0  0
  140.9720   79.3893  218.9845 H   0  0  0  0  0  0  0  0  0  0  0  0
  141.4497   81.8356  218.7927 H   0  0  0  0  0  0  0  0  0  0  0  0
  142.0171   82.1805  222.9859 H   0  0  0  0  0  0  0  0  0  0  0  0
  141.5495   79.7615  223.2206 H   0  0  0  0  0  0  0  0  0  0  0  0
  142.5978   77.2319  220.2046 H   0  0  0  0  0  0  0  0  0  0  0  0
  1  2  2  0
  2  3  1  0
  3  4  1  0
  4  5  1  0
  5  6  2  0
  6  7  1  0
  7  8  2  0
  8  9  1  0
  9 10  1  0
 10 11  2  0
 10 12  1  0
 12 13  1  0
 13 14  1  0
 14 15  1  0
  9 16  2  0
  4 17  2  0
 17 18  1  0
 18 19  2  0
 19 20  1  0
 20 21  2  0
 21 22  1  0
 22 23  2  0
 23 24  1  0
 24 25  2  0
 25 26  1  0
 26 27  2  0
 21 28  1  0
 28 29  2  0
 29  2  1  0
 16  5  1  0
 29 18  1  0
 15 12  1  0
 27 22  1  0
  3 30  1  0
  3 31  1  0
  6 32  1  0
  7 33  1  0
  8 34  1  0
 13 35  1  0
 13 36  1  0
 14 37  1  0
 14 38  1  0
 15 39  1  0
 15 40  1  0
 16 41  1  0
 19 42  1  0
 20 43  1  0
 23 44  1  0
 24 45  1  0
 26 46  1  0
 27 47  1  0
 28 48  1  0
M  END
>  <smiles>  (24) 
O=C1CC(c2cccc(C(=O)N3CCC3)c2)=Nc2ccc(-c3ccncc3)cc21

>  <score_type>  (24) 
oracle

>  <origin>  (24) 
autodockgpu

>  <m_score__min__energy>  (24) 
-8.6099999999999994

>  <m_primary>  (24) 
energy

>  <rmsd>  (24) 
6.741126024975702

>  <m_score__min__rmsd>  (24) 
6.741126024975702

>  <meeko>  (24) 
{"free_energy": -7.89, "intermolecular_energy": -8.78, "internal_energy": -0.94, "cluster_size": 50, "cluster_id": 1, "rank_in_cluster": 48}

>  <energy>  (24) 
-8.49

>  <cluster_rmsd>  (24) 
1.22

>  <cluster>  (24) 
1

$$$$

     RDKit          3D

 48 52  0  0  0  0  0  0  0  0999 V2000
  143.2330   74.2990  220.0160 O   0  0  0  0  0  0  0  0  0  0  0  0
  142.2030   74.1090  220.7370 C   0  0  0  0  0  0  0  0  0  0  0  0
  141.8460   72.7060  221.0580 C   0  0  0  0  0  0  0  0  0  0  0  0
  140.6370   72.6580  221.9060 C   0  0  0  0  0  0  0  0  0  0  0  0
  140.0220   71.3820  222.3360 C   0  0  0  0  0  0  0  0  0  0  0  0
  139.6110   70.4750  221.3670 C   0  0  0  0  0  0  0  0  0  0  0  0
  139.1050   69.2380  221.6710 C   0  0  0  0  0  0  0  0  0  0  0  0
  139.0070   68.8920  223.0070 C   0  0  0  0  0  0  0  0  0  0  0  0
  139.4180   69.7930  223.9980 C   0  0  0  0  0  0  0  0  0  0  0  0
  139.3060   69.3000  225.3680 C   0  0  0  0  0  0  0  0  0  0  0  0
  138.8250   68.1700  225.6300 O   0  0  0  0  0  0  0  0  0  0  0  0
  139.7680   70.1620  226.4030 N   0  0  0  0  0  0  0  0  0  0  0  0
  140.3790   71.4760  226.5370 C   0  0  0  0  0  0  0  0  0  0  0  0
  141.0510   70.9440  227.7850 C   0  0  0  0  0  0  0  0  0  0  0  0
  139.7980   70.1020  227.8780 C   0  0  0  0  0  0  0  0  0  0  0  0
  139.9180   71.0280  223.6620 C   0  0  0  0  0  0  0  0  0  0  0  0
  140.0060   73.7190  222.2960 N   0  0  0  0  0  0  0  0  0  0  0  0
  140.3560   75.0560  221.9790 C   0  0  0  0  0  0  0  0  0  0  0  0
  139.5490   76.0720  222.4520 C   0  0  0  0  0  0  0  0  0  0  0  0
  139.8940   77.3550  222.0940 C   0  0  0  0  0  0  0  0  0  0  0  0
  140.9980   77.6230  221.2980 C   0  0  0  0  0  0  0  0  0  0  0  0
  141.2660   79.0100  220.9390 C   0  0  0  0  0  0  0  0  0  0  0  0
  141.3910   79.4890  219.6690 C   0  0  0  0  0  0  0  0  0  0  0  0
  141.6550   80.8520  219.4990 C   0  0  0  0  0  0  0  0  0  0  0  0
  141.7850   81.6830  220.5520 N   0  0  0  0  0  0  0  0  0  0  0  0
  141.6690   81.2430  221.8200 C   0  0  0  0  0  0  0  0  0  0  0  0
  141.4100   79.9060  222.0070 C   0  0  0  0  0  0  0  0  0  0  0  0
  141.7790   76.5720  220.8490 C   0  0  0  0  0  0  0  0  0  0  0  0
  141.4630   75.2680  221.1880 C   0  0  0  0  0  0  0  0  0  0  0  0
  141.6538   72.1589  220.1232 H   0  0  0  0  0  0  0  0  0  0  0  0
  142.6812   72.2437  221.6046 H   0  0  0  0  0  0  0  0  0  0  0  0
  139.6955   70.7625  220.3086 H   0  0  0  0  0  0  0  0  0  0  0  0
  138.7874   68.5435  220.8792 H   0  0  0  0  0  0  0  0  0  0  0  0
  138.6058   67.9081  223.2915 H   0  0  0  0  0  0  0  0  0  0  0  0
  141.0671   71.7498  225.7237 H   0  0  0  0  0  0  0  0  0  0  0  0
  139.7821   72.3999  226.5436 H   0  0  0  0  0  0  0  0  0  0  0  0
  141.9862   70.3885  227.6215 H   0  0  0  0  0  0  0  0  0  0  0  0
  141.4284   71.5791  228.6000 H   0  0  0  0  0  0  0  0  0  0  0  0
  139.9451   69.0962  228.2985 H   0  0  0  0  0  0  0  0  0  0  0  0
  138.9369   70.3918  228.4981 H   0  0  0  0  0  0  0  0  0  0  0  0
  140.2333   71.7297  224.4482 H   0  0  0  0  0  0  0  0  0  0  0  0
  138.6729   75.8656  223.0843 H   0  0  0  0  0  0  0  0  0  0  0  0
  139.2762   78.1928  222.4495 H   0  0  0  0  0  0  0  0  0  0  0  0
  141.2870   78.8214  218.8009 H   0  0  0  0  0  0  0  0  0  0  0  0
  141.7590   81.2555  218.4810 H   0  0  0  0  0  0  0  0  0  0  0  0
  141.7775   81.9280  222.6738 H   0  0  0  0  0  0  0  0  0  0  0  0
  141.3120   79.5248  223.0342 H   0  0  0  0  0  0  0  0  0  0  0  0
  142.6571   76.7748  220.2182 H   0  0  0  0  0  0  0  0  0  0  0  0
  1  2  2  0
  2  3  1  0
  3  4  1  0
  4  5  1  0
  5  6  2  0
  6  7  1  0
  7  8  2  0
  8  9  1  0
  9 10  1  0
 10 11  2  0
 10 12  1  0
 12 13  1  0
 13 14  1  0
 14 15  1  0
  9 16  2  0
  4 17  2  0
 17 18  1  0
 18 19  2  0
 19 20  1  0
 20 21  2  0
 21 22  1  0
 22 23  2  0
 23 24  1  0
 24 25  2  0
 25 26  1  0
 26 27  2  0
 21 28  1  0
 28 29  2  0
 29  2  1  0
 16  5  1  0
 29 18  1  0
 15 12  1  0
 27 22  1  0
  3 30  1  0
  3 31  1  0
  6 32  1  0
  7 33  1  0
  8 34  1  0
 13 35  1  0
 13 36  1  0
 14 37  1  0
 14 38  1  0
 15 39  1  0
 15 40  1  0
 16 41  1  0
 19 42  1  0
 20 43  1  0
 23 44  1  0
 24 45  1  0
 26 46  1  0
 27 47  1  0
 28 48  1  0
M  END
>  <smiles>  (25) 
O=C1CC(c2cccc(C(=O)N3CCC3)c2)=Nc2ccc(-c3ccncc3)cc21

>  <score_type>  (25) 
oracle

>  <origin>  (25) 
autodockgpu

>  <m_score__min__energy>  (25) 
-8.6099999999999994

>  <m_primary>  (25) 
energy

>  <rmsd>  (25) 
6.364925685754708

>  <m_score__min__rmsd>  (25) 
6.364925685754708

>  <meeko>  (25) 
{"free_energy": -8.48, "intermolecular_energy": -9.38, "internal_energy": -0.79, "cluster_size": 50, "cluster_id": 1, "rank_in_cluster": 33}

>  <energy>  (25) 
-8.49

>  <cluster_rmsd>  (25) 
1.21

>  <cluster>  (25) 
1

$$$$

     RDKit          3D

 48 52  0  0  0  0  0  0  0  0999 V2000
  143.1470   73.6060  220.1520 O   0  0  0  0  0  0  0  0  0  0  0  0
  142.0850   73.5380  220.8490 C   0  0  0  0  0  0  0  0  0  0  0  0
  141.6310   72.1900  221.2670 C   0  0  0  0  0  0  0  0  0  0  0  0
  140.3960   72.2840  222.0720 C   0  0  0  0  0  0  0  0  0  0  0  0
  139.6890   71.0860  222.5790 C   0  0  0  0  0  0  0  0  0  0  0  0
  138.8770   70.3680  221.7100 C   0  0  0  0  0  0  0  0  0  0  0  0
  138.2470   69.2040  222.0680 C   0  0  0  0  0  0  0  0  0  0  0  0
  138.4400   68.7370  223.3560 C   0  0  0  0  0  0  0  0  0  0  0  0
  139.2560   69.4470  224.2460 C   0  0  0  0  0  0  0  0  0  0  0  0
  139.4170   68.8350  225.5620 C   0  0  0  0  0  0  0  0  0  0  0  0
  139.2210   67.6100  225.7530 O   0  0  0  0  0  0  0  0  0  0  0  0
  139.8090   69.6930  226.6290 N   0  0  0  0  0  0  0  0  0  0  0  0
  140.1410   71.0950  226.8360 C   0  0  0  0  0  0  0  0  0  0  0  0
  141.0560   70.6280  227.9480 C   0  0  0  0  0  0  0  0  0  0  0  0
  140.0300   69.5250  228.0800 C   0  0  0  0  0  0  0  0  0  0  0  0
  139.8720   70.6140  223.8590 C   0  0  0  0  0  0  0  0  0  0  0  0
  139.8210   73.4080  222.3540 N   0  0  0  0  0  0  0  0  0  0  0  0
  140.2640   74.6920  221.9450 C   0  0  0  0  0  0  0  0  0  0  0  0
  139.5090   75.7890  222.3080 C   0  0  0  0  0  0  0  0  0  0  0  0
  139.9450   77.0160  221.8630 C   0  0  0  0  0  0  0  0  0  0  0  0
  141.0870   77.1520  221.0870 C   0  0  0  0  0  0  0  0  0  0  0  0
  141.4530   78.4870  220.6300 C   0  0  0  0  0  0  0  0  0  0  0  0
  141.8130   78.8160  219.3570 C   0  0  0  0  0  0  0  0  0  0  0  0
  142.1410   80.1480  219.0870 C   0  0  0  0  0  0  0  0  0  0  0  0
  142.1070   81.0930  220.0470 N   0  0  0  0  0  0  0  0  0  0  0  0
  141.7580   80.8030  221.3150 C   0  0  0  0  0  0  0  0  0  0  0  0
  141.4320   79.4980  221.6000 C   0  0  0  0  0  0  0  0  0  0  0  0
  141.8140   76.0230  220.7510 C   0  0  0  0  0  0  0  0  0  0  0  0
  141.4060   74.7720  221.1800 C   0  0  0  0  0  0  0  0  0  0  0  0
  141.4339   71.5813  220.3722 H   0  0  0  0  0  0  0  0  0  0  0  0
  142.4182   71.7242  221.8781 H   0  0  0  0  0  0  0  0  0  0  0  0
  138.7330   70.7505  220.6888 H   0  0  0  0  0  0  0  0  0  0  0  0
  137.6097   68.6599  221.3554 H   0  0  0  0  0  0  0  0  0  0  0  0
  137.9518   67.8066  223.6816 H   0  0  0  0  0  0  0  0  0  0  0  0
  140.6523   71.5777  225.9901 H   0  0  0  0  0  0  0  0  0  0  0  0
  139.3679   71.8605  226.9984 H   0  0  0  0  0  0  0  0  0  0  0  0
  142.0605   70.3079  227.6343 H   0  0  0  0  0  0  0  0  0  0  0  0
  141.3866   71.2647  228.7819 H   0  0  0  0  0  0  0  0  0  0  0  0
  140.4360   68.5469  228.3772 H   0  0  0  0  0  0  0  0  0  0  0  0
  139.2089   69.5672  228.8108 H   0  0  0  0  0  0  0  0  0  0  0  0
  140.5066   71.1665  224.5675 H   0  0  0  0  0  0  0  0  0  0  0  0
  138.6028   75.6874  222.9231 H   0  0  0  0  0  0  0  0  0  0  0  0
  139.3712   77.9155  222.1304 H   0  0  0  0  0  0  0  0  0  0  0  0
  141.8446   78.0544  218.5640 H   0  0  0  0  0  0  0  0  0  0  0  0
  142.4342   80.4316  218.0654 H   0  0  0  0  0  0  0  0  0  0  0  0
  141.7346   81.5804  222.0929 H   0  0  0  0  0  0  0  0  0  0  0  0
  141.1436   79.2376  222.6291 H   0  0  0  0  0  0  0  0  0  0  0  0
  142.7225   76.1208  220.1386 H   0  0  0  0  0  0  0  0  0  0  0  0
  1  2  2  0
  2  3  1  0
  3  4  1  0
  4  5  1  0
  5  6  2  0
  6  7  1  0
  7  8  2  0
  8  9  1  0
  9 10  1  0
 10 11  2  0
 10 12  1  0
 12 13  1  0
 13 14  1  0
 14 15  1  0
  9 16  2  0
  4 17  2  0
 17 18  1  0
 18 19  2  0
 19 20  1  0
 20 21  2  0
 21 22  1  0
 22 23  2  0
 23 24  1  0
 24 25  2  0
 25 26  1  0
 26 27  2  0
 21 28  1  0
 28 29  2  0
 29  2  1  0
 16  5  1  0
 29 18  1  0
 15 12  1  0
 27 22  1  0
  3 30  1  0
  3 31  1  0
  6 32  1  0
  7 33  1  0
  8 34  1  0
 13 35  1  0
 13 36  1  0
 14 37  1  0
 14 38  1  0
 15 39  1  0
 15 40  1  0
 16 41  1  0
 19 42  1  0
 20 43  1  0
 23 44  1  0
 24 45  1  0
 26 46  1  0
 27 47  1  0
 28 48  1  0
M  END
>  <smiles>  (26) 
O=C1CC(c2cccc(C(=O)N3CCC3)c2)=Nc2ccc(-c3ccncc3)cc21

>  <score_type>  (26) 
oracle

>  <origin>  (26) 
autodockgpu

>  <m_score__min__energy>  (26) 
-8.6099999999999994

>  <m_primary>  (26) 
energy

>  <rmsd>  (26) 
6.278156076244486

>  <m_score__min__rmsd>  (26) 
6.278156076244486

>  <meeko>  (26) 
{"free_energy": -8.47, "intermolecular_energy": -9.37, "internal_energy": -0.85, "cluster_size": 50, "cluster_id": 1, "rank_in_cluster": 34}

>  <energy>  (26) 
-8.49

>  <cluster_rmsd>  (26) 
1.19

>  <cluster>  (26) 
1

$$$$

     RDKit          3D

 48 52  0  0  0  0  0  0  0  0999 V2000
  142.9940   73.0210  220.2850 O   0  0  0  0  0  0  0  0  0  0  0  0
  141.9250   73.1900  220.9530 C   0  0  0  0  0  0  0  0  0  0  0  0
  141.3400   71.9990  221.6140 C   0  0  0  0  0  0  0  0  0  0  0  0
  140.1130   72.3640  222.3520 C   0  0  0  0  0  0  0  0  0  0  0  0
  139.2910   71.3600  223.0650 C   0  0  0  0  0  0  0  0  0  0  0  0
  137.9610   71.1980  222.6950 C   0  0  0  0  0  0  0  0  0  0  0  0
  137.1460   70.2420  223.2440 C   0  0  0  0  0  0  0  0  0  0  0  0
  137.6880   69.4080  224.2060 C   0  0  0  0  0  0  0  0  0  0  0  0
  139.0270   69.5550  224.5900 C   0  0  0  0  0  0  0  0  0  0  0  0
  139.4970   68.5930  225.5820 C   0  0  0  0  0  0  0  0  0  0  0  0
  139.5760   67.3650  225.3300 O   0  0  0  0  0  0  0  0  0  0  0  0
  139.8670   69.1080  226.8570 N   0  0  0  0  0  0  0  0  0  0  0  0
  139.9450   70.3950  227.5320 C   0  0  0  0  0  0  0  0  0  0  0  0
  141.0870   69.8110  228.3350 C   0  0  0  0  0  0  0  0  0  0  0  0
  140.3280   68.5190  228.1300 C   0  0  0  0  0  0  0  0  0  0  0  0
  139.8190   70.5270  224.0240 C   0  0  0  0  0  0  0  0  0  0  0  0
  139.6480   73.5700  222.3940 N   0  0  0  0  0  0  0  0  0  0  0  0
  140.2150   74.7010  221.7540 C   0  0  0  0  0  0  0  0  0  0  0  0
  139.5660   75.9140  221.8740 C   0  0  0  0  0  0  0  0  0  0  0  0
  140.1220   76.9830  221.2100 C   0  0  0  0  0  0  0  0  0  0  0  0
  141.2780   76.8570  220.4540 C   0  0  0  0  0  0  0  0  0  0  0  0
  141.7750   78.0360  219.7540 C   0  0  0  0  0  0  0  0  0  0  0  0
  142.5170   78.0230  218.6110 C   0  0  0  0  0  0  0  0  0  0  0  0
  142.9190   79.2480  218.0710 C   0  0  0  0  0  0  0  0  0  0  0  0
  142.5900   80.4190  218.6510 N   0  0  0  0  0  0  0  0  0  0  0  0
  141.8580   80.4680  219.7810 C   0  0  0  0  0  0  0  0  0  0  0  0
  141.4540   79.2730  220.3280 C   0  0  0  0  0  0  0  0  0  0  0  0
  141.8960   75.6210  220.3640 C   0  0  0  0  0  0  0  0  0  0  0  0
  141.3660   74.5230  221.0190 C   0  0  0  0  0  0  0  0  0  0  0  0
  141.0924   71.2469  220.8504 H   0  0  0  0  0  0  0  0  0  0  0  0
  142.0738   71.5919  222.3252 H   0  0  0  0  0  0  0  0  0  0  0  0
  137.5438   71.8666  221.9276 H   0  0  0  0  0  0  0  0  0  0  0  0
  136.0965   70.1413  222.9303 H   0  0  0  0  0  0  0  0  0  0  0  0
  137.0662   68.6282  224.6700 H   0  0  0  0  0  0  0  0  0  0  0  0
  140.2215   71.2397  226.8839 H   0  0  0  0  0  0  0  0  0  0  0  0
  139.0696   70.8567  228.0121 H   0  0  0  0  0  0  0  0  0  0  0  0
  142.0774   69.8613  227.8590 H   0  0  0  0  0  0  0  0  0  0  0  0
  141.4055   70.1890  229.3177 H   0  0  0  0  0  0  0  0  0  0  0  0
  140.9573   67.6228  228.0256 H   0  0  0  0  0  0  0  0  0  0  0  0
  139.6316   68.1181  228.8812 H   0  0  0  0  0  0  0  0  0  0  0  0
  140.8679   70.6374  224.3363 H   0  0  0  0  0  0  0  0  0  0  0  0
  138.6487   76.0204  222.4717 H   0  0  0  0  0  0  0  0  0  0  0  0
  139.6353   77.9669  221.2808 H   0  0  0  0  0  0  0  0  0  0  0  0
  142.7920   77.0745  218.1266 H   0  0  0  0  0  0  0  0  0  0  0  0
  143.5192   79.2563  217.1492 H   0  0  0  0  0  0  0  0  0  0  0  0
  141.5935   81.4280  220.2484 H   0  0  0  0  0  0  0  0  0  0  0  0
  140.8561   79.2888  221.2512 H   0  0  0  0  0  0  0  0  0  0  0  0
  142.8140   75.5112  219.7681 H   0  0  0  0  0  0  0  0  0  0  0  0
  1  2  2  0
  2  3  1  0
  3  4  1  0
  4  5  1  0
  5  6  2  0
  6  7  1  0
  7  8  2  0
  8  9  1  0
  9 10  1  0
 10 11  2  0
 10 12  1  0
 12 13  1  0
 13 14  1  0
 14 15  1  0
  9 16  2  0
  4 17  2  0
 17 18  1  0
 18 19  2  0
 19 20  1  0
 20 21  2  0
 21 22  1  0
 22 23  2  0
 23 24  1  0
 24 25  2  0
 25 26  1  0
 26 27  2  0
 21 28  1  0
 28 29  2  0
 29  2  1  0
 16  5  1  0
 29 18  1  0
 15 12  1  0
 27 22  1  0
  3 30  1  0
  3 31  1  0
  6 32  1  0
  7 33  1  0
  8 34  1  0
 13 35  1  0
 13 36  1  0
 14 37  1  0
 14 38  1  0
 15 39  1  0
 15 40  1  0
 16 41  1  0
 19 42  1  0
 20 43  1  0
 23 44  1  0
 24 45  1  0
 26 46  1  0
 27 47  1  0
 28 48  1  0
M  END
>  <smiles>  (27) 
O=C1CC(c2cccc(C(=O)N3CCC3)c2)=Nc2ccc(-c3ccncc3)cc21

>  <score_type>  (27) 
oracle

>  <origin>  (27) 
autodockgpu

>  <m_score__min__energy>  (27) 
-8.6099999999999994

>  <m_primary>  (27) 
energy

>  <rmsd>  (27) 
6.442593685596868

>  <m_score__min__rmsd>  (27) 
6.442593685596868

>  <meeko>  (27) 
{"free_energy": -8.49, "intermolecular_energy": -9.38, "internal_energy": -0.94, "cluster_size": 50, "cluster_id": 1, "rank_in_cluster": 32}

>  <energy>  (27) 
-8.49

>  <cluster_rmsd>  (27) 
1.2

>  <cluster>  (27) 
1

$$$$

     RDKit          3D

 48 52  0  0  0  0  0  0  0  0999 V2000
  143.1300   74.6560  219.6510 O   0  0  0  0  0  0  0  0  0  0  0  0
  142.1960   74.4830  220.4970 C   0  0  0  0  0  0  0  0  0  0  0  0
  141.8710   73.0870  220.8760 C   0  0  0  0  0  0  0  0  0  0  0  0
  140.7760   73.0590  221.8670 C   0  0  0  0  0  0  0  0  0  0  0  0
  140.2100   71.7930  222.3850 C   0  0  0  0  0  0  0  0  0  0  0  0
  140.0040   70.7400  221.5020 C   0  0  0  0  0  0  0  0  0  0  0  0
  139.5580   69.5070  221.9040 C   0  0  0  0  0  0  0  0  0  0  0  0
  139.3090   69.3190  223.2520 C   0  0  0  0  0  0  0  0  0  0  0  0
  139.5120   70.3690  224.1570 C   0  0  0  0  0  0  0  0  0  0  0  0
  139.2550   70.0400  225.5560 C   0  0  0  0  0  0  0  0  0  0  0  0
  138.4630   69.1250  225.8870 O   0  0  0  0  0  0  0  0  0  0  0  0
  139.9460   70.8070  226.5370 N   0  0  0  0  0  0  0  0  0  0  0  0
  140.9160   71.8910  226.5890 C   0  0  0  0  0  0  0  0  0  0  0  0
  141.3970   71.2850  227.8910 C   0  0  0  0  0  0  0  0  0  0  0  0
  139.9520   70.8570  228.0130 C   0  0  0  0  0  0  0  0  0  0  0  0
  139.9560   71.5960  223.7230 C   0  0  0  0  0  0  0  0  0  0  0  0
  140.2060   74.1290  222.3190 N   0  0  0  0  0  0  0  0  0  0  0  0
  140.5240   75.4590  221.9450 C   0  0  0  0  0  0  0  0  0  0  0  0
  139.7890   76.4870  222.5020 C   0  0  0  0  0  0  0  0  0  0  0  0
  140.0970   77.7640  222.0900 C   0  0  0  0  0  0  0  0  0  0  0  0
  141.0960   78.0140  221.1600 C   0  0  0  0  0  0  0  0  0  0  0  0
  141.3280   79.3940  220.7540 C   0  0  0  0  0  0  0  0  0  0  0  0
  141.6130   79.8100  219.4870 C   0  0  0  0  0  0  0  0  0  0  0  0
  141.8140   81.1760  219.2700 C   0  0  0  0  0  0  0  0  0  0  0  0
  141.7320   82.0710  220.2730 N   0  0  0  0  0  0  0  0  0  0  0  0
  141.4540   81.6960  221.5370 C   0  0  0  0  0  0  0  0  0  0  0  0
  141.2530   80.3560  221.7700 C   0  0  0  0  0  0  0  0  0  0  0  0
  141.8080   76.9510  220.6310 C   0  0  0  0  0  0  0  0  0  0  0  0
  141.5260   75.6530  221.0220 C   0  0  0  0  0  0  0  0  0  0  0  0
  141.5608   72.5316  219.9786 H   0  0  0  0  0  0  0  0  0  0  0  0
  142.7638   72.6232  221.3207 H   0  0  0  0  0  0  0  0  0  0  0  0
  140.2077   70.9026  220.4333 H   0  0  0  0  0  0  0  0  0  0  0  0
  139.4034   68.6945  221.1788 H   0  0  0  0  0  0  0  0  0  0  0  0
  138.9512   68.3437  223.6136 H   0  0  0  0  0  0  0  0  0  0  0  0
  141.6572   71.8863  225.7763 H   0  0  0  0  0  0  0  0  0  0  0  0
  140.6174   72.9468  226.5108 H   0  0  0  0  0  0  0  0  0  0  0  0
  142.1281   70.4688  227.7941 H   0  0  0  0  0  0  0  0  0  0  0  0
  141.9414   71.8439  228.6664 H   0  0  0  0  0  0  0  0  0  0  0  0
  139.7954   69.8886  228.5106 H   0  0  0  0  0  0  0  0  0  0  0  0
  139.2120   71.4341  228.5869 H   0  0  0  0  0  0  0  0  0  0  0  0
  140.1072   72.4153  224.4413 H   0  0  0  0  0  0  0  0  0  0  0  0
  138.9957   76.2947  223.2393 H   0  0  0  0  0  0  0  0  0  0  0  0
  139.5347   78.6109  222.5103 H   0  0  0  0  0  0  0  0  0  0  0  0
  141.6828   79.0900  218.6583 H   0  0  0  0  0  0  0  0  0  0  0  0
  142.0450   81.5291  218.2541 H   0  0  0  0  0  0  0  0  0  0  0  0
  141.3903   82.4333  222.3508 H   0  0  0  0  0  0  0  0  0  0  0  0
  141.0244   80.0262  222.7942 H   0  0  0  0  0  0  0  0  0  0  0  0
  142.6034   77.1389  219.8948 H   0  0  0  0  0  0  0  0  0  0  0  0
  1  2  2  0
  2  3  1  0
  3  4  1  0
  4  5  1  0
  5  6  2  0
  6  7  1  0
  7  8  2  0
  8  9  1  0
  9 10  1  0
 10 11  2  0
 10 12  1  0
 12 13  1  0
 13 14  1  0
 14 15  1  0
  9 16  2  0
  4 17  2  0
 17 18  1  0
 18 19  2  0
 19 20  1  0
 20 21  2  0
 21 22  1  0
 22 23  2  0
 23 24  1  0
 24 25  2  0
 25 26  1  0
 26 27  2  0
 21 28  1  0
 28 29  2  0
 29  2  1  0
 16  5  1  0
 29 18  1  0
 15 12  1  0
 27 22  1  0
  3 30  1  0
  3 31  1  0
  6 32  1  0
  7 33  1  0
  8 34  1  0
 13 35  1  0
 13 36  1  0
 14 37  1  0
 14 38  1  0
 15 39  1  0
 15 40  1  0
 16 41  1  0
 19 42  1  0
 20 43  1  0
 23 44  1  0
 24 45  1  0
 26 46  1  0
 27 47  1  0
 28 48  1  0
M  END
>  <smiles>  (28) 
O=C1CC(c2cccc(C(=O)N3CCC3)c2)=Nc2ccc(-c3ccncc3)cc21

>  <score_type>  (28) 
oracle

>  <origin>  (28) 
autodockgpu

>  <m_score__min__energy>  (28) 
-8.6099999999999994

>  <m_primary>  (28) 
energy

>  <rmsd>  (28) 
6.614291821749836

>  <m_score__min__rmsd>  (28) 
6.614291821749836

>  <meeko>  (28) 
{"free_energy": -8.09, "intermolecular_energy": -8.98, "internal_energy": -0.86, "cluster_size": 50, "cluster_id": 1, "rank_in_cluster": 45}

>  <energy>  (28) 
-8.49

>  <cluster_rmsd>  (28) 
1.21

>  <cluster>  (28) 
1

$$$$

     RDKit          3D

 48 52  0  0  0  0  0  0  0  0999 V2000
  142.8710   72.9950  220.1780 O   0  0  0  0  0  0  0  0  0  0  0  0
  141.8470   73.2160  220.8970 C   0  0  0  0  0  0  0  0  0  0  0  0
  141.2500   72.0580  221.6070 C   0  0  0  0  0  0  0  0  0  0  0  0
  140.0780   72.4830  222.4010 C   0  0  0  0  0  0  0  0  0  0  0  0
  139.2550   71.5230  223.1710 C   0  0  0  0  0  0  0  0  0  0  0  0
  137.8780   71.5200  222.9850 C   0  0  0  0  0  0  0  0  0  0  0  0
  137.0460   70.6170  223.5940 C   0  0  0  0  0  0  0  0  0  0  0  0
  137.6190   69.6720  224.4270 C   0  0  0  0  0  0  0  0  0  0  0  0
  139.0060   69.6590  224.6260 C   0  0  0  0  0  0  0  0  0  0  0  0
  139.4980   68.5920  225.4920 C   0  0  0  0  0  0  0  0  0  0  0  0
  139.5750   67.4020  225.1010 O   0  0  0  0  0  0  0  0  0  0  0  0
  139.8890   68.9610  226.8110 N   0  0  0  0  0  0  0  0  0  0  0  0
  139.9750   70.1620  227.6280 C   0  0  0  0  0  0  0  0  0  0  0  0
  141.1350   69.4960  228.3380 C   0  0  0  0  0  0  0  0  0  0  0  0
  140.3760   68.2330  228.0000 C   0  0  0  0  0  0  0  0  0  0  0  0
  139.8140   70.5810  224.0040 C   0  0  0  0  0  0  0  0  0  0  0  0
  139.6640   73.7070  222.4460 N   0  0  0  0  0  0  0  0  0  0  0  0
  140.2410   74.8050  221.7600 C   0  0  0  0  0  0  0  0  0  0  0  0
  139.6470   76.0450  221.8940 C   0  0  0  0  0  0  0  0  0  0  0  0
  140.2090   77.0810  221.1840 C   0  0  0  0  0  0  0  0  0  0  0  0
  141.3190   76.8990  220.3720 C   0  0  0  0  0  0  0  0  0  0  0  0
  141.8240   78.0460  219.6290 C   0  0  0  0  0  0  0  0  0  0  0  0
  142.5190   77.9870  218.4570 C   0  0  0  0  0  0  0  0  0  0  0  0
  142.9380   79.1870  217.8760 C   0  0  0  0  0  0  0  0  0  0  0  0
  142.6690   80.3790  218.4440 N   0  0  0  0  0  0  0  0  0  0  0  0
  141.9860   80.4740  219.6020 C   0  0  0  0  0  0  0  0  0  0  0  0
  141.5660   79.3050  220.1890 C   0  0  0  0  0  0  0  0  0  0  0  0
  141.8820   75.6380  220.2710 C   0  0  0  0  0  0  0  0  0  0  0  0
  141.3440   74.5710  220.9700 C   0  0  0  0  0  0  0  0  0  0  0  0
  140.9336   71.3057  220.8695 H   0  0  0  0  0  0  0  0  0  0  0  0
  142.0030   71.6316  222.2861 H   0  0  0  0  0  0  0  0  0  0  0  0
  137.4360   72.2760  222.3194 H   0  0  0  0  0  0  0  0  0  0  0  0
  135.9592   70.6425  223.4263 H   0  0  0  0  0  0  0  0  0  0  0  0
  136.9846   68.9299  224.9337 H   0  0  0  0  0  0  0  0  0  0  0  0
  140.2361   71.0772  227.0764 H   0  0  0  0  0  0  0  0  0  0  0  0
  139.1071   70.5602  228.1741 H   0  0  0  0  0  0  0  0  0  0  0  0
  142.1160   69.6057  227.8527 H   0  0  0  0  0  0  0  0  0  0  0  0
  141.4713   69.7605  229.3514 H   0  0  0  0  0  0  0  0  0  0  0  0
  141.0058   67.3578  227.7822 H   0  0  0  0  0  0  0  0  0  0  0  0
  139.6948   67.7457  228.7131 H   0  0  0  0  0  0  0  0  0  0  0  0
  140.9011   70.5659  224.1712 H   0  0  0  0  0  0  0  0  0  0  0  0
  138.7675   76.1968  222.5370 H   0  0  0  0  0  0  0  0  0  0  0  0
  139.7646   78.0842  221.2627 H   0  0  0  0  0  0  0  0  0  0  0  0
  142.7437   77.0208  217.9817 H   0  0  0  0  0  0  0  0  0  0  0  0
  143.5013   79.1577  216.9317 H   0  0  0  0  0  0  0  0  0  0  0  0
  141.7728   81.4511  220.0601 H   0  0  0  0  0  0  0  0  0  0  0  0
  141.0060   79.3590  221.1343 H   0  0  0  0  0  0  0  0  0  0  0  0
  142.7630   75.4830  219.6308 H   0  0  0  0  0  0  0  0  0  0  0  0
  1  2  2  0
  2  3  1  0
  3  4  1  0
  4  5  1  0
  5  6  2  0
  6  7  1  0
  7  8  2  0
  8  9  1  0
  9 10  1  0
 10 11  2  0
 10 12  1  0
 12 13  1  0
 13 14  1  0
 14 15  1  0
  9 16  2  0
  4 17  2  0
 17 18  1  0
 18 19  2  0
 19 20  1  0
 20 21  2  0
 21 22  1  0
 22 23  2  0
 23 24  1  0
 24 25  2  0
 25 26  1  0
 26 27  2  0
 21 28  1  0
 28 29  2  0
 29  2  1  0
 16  5  1  0
 29 18  1  0
 15 12  1  0
 27 22  1  0
  3 30  1  0
  3 31  1  0
  6 32  1  0
  7 33  1  0
  8 34  1  0
 13 35  1  0
 13 36  1  0
 14 37  1  0
 14 38  1  0
 15 39  1  0
 15 40  1  0
 16 41  1  0
 19 42  1  0
 20 43  1  0
 23 44  1  0
 24 45  1  0
 26 46  1  0
 27 47  1  0
 28 48  1  0
M  END
>  <smiles>  (29) 
O=C1CC(c2cccc(C(=O)N3CCC3)c2)=Nc2ccc(-c3ccncc3)cc21

>  <score_type>  (29) 
oracle

>  <origin>  (29) 
autodockgpu

>  <m_score__min__energy>  (29) 
-8.6099999999999994

>  <m_primary>  (29) 
energy

>  <rmsd>  (29) 
6.517086952616771

>  <m_score__min__rmsd>  (29) 
6.517086952616771

>  <meeko>  (29) 
{"free_energy": -8.5, "intermolecular_energy": -9.39, "internal_energy": -0.93, "cluster_size": 50, "cluster_id": 1, "rank_in_cluster": 16}

>  <energy>  (29) 
-8.49

>  <cluster_rmsd>  (29) 
1.17

>  <cluster>  (29) 
1

$$$$

     RDKit          3D

 48 52  0  0  0  0  0  0  0  0999 V2000
  143.2700   73.9110  220.1120 O   0  0  0  0  0  0  0  0  0  0  0  0
  142.2200   73.7530  220.8110 C   0  0  0  0  0  0  0  0  0  0  0  0
  141.8470   72.3650  221.1760 C   0  0  0  0  0  0  0  0  0  0  0  0
  140.6140   72.3550  221.9910 C   0  0  0  0  0  0  0  0  0  0  0  0
  139.9820   71.0990  222.4530 C   0  0  0  0  0  0  0  0  0  0  0  0
  139.4160   70.2470  221.5130 C   0  0  0  0  0  0  0  0  0  0  0  0
  138.8790   69.0290  221.8380 C   0  0  0  0  0  0  0  0  0  0  0  0
  138.9110   68.6440  223.1670 C   0  0  0  0  0  0  0  0  0  0  0  0
  139.4790   69.4890  224.1290 C   0  0  0  0  0  0  0  0  0  0  0  0
  139.4930   68.9590  225.4890 C   0  0  0  0  0  0  0  0  0  0  0  0
  139.1790   67.7690  225.7410 O   0  0  0  0  0  0  0  0  0  0  0  0
  139.8810   69.8530  226.5270 N   0  0  0  0  0  0  0  0  0  0  0  0
  140.3180   71.2340  226.6700 C   0  0  0  0  0  0  0  0  0  0  0  0
  141.1080   70.7720  227.8760 C   0  0  0  0  0  0  0  0  0  0  0  0
  139.9840   69.7680  227.9980 C   0  0  0  0  0  0  0  0  0  0  0  0
  140.0070   70.7080  223.7730 C   0  0  0  0  0  0  0  0  0  0  0  0
  139.9780   73.4320  222.3210 N   0  0  0  0  0  0  0  0  0  0  0  0
  140.3430   74.7540  221.9620 C   0  0  0  0  0  0  0  0  0  0  0  0
  139.5280   75.7910  222.3720 C   0  0  0  0  0  0  0  0  0  0  0  0
  139.8900   77.0580  221.9750 C   0  0  0  0  0  0  0  0  0  0  0  0
  141.0170   77.2910  221.1990 C   0  0  0  0  0  0  0  0  0  0  0  0
  141.3020   78.6620  220.7950 C   0  0  0  0  0  0  0  0  0  0  0  0
  141.5440   79.0760  219.5180 C   0  0  0  0  0  0  0  0  0  0  0  0
  141.8070   80.4320  219.3030 C   0  0  0  0  0  0  0  0  0  0  0  0
  141.8230   81.3190  220.3170 N   0  0  0  0  0  0  0  0  0  0  0  0
  141.5890   80.9440  221.5890 C   0  0  0  0  0  0  0  0  0  0  0  0
  141.3290   79.6150  221.8210 C   0  0  0  0  0  0  0  0  0  0  0  0
  141.8050   76.2200  220.8140 C   0  0  0  0  0  0  0  0  0  0  0  0
  141.4730   74.9310  221.1950 C   0  0  0  0  0  0  0  0  0  0  0  0
  141.6784   71.7827  220.2581 H   0  0  0  0  0  0  0  0  0  0  0  0
  142.6641   71.9210  221.7635 H   0  0  0  0  0  0  0  0  0  0  0  0
  139.3981   70.5646  220.4600 H   0  0  0  0  0  0  0  0  0  0  0  0
  138.4373   68.3790  221.0684 H   0  0  0  0  0  0  0  0  0  0  0  0
  138.4899   67.6734  223.4681 H   0  0  0  0  0  0  0  0  0  0  0  0
  140.9279   71.6133  225.8369 H   0  0  0  0  0  0  0  0  0  0  0  0
  139.6047   72.0696  226.7243 H   0  0  0  0  0  0  0  0  0  0  0  0
  142.1009   70.3503  227.6609 H   0  0  0  0  0  0  0  0  0  0  0  0
  141.4322   71.4357  228.6911 H   0  0  0  0  0  0  0  0  0  0  0  0
  140.2822   68.7828  228.3859 H   0  0  0  0  0  0  0  0  0  0  0  0
  139.1201   69.9272  228.6600 H   0  0  0  0  0  0  0  0  0  0  0  0
  140.4462   71.3659  224.5374 H   0  0  0  0  0  0  0  0  0  0  0  0
  138.6329   75.6128  222.9861 H   0  0  0  0  0  0  0  0  0  0  0  0
  139.2676   77.9115  222.2818 H   0  0  0  0  0  0  0  0  0  0  0  0
  141.5325   78.3627  218.6807 H   0  0  0  0  0  0  0  0  0  0  0  0
  142.0060   80.7838  218.2799 H   0  0  0  0  0  0  0  0  0  0  0  0
  141.6054   81.6743  222.4114 H   0  0  0  0  0  0  0  0  0  0  0  0
  141.1345   79.2867  222.8527 H   0  0  0  0  0  0  0  0  0  0  0  0
  142.7015   76.3943  220.2009 H   0  0  0  0  0  0  0  0  0  0  0  0
  1  2  2  0
  2  3  1  0
  3  4  1  0
  4  5  1  0
  5  6  2  0
  6  7  1  0
  7  8  2  0
  8  9  1  0
  9 10  1  0
 10 11  2  0
 10 12  1  0
 12 13  1  0
 13 14  1  0
 14 15  1  0
  9 16  2  0
  4 17  2  0
 17 18  1  0
 18 19  2  0
 19 20  1  0
 20 21  2  0
 21 22  1  0
 22 23  2  0
 23 24  1  0
 24 25  2  0
 25 26  1  0
 26 27  2  0
 21 28  1  0
 28 29  2  0
 29  2  1  0
 16  5  1  0
 29 18  1  0
 15 12  1  0
 27 22  1  0
  3 30  1  0
  3 31  1  0
  6 32  1  0
  7 33  1  0
  8 34  1  0
 13 35  1  0
 13 36  1  0
 14 37  1  0
 14 38  1  0
 15 39  1  0
 15 40  1  0
 16 41  1  0
 19 42  1  0
 20 43  1  0
 23 44  1  0
 24 45  1  0
 26 46  1  0
 27 47  1  0
 28 48  1  0
M  END
>  <smiles>  (30) 
O=C1CC(c2cccc(C(=O)N3CCC3)c2)=Nc2ccc(-c3ccncc3)cc21

>  <score_type>  (30) 
oracle

>  <origin>  (30) 
autodockgpu

>  <m_score__min__energy>  (30) 
-8.6099999999999994

>  <m_primary>  (30) 
energy

>  <rmsd>  (30) 
6.3040387951449475

>  <m_score__min__rmsd>  (30) 
6.3040387951449475

>  <meeko>  (30) 
{"free_energy": -8.58, "intermolecular_energy": -9.47, "internal_energy": -0.8, "cluster_size": 50, "cluster_id": 1, "rank_in_cluster": 2}

>  <energy>  (30) 
-8.49

>  <cluster_rmsd>  (30) 
1.21

>  <cluster>  (30) 
1

$$$$

     RDKit          3D

 48 52  0  0  0  0  0  0  0  0999 V2000
  142.9240   73.0240  220.1930 O   0  0  0  0  0  0  0  0  0  0  0  0
  141.8800   73.2350  220.8880 C   0  0  0  0  0  0  0  0  0  0  0  0
  141.2820   72.0720  221.5890 C   0  0  0  0  0  0  0  0  0  0  0  0
  140.0880   72.4840  222.3540 C   0  0  0  0  0  0  0  0  0  0  0  0
  139.2590   71.5170  223.1090 C   0  0  0  0  0  0  0  0  0  0  0  0
  137.8860   71.5010  222.8980 C   0  0  0  0  0  0  0  0  0  0  0  0
  137.0510   70.5910  223.4920 C   0  0  0  0  0  0  0  0  0  0  0  0
  137.6180   69.6510  224.3350 C   0  0  0  0  0  0  0  0  0  0  0  0
  139.0010   69.6510  224.5580 C   0  0  0  0  0  0  0  0  0  0  0  0
  139.4870   68.5880  225.4330 C   0  0  0  0  0  0  0  0  0  0  0  0
  139.5670   67.3960  225.0480 O   0  0  0  0  0  0  0  0  0  0  0  0
  139.8700   68.9620  226.7530 N   0  0  0  0  0  0  0  0  0  0  0  0
  139.9500   70.1680  227.5640 C   0  0  0  0  0  0  0  0  0  0  0  0
  141.1050   69.5050  228.2850 C   0  0  0  0  0  0  0  0  0  0  0  0
  140.3490   68.2400  227.9480 C   0  0  0  0  0  0  0  0  0  0  0  0
  139.8120   70.5800  223.9510 C   0  0  0  0  0  0  0  0  0  0  0  0
  139.6560   73.7040  222.3850 N   0  0  0  0  0  0  0  0  0  0  0  0
  140.2340   74.8060  221.7070 C   0  0  0  0  0  0  0  0  0  0  0  0
  139.6210   76.0390  221.8220 C   0  0  0  0  0  0  0  0  0  0  0  0
  140.1860   77.0800  221.1220 C   0  0  0  0  0  0  0  0  0  0  0  0
  141.3160   76.9080  220.3350 C   0  0  0  0  0  0  0  0  0  0  0  0
  141.8240   78.0600  219.6000 C   0  0  0  0  0  0  0  0  0  0  0  0
  142.5090   78.0060  218.4220 C   0  0  0  0  0  0  0  0  0  0  0  0
  142.9310   79.2100  217.8490 C   0  0  0  0  0  0  0  0  0  0  0  0
  142.6750   80.3980  218.4310 N   0  0  0  0  0  0  0  0  0  0  0  0
  142.0020   80.4870  219.5940 C   0  0  0  0  0  0  0  0  0  0  0  0
  141.5790   79.3140  220.1730 C   0  0  0  0  0  0  0  0  0  0  0  0
  141.8980   75.6540  220.2530 C   0  0  0  0  0  0  0  0  0  0  0  0
  141.3580   74.5830  220.9440 C   0  0  0  0  0  0  0  0  0  0  0  0
  140.9921   71.3129  220.8475 H   0  0  0  0  0  0  0  0  0  0  0  0
  142.0249   71.6581  222.2868 H   0  0  0  0  0  0  0  0  0  0  0  0
  137.4494   72.2526  222.2238 H   0  0  0  0  0  0  0  0  0  0  0  0
  135.9671   70.6071  223.3052 H   0  0  0  0  0  0  0  0  0  0  0  0
  136.9818   68.9029  224.8306 H   0  0  0  0  0  0  0  0  0  0  0  0
  140.2149   71.0802  227.0094 H   0  0  0  0  0  0  0  0  0  0  0  0
  139.0785   70.5696  228.1018 H   0  0  0  0  0  0  0  0  0  0  0  0
  142.0893   69.6126  227.8059 H   0  0  0  0  0  0  0  0  0  0  0  0
  141.4340   69.7743  229.2995 H   0  0  0  0  0  0  0  0  0  0  0  0
  140.9806   67.3641  227.7385 H   0  0  0  0  0  0  0  0  0  0  0  0
  139.6633   67.7556  228.6587 H   0  0  0  0  0  0  0  0  0  0  0  0
  140.8961   70.5743  224.1372 H   0  0  0  0  0  0  0  0  0  0  0  0
  138.7245   76.1814  222.4433 H   0  0  0  0  0  0  0  0  0  0  0  0
  139.7285   78.0782  221.1881 H   0  0  0  0  0  0  0  0  0  0  0  0
  142.7236   77.0427  217.9362 H   0  0  0  0  0  0  0  0  0  0  0  0
  143.4858   79.1865  216.8994 H   0  0  0  0  0  0  0  0  0  0  0  0
  141.7985   81.4610  220.0628 H   0  0  0  0  0  0  0  0  0  0  0  0
  141.0267   79.3624  221.1231 H   0  0  0  0  0  0  0  0  0  0  0  0
  142.7958   75.5080  219.6344 H   0  0  0  0  0  0  0  0  0  0  0  0
  1  2  2  0
  2  3  1  0
  3  4  1  0
  4  5  1  0
  5  6  2  0
  6  7  1  0
  7  8  2  0
  8  9  1  0
  9 10  1  0
 10 11  2  0
 10 12  1  0
 12 13  1  0
 13 14  1  0
 14 15  1  0
  9 16  2  0
  4 17  2  0
 17 18  1  0
 18 19  2  0
 19 20  1  0
 20 21  2  0
 21 22  1  0
 22 23  2  0
 23 24  1  0
 24 25  2  0
 25 26  1  0
 26 27  2  0
 21 28  1  0
 28 29  2  0
 29  2  1  0
 16  5  1  0
 29 18  1  0
 15 12  1  0
 27 22  1  0
  3 30  1  0
  3 31  1  0
  6 32  1  0
  7 33  1  0
  8 34  1  0
 13 35  1  0
 13 36  1  0
 14 37  1  0
 14 38  1  0
 15 39  1  0
 15 40  1  0
 16 41  1  0
 19 42  1  0
 20 43  1  0
 23 44  1  0
 24 45  1  0
 26 46  1  0
 27 47  1  0
 28 48  1  0
M  END
>  <smiles>  (31) 
O=C1CC(c2cccc(C(=O)N3CCC3)c2)=Nc2ccc(-c3ccncc3)cc21

>  <score_type>  (31) 
oracle

>  <origin>  (31) 
autodockgpu

>  <m_score__min__energy>  (31) 
-8.6099999999999994

>  <m_primary>  (31) 
energy

>  <rmsd>  (31) 
6.506265772600145

>  <m_score__min__rmsd>  (31) 
6.506265772600145

>  <meeko>  (31) 
{"free_energy": -8.51, "intermolecular_energy": -9.4, "internal_energy": -0.93, "cluster_size": 50, "cluster_id": 1, "rank_in_cluster": 8}

>  <energy>  (31) 
-8.49

>  <cluster_rmsd>  (31) 
1.14

>  <cluster>  (31) 
1

$$$$

     RDKit          3D

 48 52  0  0  0  0  0  0  0  0999 V2000
  143.1860   74.7620  219.8570 O   0  0  0  0  0  0  0  0  0  0  0  0
  142.1850   74.5230  220.6040 C   0  0  0  0  0  0  0  0  0  0  0  0
  141.8450   73.1010  220.8540 C   0  0  0  0  0  0  0  0  0  0  0  0
  140.6690   72.9950  221.7420 C   0  0  0  0  0  0  0  0  0  0  0  0
  140.0760   71.6920  222.1180 C   0  0  0  0  0  0  0  0  0  0  0  0
  140.0290   70.6780  221.1690 C   0  0  0  0  0  0  0  0  0  0  0  0
  139.5710   69.4160  221.4490 C   0  0  0  0  0  0  0  0  0  0  0  0
  139.1420   69.1580  222.7380 C   0  0  0  0  0  0  0  0  0  0  0  0
  139.1830   70.1680  223.7080 C   0  0  0  0  0  0  0  0  0  0  0  0
  138.7430   69.7650  225.0410 C   0  0  0  0  0  0  0  0  0  0  0  0
  137.5270   69.6420  225.3300 O   0  0  0  0  0  0  0  0  0  0  0  0
  139.7580   69.5160  226.0080 N   0  0  0  0  0  0  0  0  0  0  0  0
  141.2110   69.5210  226.0900 C   0  0  0  0  0  0  0  0  0  0  0  0
  141.0730   68.4400  227.1410 C   0  0  0  0  0  0  0  0  0  0  0  0
  139.7730   69.1530  227.4400 C   0  0  0  0  0  0  0  0  0  0  0  0
  139.6440   71.4250  223.3970 C   0  0  0  0  0  0  0  0  0  0  0  0
  140.0490   74.0270  222.2170 N   0  0  0  0  0  0  0  0  0  0  0  0
  140.3810   75.3820  221.9670 C   0  0  0  0  0  0  0  0  0  0  0  0
  139.5880   76.3640  222.5290 C   0  0  0  0  0  0  0  0  0  0  0  0
  139.9150   77.6680  222.2360 C   0  0  0  0  0  0  0  0  0  0  0  0
  140.9870   77.9900  221.4170 C   0  0  0  0  0  0  0  0  0  0  0  0
  141.2360   79.3980  221.1310 C   0  0  0  0  0  0  0  0  0  0  0  0
  141.2010   79.9730  219.8950 C   0  0  0  0  0  0  0  0  0  0  0  0
  141.4710   81.3410  219.7960 C   0  0  0  0  0  0  0  0  0  0  0  0
  141.7580   82.0860  220.8810 N   0  0  0  0  0  0  0  0  0  0  0  0
  141.8020   81.5500  222.1170 C   0  0  0  0  0  0  0  0  0  0  0  0
  141.5400   80.2060  222.2350 C   0  0  0  0  0  0  0  0  0  0  0  0
  141.7550   76.9720  220.8780 C   0  0  0  0  0  0  0  0  0  0  0  0
  141.4570   75.6480  221.1500 C   0  0  0  0  0  0  0  0  0  0  0  0
  141.6199   72.6095  219.8960 H   0  0  0  0  0  0  0  0  0  0  0  0
  142.7018   72.6122  221.3409 H   0  0  0  0  0  0  0  0  0  0  0  0
  140.3745   70.8973  220.1479 H   0  0  0  0  0  0  0  0  0  0  0  0
  139.5458   68.6354  220.6744 H   0  0  0  0  0  0  0  0  0  0  0  0
  138.7679   68.1579  223.0023 H   0  0  0  0  0  0  0  0  0  0  0  0
  141.7258   69.2067  225.1701 H   0  0  0  0  0  0  0  0  0  0  0  0
  141.7823   70.4431  226.2724 H   0  0  0  0  0  0  0  0  0  0  0  0
  140.9751   67.4137  226.7575 H   0  0  0  0  0  0  0  0  0  0  0  0
  141.8397   68.2143  227.8968 H   0  0  0  0  0  0  0  0  0  0  0  0
  138.9487   68.4994  227.7615 H   0  0  0  0  0  0  0  0  0  0  0  0
  139.6816   69.9027  228.2398 H   0  0  0  0  0  0  0  0  0  0  0  0
  139.6674   72.2121  224.1651 H   0  0  0  0  0  0  0  0  0  0  0  0
  138.7364   76.1153  223.1793 H   0  0  0  0  0  0  0  0  0  0  0  0
  139.3080   78.4794  222.6641 H   0  0  0  0  0  0  0  0  0  0  0  0
  140.9668   79.3769  219.0007 H   0  0  0  0  0  0  0  0  0  0  0  0
  141.4485   81.8215  218.8067 H   0  0  0  0  0  0  0  0  0  0  0  0
  142.0386   82.1650  222.9978 H   0  0  0  0  0  0  0  0  0  0  0  0
  141.5700   79.7469  223.2342 H   0  0  0  0  0  0  0  0  0  0  0  0
  142.6084   77.2172  220.2287 H   0  0  0  0  0  0  0  0  0  0  0  0
  1  2  2  0
  2  3  1  0
  3  4  1  0
  4  5  1  0
  5  6  2  0
  6  7  1  0
  7  8  2  0
  8  9  1  0
  9 10  1  0
 10 11  2  0
 10 12  1  0
 12 13  1  0
 13 14  1  0
 14 15  1  0
  9 16  2  0
  4 17  2  0
 17 18  1  0
 18 19  2  0
 19 20  1  0
 20 21  2  0
 21 22  1  0
 22 23  2  0
 23 24  1  0
 24 25  2  0
 25 26  1  0
 26 27  2  0
 21 28  1  0
 28 29  2  0
 29  2  1  0
 16  5  1  0
 29 18  1  0
 15 12  1  0
 27 22  1  0
  3 30  1  0
  3 31  1  0
  6 32  1  0
  7 33  1  0
  8 34  1  0
 13 35  1  0
 13 36  1  0
 14 37  1  0
 14 38  1  0
 15 39  1  0
 15 40  1  0
 16 41  1  0
 19 42  1  0
 20 43  1  0
 23 44  1  0
 24 45  1  0
 26 46  1  0
 27 47  1  0
 28 48  1  0
M  END
>  <smiles>  (32) 
O=C1CC(c2cccc(C(=O)N3CCC3)c2)=Nc2ccc(-c3ccncc3)cc21

>  <score_type>  (32) 
oracle

>  <origin>  (32) 
autodockgpu

>  <m_score__min__energy>  (32) 
-8.6099999999999994

>  <m_primary>  (32) 
energy

>  <rmsd>  (32) 
6.743428471772347

>  <m_score__min__rmsd>  (32) 
6.743428471772347

>  <meeko>  (32) 
{"free_energy": -7.89, "intermolecular_energy": -8.79, "internal_energy": -0.94, "cluster_size": 50, "cluster_id": 1, "rank_in_cluster": 47}

>  <energy>  (32) 
-8.49

>  <cluster_rmsd>  (32) 
1.11

>  <cluster>  (32) 
1

$$$$

     RDKit          3D

 48 52  0  0  0  0  0  0  0  0999 V2000
  142.7700   73.0710  220.1530 O   0  0  0  0  0  0  0  0  0  0  0  0
  141.7650   73.2760  220.9040 C   0  0  0  0  0  0  0  0  0  0  0  0
  141.1700   72.0990  221.5830 C   0  0  0  0  0  0  0  0  0  0  0  0
  140.0220   72.5070  222.4190 C   0  0  0  0  0  0  0  0  0  0  0  0
  139.2050   71.5280  223.1710 C   0  0  0  0  0  0  0  0  0  0  0  0
  137.8310   71.5060  222.9690 C   0  0  0  0  0  0  0  0  0  0  0  0
  137.0050   70.5850  223.5600 C   0  0  0  0  0  0  0  0  0  0  0  0
  137.5820   69.6420  224.3920 C   0  0  0  0  0  0  0  0  0  0  0  0
  138.9670   69.6490  224.6070 C   0  0  0  0  0  0  0  0  0  0  0  0
  139.4650   68.5820  225.4710 C   0  0  0  0  0  0  0  0  0  0  0  0
  139.5410   67.3920  225.0780 O   0  0  0  0  0  0  0  0  0  0  0  0
  139.8640   68.9500  226.7870 N   0  0  0  0  0  0  0  0  0  0  0  0
  139.9540   70.1520  227.6030 C   0  0  0  0  0  0  0  0  0  0  0  0
  141.1180   69.4870  228.3060 C   0  0  0  0  0  0  0  0  0  0  0  0
  140.3590   68.2220  227.9730 C   0  0  0  0  0  0  0  0  0  0  0  0
  139.7690   70.5880  224.0030 C   0  0  0  0  0  0  0  0  0  0  0  0
  139.6240   73.7340  222.5210 N   0  0  0  0  0  0  0  0  0  0  0  0
  140.1990   74.8500  221.8630 C   0  0  0  0  0  0  0  0  0  0  0  0
  139.6240   76.0910  222.0570 C   0  0  0  0  0  0  0  0  0  0  0  0
  140.1830   77.1470  221.3750 C   0  0  0  0  0  0  0  0  0  0  0  0
  141.2710   76.9820  220.5310 C   0  0  0  0  0  0  0  0  0  0  0  0
  141.7740   78.1510  219.8200 C   0  0  0  0  0  0  0  0  0  0  0  0
  141.6520   79.4440  220.2380 C   0  0  0  0  0  0  0  0  0  0  0  0
  142.1880   80.4510  219.4310 C   0  0  0  0  0  0  0  0  0  0  0  0
  142.8120   80.1710  218.2700 N   0  0  0  0  0  0  0  0  0  0  0  0
  142.9490   78.9060  217.8270 C   0  0  0  0  0  0  0  0  0  0  0  0
  142.4280   77.9010  218.6070 C   0  0  0  0  0  0  0  0  0  0  0  0
  141.8160   75.7190  220.3690 C   0  0  0  0  0  0  0  0  0  0  0  0
  141.2810   74.6330  221.0390 C   0  0  0  0  0  0  0  0  0  0  0  0
  140.8276   71.3791  220.8250 H   0  0  0  0  0  0  0  0  0  0  0  0
  141.9327   71.6382  222.2279 H   0  0  0  0  0  0  0  0  0  0  0  0
  137.3855   72.2614  222.3050 H   0  0  0  0  0  0  0  0  0  0  0  0
  135.9201   70.5954  223.3788 H   0  0  0  0  0  0  0  0  0  0  0  0
  136.9532   68.8861  224.8852 H   0  0  0  0  0  0  0  0  0  0  0  0
  140.2113   71.0671  227.0494 H   0  0  0  0  0  0  0  0  0  0  0  0
  139.0891   70.5501  228.1539 H   0  0  0  0  0  0  0  0  0  0  0  0
  142.0961   69.5978  227.8150 H   0  0  0  0  0  0  0  0  0  0  0  0
  141.4594   69.7521  229.3175 H   0  0  0  0  0  0  0  0  0  0  0  0
  140.9888   67.3478  227.7513 H   0  0  0  0  0  0  0  0  0  0  0  0
  139.6831   67.7332  228.6901 H   0  0  0  0  0  0  0  0  0  0  0  0
  140.8541   70.5880  224.1835 H   0  0  0  0  0  0  0  0  0  0  0  0
  138.7607   76.2283  222.7247 H   0  0  0  0  0  0  0  0  0  0  0  0
  139.7543   78.1519  221.5029 H   0  0  0  0  0  0  0  0  0  0  0  0
  141.1458   79.6870  221.1839 H   0  0  0  0  0  0  0  0  0  0  0  0
  142.0982   81.4993  219.7518 H   0  0  0  0  0  0  0  0  0  0  0  0
  143.4584   78.6857  216.8773 H   0  0  0  0  0  0  0  0  0  0  0  0
  142.5286   76.8603  218.2652 H   0  0  0  0  0  0  0  0  0  0  0  0
  142.6801   75.5783  219.7031 H   0  0  0  0  0  0  0  0  0  0  0  0
  1  2  2  0
  2  3  1  0
  3  4  1  0
  4  5  1  0
  5  6  2  0
  6  7  1  0
  7  8  2  0
  8  9  1  0
  9 10  1  0
 10 11  2  0
 10 12  1  0
 12 13  1  0
 13 14  1  0
 14 15  1  0
  9 16  2  0
  4 17  2  0
 17 18  1  0
 18 19  2  0
 19 20  1  0
 20 21  2  0
 21 22  1  0
 22 23  2  0
 23 24  1  0
 24 25  2  0
 25 26  1  0
 26 27  2  0
 21 28  1  0
 28 29  2  0
 29  2  1  0
 16  5  1  0
 29 18  1  0
 15 12  1  0
 27 22  1  0
  3 30  1  0
  3 31  1  0
  6 32  1  0
  7 33  1  0
  8 34  1  0
 13 35  1  0
 13 36  1  0
 14 37  1  0
 14 38  1  0
 15 39  1  0
 15 40  1  0
 16 41  1  0
 19 42  1  0
 20 43  1  0
 23 44  1  0
 24 45  1  0
 26 46  1  0
 27 47  1  0
 28 48  1  0
M  END
>  <smiles>  (33) 
O=C1CC(c2cccc(C(=O)N3CCC3)c2)=Nc2ccc(-c3ccncc3)cc21

>  <score_type>  (33) 
oracle

>  <origin>  (33) 
autodockgpu

>  <m_score__min__energy>  (33) 
-8.6099999999999994

>  <m_primary>  (33) 
energy

>  <rmsd>  (33) 
6.504645612925005

>  <m_score__min__rmsd>  (33) 
6.504645612925005

>  <meeko>  (33) 
{"free_energy": -8.44, "intermolecular_energy": -9.34, "internal_energy": -0.94, "cluster_size": 50, "cluster_id": 1, "rank_in_cluster": 39}

>  <energy>  (33) 
-8.48

>  <cluster_rmsd>  (33) 
0.37

>  <cluster>  (33) 
1

$$$$

     RDKit          3D

 48 52  0  0  0  0  0  0  0  0999 V2000
  142.8630   72.9780  220.1390 O   0  0  0  0  0  0  0  0  0  0  0  0
  141.8420   73.1990  220.8650 C   0  0  0  0  0  0  0  0  0  0  0  0
  141.2460   72.0410  221.5740 C   0  0  0  0  0  0  0  0  0  0  0  0
  140.0800   72.4660  222.3760 C   0  0  0  0  0  0  0  0  0  0  0  0
  139.2580   71.5070  223.1470 C   0  0  0  0  0  0  0  0  0  0  0  0
  137.8820   71.5000  222.9600 C   0  0  0  0  0  0  0  0  0  0  0  0
  137.0510   70.5970  223.5710 C   0  0  0  0  0  0  0  0  0  0  0  0
  137.6250   69.6550  224.4060 C   0  0  0  0  0  0  0  0  0  0  0  0
  139.0110   69.6450  224.6050 C   0  0  0  0  0  0  0  0  0  0  0  0
  139.5050   68.5800  225.4740 C   0  0  0  0  0  0  0  0  0  0  0  0
  139.5790   67.3880  225.0860 O   0  0  0  0  0  0  0  0  0  0  0  0
  139.9030   68.9530  226.7890 N   0  0  0  0  0  0  0  0  0  0  0  0
  139.9950   70.1570  227.6010 C   0  0  0  0  0  0  0  0  0  0  0  0
  141.1560   69.4920  228.3080 C   0  0  0  0  0  0  0  0  0  0  0  0
  140.3940   68.2280  227.9790 C   0  0  0  0  0  0  0  0  0  0  0  0
  139.8190   70.5670  223.9820 C   0  0  0  0  0  0  0  0  0  0  0  0
  139.6690   73.6920  222.4280 N   0  0  0  0  0  0  0  0  0  0  0  0
  140.2460   74.7910  221.7420 C   0  0  0  0  0  0  0  0  0  0  0  0
  139.6560   76.0310  221.8830 C   0  0  0  0  0  0  0  0  0  0  0  0
  140.2170   77.0690  221.1740 C   0  0  0  0  0  0  0  0  0  0  0  0
  141.3220   76.8850  220.3550 C   0  0  0  0  0  0  0  0  0  0  0  0
  141.8270   78.0340  219.6130 C   0  0  0  0  0  0  0  0  0  0  0  0
  142.5360   77.9750  218.4500 C   0  0  0  0  0  0  0  0  0  0  0  0
  142.9510   79.1770  217.8680 C   0  0  0  0  0  0  0  0  0  0  0  0
  142.6670   80.3690  218.4280 N   0  0  0  0  0  0  0  0  0  0  0  0
  141.9700   80.4630  219.5780 C   0  0  0  0  0  0  0  0  0  0  0  0
  141.5530   79.2920  220.1640 C   0  0  0  0  0  0  0  0  0  0  0  0
  141.8810   75.6230  220.2470 C   0  0  0  0  0  0  0  0  0  0  0  0
  141.3440   74.5550  220.9450 C   0  0  0  0  0  0  0  0  0  0  0  0
  140.9233   71.2922  220.8357 H   0  0  0  0  0  0  0  0  0  0  0  0
  142.0016   71.6104  222.2475 H   0  0  0  0  0  0  0  0  0  0  0  0
  137.4389   72.2529  222.2916 H   0  0  0  0  0  0  0  0  0  0  0  0
  135.9642   70.6206  223.4030 H   0  0  0  0  0  0  0  0  0  0  0  0
  136.9917   68.9129  224.9142 H   0  0  0  0  0  0  0  0  0  0  0  0
  140.2554   71.0696  227.0447 H   0  0  0  0  0  0  0  0  0  0  0  0
  139.1303   70.5589  228.1493 H   0  0  0  0  0  0  0  0  0  0  0  0
  142.1350   69.5982  227.8178 H   0  0  0  0  0  0  0  0  0  0  0  0
  141.4968   69.7602  229.3189 H   0  0  0  0  0  0  0  0  0  0  0  0
  141.0216   67.3511  227.7619 H   0  0  0  0  0  0  0  0  0  0  0  0
  139.7155   67.7440  228.6969 H   0  0  0  0  0  0  0  0  0  0  0  0
  140.9061   70.5536  224.1496 H   0  0  0  0  0  0  0  0  0  0  0  0
  138.7799   76.1823  222.5307 H   0  0  0  0  0  0  0  0  0  0  0  0
  139.7766   78.0734  221.2591 H   0  0  0  0  0  0  0  0  0  0  0  0
  142.7750   77.0085  217.9823 H   0  0  0  0  0  0  0  0  0  0  0  0
  143.5238   79.1485  216.9293 H   0  0  0  0  0  0  0  0  0  0  0  0
  141.7436   81.4399  220.0302 H   0  0  0  0  0  0  0  0  0  0  0  0
  140.9817   79.3449  221.1025 H   0  0  0  0  0  0  0  0  0  0  0  0
  142.7583   75.4679  219.6018 H   0  0  0  0  0  0  0  0  0  0  0  0
  1  2  2  0
  2  3  1  0
  3  4  1  0
  4  5  1  0
  5  6  2  0
  6  7  1  0
  7  8  2  0
  8  9  1  0
  9 10  1  0
 10 11  2  0
 10 12  1  0
 12 13  1  0
 13 14  1  0
 14 15  1  0
  9 16  2  0
  4 17  2  0
 17 18  1  0
 18 19  2  0
 19 20  1  0
 20 21  2  0
 21 22  1  0
 22 23  2  0
 23 24  1  0
 24 25  2  0
 25 26  1  0
 26 27  2  0
 21 28  1  0
 28 29  2  0
 29  2  1  0
 16  5  1  0
 29 18  1  0
 15 12  1  0
 27 22  1  0
  3 30  1  0
  3 31  1  0
  6 32  1  0
  7 33  1  0
  8 34  1  0
 13 35  1  0
 13 36  1  0
 14 37  1  0
 14 38  1  0
 15 39  1  0
 15 40  1  0
 16 41  1  0
 19 42  1  0
 20 43  1  0
 23 44  1  0
 24 45  1  0
 26 46  1  0
 27 47  1  0
 28 48  1  0
M  END
>  <smiles>  (34) 
O=C1CC(c2cccc(C(=O)N3CCC3)c2)=Nc2ccc(-c3ccncc3)cc21

>  <score_type>  (34) 
oracle

>  <origin>  (34) 
autodockgpu

>  <m_score__min__energy>  (34) 
-8.6099999999999994

>  <m_primary>  (34) 
energy

>  <rmsd>  (34) 
6.516518452932862

>  <m_score__min__rmsd>  (34) 
6.516518452932862

>  <meeko>  (34) 
{"free_energy": -8.49, "intermolecular_energy": -9.39, "internal_energy": -0.93, "cluster_size": 50, "cluster_id": 1, "rank_in_cluster": 20}

>  <energy>  (34) 
-8.47

>  <cluster_rmsd>  (34) 
0.29

>  <cluster>  (34) 
1

$$$$

     RDKit          3D

 48 52  0  0  0  0  0  0  0  0999 V2000
  142.8660   72.9990  220.1850 O   0  0  0  0  0  0  0  0  0  0  0  0
  141.8430   73.2220  220.9060 C   0  0  0  0  0  0  0  0  0  0  0  0
  141.2450   72.0650  221.6150 C   0  0  0  0  0  0  0  0  0  0  0  0
  140.0760   72.4920  222.4120 C   0  0  0  0  0  0  0  0  0  0  0  0
  139.2510   71.5330  223.1810 C   0  0  0  0  0  0  0  0  0  0  0  0
  137.8730   71.5370  223.0010 C   0  0  0  0  0  0  0  0  0  0  0  0
  137.0390   70.6360  223.6100 C   0  0  0  0  0  0  0  0  0  0  0  0
  137.6110   69.6850  224.4370 C   0  0  0  0  0  0  0  0  0  0  0  0
  138.9980   69.6650  224.6300 C   0  0  0  0  0  0  0  0  0  0  0  0
  139.4880   68.5920  225.4900 C   0  0  0  0  0  0  0  0  0  0  0  0
  139.5660   67.4040  225.0910 O   0  0  0  0  0  0  0  0  0  0  0  0
  139.8790   68.9510  226.8110 N   0  0  0  0  0  0  0  0  0  0  0  0
  139.9640   70.1480  227.6360 C   0  0  0  0  0  0  0  0  0  0  0  0
  141.1220   69.4760  228.3430 C   0  0  0  0  0  0  0  0  0  0  0  0
  140.3640   68.2150  227.9960 C   0  0  0  0  0  0  0  0  0  0  0  0
  139.8090   70.5850  224.0080 C   0  0  0  0  0  0  0  0  0  0  0  0
  139.6640   73.7170  222.4600 N   0  0  0  0  0  0  0  0  0  0  0  0
  140.2440   74.8150  221.7750 C   0  0  0  0  0  0  0  0  0  0  0  0
  139.6540   76.0560  221.9120 C   0  0  0  0  0  0  0  0  0  0  0  0
  140.2170   77.0920  221.2030 C   0  0  0  0  0  0  0  0  0  0  0  0
  141.3250   76.9070  220.3890 C   0  0  0  0  0  0  0  0  0  0  0  0
  141.8330   78.0550  219.6470 C   0  0  0  0  0  0  0  0  0  0  0  0
  142.5240   77.9960  218.4730 C   0  0  0  0  0  0  0  0  0  0  0  0
  142.9460   79.1960  217.8940 C   0  0  0  0  0  0  0  0  0  0  0  0
  142.6830   80.3880  218.4650 N   0  0  0  0  0  0  0  0  0  0  0  0
  142.0040   80.4830  219.6250 C   0  0  0  0  0  0  0  0  0  0  0  0
  141.5810   79.3130  220.2100 C   0  0  0  0  0  0  0  0  0  0  0  0
  141.8840   75.6450  220.2850 C   0  0  0  0  0  0  0  0  0  0  0  0
  141.3450   74.5790  220.9820 C   0  0  0  0  0  0  0  0  0  0  0  0
  140.9250   71.3146  220.8771 H   0  0  0  0  0  0  0  0  0  0  0  0
  141.9983   71.6354  222.2918 H   0  0  0  0  0  0  0  0  0  0  0  0
  137.4318   72.2976  222.3400 H   0  0  0  0  0  0  0  0  0  0  0  0
  135.9516   70.6676  223.4470 H   0  0  0  0  0  0  0  0  0  0  0  0
  136.9753   68.9438  224.9434 H   0  0  0  0  0  0  0  0  0  0  0  0
  140.2267   71.0665  227.0907 H   0  0  0  0  0  0  0  0  0  0  0  0
  139.0956   70.5438  228.1829 H   0  0  0  0  0  0  0  0  0  0  0  0
  142.1038   69.5886  227.8599 H   0  0  0  0  0  0  0  0  0  0  0  0
  141.4563   69.7336  229.3588 H   0  0  0  0  0  0  0  0  0  0  0  0
  140.9942   67.3413  227.7735 H   0  0  0  0  0  0  0  0  0  0  0  0
  139.6818   67.7228  228.7048 H   0  0  0  0  0  0  0  0  0  0  0  0
  140.8967   70.5633  224.1704 H   0  0  0  0  0  0  0  0  0  0  0  0
  138.7761   76.2089  222.5570 H   0  0  0  0  0  0  0  0  0  0  0  0
  139.7757   78.0963  221.2840 H   0  0  0  0  0  0  0  0  0  0  0  0
  142.7434   77.0301  217.9946 H   0  0  0  0  0  0  0  0  0  0  0  0
  143.5070   79.1667  216.9483 H   0  0  0  0  0  0  0  0  0  0  0  0
  141.7960   81.4597  220.0864 H   0  0  0  0  0  0  0  0  0  0  0  0
  141.0232   79.3666  221.1566 H   0  0  0  0  0  0  0  0  0  0  0  0
  142.7636   75.4888  219.6432 H   0  0  0  0  0  0  0  0  0  0  0  0
  1  2  2  0
  2  3  1  0
  3  4  1  0
  4  5  1  0
  5  6  2  0
  6  7  1  0
  7  8  2  0
  8  9  1  0
  9 10  1  0
 10 11  2  0
 10 12  1  0
 12 13  1  0
 13 14  1  0
 14 15  1  0
  9 16  2  0
  4 17  2  0
 17 18  1  0
 18 19  2  0
 19 20  1  0
 20 21  2  0
 21 22  1  0
 22 23  2  0
 23 24  1  0
 24 25  2  0
 25 26  1  0
 26 27  2  0
 21 28  1  0
 28 29  2  0
 29  2  1  0
 16  5  1  0
 29 18  1  0
 15 12  1  0
 27 22  1  0
  3 30  1  0
  3 31  1  0
  6 32  1  0
  7 33  1  0
  8 34  1  0
 13 35  1  0
 13 36  1  0
 14 37  1  0
 14 38  1  0
 15 39  1  0
 15 40  1  0
 16 41  1  0
 19 42  1  0
 20 43  1  0
 23 44  1  0
 24 45  1  0
 26 46  1  0
 27 47  1  0
 28 48  1  0
M  END
>  <smiles>  (35) 
O=C1CC(c2cccc(C(=O)N3CCC3)c2)=Nc2ccc(-c3ccncc3)cc21

>  <score_type>  (35) 
oracle

>  <origin>  (35) 
autodockgpu

>  <m_score__min__energy>  (35) 
-8.6099999999999994

>  <m_primary>  (35) 
energy

>  <rmsd>  (35) 
6.517875325959846

>  <m_score__min__rmsd>  (35) 
6.517875325959846

>  <meeko>  (35) 
{"free_energy": -8.49, "intermolecular_energy": -9.39, "internal_energy": -0.93, "cluster_size": 50, "cluster_id": 1, "rank_in_cluster": 24}

>  <energy>  (35) 
-8.45

>  <cluster_rmsd>  (35) 
1.16

>  <cluster>  (35) 
1

$$$$

     RDKit          3D

 48 52  0  0  0  0  0  0  0  0999 V2000
  142.9400   73.0360  220.2270 O   0  0  0  0  0  0  0  0  0  0  0  0
  141.8880   73.2230  220.9160 C   0  0  0  0  0  0  0  0  0  0  0  0
  141.2970   72.0420  221.5920 C   0  0  0  0  0  0  0  0  0  0  0  0
  140.0920   72.4280  222.3550 C   0  0  0  0  0  0  0  0  0  0  0  0
  139.2690   71.4390  223.0860 C   0  0  0  0  0  0  0  0  0  0  0  0
  137.9180   71.3330  222.7800 C   0  0  0  0  0  0  0  0  0  0  0  0
  137.0960   70.3950  223.3490 C   0  0  0  0  0  0  0  0  0  0  0  0
  137.6530   69.5210  224.2650 C   0  0  0  0  0  0  0  0  0  0  0  0
  139.0140   69.6120  224.5850 C   0  0  0  0  0  0  0  0  0  0  0  0
  139.4960   68.6110  225.5330 C   0  0  0  0  0  0  0  0  0  0  0  0
  139.5700   67.3940  225.2330 O   0  0  0  0  0  0  0  0  0  0  0  0
  139.8820   69.0760  226.8220 N   0  0  0  0  0  0  0  0  0  0  0  0
  139.9700   70.3360  227.5460 C   0  0  0  0  0  0  0  0  0  0  0  0
  141.1220   69.7200  228.3110 C   0  0  0  0  0  0  0  0  0  0  0  0
  140.3590   68.4380  228.0660 C   0  0  0  0  0  0  0  0  0  0  0  0
  139.8120   70.5670  224.0010 C   0  0  0  0  0  0  0  0  0  0  0  0
  139.6460   73.6420  222.4030 N   0  0  0  0  0  0  0  0  0  0  0  0
  140.2180   74.7620  221.7480 C   0  0  0  0  0  0  0  0  0  0  0  0
  139.5910   75.9860  221.8790 C   0  0  0  0  0  0  0  0  0  0  0  0
  140.1490   77.0450  221.2010 C   0  0  0  0  0  0  0  0  0  0  0  0
  141.2880   76.8990  220.4210 C   0  0  0  0  0  0  0  0  0  0  0  0
  141.7880   78.0680  219.7090 C   0  0  0  0  0  0  0  0  0  0  0  0
  142.5100   78.0410  218.5520 C   0  0  0  0  0  0  0  0  0  0  0  0
  142.9190   79.2590  218.0010 C   0  0  0  0  0  0  0  0  0  0  0  0
  142.6160   80.4360  218.5830 N   0  0  0  0  0  0  0  0  0  0  0  0
  141.9060   80.4990  219.7260 C   0  0  0  0  0  0  0  0  0  0  0  0
  141.4950   79.3120  220.2830 C   0  0  0  0  0  0  0  0  0  0  0  0
  141.8840   75.6530  220.3220 C   0  0  0  0  0  0  0  0  0  0  0  0
  141.3500   74.5650  220.9900 C   0  0  0  0  0  0  0  0  0  0  0  0
  141.0211   71.2929  220.8352 H   0  0  0  0  0  0  0  0  0  0  0  0
  142.0388   71.6242  222.2885 H   0  0  0  0  0  0  0  0  0  0  0  0
  137.4886   72.0332  222.0483 H   0  0  0  0  0  0  0  0  0  0  0  0
  136.0294   70.3393  223.0860 H   0  0  0  0  0  0  0  0  0  0  0  0
  137.0266   68.7534  224.7429 H   0  0  0  0  0  0  0  0  0  0  0  0
  140.2391   71.2053  226.9280 H   0  0  0  0  0  0  0  0  0  0  0  0
  139.1013   70.7791  228.0550 H   0  0  0  0  0  0  0  0  0  0  0  0
  142.1062   69.7879  227.8245 H   0  0  0  0  0  0  0  0  0  0  0  0
  141.4537   70.0592  229.3034 H   0  0  0  0  0  0  0  0  0  0  0  0
  140.9858   67.5461  227.9190 H   0  0  0  0  0  0  0  0  0  0  0  0
  139.6717   68.0091  228.8101 H   0  0  0  0  0  0  0  0  0  0  0  0
  140.8781   70.6335  224.2637 H   0  0  0  0  0  0  0  0  0  0  0  0
  138.6886   76.1080  222.4960 H   0  0  0  0  0  0  0  0  0  0  0  0
  139.6789   78.0364  221.2792 H   0  0  0  0  0  0  0  0  0  0  0  0
  142.7634   77.0873  218.0660 H   0  0  0  0  0  0  0  0  0  0  0  0
  143.5030   79.2565  217.0688 H   0  0  0  0  0  0  0  0  0  0  0  0
  141.6644   81.4639  220.1956 H   0  0  0  0  0  0  0  0  0  0  0  0
  140.9131   79.3396  221.2161 H   0  0  0  0  0  0  0  0  0  0  0  0
  142.7881   75.5272  219.7082 H   0  0  0  0  0  0  0  0  0  0  0  0
  1  2  2  0
  2  3  1  0
  3  4  1  0
  4  5  1  0
  5  6  2  0
  6  7  1  0
  7  8  2  0
  8  9  1  0
  9 10  1  0
 10 11  2  0
 10 12  1  0
 12 13  1  0
 13 14  1  0
 14 15  1  0
  9 16  2  0
  4 17  2  0
 17 18  1  0
 18 19  2  0
 19 20  1  0
 20 21  2  0
 21 22  1  0
 22 23  2  0
 23 24  1  0
 24 25  2  0
 25 26  1  0
 26 27  2  0
 21 28  1  0
 28 29  2  0
 29  2  1  0
 16  5  1  0
 29 18  1  0
 15 12  1  0
 27 22  1  0
  3 30  1  0
  3 31  1  0
  6 32  1  0
  7 33  1  0
  8 34  1  0
 13 35  1  0
 13 36  1  0
 14 37  1  0
 14 38  1  0
 15 39  1  0
 15 40  1  0
 16 41  1  0
 19 42  1  0
 20 43  1  0
 23 44  1  0
 24 45  1  0
 26 46  1  0
 27 47  1  0
 28 48  1  0
M  END
>  <smiles>  (36) 
O=C1CC(c2cccc(C(=O)N3CCC3)c2)=Nc2ccc(-c3ccncc3)cc21

>  <score_type>  (36) 
oracle

>  <origin>  (36) 
autodockgpu

>  <m_score__min__energy>  (36) 
-8.6099999999999994

>  <m_primary>  (36) 
energy

>  <rmsd>  (36) 
6.4703014480211

>  <m_score__min__rmsd>  (36) 
6.4703014480211

>  <meeko>  (36) 
{"free_energy": -8.49, "intermolecular_energy": -9.39, "internal_energy": -0.94, "cluster_size": 50, "cluster_id": 1, "rank_in_cluster": 21}

>  <energy>  (36) 
-8.45

>  <cluster_rmsd>  (36) 
1.19

>  <cluster>  (36) 
1

$$$$

     RDKit          3D

 48 52  0  0  0  0  0  0  0  0999 V2000
  143.0740   75.1710  220.1300 O   0  0  0  0  0  0  0  0  0  0  0  0
  142.0630   74.8350  220.8240 C   0  0  0  0  0  0  0  0  0  0  0  0
  141.8060   73.3850  220.9970 C   0  0  0  0  0  0  0  0  0  0  0  0
  140.6060   73.1650  221.8300 C   0  0  0  0  0  0  0  0  0  0  0  0
  140.0840   71.8110  222.1230 C   0  0  0  0  0  0  0  0  0  0  0  0
  139.9320   70.9090  221.0770 C   0  0  0  0  0  0  0  0  0  0  0  0
  139.5310   69.6120  221.2640 C   0  0  0  0  0  0  0  0  0  0  0  0
  139.2720   69.1970  222.5580 C   0  0  0  0  0  0  0  0  0  0  0  0
  139.4210   70.0920  223.6250 C   0  0  0  0  0  0  0  0  0  0  0  0
  139.1580   69.5290  224.9470 C   0  0  0  0  0  0  0  0  0  0  0  0
  138.4480   68.5050  225.1030 O   0  0  0  0  0  0  0  0  0  0  0  0
  139.7470   70.1930  226.0600 N   0  0  0  0  0  0  0  0  0  0  0  0
  140.6080   71.3390  226.3160 C   0  0  0  0  0  0  0  0  0  0  0  0
  141.1090   70.5850  227.5300 C   0  0  0  0  0  0  0  0  0  0  0  0
  139.7080   70.0150  227.5260 C   0  0  0  0  0  0  0  0  0  0  0  0
  139.8210   71.3890  223.4070 C   0  0  0  0  0  0  0  0  0  0  0  0
  139.9040   74.1320  222.3250 N   0  0  0  0  0  0  0  0  0  0  0  0
  140.1580   75.5160  222.1500 C   0  0  0  0  0  0  0  0  0  0  0  0
  139.2830   76.4180  222.7220 C   0  0  0  0  0  0  0  0  0  0  0  0
  139.5360   77.7530  222.5010 C   0  0  0  0  0  0  0  0  0  0  0  0
  140.6160   78.1790  221.7410 C   0  0  0  0  0  0  0  0  0  0  0  0
  140.7850   79.6110  221.5290 C   0  0  0  0  0  0  0  0  0  0  0  0
  140.2760   80.3220  220.4830 C   0  0  0  0  0  0  0  0  0  0  0  0
  140.5370   81.6940  220.4270 C   0  0  0  0  0  0  0  0  0  0  0  0
  141.2690   82.3130  221.3730 N   0  0  0  0  0  0  0  0  0  0  0  0
  141.7880   81.6420  222.4200 C   0  0  0  0  0  0  0  0  0  0  0  0
  141.5420   80.2920  222.4920 C   0  0  0  0  0  0  0  0  0  0  0  0
  141.4670   77.2370  221.1890 C   0  0  0  0  0  0  0  0  0  0  0  0
  141.2440   75.8860  221.3900 C   0  0  0  0  0  0  0  0  0  0  0  0
  141.6500   72.9253  220.0099 H   0  0  0  0  0  0  0  0  0  0  0  0
  142.6730   72.9285  221.4969 H   0  0  0  0  0  0  0  0  0  0  0  0
  140.1430   71.2513  220.0531 H   0  0  0  0  0  0  0  0  0  0  0  0
  139.4188   68.9237  220.4133 H   0  0  0  0  0  0  0  0  0  0  0  0
  138.9487   68.1631  222.7491 H   0  0  0  0  0  0  0  0  0  0  0  0
  141.3682   71.5266  225.5434 H   0  0  0  0  0  0  0  0  0  0  0  0
  140.2124   72.3630  226.3863 H   0  0  0  0  0  0  0  0  0  0  0  0
  141.9167   69.8626  227.3411 H   0  0  0  0  0  0  0  0  0  0  0  0
  141.5765   71.0641  228.4029 H   0  0  0  0  0  0  0  0  0  0  0  0
  139.6308   68.9713  227.8647 H   0  0  0  0  0  0  0  0  0  0  0  0
  138.9011   70.4278  228.1494 H   0  0  0  0  0  0  0  0  0  0  0  0
  139.9302   72.0846  224.2521 H   0  0  0  0  0  0  0  0  0  0  0  0
  138.4252   76.0859  223.3252 H   0  0  0  0  0  0  0  0  0  0  0  0
  138.8624   78.5039  222.9397 H   0  0  0  0  0  0  0  0  0  0  0  0
  139.6759   79.8291  219.7039 H   0  0  0  0  0  0  0  0  0  0  0  0
  140.1346   82.2828  219.5895 H   0  0  0  0  0  0  0  0  0  0  0  0
  142.3857   82.1553  223.1876 H   0  0  0  0  0  0  0  0  0  0  0  0
  141.9553   79.7237  223.3383 H   0  0  0  0  0  0  0  0  0  0  0  0
  142.3268   77.5647  220.5862 H   0  0  0  0  0  0  0  0  0  0  0  0
  1  2  2  0
  2  3  1  0
  3  4  1  0
  4  5  1  0
  5  6  2  0
  6  7  1  0
  7  8  2  0
  8  9  1  0
  9 10  1  0
 10 11  2  0
 10 12  1  0
 12 13  1  0
 13 14  1  0
 14 15  1  0
  9 16  2  0
  4 17  2  0
 17 18  1  0
 18 19  2  0
 19 20  1  0
 20 21  2  0
 21 22  1  0
 22 23  2  0
 23 24  1  0
 24 25  2  0
 25 26  1  0
 26 27  2  0
 21 28  1  0
 28 29  2  0
 29  2  1  0
 16  5  1  0
 29 18  1  0
 15 12  1  0
 27 22  1  0
  3 30  1  0
  3 31  1  0
  6 32  1  0
  7 33  1  0
  8 34  1  0
 13 35  1  0
 13 36  1  0
 14 37  1  0
 14 38  1  0
 15 39  1  0
 15 40  1  0
 16 41  1  0
 19 42  1  0
 20 43  1  0
 23 44  1  0
 24 45  1  0
 26 46  1  0
 27 47  1  0
 28 48  1  0
M  END
>  <smiles>  (37) 
O=C1CC(c2cccc(C(=O)N3CCC3)c2)=Nc2ccc(-c3ccncc3)cc21

>  <score_type>  (37) 
oracle

>  <origin>  (37) 
autodockgpu

>  <m_score__min__energy>  (37) 
-8.6099999999999994

>  <m_primary>  (37) 
energy

>  <rmsd>  (37) 
6.491450024162246

>  <m_score__min__rmsd>  (37) 
6.491450024162246

>  <meeko>  (37) 
{"free_energy": -8.09, "intermolecular_energy": -8.99, "internal_energy": -0.84, "cluster_size": 50, "cluster_id": 1, "rank_in_cluster": 44}

>  <energy>  (37) 
-8.44

>  <cluster_rmsd>  (37) 
1.22

>  <cluster>  (37) 
1

$$$$

     RDKit          3D

 48 52  0  0  0  0  0  0  0  0999 V2000
  142.8920   73.0080  220.1950 O   0  0  0  0  0  0  0  0  0  0  0  0
  141.8530   73.1990  220.9040 C   0  0  0  0  0  0  0  0  0  0  0  0
  141.2650   72.0190  221.5820 C   0  0  0  0  0  0  0  0  0  0  0  0
  140.0760   72.4090  222.3670 C   0  0  0  0  0  0  0  0  0  0  0  0
  139.2570   71.4210  223.1060 C   0  0  0  0  0  0  0  0  0  0  0  0
  137.9060   71.3100  222.8040 C   0  0  0  0  0  0  0  0  0  0  0  0
  137.0880   70.3720  223.3790 C   0  0  0  0  0  0  0  0  0  0  0  0
  137.6500   69.5040  224.2990 C   0  0  0  0  0  0  0  0  0  0  0  0
  139.0110   69.6010  224.6150 C   0  0  0  0  0  0  0  0  0  0  0  0
  139.4980   68.6060  225.5670 C   0  0  0  0  0  0  0  0  0  0  0  0
  139.5750   67.3880  225.2730 O   0  0  0  0  0  0  0  0  0  0  0  0
  139.8860   69.0790  226.8530 N   0  0  0  0  0  0  0  0  0  0  0  0
  139.9700   70.3430  227.5700 C   0  0  0  0  0  0  0  0  0  0  0  0
  141.1260   69.7350  228.3360 C   0  0  0  0  0  0  0  0  0  0  0  0
  140.3670   68.4490  228.0980 C   0  0  0  0  0  0  0  0  0  0  0  0
  139.8050   70.5550  224.0240 C   0  0  0  0  0  0  0  0  0  0  0  0
  139.6410   73.6260  222.4310 N   0  0  0  0  0  0  0  0  0  0  0  0
  140.2110   74.7460  221.7740 C   0  0  0  0  0  0  0  0  0  0  0  0
  139.5950   75.9730  221.9240 C   0  0  0  0  0  0  0  0  0  0  0  0
  140.1510   77.0320  221.2440 C   0  0  0  0  0  0  0  0  0  0  0  0
  141.2750   76.8830  220.4440 C   0  0  0  0  0  0  0  0  0  0  0  0
  141.7720   78.0530  219.7310 C   0  0  0  0  0  0  0  0  0  0  0  0
  142.5120   78.0270  218.5860 C   0  0  0  0  0  0  0  0  0  0  0  0
  142.9150   79.2450  218.0320 C   0  0  0  0  0  0  0  0  0  0  0  0
  142.5900   80.4230  218.6010 N   0  0  0  0  0  0  0  0  0  0  0  0
  141.8610   80.4850  219.7330 C   0  0  0  0  0  0  0  0  0  0  0  0
  141.4560   79.2970  220.2920 C   0  0  0  0  0  0  0  0  0  0  0  0
  141.8590   75.6330  220.3270 C   0  0  0  0  0  0  0  0  0  0  0  0
  141.3280   74.5440  220.9960 C   0  0  0  0  0  0  0  0  0  0  0  0
  140.9710   71.2766  220.8254 H   0  0  0  0  0  0  0  0  0  0  0  0
  142.0151   71.5914  222.2635 H   0  0  0  0  0  0  0  0  0  0  0  0
  137.4728   72.0059  222.0705 H   0  0  0  0  0  0  0  0  0  0  0  0
  136.0211   70.3113  223.1180 H   0  0  0  0  0  0  0  0  0  0  0  0
  137.0270   68.7371  224.7825 H   0  0  0  0  0  0  0  0  0  0  0  0
  140.2346   71.2101  226.9470 H   0  0  0  0  0  0  0  0  0  0  0  0
  139.1006   70.7855  228.0782 H   0  0  0  0  0  0  0  0  0  0  0  0
  142.1091   69.8043  227.8474 H   0  0  0  0  0  0  0  0  0  0  0  0
  141.4583   70.0800  229.3262 H   0  0  0  0  0  0  0  0  0  0  0  0
  140.9967   67.5586  227.9540 H   0  0  0  0  0  0  0  0  0  0  0  0
  139.6825   68.0211  228.8452 H   0  0  0  0  0  0  0  0  0  0  0  0
  140.8716   70.6255  224.2834 H   0  0  0  0  0  0  0  0  0  0  0  0
  138.7035   76.0975  222.5562 H   0  0  0  0  0  0  0  0  0  0  0  0
  139.6907   78.0267  221.3373 H   0  0  0  0  0  0  0  0  0  0  0  0
  142.7844   77.0729  218.1111 H   0  0  0  0  0  0  0  0  0  0  0  0
  143.5124   79.2424  217.1084 H   0  0  0  0  0  0  0  0  0  0  0  0
  141.6002   81.4501  220.1919 H   0  0  0  0  0  0  0  0  0  0  0  0
  140.8602   79.3239  221.2163 H   0  0  0  0  0  0  0  0  0  0  0  0
  142.7518   75.5045  219.6975 H   0  0  0  0  0  0  0  0  0  0  0  0
  1  2  2  0
  2  3  1  0
  3  4  1  0
  4  5  1  0
  5  6  2  0
  6  7  1  0
  7  8  2  0
  8  9  1  0
  9 10  1  0
 10 11  2  0
 10 12  1  0
 12 13  1  0
 13 14  1  0
 14 15  1  0
  9 16  2  0
  4 17  2  0
 17 18  1  0
 18 19  2  0
 19 20  1  0
 20 21  2  0
 21 22  1  0
 22 23  2  0
 23 24  1  0
 24 25  2  0
 25 26  1  0
 26 27  2  0
 21 28  1  0
 28 29  2  0
 29  2  1  0
 16  5  1  0
 29 18  1  0
 15 12  1  0
 27 22  1  0
  3 30  1  0
  3 31  1  0
  6 32  1  0
  7 33  1  0
  8 34  1  0
 13 35  1  0
 13 36  1  0
 14 37  1  0
 14 38  1  0
 15 39  1  0
 15 40  1  0
 16 41  1  0
 19 42  1  0
 20 43  1  0
 23 44  1  0
 24 45  1  0
 26 46  1  0
 27 47  1  0
 28 48  1  0
M  END
>  <smiles>  (38) 
O=C1CC(c2cccc(C(=O)N3CCC3)c2)=Nc2ccc(-c3ccncc3)cc21

>  <score_type>  (38) 
oracle

>  <origin>  (38) 
autodockgpu

>  <m_score__min__energy>  (38) 
-8.6099999999999994

>  <m_primary>  (38) 
energy

>  <rmsd>  (38) 
6.4707513476112695

>  <m_score__min__rmsd>  (38) 
6.4707513476112695

>  <meeko>  (38) 
{"free_energy": -8.5, "intermolecular_energy": -9.4, "internal_energy": -0.94, "cluster_size": 50, "cluster_id": 1, "rank_in_cluster": 11}

>  <energy>  (38) 
-8.44

>  <cluster_rmsd>  (38) 
1.22

>  <cluster>  (38) 
1

$$$$

     RDKit          3D

 48 52  0  0  0  0  0  0  0  0999 V2000
  142.9590   73.0080  220.2450 O   0  0  0  0  0  0  0  0  0  0  0  0
  141.9040   73.1910  220.9310 C   0  0  0  0  0  0  0  0  0  0  0  0
  141.3160   72.0080  221.6050 C   0  0  0  0  0  0  0  0  0  0  0  0
  140.1060   72.3880  222.3620 C   0  0  0  0  0  0  0  0  0  0  0  0
  139.2840   71.3960  223.0910 C   0  0  0  0  0  0  0  0  0  0  0  0
  137.9400   71.2670  222.7630 C   0  0  0  0  0  0  0  0  0  0  0  0
  137.1220   70.3230  223.3280 C   0  0  0  0  0  0  0  0  0  0  0  0
  137.6760   69.4670  224.2640 C   0  0  0  0  0  0  0  0  0  0  0  0
  139.0290   69.5810  224.6050 C   0  0  0  0  0  0  0  0  0  0  0  0
  139.5090   68.5970  225.5720 C   0  0  0  0  0  0  0  0  0  0  0  0
  139.5740   67.3740  225.2970 O   0  0  0  0  0  0  0  0  0  0  0  0
  139.9040   69.0870  226.8490 N   0  0  0  0  0  0  0  0  0  0  0  0
  140.0020   70.3610  227.5460 C   0  0  0  0  0  0  0  0  0  0  0  0
  141.1540   69.7540  228.3190 C   0  0  0  0  0  0  0  0  0  0  0  0
  140.3820   68.4720  228.1040 C   0  0  0  0  0  0  0  0  0  0  0  0
  139.8240   70.5410  224.0250 C   0  0  0  0  0  0  0  0  0  0  0  0
  139.6550   73.6000  222.4080 N   0  0  0  0  0  0  0  0  0  0  0  0
  140.2240   74.7230  221.7560 C   0  0  0  0  0  0  0  0  0  0  0  0
  139.5900   75.9430  221.8850 C   0  0  0  0  0  0  0  0  0  0  0  0
  140.1470   77.0050  221.2080 C   0  0  0  0  0  0  0  0  0  0  0  0
  141.2890   76.8640  220.4330 C   0  0  0  0  0  0  0  0  0  0  0  0
  141.7870   78.0350  219.7230 C   0  0  0  0  0  0  0  0  0  0  0  0
  142.5370   78.0100  218.5850 C   0  0  0  0  0  0  0  0  0  0  0  0
  142.9390   79.2300  218.0320 C   0  0  0  0  0  0  0  0  0  0  0  0
  142.6020   80.4070  218.5960 N   0  0  0  0  0  0  0  0  0  0  0  0
  141.8630   80.4680  219.7200 C   0  0  0  0  0  0  0  0  0  0  0  0
  141.4590   79.2790  220.2780 C   0  0  0  0  0  0  0  0  0  0  0  0
  141.8910   75.6210  220.3370 C   0  0  0  0  0  0  0  0  0  0  0  0
  141.3600   74.5300  221.0030 C   0  0  0  0  0  0  0  0  0  0  0  0
  141.0473   71.2570  220.8475 H   0  0  0  0  0  0  0  0  0  0  0  0
  142.0568   71.5947  222.3053 H   0  0  0  0  0  0  0  0  0  0  0  0
  137.5132   71.9530  222.0165 H   0  0  0  0  0  0  0  0  0  0  0  0
  136.0611   70.2484  223.0469 H   0  0  0  0  0  0  0  0  0  0  0  0
  137.0524   68.6962  224.7405 H   0  0  0  0  0  0  0  0  0  0  0  0
  140.2734   71.2157  226.9089 H   0  0  0  0  0  0  0  0  0  0  0  0
  139.1380   70.8197  228.0492 H   0  0  0  0  0  0  0  0  0  0  0  0
  142.1364   69.8057  227.8269 H   0  0  0  0  0  0  0  0  0  0  0  0
  141.4922   70.1118  229.3026 H   0  0  0  0  0  0  0  0  0  0  0  0
  141.0025   67.5732  227.9732 H   0  0  0  0  0  0  0  0  0  0  0  0
  139.6952   68.0630  228.8596 H   0  0  0  0  0  0  0  0  0  0  0  0
  140.8843   70.6253  224.3053 H   0  0  0  0  0  0  0  0  0  0  0  0
  138.6845   76.0607  222.4984 H   0  0  0  0  0  0  0  0  0  0  0  0
  139.6724   77.9944  221.2840 H   0  0  0  0  0  0  0  0  0  0  0  0
  142.8183   77.0563  218.1145 H   0  0  0  0  0  0  0  0  0  0  0  0
  143.5452   79.2291  217.1141 H   0  0  0  0  0  0  0  0  0  0  0  0
  141.5930   81.4328  220.1742 H   0  0  0  0  0  0  0  0  0  0  0  0
  140.8543   79.3049  221.1965 H   0  0  0  0  0  0  0  0  0  0  0  0
  142.7982   75.4995  219.7268 H   0  0  0  0  0  0  0  0  0  0  0  0
  1  2  2  0
  2  3  1  0
  3  4  1  0
  4  5  1  0
  5  6  2  0
  6  7  1  0
  7  8  2  0
  8  9  1  0
  9 10  1  0
 10 11  2  0
 10 12  1  0
 12 13  1  0
 13 14  1  0
 14 15  1  0
  9 16  2  0
  4 17  2  0
 17 18  1  0
 18 19  2  0
 19 20  1  0
 20 21  2  0
 21 22  1  0
 22 23  2  0
 23 24  1  0
 24 25  2  0
 25 26  1  0
 26 27  2  0
 21 28  1  0
 28 29  2  0
 29  2  1  0
 16  5  1  0
 29 18  1  0
 15 12  1  0
 27 22  1  0
  3 30  1  0
  3 31  1  0
  6 32  1  0
  7 33  1  0
  8 34  1  0
 13 35  1  0
 13 36  1  0
 14 37  1  0
 14 38  1  0
 15 39  1  0
 15 40  1  0
 16 41  1  0
 19 42  1  0
 20 43  1  0
 23 44  1  0
 24 45  1  0
 26 46  1  0
 27 47  1  0
 28 48  1  0
M  END
>  <smiles>  (39) 
O=C1CC(c2cccc(C(=O)N3CCC3)c2)=Nc2ccc(-c3ccncc3)cc21

>  <score_type>  (39) 
oracle

>  <origin>  (39) 
autodockgpu

>  <m_score__min__energy>  (39) 
-8.6099999999999994

>  <m_primary>  (39) 
energy

>  <rmsd>  (39) 
6.459984169990301

>  <m_score__min__rmsd>  (39) 
6.459984169990301

>  <meeko>  (39) 
{"free_energy": -8.49, "intermolecular_energy": -9.38, "internal_energy": -0.94, "cluster_size": 50, "cluster_id": 1, "rank_in_cluster": 31}

>  <energy>  (39) 
-8.44

>  <cluster_rmsd>  (39) 
1.23

>  <cluster>  (39) 
1

$$$$

     RDKit          3D

 48 52  0  0  0  0  0  0  0  0999 V2000
  142.9080   73.0320  220.2300 O   0  0  0  0  0  0  0  0  0  0  0  0
  141.8680   73.2430  220.9300 C   0  0  0  0  0  0  0  0  0  0  0  0
  141.2710   72.0810  221.6310 C   0  0  0  0  0  0  0  0  0  0  0  0
  140.0810   72.4940  222.4030 C   0  0  0  0  0  0  0  0  0  0  0  0
  139.2540   71.5270  223.1600 C   0  0  0  0  0  0  0  0  0  0  0  0
  137.8780   71.5230  222.9660 C   0  0  0  0  0  0  0  0  0  0  0  0
  137.0440   70.6140  223.5630 C   0  0  0  0  0  0  0  0  0  0  0  0
  137.6130   69.6630  224.3910 C   0  0  0  0  0  0  0  0  0  0  0  0
  138.9990   69.6500  224.5970 C   0  0  0  0  0  0  0  0  0  0  0  0
  139.4870   68.5760  225.4580 C   0  0  0  0  0  0  0  0  0  0  0  0
  139.5710   67.3900  225.0550 O   0  0  0  0  0  0  0  0  0  0  0  0
  139.8680   68.9330  226.7820 N   0  0  0  0  0  0  0  0  0  0  0  0
  139.9440   70.1270  227.6110 C   0  0  0  0  0  0  0  0  0  0  0  0
  141.1000   69.4580  228.3240 C   0  0  0  0  0  0  0  0  0  0  0  0
  140.3480   68.1950  227.9680 C   0  0  0  0  0  0  0  0  0  0  0  0
  139.8100   70.5780  223.9880 C   0  0  0  0  0  0  0  0  0  0  0  0
  139.6510   73.7140  222.4380 N   0  0  0  0  0  0  0  0  0  0  0  0
  140.2290   74.8170  221.7600 C   0  0  0  0  0  0  0  0  0  0  0  0
  139.6190   76.0500  221.8800 C   0  0  0  0  0  0  0  0  0  0  0  0
  140.1820   77.0910  221.1790 C   0  0  0  0  0  0  0  0  0  0  0  0
  141.3080   76.9190  220.3870 C   0  0  0  0  0  0  0  0  0  0  0  0
  141.8140   78.0710  219.6510 C   0  0  0  0  0  0  0  0  0  0  0  0
  142.5220   78.0170  218.4870 C   0  0  0  0  0  0  0  0  0  0  0  0
  142.9390   79.2210  217.9110 C   0  0  0  0  0  0  0  0  0  0  0  0
  142.6580   80.4100  218.4780 N   0  0  0  0  0  0  0  0  0  0  0  0
  141.9620   80.5000  219.6290 C   0  0  0  0  0  0  0  0  0  0  0  0
  141.5430   79.3270  220.2090 C   0  0  0  0  0  0  0  0  0  0  0  0
  141.8870   75.6640  220.2990 C   0  0  0  0  0  0  0  0  0  0  0  0
  141.3480   74.5930  220.9910 C   0  0  0  0  0  0  0  0  0  0  0  0
  140.9759   71.3241  220.8894 H   0  0  0  0  0  0  0  0  0  0  0  0
  142.0163   71.6643  222.3245 H   0  0  0  0  0  0  0  0  0  0  0  0
  137.4385   72.2834  222.3037 H   0  0  0  0  0  0  0  0  0  0  0  0
  135.9581   70.6397  223.3895 H   0  0  0  0  0  0  0  0  0  0  0  0
  136.9767   68.9161  224.8883 H   0  0  0  0  0  0  0  0  0  0  0  0
  140.2068   71.0480  227.0700 H   0  0  0  0  0  0  0  0  0  0  0  0
  139.0706   70.5176  228.1537 H   0  0  0  0  0  0  0  0  0  0  0  0
  142.0846   69.5755  227.8478 H   0  0  0  0  0  0  0  0  0  0  0  0
  141.4269   69.7141  229.3426 H   0  0  0  0  0  0  0  0  0  0  0  0
  140.9826   67.3241  227.7469 H   0  0  0  0  0  0  0  0  0  0  0  0
  139.6629   67.6984  228.6709 H   0  0  0  0  0  0  0  0  0  0  0  0
  140.8962   70.5624  224.1612 H   0  0  0  0  0  0  0  0  0  0  0  0
  138.7259   76.1928  222.5060 H   0  0  0  0  0  0  0  0  0  0  0  0
  139.7259   78.0896  221.2484 H   0  0  0  0  0  0  0  0  0  0  0  0
  142.7587   77.0525  218.0139 H   0  0  0  0  0  0  0  0  0  0  0  0
  143.5107   79.1965  216.9715 H   0  0  0  0  0  0  0  0  0  0  0  0
  141.7381   81.4751  220.0863 H   0  0  0  0  0  0  0  0  0  0  0  0
  140.9725   79.3761  221.1482 H   0  0  0  0  0  0  0  0  0  0  0  0
  142.7810   75.5172  219.6751 H   0  0  0  0  0  0  0  0  0  0  0  0
  1  2  2  0
  2  3  1  0
  3  4  1  0
  4  5  1  0
  5  6  2  0
  6  7  1  0
  7  8  2  0
  8  9  1  0
  9 10  1  0
 10 11  2  0
 10 12  1  0
 12 13  1  0
 13 14  1  0
 14 15  1  0
  9 16  2  0
  4 17  2  0
 17 18  1  0
 18 19  2  0
 19 20  1  0
 20 21  2  0
 21 22  1  0
 22 23  2  0
 23 24  1  0
 24 25  2  0
 25 26  1  0
 26 27  2  0
 21 28  1  0
 28 29  2  0
 29  2  1  0
 16  5  1  0
 29 18  1  0
 15 12  1  0
 27 22  1  0
  3 30  1  0
  3 31  1  0
  6 32  1  0
  7 33  1  0
  8 34  1  0
 13 35  1  0
 13 36  1  0
 14 37  1  0
 14 38  1  0
 15 39  1  0
 15 40  1  0
 16 41  1  0
 19 42  1  0
 20 43  1  0
 23 44  1  0
 24 45  1  0
 26 46  1  0
 27 47  1  0
 28 48  1  0
M  END
>  <smiles>  (40) 
O=C1CC(c2cccc(C(=O)N3CCC3)c2)=Nc2ccc(-c3ccncc3)cc21

>  <score_type>  (40) 
oracle

>  <origin>  (40) 
autodockgpu

>  <m_score__min__energy>  (40) 
-8.6099999999999994

>  <m_primary>  (40) 
energy

>  <rmsd>  (40) 
6.511343157650382

>  <m_score__min__rmsd>  (40) 
6.511343157650382

>  <meeko>  (40) 
{"free_energy": -8.5, "intermolecular_energy": -9.4, "internal_energy": -0.93, "cluster_size": 50, "cluster_id": 1, "rank_in_cluster": 10}

>  <energy>  (40) 
-8.43

>  <cluster_rmsd>  (40) 
1.24

>  <cluster>  (40) 
1

$$$$

     RDKit          3D

 48 52  0  0  0  0  0  0  0  0999 V2000
  142.8600   73.0100  220.1800 O   0  0  0  0  0  0  0  0  0  0  0  0
  141.8380   73.2260  220.9050 C   0  0  0  0  0  0  0  0  0  0  0  0
  141.2410   72.0640  221.6060 C   0  0  0  0  0  0  0  0  0  0  0  0
  140.0730   72.4830  222.4070 C   0  0  0  0  0  0  0  0  0  0  0  0
  139.2510   71.5180  223.1710 C   0  0  0  0  0  0  0  0  0  0  0  0
  137.8750   71.5050  222.9750 C   0  0  0  0  0  0  0  0  0  0  0  0
  137.0440   70.5960  223.5780 C   0  0  0  0  0  0  0  0  0  0  0  0
  137.6170   69.6560  224.4160 C   0  0  0  0  0  0  0  0  0  0  0  0
  139.0030   69.6530  224.6250 C   0  0  0  0  0  0  0  0  0  0  0  0
  139.4950   68.5890  225.4960 C   0  0  0  0  0  0  0  0  0  0  0  0
  139.5820   67.3990  225.1060 O   0  0  0  0  0  0  0  0  0  0  0  0
  139.8780   68.9610  226.8160 N   0  0  0  0  0  0  0  0  0  0  0  0
  139.9520   70.1640  227.6320 C   0  0  0  0  0  0  0  0  0  0  0  0
  141.1110   69.5050  228.3490 C   0  0  0  0  0  0  0  0  0  0  0  0
  140.3620   68.2370  228.0080 C   0  0  0  0  0  0  0  0  0  0  0  0
  139.8100   70.5800  224.0090 C   0  0  0  0  0  0  0  0  0  0  0  0
  139.6600   73.7070  222.4650 N   0  0  0  0  0  0  0  0  0  0  0  0
  140.2370   74.8110  221.7870 C   0  0  0  0  0  0  0  0  0  0  0  0
  139.6450   76.0500  221.9330 C   0  0  0  0  0  0  0  0  0  0  0  0
  140.2070   77.0920  221.2310 C   0  0  0  0  0  0  0  0  0  0  0  0
  141.3140   76.9140  220.4140 C   0  0  0  0  0  0  0  0  0  0  0  0
  141.8190   78.0680  219.6800 C   0  0  0  0  0  0  0  0  0  0  0  0
  142.5320   78.0160  218.5180 C   0  0  0  0  0  0  0  0  0  0  0  0
  142.9470   79.2220  217.9450 C   0  0  0  0  0  0  0  0  0  0  0  0
  142.6580   80.4100  218.5100 N   0  0  0  0  0  0  0  0  0  0  0  0
  141.9570   80.4980  219.6570 C   0  0  0  0  0  0  0  0  0  0  0  0
  141.5400   79.3230  220.2360 C   0  0  0  0  0  0  0  0  0  0  0  0
  141.8750   75.6530  220.3000 C   0  0  0  0  0  0  0  0  0  0  0  0
  141.3370   74.5810  220.9910 C   0  0  0  0  0  0  0  0  0  0  0  0
  140.9209   71.3190  220.8627 H   0  0  0  0  0  0  0  0  0  0  0  0
  141.9953   71.6307  222.2793 H   0  0  0  0  0  0  0  0  0  0  0  0
  137.4327   72.2578  222.3060 H   0  0  0  0  0  0  0  0  0  0  0  0
  135.9584   70.6136  223.4014 H   0  0  0  0  0  0  0  0  0  0  0  0
  136.9841   68.9100  224.9189 H   0  0  0  0  0  0  0  0  0  0  0  0
  140.2112   71.0800  227.0809 H   0  0  0  0  0  0  0  0  0  0  0  0
  139.0787   70.5583  228.1723 H   0  0  0  0  0  0  0  0  0  0  0  0
  142.0942   69.6201  227.8693 H   0  0  0  0  0  0  0  0  0  0  0  0
  141.4394   69.7723  229.3642 H   0  0  0  0  0  0  0  0  0  0  0  0
  140.9984   67.3655  227.7947 H   0  0  0  0  0  0  0  0  0  0  0  0
  139.6797   67.7460  228.7174 H   0  0  0  0  0  0  0  0  0  0  0  0
  140.8958   70.5721  224.1848 H   0  0  0  0  0  0  0  0  0  0  0  0
  138.7669   76.1971  222.5790 H   0  0  0  0  0  0  0  0  0  0  0  0
  139.7654   78.0955  221.3204 H   0  0  0  0  0  0  0  0  0  0  0  0
  142.7735   77.0526  218.0453 H   0  0  0  0  0  0  0  0  0  0  0  0
  143.5243   79.2000  217.0089 H   0  0  0  0  0  0  0  0  0  0  0  0
  141.7272   81.4724  220.1127 H   0  0  0  0  0  0  0  0  0  0  0  0
  140.9648   79.3702  221.1724 H   0  0  0  0  0  0  0  0  0  0  0  0
  142.7540   75.5023  219.6561 H   0  0  0  0  0  0  0  0  0  0  0  0
  1  2  2  0
  2  3  1  0
  3  4  1  0
  4  5  1  0
  5  6  2  0
  6  7  1  0
  7  8  2  0
  8  9  1  0
  9 10  1  0
 10 11  2  0
 10 12  1  0
 12 13  1  0
 13 14  1  0
 14 15  1  0
  9 16  2  0
  4 17  2  0
 17 18  1  0
 18 19  2  0
 19 20  1  0
 20 21  2  0
 21 22  1  0
 22 23  2  0
 23 24  1  0
 24 25  2  0
 25 26  1  0
 26 27  2  0
 21 28  1  0
 28 29  2  0
 29  2  1  0
 16  5  1  0
 29 18  1  0
 15 12  1  0
 27 22  1  0
  3 30  1  0
  3 31  1  0
  6 32  1  0
  7 33  1  0
  8 34  1  0
 13 35  1  0
 13 36  1  0
 14 37  1  0
 14 38  1  0
 15 39  1  0
 15 40  1  0
 16 41  1  0
 19 42  1  0
 20 43  1  0
 23 44  1  0
 24 45  1  0
 26 46  1  0
 27 47  1  0
 28 48  1  0
M  END
>  <smiles>  (41) 
O=C1CC(c2cccc(C(=O)N3CCC3)c2)=Nc2ccc(-c3ccncc3)cc21

>  <score_type>  (41) 
oracle

>  <origin>  (41) 
autodockgpu

>  <m_score__min__energy>  (41) 
-8.6099999999999994

>  <m_primary>  (41) 
energy

>  <rmsd>  (41) 
6.51354409864701

>  <m_score__min__rmsd>  (41) 
6.51354409864701

>  <meeko>  (41) 
{"free_energy": -8.49, "intermolecular_energy": -9.39, "internal_energy": -0.93, "cluster_size": 50, "cluster_id": 1, "rank_in_cluster": 27}

>  <energy>  (41) 
-8.4

>  <cluster_rmsd>  (41) 
0.5

>  <cluster>  (41) 
1

$$$$

     RDKit          3D

 48 52  0  0  0  0  0  0  0  0999 V2000
  142.8740   73.0260  220.1830 O   0  0  0  0  0  0  0  0  0  0  0  0
  141.8460   73.2410  220.9000 C   0  0  0  0  0  0  0  0  0  0  0  0
  141.2500   72.0790  221.6020 C   0  0  0  0  0  0  0  0  0  0  0  0
  140.0750   72.4960  222.3940 C   0  0  0  0  0  0  0  0  0  0  0  0
  139.2510   71.5310  223.1570 C   0  0  0  0  0  0  0  0  0  0  0  0
  137.8750   71.5240  222.9640 C   0  0  0  0  0  0  0  0  0  0  0  0
  137.0430   70.6160  223.5660 C   0  0  0  0  0  0  0  0  0  0  0  0
  137.6150   69.6700  224.3980 C   0  0  0  0  0  0  0  0  0  0  0  0
  139.0010   69.6610  224.6030 C   0  0  0  0  0  0  0  0  0  0  0  0
  139.4920   68.5920  225.4670 C   0  0  0  0  0  0  0  0  0  0  0  0
  139.5770   67.4040  225.0710 O   0  0  0  0  0  0  0  0  0  0  0  0
  139.8750   68.9550  226.7900 N   0  0  0  0  0  0  0  0  0  0  0  0
  139.9510   70.1540  227.6130 C   0  0  0  0  0  0  0  0  0  0  0  0
  141.1090   69.4890  228.3260 C   0  0  0  0  0  0  0  0  0  0  0  0
  140.3580   68.2240  227.9780 C   0  0  0  0  0  0  0  0  0  0  0  0
  139.8090   70.5870  223.9880 C   0  0  0  0  0  0  0  0  0  0  0  0
  139.6570   73.7200  222.4450 N   0  0  0  0  0  0  0  0  0  0  0  0
  140.2340   74.8230  221.7660 C   0  0  0  0  0  0  0  0  0  0  0  0
  139.6370   76.0600  221.9040 C   0  0  0  0  0  0  0  0  0  0  0  0
  140.1990   77.1020  221.2020 C   0  0  0  0  0  0  0  0  0  0  0  0
  141.3120   76.9250  220.3920 C   0  0  0  0  0  0  0  0  0  0  0  0
  141.8170   78.0780  219.6570 C   0  0  0  0  0  0  0  0  0  0  0  0
  142.5230   78.0250  218.4920 C   0  0  0  0  0  0  0  0  0  0  0  0
  142.9400   79.2300  217.9180 C   0  0  0  0  0  0  0  0  0  0  0  0
  142.6590   80.4190  218.4860 N   0  0  0  0  0  0  0  0  0  0  0  0
  141.9650   80.5070  219.6380 C   0  0  0  0  0  0  0  0  0  0  0  0
  141.5470   79.3330  220.2170 C   0  0  0  0  0  0  0  0  0  0  0  0
  141.8780   75.6660  220.2870 C   0  0  0  0  0  0  0  0  0  0  0  0
  141.3400   74.5940  220.9780 C   0  0  0  0  0  0  0  0  0  0  0  0
  140.9380   71.3295  220.8598 H   0  0  0  0  0  0  0  0  0  0  0  0
  142.0020   71.6518  222.2817 H   0  0  0  0  0  0  0  0  0  0  0  0
  137.4337   72.2807  222.2986 H   0  0  0  0  0  0  0  0  0  0  0  0
  135.9569   70.6387  223.3934 H   0  0  0  0  0  0  0  0  0  0  0  0
  136.9808   68.9240  224.8992 H   0  0  0  0  0  0  0  0  0  0  0  0
  140.2116   71.0727  227.0670 H   0  0  0  0  0  0  0  0  0  0  0  0
  139.0784   70.5468  228.1556 H   0  0  0  0  0  0  0  0  0  0  0  0
  142.0923   69.6052  227.8468 H   0  0  0  0  0  0  0  0  0  0  0  0
  141.4380   69.7500  229.3427 H   0  0  0  0  0  0  0  0  0  0  0  0
  140.9931   67.3527  227.7599 H   0  0  0  0  0  0  0  0  0  0  0  0
  139.6749   67.7302  228.6848 H   0  0  0  0  0  0  0  0  0  0  0  0
  140.8955   70.5736  224.1591 H   0  0  0  0  0  0  0  0  0  0  0  0
  138.7545   76.2059  222.5443 H   0  0  0  0  0  0  0  0  0  0  0  0
  139.7531   78.1041  221.2854 H   0  0  0  0  0  0  0  0  0  0  0  0
  142.7581   77.0612  218.0168 H   0  0  0  0  0  0  0  0  0  0  0  0
  143.5121   79.2066  216.9787 H   0  0  0  0  0  0  0  0  0  0  0  0
  141.7417   81.4813  220.0972 H   0  0  0  0  0  0  0  0  0  0  0  0
  140.9780   79.3808  221.1572 H   0  0  0  0  0  0  0  0  0  0  0  0
  142.7620   75.5164  219.6496 H   0  0  0  0  0  0  0  0  0  0  0  0
  1  2  2  0
  2  3  1  0
  3  4  1  0
  4  5  1  0
  5  6  2  0
  6  7  1  0
  7  8  2  0
  8  9  1  0
  9 10  1  0
 10 11  2  0
 10 12  1  0
 12 13  1  0
 13 14  1  0
 14 15  1  0
  9 16  2  0
  4 17  2  0
 17 18  1  0
 18 19  2  0
 19 20  1  0
 20 21  2  0
 21 22  1  0
 22 23  2  0
 23 24  1  0
 24 25  2  0
 25 26  1  0
 26 27  2  0
 21 28  1  0
 28 29  2  0
 29  2  1  0
 16  5  1  0
 29 18  1  0
 15 12  1  0
 27 22  1  0
  3 30  1  0
  3 31  1  0
  6 32  1  0
  7 33  1  0
  8 34  1  0
 13 35  1  0
 13 36  1  0
 14 37  1  0
 14 38  1  0
 15 39  1  0
 15 40  1  0
 16 41  1  0
 19 42  1  0
 20 43  1  0
 23 44  1  0
 24 45  1  0
 26 46  1  0
 27 47  1  0
 28 48  1  0
M  END
>  <smiles>  (42) 
O=C1CC(c2cccc(C(=O)N3CCC3)c2)=Nc2ccc(-c3ccncc3)cc21

>  <score_type>  (42) 
oracle

>  <origin>  (42) 
autodockgpu

>  <m_score__min__energy>  (42) 
-8.6099999999999994

>  <m_primary>  (42) 
energy

>  <rmsd>  (42) 
6.514901310354375

>  <m_score__min__rmsd>  (42) 
6.514901310354375

>  <meeko>  (42) 
{"free_energy": -8.5, "intermolecular_energy": -9.39, "internal_energy": -0.93, "cluster_size": 50, "cluster_id": 1, "rank_in_cluster": 18}

>  <energy>  (42) 
-8.23

>  <cluster_rmsd>  (42) 
0.7

>  <cluster>  (42) 
1

$$$$

     RDKit          3D

 48 52  0  0  0  0  0  0  0  0999 V2000
  142.9120   73.0030  220.2190 O   0  0  0  0  0  0  0  0  0  0  0  0
  141.8680   73.1890  220.9200 C   0  0  0  0  0  0  0  0  0  0  0  0
  141.2800   72.0050  221.5930 C   0  0  0  0  0  0  0  0  0  0  0  0
  140.0830   72.3890  222.3700 C   0  0  0  0  0  0  0  0  0  0  0  0
  139.2640   71.3970  223.1020 C   0  0  0  0  0  0  0  0  0  0  0  0
  137.9200   71.2640  222.7750 C   0  0  0  0  0  0  0  0  0  0  0  0
  137.1040   70.3200  223.3430 C   0  0  0  0  0  0  0  0  0  0  0  0
  137.6600   69.4690  224.2810 C   0  0  0  0  0  0  0  0  0  0  0  0
  139.0130   69.5870  224.6230 C   0  0  0  0  0  0  0  0  0  0  0  0
  139.4950   68.6090  225.5940 C   0  0  0  0  0  0  0  0  0  0  0  0
  139.5650   67.3850  225.3230 O   0  0  0  0  0  0  0  0  0  0  0  0
  139.8870   69.1040  226.8700 N   0  0  0  0  0  0  0  0  0  0  0  0
  139.9810   70.3810  227.5630 C   0  0  0  0  0  0  0  0  0  0  0  0
  141.1340   69.7800  228.3390 C   0  0  0  0  0  0  0  0  0  0  0  0
  140.3660   68.4950  228.1270 C   0  0  0  0  0  0  0  0  0  0  0  0
  139.8060   70.5470  224.0390 C   0  0  0  0  0  0  0  0  0  0  0  0
  139.6420   73.6030  222.4320 N   0  0  0  0  0  0  0  0  0  0  0  0
  140.2120   74.7270  221.7800 C   0  0  0  0  0  0  0  0  0  0  0  0
  139.5890   75.9510  221.9270 C   0  0  0  0  0  0  0  0  0  0  0  0
  140.1450   77.0140  221.2510 C   0  0  0  0  0  0  0  0  0  0  0  0
  141.2750   76.8700  220.4600 C   0  0  0  0  0  0  0  0  0  0  0  0
  141.7720   78.0430  219.7520 C   0  0  0  0  0  0  0  0  0  0  0  0
  142.5130   78.0220  218.6070 C   0  0  0  0  0  0  0  0  0  0  0  0
  142.9160   79.2430  218.0580 C   0  0  0  0  0  0  0  0  0  0  0  0
  142.5890   80.4180  218.6310 N   0  0  0  0  0  0  0  0  0  0  0  0
  141.8600   80.4760  219.7620 C   0  0  0  0  0  0  0  0  0  0  0  0
  141.4550   79.2850  220.3170 C   0  0  0  0  0  0  0  0  0  0  0  0
  141.8660   75.6230  220.3450 C   0  0  0  0  0  0  0  0  0  0  0  0
  141.3350   74.5310  221.0100 C   0  0  0  0  0  0  0  0  0  0  0  0
  140.9949   71.2620  220.8336 H   0  0  0  0  0  0  0  0  0  0  0  0
  142.0270   71.5802  222.2796 H   0  0  0  0  0  0  0  0  0  0  0  0
  137.4915   71.9469  222.0267 H   0  0  0  0  0  0  0  0  0  0  0  0
  136.0433   70.2420  223.0623 H   0  0  0  0  0  0  0  0  0  0  0  0
  137.0382   68.6979  224.7594 H   0  0  0  0  0  0  0  0  0  0  0  0
  140.2506   71.2342  226.9232 H   0  0  0  0  0  0  0  0  0  0  0  0
  139.1154   70.8389  228.0639 H   0  0  0  0  0  0  0  0  0  0  0  0
  142.1168   69.8332  227.8478 H   0  0  0  0  0  0  0  0  0  0  0  0
  141.4702   70.1418  229.3219 H   0  0  0  0  0  0  0  0  0  0  0  0
  140.9895   67.5978  227.9995 H   0  0  0  0  0  0  0  0  0  0  0  0
  139.6797   68.0865  228.8834 H   0  0  0  0  0  0  0  0  0  0  0  0
  140.8662   70.6349  224.3189 H   0  0  0  0  0  0  0  0  0  0  0  0
  138.6927   76.0707  222.5533 H   0  0  0  0  0  0  0  0  0  0  0  0
  139.6792   78.0065  221.3410 H   0  0  0  0  0  0  0  0  0  0  0  0
  142.7862   77.0700  218.1284 H   0  0  0  0  0  0  0  0  0  0  0  0
  143.5149   79.2446  217.1353 H   0  0  0  0  0  0  0  0  0  0  0  0
  141.5986   81.4394  220.2241 H   0  0  0  0  0  0  0  0  0  0  0  0
  140.8586   79.3084  221.2410 H   0  0  0  0  0  0  0  0  0  0  0  0
  142.7634   75.4992  219.7211 H   0  0  0  0  0  0  0  0  0  0  0  0
  1  2  2  0
  2  3  1  0
  3  4  1  0
  4  5  1  0
  5  6  2  0
  6  7  1  0
  7  8  2  0
  8  9  1  0
  9 10  1  0
 10 11  2  0
 10 12  1  0
 12 13  1  0
 13 14  1  0
 14 15  1  0
  9 16  2  0
  4 17  2  0
 17 18  1  0
 18 19  2  0
 19 20  1  0
 20 21  2  0
 21 22  1  0
 22 23  2  0
 23 24  1  0
 24 25  2  0
 25 26  1  0
 26 27  2  0
 21 28  1  0
 28 29  2  0
 29  2  1  0
 16  5  1  0
 29 18  1  0
 15 12  1  0
 27 22  1  0
  3 30  1  0
  3 31  1  0
  6 32  1  0
  7 33  1  0
  8 34  1  0
 13 35  1  0
 13 36  1  0
 14 37  1  0
 14 38  1  0
 15 39  1  0
 15 40  1  0
 16 41  1  0
 19 42  1  0
 20 43  1  0
 23 44  1  0
 24 45  1  0
 26 46  1  0
 27 47  1  0
 28 48  1  0
M  END
>  <smiles>  (43) 
O=C1CC(c2cccc(C(=O)N3CCC3)c2)=Nc2ccc(-c3ccncc3)cc21

>  <score_type>  (43) 
oracle

>  <origin>  (43) 
autodockgpu

>  <m_score__min__energy>  (43) 
-8.6099999999999994

>  <m_primary>  (43) 
energy

>  <rmsd>  (43) 
6.45932341150441

>  <m_score__min__rmsd>  (43) 
6.45932341150441

>  <meeko>  (43) 
{"free_energy": -8.5, "intermolecular_energy": -9.39, "internal_energy": -0.94, "cluster_size": 50, "cluster_id": 1, "rank_in_cluster": 14}

>  <energy>  (43) 
-8.16

>  <cluster_rmsd>  (43) 
0.77

>  <cluster>  (43) 
1

$$$$

     RDKit          3D

 48 52  0  0  0  0  0  0  0  0999 V2000
  142.8770   72.9960  220.1780 O   0  0  0  0  0  0  0  0  0  0  0  0
  141.8490   73.2180  220.8920 C   0  0  0  0  0  0  0  0  0  0  0  0
  141.2490   72.0610  221.6010 C   0  0  0  0  0  0  0  0  0  0  0  0
  140.0740   72.4860  222.3880 C   0  0  0  0  0  0  0  0  0  0  0  0
  139.2470   71.5270  223.1560 C   0  0  0  0  0  0  0  0  0  0  0  0
  137.8700   71.5300  222.9700 C   0  0  0  0  0  0  0  0  0  0  0  0
  137.0350   70.6280  223.5770 C   0  0  0  0  0  0  0  0  0  0  0  0
  137.6040   69.6790  224.4070 C   0  0  0  0  0  0  0  0  0  0  0  0
  138.9910   69.6600  224.6050 C   0  0  0  0  0  0  0  0  0  0  0  0
  139.4790   68.5880  225.4680 C   0  0  0  0  0  0  0  0  0  0  0  0
  139.5520   67.3990  225.0730 O   0  0  0  0  0  0  0  0  0  0  0  0
  139.8740   68.9510  226.7870 N   0  0  0  0  0  0  0  0  0  0  0  0
  139.9650   70.1500  227.6070 C   0  0  0  0  0  0  0  0  0  0  0  0
  141.1230   69.4770  228.3140 C   0  0  0  0  0  0  0  0  0  0  0  0
  140.3590   68.2180  227.9740 C   0  0  0  0  0  0  0  0  0  0  0  0
  139.8030   70.5800  223.9860 C   0  0  0  0  0  0  0  0  0  0  0  0
  139.6580   73.7100  222.4300 N   0  0  0  0  0  0  0  0  0  0  0  0
  140.2380   74.8080  221.7450 C   0  0  0  0  0  0  0  0  0  0  0  0
  139.6430   76.0470  221.8740 C   0  0  0  0  0  0  0  0  0  0  0  0
  140.2080   77.0830  221.1660 C   0  0  0  0  0  0  0  0  0  0  0  0
  141.3220   76.8990  220.3590 C   0  0  0  0  0  0  0  0  0  0  0  0
  141.8300   78.0460  219.6170 C   0  0  0  0  0  0  0  0  0  0  0  0
  142.5270   77.9850  218.4460 C   0  0  0  0  0  0  0  0  0  0  0  0
  142.9480   79.1850  217.8650 C   0  0  0  0  0  0  0  0  0  0  0  0
  142.6820   80.3770  218.4330 N   0  0  0  0  0  0  0  0  0  0  0  0
  141.9970   80.4740  219.5900 C   0  0  0  0  0  0  0  0  0  0  0  0
  141.5740   79.3050  220.1760 C   0  0  0  0  0  0  0  0  0  0  0  0
  141.8860   75.6380  220.2630 C   0  0  0  0  0  0  0  0  0  0  0  0
  141.3450   74.5720  220.9600 C   0  0  0  0  0  0  0  0  0  0  0  0
  140.9365   71.3074  220.8632 H   0  0  0  0  0  0  0  0  0  0  0  0
  141.9989   71.6363  222.2846 H   0  0  0  0  0  0  0  0  0  0  0  0
  137.4306   72.2895  222.3066 H   0  0  0  0  0  0  0  0  0  0  0  0
  135.9482   70.6579  223.4095 H   0  0  0  0  0  0  0  0  0  0  0  0
  136.9668   68.9383  224.9123 H   0  0  0  0  0  0  0  0  0  0  0  0
  140.2292   71.0656  227.0576 H   0  0  0  0  0  0  0  0  0  0  0  0
  139.0991   70.5504  228.1547 H   0  0  0  0  0  0  0  0  0  0  0  0
  142.1039   69.5839  227.8278 H   0  0  0  0  0  0  0  0  0  0  0  0
  141.4613   69.7376  229.3277 H   0  0  0  0  0  0  0  0  0  0  0  0
  140.9851   67.3408  227.7536 H   0  0  0  0  0  0  0  0  0  0  0  0
  139.6765   67.7316  228.6865 H   0  0  0  0  0  0  0  0  0  0  0  0
  140.8901   70.5597  224.1527 H   0  0  0  0  0  0  0  0  0  0  0  0
  138.7599   76.1988  222.5120 H   0  0  0  0  0  0  0  0  0  0  0  0
  139.7636   78.0864  221.2419 H   0  0  0  0  0  0  0  0  0  0  0  0
  142.7517   77.0182  217.9718 H   0  0  0  0  0  0  0  0  0  0  0  0
  143.5106   79.1549  216.9203 H   0  0  0  0  0  0  0  0  0  0  0  0
  141.7847   81.4515  220.0476 H   0  0  0  0  0  0  0  0  0  0  0  0
  141.0127   79.3599  221.1204 H   0  0  0  0  0  0  0  0  0  0  0  0
  142.7706   75.4825  219.6280 H   0  0  0  0  0  0  0  0  0  0  0  0
  1  2  2  0
  2  3  1  0
  3  4  1  0
  4  5  1  0
  5  6  2  0
  6  7  1  0
  7  8  2  0
  8  9  1  0
  9 10  1  0
 10 11  2  0
 10 12  1  0
 12 13  1  0
 13 14  1  0
 14 15  1  0
  9 16  2  0
  4 17  2  0
 17 18  1  0
 18 19  2  0
 19 20  1  0
 20 21  2  0
 21 22  1  0
 22 23  2  0
 23 24  1  0
 24 25  2  0
 25 26  1  0
 26 27  2  0
 21 28  1  0
 28 29  2  0
 29  2  1  0
 16  5  1  0
 29 18  1  0
 15 12  1  0
 27 22  1  0
  3 30  1  0
  3 31  1  0
  6 32  1  0
  7 33  1  0
  8 34  1  0
 13 35  1  0
 13 36  1  0
 14 37  1  0
 14 38  1  0
 15 39  1  0
 15 40  1  0
 16 41  1  0
 19 42  1  0
 20 43  1  0
 23 44  1  0
 24 45  1  0
 26 46  1  0
 27 47  1  0
 28 48  1  0
M  END
>  <smiles>  (44) 
O=C1CC(c2cccc(C(=O)N3CCC3)c2)=Nc2ccc(-c3ccncc3)cc21

>  <score_type>  (44) 
oracle

>  <origin>  (44) 
autodockgpu

>  <m_score__min__energy>  (44) 
-8.6099999999999994

>  <m_primary>  (44) 
energy

>  <rmsd>  (44) 
6.513716551183282

>  <m_score__min__rmsd>  (44) 
6.513716551183282

>  <meeko>  (44) 
{"free_energy": -8.5, "intermolecular_energy": -9.39, "internal_energy": -0.93, "cluster_size": 50, "cluster_id": 1, "rank_in_cluster": 13}

>  <energy>  (44) 
-8.09

>  <cluster_rmsd>  (44) 
0.97

>  <cluster>  (44) 
1

$$$$

     RDKit          3D

 48 52  0  0  0  0  0  0  0  0999 V2000
  142.8230   73.0890  220.2240 O   0  0  0  0  0  0  0  0  0  0  0  0
  141.8020   73.2880  220.9550 C   0  0  0  0  0  0  0  0  0  0  0  0
  141.2080   72.1100  221.6320 C   0  0  0  0  0  0  0  0  0  0  0  0
  140.0400   72.5110  222.4440 C   0  0  0  0  0  0  0  0  0  0  0  0
  139.2200   71.5280  223.1880 C   0  0  0  0  0  0  0  0  0  0  0  0
  137.8470   71.5040  222.9780 C   0  0  0  0  0  0  0  0  0  0  0  0
  137.0200   70.5800  223.5620 C   0  0  0  0  0  0  0  0  0  0  0  0
  137.5930   69.6360  224.3940 C   0  0  0  0  0  0  0  0  0  0  0  0
  138.9770   69.6440  224.6180 C   0  0  0  0  0  0  0  0  0  0  0  0
  139.4710   68.5760  225.4810 C   0  0  0  0  0  0  0  0  0  0  0  0
  139.5520   67.3870  225.0860 O   0  0  0  0  0  0  0  0  0  0  0  0
  139.8630   68.9410  226.8000 N   0  0  0  0  0  0  0  0  0  0  0  0
  139.9460   70.1400  227.6210 C   0  0  0  0  0  0  0  0  0  0  0  0
  141.1080   69.4750  228.3280 C   0  0  0  0  0  0  0  0  0  0  0  0
  140.3520   68.2100  227.9870 C   0  0  0  0  0  0  0  0  0  0  0  0
  139.7800   70.5860  224.0210 C   0  0  0  0  0  0  0  0  0  0  0  0
  139.6260   73.7330  222.5290 N   0  0  0  0  0  0  0  0  0  0  0  0
  140.2010   74.8520  221.8740 C   0  0  0  0  0  0  0  0  0  0  0  0
  139.6090   76.0870  222.0480 C   0  0  0  0  0  0  0  0  0  0  0  0
  140.1680   77.1440  221.3680 C   0  0  0  0  0  0  0  0  0  0  0  0
  141.2740   76.9860  220.5450 C   0  0  0  0  0  0  0  0  0  0  0  0
  141.7760   78.1550  219.8350 C   0  0  0  0  0  0  0  0  0  0  0  0
  141.6510   79.4480  220.2520 C   0  0  0  0  0  0  0  0  0  0  0  0
  142.1880   80.4560  219.4450 C   0  0  0  0  0  0  0  0  0  0  0  0
  142.8150   80.1760  218.2870 N   0  0  0  0  0  0  0  0  0  0  0  0
  142.9560   78.9110  217.8450 C   0  0  0  0  0  0  0  0  0  0  0  0
  142.4350   77.9050  218.6240 C   0  0  0  0  0  0  0  0  0  0  0  0
  141.8350   75.7280  220.4030 C   0  0  0  0  0  0  0  0  0  0  0  0
  141.3000   74.6410  221.0720 C   0  0  0  0  0  0  0  0  0  0  0  0
  140.8877   71.3805  220.8735 H   0  0  0  0  0  0  0  0  0  0  0  0
  141.9639   71.6631  222.2945 H   0  0  0  0  0  0  0  0  0  0  0  0
  137.4037   72.2602  222.3134 H   0  0  0  0  0  0  0  0  0  0  0  0
  135.9361   70.5892  223.3749 H   0  0  0  0  0  0  0  0  0  0  0  0
  136.9622   68.8777  224.8808 H   0  0  0  0  0  0  0  0  0  0  0  0
  140.2042   71.0577  227.0723 H   0  0  0  0  0  0  0  0  0  0  0  0
  139.0773   70.5340  228.1688 H   0  0  0  0  0  0  0  0  0  0  0  0
  142.0883   69.5888  227.8422 H   0  0  0  0  0  0  0  0  0  0  0  0
  141.4442   69.7376  229.3419 H   0  0  0  0  0  0  0  0  0  0  0  0
  140.9839   67.3371  227.7665 H   0  0  0  0  0  0  0  0  0  0  0  0
  139.6724   67.7185  228.6988 H   0  0  0  0  0  0  0  0  0  0  0  0
  140.8640   70.5872  224.2077 H   0  0  0  0  0  0  0  0  0  0  0  0
  138.7324   76.2194  222.6992 H   0  0  0  0  0  0  0  0  0  0  0  0
  139.7250   78.1446  221.4800 H   0  0  0  0  0  0  0  0  0  0  0  0
  141.1421   79.6908  221.1965 H   0  0  0  0  0  0  0  0  0  0  0  0
  142.0957   81.5045  219.7646 H   0  0  0  0  0  0  0  0  0  0  0  0
  143.4685   78.6914  216.8968 H   0  0  0  0  0  0  0  0  0  0  0  0
  142.5395   76.8642  218.2836 H   0  0  0  0  0  0  0  0  0  0  0  0
  142.7124   75.5916  219.7537 H   0  0  0  0  0  0  0  0  0  0  0  0
  1  2  2  0
  2  3  1  0
  3  4  1  0
  4  5  1  0
  5  6  2  0
  6  7  1  0
  7  8  2  0
  8  9  1  0
  9 10  1  0
 10 11  2  0
 10 12  1  0
 12 13  1  0
 13 14  1  0
 14 15  1  0
  9 16  2  0
  4 17  2  0
 17 18  1  0
 18 19  2  0
 19 20  1  0
 20 21  2  0
 21 22  1  0
 22 23  2  0
 23 24  1  0
 24 25  2  0
 25 26  1  0
 26 27  2  0
 21 28  1  0
 28 29  2  0
 29  2  1  0
 16  5  1  0
 29 18  1  0
 15 12  1  0
 27 22  1  0
  3 30  1  0
  3 31  1  0
  6 32  1  0
  7 33  1  0
  8 34  1  0
 13 35  1  0
 13 36  1  0
 14 37  1  0
 14 38  1  0
 15 39  1  0
 15 40  1  0
 16 41  1  0
 19 42  1  0
 20 43  1  0
 23 44  1  0
 24 45  1  0
 26 46  1  0
 27 47  1  0
 28 48  1  0
M  END
>  <smiles>  (45) 
O=C1CC(c2cccc(C(=O)N3CCC3)c2)=Nc2ccc(-c3ccncc3)cc21

>  <score_type>  (45) 
oracle

>  <origin>  (45) 
autodockgpu

>  <m_score__min__energy>  (45) 
-8.6099999999999994

>  <m_primary>  (45) 
energy

>  <rmsd>  (45) 
6.50193882136668

>  <m_score__min__rmsd>  (45) 
6.50193882136668

>  <meeko>  (45) 
{"free_energy": -8.44, "intermolecular_energy": -9.34, "internal_energy": -0.94, "cluster_size": 50, "cluster_id": 1, "rank_in_cluster": 38}

>  <energy>  (45) 
-8.09

>  <cluster_rmsd>  (45) 
0.84

>  <cluster>  (45) 
1

$$$$

     RDKit          3D

 48 52  0  0  0  0  0  0  0  0999 V2000
  142.8790   72.9910  220.1430 O   0  0  0  0  0  0  0  0  0  0  0  0
  141.8510   73.2100  220.8580 C   0  0  0  0  0  0  0  0  0  0  0  0
  141.2530   72.0510  221.5650 C   0  0  0  0  0  0  0  0  0  0  0  0
  140.0770   72.4730  222.3530 C   0  0  0  0  0  0  0  0  0  0  0  0
  139.2530   71.5120  223.1190 C   0  0  0  0  0  0  0  0  0  0  0  0
  137.8770   71.5050  222.9260 C   0  0  0  0  0  0  0  0  0  0  0  0
  137.0440   70.6000  223.5310 C   0  0  0  0  0  0  0  0  0  0  0  0
  137.6140   69.6570  224.3680 C   0  0  0  0  0  0  0  0  0  0  0  0
  139.0000   69.6480  224.5740 C   0  0  0  0  0  0  0  0  0  0  0  0
  139.4900   68.5830  225.4440 C   0  0  0  0  0  0  0  0  0  0  0  0
  139.5630   67.3910  225.0560 O   0  0  0  0  0  0  0  0  0  0  0  0
  139.8870   68.9550  226.7590 N   0  0  0  0  0  0  0  0  0  0  0  0
  139.9790   70.1590  227.5710 C   0  0  0  0  0  0  0  0  0  0  0  0
  141.1380   69.4920  228.2810 C   0  0  0  0  0  0  0  0  0  0  0  0
  140.3740   68.2300  227.9500 C   0  0  0  0  0  0  0  0  0  0  0  0
  139.8100   70.5710  223.9560 C   0  0  0  0  0  0  0  0  0  0  0  0
  139.6600   73.6970  222.3970 N   0  0  0  0  0  0  0  0  0  0  0  0
  140.2380   74.7960  221.7130 C   0  0  0  0  0  0  0  0  0  0  0  0
  139.6410   76.0340  221.8440 C   0  0  0  0  0  0  0  0  0  0  0  0
  140.2040   77.0720  221.1380 C   0  0  0  0  0  0  0  0  0  0  0  0
  141.3180   76.8910  220.3300 C   0  0  0  0  0  0  0  0  0  0  0  0
  141.8240   78.0400  219.5900 C   0  0  0  0  0  0  0  0  0  0  0  0
  142.5240   77.9820  218.4210 C   0  0  0  0  0  0  0  0  0  0  0  0
  142.9430   79.1840  217.8420 C   0  0  0  0  0  0  0  0  0  0  0  0
  142.6700   80.3750  218.4090 N   0  0  0  0  0  0  0  0  0  0  0  0
  141.9820   80.4690  219.5640 C   0  0  0  0  0  0  0  0  0  0  0  0
  141.5620   79.2980  220.1480 C   0  0  0  0  0  0  0  0  0  0  0  0
  141.8840   75.6320  220.2320 C   0  0  0  0  0  0  0  0  0  0  0  0
  141.3450   74.5640  220.9280 C   0  0  0  0  0  0  0  0  0  0  0  0
  140.9417   71.2981  220.8260 H   0  0  0  0  0  0  0  0  0  0  0  0
  142.0036   71.6263  222.2478 H   0  0  0  0  0  0  0  0  0  0  0  0
  137.4364   72.2595  222.2577 H   0  0  0  0  0  0  0  0  0  0  0  0
  135.9581   70.6227  223.3569 H   0  0  0  0  0  0  0  0  0  0  0  0
  136.9786   68.9139  224.8720 H   0  0  0  0  0  0  0  0  0  0  0  0
  140.2420   71.0711  227.0152 H   0  0  0  0  0  0  0  0  0  0  0  0
  139.1137   70.5624  228.1174 H   0  0  0  0  0  0  0  0  0  0  0  0
  142.1183   69.5963  227.7930 H   0  0  0  0  0  0  0  0  0  0  0  0
  141.4774   69.7596  229.2925 H   0  0  0  0  0  0  0  0  0  0  0  0
  141.0003   67.3518  227.7344 H   0  0  0  0  0  0  0  0  0  0  0  0
  139.6927   67.7479  228.6665 H   0  0  0  0  0  0  0  0  0  0  0  0
  140.8962   70.5579  224.1290 H   0  0  0  0  0  0  0  0  0  0  0  0
  138.7576   76.1833  222.4822 H   0  0  0  0  0  0  0  0  0  0  0  0
  139.7583   78.0746  221.2161 H   0  0  0  0  0  0  0  0  0  0  0  0
  142.7527   77.0163  217.9466 H   0  0  0  0  0  0  0  0  0  0  0  0
  143.5098   79.1562  216.8997 H   0  0  0  0  0  0  0  0  0  0  0  0
  141.7650   81.4454  220.0217 H   0  0  0  0  0  0  0  0  0  0  0  0
  140.9978   79.3506  221.0908 H   0  0  0  0  0  0  0  0  0  0  0  0
  142.7686   75.4790  219.5964 H   0  0  0  0  0  0  0  0  0  0  0  0
  1  2  2  0
  2  3  1  0
  3  4  1  0
  4  5  1  0
  5  6  2  0
  6  7  1  0
  7  8  2  0
  8  9  1  0
  9 10  1  0
 10 11  2  0
 10 12  1  0
 12 13  1  0
 13 14  1  0
 14 15  1  0
  9 16  2  0
  4 17  2  0
 17 18  1  0
 18 19  2  0
 19 20  1  0
 20 21  2  0
 21 22  1  0
 22 23  2  0
 23 24  1  0
 24 25  2  0
 25 26  1  0
 26 27  2  0
 21 28  1  0
 28 29  2  0
 29  2  1  0
 16  5  1  0
 29 18  1  0
 15 12  1  0
 27 22  1  0
  3 30  1  0
  3 31  1  0
  6 32  1  0
  7 33  1  0
  8 34  1  0
 13 35  1  0
 13 36  1  0
 14 37  1  0
 14 38  1  0
 15 39  1  0
 15 40  1  0
 16 41  1  0
 19 42  1  0
 20 43  1  0
 23 44  1  0
 24 45  1  0
 26 46  1  0
 27 47  1  0
 28 48  1  0
M  END
>  <smiles>  (46) 
O=C1CC(c2cccc(C(=O)N3CCC3)c2)=Nc2ccc(-c3ccncc3)cc21

>  <score_type>  (46) 
oracle

>  <origin>  (46) 
autodockgpu

>  <m_score__min__energy>  (46) 
-8.6099999999999994

>  <m_primary>  (46) 
energy

>  <rmsd>  (46) 
6.512362289957294

>  <m_score__min__rmsd>  (46) 
6.512362289957294

>  <meeko>  (46) 
{"free_energy": -8.5, "intermolecular_energy": -9.39, "internal_energy": -0.93, "cluster_size": 50, "cluster_id": 1, "rank_in_cluster": 12}

>  <energy>  (46) 
-8.0

>  <cluster_rmsd>  (46) 
0.9

>  <cluster>  (46) 
1

$$$$

     RDKit          3D

 48 52  0  0  0  0  0  0  0  0999 V2000
  142.8500   72.9650  220.1310 O   0  0  0  0  0  0  0  0  0  0  0  0
  141.8330   73.1880  220.8600 C   0  0  0  0  0  0  0  0  0  0  0  0
  141.2350   72.0290  221.5680 C   0  0  0  0  0  0  0  0  0  0  0  0
  140.0720   72.4550  222.3740 C   0  0  0  0  0  0  0  0  0  0  0  0
  139.2500   71.4950  223.1440 C   0  0  0  0  0  0  0  0  0  0  0  0
  137.8720   71.5000  222.9670 C   0  0  0  0  0  0  0  0  0  0  0  0
  137.0390   70.5970  223.5770 C   0  0  0  0  0  0  0  0  0  0  0  0
  137.6130   69.6460  224.4020 C   0  0  0  0  0  0  0  0  0  0  0  0
  139.0010   69.6250  224.5910 C   0  0  0  0  0  0  0  0  0  0  0  0
  139.4940   68.5510  225.4490 C   0  0  0  0  0  0  0  0  0  0  0  0
  139.5750   67.3650  225.0460 O   0  0  0  0  0  0  0  0  0  0  0  0
  139.8830   68.9080  226.7710 N   0  0  0  0  0  0  0  0  0  0  0  0
  139.9650   70.1030  227.5990 C   0  0  0  0  0  0  0  0  0  0  0  0
  141.1250   69.4330  228.3050 C   0  0  0  0  0  0  0  0  0  0  0  0
  140.3690   68.1710  227.9540 C   0  0  0  0  0  0  0  0  0  0  0  0
  139.8100   70.5460  223.9680 C   0  0  0  0  0  0  0  0  0  0  0  0
  139.6650   73.6820  222.4300 N   0  0  0  0  0  0  0  0  0  0  0  0
  140.2430   74.7810  221.7460 C   0  0  0  0  0  0  0  0  0  0  0  0
  139.6570   76.0230  221.8920 C   0  0  0  0  0  0  0  0  0  0  0  0
  140.2190   77.0610  221.1850 C   0  0  0  0  0  0  0  0  0  0  0  0
  141.3220   76.8760  220.3620 C   0  0  0  0  0  0  0  0  0  0  0  0
  141.8280   78.0260  219.6230 C   0  0  0  0  0  0  0  0  0  0  0  0
  142.5260   77.9690  218.4530 C   0  0  0  0  0  0  0  0  0  0  0  0
  142.9450   79.1710  217.8750 C   0  0  0  0  0  0  0  0  0  0  0  0
  142.6730   80.3620  218.4440 N   0  0  0  0  0  0  0  0  0  0  0  0
  141.9870   80.4540  219.5990 C   0  0  0  0  0  0  0  0  0  0  0  0
  141.5670   79.2830  220.1830 C   0  0  0  0  0  0  0  0  0  0  0  0
  141.8770   75.6130  220.2490 C   0  0  0  0  0  0  0  0  0  0  0  0
  141.3380   74.5450  220.9460 C   0  0  0  0  0  0  0  0  0  0  0  0
  140.9085   71.2830  220.8285 H   0  0  0  0  0  0  0  0  0  0  0  0
  141.9911   71.5947  222.2386 H   0  0  0  0  0  0  0  0  0  0  0  0
  137.4294   72.2619  222.3085 H   0  0  0  0  0  0  0  0  0  0  0  0
  135.9513   70.6278  223.4158 H   0  0  0  0  0  0  0  0  0  0  0  0
  136.9784   68.9052  224.9103 H   0  0  0  0  0  0  0  0  0  0  0  0
  140.2251   71.0235  227.0559 H   0  0  0  0  0  0  0  0  0  0  0  0
  139.0953   70.4948  228.1469 H   0  0  0  0  0  0  0  0  0  0  0  0
  142.1067   69.5492  227.8225 H   0  0  0  0  0  0  0  0  0  0  0  0
  141.4589   69.6890  229.3214 H   0  0  0  0  0  0  0  0  0  0  0  0
  141.0010   67.2991  227.7297 H   0  0  0  0  0  0  0  0  0  0  0  0
  139.6873   67.6760  228.6613 H   0  0  0  0  0  0  0  0  0  0  0  0
  140.8982   70.5242  224.1274 H   0  0  0  0  0  0  0  0  0  0  0  0
  138.7829   76.1751  222.5423 H   0  0  0  0  0  0  0  0  0  0  0  0
  139.7819   78.0665  221.2743 H   0  0  0  0  0  0  0  0  0  0  0  0
  142.7532   77.0037  217.9770 H   0  0  0  0  0  0  0  0  0  0  0  0
  143.5109   79.1440  216.9321 H   0  0  0  0  0  0  0  0  0  0  0  0
  141.7708   81.4300  220.0580 H   0  0  0  0  0  0  0  0  0  0  0  0
  141.0041   79.3349  221.1267 H   0  0  0  0  0  0  0  0  0  0  0  0
  142.7521   75.4568  219.6011 H   0  0  0  0  0  0  0  0  0  0  0  0
  1  2  2  0
  2  3  1  0
  3  4  1  0
  4  5  1  0
  5  6  2  0
  6  7  1  0
  7  8  2  0
  8  9  1  0
  9 10  1  0
 10 11  2  0
 10 12  1  0
 12 13  1  0
 13 14  1  0
 14 15  1  0
  9 16  2  0
  4 17  2  0
 17 18  1  0
 18 19  2  0
 19 20  1  0
 20 21  2  0
 21 22  1  0
 22 23  2  0
 23 24  1  0
 24 25  2  0
 25 26  1  0
 26 27  2  0
 21 28  1  0
 28 29  2  0
 29  2  1  0
 16  5  1  0
 29 18  1  0
 15 12  1  0
 27 22  1  0
  3 30  1  0
  3 31  1  0
  6 32  1  0
  7 33  1  0
  8 34  1  0
 13 35  1  0
 13 36  1  0
 14 37  1  0
 14 38  1  0
 15 39  1  0
 15 40  1  0
 16 41  1  0
 19 42  1  0
 20 43  1  0
 23 44  1  0
 24 45  1  0
 26 46  1  0
 27 47  1  0
 28 48  1  0
M  END
>  <smiles>  (47) 
O=C1CC(c2cccc(C(=O)N3CCC3)c2)=Nc2ccc(-c3ccncc3)cc21

>  <score_type>  (47) 
oracle

>  <origin>  (47) 
autodockgpu

>  <m_score__min__energy>  (47) 
-8.6099999999999994

>  <m_primary>  (47) 
energy

>  <rmsd>  (47) 
6.517237813527444

>  <m_score__min__rmsd>  (47) 
6.517237813527444

>  <meeko>  (47) 
{"free_energy": -8.49, "intermolecular_energy": -9.39, "internal_energy": -0.93, "cluster_size": 50, "cluster_id": 1, "rank_in_cluster": 23}

>  <energy>  (47) 
-7.89

>  <cluster_rmsd>  (47) 
1.03

>  <cluster>  (47) 
1

$$$$

     RDKit          3D

 48 52  0  0  0  0  0  0  0  0999 V2000
  142.8500   73.0060  220.1610 O   0  0  0  0  0  0  0  0  0  0  0  0
  141.8320   73.2240  220.8910 C   0  0  0  0  0  0  0  0  0  0  0  0
  141.2360   72.0620  221.5940 C   0  0  0  0  0  0  0  0  0  0  0  0
  140.0740   72.4830  222.4030 C   0  0  0  0  0  0  0  0  0  0  0  0
  139.2530   71.5190  223.1700 C   0  0  0  0  0  0  0  0  0  0  0  0
  137.8750   71.5170  222.9880 C   0  0  0  0  0  0  0  0  0  0  0  0
  137.0450   70.6110  223.5950 C   0  0  0  0  0  0  0  0  0  0  0  0
  137.6200   69.6610  224.4200 C   0  0  0  0  0  0  0  0  0  0  0  0
  139.0070   69.6470  224.6150 C   0  0  0  0  0  0  0  0  0  0  0  0
  139.5020   68.5750  225.4730 C   0  0  0  0  0  0  0  0  0  0  0  0
  139.5820   67.3880  225.0730 O   0  0  0  0  0  0  0  0  0  0  0  0
  139.8940   68.9340  226.7940 N   0  0  0  0  0  0  0  0  0  0  0  0
  139.9770   70.1300  227.6190 C   0  0  0  0  0  0  0  0  0  0  0  0
  141.1390   69.4620  228.3240 C   0  0  0  0  0  0  0  0  0  0  0  0
  140.3830   68.1990  227.9780 C   0  0  0  0  0  0  0  0  0  0  0  0
  139.8140   70.5720  223.9950 C   0  0  0  0  0  0  0  0  0  0  0  0
  139.6650   73.7090  222.4650 N   0  0  0  0  0  0  0  0  0  0  0  0
  140.2410   74.8120  221.7850 C   0  0  0  0  0  0  0  0  0  0  0  0
  139.6540   76.0520  221.9370 C   0  0  0  0  0  0  0  0  0  0  0  0
  140.2140   77.0940  221.2330 C   0  0  0  0  0  0  0  0  0  0  0  0
  141.3160   76.9150  220.4090 C   0  0  0  0  0  0  0  0  0  0  0  0
  141.8200   78.0680  219.6740 C   0  0  0  0  0  0  0  0  0  0  0  0
  142.5190   78.0160  218.5050 C   0  0  0  0  0  0  0  0  0  0  0  0
  142.9360   79.2210  217.9310 C   0  0  0  0  0  0  0  0  0  0  0  0
  142.6620   80.4090  218.5050 N   0  0  0  0  0  0  0  0  0  0  0  0
  141.9750   80.4970  219.6600 C   0  0  0  0  0  0  0  0  0  0  0  0
  141.5570   79.3220  220.2390 C   0  0  0  0  0  0  0  0  0  0  0  0
  141.8730   75.6520  220.2910 C   0  0  0  0  0  0  0  0  0  0  0  0
  141.3360   74.5800  220.9830 C   0  0  0  0  0  0  0  0  0  0  0  0
  140.9093   71.3191  220.8515 H   0  0  0  0  0  0  0  0  0  0  0  0
  141.9932   71.6254  222.2618 H   0  0  0  0  0  0  0  0  0  0  0  0
  137.4310   72.2763  222.3275 H   0  0  0  0  0  0  0  0  0  0  0  0
  135.9575   70.6383  223.4316 H   0  0  0  0  0  0  0  0  0  0  0  0
  136.9870   68.9155  224.9236 H   0  0  0  0  0  0  0  0  0  0  0  0
  140.2355   71.0496  227.0735 H   0  0  0  0  0  0  0  0  0  0  0  0
  139.1083   70.5224  228.1679 H   0  0  0  0  0  0  0  0  0  0  0  0
  142.1195   69.5774  227.8389 H   0  0  0  0  0  0  0  0  0  0  0  0
  141.4751   69.7206  229.3390 H   0  0  0  0  0  0  0  0  0  0  0  0
  141.0148   67.3268  227.7542 H   0  0  0  0  0  0  0  0  0  0  0  0
  139.7033   67.7051  228.6880 H   0  0  0  0  0  0  0  0  0  0  0  0
  140.9017   70.5547  224.1579 H   0  0  0  0  0  0  0  0  0  0  0  0
  138.7808   76.2004  222.5893 H   0  0  0  0  0  0  0  0  0  0  0  0
  139.7749   78.0982  221.3264 H   0  0  0  0  0  0  0  0  0  0  0  0
  142.7487   77.0526  218.0263 H   0  0  0  0  0  0  0  0  0  0  0  0
  143.5016   79.1986  216.9878 H   0  0  0  0  0  0  0  0  0  0  0  0
  141.7568   81.4710  220.1222 H   0  0  0  0  0  0  0  0  0  0  0  0
  140.9940   79.3689  221.1829 H   0  0  0  0  0  0  0  0  0  0  0  0
  142.7485   75.4999  219.6426 H   0  0  0  0  0  0  0  0  0  0  0  0
  1  2  2  0
  2  3  1  0
  3  4  1  0
  4  5  1  0
  5  6  2  0
  6  7  1  0
  7  8  2  0
  8  9  1  0
  9 10  1  0
 10 11  2  0
 10 12  1  0
 12 13  1  0
 13 14  1  0
 14 15  1  0
  9 16  2  0
  4 17  2  0
 17 18  1  0
 18 19  2  0
 19 20  1  0
 20 21  2  0
 21 22  1  0
 22 23  2  0
 23 24  1  0
 24 25  2  0
 25 26  1  0
 26 27  2  0
 21 28  1  0
 28 29  2  0
 29  2  1  0
 16  5  1  0
 29 18  1  0
 15 12  1  0
 27 22  1  0
  3 30  1  0
  3 31  1  0
  6 32  1  0
  7 33  1  0
  8 34  1  0
 13 35  1  0
 13 36  1  0
 14 37  1  0
 14 38  1  0
 15 39  1  0
 15 40  1  0
 16 41  1  0
 19 42  1  0
 20 43  1  0
 23 44  1  0
 24 45  1  0
 26 46  1  0
 27 47  1  0
 28 48  1  0
M  END
>  <smiles>  (48) 
O=C1CC(c2cccc(C(=O)N3CCC3)c2)=Nc2ccc(-c3ccncc3)cc21

>  <score_type>  (48) 
oracle

>  <origin>  (48) 
autodockgpu

>  <m_score__min__energy>  (48) 
-8.6099999999999994

>  <m_primary>  (48) 
energy

>  <rmsd>  (48) 
6.517993853283065

>  <m_score__min__rmsd>  (48) 
6.517993853283065

>  <meeko>  (48) 
{"free_energy": -8.49, "intermolecular_energy": -9.39, "internal_energy": -0.93, "cluster_size": 50, "cluster_id": 1, "rank_in_cluster": 28}

>  <energy>  (48) 
-7.89

>  <cluster_rmsd>  (48) 
1.04

>  <cluster>  (48) 
1

$$$$

     RDKit          3D

 48 52  0  0  0  0  0  0  0  0999 V2000
  142.9440   73.0350  220.2390 O   0  0  0  0  0  0  0  0  0  0  0  0
  141.8860   73.2150  220.9200 C   0  0  0  0  0  0  0  0  0  0  0  0
  141.2960   72.0290  221.5880 C   0  0  0  0  0  0  0  0  0  0  0  0
  140.0820   72.4060  222.3420 C   0  0  0  0  0  0  0  0  0  0  0  0
  139.2580   71.4110  223.0640 C   0  0  0  0  0  0  0  0  0  0  0  0
  137.9190   71.2720  222.7200 C   0  0  0  0  0  0  0  0  0  0  0  0
  137.1010   70.3250  223.2780 C   0  0  0  0  0  0  0  0  0  0  0  0
  137.6480   69.4760  224.2230 C   0  0  0  0  0  0  0  0  0  0  0  0
  138.9970   69.6000  224.5820 C   0  0  0  0  0  0  0  0  0  0  0  0
  139.4710   68.6230  225.5580 C   0  0  0  0  0  0  0  0  0  0  0  0
  139.5400   67.3990  225.2920 O   0  0  0  0  0  0  0  0  0  0  0  0
  139.8550   69.1220  226.8350 N   0  0  0  0  0  0  0  0  0  0  0  0
  139.9470   70.4000  227.5250 C   0  0  0  0  0  0  0  0  0  0  0  0
  141.0940   69.8010  228.3100 C   0  0  0  0  0  0  0  0  0  0  0  0
  140.3250   68.5160  228.0970 C   0  0  0  0  0  0  0  0  0  0  0  0
  139.7920   70.5630  224.0070 C   0  0  0  0  0  0  0  0  0  0  0  0
  139.6300   73.6180  222.3900 N   0  0  0  0  0  0  0  0  0  0  0  0
  140.2020   74.7430  221.7440 C   0  0  0  0  0  0  0  0  0  0  0  0
  139.5670   75.9630  221.8730 C   0  0  0  0  0  0  0  0  0  0  0  0
  140.1250   77.0270  221.2030 C   0  0  0  0  0  0  0  0  0  0  0  0
  141.2710   76.8890  220.4320 C   0  0  0  0  0  0  0  0  0  0  0  0
  141.7710   78.0630  219.7280 C   0  0  0  0  0  0  0  0  0  0  0  0
  142.5160   78.0430  218.5860 C   0  0  0  0  0  0  0  0  0  0  0  0
  142.9210   79.2640  218.0400 C   0  0  0  0  0  0  0  0  0  0  0  0
  142.5920   80.4390  218.6130 N   0  0  0  0  0  0  0  0  0  0  0  0
  141.8580   80.4950  219.7420 C   0  0  0  0  0  0  0  0  0  0  0  0
  141.4510   79.3040  220.2930 C   0  0  0  0  0  0  0  0  0  0  0  0
  141.8740   75.6470  220.3340 C   0  0  0  0  0  0  0  0  0  0  0  0
  141.3410   74.5530  220.9940 C   0  0  0  0  0  0  0  0  0  0  0  0
  141.0308   71.2803  220.8270 H   0  0  0  0  0  0  0  0  0  0  0  0
  142.0343   71.6138  222.2898 H   0  0  0  0  0  0  0  0  0  0  0  0
  137.4968   71.9526  221.9660 H   0  0  0  0  0  0  0  0  0  0  0  0
  136.0442   70.2426  222.9841 H   0  0  0  0  0  0  0  0  0  0  0  0
  137.0233   68.7024  224.6934 H   0  0  0  0  0  0  0  0  0  0  0  0
  140.2216   71.2510  226.8844 H   0  0  0  0  0  0  0  0  0  0  0  0
  139.0788   70.8600  228.0195 H   0  0  0  0  0  0  0  0  0  0  0  0
  142.0800   69.8513  227.8249 H   0  0  0  0  0  0  0  0  0  0  0  0
  141.4246   70.1657  229.2937 H   0  0  0  0  0  0  0  0  0  0  0  0
  140.9478   67.6174  227.9762 H   0  0  0  0  0  0  0  0  0  0  0  0
  139.6333   68.1109  228.8502 H   0  0  0  0  0  0  0  0  0  0  0  0
  140.8485   70.6551  224.2990 H   0  0  0  0  0  0  0  0  0  0  0  0
  138.6585   76.0782  222.4824 H   0  0  0  0  0  0  0  0  0  0  0  0
  139.6493   78.0158  221.2805 H   0  0  0  0  0  0  0  0  0  0  0  0
  142.7908   77.0914  218.1075 H   0  0  0  0  0  0  0  0  0  0  0  0
  143.5234   79.2663  217.1196 H   0  0  0  0  0  0  0  0  0  0  0  0
  141.5948   81.4576  220.2047 H   0  0  0  0  0  0  0  0  0  0  0  0
  140.8502   79.3260  221.2142 H   0  0  0  0  0  0  0  0  0  0  0  0
  142.7837   75.5283  219.7270 H   0  0  0  0  0  0  0  0  0  0  0  0
  1  2  2  0
  2  3  1  0
  3  4  1  0
  4  5  1  0
  5  6  2  0
  6  7  1  0
  7  8  2  0
  8  9  1  0
  9 10  1  0
 10 11  2  0
 10 12  1  0
 12 13  1  0
 13 14  1  0
 14 15  1  0
  9 16  2  0
  4 17  2  0
 17 18  1  0
 18 19  2  0
 19 20  1  0
 20 21  2  0
 21 22  1  0
 22 23  2  0
 23 24  1  0
 24 25  2  0
 25 26  1  0
 26 27  2  0
 21 28  1  0
 28 29  2  0
 29  2  1  0
 16  5  1  0
 29 18  1  0
 15 12  1  0
 27 22  1  0
  3 30  1  0
  3 31  1  0
  6 32  1  0
  7 33  1  0
  8 34  1  0
 13 35  1  0
 13 36  1  0
 14 37  1  0
 14 38  1  0
 15 39  1  0
 15 40  1  0
 16 41  1  0
 19 42  1  0
 20 43  1  0
 23 44  1  0
 24 45  1  0
 26 46  1  0
 27 47  1  0
 28 48  1  0
M  END
>  <smiles>  (49) 
O=C1CC(c2cccc(C(=O)N3CCC3)c2)=Nc2ccc(-c3ccncc3)cc21

>  <score_type>  (49) 
oracle

>  <origin>  (49) 
autodockgpu

>  <m_score__min__energy>  (49) 
-8.6099999999999994

>  <m_primary>  (49) 
energy

>  <rmsd>  (49) 
6.451849123982665

>  <m_score__min__rmsd>  (49) 
6.451849123982665

>  <meeko>  (49) 
{"free_energy": -8.49, "intermolecular_energy": -9.39, "internal_energy": -0.94, "cluster_size": 50, "cluster_id": 1, "rank_in_cluster": 22}

>  <energy>  (49) 
-7.88

>  <cluster_rmsd>  (49) 
1.05

>  <cluster>  (49) 
1

$$$$

     RDKit          3D

 48 52  0  0  0  0  0  0  0  0999 V2000
  142.7330   73.0690  220.1300 O   0  0  0  0  0  0  0  0  0  0  0  0
  141.7440   73.2800  220.9010 C   0  0  0  0  0  0  0  0  0  0  0  0
  141.1520   72.1060  221.5860 C   0  0  0  0  0  0  0  0  0  0  0  0
  140.0240   72.5200  222.4460 C   0  0  0  0  0  0  0  0  0  0  0  0
  139.2130   71.5450  223.2090 C   0  0  0  0  0  0  0  0  0  0  0  0
  137.8330   71.5430  223.0420 C   0  0  0  0  0  0  0  0  0  0  0  0
  137.0100   70.6280  223.6450 C   0  0  0  0  0  0  0  0  0  0  0  0
  137.5950   69.6690  224.4530 C   0  0  0  0  0  0  0  0  0  0  0  0
  138.9850   69.6540  224.6320 C   0  0  0  0  0  0  0  0  0  0  0  0
  139.4890   68.5720  225.4720 C   0  0  0  0  0  0  0  0  0  0  0  0
  139.5690   67.3900  225.0550 O   0  0  0  0  0  0  0  0  0  0  0  0
  139.8920   68.9140  226.7940 N   0  0  0  0  0  0  0  0  0  0  0  0
  139.9800   70.1000  227.6350 C   0  0  0  0  0  0  0  0  0  0  0  0
  141.1490   69.4250  228.3200 C   0  0  0  0  0  0  0  0  0  0  0  0
  140.3930   68.1640  227.9630 C   0  0  0  0  0  0  0  0  0  0  0  0
  139.7840   70.5880  224.0170 C   0  0  0  0  0  0  0  0  0  0  0  0
  139.6390   73.7490  222.5610 N   0  0  0  0  0  0  0  0  0  0  0  0
  140.2120   74.8640  221.8970 C   0  0  0  0  0  0  0  0  0  0  0  0
  139.6510   76.1090  222.1080 C   0  0  0  0  0  0  0  0  0  0  0  0
  140.2060   77.1630  221.4200 C   0  0  0  0  0  0  0  0  0  0  0  0
  141.2770   76.9920  220.5540 C   0  0  0  0  0  0  0  0  0  0  0  0
  141.7770   78.1600  219.8390 C   0  0  0  0  0  0  0  0  0  0  0  0
  141.6500   79.4540  220.2510 C   0  0  0  0  0  0  0  0  0  0  0  0
  142.1830   80.4600  219.4410 C   0  0  0  0  0  0  0  0  0  0  0  0
  142.8100   80.1770  218.2820 N   0  0  0  0  0  0  0  0  0  0  0  0
  142.9530   78.9110  217.8450 C   0  0  0  0  0  0  0  0  0  0  0  0
  142.4340   77.9070  218.6280 C   0  0  0  0  0  0  0  0  0  0  0  0
  141.8070   75.7260  220.3770 C   0  0  0  0  0  0  0  0  0  0  0  0
  141.2750   74.6410  221.0520 C   0  0  0  0  0  0  0  0  0  0  0  0
  140.7886   71.3926  220.8317 H   0  0  0  0  0  0  0  0  0  0  0  0
  141.9230   71.6358  222.2141 H   0  0  0  0  0  0  0  0  0  0  0  0
  137.3811   72.3106  222.3966 H   0  0  0  0  0  0  0  0  0  0  0  0
  135.9210   70.6550  223.4918 H   0  0  0  0  0  0  0  0  0  0  0  0
  136.9683   68.9175  224.9555 H   0  0  0  0  0  0  0  0  0  0  0  0
  140.2318   71.0274  227.0997 H   0  0  0  0  0  0  0  0  0  0  0  0
  139.1155   70.4833  228.1969 H   0  0  0  0  0  0  0  0  0  0  0  0
  142.1249   69.5497  227.8281 H   0  0  0  0  0  0  0  0  0  0  0  0
  141.4930   69.6702  229.3356 H   0  0  0  0  0  0  0  0  0  0  0  0
  141.0252   67.2968  227.7216 H   0  0  0  0  0  0  0  0  0  0  0  0
  139.7209   67.6583  228.6719 H   0  0  0  0  0  0  0  0  0  0  0  0
  140.8732   70.5709  224.1696 H   0  0  0  0  0  0  0  0  0  0  0  0
  138.8019   76.2504  222.7928 H   0  0  0  0  0  0  0  0  0  0  0  0
  139.7887   78.1710  221.5603 H   0  0  0  0  0  0  0  0  0  0  0  0
  141.1418   79.6989  221.1953 H   0  0  0  0  0  0  0  0  0  0  0  0
  142.0885   81.5093  219.7572 H   0  0  0  0  0  0  0  0  0  0  0  0
  143.4656   78.6887  216.8975 H   0  0  0  0  0  0  0  0  0  0  0  0
  142.5387   76.8653  218.2906 H   0  0  0  0  0  0  0  0  0  0  0  0
  142.6575   75.5808  219.6947 H   0  0  0  0  0  0  0  0  0  0  0  0
  1  2  2  0
  2  3  1  0
  3  4  1  0
  4  5  1  0
  5  6  2  0
  6  7  1  0
  7  8  2  0
  8  9  1  0
  9 10  1  0
 10 11  2  0
 10 12  1  0
 12 13  1  0
 13 14  1  0
 14 15  1  0
  9 16  2  0
  4 17  2  0
 17 18  1  0
 18 19  2  0
 19 20  1  0
 20 21  2  0
 21 22  1  0
 22 23  2  0
 23 24  1  0
 24 25  2  0
 25 26  1  0
 26 27  2  0
 21 28  1  0
 28 29  2  0
 29  2  1  0
 16  5  1  0
 29 18  1  0
 15 12  1  0
 27 22  1  0
  3 30  1  0
  3 31  1  0
  6 32  1  0
  7 33  1  0
  8 34  1  0
 13 35  1  0
 13 36  1  0
 14 37  1  0
 14 38  1  0
 15 39  1  0
 15 40  1  0
 16 41  1  0
 19 42  1  0
 20 43  1  0
 23 44  1  0
 24 45  1  0
 26 46  1  0
 27 47  1  0
 28 48  1  0
M  END
>  <smiles>  (50) 
O=C1CC(c2cccc(C(=O)N3CCC3)c2)=Nc2ccc(-c3ccncc3)cc21

>  <score_type>  (50) 
oracle

>  <origin>  (50) 
autodockgpu

>  <m_score__min__energy>  (50) 
-8.6099999999999994

>  <m_primary>  (50) 
energy

>  <rmsd>  (50) 
6.520978740776239

>  <m_score__min__rmsd>  (50) 
6.520978740776239

>  <meeko>  (50) 
{"free_energy": -8.43, "intermolecular_energy": -9.32, "internal_energy": -0.94, "cluster_size": 50, "cluster_id": 1, "rank_in_cluster": 40}

>  <energy>  (50) 
-7.69

>  <cluster_rmsd>  (50) 
1.15

>  <cluster>  (50) 
1

$$$$
