
     RDKit          3D

 49 53  0  0  0  0  0  0  0  0999 V2000
  140.6010   68.1610  228.8690 C   0  0  0  0  0  0  0  0  0  0  0  0
  140.6310   69.2140  227.8270 C   0  0  0  0  0  0  0  0  0  0  0  0
  141.0630   70.4840  228.1830 C   0  0  0  0  0  0  0  0  0  0  0  0
  141.1150   71.4970  227.2780 C   0  0  0  0  0  0  0  0  0  0  0  0
  140.7280   71.2510  225.9770 C   0  0  0  0  0  0  0  0  0  0  0  0
  140.3020   70.0000  225.6250 C   0  0  0  0  0  0  0  0  0  0  0  0
  140.2380   68.9600  226.5110 C   0  0  0  0  0  0  0  0  0  0  0  0
  139.9560   70.0350  224.1810 C   0  0  0  0  0  0  0  0  0  0  0  0
  140.2400   71.4220  223.8060 C   0  0  0  0  0  0  0  0  0  0  0  0
  140.0790   72.0150  222.4940 C   0  0  0  0  0  0  0  0  0  0  0  0
  139.8130   71.2220  221.3960 C   0  0  0  0  0  0  0  0  0  0  0  0
  139.6630   71.8150  220.1400 C   0  0  0  0  0  0  0  0  0  0  0  0
  139.7840   73.1930  220.0180 C   0  0  0  0  0  0  0  0  0  0  0  0
  140.0500   73.9900  221.1120 C   0  0  0  0  0  0  0  0  0  0  0  0
  140.1860   75.4390  221.0330 C   0  0  0  0  0  0  0  0  0  0  0  0
  139.3980   76.1360  220.3220 O   0  0  0  0  0  0  0  0  0  0  0  0
  141.1920   76.1650  221.7330 N   0  0  0  0  0  0  0  0  0  0  0  0
  141.3000   77.5990  221.6350 C   0  0  0  0  0  0  0  0  0  0  0  0
  141.3610   78.2700  222.8440 C   0  0  0  0  0  0  0  0  0  0  0  0
  141.4650   79.6520  222.8620 C   0  0  0  0  0  0  0  0  0  0  0  0
  141.5030   80.2800  221.6350 C   0  0  0  0  0  0  0  0  0  0  0  0
  141.6150   81.7640  221.5840 C   0  0  0  0  0  0  0  0  0  0  0  0
  140.3400   82.5980  221.5800 C   0  0  0  0  0  0  0  0  0  0  0  0
  141.0950   82.4300  220.3150 C   0  0  0  0  0  0  0  0  0  0  0  0
  141.4390   79.5710  220.4580 C   0  0  0  0  0  0  0  0  0  0  0  0
  141.3380   78.2290  220.4450 N   0  0  0  0  0  0  0  0  0  0  0  0
  140.1910   73.3790  222.3240 C   0  0  0  0  0  0  0  0  0  0  0  0
  140.6740   72.0850  224.8390 N   0  0  0  0  0  0  0  0  0  0  0  0
  140.6143   68.6295  229.8642 H   0  0  0  0  0  0  0  0  0  0  0  0
  139.6854   67.5615  228.7582 H   0  0  0  0  0  0  0  0  0  0  0  0
  141.4810   67.5103  228.7582 H   0  0  0  0  0  0  0  0  0  0  0  0
  141.3705   70.6753  229.2217 H   0  0  0  0  0  0  0  0  0  0  0  0
  141.4603   72.4973  227.5784 H   0  0  0  0  0  0  0  0  0  0  0  0
  139.8910   67.9637  226.1997 H   0  0  0  0  0  0  0  0  0  0  0  0
  140.5814   69.3348  223.6078 H   0  0  0  0  0  0  0  0  0  0  0  0
  138.9173   69.7356  223.9774 H   0  0  0  0  0  0  0  0  0  0  0  0
  139.7199   70.1318  221.5090 H   0  0  0  0  0  0  0  0  0  0  0  0
  139.4510   71.1960  219.2557 H   0  0  0  0  0  0  0  0  0  0  0  0
  139.6653   73.6586  219.0285 H   0  0  0  0  0  0  0  0  0  0  0  0
  141.8750   75.6600  222.3380 H   0  0  0  0  0  0  0  0  0  0  0  0
  141.3270   77.7076  223.7887 H   0  0  0  0  0  0  0  0  0  0  0  0
  141.5145   80.2173  223.8043 H   0  0  0  0  0  0  0  0  0  0  0  0
  142.5419   81.7731  222.1763 H   0  0  0  0  0  0  0  0  0  0  0  0
  139.3639   82.1063  221.7043 H   0  0  0  0  0  0  0  0  0  0  0  0
  139.9815   83.4636  222.1563 H   0  0  0  0  0  0  0  0  0  0  0  0
  140.6767   81.8141  219.5053 H   0  0  0  0  0  0  0  0  0  0  0  0
  141.5234   83.1202  219.5733 H   0  0  0  0  0  0  0  0  0  0  0  0
  141.4712   80.1150  219.5025 H   0  0  0  0  0  0  0  0  0  0  0  0
  140.4035   74.0024  223.2050 H   0  0  0  0  0  0  0  0  0  0  0  0
  1  2  1  0
  2  3  2  0
  3  4  1  0
  4  5  2  0
  5  6  1  0
  6  7  2  0
  6  8  1  0
  8  9  1  0
  9 10  1  0
 10 11  2  0
 11 12  1  0
 12 13  2  0
 13 14  1  0
 14 15  1  0
 15 16  2  0
 15 17  1  0
 17 18  1  0
 18 19  2  0
 19 20  1  0
 20 21  2  0
 21 22  1  0
 22 23  1  0
 23 24  1  0
 21 25  1  0
 25 26  2  0
 14 27  2  0
  9 28  2  0
  7  2  1  0
 27 10  1  0
 28  5  1  0
 26 18  1  0
 24 22  1  0
  1 29  1  0
  1 30  1  0
  1 31  1  0
  3 32  1  0
  4 33  1  0
  7 34  1  0
  8 35  1  0
  8 36  1  0
 11 37  1  0
 12 38  1  0
 13 39  1  0
 17 40  1  0
 19 41  1  0
 20 42  1  0
 22 43  1  0
 23 44  1  0
 23 45  1  0
 24 46  1  0
 24 47  1  0
 25 48  1  0
 27 49  1  0
M  END
>  <smiles>  (1) 
Cc1ccc2c(c1)CC(c1cccc(C(=O)Nc3ccc(C4CC4)cn3)c1)=N2

>  <score_type>  (1) 
oracle

>  <origin>  (1) 
autodockgpu

>  <m_score__min__energy>  (1) 
-8.5800000000000001

>  <m_primary>  (1) 
energy

>  <rmsd>  (1) 
7.083760585461859

>  <m_score__min__rmsd>  (1) 
7.083760585461859

>  <meeko>  (1) 
{"free_energy": -8.4, "intermolecular_energy": -9.59, "internal_energy": -0.73, "cluster_size": 50, "cluster_id": 1, "rank_in_cluster": 46}

>  <energy>  (1) 
-8.58

>  <cluster_rmsd>  (1) 
0.0

>  <cluster>  (1) 
1

$$$$

     RDKit          3D

 49 53  0  0  0  0  0  0  0  0999 V2000
  141.0920   68.1760  228.9660 C   0  0  0  0  0  0  0  0  0  0  0  0
  140.6600   68.5360  227.5960 C   0  0  0  0  0  0  0  0  0  0  0  0
  139.9260   67.6100  226.8690 C   0  0  0  0  0  0  0  0  0  0  0  0
  139.4980   67.8750  225.6060 C   0  0  0  0  0  0  0  0  0  0  0  0
  139.8040   69.0950  225.0390 C   0  0  0  0  0  0  0  0  0  0  0  0
  140.5290   70.0090  225.7540 C   0  0  0  0  0  0  0  0  0  0  0  0
  140.9740   69.7730  227.0260 C   0  0  0  0  0  0  0  0  0  0  0  0
  140.7030   71.2100  224.8990 C   0  0  0  0  0  0  0  0  0  0  0  0
  140.0010   70.8440  223.6660 C   0  0  0  0  0  0  0  0  0  0  0  0
  139.8540   71.6600  222.4790 C   0  0  0  0  0  0  0  0  0  0  0  0
  139.6230   71.0730  221.2510 C   0  0  0  0  0  0  0  0  0  0  0  0
  139.4850   71.8790  220.1190 C   0  0  0  0  0  0  0  0  0  0  0  0
  139.5820   73.2590  220.2480 C   0  0  0  0  0  0  0  0  0  0  0  0
  139.8130   73.8500  221.4720 C   0  0  0  0  0  0  0  0  0  0  0  0
  139.9230   75.2920  221.6580 C   0  0  0  0  0  0  0  0  0  0  0  0
  138.8970   76.0390  221.6240 O   0  0  0  0  0  0  0  0  0  0  0  0
  141.1640   75.9540  221.8840 N   0  0  0  0  0  0  0  0  0  0  0  0
  141.2380   77.3820  222.0640 C   0  0  0  0  0  0  0  0  0  0  0  0
  141.4550   78.1120  220.9070 C   0  0  0  0  0  0  0  0  0  0  0  0
  141.5430   79.4930  220.9690 C   0  0  0  0  0  0  0  0  0  0  0  0
  141.4040   80.0610  222.2180 C   0  0  0  0  0  0  0  0  0  0  0  0
  141.4890   81.5430  222.3540 C   0  0  0  0  0  0  0  0  0  0  0  0
  140.2800   82.3860  221.9690 C   0  0  0  0  0  0  0  0  0  0  0  0
  141.4450   82.3370  221.0540 C   0  0  0  0  0  0  0  0  0  0  0  0
  141.1900   79.2960  223.3410 C   0  0  0  0  0  0  0  0  0  0  0  0
  141.1050   77.9550  223.2760 N   0  0  0  0  0  0  0  0  0  0  0  0
  139.9430   73.0340  222.5580 C   0  0  0  0  0  0  0  0  0  0  0  0
  139.5040   69.6450  223.7730 N   0  0  0  0  0  0  0  0  0  0  0  0
  140.4619   68.7011  229.6990 H   0  0  0  0  0  0  0  0  0  0  0  0
  140.9925   67.0898  229.1083 H   0  0  0  0  0  0  0  0  0  0  0  0
  142.1425   68.4697  229.1083 H   0  0  0  0  0  0  0  0  0  0  0  0
  139.6846   66.6386  227.3251 H   0  0  0  0  0  0  0  0  0  0  0  0
  138.9168   67.1283  225.0450 H   0  0  0  0  0  0  0  0  0  0  0  0
  141.5554   70.5263  227.5778 H   0  0  0  0  0  0  0  0  0  0  0  0
  140.2471   72.0960  225.3650 H   0  0  0  0  0  0  0  0  0  0  0  0
  141.7579   71.4744  224.7340 H   0  0  0  0  0  0  0  0  0  0  0  0
  139.5482   69.9789  221.1649 H   0  0  0  0  0  0  0  0  0  0  0  0
  139.3011   71.4254  219.1339 H   0  0  0  0  0  0  0  0  0  0  0  0
  139.4723   73.8928  219.3556 H   0  0  0  0  0  0  0  0  0  0  0  0
  142.0480   75.4050  221.9250 H   0  0  0  0  0  0  0  0  0  0  0  0
  141.5572   77.5961  219.9409 H   0  0  0  0  0  0  0  0  0  0  0  0
  141.7145   80.1038  220.0704 H   0  0  0  0  0  0  0  0  0  0  0  0
  142.1394   81.4837  223.2392 H   0  0  0  0  0  0  0  0  0  0  0  0
  139.3384   81.8943  221.6832 H   0  0  0  0  0  0  0  0  0  0  0  0
  139.7145   83.1936  222.4569 H   0  0  0  0  0  0  0  0  0  0  0  0
  141.3642   81.8090  220.0924 H   0  0  0  0  0  0  0  0  0  0  0  0
  142.0940   83.0932  220.5882 H   0  0  0  0  0  0  0  0  0  0  0  0
  141.0858   79.7932  224.3167 H   0  0  0  0  0  0  0  0  0  0  0  0
  140.1270   73.4928  223.5407 H   0  0  0  0  0  0  0  0  0  0  0  0
  1  2  1  0
  2  3  2  0
  3  4  1  0
  4  5  2  0
  5  6  1  0
  6  7  2  0
  6  8  1  0
  8  9  1  0
  9 10  1  0
 10 11  2  0
 11 12  1  0
 12 13  2  0
 13 14  1  0
 14 15  1  0
 15 16  2  0
 15 17  1  0
 17 18  1  0
 18 19  2  0
 19 20  1  0
 20 21  2  0
 21 22  1  0
 22 23  1  0
 23 24  1  0
 21 25  1  0
 25 26  2  0
 14 27  2  0
  9 28  2  0
  7  2  1  0
 27 10  1  0
 28  5  1  0
 26 18  1  0
 24 22  1  0
  1 29  1  0
  1 30  1  0
  1 31  1  0
  3 32  1  0
  4 33  1  0
  7 34  1  0
  8 35  1  0
  8 36  1  0
 11 37  1  0
 12 38  1  0
 13 39  1  0
 17 40  1  0
 19 41  1  0
 20 42  1  0
 22 43  1  0
 23 44  1  0
 23 45  1  0
 24 46  1  0
 24 47  1  0
 25 48  1  0
 27 49  1  0
M  END
>  <smiles>  (2) 
Cc1ccc2c(c1)CC(c1cccc(C(=O)Nc3ccc(C4CC4)cn3)c1)=N2

>  <score_type>  (2) 
oracle

>  <origin>  (2) 
autodockgpu

>  <m_score__min__energy>  (2) 
-8.5800000000000001

>  <m_primary>  (2) 
energy

>  <rmsd>  (2) 
7.154258541159472

>  <m_score__min__rmsd>  (2) 
7.154258541159472

>  <meeko>  (2) 
{"free_energy": -8.48, "intermolecular_energy": -9.68, "internal_energy": -0.76, "cluster_size": 50, "cluster_id": 1, "rank_in_cluster": 28}

>  <energy>  (2) 
-8.57

>  <cluster_rmsd>  (2) 
0.06

>  <cluster>  (2) 
1

$$$$

     RDKit          3D

 49 53  0  0  0  0  0  0  0  0999 V2000
  140.9200   68.1400  229.0440 C   0  0  0  0  0  0  0  0  0  0  0  0
  140.5600   68.5400  227.6630 C   0  0  0  0  0  0  0  0  0  0  0  0
  139.6800   67.7390  226.9500 C   0  0  0  0  0  0  0  0  0  0  0  0
  139.3080   68.0470  225.6790 C   0  0  0  0  0  0  0  0  0  0  0  0
  139.8210   69.1850  225.0900 C   0  0  0  0  0  0  0  0  0  0  0  0
  140.6890   69.9750  225.7920 C   0  0  0  0  0  0  0  0  0  0  0  0
  141.0830   69.6920  227.0720 C   0  0  0  0  0  0  0  0  0  0  0  0
  141.0690   71.1110  224.9140 C   0  0  0  0  0  0  0  0  0  0  0  0
  140.3190   70.8450  223.6840 C   0  0  0  0  0  0  0  0  0  0  0  0
  140.3180   71.6480  222.4800 C   0  0  0  0  0  0  0  0  0  0  0  0
  140.3960   71.0490  221.2390 C   0  0  0  0  0  0  0  0  0  0  0  0
  140.3940   71.8450  220.0900 C   0  0  0  0  0  0  0  0  0  0  0  0
  140.3130   73.2250  220.2170 C   0  0  0  0  0  0  0  0  0  0  0  0
  140.2350   73.8290  221.4550 C   0  0  0  0  0  0  0  0  0  0  0  0
  140.1480   75.2730  221.6380 C   0  0  0  0  0  0  0  0  0  0  0  0
  139.0290   75.8490  221.7970 O   0  0  0  0  0  0  0  0  0  0  0  0
  141.2900   76.1240  221.6510 N   0  0  0  0  0  0  0  0  0  0  0  0
  141.1710   77.5490  221.8360 C   0  0  0  0  0  0  0  0  0  0  0  0
  141.3560   77.9930  223.1340 C   0  0  0  0  0  0  0  0  0  0  0  0
  141.2620   79.3460  223.4200 C   0  0  0  0  0  0  0  0  0  0  0  0
  140.9840   80.1800  222.3580 C   0  0  0  0  0  0  0  0  0  0  0  0
  140.8700   81.6460  222.5970 C   0  0  0  0  0  0  0  0  0  0  0  0
  139.9790   82.4730  221.6800 C   0  0  0  0  0  0  0  0  0  0  0  0
  141.4500   82.5470  221.5130 C   0  0  0  0  0  0  0  0  0  0  0  0
  140.8070   79.6930  221.0830 C   0  0  0  0  0  0  0  0  0  0  0  0
  140.8990   78.3780  220.8100 N   0  0  0  0  0  0  0  0  0  0  0  0
  140.2390   73.0240  222.5560 C   0  0  0  0  0  0  0  0  0  0  0  0
  139.6240   69.7510  223.8120 N   0  0  0  0  0  0  0  0  0  0  0  0
  140.3626   68.7593  229.7622 H   0  0  0  0  0  0  0  0  0  0  0  0
  140.6647   67.0811  229.1974 H   0  0  0  0  0  0  0  0  0  0  0  0
  141.9999   68.2827  229.1974 H   0  0  0  0  0  0  0  0  0  0  0  0
  139.2736   66.8334  227.4240 H   0  0  0  0  0  0  0  0  0  0  0  0
  138.6093   67.3995  225.1289 H   0  0  0  0  0  0  0  0  0  0  0  0
  141.7831   70.3455  227.6131 H   0  0  0  0  0  0  0  0  0  0  0  0
  140.7699   72.0714  225.3591 H   0  0  0  0  0  0  0  0  0  0  0  0
  142.1542   71.1875  224.7510 H   0  0  0  0  0  0  0  0  0  0  0  0
  140.4592   69.9541  221.1548 H   0  0  0  0  0  0  0  0  0  0  0  0
  140.4560   71.3821  219.0941 H   0  0  0  0  0  0  0  0  0  0  0  0
  140.3110   73.8499  219.3118 H   0  0  0  0  0  0  0  0  0  0  0  0
  142.2430   75.7210  221.5280 H   0  0  0  0  0  0  0  0  0  0  0  0
  141.5771   77.2739  223.9365 H   0  0  0  0  0  0  0  0  0  0  0  0
  141.4017   79.7336  224.4399 H   0  0  0  0  0  0  0  0  0  0  0  0
  140.9647   81.5349  223.6873 H   0  0  0  0  0  0  0  0  0  0  0  0
  139.3658   81.9729  220.9158 H   0  0  0  0  0  0  0  0  0  0  0  0
  139.1818   83.2137  221.8403 H   0  0  0  0  0  0  0  0  0  0  0  0
  141.9236   82.1013  220.6258 H   0  0  0  0  0  0  0  0  0  0  0  0
  142.1861   83.3643  221.4995 H   0  0  0  0  0  0  0  0  0  0  0  0
  140.5848   80.3959  220.2666 H   0  0  0  0  0  0  0  0  0  0  0  0
  140.1765   73.4924  223.5493 H   0  0  0  0  0  0  0  0  0  0  0  0
  1  2  1  0
  2  3  2  0
  3  4  1  0
  4  5  2  0
  5  6  1  0
  6  7  2  0
  6  8  1  0
  8  9  1  0
  9 10  1  0
 10 11  2  0
 11 12  1  0
 12 13  2  0
 13 14  1  0
 14 15  1  0
 15 16  2  0
 15 17  1  0
 17 18  1  0
 18 19  2  0
 19 20  1  0
 20 21  2  0
 21 22  1  0
 22 23  1  0
 23 24  1  0
 21 25  1  0
 25 26  2  0
 14 27  2  0
  9 28  2  0
  7  2  1  0
 27 10  1  0
 28  5  1  0
 26 18  1  0
 24 22  1  0
  1 29  1  0
  1 30  1  0
  1 31  1  0
  3 32  1  0
  4 33  1  0
  7 34  1  0
  8 35  1  0
  8 36  1  0
 11 37  1  0
 12 38  1  0
 13 39  1  0
 17 40  1  0
 19 41  1  0
 20 42  1  0
 22 43  1  0
 23 44  1  0
 23 45  1  0
 24 46  1  0
 24 47  1  0
 25 48  1  0
 27 49  1  0
M  END
>  <smiles>  (3) 
Cc1ccc2c(c1)CC(c1cccc(C(=O)Nc3ccc(C4CC4)cn3)c1)=N2

>  <score_type>  (3) 
oracle

>  <origin>  (3) 
autodockgpu

>  <m_score__min__energy>  (3) 
-8.5800000000000001

>  <m_primary>  (3) 
energy

>  <rmsd>  (3) 
7.285177730185283

>  <m_score__min__rmsd>  (3) 
7.285177730185283

>  <meeko>  (3) 
{"free_energy": -8.39, "intermolecular_energy": -9.58, "internal_energy": -0.76, "cluster_size": 50, "cluster_id": 1, "rank_in_cluster": 47}

>  <energy>  (3) 
-8.56

>  <cluster_rmsd>  (3) 
0.13

>  <cluster>  (3) 
1

$$$$

     RDKit          3D

 49 53  0  0  0  0  0  0  0  0999 V2000
  141.0340   68.1050  229.0360 C   0  0  0  0  0  0  0  0  0  0  0  0
  140.6290   68.5010  227.6670 C   0  0  0  0  0  0  0  0  0  0  0  0
  139.7700   67.6680  226.9640 C   0  0  0  0  0  0  0  0  0  0  0  0
  139.3590   67.9710  225.7040 C   0  0  0  0  0  0  0  0  0  0  0  0
  139.8090   69.1350  225.1160 C   0  0  0  0  0  0  0  0  0  0  0  0
  140.6560   69.9570  225.8080 C   0  0  0  0  0  0  0  0  0  0  0  0
  141.0890   69.6810  227.0760 C   0  0  0  0  0  0  0  0  0  0  0  0
  140.9680   71.1160  224.9340 C   0  0  0  0  0  0  0  0  0  0  0  0
  140.2050   70.8280  223.7170 C   0  0  0  0  0  0  0  0  0  0  0  0
  140.1430   71.6420  222.5200 C   0  0  0  0  0  0  0  0  0  0  0  0
  140.0930   71.0510  221.2740 C   0  0  0  0  0  0  0  0  0  0  0  0
  140.0350   71.8560  220.1330 C   0  0  0  0  0  0  0  0  0  0  0  0
  140.0280   73.2380  220.2740 C   0  0  0  0  0  0  0  0  0  0  0  0
  140.0780   73.8330  221.5170 C   0  0  0  0  0  0  0  0  0  0  0  0
  140.0740   75.2780  221.7140 C   0  0  0  0  0  0  0  0  0  0  0  0
  138.9890   75.9140  221.8850 O   0  0  0  0  0  0  0  0  0  0  0  0
  141.2610   76.0640  221.7280 N   0  0  0  0  0  0  0  0  0  0  0  0
  141.2230   77.4910  221.9260 C   0  0  0  0  0  0  0  0  0  0  0  0
  141.6670   78.2470  220.8550 C   0  0  0  0  0  0  0  0  0  0  0  0
  141.6720   79.6300  220.9410 C   0  0  0  0  0  0  0  0  0  0  0  0
  141.2180   80.1720  222.1250 C   0  0  0  0  0  0  0  0  0  0  0  0
  141.1960   81.6540  222.2830 C   0  0  0  0  0  0  0  0  0  0  0  0
  140.0900   82.4490  221.6010 C   0  0  0  0  0  0  0  0  0  0  0  0
  141.4530   82.4640  221.0180 C   0  0  0  0  0  0  0  0  0  0  0  0
  140.7850   79.3810  223.1640 C   0  0  0  0  0  0  0  0  0  0  0  0
  140.7830   78.0380  223.0760 N   0  0  0  0  0  0  0  0  0  0  0  0
  140.1350   73.0190  222.6100 C   0  0  0  0  0  0  0  0  0  0  0  0
  139.5610   69.7040  223.8480 N   0  0  0  0  0  0  0  0  0  0  0  0
  140.4490   68.6770  229.7713 H   0  0  0  0  0  0  0  0  0  0  0  0
  140.8489   67.0298  229.1766 H   0  0  0  0  0  0  0  0  0  0  0  0
  142.1047   68.3142  229.1766 H   0  0  0  0  0  0  0  0  0  0  0  0
  139.4135   66.7412  227.4372 H   0  0  0  0  0  0  0  0  0  0  0  0
  138.6781   67.2984  225.1617 H   0  0  0  0  0  0  0  0  0  0  0  0
  141.7712   70.3599  227.6086 H   0  0  0  0  0  0  0  0  0  0  0  0
  140.6365   72.0585  225.3943 H   0  0  0  0  0  0  0  0  0  0  0  0
  142.0452   71.2416  224.7499 H   0  0  0  0  0  0  0  0  0  0  0  0
  140.0987   69.9551  221.1796 H   0  0  0  0  0  0  0  0  0  0  0  0
  139.9953   71.3997  219.1329 H   0  0  0  0  0  0  0  0  0  0  0  0
  139.9816   73.8708  219.3755 H   0  0  0  0  0  0  0  0  0  0  0  0
  142.1900   75.6100  221.5950 H   0  0  0  0  0  0  0  0  0  0  0  0
  142.0153   77.7508  219.9371 H   0  0  0  0  0  0  0  0  0  0  0  0
  142.0193   80.2613  220.1099 H   0  0  0  0  0  0  0  0  0  0  0  0
  141.5973   81.6103  223.3063 H   0  0  0  0  0  0  0  0  0  0  0  0
  139.2776   81.9210  221.0802 H   0  0  0  0  0  0  0  0  0  0  0  0
  139.3813   83.2240  221.9284 H   0  0  0  0  0  0  0  0  0  0  0  0
  141.6474   81.9470  220.0668 H   0  0  0  0  0  0  0  0  0  0  0  0
  142.1649   83.2544  220.7379 H   0  0  0  0  0  0  0  0  0  0  0  0
  140.4315   79.8582  224.0899 H   0  0  0  0  0  0  0  0  0  0  0  0
  140.1764   73.4807  223.6075 H   0  0  0  0  0  0  0  0  0  0  0  0
  1  2  1  0
  2  3  2  0
  3  4  1  0
  4  5  2  0
  5  6  1  0
  6  7  2  0
  6  8  1  0
  8  9  1  0
  9 10  1  0
 10 11  2  0
 11 12  1  0
 12 13  2  0
 13 14  1  0
 14 15  1  0
 15 16  2  0
 15 17  1  0
 17 18  1  0
 18 19  2  0
 19 20  1  0
 20 21  2  0
 21 22  1  0
 22 23  1  0
 23 24  1  0
 21 25  1  0
 25 26  2  0
 14 27  2  0
  9 28  2  0
  7  2  1  0
 27 10  1  0
 28  5  1  0
 26 18  1  0
 24 22  1  0
  1 29  1  0
  1 30  1  0
  1 31  1  0
  3 32  1  0
  4 33  1  0
  7 34  1  0
  8 35  1  0
  8 36  1  0
 11 37  1  0
 12 38  1  0
 13 39  1  0
 17 40  1  0
 19 41  1  0
 20 42  1  0
 22 43  1  0
 23 44  1  0
 23 45  1  0
 24 46  1  0
 24 47  1  0
 25 48  1  0
 27 49  1  0
M  END
>  <smiles>  (4) 
Cc1ccc2c(c1)CC(c1cccc(C(=O)Nc3ccc(C4CC4)cn3)c1)=N2

>  <score_type>  (4) 
oracle

>  <origin>  (4) 
autodockgpu

>  <m_score__min__energy>  (4) 
-8.5800000000000001

>  <m_primary>  (4) 
energy

>  <rmsd>  (4) 
7.16354857978448

>  <m_score__min__rmsd>  (4) 
7.16354857978448

>  <meeko>  (4) 
{"free_energy": -8.46, "intermolecular_energy": -9.66, "internal_energy": -0.73, "cluster_size": 50, "cluster_id": 1, "rank_in_cluster": 37}

>  <energy>  (4) 
-8.56

>  <cluster_rmsd>  (4) 
0.14

>  <cluster>  (4) 
1

$$$$

     RDKit          3D

 49 53  0  0  0  0  0  0  0  0999 V2000
  141.1220   68.0980  229.0360 C   0  0  0  0  0  0  0  0  0  0  0  0
  140.7010   68.4690  227.6650 C   0  0  0  0  0  0  0  0  0  0  0  0
  139.9700   67.5490  226.9260 C   0  0  0  0  0  0  0  0  0  0  0  0
  139.5520   67.8240  225.6610 C   0  0  0  0  0  0  0  0  0  0  0  0
  139.8640   69.0490  225.1060 C   0  0  0  0  0  0  0  0  0  0  0  0
  140.5830   69.9560  225.8340 C   0  0  0  0  0  0  0  0  0  0  0  0
  141.0190   69.7100  227.1070 C   0  0  0  0  0  0  0  0  0  0  0  0
  140.7640   71.1640  224.9890 C   0  0  0  0  0  0  0  0  0  0  0  0
  140.0720   70.8080  223.7480 C   0  0  0  0  0  0  0  0  0  0  0  0
  139.9340   71.6320  222.5660 C   0  0  0  0  0  0  0  0  0  0  0  0
  139.7520   71.0530  221.3270 C   0  0  0  0  0  0  0  0  0  0  0  0
  139.6220   71.8680  220.1990 C   0  0  0  0  0  0  0  0  0  0  0  0
  139.6780   73.2480  220.3460 C   0  0  0  0  0  0  0  0  0  0  0  0
  139.8600   73.8320  221.5820 C   0  0  0  0  0  0  0  0  0  0  0  0
  139.9250   75.2740  221.7860 C   0  0  0  0  0  0  0  0  0  0  0  0
  138.8760   75.9890  221.7690 O   0  0  0  0  0  0  0  0  0  0  0  0
  141.1450   75.9730  222.0140 N   0  0  0  0  0  0  0  0  0  0  0  0
  141.1760   77.4000  222.2120 C   0  0  0  0  0  0  0  0  0  0  0  0
  140.8990   78.1580  221.0860 C   0  0  0  0  0  0  0  0  0  0  0  0
  140.9030   79.5410  221.1670 C   0  0  0  0  0  0  0  0  0  0  0  0
  141.1900   80.0820  222.4030 C   0  0  0  0  0  0  0  0  0  0  0  0
  141.2090   81.5630  222.5590 C   0  0  0  0  0  0  0  0  0  0  0  0
  140.0930   82.3840  221.9260 C   0  0  0  0  0  0  0  0  0  0  0  0
  141.4280   82.3670  221.2830 C   0  0  0  0  0  0  0  0  0  0  0  0
  141.4580   79.2890  223.4950 C   0  0  0  0  0  0  0  0  0  0  0  0
  141.4540   77.9460  223.4110 N   0  0  0  0  0  0  0  0  0  0  0  0
  139.9830   73.0080  222.6630 C   0  0  0  0  0  0  0  0  0  0  0  0
  139.5730   69.6080  223.8430 N   0  0  0  0  0  0  0  0  0  0  0  0
  140.5061   68.6408  229.7682 H   0  0  0  0  0  0  0  0  0  0  0  0
  140.9924   67.0150  229.1789 H   0  0  0  0  0  0  0  0  0  0  0  0
  142.1801   68.3627  229.1789 H   0  0  0  0  0  0  0  0  0  0  0  0
  139.7230   66.5750  227.3736 H   0  0  0  0  0  0  0  0  0  0  0  0
  138.9747   67.0823  225.0895 H   0  0  0  0  0  0  0  0  0  0  0  0
  141.5966   70.4589  227.6687 H   0  0  0  0  0  0  0  0  0  0  0  0
  140.3046   72.0465  225.4581 H   0  0  0  0  0  0  0  0  0  0  0  0
  141.8203   71.4292  224.8343 H   0  0  0  0  0  0  0  0  0  0  0  0
  139.7095   69.9583  221.2277 H   0  0  0  0  0  0  0  0  0  0  0  0
  139.4767   71.4209  219.2045 H   0  0  0  0  0  0  0  0  0  0  0  0
  139.5750   73.8887  219.4578 H   0  0  0  0  0  0  0  0  0  0  0  0
  142.0470   75.4520  222.0420 H   0  0  0  0  0  0  0  0  0  0  0  0
  140.6763   77.6627  220.1294 H   0  0  0  0  0  0  0  0  0  0  0  0
  140.6889   80.1735  220.2929 H   0  0  0  0  0  0  0  0  0  0  0  0
  141.6542   81.5096  223.5635 H   0  0  0  0  0  0  0  0  0  0  0  0
  139.2460   81.8754  221.4424 H   0  0  0  0  0  0  0  0  0  0  0  0
  139.4182   83.1755  222.2839 H   0  0  0  0  0  0  0  0  0  0  0  0
  141.5675   81.8457  220.3245 H   0  0  0  0  0  0  0  0  0  0  0  0
  142.1450   83.1405  220.9706 H   0  0  0  0  0  0  0  0  0  0  0  0
  141.6812   79.7650  224.4612 H   0  0  0  0  0  0  0  0  0  0  0  0
  140.1275   73.4604  223.6552 H   0  0  0  0  0  0  0  0  0  0  0  0
  1  2  1  0
  2  3  2  0
  3  4  1  0
  4  5  2  0
  5  6  1  0
  6  7  2  0
  6  8  1  0
  8  9  1  0
  9 10  1  0
 10 11  2  0
 11 12  1  0
 12 13  2  0
 13 14  1  0
 14 15  1  0
 15 16  2  0
 15 17  1  0
 17 18  1  0
 18 19  2  0
 19 20  1  0
 20 21  2  0
 21 22  1  0
 22 23  1  0
 23 24  1  0
 21 25  1  0
 25 26  2  0
 14 27  2  0
  9 28  2  0
  7  2  1  0
 27 10  1  0
 28  5  1  0
 26 18  1  0
 24 22  1  0
  1 29  1  0
  1 30  1  0
  1 31  1  0
  3 32  1  0
  4 33  1  0
  7 34  1  0
  8 35  1  0
  8 36  1  0
 11 37  1  0
 12 38  1  0
 13 39  1  0
 17 40  1  0
 19 41  1  0
 20 42  1  0
 22 43  1  0
 23 44  1  0
 23 45  1  0
 24 46  1  0
 24 47  1  0
 25 48  1  0
 27 49  1  0
M  END
>  <smiles>  (5) 
Cc1ccc2c(c1)CC(c1cccc(C(=O)Nc3ccc(C4CC4)cn3)c1)=N2

>  <score_type>  (5) 
oracle

>  <origin>  (5) 
autodockgpu

>  <m_score__min__energy>  (5) 
-8.5800000000000001

>  <m_primary>  (5) 
energy

>  <rmsd>  (5) 
7.212531834063141

>  <m_score__min__rmsd>  (5) 
7.212531834063141

>  <meeko>  (5) 
{"free_energy": -8.49, "intermolecular_energy": -9.69, "internal_energy": -0.76, "cluster_size": 50, "cluster_id": 1, "rank_in_cluster": 27}

>  <energy>  (5) 
-8.55

>  <cluster_rmsd>  (5) 
0.04

>  <cluster>  (5) 
1

$$$$

     RDKit          3D

 49 53  0  0  0  0  0  0  0  0999 V2000
  141.1350   68.1270  229.0250 C   0  0  0  0  0  0  0  0  0  0  0  0
  140.7010   68.4940  227.6570 C   0  0  0  0  0  0  0  0  0  0  0  0
  139.9740   67.5680  226.9230 C   0  0  0  0  0  0  0  0  0  0  0  0
  139.5450   67.8390  225.6610 C   0  0  0  0  0  0  0  0  0  0  0  0
  139.8420   69.0650  225.1030 C   0  0  0  0  0  0  0  0  0  0  0  0
  140.5590   69.9790  225.8260 C   0  0  0  0  0  0  0  0  0  0  0  0
  141.0060   69.7370  227.0970 C   0  0  0  0  0  0  0  0  0  0  0  0
  140.7240   71.1880  224.9800 C   0  0  0  0  0  0  0  0  0  0  0  0
  140.0260   70.8260  223.7440 C   0  0  0  0  0  0  0  0  0  0  0  0
  139.8730   71.6490  222.5620 C   0  0  0  0  0  0  0  0  0  0  0  0
  139.6470   71.0690  221.3300 C   0  0  0  0  0  0  0  0  0  0  0  0
  139.5040   71.8830  220.2040 C   0  0  0  0  0  0  0  0  0  0  0  0
  139.5900   73.2620  220.3440 C   0  0  0  0  0  0  0  0  0  0  0  0
  139.8170   73.8460  221.5720 C   0  0  0  0  0  0  0  0  0  0  0  0
  139.9160   75.2880  221.7680 C   0  0  0  0  0  0  0  0  0  0  0  0
  138.8810   76.0230  221.7710 O   0  0  0  0  0  0  0  0  0  0  0  0
  141.1550   75.9620  221.9660 N   0  0  0  0  0  0  0  0  0  0  0  0
  141.2190   77.3890  222.1570 C   0  0  0  0  0  0  0  0  0  0  0  0
  141.1010   78.1450  221.0020 C   0  0  0  0  0  0  0  0  0  0  0  0
  141.1500   79.5270  221.0750 C   0  0  0  0  0  0  0  0  0  0  0  0
  141.3160   80.0700  222.3320 C   0  0  0  0  0  0  0  0  0  0  0  0
  141.3760   81.5510  222.4800 C   0  0  0  0  0  0  0  0  0  0  0  0
  140.2160   82.3890  221.9590 C   0  0  0  0  0  0  0  0  0  0  0  0
  141.4790   82.3490  221.1850 C   0  0  0  0  0  0  0  0  0  0  0  0
  141.4280   79.2790  223.4520 C   0  0  0  0  0  0  0  0  0  0  0  0
  141.3810   77.9360  223.3770 N   0  0  0  0  0  0  0  0  0  0  0  0
  139.9520   73.0230  222.6520 C   0  0  0  0  0  0  0  0  0  0  0  0
  139.5380   69.6220  223.8420 N   0  0  0  0  0  0  0  0  0  0  0  0
  140.5111   68.6546  229.7615 H   0  0  0  0  0  0  0  0  0  0  0  0
  141.0281   67.0411  229.1646 H   0  0  0  0  0  0  0  0  0  0  0  0
  142.1880   68.4128  229.1646 H   0  0  0  0  0  0  0  0  0  0  0  0
  139.7390   66.5918  227.3722 H   0  0  0  0  0  0  0  0  0  0  0  0
  138.9701   67.0919  225.0941 H   0  0  0  0  0  0  0  0  0  0  0  0
  141.5818   70.4904  227.6546 H   0  0  0  0  0  0  0  0  0  0  0  0
  140.2607   72.0668  225.4523 H   0  0  0  0  0  0  0  0  0  0  0  0
  141.7769   71.4620  224.8178 H   0  0  0  0  0  0  0  0  0  0  0  0
  139.5801   69.9751  221.2358 H   0  0  0  0  0  0  0  0  0  0  0  0
  139.3248   71.4358  219.2151 H   0  0  0  0  0  0  0  0  0  0  0  0
  139.4746   73.9016  219.4566 H   0  0  0  0  0  0  0  0  0  0  0  0
  142.0460   75.4220  221.9760 H   0  0  0  0  0  0  0  0  0  0  0  0
  140.9687   77.6486  220.0293 H   0  0  0  0  0  0  0  0  0  0  0  0
  141.0613   80.1580  220.1784 H   0  0  0  0  0  0  0  0  0  0  0  0
  141.9192   81.4923  223.4347 H   0  0  0  0  0  0  0  0  0  0  0  0
  139.3166   81.8935  221.5647 H   0  0  0  0  0  0  0  0  0  0  0  0
  139.5936   83.1923  222.3800 H   0  0  0  0  0  0  0  0  0  0  0  0
  141.5130   81.8236  220.2192 H   0  0  0  0  0  0  0  0  0  0  0  0
  142.1734   83.1099  220.7993 H   0  0  0  0  0  0  0  0  0  0  0  0
  141.5594   79.7565  224.4342 H   0  0  0  0  0  0  0  0  0  0  0  0
  140.1318   73.4756  223.6383 H   0  0  0  0  0  0  0  0  0  0  0  0
  1  2  1  0
  2  3  2  0
  3  4  1  0
  4  5  2  0
  5  6  1  0
  6  7  2  0
  6  8  1  0
  8  9  1  0
  9 10  1  0
 10 11  2  0
 11 12  1  0
 12 13  2  0
 13 14  1  0
 14 15  1  0
 15 16  2  0
 15 17  1  0
 17 18  1  0
 18 19  2  0
 19 20  1  0
 20 21  2  0
 21 22  1  0
 22 23  1  0
 23 24  1  0
 21 25  1  0
 25 26  2  0
 14 27  2  0
  9 28  2  0
  7  2  1  0
 27 10  1  0
 28  5  1  0
 26 18  1  0
 24 22  1  0
  1 29  1  0
  1 30  1  0
  1 31  1  0
  3 32  1  0
  4 33  1  0
  7 34  1  0
  8 35  1  0
  8 36  1  0
 11 37  1  0
 12 38  1  0
 13 39  1  0
 17 40  1  0
 19 41  1  0
 20 42  1  0
 22 43  1  0
 23 44  1  0
 23 45  1  0
 24 46  1  0
 24 47  1  0
 25 48  1  0
 27 49  1  0
M  END
>  <smiles>  (6) 
Cc1ccc2c(c1)CC(c1cccc(C(=O)Nc3ccc(C4CC4)cn3)c1)=N2

>  <score_type>  (6) 
oracle

>  <origin>  (6) 
autodockgpu

>  <m_score__min__energy>  (6) 
-8.5800000000000001

>  <m_primary>  (6) 
energy

>  <rmsd>  (6) 
7.185003909033283

>  <m_score__min__rmsd>  (6) 
7.185003909033283

>  <meeko>  (6) 
{"free_energy": -8.51, "intermolecular_energy": -9.7, "internal_energy": -0.76, "cluster_size": 50, "cluster_id": 1, "rank_in_cluster": 17}

>  <energy>  (6) 
-8.55

>  <cluster_rmsd>  (6) 
0.13

>  <cluster>  (6) 
1

$$$$

     RDKit          3D

 49 53  0  0  0  0  0  0  0  0999 V2000
  140.9820   68.2080  229.0650 C   0  0  0  0  0  0  0  0  0  0  0  0
  140.5640   68.5830  227.6940 C   0  0  0  0  0  0  0  0  0  0  0  0
  139.6860   67.7480  227.0180 C   0  0  0  0  0  0  0  0  0  0  0  0
  139.2620   68.0310  225.7580 C   0  0  0  0  0  0  0  0  0  0  0  0
  139.7180   69.1790  225.1420 C   0  0  0  0  0  0  0  0  0  0  0  0
  140.5830   70.0030  225.8070 C   0  0  0  0  0  0  0  0  0  0  0  0
  141.0290   69.7460  227.0750 C   0  0  0  0  0  0  0  0  0  0  0  0
  140.8970   71.1420  224.9070 C   0  0  0  0  0  0  0  0  0  0  0  0
  140.1150   70.8400  223.7050 C   0  0  0  0  0  0  0  0  0  0  0  0
  140.0470   71.6320  222.4950 C   0  0  0  0  0  0  0  0  0  0  0  0
  139.9400   71.0180  221.2630 C   0  0  0  0  0  0  0  0  0  0  0  0
  139.8770   71.8020  220.1080 C   0  0  0  0  0  0  0  0  0  0  0  0
  139.9230   73.1850  220.2200 C   0  0  0  0  0  0  0  0  0  0  0  0
  140.0300   73.8030  221.4480 C   0  0  0  0  0  0  0  0  0  0  0  0
  140.0820   75.2510  221.6150 C   0  0  0  0  0  0  0  0  0  0  0  0
  139.0210   75.9370  221.7350 O   0  0  0  0  0  0  0  0  0  0  0  0
  141.3010   75.9850  221.6540 N   0  0  0  0  0  0  0  0  0  0  0  0
  141.3190   77.4170  221.8210 C   0  0  0  0  0  0  0  0  0  0  0  0
  141.0220   77.8650  223.0970 C   0  0  0  0  0  0  0  0  0  0  0  0
  141.0110   79.2250  223.3660 C   0  0  0  0  0  0  0  0  0  0  0  0
  141.3070   80.0600  222.3100 C   0  0  0  0  0  0  0  0  0  0  0  0
  141.3130   81.5340  222.5310 C   0  0  0  0  0  0  0  0  0  0  0  0
  140.1370   82.3580  222.0230 C   0  0  0  0  0  0  0  0  0  0  0  0
  141.4180   82.3970  221.2790 C   0  0  0  0  0  0  0  0  0  0  0  0
  141.5960   79.5700  221.0580 C   0  0  0  0  0  0  0  0  0  0  0  0
  141.6050   78.2480  220.8010 N   0  0  0  0  0  0  0  0  0  0  0  0
  140.0890   73.0090  222.5560 C   0  0  0  0  0  0  0  0  0  0  0  0
  139.4600   69.7260  223.8660 N   0  0  0  0  0  0  0  0  0  0  0  0
  140.3711   68.7561  229.7974 H   0  0  0  0  0  0  0  0  0  0  0  0
  140.8429   67.1262  229.2078 H   0  0  0  0  0  0  0  0  0  0  0  0
  142.0424   68.4633  229.2078 H   0  0  0  0  0  0  0  0  0  0  0  0
  139.3244   66.8350  227.5137 H   0  0  0  0  0  0  0  0  0  0  0  0
  138.5666   67.3560  225.2376 H   0  0  0  0  0  0  0  0  0  0  0  0
  141.7252   70.4273  227.5860 H   0  0  0  0  0  0  0  0  0  0  0  0
  140.5822   72.0967  225.3535 H   0  0  0  0  0  0  0  0  0  0  0  0
  141.9731   71.2516  224.7070 H   0  0  0  0  0  0  0  0  0  0  0  0
  139.9047   69.9209  221.1913 H   0  0  0  0  0  0  0  0  0  0  0  0
  139.7917   71.3277  219.1192 H   0  0  0  0  0  0  0  0  0  0  0  0
  139.8730   73.8008  219.3099 H   0  0  0  0  0  0  0  0  0  0  0  0
  142.2130   75.4890  221.5630 H   0  0  0  0  0  0  0  0  0  0  0  0
  140.7953   77.1434  223.8956 H   0  0  0  0  0  0  0  0  0  0  0  0
  140.7787   79.6163  224.3675 H   0  0  0  0  0  0  0  0  0  0  0  0
  141.8360   81.4466  223.4948 H   0  0  0  0  0  0  0  0  0  0  0  0
  139.2640   81.8531  221.5837 H   0  0  0  0  0  0  0  0  0  0  0  0
  139.4782   83.1190  222.4668 H   0  0  0  0  0  0  0  0  0  0  0  0
  141.4917   81.9207  220.2902 H   0  0  0  0  0  0  0  0  0  0  0  0
  142.0948   83.1982  220.9473 H   0  0  0  0  0  0  0  0  0  0  0  0
  141.8256   80.2756  220.2460 H   0  0  0  0  0  0  0  0  0  0  0  0
  140.1739   73.4888  223.5422 H   0  0  0  0  0  0  0  0  0  0  0  0
  1  2  1  0
  2  3  2  0
  3  4  1  0
  4  5  2  0
  5  6  1  0
  6  7  2  0
  6  8  1  0
  8  9  1  0
  9 10  1  0
 10 11  2  0
 11 12  1  0
 12 13  2  0
 13 14  1  0
 14 15  1  0
 15 16  2  0
 15 17  1  0
 17 18  1  0
 18 19  2  0
 19 20  1  0
 20 21  2  0
 21 22  1  0
 22 23  1  0
 23 24  1  0
 21 25  1  0
 25 26  2  0
 14 27  2  0
  9 28  2  0
  7  2  1  0
 27 10  1  0
 28  5  1  0
 26 18  1  0
 24 22  1  0
  1 29  1  0
  1 30  1  0
  1 31  1  0
  3 32  1  0
  4 33  1  0
  7 34  1  0
  8 35  1  0
  8 36  1  0
 11 37  1  0
 12 38  1  0
 13 39  1  0
 17 40  1  0
 19 41  1  0
 20 42  1  0
 22 43  1  0
 23 44  1  0
 23 45  1  0
 24 46  1  0
 24 47  1  0
 25 48  1  0
 27 49  1  0
M  END
>  <smiles>  (7) 
Cc1ccc2c(c1)CC(c1cccc(C(=O)Nc3ccc(C4CC4)cn3)c1)=N2

>  <score_type>  (7) 
oracle

>  <origin>  (7) 
autodockgpu

>  <m_score__min__energy>  (7) 
-8.5800000000000001

>  <m_primary>  (7) 
energy

>  <rmsd>  (7) 
7.276983799338828

>  <m_score__min__rmsd>  (7) 
7.276983799338828

>  <meeko>  (7) 
{"free_energy": -8.43, "intermolecular_energy": -9.62, "internal_energy": -0.76, "cluster_size": 50, "cluster_id": 1, "rank_in_cluster": 43}

>  <energy>  (7) 
-8.55

>  <cluster_rmsd>  (7) 
0.09

>  <cluster>  (7) 
1

$$$$

     RDKit          3D

 49 53  0  0  0  0  0  0  0  0999 V2000
  141.0020   68.2190  229.0680 C   0  0  0  0  0  0  0  0  0  0  0  0
  140.5740   68.5900  227.6990 C   0  0  0  0  0  0  0  0  0  0  0  0
  139.6880   67.7560  227.0330 C   0  0  0  0  0  0  0  0  0  0  0  0
  139.2560   68.0360  225.7750 C   0  0  0  0  0  0  0  0  0  0  0  0
  139.7120   69.1800  225.1510 C   0  0  0  0  0  0  0  0  0  0  0  0
  140.5850   70.0030  225.8060 C   0  0  0  0  0  0  0  0  0  0  0  0
  141.0400   69.7490  227.0710 C   0  0  0  0  0  0  0  0  0  0  0  0
  140.8970   71.1370  224.8990 C   0  0  0  0  0  0  0  0  0  0  0  0
  140.1050   70.8340  223.7050 C   0  0  0  0  0  0  0  0  0  0  0  0
  140.0310   71.6210  222.4920 C   0  0  0  0  0  0  0  0  0  0  0  0
  139.9080   71.0030  221.2640 C   0  0  0  0  0  0  0  0  0  0  0  0
  139.8390   71.7830  220.1060 C   0  0  0  0  0  0  0  0  0  0  0  0
  139.8960   73.1670  220.2120 C   0  0  0  0  0  0  0  0  0  0  0  0
  140.0190   73.7880  221.4360 C   0  0  0  0  0  0  0  0  0  0  0  0
  140.0830   75.2360  221.5970 C   0  0  0  0  0  0  0  0  0  0  0  0
  139.0260   75.9330  221.6970 O   0  0  0  0  0  0  0  0  0  0  0  0
  141.3080   75.9590  221.6530 N   0  0  0  0  0  0  0  0  0  0  0  0
  141.3370   77.3910  221.8130 C   0  0  0  0  0  0  0  0  0  0  0  0
  140.9980   77.8500  223.0750 C   0  0  0  0  0  0  0  0  0  0  0  0
  140.9940   79.2110  223.3360 C   0  0  0  0  0  0  0  0  0  0  0  0
  141.3390   80.0380  222.2870 C   0  0  0  0  0  0  0  0  0  0  0  0
  141.3550   81.5120  222.5010 C   0  0  0  0  0  0  0  0  0  0  0  0
  140.1720   82.3380  222.0140 C   0  0  0  0  0  0  0  0  0  0  0  0
  141.4380   82.3690  221.2430 C   0  0  0  0  0  0  0  0  0  0  0  0
  141.6690   79.5360  221.0490 C   0  0  0  0  0  0  0  0  0  0  0  0
  141.6710   78.2140  220.8000 N   0  0  0  0  0  0  0  0  0  0  0  0
  140.0830   72.9990  222.5470 C   0  0  0  0  0  0  0  0  0  0  0  0
  139.4460   69.7230  223.8750 N   0  0  0  0  0  0  0  0  0  0  0  0
  140.3838   68.7549  229.8033 H   0  0  0  0  0  0  0  0  0  0  0  0
  140.8817   67.1347  229.2086 H   0  0  0  0  0  0  0  0  0  0  0  0
  142.0583   68.4920  229.2086 H   0  0  0  0  0  0  0  0  0  0  0  0
  139.3264   66.8464  227.5349 H   0  0  0  0  0  0  0  0  0  0  0  0
  138.5542   67.3618  225.2622 H   0  0  0  0  0  0  0  0  0  0  0  0
  141.7437   70.4289  227.5735 H   0  0  0  0  0  0  0  0  0  0  0  0
  140.5899   72.0949  225.3441 H   0  0  0  0  0  0  0  0  0  0  0  0
  141.9720   71.2410  224.6902 H   0  0  0  0  0  0  0  0  0  0  0  0
  139.8646   69.9059  221.1971 H   0  0  0  0  0  0  0  0  0  0  0  0
  139.7405   71.3054  219.1200 H   0  0  0  0  0  0  0  0  0  0  0  0
  139.8418   73.7798  219.3001 H   0  0  0  0  0  0  0  0  0  0  0  0
  142.2160   75.4530  221.5780 H   0  0  0  0  0  0  0  0  0  0  0  0
  140.7325   77.1358  223.8684 H   0  0  0  0  0  0  0  0  0  0  0  0
  140.7300   79.6104  224.3263 H   0  0  0  0  0  0  0  0  0  0  0  0
  141.8973   81.4269  223.4543 H   0  0  0  0  0  0  0  0  0  0  0  0
  139.2882   81.8345  221.5952 H   0  0  0  0  0  0  0  0  0  0  0  0
  139.5254   83.1033  222.4681 H   0  0  0  0  0  0  0  0  0  0  0  0
  141.4895   81.8880  220.2551 H   0  0  0  0  0  0  0  0  0  0  0  0
  142.1109   83.1660  220.8937 H   0  0  0  0  0  0  0  0  0  0  0  0
  141.9381   80.2336  220.2422 H   0  0  0  0  0  0  0  0  0  0  0  0
  140.1803   73.4825  223.5302 H   0  0  0  0  0  0  0  0  0  0  0  0
  1  2  1  0
  2  3  2  0
  3  4  1  0
  4  5  2  0
  5  6  1  0
  6  7  2  0
  6  8  1  0
  8  9  1  0
  9 10  1  0
 10 11  2  0
 11 12  1  0
 12 13  2  0
 13 14  1  0
 14 15  1  0
 15 16  2  0
 15 17  1  0
 17 18  1  0
 18 19  2  0
 19 20  1  0
 20 21  2  0
 21 22  1  0
 22 23  1  0
 23 24  1  0
 21 25  1  0
 25 26  2  0
 14 27  2  0
  9 28  2  0
  7  2  1  0
 27 10  1  0
 28  5  1  0
 26 18  1  0
 24 22  1  0
  1 29  1  0
  1 30  1  0
  1 31  1  0
  3 32  1  0
  4 33  1  0
  7 34  1  0
  8 35  1  0
  8 36  1  0
 11 37  1  0
 12 38  1  0
 13 39  1  0
 17 40  1  0
 19 41  1  0
 20 42  1  0
 22 43  1  0
 23 44  1  0
 23 45  1  0
 24 46  1  0
 24 47  1  0
 25 48  1  0
 27 49  1  0
M  END
>  <smiles>  (8) 
Cc1ccc2c(c1)CC(c1cccc(C(=O)Nc3ccc(C4CC4)cn3)c1)=N2

>  <score_type>  (8) 
oracle

>  <origin>  (8) 
autodockgpu

>  <m_score__min__energy>  (8) 
-8.5800000000000001

>  <m_primary>  (8) 
energy

>  <rmsd>  (8) 
7.277004143553274

>  <m_score__min__rmsd>  (8) 
7.277004143553274

>  <meeko>  (8) 
{"free_energy": -8.42, "intermolecular_energy": -9.61, "internal_energy": -0.76, "cluster_size": 50, "cluster_id": 1, "rank_in_cluster": 45}

>  <energy>  (8) 
-8.55

>  <cluster_rmsd>  (8) 
0.06

>  <cluster>  (8) 
1

$$$$

     RDKit          3D

 49 53  0  0  0  0  0  0  0  0999 V2000
  141.1240   68.1440  229.0060 C   0  0  0  0  0  0  0  0  0  0  0  0
  140.6990   68.5090  227.6340 C   0  0  0  0  0  0  0  0  0  0  0  0
  139.9720   67.5830  226.8990 C   0  0  0  0  0  0  0  0  0  0  0  0
  139.5510   67.8530  225.6340 C   0  0  0  0  0  0  0  0  0  0  0  0
  139.8580   69.0760  225.0740 C   0  0  0  0  0  0  0  0  0  0  0  0
  140.5750   69.9880  225.7980 C   0  0  0  0  0  0  0  0  0  0  0  0
  141.0130   69.7480  227.0720 C   0  0  0  0  0  0  0  0  0  0  0  0
  140.7510   71.1940  224.9490 C   0  0  0  0  0  0  0  0  0  0  0  0
  140.0580   70.8310  223.7100 C   0  0  0  0  0  0  0  0  0  0  0  0
  139.9160   71.6510  222.5250 C   0  0  0  0  0  0  0  0  0  0  0  0
  139.7090   71.0670  221.2910 C   0  0  0  0  0  0  0  0  0  0  0  0
  139.5750   71.8780  220.1610 C   0  0  0  0  0  0  0  0  0  0  0  0
  139.6530   73.2580  220.2990 C   0  0  0  0  0  0  0  0  0  0  0  0
  139.8590   73.8460  221.5290 C   0  0  0  0  0  0  0  0  0  0  0  0
  139.9480   75.2880  221.7240 C   0  0  0  0  0  0  0  0  0  0  0  0
  138.9090   76.0170  221.7170 O   0  0  0  0  0  0  0  0  0  0  0  0
  141.1810   75.9710  221.9310 N   0  0  0  0  0  0  0  0  0  0  0  0
  141.2340   77.3980  222.1200 C   0  0  0  0  0  0  0  0  0  0  0  0
  141.3300   78.1440  220.9580 C   0  0  0  0  0  0  0  0  0  0  0  0
  141.3890   79.5270  221.0280 C   0  0  0  0  0  0  0  0  0  0  0  0
  141.3440   80.0790  222.2910 C   0  0  0  0  0  0  0  0  0  0  0  0
  141.4020   81.5610  222.4360 C   0  0  0  0  0  0  0  0  0  0  0  0
  140.2160   82.3920  221.9650 C   0  0  0  0  0  0  0  0  0  0  0  0
  141.4460   82.3590  221.1380 C   0  0  0  0  0  0  0  0  0  0  0  0
  141.2490   79.2980  223.4190 C   0  0  0  0  0  0  0  0  0  0  0  0
  141.1930   77.9550  223.3460 N   0  0  0  0  0  0  0  0  0  0  0  0
  139.9860   73.0260  222.6130 C   0  0  0  0  0  0  0  0  0  0  0  0
  139.5640   69.6300  223.8090 N   0  0  0  0  0  0  0  0  0  0  0  0
  140.5008   68.6793  229.7375 H   0  0  0  0  0  0  0  0  0  0  0  0
  141.0081   67.0596  229.1494 H   0  0  0  0  0  0  0  0  0  0  0  0
  142.1785   68.4222  229.1494 H   0  0  0  0  0  0  0  0  0  0  0  0
  139.7308   66.6089  227.3495 H   0  0  0  0  0  0  0  0  0  0  0  0
  138.9746   67.1077  225.0662 H   0  0  0  0  0  0  0  0  0  0  0  0
  141.5890   70.5005  227.6306 H   0  0  0  0  0  0  0  0  0  0  0  0
  140.2894   72.0766  225.4159 H   0  0  0  0  0  0  0  0  0  0  0  0
  141.8061   71.4625  224.7920 H   0  0  0  0  0  0  0  0  0  0  0  0
  139.6501   69.9725  221.1983 H   0  0  0  0  0  0  0  0  0  0  0  0
  139.4092   71.4277  219.1712 H   0  0  0  0  0  0  0  0  0  0  0  0
  139.5482   73.8950  219.4084 H   0  0  0  0  0  0  0  0  0  0  0  0
  142.0760   75.4370  221.9500 H   0  0  0  0  0  0  0  0  0  0  0  0
  141.3594   77.6401  219.9806 H   0  0  0  0  0  0  0  0  0  0  0  0
  141.4675   80.1505  220.1252 H   0  0  0  0  0  0  0  0  0  0  0  0
  141.9856   81.5057  223.3668 H   0  0  0  0  0  0  0  0  0  0  0  0
  139.3036   81.8912  221.6092 H   0  0  0  0  0  0  0  0  0  0  0  0
  139.6072   83.1917  222.4120 H   0  0  0  0  0  0  0  0  0  0  0  0
  141.4423   81.8335  220.1716 H   0  0  0  0  0  0  0  0  0  0  0  0
  142.1193   83.1237  220.7233 H   0  0  0  0  0  0  0  0  0  0  0  0
  141.2180   79.7830  224.4058 H   0  0  0  0  0  0  0  0  0  0  0  0
  140.1515   73.4818  223.6004 H   0  0  0  0  0  0  0  0  0  0  0  0
  1  2  1  0
  2  3  2  0
  3  4  1  0
  4  5  2  0
  5  6  1  0
  6  7  2  0
  6  8  1  0
  8  9  1  0
  9 10  1  0
 10 11  2  0
 11 12  1  0
 12 13  2  0
 13 14  1  0
 14 15  1  0
 15 16  2  0
 15 17  1  0
 17 18  1  0
 18 19  2  0
 19 20  1  0
 20 21  2  0
 21 22  1  0
 22 23  1  0
 23 24  1  0
 21 25  1  0
 25 26  2  0
 14 27  2  0
  9 28  2  0
  7  2  1  0
 27 10  1  0
 28  5  1  0
 26 18  1  0
 24 22  1  0
  1 29  1  0
  1 30  1  0
  1 31  1  0
  3 32  1  0
  4 33  1  0
  7 34  1  0
  8 35  1  0
  8 36  1  0
 11 37  1  0
 12 38  1  0
 13 39  1  0
 17 40  1  0
 19 41  1  0
 20 42  1  0
 22 43  1  0
 23 44  1  0
 23 45  1  0
 24 46  1  0
 24 47  1  0
 25 48  1  0
 27 49  1  0
M  END
>  <smiles>  (9) 
Cc1ccc2c(c1)CC(c1cccc(C(=O)Nc3ccc(C4CC4)cn3)c1)=N2

>  <score_type>  (9) 
oracle

>  <origin>  (9) 
autodockgpu

>  <m_score__min__energy>  (9) 
-8.5800000000000001

>  <m_primary>  (9) 
energy

>  <rmsd>  (9) 
7.175535212106384

>  <m_score__min__rmsd>  (9) 
7.175535212106384

>  <meeko>  (9) 
{"free_energy": -8.51, "intermolecular_energy": -9.71, "internal_energy": -0.76, "cluster_size": 50, "cluster_id": 1, "rank_in_cluster": 15}

>  <energy>  (9) 
-8.54

>  <cluster_rmsd>  (9) 
0.06

>  <cluster>  (9) 
1

$$$$

     RDKit          3D

 49 53  0  0  0  0  0  0  0  0999 V2000
  141.0790   68.1270  228.9980 C   0  0  0  0  0  0  0  0  0  0  0  0
  140.6580   68.4910  227.6260 C   0  0  0  0  0  0  0  0  0  0  0  0
  139.9410   67.5620  226.8850 C   0  0  0  0  0  0  0  0  0  0  0  0
  139.5240   67.8320  225.6190 C   0  0  0  0  0  0  0  0  0  0  0  0
  139.8230   69.0590  225.0630 C   0  0  0  0  0  0  0  0  0  0  0  0
  140.5290   69.9750  225.7930 C   0  0  0  0  0  0  0  0  0  0  0  0
  140.9640   69.7350  227.0680 C   0  0  0  0  0  0  0  0  0  0  0  0
  140.6990   71.1850  224.9480 C   0  0  0  0  0  0  0  0  0  0  0  0
  140.0150   70.8190  223.7050 C   0  0  0  0  0  0  0  0  0  0  0  0
  139.8720   71.6410  222.5220 C   0  0  0  0  0  0  0  0  0  0  0  0
  139.6540   71.0600  221.2890 C   0  0  0  0  0  0  0  0  0  0  0  0
  139.5190   71.8730  220.1600 C   0  0  0  0  0  0  0  0  0  0  0  0
  139.6060   73.2520  220.2990 C   0  0  0  0  0  0  0  0  0  0  0  0
  139.8240   73.8370  221.5280 C   0  0  0  0  0  0  0  0  0  0  0  0
  139.9230   75.2790  221.7230 C   0  0  0  0  0  0  0  0  0  0  0  0
  138.8930   76.0200  221.6840 O   0  0  0  0  0  0  0  0  0  0  0  0
  141.1570   75.9470  221.9670 N   0  0  0  0  0  0  0  0  0  0  0  0
  141.2220   77.3750  222.1560 C   0  0  0  0  0  0  0  0  0  0  0  0
  141.0780   78.1290  221.0040 C   0  0  0  0  0  0  0  0  0  0  0  0
  141.1250   79.5120  221.0750 C   0  0  0  0  0  0  0  0  0  0  0  0
  141.3160   80.0560  222.3270 C   0  0  0  0  0  0  0  0  0  0  0  0
  141.3750   81.5380  222.4730 C   0  0  0  0  0  0  0  0  0  0  0  0
  140.2080   82.3730  221.9630 C   0  0  0  0  0  0  0  0  0  0  0  0
  141.4640   82.3340  221.1760 C   0  0  0  0  0  0  0  0  0  0  0  0
  141.4530   79.2670  223.4450 C   0  0  0  0  0  0  0  0  0  0  0  0
  141.4080   77.9230  223.3720 N   0  0  0  0  0  0  0  0  0  0  0  0
  139.9510   73.0160  222.6100 C   0  0  0  0  0  0  0  0  0  0  0  0
  139.5300   69.6140  223.7990 N   0  0  0  0  0  0  0  0  0  0  0  0
  140.4563   68.6654  229.7276 H   0  0  0  0  0  0  0  0  0  0  0  0
  140.9593   67.0432  229.1429 H   0  0  0  0  0  0  0  0  0  0  0  0
  142.1342   68.4020  229.1429 H   0  0  0  0  0  0  0  0  0  0  0  0
  139.7046   66.5850  227.3319 H   0  0  0  0  0  0  0  0  0  0  0  0
  138.9567   67.0833  225.0467 H   0  0  0  0  0  0  0  0  0  0  0  0
  141.5316   70.4907  227.6308 H   0  0  0  0  0  0  0  0  0  0  0  0
  140.2276   72.0624  225.4148 H   0  0  0  0  0  0  0  0  0  0  0  0
  141.7525   71.4631  224.7969 H   0  0  0  0  0  0  0  0  0  0  0  0
  139.5871   69.9660  221.1956 H   0  0  0  0  0  0  0  0  0  0  0  0
  139.3454   71.4247  219.1706 H   0  0  0  0  0  0  0  0  0  0  0  0
  139.4987   73.8908  219.4099 H   0  0  0  0  0  0  0  0  0  0  0  0
  142.0450   75.4030  222.0130 H   0  0  0  0  0  0  0  0  0  0  0  0
  140.9267   77.6315  220.0347 H   0  0  0  0  0  0  0  0  0  0  0  0
  141.0157   80.1421  220.1800 H   0  0  0  0  0  0  0  0  0  0  0  0
  141.9278   81.4817  223.4223 H   0  0  0  0  0  0  0  0  0  0  0  0
  139.3055   81.8752  221.5786 H   0  0  0  0  0  0  0  0  0  0  0  0
  139.5883   83.1757  222.3892 H   0  0  0  0  0  0  0  0  0  0  0  0
  141.4893   81.8071  220.2107 H   0  0  0  0  0  0  0  0  0  0  0  0
  142.1533   83.0955  220.7822 H   0  0  0  0  0  0  0  0  0  0  0  0
  141.6032   79.7459  224.4238 H   0  0  0  0  0  0  0  0  0  0  0  0
  140.1241   73.4702  223.5968 H   0  0  0  0  0  0  0  0  0  0  0  0
  1  2  1  0
  2  3  2  0
  3  4  1  0
  4  5  2  0
  5  6  1  0
  6  7  2  0
  6  8  1  0
  8  9  1  0
  9 10  1  0
 10 11  2  0
 11 12  1  0
 12 13  2  0
 13 14  1  0
 14 15  1  0
 15 16  2  0
 15 17  1  0
 17 18  1  0
 18 19  2  0
 19 20  1  0
 20 21  2  0
 21 22  1  0
 22 23  1  0
 23 24  1  0
 21 25  1  0
 25 26  2  0
 14 27  2  0
  9 28  2  0
  7  2  1  0
 27 10  1  0
 28  5  1  0
 26 18  1  0
 24 22  1  0
  1 29  1  0
  1 30  1  0
  1 31  1  0
  3 32  1  0
  4 33  1  0
  7 34  1  0
  8 35  1  0
  8 36  1  0
 11 37  1  0
 12 38  1  0
 13 39  1  0
 17 40  1  0
 19 41  1  0
 20 42  1  0
 22 43  1  0
 23 44  1  0
 23 45  1  0
 24 46  1  0
 24 47  1  0
 25 48  1  0
 27 49  1  0
M  END
>  <smiles>  (10) 
Cc1ccc2c(c1)CC(c1cccc(C(=O)Nc3ccc(C4CC4)cn3)c1)=N2

>  <score_type>  (10) 
oracle

>  <origin>  (10) 
autodockgpu

>  <m_score__min__energy>  (10) 
-8.5800000000000001

>  <m_primary>  (10) 
energy

>  <rmsd>  (10) 
7.187681480468149

>  <m_score__min__rmsd>  (10) 
7.187681480468149

>  <meeko>  (10) 
{"free_energy": -8.51, "intermolecular_energy": -9.7, "internal_energy": -0.76, "cluster_size": 50, "cluster_id": 1, "rank_in_cluster": 20}

>  <energy>  (10) 
-8.54

>  <cluster_rmsd>  (10) 
0.1

>  <cluster>  (10) 
1

$$$$

     RDKit          3D

 49 53  0  0  0  0  0  0  0  0999 V2000
  141.2010   68.1480  229.0930 C   0  0  0  0  0  0  0  0  0  0  0  0
  140.6750   68.4800  227.7480 C   0  0  0  0  0  0  0  0  0  0  0  0
  139.7810   67.6010  227.1520 C   0  0  0  0  0  0  0  0  0  0  0  0
  139.2610   67.8440  225.9190 C   0  0  0  0  0  0  0  0  0  0  0  0
  139.6330   68.9920  225.2510 C   0  0  0  0  0  0  0  0  0  0  0  0
  140.5140   69.8590  225.8380 C   0  0  0  0  0  0  0  0  0  0  0  0
  141.0560   69.6440  227.0750 C   0  0  0  0  0  0  0  0  0  0  0  0
  140.7240   70.9880  224.8960 C   0  0  0  0  0  0  0  0  0  0  0  0
  139.8720   70.6350  223.7590 C   0  0  0  0  0  0  0  0  0  0  0  0
  139.6920   71.3970  222.5410 C   0  0  0  0  0  0  0  0  0  0  0  0
  139.3370   70.7660  221.3660 C   0  0  0  0  0  0  0  0  0  0  0  0
  139.1700   71.5220  220.2030 C   0  0  0  0  0  0  0  0  0  0  0  0
  139.3640   72.8960  220.2490 C   0  0  0  0  0  0  0  0  0  0  0  0
  139.7190   73.5320  221.4200 C   0  0  0  0  0  0  0  0  0  0  0  0
  139.9340   74.9710  221.5180 C   0  0  0  0  0  0  0  0  0  0  0  0
  140.5150   75.6130  220.5900 O   0  0  0  0  0  0  0  0  0  0  0  0
  139.5170   75.7450  222.6390 N   0  0  0  0  0  0  0  0  0  0  0  0
  139.7440   77.1660  222.7050 C   0  0  0  0  0  0  0  0  0  0  0  0
  141.0740   77.5500  222.7430 C   0  0  0  0  0  0  0  0  0  0  0  0
  141.4030   78.8940  222.8080 C   0  0  0  0  0  0  0  0  0  0  0  0
  140.3490   79.7830  222.8280 C   0  0  0  0  0  0  0  0  0  0  0  0
  140.6330   81.2440  222.8970 C   0  0  0  0  0  0  0  0  0  0  0  0
  141.7860   81.8070  222.0760 C   0  0  0  0  0  0  0  0  0  0  0  0
  141.9590   81.6380  223.5380 C   0  0  0  0  0  0  0  0  0  0  0  0
  139.0420   79.3560  222.7880 C   0  0  0  0  0  0  0  0  0  0  0  0
  138.7270   78.0490  222.7260 N   0  0  0  0  0  0  0  0  0  0  0  0
  139.8740   72.7650  222.5380 C   0  0  0  0  0  0  0  0  0  0  0  0
  139.2680   69.5040  223.9860 N   0  0  0  0  0  0  0  0  0  0  0  0
  140.5351   68.5683  229.8611 H   0  0  0  0  0  0  0  0  0  0  0  0
  141.2498   67.0551  229.2081 H   0  0  0  0  0  0  0  0  0  0  0  0
  142.2085   68.5742  229.2081 H   0  0  0  0  0  0  0  0  0  0  0  0
  139.4865   66.6873  227.6891 H   0  0  0  0  0  0  0  0  0  0  0  0
  138.5545   67.1358  225.4615 H   0  0  0  0  0  0  0  0  0  0  0  0
  141.7631   70.3582  227.5221 H   0  0  0  0  0  0  0  0  0  0  0  0
  140.4080   71.9411  225.3453 H   0  0  0  0  0  0  0  0  0  0  0  0
  141.7790   71.1287  224.6183 H   0  0  0  0  0  0  0  0  0  0  0  0
  139.1868   69.6765  221.3453 H   0  0  0  0  0  0  0  0  0  0  0  0
  138.8873   71.0329  219.2592 H   0  0  0  0  0  0  0  0  0  0  0  0
  139.2318   73.4896  219.3324 H   0  0  0  0  0  0  0  0  0  0  0  0
  139.0320   75.2850  223.4390 H   0  0  0  0  0  0  0  0  0  0  0  0
  141.8679   76.7889  222.7216 H   0  0  0  0  0  0  0  0  0  0  0  0
  142.4486   79.2338  222.8418 H   0  0  0  0  0  0  0  0  0  0  0  0
  139.5713   81.5047  223.0189 H   0  0  0  0  0  0  0  0  0  0  0  0
  142.3333   81.1534  221.3809 H   0  0  0  0  0  0  0  0  0  0  0  0
  141.8974   82.6495  221.3775 H   0  0  0  0  0  0  0  0  0  0  0  0
  142.6338   80.8593  223.9232 H   0  0  0  0  0  0  0  0  0  0  0  0
  142.2504   82.3038  224.3637 H   0  0  0  0  0  0  0  0  0  0  0  0
  138.2337   80.1018  222.8072 H   0  0  0  0  0  0  0  0  0  0  0  0
  140.1567   73.2594  223.4791 H   0  0  0  0  0  0  0  0  0  0  0  0
  1  2  1  0
  2  3  2  0
  3  4  1  0
  4  5  2  0
  5  6  1  0
  6  7  2  0
  6  8  1  0
  8  9  1  0
  9 10  1  0
 10 11  2  0
 11 12  1  0
 12 13  2  0
 13 14  1  0
 14 15  1  0
 15 16  2  0
 15 17  1  0
 17 18  1  0
 18 19  2  0
 19 20  1  0
 20 21  2  0
 21 22  1  0
 22 23  1  0
 23 24  1  0
 21 25  1  0
 25 26  2  0
 14 27  2  0
  9 28  2  0
  7  2  1  0
 27 10  1  0
 28  5  1  0
 26 18  1  0
 24 22  1  0
  1 29  1  0
  1 30  1  0
  1 31  1  0
  3 32  1  0
  4 33  1  0
  7 34  1  0
  8 35  1  0
  8 36  1  0
 11 37  1  0
 12 38  1  0
 13 39  1  0
 17 40  1  0
 19 41  1  0
 20 42  1  0
 22 43  1  0
 23 44  1  0
 23 45  1  0
 24 46  1  0
 24 47  1  0
 25 48  1  0
 27 49  1  0
M  END
>  <smiles>  (11) 
Cc1ccc2c(c1)CC(c1cccc(C(=O)Nc3ccc(C4CC4)cn3)c1)=N2

>  <score_type>  (11) 
oracle

>  <origin>  (11) 
autodockgpu

>  <m_score__min__energy>  (11) 
-8.5800000000000001

>  <m_primary>  (11) 
energy

>  <rmsd>  (11) 
7.455298394363819

>  <m_score__min__rmsd>  (11) 
7.455298394363819

>  <meeko>  (11) 
{"free_energy": -8.55, "intermolecular_energy": -9.74, "internal_energy": -0.75, "cluster_size": 50, "cluster_id": 1, "rank_in_cluster": 6}

>  <energy>  (11) 
-8.54

>  <cluster_rmsd>  (11) 
0.08

>  <cluster>  (11) 
1

$$$$

     RDKit          3D

 49 53  0  0  0  0  0  0  0  0999 V2000
  141.2120   68.1280  229.0720 C   0  0  0  0  0  0  0  0  0  0  0  0
  140.7020   68.4530  227.7200 C   0  0  0  0  0  0  0  0  0  0  0  0
  139.8680   67.5400  227.0900 C   0  0  0  0  0  0  0  0  0  0  0  0
  139.3640   67.7740  225.8490 C   0  0  0  0  0  0  0  0  0  0  0  0
  139.6940   68.9500  225.2060 C   0  0  0  0  0  0  0  0  0  0  0  0
  140.5160   69.8500  225.8250 C   0  0  0  0  0  0  0  0  0  0  0  0
  141.0390   69.6440  227.0720 C   0  0  0  0  0  0  0  0  0  0  0  0
  140.6910   71.0020  224.9050 C   0  0  0  0  0  0  0  0  0  0  0  0
  139.8840   70.6240  223.7420 C   0  0  0  0  0  0  0  0  0  0  0  0
  139.6940   71.3950  222.5310 C   0  0  0  0  0  0  0  0  0  0  0  0
  139.3230   70.7720  221.3570 C   0  0  0  0  0  0  0  0  0  0  0  0
  139.1470   71.5360  220.2000 C   0  0  0  0  0  0  0  0  0  0  0  0
  139.3480   72.9090  220.2520 C   0  0  0  0  0  0  0  0  0  0  0  0
  139.7190   73.5350  221.4230 C   0  0  0  0  0  0  0  0  0  0  0  0
  139.9420   74.9730  221.5270 C   0  0  0  0  0  0  0  0  0  0  0  0
  140.5460   75.6120  220.6110 O   0  0  0  0  0  0  0  0  0  0  0  0
  139.5090   75.7480  222.6400 N   0  0  0  0  0  0  0  0  0  0  0  0
  139.7450   77.1680  222.7120 C   0  0  0  0  0  0  0  0  0  0  0  0
  141.0770   77.5420  222.7840 C   0  0  0  0  0  0  0  0  0  0  0  0
  141.4140   78.8840  222.8570 C   0  0  0  0  0  0  0  0  0  0  0  0
  140.3660   79.7800  222.8520 C   0  0  0  0  0  0  0  0  0  0  0  0
  140.6600   81.2390  222.9280 C   0  0  0  0  0  0  0  0  0  0  0  0
  141.7710   81.8110  222.0570 C   0  0  0  0  0  0  0  0  0  0  0  0
  142.0180   81.6180  223.5060 C   0  0  0  0  0  0  0  0  0  0  0  0
  139.0570   79.3630  222.7790 C   0  0  0  0  0  0  0  0  0  0  0  0
  138.7350   78.0580  222.7090 N   0  0  0  0  0  0  0  0  0  0  0  0
  139.8830   72.7610  222.5350 C   0  0  0  0  0  0  0  0  0  0  0  0
  139.3320   69.4610  223.9400 N   0  0  0  0  0  0  0  0  0  0  0  0
  140.5399   68.5563  229.8302 H   0  0  0  0  0  0  0  0  0  0  0  0
  141.2548   67.0357  229.1950 H   0  0  0  0  0  0  0  0  0  0  0  0
  142.2201   68.5506  229.1950 H   0  0  0  0  0  0  0  0  0  0  0  0
  139.6084   66.6045  227.6071 H   0  0  0  0  0  0  0  0  0  0  0  0
  138.7043   67.0384  225.3655 H   0  0  0  0  0  0  0  0  0  0  0  0
  141.6984   70.3862  227.5456 H   0  0  0  0  0  0  0  0  0  0  0  0
  140.3171   71.9311  225.3600 H   0  0  0  0  0  0  0  0  0  0  0  0
  141.7438   71.1996  224.6550 H   0  0  0  0  0  0  0  0  0  0  0  0
  139.1671   69.6834  221.3319 H   0  0  0  0  0  0  0  0  0  0  0  0
  138.8518   71.0539  219.2564 H   0  0  0  0  0  0  0  0  0  0  0  0
  139.2085   73.5091  219.3407 H   0  0  0  0  0  0  0  0  0  0  0  0
  139.0060   75.2910  223.4300 H   0  0  0  0  0  0  0  0  0  0  0  0
  141.8655   76.7751  222.7832 H   0  0  0  0  0  0  0  0  0  0  0  0
  142.4609   79.2166  222.9157 H   0  0  0  0  0  0  0  0  0  0  0  0
  139.6071   81.5014  223.1081 H   0  0  0  0  0  0  0  0  0  0  0  0
  142.2790   81.1666  221.3244 H   0  0  0  0  0  0  0  0  0  0  0  0
  141.8499   82.6639  221.3668 H   0  0  0  0  0  0  0  0  0  0  0  0
  142.7083   80.8310  223.8437 H   0  0  0  0  0  0  0  0  0  0  0  0
  142.3541   82.2696  224.3260 H   0  0  0  0  0  0  0  0  0  0  0  0
  138.2538   80.1146  222.7778 H   0  0  0  0  0  0  0  0  0  0  0  0
  140.1789   73.2482  223.4758 H   0  0  0  0  0  0  0  0  0  0  0  0
  1  2  1  0
  2  3  2  0
  3  4  1  0
  4  5  2  0
  5  6  1  0
  6  7  2  0
  6  8  1  0
  8  9  1  0
  9 10  1  0
 10 11  2  0
 11 12  1  0
 12 13  2  0
 13 14  1  0
 14 15  1  0
 15 16  2  0
 15 17  1  0
 17 18  1  0
 18 19  2  0
 19 20  1  0
 20 21  2  0
 21 22  1  0
 22 23  1  0
 23 24  1  0
 21 25  1  0
 25 26  2  0
 14 27  2  0
  9 28  2  0
  7  2  1  0
 27 10  1  0
 28  5  1  0
 26 18  1  0
 24 22  1  0
  1 29  1  0
  1 30  1  0
  1 31  1  0
  3 32  1  0
  4 33  1  0
  7 34  1  0
  8 35  1  0
  8 36  1  0
 11 37  1  0
 12 38  1  0
 13 39  1  0
 17 40  1  0
 19 41  1  0
 20 42  1  0
 22 43  1  0
 23 44  1  0
 23 45  1  0
 24 46  1  0
 24 47  1  0
 25 48  1  0
 27 49  1  0
M  END
>  <smiles>  (12) 
Cc1ccc2c(c1)CC(c1cccc(C(=O)Nc3ccc(C4CC4)cn3)c1)=N2

>  <score_type>  (12) 
oracle

>  <origin>  (12) 
autodockgpu

>  <m_score__min__energy>  (12) 
-8.5800000000000001

>  <m_primary>  (12) 
energy

>  <rmsd>  (12) 
7.457652641492131

>  <m_score__min__rmsd>  (12) 
7.457652641492131

>  <meeko>  (12) 
{"free_energy": -8.55, "intermolecular_energy": -9.74, "internal_energy": -0.75, "cluster_size": 50, "cluster_id": 1, "rank_in_cluster": 7}

>  <energy>  (12) 
-8.54

>  <cluster_rmsd>  (12) 
0.1

>  <cluster>  (12) 
1

$$$$

     RDKit          3D

 49 53  0  0  0  0  0  0  0  0999 V2000
  141.1940   68.1060  229.0660 C   0  0  0  0  0  0  0  0  0  0  0  0
  140.7040   68.4390  227.7080 C   0  0  0  0  0  0  0  0  0  0  0  0
  139.8940   67.5220  227.0530 C   0  0  0  0  0  0  0  0  0  0  0  0
  139.4110   67.7630  225.8060 C   0  0  0  0  0  0  0  0  0  0  0  0
  139.7370   68.9490  225.1810 C   0  0  0  0  0  0  0  0  0  0  0  0
  140.5360   69.8540  225.8250 C   0  0  0  0  0  0  0  0  0  0  0  0
  141.0380   69.6410  227.0790 C   0  0  0  0  0  0  0  0  0  0  0  0
  140.7140   71.0180  224.9200 C   0  0  0  0  0  0  0  0  0  0  0  0
  139.9330   70.6410  223.7390 C   0  0  0  0  0  0  0  0  0  0  0  0
  139.7560   71.4230  222.5320 C   0  0  0  0  0  0  0  0  0  0  0  0
  139.3840   70.8120  221.3510 C   0  0  0  0  0  0  0  0  0  0  0  0
  139.2210   71.5850  220.1990 C   0  0  0  0  0  0  0  0  0  0  0  0
  139.4340   72.9560  220.2630 C   0  0  0  0  0  0  0  0  0  0  0  0
  139.8060   73.5710  221.4400 C   0  0  0  0  0  0  0  0  0  0  0  0
  140.0420   75.0050  221.5550 C   0  0  0  0  0  0  0  0  0  0  0  0
  140.7270   75.6310  220.6880 O   0  0  0  0  0  0  0  0  0  0  0  0
  139.5330   75.7930  222.6270 N   0  0  0  0  0  0  0  0  0  0  0  0
  139.7840   77.2100  222.7110 C   0  0  0  0  0  0  0  0  0  0  0  0
  141.1040   77.5630  222.9400 C   0  0  0  0  0  0  0  0  0  0  0  0
  141.4540   78.9000  223.0390 C   0  0  0  0  0  0  0  0  0  0  0  0
  140.4300   79.8130  222.8970 C   0  0  0  0  0  0  0  0  0  0  0  0
  140.7390   81.2680  222.9920 C   0  0  0  0  0  0  0  0  0  0  0  0
  141.8260   81.8480  222.0970 C   0  0  0  0  0  0  0  0  0  0  0  0
  142.1190   81.6240  223.5320 C   0  0  0  0  0  0  0  0  0  0  0  0
  139.1330   79.4170  222.6700 C   0  0  0  0  0  0  0  0  0  0  0  0
  138.7980   78.1170  222.5750 N   0  0  0  0  0  0  0  0  0  0  0  0
  139.9580   72.7870  222.5460 C   0  0  0  0  0  0  0  0  0  0  0  0
  139.3930   69.4690  223.9140 N   0  0  0  0  0  0  0  0  0  0  0  0
  140.5291   68.5579  229.8168 H   0  0  0  0  0  0  0  0  0  0  0  0
  141.2035   67.0136  229.1947 H   0  0  0  0  0  0  0  0  0  0  0  0
  142.2132   68.4993  229.1947 H   0  0  0  0  0  0  0  0  0  0  0  0
  139.6369   66.5777  227.5552 H   0  0  0  0  0  0  0  0  0  0  0  0
  138.7701   67.0241  225.3027 H   0  0  0  0  0  0  0  0  0  0  0  0
  141.6791   70.3861  227.5727 H   0  0  0  0  0  0  0  0  0  0  0  0
  140.3202   71.9378  225.3771 H   0  0  0  0  0  0  0  0  0  0  0  0
  141.7686   71.2318  224.6917 H   0  0  0  0  0  0  0  0  0  0  0  0
  139.2173   69.7252  221.3176 H   0  0  0  0  0  0  0  0  0  0  0  0
  138.9267   71.1125  219.2503 H   0  0  0  0  0  0  0  0  0  0  0  0
  139.3032   73.5641  219.3557 H   0  0  0  0  0  0  0  0  0  0  0  0
  138.9610   75.3480  223.3760 H   0  0  0  0  0  0  0  0  0  0  0  0
  141.8729   76.7832  223.0431 H   0  0  0  0  0  0  0  0  0  0  0  0
  142.4918   79.2160  223.2209 H   0  0  0  0  0  0  0  0  0  0  0  0
  139.6949   81.5355  223.2117 H   0  0  0  0  0  0  0  0  0  0  0  0
  142.3038   81.2143  221.3354 H   0  0  0  0  0  0  0  0  0  0  0  0
  141.8898   82.7141  221.4218 H   0  0  0  0  0  0  0  0  0  0  0  0
  142.8130   80.8246  223.8309 H   0  0  0  0  0  0  0  0  0  0  0  0
  142.4880   82.2561  224.3532 H   0  0  0  0  0  0  0  0  0  0  0  0
  138.3496   80.1818  222.5634 H   0  0  0  0  0  0  0  0  0  0  0  0
  140.2550   73.2644  223.4915 H   0  0  0  0  0  0  0  0  0  0  0  0
  1  2  1  0
  2  3  2  0
  3  4  1  0
  4  5  2  0
  5  6  1  0
  6  7  2  0
  6  8  1  0
  8  9  1  0
  9 10  1  0
 10 11  2  0
 11 12  1  0
 12 13  2  0
 13 14  1  0
 14 15  1  0
 15 16  2  0
 15 17  1  0
 17 18  1  0
 18 19  2  0
 19 20  1  0
 20 21  2  0
 21 22  1  0
 22 23  1  0
 23 24  1  0
 21 25  1  0
 25 26  2  0
 14 27  2  0
  9 28  2  0
  7  2  1  0
 27 10  1  0
 28  5  1  0
 26 18  1  0
 24 22  1  0
  1 29  1  0
  1 30  1  0
  1 31  1  0
  3 32  1  0
  4 33  1  0
  7 34  1  0
  8 35  1  0
  8 36  1  0
 11 37  1  0
 12 38  1  0
 13 39  1  0
 17 40  1  0
 19 41  1  0
 20 42  1  0
 22 43  1  0
 23 44  1  0
 23 45  1  0
 24 46  1  0
 24 47  1  0
 25 48  1  0
 27 49  1  0
M  END
>  <smiles>  (13) 
Cc1ccc2c(c1)CC(c1cccc(C(=O)Nc3ccc(C4CC4)cn3)c1)=N2

>  <score_type>  (13) 
oracle

>  <origin>  (13) 
autodockgpu

>  <m_score__min__energy>  (13) 
-8.5800000000000001

>  <m_primary>  (13) 
energy

>  <rmsd>  (13) 
7.456062388181554

>  <m_score__min__rmsd>  (13) 
7.456062388181554

>  <meeko>  (13) 
{"free_energy": -8.54, "intermolecular_energy": -9.73, "internal_energy": -0.75, "cluster_size": 50, "cluster_id": 1, "rank_in_cluster": 12}

>  <energy>  (13) 
-8.52

>  <cluster_rmsd>  (13) 
1.2

>  <cluster>  (13) 
1

$$$$

     RDKit          3D

 49 53  0  0  0  0  0  0  0  0999 V2000
  141.1120   68.1360  229.0300 C   0  0  0  0  0  0  0  0  0  0  0  0
  140.6810   68.5020  227.6600 C   0  0  0  0  0  0  0  0  0  0  0  0
  139.9500   67.5770  226.9270 C   0  0  0  0  0  0  0  0  0  0  0  0
  139.5240   67.8470  225.6650 C   0  0  0  0  0  0  0  0  0  0  0  0
  139.8280   69.0710  225.1040 C   0  0  0  0  0  0  0  0  0  0  0  0
  140.5480   69.9830  225.8260 C   0  0  0  0  0  0  0  0  0  0  0  0
  140.9920   69.7420  227.0970 C   0  0  0  0  0  0  0  0  0  0  0  0
  140.7200   71.1900  224.9770 C   0  0  0  0  0  0  0  0  0  0  0  0
  140.0220   70.8270  223.7410 C   0  0  0  0  0  0  0  0  0  0  0  0
  139.8740   71.6480  222.5570 C   0  0  0  0  0  0  0  0  0  0  0  0
  139.6630   71.0660  221.3240 C   0  0  0  0  0  0  0  0  0  0  0  0
  139.5240   71.8770  220.1950 C   0  0  0  0  0  0  0  0  0  0  0  0
  139.6010   73.2570  220.3340 C   0  0  0  0  0  0  0  0  0  0  0  0
  139.8130   73.8440  221.5640 C   0  0  0  0  0  0  0  0  0  0  0  0
  139.9010   75.2860  221.7590 C   0  0  0  0  0  0  0  0  0  0  0  0
  138.8620   76.0160  221.7490 O   0  0  0  0  0  0  0  0  0  0  0  0
  141.1340   75.9680  221.9700 N   0  0  0  0  0  0  0  0  0  0  0  0
  141.1870   77.3960  222.1600 C   0  0  0  0  0  0  0  0  0  0  0  0
  141.0530   78.1500  221.0070 C   0  0  0  0  0  0  0  0  0  0  0  0
  141.0900   79.5330  221.0780 C   0  0  0  0  0  0  0  0  0  0  0  0
  141.2640   80.0770  222.3330 C   0  0  0  0  0  0  0  0  0  0  0  0
  141.3120   81.5590  222.4800 C   0  0  0  0  0  0  0  0  0  0  0  0
  140.1390   82.3870  221.9720 C   0  0  0  0  0  0  0  0  0  0  0  0
  141.3930   82.3570  221.1840 C   0  0  0  0  0  0  0  0  0  0  0  0
  141.3930   79.2880  223.4530 C   0  0  0  0  0  0  0  0  0  0  0  0
  141.3560   77.9450  223.3780 N   0  0  0  0  0  0  0  0  0  0  0  0
  139.9440   73.0230  222.6460 C   0  0  0  0  0  0  0  0  0  0  0  0
  139.5280   69.6260  223.8410 N   0  0  0  0  0  0  0  0  0  0  0  0
  140.4879   68.6660  229.7646 H   0  0  0  0  0  0  0  0  0  0  0  0
  141.0026   67.0506  229.1711 H   0  0  0  0  0  0  0  0  0  0  0  0
  142.1653   68.4198  229.1711 H   0  0  0  0  0  0  0  0  0  0  0  0
  139.7100   66.6029  227.3781 H   0  0  0  0  0  0  0  0  0  0  0  0
  138.9458   67.1016  225.0993 H   0  0  0  0  0  0  0  0  0  0  0  0
  141.5706   70.4942  227.6533 H   0  0  0  0  0  0  0  0  0  0  0  0
  140.2598   72.0721  225.4463 H   0  0  0  0  0  0  0  0  0  0  0  0
  141.7742   71.4595  224.8159 H   0  0  0  0  0  0  0  0  0  0  0  0
  139.6046   69.9715  221.2306 H   0  0  0  0  0  0  0  0  0  0  0  0
  139.3552   71.4271  219.2055 H   0  0  0  0  0  0  0  0  0  0  0  0
  139.4906   73.8949  219.4447 H   0  0  0  0  0  0  0  0  0  0  0  0
  142.0290   75.4340  221.9910 H   0  0  0  0  0  0  0  0  0  0  0  0
  140.9173   77.6518  220.0357 H   0  0  0  0  0  0  0  0  0  0  0  0
  140.9862   80.1628  220.1821 H   0  0  0  0  0  0  0  0  0  0  0  0
  141.8662   81.5053  223.4287 H   0  0  0  0  0  0  0  0  0  0  0  0
  139.2393   81.8838  221.5883 H   0  0  0  0  0  0  0  0  0  0  0  0
  139.5147   83.1853  222.3997 H   0  0  0  0  0  0  0  0  0  0  0  0
  141.4203   81.8314  220.2181 H   0  0  0  0  0  0  0  0  0  0  0  0
  142.0765   83.1236  220.7901 H   0  0  0  0  0  0  0  0  0  0  0  0
  141.5297   79.7670  224.4338 H   0  0  0  0  0  0  0  0  0  0  0  0
  140.1130   73.4777  223.6332 H   0  0  0  0  0  0  0  0  0  0  0  0
  1  2  1  0
  2  3  2  0
  3  4  1  0
  4  5  2  0
  5  6  1  0
  6  7  2  0
  6  8  1  0
  8  9  1  0
  9 10  1  0
 10 11  2  0
 11 12  1  0
 12 13  2  0
 13 14  1  0
 14 15  1  0
 15 16  2  0
 15 17  1  0
 17 18  1  0
 18 19  2  0
 19 20  1  0
 20 21  2  0
 21 22  1  0
 22 23  1  0
 23 24  1  0
 21 25  1  0
 25 26  2  0
 14 27  2  0
  9 28  2  0
  7  2  1  0
 27 10  1  0
 28  5  1  0
 26 18  1  0
 24 22  1  0
  1 29  1  0
  1 30  1  0
  1 31  1  0
  3 32  1  0
  4 33  1  0
  7 34  1  0
  8 35  1  0
  8 36  1  0
 11 37  1  0
 12 38  1  0
 13 39  1  0
 17 40  1  0
 19 41  1  0
 20 42  1  0
 22 43  1  0
 23 44  1  0
 23 45  1  0
 24 46  1  0
 24 47  1  0
 25 48  1  0
 27 49  1  0
M  END
>  <smiles>  (14) 
Cc1ccc2c(c1)CC(c1cccc(C(=O)Nc3ccc(C4CC4)cn3)c1)=N2

>  <score_type>  (14) 
oracle

>  <origin>  (14) 
autodockgpu

>  <m_score__min__energy>  (14) 
-8.5800000000000001

>  <m_primary>  (14) 
energy

>  <rmsd>  (14) 
7.187511686013871

>  <m_score__min__rmsd>  (14) 
7.187511686013871

>  <meeko>  (14) 
{"free_energy": -8.51, "intermolecular_energy": -9.7, "internal_energy": -0.76, "cluster_size": 50, "cluster_id": 1, "rank_in_cluster": 16}

>  <energy>  (14) 
-8.52

>  <cluster_rmsd>  (14) 
1.19

>  <cluster>  (14) 
1

$$$$

     RDKit          3D

 49 53  0  0  0  0  0  0  0  0999 V2000
  141.1550   68.1440  229.0200 C   0  0  0  0  0  0  0  0  0  0  0  0
  140.7110   68.5160  227.6570 C   0  0  0  0  0  0  0  0  0  0  0  0
  139.9180   67.6220  226.9520 C   0  0  0  0  0  0  0  0  0  0  0  0
  139.4760   67.8990  225.6960 C   0  0  0  0  0  0  0  0  0  0  0  0
  139.8280   69.0990  225.1140 C   0  0  0  0  0  0  0  0  0  0  0  0
  140.6100   69.9820  225.8080 C   0  0  0  0  0  0  0  0  0  0  0  0
  141.0710   69.7330  227.0720 C   0  0  0  0  0  0  0  0  0  0  0  0
  140.8220   71.1690  224.9400 C   0  0  0  0  0  0  0  0  0  0  0  0
  140.0780   70.8280  223.7250 C   0  0  0  0  0  0  0  0  0  0  0  0
  139.9440   71.6430  222.5350 C   0  0  0  0  0  0  0  0  0  0  0  0
  139.7460   71.0530  221.3030 C   0  0  0  0  0  0  0  0  0  0  0  0
  139.6200   71.8580  220.1680 C   0  0  0  0  0  0  0  0  0  0  0  0
  139.6970   73.2390  220.3000 C   0  0  0  0  0  0  0  0  0  0  0  0
  139.8960   73.8320  221.5280 C   0  0  0  0  0  0  0  0  0  0  0  0
  139.9840   75.2760  221.7160 C   0  0  0  0  0  0  0  0  0  0  0  0
  138.9440   76.0040  221.7090 O   0  0  0  0  0  0  0  0  0  0  0  0
  141.2170   75.9600  221.9170 N   0  0  0  0  0  0  0  0  0  0  0  0
  141.2700   77.3880  222.1000 C   0  0  0  0  0  0  0  0  0  0  0  0
  141.4310   78.1260  220.9390 C   0  0  0  0  0  0  0  0  0  0  0  0
  141.4950   79.5090  221.0040 C   0  0  0  0  0  0  0  0  0  0  0  0
  141.3890   80.0700  222.2590 C   0  0  0  0  0  0  0  0  0  0  0  0
  141.4480   81.5520  222.3980 C   0  0  0  0  0  0  0  0  0  0  0  0
  140.2470   82.3800  221.9600 C   0  0  0  0  0  0  0  0  0  0  0  0
  141.4520   82.3460  221.0970 C   0  0  0  0  0  0  0  0  0  0  0  0
  141.2290   79.2970  223.3850 C   0  0  0  0  0  0  0  0  0  0  0  0
  141.1680   77.9540  223.3180 N   0  0  0  0  0  0  0  0  0  0  0  0
  140.0150   73.0180  222.6170 C   0  0  0  0  0  0  0  0  0  0  0  0
  139.5280   69.6550  223.8520 N   0  0  0  0  0  0  0  0  0  0  0  0
  140.5333   68.6649  229.7631 H   0  0  0  0  0  0  0  0  0  0  0  0
  141.0539   67.0570  229.1547 H   0  0  0  0  0  0  0  0  0  0  0  0
  142.2075   68.4338  229.1547 H   0  0  0  0  0  0  0  0  0  0  0  0
  139.6401   66.6662  227.4202 H   0  0  0  0  0  0  0  0  0  0  0  0
  138.8478   67.1776  225.1529 H   0  0  0  0  0  0  0  0  0  0  0  0
  141.6994   70.4611  227.6059 H   0  0  0  0  0  0  0  0  0  0  0  0
  140.4178   72.0784  225.4086 H   0  0  0  0  0  0  0  0  0  0  0  0
  141.8844   71.3829  224.7512 H   0  0  0  0  0  0  0  0  0  0  0  0
  139.6879   69.9580  221.2154 H   0  0  0  0  0  0  0  0  0  0  0  0
  139.4613   71.4028  219.1793 H   0  0  0  0  0  0  0  0  0  0  0  0
  139.5971   73.8720  219.4060 H   0  0  0  0  0  0  0  0  0  0  0  0
  142.1120   75.4270  221.9360 H   0  0  0  0  0  0  0  0  0  0  0  0
  141.5079   77.6156  219.9676 H   0  0  0  0  0  0  0  0  0  0  0  0
  141.6235   80.1261  220.1025 H   0  0  0  0  0  0  0  0  0  0  0  0
  142.0588   81.5004  223.3114 H   0  0  0  0  0  0  0  0  0  0  0  0
  139.3251   81.8768  221.6330 H   0  0  0  0  0  0  0  0  0  0  0  0
  139.6505   83.1802  222.4225 H   0  0  0  0  0  0  0  0  0  0  0  0
  141.4203   81.8175  220.1328 H   0  0  0  0  0  0  0  0  0  0  0  0
  142.1115   83.1104  220.6602 H   0  0  0  0  0  0  0  0  0  0  0  0
  141.1488   79.7888  224.3657 H   0  0  0  0  0  0  0  0  0  0  0  0
  140.1745   73.4786  223.6031 H   0  0  0  0  0  0  0  0  0  0  0  0
  1  2  1  0
  2  3  2  0
  3  4  1  0
  4  5  2  0
  5  6  1  0
  6  7  2  0
  6  8  1  0
  8  9  1  0
  9 10  1  0
 10 11  2  0
 11 12  1  0
 12 13  2  0
 13 14  1  0
 14 15  1  0
 15 16  2  0
 15 17  1  0
 17 18  1  0
 18 19  2  0
 19 20  1  0
 20 21  2  0
 21 22  1  0
 22 23  1  0
 23 24  1  0
 21 25  1  0
 25 26  2  0
 14 27  2  0
  9 28  2  0
  7  2  1  0
 27 10  1  0
 28  5  1  0
 26 18  1  0
 24 22  1  0
  1 29  1  0
  1 30  1  0
  1 31  1  0
  3 32  1  0
  4 33  1  0
  7 34  1  0
  8 35  1  0
  8 36  1  0
 11 37  1  0
 12 38  1  0
 13 39  1  0
 17 40  1  0
 19 41  1  0
 20 42  1  0
 22 43  1  0
 23 44  1  0
 23 45  1  0
 24 46  1  0
 24 47  1  0
 25 48  1  0
 27 49  1  0
M  END
>  <smiles>  (15) 
Cc1ccc2c(c1)CC(c1cccc(C(=O)Nc3ccc(C4CC4)cn3)c1)=N2

>  <score_type>  (15) 
oracle

>  <origin>  (15) 
autodockgpu

>  <m_score__min__energy>  (15) 
-8.5800000000000001

>  <m_primary>  (15) 
energy

>  <rmsd>  (15) 
7.176804401774471

>  <m_score__min__rmsd>  (15) 
7.176804401774471

>  <meeko>  (15) 
{"free_energy": -8.51, "intermolecular_energy": -9.7, "internal_energy": -0.75, "cluster_size": 50, "cluster_id": 1, "rank_in_cluster": 18}

>  <energy>  (15) 
-8.51

>  <cluster_rmsd>  (15) 
1.19

>  <cluster>  (15) 
1

$$$$

     RDKit          3D

 49 53  0  0  0  0  0  0  0  0999 V2000
  141.0230   68.1760  229.0520 C   0  0  0  0  0  0  0  0  0  0  0  0
  140.6150   68.5550  227.6790 C   0  0  0  0  0  0  0  0  0  0  0  0
  139.7580   67.7110  226.9870 C   0  0  0  0  0  0  0  0  0  0  0  0
  139.3450   67.9970  225.7230 C   0  0  0  0  0  0  0  0  0  0  0  0
  139.7920   69.1550  225.1200 C   0  0  0  0  0  0  0  0  0  0  0  0
  140.6360   69.9880  225.8020 C   0  0  0  0  0  0  0  0  0  0  0  0
  141.0710   69.7280  227.0730 C   0  0  0  0  0  0  0  0  0  0  0  0
  140.9440   71.1370  224.9140 C   0  0  0  0  0  0  0  0  0  0  0  0
  140.1810   70.8320  223.7010 C   0  0  0  0  0  0  0  0  0  0  0  0
  140.1160   71.6310  222.4940 C   0  0  0  0  0  0  0  0  0  0  0  0
  140.0410   71.0250  221.2570 C   0  0  0  0  0  0  0  0  0  0  0  0
  139.9800   71.8160  220.1060 C   0  0  0  0  0  0  0  0  0  0  0  0
  139.9960   73.1990  220.2290 C   0  0  0  0  0  0  0  0  0  0  0  0
  140.0710   73.8100  221.4630 C   0  0  0  0  0  0  0  0  0  0  0  0
  140.0910   75.2570  221.6410 C   0  0  0  0  0  0  0  0  0  0  0  0
  139.0170   75.9140  221.8030 O   0  0  0  0  0  0  0  0  0  0  0  0
  141.2920   76.0230  221.6460 N   0  0  0  0  0  0  0  0  0  0  0  0
  141.2770   77.4530  221.8250 C   0  0  0  0  0  0  0  0  0  0  0  0
  141.1750   77.8820  223.1370 C   0  0  0  0  0  0  0  0  0  0  0  0
  141.1520   79.2380  223.4200 C   0  0  0  0  0  0  0  0  0  0  0  0
  141.2360   80.0910  222.3400 C   0  0  0  0  0  0  0  0  0  0  0  0
  141.2180   81.5630  222.5750 C   0  0  0  0  0  0  0  0  0  0  0  0
  140.0870   82.3880  221.9750 C   0  0  0  0  0  0  0  0  0  0  0  0
  141.4280   82.4390  221.3450 C   0  0  0  0  0  0  0  0  0  0  0  0
  141.3370   79.6200  221.0520 C   0  0  0  0  0  0  0  0  0  0  0  0
  141.3580   78.3010  220.7820 N   0  0  0  0  0  0  0  0  0  0  0  0
  140.1290   73.0090  222.5660 C   0  0  0  0  0  0  0  0  0  0  0  0
  139.5410   69.7080  223.8460 N   0  0  0  0  0  0  0  0  0  0  0  0
  140.4198   68.7363  229.7816 H   0  0  0  0  0  0  0  0  0  0  0  0
  140.8648   67.0971  229.1969 H   0  0  0  0  0  0  0  0  0  0  0  0
  142.0873   68.4132  229.1969 H   0  0  0  0  0  0  0  0  0  0  0  0
  139.4044   66.7892  227.4720 H   0  0  0  0  0  0  0  0  0  0  0  0
  138.6654   67.3160  225.1898 H   0  0  0  0  0  0  0  0  0  0  0  0
  141.7523   70.4150  227.5964 H   0  0  0  0  0  0  0  0  0  0  0  0
  140.6101   72.0840  225.3631 H   0  0  0  0  0  0  0  0  0  0  0  0
  142.0207   71.2636  224.7277 H   0  0  0  0  0  0  0  0  0  0  0  0
  140.0293   69.9280  221.1770 H   0  0  0  0  0  0  0  0  0  0  0  0
  139.9199   71.3474  219.1126 H   0  0  0  0  0  0  0  0  0  0  0  0
  139.9478   73.8205  219.3227 H   0  0  0  0  0  0  0  0  0  0  0  0
  142.2120   75.5510  221.5190 H   0  0  0  0  0  0  0  0  0  0  0  0
  141.1123   77.1476  223.9535 H   0  0  0  0  0  0  0  0  0  0  0  0
  141.0711   79.6138  224.4506 H   0  0  0  0  0  0  0  0  0  0  0  0
  141.6563   81.4677  223.5794 H   0  0  0  0  0  0  0  0  0  0  0  0
  139.2576   81.8845  221.4568 H   0  0  0  0  0  0  0  0  0  0  0  0
  139.3890   83.1422  222.3675 H   0  0  0  0  0  0  0  0  0  0  0  0
  141.5892   81.9729  220.3618 H   0  0  0  0  0  0  0  0  0  0  0  0
  142.1277   83.2457  221.0811 H   0  0  0  0  0  0  0  0  0  0  0  0
  141.4023   80.3386  220.2217 H   0  0  0  0  0  0  0  0  0  0  0  0
  140.1888   73.4828  223.5569 H   0  0  0  0  0  0  0  0  0  0  0  0
  1  2  1  0
  2  3  2  0
  3  4  1  0
  4  5  2  0
  5  6  1  0
  6  7  2  0
  6  8  1  0
  8  9  1  0
  9 10  1  0
 10 11  2  0
 11 12  1  0
 12 13  2  0
 13 14  1  0
 14 15  1  0
 15 16  2  0
 15 17  1  0
 17 18  1  0
 18 19  2  0
 19 20  1  0
 20 21  2  0
 21 22  1  0
 22 23  1  0
 23 24  1  0
 21 25  1  0
 25 26  2  0
 14 27  2  0
  9 28  2  0
  7  2  1  0
 27 10  1  0
 28  5  1  0
 26 18  1  0
 24 22  1  0
  1 29  1  0
  1 30  1  0
  1 31  1  0
  3 32  1  0
  4 33  1  0
  7 34  1  0
  8 35  1  0
  8 36  1  0
 11 37  1  0
 12 38  1  0
 13 39  1  0
 17 40  1  0
 19 41  1  0
 20 42  1  0
 22 43  1  0
 23 44  1  0
 23 45  1  0
 24 46  1  0
 24 47  1  0
 25 48  1  0
 27 49  1  0
M  END
>  <smiles>  (16) 
Cc1ccc2c(c1)CC(c1cccc(C(=O)Nc3ccc(C4CC4)cn3)c1)=N2

>  <score_type>  (16) 
oracle

>  <origin>  (16) 
autodockgpu

>  <m_score__min__energy>  (16) 
-8.5800000000000001

>  <m_primary>  (16) 
energy

>  <rmsd>  (16) 
7.280313911271154

>  <m_score__min__rmsd>  (16) 
7.280313911271154

>  <meeko>  (16) 
{"free_energy": -8.46, "intermolecular_energy": -9.65, "internal_energy": -0.77, "cluster_size": 50, "cluster_id": 1, "rank_in_cluster": 38}

>  <energy>  (16) 
-8.51

>  <cluster_rmsd>  (16) 
1.19

>  <cluster>  (16) 
1

$$$$

     RDKit          3D

 49 53  0  0  0  0  0  0  0  0999 V2000
  141.3160   68.1410  229.0880 C   0  0  0  0  0  0  0  0  0  0  0  0
  140.8260   68.4450  227.7240 C   0  0  0  0  0  0  0  0  0  0  0  0
  140.0920   67.4770  227.0530 C   0  0  0  0  0  0  0  0  0  0  0  0
  139.6130   67.6900  225.7980 C   0  0  0  0  0  0  0  0  0  0  0  0
  139.8650   68.8990  225.1830 C   0  0  0  0  0  0  0  0  0  0  0  0
  140.5890   69.8540  225.8430 C   0  0  0  0  0  0  0  0  0  0  0  0
  141.0850   69.6710  227.1050 C   0  0  0  0  0  0  0  0  0  0  0  0
  140.6990   71.0320  224.9460 C   0  0  0  0  0  0  0  0  0  0  0  0
  139.9650   70.6080  223.7510 C   0  0  0  0  0  0  0  0  0  0  0  0
  139.7530   71.3810  222.5450 C   0  0  0  0  0  0  0  0  0  0  0  0
  139.3570   70.7610  221.3770 C   0  0  0  0  0  0  0  0  0  0  0  0
  139.1590   71.5260  220.2250 C   0  0  0  0  0  0  0  0  0  0  0  0
  139.3650   72.8990  220.2750 C   0  0  0  0  0  0  0  0  0  0  0  0
  139.7610   73.5230  221.4390 C   0  0  0  0  0  0  0  0  0  0  0  0
  139.9890   74.9600  221.5400 C   0  0  0  0  0  0  0  0  0  0  0  0
  140.6330   75.5880  220.6440 O   0  0  0  0  0  0  0  0  0  0  0  0
  139.5180   75.7470  222.6290 N   0  0  0  0  0  0  0  0  0  0  0  0
  139.7610   77.1660  222.7000 C   0  0  0  0  0  0  0  0  0  0  0  0
  141.0940   77.5340  222.7570 C   0  0  0  0  0  0  0  0  0  0  0  0
  141.4380   78.8750  222.8270 C   0  0  0  0  0  0  0  0  0  0  0  0
  140.3940   79.7760  222.8340 C   0  0  0  0  0  0  0  0  0  0  0  0
  140.6940   81.2330  222.9070 C   0  0  0  0  0  0  0  0  0  0  0  0
  141.8270   81.7930  222.0570 C   0  0  0  0  0  0  0  0  0  0  0  0
  142.0420   81.6080  223.5120 C   0  0  0  0  0  0  0  0  0  0  0  0
  139.0820   79.3640  222.7750 C   0  0  0  0  0  0  0  0  0  0  0  0
  138.7540   78.0600  222.7070 N   0  0  0  0  0  0  0  0  0  0  0  0
  139.9450   72.7470  222.5460 C   0  0  0  0  0  0  0  0  0  0  0  0
  139.5060   69.4000  223.9130 N   0  0  0  0  0  0  0  0  0  0  0  0
  140.6256   68.5693  229.8296 H   0  0  0  0  0  0  0  0  0  0  0  0
  141.3697   67.0507  229.2238 H   0  0  0  0  0  0  0  0  0  0  0  0
  142.3167   68.5771  229.2238 H   0  0  0  0  0  0  0  0  0  0  0  0
  139.8929   66.5149  227.5478 H   0  0  0  0  0  0  0  0  0  0  0  0
  139.0337   66.9105  225.2814 H   0  0  0  0  0  0  0  0  0  0  0  0
  141.6641   70.4570  227.6118 H   0  0  0  0  0  0  0  0  0  0  0  0
  140.2347   71.9195  225.4007 H   0  0  0  0  0  0  0  0  0  0  0  0
  141.7395   71.3200  224.7354 H   0  0  0  0  0  0  0  0  0  0  0  0
  139.1985   69.6727  221.3535 H   0  0  0  0  0  0  0  0  0  0  0  0
  138.8430   71.0458  219.2872 H   0  0  0  0  0  0  0  0  0  0  0  0
  139.2090   73.5006  219.3674 H   0  0  0  0  0  0  0  0  0  0  0  0
  138.9810   75.3000  223.4030 H   0  0  0  0  0  0  0  0  0  0  0  0
  141.8791   76.7636  222.7468 H   0  0  0  0  0  0  0  0  0  0  0  0
  142.4870   79.2027  222.8744 H   0  0  0  0  0  0  0  0  0  0  0  0
  139.6389   81.5026  223.0624 H   0  0  0  0  0  0  0  0  0  0  0  0
  142.3469   81.1410  221.3396 H   0  0  0  0  0  0  0  0  0  0  0  0
  141.9256   82.6411  221.3635 H   0  0  0  0  0  0  0  0  0  0  0  0
  142.7203   80.8192  223.8694 H   0  0  0  0  0  0  0  0  0  0  0  0
  142.3644   82.2628  224.3349 H   0  0  0  0  0  0  0  0  0  0  0  0
  138.2818   80.1187  222.7836 H   0  0  0  0  0  0  0  0  0  0  0  0
  140.2606   73.2324  223.4813 H   0  0  0  0  0  0  0  0  0  0  0  0
  1  2  1  0
  2  3  2  0
  3  4  1  0
  4  5  2  0
  5  6  1  0
  6  7  2  0
  6  8  1  0
  8  9  1  0
  9 10  1  0
 10 11  2  0
 11 12  1  0
 12 13  2  0
 13 14  1  0
 14 15  1  0
 15 16  2  0
 15 17  1  0
 17 18  1  0
 18 19  2  0
 19 20  1  0
 20 21  2  0
 21 22  1  0
 22 23  1  0
 23 24  1  0
 21 25  1  0
 25 26  2  0
 14 27  2  0
  9 28  2  0
  7  2  1  0
 27 10  1  0
 28  5  1  0
 26 18  1  0
 24 22  1  0
  1 29  1  0
  1 30  1  0
  1 31  1  0
  3 32  1  0
  4 33  1  0
  7 34  1  0
  8 35  1  0
  8 36  1  0
 11 37  1  0
 12 38  1  0
 13 39  1  0
 17 40  1  0
 19 41  1  0
 20 42  1  0
 22 43  1  0
 23 44  1  0
 23 45  1  0
 24 46  1  0
 24 47  1  0
 25 48  1  0
 27 49  1  0
M  END
>  <smiles>  (17) 
Cc1ccc2c(c1)CC(c1cccc(C(=O)Nc3ccc(C4CC4)cn3)c1)=N2

>  <score_type>  (17) 
oracle

>  <origin>  (17) 
autodockgpu

>  <m_score__min__energy>  (17) 
-8.5800000000000001

>  <m_primary>  (17) 
energy

>  <rmsd>  (17) 
7.45586563984337

>  <m_score__min__rmsd>  (17) 
7.45586563984337

>  <meeko>  (17) 
{"free_energy": -8.55, "intermolecular_energy": -9.75, "internal_energy": -0.74, "cluster_size": 50, "cluster_id": 1, "rank_in_cluster": 5}

>  <energy>  (17) 
-8.51

>  <cluster_rmsd>  (17) 
1.19

>  <cluster>  (17) 
1

$$$$

     RDKit          3D

 49 53  0  0  0  0  0  0  0  0999 V2000
  141.0130   68.2060  229.0240 C   0  0  0  0  0  0  0  0  0  0  0  0
  140.5940   68.5830  227.6540 C   0  0  0  0  0  0  0  0  0  0  0  0
  139.7130   67.7510  226.9790 C   0  0  0  0  0  0  0  0  0  0  0  0
  139.2880   68.0370  225.7190 C   0  0  0  0  0  0  0  0  0  0  0  0
  139.7480   69.1840  225.1030 C   0  0  0  0  0  0  0  0  0  0  0  0
  140.6170   70.0040  225.7680 C   0  0  0  0  0  0  0  0  0  0  0  0
  141.0630   69.7450  227.0350 C   0  0  0  0  0  0  0  0  0  0  0  0
  140.9340   71.1430  224.8680 C   0  0  0  0  0  0  0  0  0  0  0  0
  140.1500   70.8440  223.6670 C   0  0  0  0  0  0  0  0  0  0  0  0
  140.0840   71.6370  222.4570 C   0  0  0  0  0  0  0  0  0  0  0  0
  139.9760   71.0240  221.2250 C   0  0  0  0  0  0  0  0  0  0  0  0
  139.9150   71.8090  220.0710 C   0  0  0  0  0  0  0  0  0  0  0  0
  139.9620   73.1930  220.1830 C   0  0  0  0  0  0  0  0  0  0  0  0
  140.0700   73.8090  221.4120 C   0  0  0  0  0  0  0  0  0  0  0  0
  140.1240   75.2570  221.5800 C   0  0  0  0  0  0  0  0  0  0  0  0
  139.0640   75.9470  221.6800 O   0  0  0  0  0  0  0  0  0  0  0  0
  141.3460   75.9870  221.6430 N   0  0  0  0  0  0  0  0  0  0  0  0
  141.3650   77.4180  221.8100 C   0  0  0  0  0  0  0  0  0  0  0  0
  141.0810   77.8660  223.0890 C   0  0  0  0  0  0  0  0  0  0  0  0
  141.0730   79.2250  223.3590 C   0  0  0  0  0  0  0  0  0  0  0  0
  141.3590   80.0620  222.3000 C   0  0  0  0  0  0  0  0  0  0  0  0
  141.3670   81.5350  222.5220 C   0  0  0  0  0  0  0  0  0  0  0  0
  140.1970   82.3630  222.0050 C   0  0  0  0  0  0  0  0  0  0  0  0
  141.4850   82.3990  221.2710 C   0  0  0  0  0  0  0  0  0  0  0  0
  141.6360   79.5710  221.0450 C   0  0  0  0  0  0  0  0  0  0  0  0
  141.6420   78.2500  220.7880 N   0  0  0  0  0  0  0  0  0  0  0  0
  140.1280   73.0140  222.5200 C   0  0  0  0  0  0  0  0  0  0  0  0
  139.4910   69.7330  223.8280 N   0  0  0  0  0  0  0  0  0  0  0  0
  140.4037   68.7542  229.7577 H   0  0  0  0  0  0  0  0  0  0  0  0
  140.8725   67.1243  229.1658 H   0  0  0  0  0  0  0  0  0  0  0  0
  142.0739   68.4596  229.1658 H   0  0  0  0  0  0  0  0  0  0  0  0
  139.3495   66.8385  227.4743 H   0  0  0  0  0  0  0  0  0  0  0  0
  138.5890   67.3653  225.1991 H   0  0  0  0  0  0  0  0  0  0  0  0
  141.7621   70.4235  227.5457 H   0  0  0  0  0  0  0  0  0  0  0  0
  140.6227   72.0985  225.3153 H   0  0  0  0  0  0  0  0  0  0  0  0
  142.0102   71.2494  224.6670 H   0  0  0  0  0  0  0  0  0  0  0  0
  139.9383   69.9270  221.1525 H   0  0  0  0  0  0  0  0  0  0  0  0
  139.8304   71.3352  219.0819 H   0  0  0  0  0  0  0  0  0  0  0  0
  139.9121   73.8095  219.2734 H   0  0  0  0  0  0  0  0  0  0  0  0
  142.2570   75.4870  221.5690 H   0  0  0  0  0  0  0  0  0  0  0  0
  140.8620   77.1441  223.8896 H   0  0  0  0  0  0  0  0  0  0  0  0
  140.8507   79.6154  224.3631 H   0  0  0  0  0  0  0  0  0  0  0  0
  141.8817   81.4454  223.4900 H   0  0  0  0  0  0  0  0  0  0  0  0
  139.3262   81.8609  221.5582 H   0  0  0  0  0  0  0  0  0  0  0  0
  139.5368   83.1254  222.4441 H   0  0  0  0  0  0  0  0  0  0  0  0
  141.5654   81.9232  220.2825 H   0  0  0  0  0  0  0  0  0  0  0  0
  142.1668   83.1985  220.9455 H   0  0  0  0  0  0  0  0  0  0  0  0
  141.8583   80.2763  220.2307 H   0  0  0  0  0  0  0  0  0  0  0  0
  140.2136   73.4927  223.5067 H   0  0  0  0  0  0  0  0  0  0  0  0
  1  2  1  0
  2  3  2  0
  3  4  1  0
  4  5  2  0
  5  6  1  0
  6  7  2  0
  6  8  1  0
  8  9  1  0
  9 10  1  0
 10 11  2  0
 11 12  1  0
 12 13  2  0
 13 14  1  0
 14 15  1  0
 15 16  2  0
 15 17  1  0
 17 18  1  0
 18 19  2  0
 19 20  1  0
 20 21  2  0
 21 22  1  0
 22 23  1  0
 23 24  1  0
 21 25  1  0
 25 26  2  0
 14 27  2  0
  9 28  2  0
  7  2  1  0
 27 10  1  0
 28  5  1  0
 26 18  1  0
 24 22  1  0
  1 29  1  0
  1 30  1  0
  1 31  1  0
  3 32  1  0
  4 33  1  0
  7 34  1  0
  8 35  1  0
  8 36  1  0
 11 37  1  0
 12 38  1  0
 13 39  1  0
 17 40  1  0
 19 41  1  0
 20 42  1  0
 22 43  1  0
 23 44  1  0
 23 45  1  0
 24 46  1  0
 24 47  1  0
 25 48  1  0
 27 49  1  0
M  END
>  <smiles>  (18) 
Cc1ccc2c(c1)CC(c1cccc(C(=O)Nc3ccc(C4CC4)cn3)c1)=N2

>  <score_type>  (18) 
oracle

>  <origin>  (18) 
autodockgpu

>  <m_score__min__energy>  (18) 
-8.5800000000000001

>  <m_primary>  (18) 
energy

>  <rmsd>  (18) 
7.274431387320448

>  <m_score__min__rmsd>  (18) 
7.274431387320448

>  <meeko>  (18) 
{"free_energy": -8.44, "intermolecular_energy": -9.63, "internal_energy": -0.77, "cluster_size": 50, "cluster_id": 1, "rank_in_cluster": 42}

>  <energy>  (18) 
-8.51

>  <cluster_rmsd>  (18) 
1.2

>  <cluster>  (18) 
1

$$$$

     RDKit          3D

 49 53  0  0  0  0  0  0  0  0999 V2000
  140.9360   68.1530  229.0490 C   0  0  0  0  0  0  0  0  0  0  0  0
  140.5540   68.5510  227.6740 C   0  0  0  0  0  0  0  0  0  0  0  0
  139.6600   67.7500  226.9780 C   0  0  0  0  0  0  0  0  0  0  0  0
  139.2680   68.0560  225.7120 C   0  0  0  0  0  0  0  0  0  0  0  0
  139.7730   69.1910  225.1120 C   0  0  0  0  0  0  0  0  0  0  0  0
  140.6540   69.9810  225.7980 C   0  0  0  0  0  0  0  0  0  0  0  0
  141.0690   69.7010  227.0710 C   0  0  0  0  0  0  0  0  0  0  0  0
  141.0210   71.1150  224.9110 C   0  0  0  0  0  0  0  0  0  0  0  0
  140.2510   70.8470  223.6940 C   0  0  0  0  0  0  0  0  0  0  0  0
  140.2300   71.6480  222.4880 C   0  0  0  0  0  0  0  0  0  0  0  0
  140.2410   71.0440  221.2470 C   0  0  0  0  0  0  0  0  0  0  0  0
  140.2220   71.8370  220.0970 C   0  0  0  0  0  0  0  0  0  0  0  0
  140.1920   73.2200  220.2220 C   0  0  0  0  0  0  0  0  0  0  0  0
  140.1820   73.8280  221.4600 C   0  0  0  0  0  0  0  0  0  0  0  0
  140.1510   75.2740  221.6420 C   0  0  0  0  0  0  0  0  0  0  0  0
  139.0520   75.9000  221.7490 O   0  0  0  0  0  0  0  0  0  0  0  0
  141.3270   76.0740  221.7110 N   0  0  0  0  0  0  0  0  0  0  0  0
  141.2630   77.5030  221.8920 C   0  0  0  0  0  0  0  0  0  0  0  0
  141.4230   77.9400  223.1960 C   0  0  0  0  0  0  0  0  0  0  0  0
  141.3780   79.2960  223.4800 C   0  0  0  0  0  0  0  0  0  0  0  0
  141.1710   80.1400  222.4090 C   0  0  0  0  0  0  0  0  0  0  0  0
  141.1120   81.6100  222.6460 C   0  0  0  0  0  0  0  0  0  0  0  0
  140.0320   82.4240  221.9450 C   0  0  0  0  0  0  0  0  0  0  0  0
  141.4250   82.4930  221.4430 C   0  0  0  0  0  0  0  0  0  0  0  0
  141.0160   79.6600  221.1290 C   0  0  0  0  0  0  0  0  0  0  0  0
  141.0610   78.3420  220.8580 N   0  0  0  0  0  0  0  0  0  0  0  0
  140.2010   73.0250  222.5630 C   0  0  0  0  0  0  0  0  0  0  0  0
  139.5550   69.7550  223.8360 N   0  0  0  0  0  0  0  0  0  0  0  0
  140.3640   68.7489  229.7755 H   0  0  0  0  0  0  0  0  0  0  0  0
  140.7158   67.0854  229.1962 H   0  0  0  0  0  0  0  0  0  0  0  0
  142.0118   68.3292  229.1962 H   0  0  0  0  0  0  0  0  0  0  0  0
  139.2591   66.8468  227.4612 H   0  0  0  0  0  0  0  0  0  0  0  0
  138.5593   67.4085  225.1749 H   0  0  0  0  0  0  0  0  0  0  0  0
  141.7793   70.3547  227.5983 H   0  0  0  0  0  0  0  0  0  0  0  0
  140.7301   72.0768  225.3587 H   0  0  0  0  0  0  0  0  0  0  0  0
  142.1034   71.1900  224.7302 H   0  0  0  0  0  0  0  0  0  0  0  0
  140.2645   69.9474  221.1641 H   0  0  0  0  0  0  0  0  0  0  0  0
  140.2307   71.3701  219.1010 H   0  0  0  0  0  0  0  0  0  0  0  0
  140.1759   73.8429  219.3155 H   0  0  0  0  0  0  0  0  0  0  0  0
  142.2660   75.6300  221.6310 H   0  0  0  0  0  0  0  0  0  0  0  0
  141.5855   77.2126  224.0050 H   0  0  0  0  0  0  0  0  0  0  0  0
  141.5007   79.6782  224.5041 H   0  0  0  0  0  0  0  0  0  0  0  0
  141.4551   81.5161  223.6869 H   0  0  0  0  0  0  0  0  0  0  0  0
  139.2606   81.9127  221.3504 H   0  0  0  0  0  0  0  0  0  0  0  0
  139.2915   83.1685  222.2725 H   0  0  0  0  0  0  0  0  0  0  0  0
  141.6827   82.0324  220.4779 H   0  0  0  0  0  0  0  0  0  0  0  0
  142.1365   83.3088  221.2475 H   0  0  0  0  0  0  0  0  0  0  0  0
  140.8511   80.3711  220.3061 H   0  0  0  0  0  0  0  0  0  0  0  0
  140.1928   73.4969  223.5566 H   0  0  0  0  0  0  0  0  0  0  0  0
  1  2  1  0
  2  3  2  0
  3  4  1  0
  4  5  2  0
  5  6  1  0
  6  7  2  0
  6  8  1  0
  8  9  1  0
  9 10  1  0
 10 11  2  0
 11 12  1  0
 12 13  2  0
 13 14  1  0
 14 15  1  0
 15 16  2  0
 15 17  1  0
 17 18  1  0
 18 19  2  0
 19 20  1  0
 20 21  2  0
 21 22  1  0
 22 23  1  0
 23 24  1  0
 21 25  1  0
 25 26  2  0
 14 27  2  0
  9 28  2  0
  7  2  1  0
 27 10  1  0
 28  5  1  0
 26 18  1  0
 24 22  1  0
  1 29  1  0
  1 30  1  0
  1 31  1  0
  3 32  1  0
  4 33  1  0
  7 34  1  0
  8 35  1  0
  8 36  1  0
 11 37  1  0
 12 38  1  0
 13 39  1  0
 17 40  1  0
 19 41  1  0
 20 42  1  0
 22 43  1  0
 23 44  1  0
 23 45  1  0
 24 46  1  0
 24 47  1  0
 25 48  1  0
 27 49  1  0
M  END
>  <smiles>  (19) 
Cc1ccc2c(c1)CC(c1cccc(C(=O)Nc3ccc(C4CC4)cn3)c1)=N2

>  <score_type>  (19) 
oracle

>  <origin>  (19) 
autodockgpu

>  <m_score__min__energy>  (19) 
-8.5800000000000001

>  <m_primary>  (19) 
energy

>  <rmsd>  (19) 
7.293942653723807

>  <m_score__min__rmsd>  (19) 
7.293942653723807

>  <meeko>  (19) 
{"free_energy": -8.47, "intermolecular_energy": -9.66, "internal_energy": -0.76, "cluster_size": 50, "cluster_id": 1, "rank_in_cluster": 34}

>  <energy>  (19) 
-8.51

>  <cluster_rmsd>  (19) 
1.19

>  <cluster>  (19) 
1

$$$$

     RDKit          3D

 49 53  0  0  0  0  0  0  0  0999 V2000
  140.9950   68.1620  229.0200 C   0  0  0  0  0  0  0  0  0  0  0  0
  140.5730   68.5540  227.6550 C   0  0  0  0  0  0  0  0  0  0  0  0
  139.6670   67.7440  226.9850 C   0  0  0  0  0  0  0  0  0  0  0  0
  139.2380   68.0440  225.7300 C   0  0  0  0  0  0  0  0  0  0  0  0
  139.7180   69.1810  225.1130 C   0  0  0  0  0  0  0  0  0  0  0  0
  140.6110   69.9800  225.7730 C   0  0  0  0  0  0  0  0  0  0  0  0
  141.0630   69.7060  227.0350 C   0  0  0  0  0  0  0  0  0  0  0  0
  140.9460   71.1130  224.8740 C   0  0  0  0  0  0  0  0  0  0  0  0
  140.1450   70.8370  223.6790 C   0  0  0  0  0  0  0  0  0  0  0  0
  140.0860   71.6340  222.4720 C   0  0  0  0  0  0  0  0  0  0  0  0
  140.0580   71.0270  221.2330 C   0  0  0  0  0  0  0  0  0  0  0  0
  140.0020   71.8170  220.0810 C   0  0  0  0  0  0  0  0  0  0  0  0
  139.9750   73.2000  220.2040 C   0  0  0  0  0  0  0  0  0  0  0  0
  140.0020   73.8110  221.4400 C   0  0  0  0  0  0  0  0  0  0  0  0
  139.9750   75.2580  221.6190 C   0  0  0  0  0  0  0  0  0  0  0  0
  138.8930   75.9130  221.5160 O   0  0  0  0  0  0  0  0  0  0  0  0
  141.1380   76.0270  221.9140 N   0  0  0  0  0  0  0  0  0  0  0  0
  141.0770   77.4560  222.0860 C   0  0  0  0  0  0  0  0  0  0  0  0
  141.4580   77.9180  223.3350 C   0  0  0  0  0  0  0  0  0  0  0  0
  141.4370   79.2760  223.6050 C   0  0  0  0  0  0  0  0  0  0  0  0
  141.0250   80.0990  222.5770 C   0  0  0  0  0  0  0  0  0  0  0  0
  140.9800   81.5720  222.8020 C   0  0  0  0  0  0  0  0  0  0  0  0
  140.0130   82.4110  221.9770 C   0  0  0  0  0  0  0  0  0  0  0  0
  141.4570   82.4390  221.6430 C   0  0  0  0  0  0  0  0  0  0  0  0
  140.6550   79.5960  221.3520 C   0  0  0  0  0  0  0  0  0  0  0  0
  140.6770   78.2750  221.0940 N   0  0  0  0  0  0  0  0  0  0  0  0
  140.0570   73.0120  222.5440 C   0  0  0  0  0  0  0  0  0  0  0  0
  139.4620   69.7400  223.8430 N   0  0  0  0  0  0  0  0  0  0  0  0
  140.3994   68.7153  229.7610 H   0  0  0  0  0  0  0  0  0  0  0  0
  140.8382   67.0818  229.1562 H   0  0  0  0  0  0  0  0  0  0  0  0
  142.0607   68.3979  229.1562 H   0  0  0  0  0  0  0  0  0  0  0  0
  139.2871   66.8384  227.4806 H   0  0  0  0  0  0  0  0  0  0  0  0
  138.5192   67.3901  225.2145 H   0  0  0  0  0  0  0  0  0  0  0  0
  141.7830   70.3660  227.5409 H   0  0  0  0  0  0  0  0  0  0  0  0
  140.6612   72.0741  225.3270 H   0  0  0  0  0  0  0  0  0  0  0  0
  142.0226   71.1943  224.6636 H   0  0  0  0  0  0  0  0  0  0  0  0
  140.0796   69.9302  221.1525 H   0  0  0  0  0  0  0  0  0  0  0  0
  139.9795   71.3476  219.0865 H   0  0  0  0  0  0  0  0  0  0  0  0
  139.9312   73.8208  219.2970 H   0  0  0  0  0  0  0  0  0  0  0  0
  142.0620   75.5570  222.0140 H   0  0  0  0  0  0  0  0  0  0  0  0
  141.7768   77.2070  224.1114 H   0  0  0  0  0  0  0  0  0  0  0  0
  141.7327   79.6769  224.5857 H   0  0  0  0  0  0  0  0  0  0  0  0
  141.1957   81.4746  223.8762 H   0  0  0  0  0  0  0  0  0  0  0  0
  139.3032   81.9177  221.2967 H   0  0  0  0  0  0  0  0  0  0  0  0
  139.2599   83.1772  222.2131 H   0  0  0  0  0  0  0  0  0  0  0  0
  141.8140   81.9662  220.7162 H   0  0  0  0  0  0  0  0  0  0  0  0
  142.2090   83.2340  221.5311 H   0  0  0  0  0  0  0  0  0  0  0  0
  140.3327   80.2909  220.5625 H   0  0  0  0  0  0  0  0  0  0  0  0
  140.0793   73.4870  223.5359 H   0  0  0  0  0  0  0  0  0  0  0  0
  1  2  1  0
  2  3  2  0
  3  4  1  0
  4  5  2  0
  5  6  1  0
  6  7  2  0
  6  8  1  0
  8  9  1  0
  9 10  1  0
 10 11  2  0
 11 12  1  0
 12 13  2  0
 13 14  1  0
 14 15  1  0
 15 16  2  0
 15 17  1  0
 17 18  1  0
 18 19  2  0
 19 20  1  0
 20 21  2  0
 21 22  1  0
 22 23  1  0
 23 24  1  0
 21 25  1  0
 25 26  2  0
 14 27  2  0
  9 28  2  0
  7  2  1  0
 27 10  1  0
 28  5  1  0
 26 18  1  0
 24 22  1  0
  1 29  1  0
  1 30  1  0
  1 31  1  0
  3 32  1  0
  4 33  1  0
  7 34  1  0
  8 35  1  0
  8 36  1  0
 11 37  1  0
 12 38  1  0
 13 39  1  0
 17 40  1  0
 19 41  1  0
 20 42  1  0
 22 43  1  0
 23 44  1  0
 23 45  1  0
 24 46  1  0
 24 47  1  0
 25 48  1  0
 27 49  1  0
M  END
>  <smiles>  (20) 
Cc1ccc2c(c1)CC(c1cccc(C(=O)Nc3ccc(C4CC4)cn3)c1)=N2

>  <score_type>  (20) 
oracle

>  <origin>  (20) 
autodockgpu

>  <m_score__min__energy>  (20) 
-8.5800000000000001

>  <m_primary>  (20) 
energy

>  <rmsd>  (20) 
7.318685192534348

>  <m_score__min__rmsd>  (20) 
7.318685192534348

>  <meeko>  (20) 
{"free_energy": -8.46, "intermolecular_energy": -9.65, "internal_energy": -0.74, "cluster_size": 50, "cluster_id": 1, "rank_in_cluster": 39}

>  <energy>  (20) 
-8.51

>  <cluster_rmsd>  (20) 
1.19

>  <cluster>  (20) 
1

$$$$

     RDKit          3D

 49 53  0  0  0  0  0  0  0  0999 V2000
  141.0920   68.4130  228.9110 C   0  0  0  0  0  0  0  0  0  0  0  0
  140.6670   68.7310  227.5270 C   0  0  0  0  0  0  0  0  0  0  0  0
  139.9350   67.7830  226.8260 C   0  0  0  0  0  0  0  0  0  0  0  0
  139.5140   68.0090  225.5530 C   0  0  0  0  0  0  0  0  0  0  0  0
  139.8250   69.2110  224.9500 C   0  0  0  0  0  0  0  0  0  0  0  0
  140.5470   70.1460  225.6400 C   0  0  0  0  0  0  0  0  0  0  0  0
  140.9860   69.9490  226.9210 C   0  0  0  0  0  0  0  0  0  0  0  0
  140.7270   71.3200  224.7490 C   0  0  0  0  0  0  0  0  0  0  0  0
  140.0310   70.9160  223.5240 C   0  0  0  0  0  0  0  0  0  0  0  0
  139.8910   71.6940  222.3110 C   0  0  0  0  0  0  0  0  0  0  0  0
  139.6900   71.0680  221.0980 C   0  0  0  0  0  0  0  0  0  0  0  0
  139.5590   71.8390  219.9400 C   0  0  0  0  0  0  0  0  0  0  0  0
  139.6310   73.2230  220.0310 C   0  0  0  0  0  0  0  0  0  0  0  0
  139.8320   73.8530  221.2400 C   0  0  0  0  0  0  0  0  0  0  0  0
  139.9160   75.3020  221.3850 C   0  0  0  0  0  0  0  0  0  0  0  0
  138.8960   76.0390  221.2180 O   0  0  0  0  0  0  0  0  0  0  0  0
  141.1220   75.9820  221.7170 N   0  0  0  0  0  0  0  0  0  0  0  0
  141.1720   77.4150  221.8540 C   0  0  0  0  0  0  0  0  0  0  0  0
  141.3830   77.8790  223.1410 C   0  0  0  0  0  0  0  0  0  0  0  0
  141.4480   79.2420  223.3820 C   0  0  0  0  0  0  0  0  0  0  0  0
  141.2920   80.0660  222.2880 C   0  0  0  0  0  0  0  0  0  0  0  0
  141.3510   81.5430  222.4780 C   0  0  0  0  0  0  0  0  0  0  0  0
  140.1920   82.3950  221.9770 C   0  0  0  0  0  0  0  0  0  0  0  0
  141.4580   82.3770  221.2070 C   0  0  0  0  0  0  0  0  0  0  0  0
  141.0840   79.5610  221.0260 C   0  0  0  0  0  0  0  0  0  0  0  0
  141.0220   78.2360  220.7960 N   0  0  0  0  0  0  0  0  0  0  0  0
  139.9570   73.0720  222.3520 C   0  0  0  0  0  0  0  0  0  0  0  0
  139.5320   69.7220  223.6660 N   0  0  0  0  0  0  0  0  0  0  0  0
  140.4218   68.9145  229.6247 H   0  0  0  0  0  0  0  0  0  0  0  0
  141.0467   67.3252  229.0677 H   0  0  0  0  0  0  0  0  0  0  0  0
  142.1229   68.7634  229.0677 H   0  0  0  0  0  0  0  0  0  0  0  0
  139.6897   66.8268  227.3114 H   0  0  0  0  0  0  0  0  0  0  0  0
  138.9348   67.2460  225.0123 H   0  0  0  0  0  0  0  0  0  0  0  0
  141.5663   70.7180  227.4520 H   0  0  0  0  0  0  0  0  0  0  0  0
  140.2695   72.2205  225.1847 H   0  0  0  0  0  0  0  0  0  0  0  0
  141.7830   71.5785  224.5816 H   0  0  0  0  0  0  0  0  0  0  0  0
  139.6333   69.9708  221.0430 H   0  0  0  0  0  0  0  0  0  0  0  0
  139.4003   71.3543  218.9654 H   0  0  0  0  0  0  0  0  0  0  0  0
  139.5254   73.8289  219.1190 H   0  0  0  0  0  0  0  0  0  0  0  0
  142.0000   75.4410  221.8700 H   0  0  0  0  0  0  0  0  0  0  0  0
  141.4989   77.1667  223.9712 H   0  0  0  0  0  0  0  0  0  0  0  0
  141.6151   79.6447  224.3919 H   0  0  0  0  0  0  0  0  0  0  0  0
  141.8911   81.4575  223.4324 H   0  0  0  0  0  0  0  0  0  0  0  0
  139.2942   81.9105  221.5657 H   0  0  0  0  0  0  0  0  0  0  0  0
  139.5676   83.1858  222.4183 H   0  0  0  0  0  0  0  0  0  0  0  0
  141.4957   81.8790  220.2269 H   0  0  0  0  0  0  0  0  0  0  0  0
  142.1535   83.1488  220.8456 H   0  0  0  0  0  0  0  0  0  0  0  0
  140.9652   80.2575  220.1829 H   0  0  0  0  0  0  0  0  0  0  0  0
  140.1174   73.5622  223.3236 H   0  0  0  0  0  0  0  0  0  0  0  0
  1  2  1  0
  2  3  2  0
  3  4  1  0
  4  5  2  0
  5  6  1  0
  6  7  2  0
  6  8  1  0
  8  9  1  0
  9 10  1  0
 10 11  2  0
 11 12  1  0
 12 13  2  0
 13 14  1  0
 14 15  1  0
 15 16  2  0
 15 17  1  0
 17 18  1  0
 18 19  2  0
 19 20  1  0
 20 21  2  0
 21 22  1  0
 22 23  1  0
 23 24  1  0
 21 25  1  0
 25 26  2  0
 14 27  2  0
  9 28  2  0
  7  2  1  0
 27 10  1  0
 28  5  1  0
 26 18  1  0
 24 22  1  0
  1 29  1  0
  1 30  1  0
  1 31  1  0
  3 32  1  0
  4 33  1  0
  7 34  1  0
  8 35  1  0
  8 36  1  0
 11 37  1  0
 12 38  1  0
 13 39  1  0
 17 40  1  0
 19 41  1  0
 20 42  1  0
 22 43  1  0
 23 44  1  0
 23 45  1  0
 24 46  1  0
 24 47  1  0
 25 48  1  0
 27 49  1  0
M  END
>  <smiles>  (21) 
Cc1ccc2c(c1)CC(c1cccc(C(=O)Nc3ccc(C4CC4)cn3)c1)=N2

>  <score_type>  (21) 
oracle

>  <origin>  (21) 
autodockgpu

>  <m_score__min__energy>  (21) 
-8.5800000000000001

>  <m_primary>  (21) 
energy

>  <rmsd>  (21) 
7.229662935033698

>  <m_score__min__rmsd>  (21) 
7.229662935033698

>  <meeko>  (21) 
{"free_energy": -8.31, "intermolecular_energy": -9.51, "internal_energy": -0.75, "cluster_size": 50, "cluster_id": 1, "rank_in_cluster": 50}

>  <energy>  (21) 
-8.51

>  <cluster_rmsd>  (21) 
1.19

>  <cluster>  (21) 
1

$$$$

     RDKit          3D

 49 53  0  0  0  0  0  0  0  0999 V2000
  141.0840   68.1330  228.9540 C   0  0  0  0  0  0  0  0  0  0  0  0
  140.6400   68.5090  227.5920 C   0  0  0  0  0  0  0  0  0  0  0  0
  139.8300   67.6250  226.8920 C   0  0  0  0  0  0  0  0  0  0  0  0
  139.3880   67.9060  225.6380 C   0  0  0  0  0  0  0  0  0  0  0  0
  139.7560   69.1000  225.0510 C   0  0  0  0  0  0  0  0  0  0  0  0
  140.5540   69.9720  225.7400 C   0  0  0  0  0  0  0  0  0  0  0  0
  141.0170   69.7180  227.0020 C   0  0  0  0  0  0  0  0  0  0  0  0
  140.7820   71.1530  224.8690 C   0  0  0  0  0  0  0  0  0  0  0  0
  140.0280   70.8210  223.6570 C   0  0  0  0  0  0  0  0  0  0  0  0
  139.9010   71.6350  222.4660 C   0  0  0  0  0  0  0  0  0  0  0  0
  139.6970   71.0450  221.2350 C   0  0  0  0  0  0  0  0  0  0  0  0
  139.5790   71.8500  220.0980 C   0  0  0  0  0  0  0  0  0  0  0  0
  139.6690   73.2300  220.2280 C   0  0  0  0  0  0  0  0  0  0  0  0
  139.8740   73.8230  221.4550 C   0  0  0  0  0  0  0  0  0  0  0  0
  139.9760   75.2660  221.6410 C   0  0  0  0  0  0  0  0  0  0  0  0
  138.9490   76.0100  221.5820 O   0  0  0  0  0  0  0  0  0  0  0  0
  141.2090   75.9320  221.8950 N   0  0  0  0  0  0  0  0  0  0  0  0
  141.2750   77.3600  222.0740 C   0  0  0  0  0  0  0  0  0  0  0  0
  141.5110   78.0890  220.9210 C   0  0  0  0  0  0  0  0  0  0  0  0
  141.5940   79.4710  220.9820 C   0  0  0  0  0  0  0  0  0  0  0  0
  141.4300   80.0400  222.2270 C   0  0  0  0  0  0  0  0  0  0  0  0
  141.5070   81.5220  222.3630 C   0  0  0  0  0  0  0  0  0  0  0  0
  140.2920   82.3590  221.9840 C   0  0  0  0  0  0  0  0  0  0  0  0
  141.4520   82.3160  221.0620 C   0  0  0  0  0  0  0  0  0  0  0  0
  141.1970   79.2760  223.3470 C   0  0  0  0  0  0  0  0  0  0  0  0
  141.1180   77.9340  223.2830 N   0  0  0  0  0  0  0  0  0  0  0  0
  139.9850   73.0100  222.5450 C   0  0  0  0  0  0  0  0  0  0  0  0
  139.4590   69.6570  223.7890 N   0  0  0  0  0  0  0  0  0  0  0  0
  140.4661   68.6563  229.6986 H   0  0  0  0  0  0  0  0  0  0  0  0
  140.9774   67.0463  229.0875 H   0  0  0  0  0  0  0  0  0  0  0  0
  142.1383   68.4171  229.0875 H   0  0  0  0  0  0  0  0  0  0  0  0
  139.5391   66.6747  227.3635 H   0  0  0  0  0  0  0  0  0  0  0  0
  138.7468   67.1930  225.0990 H   0  0  0  0  0  0  0  0  0  0  0  0
  141.6602   70.4367  227.5309 H   0  0  0  0  0  0  0  0  0  0  0  0
  140.3941   72.0698  225.3369 H   0  0  0  0  0  0  0  0  0  0  0  0
  141.8470   71.3495  224.6761 H   0  0  0  0  0  0  0  0  0  0  0  0
  139.6279   69.9505  221.1492 H   0  0  0  0  0  0  0  0  0  0  0  0
  139.4164   71.3948  219.1099 H   0  0  0  0  0  0  0  0  0  0  0  0
  139.5747   73.8626  219.3331 H   0  0  0  0  0  0  0  0  0  0  0  0
  142.0940   75.3850  221.9580 H   0  0  0  0  0  0  0  0  0  0  0  0
  141.6325   77.5720  219.9577 H   0  0  0  0  0  0  0  0  0  0  0  0
  141.7806   80.0808  220.0857 H   0  0  0  0  0  0  0  0  0  0  0  0
  142.1617   81.4661  223.2452 H   0  0  0  0  0  0  0  0  0  0  0  0
  139.3513   81.8626  221.7036 H   0  0  0  0  0  0  0  0  0  0  0  0
  139.7254   83.1639  222.4749 H   0  0  0  0  0  0  0  0  0  0  0  0
  141.3684   81.7874  220.1009 H   0  0  0  0  0  0  0  0  0  0  0  0
  142.0944   83.0754  220.5923 H   0  0  0  0  0  0  0  0  0  0  0  0
  141.0721   79.7746  224.3195 H   0  0  0  0  0  0  0  0  0  0  0  0
  140.1487   73.4710  223.5302 H   0  0  0  0  0  0  0  0  0  0  0  0
  1  2  1  0
  2  3  2  0
  3  4  1  0
  4  5  2  0
  5  6  1  0
  6  7  2  0
  6  8  1  0
  8  9  1  0
  9 10  1  0
 10 11  2  0
 11 12  1  0
 12 13  2  0
 13 14  1  0
 14 15  1  0
 15 16  2  0
 15 17  1  0
 17 18  1  0
 18 19  2  0
 19 20  1  0
 20 21  2  0
 21 22  1  0
 22 23  1  0
 23 24  1  0
 21 25  1  0
 25 26  2  0
 14 27  2  0
  9 28  2  0
  7  2  1  0
 27 10  1  0
 28  5  1  0
 26 18  1  0
 24 22  1  0
  1 29  1  0
  1 30  1  0
  1 31  1  0
  3 32  1  0
  4 33  1  0
  7 34  1  0
  8 35  1  0
  8 36  1  0
 11 37  1  0
 12 38  1  0
 13 39  1  0
 17 40  1  0
 19 41  1  0
 20 42  1  0
 22 43  1  0
 23 44  1  0
 23 45  1  0
 24 46  1  0
 24 47  1  0
 25 48  1  0
 27 49  1  0
M  END
>  <smiles>  (22) 
Cc1ccc2c(c1)CC(c1cccc(C(=O)Nc3ccc(C4CC4)cn3)c1)=N2

>  <score_type>  (22) 
oracle

>  <origin>  (22) 
autodockgpu

>  <m_score__min__energy>  (22) 
-8.5800000000000001

>  <m_primary>  (22) 
energy

>  <rmsd>  (22) 
7.169805170650569

>  <m_score__min__rmsd>  (22) 
7.169805170650569

>  <meeko>  (22) 
{"free_energy": -8.47, "intermolecular_energy": -9.67, "internal_energy": -0.75, "cluster_size": 50, "cluster_id": 1, "rank_in_cluster": 32}

>  <energy>  (22) 
-8.51

>  <cluster_rmsd>  (22) 
1.2

>  <cluster>  (22) 
1

$$$$

     RDKit          3D

 49 53  0  0  0  0  0  0  0  0999 V2000
  141.2530   68.1250  229.0830 C   0  0  0  0  0  0  0  0  0  0  0  0
  140.7770   68.4470  227.7180 C   0  0  0  0  0  0  0  0  0  0  0  0
  140.0440   67.4900  227.0300 C   0  0  0  0  0  0  0  0  0  0  0  0
  139.5770   67.7190  225.7740 C   0  0  0  0  0  0  0  0  0  0  0  0
  139.8410   68.9340  225.1740 C   0  0  0  0  0  0  0  0  0  0  0  0
  140.5620   69.8780  225.8510 C   0  0  0  0  0  0  0  0  0  0  0  0
  141.0470   69.6780  227.1150 C   0  0  0  0  0  0  0  0  0  0  0  0
  140.6860   71.0650  224.9670 C   0  0  0  0  0  0  0  0  0  0  0  0
  139.9610   70.6570  223.7610 C   0  0  0  0  0  0  0  0  0  0  0  0
  139.7630   71.4440  222.5620 C   0  0  0  0  0  0  0  0  0  0  0  0
  139.3630   70.8410  221.3870 C   0  0  0  0  0  0  0  0  0  0  0  0
  139.1790   71.6200  220.2420 C   0  0  0  0  0  0  0  0  0  0  0  0
  139.4030   72.9890  220.3060 C   0  0  0  0  0  0  0  0  0  0  0  0
  139.8030   73.5970  221.4770 C   0  0  0  0  0  0  0  0  0  0  0  0
  140.0500   75.0290  221.5920 C   0  0  0  0  0  0  0  0  0  0  0  0
  140.8010   75.6350  220.7670 O   0  0  0  0  0  0  0  0  0  0  0  0
  139.4800   75.8360  222.6180 N   0  0  0  0  0  0  0  0  0  0  0  0
  139.7440   77.2500  222.7050 C   0  0  0  0  0  0  0  0  0  0  0  0
  141.0670   77.5910  222.9330 C   0  0  0  0  0  0  0  0  0  0  0  0
  141.4290   78.9240  223.0330 C   0  0  0  0  0  0  0  0  0  0  0  0
  140.4140   79.8470  222.8930 C   0  0  0  0  0  0  0  0  0  0  0  0
  140.7360   81.2990  222.9900 C   0  0  0  0  0  0  0  0  0  0  0  0
  141.7740   81.8860  222.0420 C   0  0  0  0  0  0  0  0  0  0  0  0
  142.1470   81.6410  223.4560 C   0  0  0  0  0  0  0  0  0  0  0  0
  139.1130   79.4630  222.6670 C   0  0  0  0  0  0  0  0  0  0  0  0
  138.7660   78.1660  222.5710 N   0  0  0  0  0  0  0  0  0  0  0  0
  139.9740   72.8080  222.5770 C   0  0  0  0  0  0  0  0  0  0  0  0
  139.4950   69.4500  223.9060 N   0  0  0  0  0  0  0  0  0  0  0  0
  140.5791   68.5808  229.8234 H   0  0  0  0  0  0  0  0  0  0  0  0
  141.2635   67.0336  229.2197 H   0  0  0  0  0  0  0  0  0  0  0  0
  142.2699   68.5214  229.2197 H   0  0  0  0  0  0  0  0  0  0  0  0
  139.8361   66.5235  227.5124 H   0  0  0  0  0  0  0  0  0  0  0  0
  138.9979   66.9484  225.2441 H   0  0  0  0  0  0  0  0  0  0  0  0
  141.6261   70.4552  227.6353 H   0  0  0  0  0  0  0  0  0  0  0  0
  140.2218   71.9501  225.4266 H   0  0  0  0  0  0  0  0  0  0  0  0
  141.7298   71.3500  224.7689 H   0  0  0  0  0  0  0  0  0  0  0  0
  139.1903   69.7552  221.3522 H   0  0  0  0  0  0  0  0  0  0  0  0
  138.8596   71.1533  219.2985 H   0  0  0  0  0  0  0  0  0  0  0  0
  139.2583   73.6011  219.4036 H   0  0  0  0  0  0  0  0  0  0  0  0
  138.8520   75.4070  223.3310 H   0  0  0  0  0  0  0  0  0  0  0  0
  141.8290   76.8042  223.0345 H   0  0  0  0  0  0  0  0  0  0  0  0
  142.4699   79.2300  223.2143 H   0  0  0  0  0  0  0  0  0  0  0  0
  139.7076   81.5686  223.2723 H   0  0  0  0  0  0  0  0  0  0  0  0
  142.2043   81.2604  221.2461 H   0  0  0  0  0  0  0  0  0  0  0  0
  141.8042   82.7608  221.3758 H   0  0  0  0  0  0  0  0  0  0  0  0
  142.8523   80.8343  223.7044 H   0  0  0  0  0  0  0  0  0  0  0  0
  142.5655   82.2600  224.2632 H   0  0  0  0  0  0  0  0  0  0  0  0
  138.3365   80.2350  222.5621 H   0  0  0  0  0  0  0  0  0  0  0  0
  140.2943   73.2799  223.5176 H   0  0  0  0  0  0  0  0  0  0  0  0
  1  2  1  0
  2  3  2  0
  3  4  1  0
  4  5  2  0
  5  6  1  0
  6  7  2  0
  6  8  1  0
  8  9  1  0
  9 10  1  0
 10 11  2  0
 11 12  1  0
 12 13  2  0
 13 14  1  0
 14 15  1  0
 15 16  2  0
 15 17  1  0
 17 18  1  0
 18 19  2  0
 19 20  1  0
 20 21  2  0
 21 22  1  0
 22 23  1  0
 23 24  1  0
 21 25  1  0
 25 26  2  0
 14 27  2  0
  9 28  2  0
  7  2  1  0
 27 10  1  0
 28  5  1  0
 26 18  1  0
 24 22  1  0
  1 29  1  0
  1 30  1  0
  1 31  1  0
  3 32  1  0
  4 33  1  0
  7 34  1  0
  8 35  1  0
  8 36  1  0
 11 37  1  0
 12 38  1  0
 13 39  1  0
 17 40  1  0
 19 41  1  0
 20 42  1  0
 22 43  1  0
 23 44  1  0
 23 45  1  0
 24 46  1  0
 24 47  1  0
 25 48  1  0
 27 49  1  0
M  END
>  <smiles>  (23) 
Cc1ccc2c(c1)CC(c1cccc(C(=O)Nc3ccc(C4CC4)cn3)c1)=N2

>  <score_type>  (23) 
oracle

>  <origin>  (23) 
autodockgpu

>  <m_score__min__energy>  (23) 
-8.5800000000000001

>  <m_primary>  (23) 
energy

>  <rmsd>  (23) 
7.446204209177569

>  <m_score__min__rmsd>  (23) 
7.446204209177569

>  <meeko>  (23) 
{"free_energy": -8.54, "intermolecular_energy": -9.74, "internal_energy": -0.74, "cluster_size": 50, "cluster_id": 1, "rank_in_cluster": 11}

>  <energy>  (23) 
-8.5

>  <cluster_rmsd>  (23) 
1.19

>  <cluster>  (23) 
1

$$$$

     RDKit          3D

 49 53  0  0  0  0  0  0  0  0999 V2000
  141.1410   68.1300  229.0420 C   0  0  0  0  0  0  0  0  0  0  0  0
  140.7080   68.4970  227.6740 C   0  0  0  0  0  0  0  0  0  0  0  0
  139.9730   67.5760  226.9420 C   0  0  0  0  0  0  0  0  0  0  0  0
  139.5450   67.8480  225.6810 C   0  0  0  0  0  0  0  0  0  0  0  0
  139.8520   69.0710  225.1200 C   0  0  0  0  0  0  0  0  0  0  0  0
  140.5770   69.9800  225.8400 C   0  0  0  0  0  0  0  0  0  0  0  0
  141.0220   69.7370  227.1110 C   0  0  0  0  0  0  0  0  0  0  0  0
  140.7510   71.1860  224.9910 C   0  0  0  0  0  0  0  0  0  0  0  0
  140.0490   70.8270  223.7570 C   0  0  0  0  0  0  0  0  0  0  0  0
  139.9020   71.6490  222.5730 C   0  0  0  0  0  0  0  0  0  0  0  0
  139.6970   71.0670  221.3390 C   0  0  0  0  0  0  0  0  0  0  0  0
  139.5580   71.8790  220.2110 C   0  0  0  0  0  0  0  0  0  0  0  0
  139.6290   73.2590  220.3520 C   0  0  0  0  0  0  0  0  0  0  0  0
  139.8340   73.8450  221.5830 C   0  0  0  0  0  0  0  0  0  0  0  0
  139.9160   75.2880  221.7800 C   0  0  0  0  0  0  0  0  0  0  0  0
  138.8740   76.0120  221.7760 O   0  0  0  0  0  0  0  0  0  0  0  0
  141.1460   75.9750  221.9870 N   0  0  0  0  0  0  0  0  0  0  0  0
  141.1930   77.4030  222.1790 C   0  0  0  0  0  0  0  0  0  0  0  0
  140.9850   78.1590  221.0380 C   0  0  0  0  0  0  0  0  0  0  0  0
  141.0100   79.5430  221.1130 C   0  0  0  0  0  0  0  0  0  0  0  0
  141.2470   80.0850  222.3590 C   0  0  0  0  0  0  0  0  0  0  0  0
  141.2860   81.5670  222.5080 C   0  0  0  0  0  0  0  0  0  0  0  0
  140.1410   82.3930  221.9370 C   0  0  0  0  0  0  0  0  0  0  0  0
  141.4370   82.3650  221.2180 C   0  0  0  0  0  0  0  0  0  0  0  0
  141.4480   79.2940  223.4660 C   0  0  0  0  0  0  0  0  0  0  0  0
  141.4240   77.9500  223.3880 N   0  0  0  0  0  0  0  0  0  0  0  0
  139.9660   73.0240  222.6640 C   0  0  0  0  0  0  0  0  0  0  0  0
  139.5520   69.6270  223.8580 N   0  0  0  0  0  0  0  0  0  0  0  0
  140.5175   68.6585  229.7781 H   0  0  0  0  0  0  0  0  0  0  0  0
  141.0329   67.0443  229.1820 H   0  0  0  0  0  0  0  0  0  0  0  0
  142.1943   68.4146  229.1820 H   0  0  0  0  0  0  0  0  0  0  0  0
  139.7308   66.6023  227.3929 H   0  0  0  0  0  0  0  0  0  0  0  0
  138.9629   67.1048  225.1163 H   0  0  0  0  0  0  0  0  0  0  0  0
  141.6033   70.4873  227.6670 H   0  0  0  0  0  0  0  0  0  0  0  0
  140.2954   72.0696  225.4618 H   0  0  0  0  0  0  0  0  0  0  0  0
  141.8059   71.4511  224.8271 H   0  0  0  0  0  0  0  0  0  0  0  0
  139.6435   69.9724  221.2442 H   0  0  0  0  0  0  0  0  0  0  0  0
  139.3939   71.4298  219.2204 H   0  0  0  0  0  0  0  0  0  0  0  0
  139.5194   73.8976  219.4631 H   0  0  0  0  0  0  0  0  0  0  0  0
  142.0440   75.4460  222.0030 H   0  0  0  0  0  0  0  0  0  0  0  0
  140.8003   77.6625  220.0739 H   0  0  0  0  0  0  0  0  0  0  0  0
  140.8495   80.1747  220.2269 H   0  0  0  0  0  0  0  0  0  0  0  0
  141.7882   81.5143  223.4852 H   0  0  0  0  0  0  0  0  0  0  0  0
  139.2643   81.8883  221.5049 H   0  0  0  0  0  0  0  0  0  0  0  0
  139.4930   83.1903  222.3300 H   0  0  0  0  0  0  0  0  0  0  0  0
  141.5178   81.8393  220.2551 H   0  0  0  0  0  0  0  0  0  0  0  0
  142.1399   83.1325  220.8618 H   0  0  0  0  0  0  0  0  0  0  0  0
  141.6330   79.7713  224.4396 H   0  0  0  0  0  0  0  0  0  0  0  0
  140.1308   73.4783  223.6521 H   0  0  0  0  0  0  0  0  0  0  0  0
  1  2  1  0
  2  3  2  0
  3  4  1  0
  4  5  2  0
  5  6  1  0
  6  7  2  0
  6  8  1  0
  8  9  1  0
  9 10  1  0
 10 11  2  0
 11 12  1  0
 12 13  2  0
 13 14  1  0
 14 15  1  0
 15 16  2  0
 15 17  1  0
 17 18  1  0
 18 19  2  0
 19 20  1  0
 20 21  2  0
 21 22  1  0
 22 23  1  0
 23 24  1  0
 21 25  1  0
 25 26  2  0
 14 27  2  0
  9 28  2  0
  7  2  1  0
 27 10  1  0
 28  5  1  0
 26 18  1  0
 24 22  1  0
  1 29  1  0
  1 30  1  0
  1 31  1  0
  3 32  1  0
  4 33  1  0
  7 34  1  0
  8 35  1  0
  8 36  1  0
 11 37  1  0
 12 38  1  0
 13 39  1  0
 17 40  1  0
 19 41  1  0
 20 42  1  0
 22 43  1  0
 23 44  1  0
 23 45  1  0
 24 46  1  0
 24 47  1  0
 25 48  1  0
 27 49  1  0
M  END
>  <smiles>  (24) 
Cc1ccc2c(c1)CC(c1cccc(C(=O)Nc3ccc(C4CC4)cn3)c1)=N2

>  <score_type>  (24) 
oracle

>  <origin>  (24) 
autodockgpu

>  <m_score__min__energy>  (24) 
-8.5800000000000001

>  <m_primary>  (24) 
energy

>  <rmsd>  (24) 
7.195337821161362

>  <m_score__min__rmsd>  (24) 
7.195337821161362

>  <meeko>  (24) 
{"free_energy": -8.52, "intermolecular_energy": -9.71, "internal_energy": -0.76, "cluster_size": 50, "cluster_id": 1, "rank_in_cluster": 14}

>  <energy>  (24) 
-8.5

>  <cluster_rmsd>  (24) 
0.17

>  <cluster>  (24) 
1

$$$$

     RDKit          3D

 49 53  0  0  0  0  0  0  0  0999 V2000
  140.9580   68.1480  228.9600 C   0  0  0  0  0  0  0  0  0  0  0  0
  140.5410   68.5440  227.5940 C   0  0  0  0  0  0  0  0  0  0  0  0
  139.6390   67.7350  226.9170 C   0  0  0  0  0  0  0  0  0  0  0  0
  139.2150   68.0390  225.6610 C   0  0  0  0  0  0  0  0  0  0  0  0
  139.6960   69.1800  225.0510 C   0  0  0  0  0  0  0  0  0  0  0  0
  140.5850   69.9780  225.7180 C   0  0  0  0  0  0  0  0  0  0  0  0
  141.0310   69.6990  226.9810 C   0  0  0  0  0  0  0  0  0  0  0  0
  140.9210   71.1160  224.8250 C   0  0  0  0  0  0  0  0  0  0  0  0
  140.1250   70.8420  223.6260 C   0  0  0  0  0  0  0  0  0  0  0  0
  140.0700   71.6450  222.4220 C   0  0  0  0  0  0  0  0  0  0  0  0
  139.9920   71.0420  221.1830 C   0  0  0  0  0  0  0  0  0  0  0  0
  139.9410   71.8370  220.0340 C   0  0  0  0  0  0  0  0  0  0  0  0
  139.9690   73.2200  220.1600 C   0  0  0  0  0  0  0  0  0  0  0  0
  140.0470   73.8260  221.3960 C   0  0  0  0  0  0  0  0  0  0  0  0
  140.0800   75.2730  221.5780 C   0  0  0  0  0  0  0  0  0  0  0  0
  139.0100   75.9430  221.7110 O   0  0  0  0  0  0  0  0  0  0  0  0
  141.2890   76.0240  221.6180 N   0  0  0  0  0  0  0  0  0  0  0  0
  141.2880   77.4540  221.8000 C   0  0  0  0  0  0  0  0  0  0  0  0
  141.0740   77.8830  223.0990 C   0  0  0  0  0  0  0  0  0  0  0  0
  141.0520   79.2390  223.3840 C   0  0  0  0  0  0  0  0  0  0  0  0
  141.2530   80.0920  222.3190 C   0  0  0  0  0  0  0  0  0  0  0  0
  141.2430   81.5630  222.5560 C   0  0  0  0  0  0  0  0  0  0  0  0
  140.1170   82.3960  221.9590 C   0  0  0  0  0  0  0  0  0  0  0  0
  141.4570   82.4390  221.3280 C   0  0  0  0  0  0  0  0  0  0  0  0
  141.4630   79.6200  221.0440 C   0  0  0  0  0  0  0  0  0  0  0  0
  141.4820   78.3020  220.7720 N   0  0  0  0  0  0  0  0  0  0  0  0
  140.0960   73.0220  222.4970 C   0  0  0  0  0  0  0  0  0  0  0  0
  139.4440   69.7440  223.7820 N   0  0  0  0  0  0  0  0  0  0  0  0
  140.3680   68.7082  229.7003 H   0  0  0  0  0  0  0  0  0  0  0  0
  140.7892   67.0697  229.0968 H   0  0  0  0  0  0  0  0  0  0  0  0
  142.0262   68.3722  229.0968 H   0  0  0  0  0  0  0  0  0  0  0  0
  139.2583   66.8271  227.4076 H   0  0  0  0  0  0  0  0  0  0  0  0
  138.4999   67.3858  225.1394 H   0  0  0  0  0  0  0  0  0  0  0  0
  141.7472   70.3584  227.4932 H   0  0  0  0  0  0  0  0  0  0  0  0
  140.6319   72.0745  225.2807 H   0  0  0  0  0  0  0  0  0  0  0  0
  141.9982   71.2015  224.6193 H   0  0  0  0  0  0  0  0  0  0  0  0
  139.9702   69.9453  221.1002 H   0  0  0  0  0  0  0  0  0  0  0  0
  139.8792   71.3715  219.0393 H   0  0  0  0  0  0  0  0  0  0  0  0
  139.9281   73.8444  219.2553 H   0  0  0  0  0  0  0  0  0  0  0  0
  142.2070   75.5410  221.5170 H   0  0  0  0  0  0  0  0  0  0  0  0
  140.9217   77.1485  223.9036 H   0  0  0  0  0  0  0  0  0  0  0  0
  140.8834   79.6146  224.4041 H   0  0  0  0  0  0  0  0  0  0  0  0
  141.6812   81.4633  223.5600 H   0  0  0  0  0  0  0  0  0  0  0  0
  139.2837   81.8988  221.4409 H   0  0  0  0  0  0  0  0  0  0  0  0
  139.4244   83.1541  222.3534 H   0  0  0  0  0  0  0  0  0  0  0  0
  141.6140   81.9734  220.3438 H   0  0  0  0  0  0  0  0  0  0  0  0
  142.1617   83.2415  221.0646 H   0  0  0  0  0  0  0  0  0  0  0  0
  141.6194   80.3383  220.2257 H   0  0  0  0  0  0  0  0  0  0  0  0
  140.1591   73.4930  223.4891 H   0  0  0  0  0  0  0  0  0  0  0  0
  1  2  1  0
  2  3  2  0
  3  4  1  0
  4  5  2  0
  5  6  1  0
  6  7  2  0
  6  8  1  0
  8  9  1  0
  9 10  1  0
 10 11  2  0
 11 12  1  0
 12 13  2  0
 13 14  1  0
 14 15  1  0
 15 16  2  0
 15 17  1  0
 17 18  1  0
 18 19  2  0
 19 20  1  0
 20 21  2  0
 21 22  1  0
 22 23  1  0
 23 24  1  0
 21 25  1  0
 25 26  2  0
 14 27  2  0
  9 28  2  0
  7  2  1  0
 27 10  1  0
 28  5  1  0
 26 18  1  0
 24 22  1  0
  1 29  1  0
  1 30  1  0
  1 31  1  0
  3 32  1  0
  4 33  1  0
  7 34  1  0
  8 35  1  0
  8 36  1  0
 11 37  1  0
 12 38  1  0
 13 39  1  0
 17 40  1  0
 19 41  1  0
 20 42  1  0
 22 43  1  0
 23 44  1  0
 23 45  1  0
 24 46  1  0
 24 47  1  0
 25 48  1  0
 27 49  1  0
M  END
>  <smiles>  (25) 
Cc1ccc2c(c1)CC(c1cccc(C(=O)Nc3ccc(C4CC4)cn3)c1)=N2

>  <score_type>  (25) 
oracle

>  <origin>  (25) 
autodockgpu

>  <m_score__min__energy>  (25) 
-8.5800000000000001

>  <m_primary>  (25) 
energy

>  <rmsd>  (25) 
7.268877263794583

>  <m_score__min__rmsd>  (25) 
7.268877263794583

>  <meeko>  (25) 
{"free_energy": -8.47, "intermolecular_energy": -9.66, "internal_energy": -0.77, "cluster_size": 50, "cluster_id": 1, "rank_in_cluster": 36}

>  <energy>  (25) 
-8.5

>  <cluster_rmsd>  (25) 
1.24

>  <cluster>  (25) 
1

$$$$

     RDKit          3D

 49 53  0  0  0  0  0  0  0  0999 V2000
  141.1210   68.1340  229.0430 C   0  0  0  0  0  0  0  0  0  0  0  0
  140.6910   68.5030  227.6740 C   0  0  0  0  0  0  0  0  0  0  0  0
  139.9410   67.5900  226.9470 C   0  0  0  0  0  0  0  0  0  0  0  0
  139.5150   67.8640  225.6860 C   0  0  0  0  0  0  0  0  0  0  0  0
  139.8380   69.0800  225.1200 C   0  0  0  0  0  0  0  0  0  0  0  0
  140.5770   69.9810  225.8360 C   0  0  0  0  0  0  0  0  0  0  0  0
  141.0220   69.7360  227.1070 C   0  0  0  0  0  0  0  0  0  0  0  0
  140.7670   71.1820  224.9830 C   0  0  0  0  0  0  0  0  0  0  0  0
  140.0580   70.8280  223.7510 C   0  0  0  0  0  0  0  0  0  0  0  0
  139.9200   71.6490  222.5650 C   0  0  0  0  0  0  0  0  0  0  0  0
  139.7240   71.0650  221.3300 C   0  0  0  0  0  0  0  0  0  0  0  0
  139.5940   71.8760  220.1990 C   0  0  0  0  0  0  0  0  0  0  0  0
  139.6640   73.2560  220.3390 C   0  0  0  0  0  0  0  0  0  0  0  0
  139.8600   73.8440  221.5700 C   0  0  0  0  0  0  0  0  0  0  0  0
  139.9410   75.2860  221.7660 C   0  0  0  0  0  0  0  0  0  0  0  0
  138.8980   76.0090  221.7620 O   0  0  0  0  0  0  0  0  0  0  0  0
  141.1700   75.9750  221.9710 N   0  0  0  0  0  0  0  0  0  0  0  0
  141.2160   77.4030  222.1620 C   0  0  0  0  0  0  0  0  0  0  0  0
  141.0380   78.1580  221.0140 C   0  0  0  0  0  0  0  0  0  0  0  0
  141.0640   79.5410  221.0870 C   0  0  0  0  0  0  0  0  0  0  0  0
  141.2720   80.0860  222.3370 C   0  0  0  0  0  0  0  0  0  0  0  0
  141.3100   81.5680  222.4850 C   0  0  0  0  0  0  0  0  0  0  0  0
  140.1540   82.3920  221.9330 C   0  0  0  0  0  0  0  0  0  0  0  0
  141.4370   82.3650  221.1920 C   0  0  0  0  0  0  0  0  0  0  0  0
  141.4440   79.2960  223.4500 C   0  0  0  0  0  0  0  0  0  0  0  0
  141.4180   77.9530  223.3750 N   0  0  0  0  0  0  0  0  0  0  0  0
  139.9830   73.0240  222.6540 C   0  0  0  0  0  0  0  0  0  0  0  0
  139.5430   69.6370  223.8570 N   0  0  0  0  0  0  0  0  0  0  0  0
  140.5002   68.6667  229.7784 H   0  0  0  0  0  0  0  0  0  0  0  0
  141.0061   67.0491  229.1835 H   0  0  0  0  0  0  0  0  0  0  0  0
  142.1759   68.4123  229.1835 H   0  0  0  0  0  0  0  0  0  0  0  0
  139.6852   66.6217  227.4019 H   0  0  0  0  0  0  0  0  0  0  0  0
  138.9215   67.1272  225.1249 H   0  0  0  0  0  0  0  0  0  0  0  0
  141.6158   70.4793  227.6591 H   0  0  0  0  0  0  0  0  0  0  0  0
  140.3244   72.0734  225.4514 H   0  0  0  0  0  0  0  0  0  0  0  0
  141.8252   71.4322  224.8170 H   0  0  0  0  0  0  0  0  0  0  0  0
  139.6705   69.9703  221.2365 H   0  0  0  0  0  0  0  0  0  0  0  0
  139.4378   71.4256  219.2077 H   0  0  0  0  0  0  0  0  0  0  0  0
  139.5608   73.8933  219.4484 H   0  0  0  0  0  0  0  0  0  0  0  0
  142.0680   75.4470  221.9870 H   0  0  0  0  0  0  0  0  0  0  0  0
  140.8763   77.6601  220.0465 H   0  0  0  0  0  0  0  0  0  0  0  0
  140.9261   80.1710  220.1959 H   0  0  0  0  0  0  0  0  0  0  0  0
  141.8285   81.5169  223.4538 H   0  0  0  0  0  0  0  0  0  0  0  0
  139.2707   81.8857  221.5167 H   0  0  0  0  0  0  0  0  0  0  0  0
  139.5118   83.1888  222.3364 H   0  0  0  0  0  0  0  0  0  0  0  0
  141.5018   81.8385  220.2284 H   0  0  0  0  0  0  0  0  0  0  0  0
  142.1325   83.1332  220.8230 H   0  0  0  0  0  0  0  0  0  0  0  0
  141.6070   79.7749  224.4268 H   0  0  0  0  0  0  0  0  0  0  0  0
  140.1394   73.4800  223.6428 H   0  0  0  0  0  0  0  0  0  0  0  0
  1  2  1  0
  2  3  2  0
  3  4  1  0
  4  5  2  0
  5  6  1  0
  6  7  2  0
  6  8  1  0
  8  9  1  0
  9 10  1  0
 10 11  2  0
 11 12  1  0
 12 13  2  0
 13 14  1  0
 14 15  1  0
 15 16  2  0
 15 17  1  0
 17 18  1  0
 18 19  2  0
 19 20  1  0
 20 21  2  0
 21 22  1  0
 22 23  1  0
 23 24  1  0
 21 25  1  0
 25 26  2  0
 14 27  2  0
  9 28  2  0
  7  2  1  0
 27 10  1  0
 28  5  1  0
 26 18  1  0
 24 22  1  0
  1 29  1  0
  1 30  1  0
  1 31  1  0
  3 32  1  0
  4 33  1  0
  7 34  1  0
  8 35  1  0
  8 36  1  0
 11 37  1  0
 12 38  1  0
 13 39  1  0
 17 40  1  0
 19 41  1  0
 20 42  1  0
 22 43  1  0
 23 44  1  0
 23 45  1  0
 24 46  1  0
 24 47  1  0
 25 48  1  0
 27 49  1  0
M  END
>  <smiles>  (26) 
Cc1ccc2c(c1)CC(c1cccc(C(=O)Nc3ccc(C4CC4)cn3)c1)=N2

>  <score_type>  (26) 
oracle

>  <origin>  (26) 
autodockgpu

>  <m_score__min__energy>  (26) 
-8.5800000000000001

>  <m_primary>  (26) 
energy

>  <rmsd>  (26) 
7.192542749360725

>  <m_score__min__rmsd>  (26) 
7.192542749360725

>  <meeko>  (26) 
{"free_energy": -8.52, "intermolecular_energy": -9.71, "internal_energy": -0.76, "cluster_size": 50, "cluster_id": 1, "rank_in_cluster": 13}

>  <energy>  (26) 
-8.5

>  <cluster_rmsd>  (26) 
1.21

>  <cluster>  (26) 
1

$$$$

     RDKit          3D

 49 53  0  0  0  0  0  0  0  0999 V2000
  141.0770   68.0300  229.0000 C   0  0  0  0  0  0  0  0  0  0  0  0
  140.6390   68.4130  227.6380 C   0  0  0  0  0  0  0  0  0  0  0  0
  139.8900   67.5050  226.9040 C   0  0  0  0  0  0  0  0  0  0  0  0
  139.4570   67.7910  225.6470 C   0  0  0  0  0  0  0  0  0  0  0  0
  139.7710   69.0160  225.0950 C   0  0  0  0  0  0  0  0  0  0  0  0
  140.5090   69.9120  225.8180 C   0  0  0  0  0  0  0  0  0  0  0  0
  140.9610   69.6540  227.0830 C   0  0  0  0  0  0  0  0  0  0  0  0
  140.6890   71.1240  224.9780 C   0  0  0  0  0  0  0  0  0  0  0  0
  139.9760   70.7810  223.7450 C   0  0  0  0  0  0  0  0  0  0  0  0
  139.8280   71.6150  222.5700 C   0  0  0  0  0  0  0  0  0  0  0  0
  139.6300   71.0440  221.3290 C   0  0  0  0  0  0  0  0  0  0  0  0
  139.4910   71.8680  220.2080 C   0  0  0  0  0  0  0  0  0  0  0  0
  139.5540   73.2470  220.3640 C   0  0  0  0  0  0  0  0  0  0  0  0
  139.7520   73.8210  221.6010 C   0  0  0  0  0  0  0  0  0  0  0  0
  139.8260   75.2620  221.8140 C   0  0  0  0  0  0  0  0  0  0  0  0
  138.7800   75.9810  221.8090 O   0  0  0  0  0  0  0  0  0  0  0  0
  141.0510   75.9530  222.0380 N   0  0  0  0  0  0  0  0  0  0  0  0
  141.0890   77.3790  222.2450 C   0  0  0  0  0  0  0  0  0  0  0  0
  140.7520   78.1450  221.1410 C   0  0  0  0  0  0  0  0  0  0  0  0
  140.7570   79.5270  221.2330 C   0  0  0  0  0  0  0  0  0  0  0  0
  141.1090   80.0590  222.4560 C   0  0  0  0  0  0  0  0  0  0  0  0
  141.1340   81.5400  222.6220 C   0  0  0  0  0  0  0  0  0  0  0  0
  140.0610   82.3740  221.9350 C   0  0  0  0  0  0  0  0  0  0  0  0
  141.4290   82.3480  221.3640 C   0  0  0  0  0  0  0  0  0  0  0  0
  141.4370   79.2590  223.5260 C   0  0  0  0  0  0  0  0  0  0  0  0
  141.4300   77.9160  223.4320 N   0  0  0  0  0  0  0  0  0  0  0  0
  139.8840   72.9890  222.6750 C   0  0  0  0  0  0  0  0  0  0  0  0
  139.4680   69.5860  223.8390 N   0  0  0  0  0  0  0  0  0  0  0  0
  140.4675   68.5630  229.7446 H   0  0  0  0  0  0  0  0  0  0  0  0
  140.9532   66.9452  229.1335 H   0  0  0  0  0  0  0  0  0  0  0  0
  142.1356   68.2974  229.1335 H   0  0  0  0  0  0  0  0  0  0  0  0
  139.6404   66.5306  227.3492 H   0  0  0  0  0  0  0  0  0  0  0  0
  138.8658   67.0574  225.0793 H   0  0  0  0  0  0  0  0  0  0  0  0
  141.5540   70.3937  227.6407 H   0  0  0  0  0  0  0  0  0  0  0  0
  140.2441   72.0076  225.4589 H   0  0  0  0  0  0  0  0  0  0  0  0
  141.7452   71.3814  224.8100 H   0  0  0  0  0  0  0  0  0  0  0  0
  139.5820   69.9502  221.2229 H   0  0  0  0  0  0  0  0  0  0  0  0
  139.3332   71.4285  219.2120 H   0  0  0  0  0  0  0  0  0  0  0  0
  139.4435   73.8943  219.4815 H   0  0  0  0  0  0  0  0  0  0  0  0
  141.9500   75.4280  222.0560 H   0  0  0  0  0  0  0  0  0  0  0  0
  140.4810   77.6567  220.1933 H   0  0  0  0  0  0  0  0  0  0  0  0
  140.4944   80.1659  220.3769 H   0  0  0  0  0  0  0  0  0  0  0  0
  141.5244   81.4777  223.6485 H   0  0  0  0  0  0  0  0  0  0  0  0
  139.2366   81.8755  221.4040 H   0  0  0  0  0  0  0  0  0  0  0  0
  139.3750   83.1698  222.2606 H   0  0  0  0  0  0  0  0  0  0  0  0
  141.6152   81.8301  220.4116 H   0  0  0  0  0  0  0  0  0  0  0  0
  142.1688   83.1162  221.0947 H   0  0  0  0  0  0  0  0  0  0  0  0
  141.7118   79.7283  224.4822 H   0  0  0  0  0  0  0  0  0  0  0  0
  140.0421   73.4342  223.6684 H   0  0  0  0  0  0  0  0  0  0  0  0
  1  2  1  0
  2  3  2  0
  3  4  1  0
  4  5  2  0
  5  6  1  0
  6  7  2  0
  6  8  1  0
  8  9  1  0
  9 10  1  0
 10 11  2  0
 11 12  1  0
 12 13  2  0
 13 14  1  0
 14 15  1  0
 15 16  2  0
 15 17  1  0
 17 18  1  0
 18 19  2  0
 19 20  1  0
 20 21  2  0
 21 22  1  0
 22 23  1  0
 23 24  1  0
 21 25  1  0
 25 26  2  0
 14 27  2  0
  9 28  2  0
  7  2  1  0
 27 10  1  0
 28  5  1  0
 26 18  1  0
 24 22  1  0
  1 29  1  0
  1 30  1  0
  1 31  1  0
  3 32  1  0
  4 33  1  0
  7 34  1  0
  8 35  1  0
  8 36  1  0
 11 37  1  0
 12 38  1  0
 13 39  1  0
 17 40  1  0
 19 41  1  0
 20 42  1  0
 22 43  1  0
 23 44  1  0
 23 45  1  0
 24 46  1  0
 24 47  1  0
 25 48  1  0
 27 49  1  0
M  END
>  <smiles>  (27) 
Cc1ccc2c(c1)CC(c1cccc(C(=O)Nc3ccc(C4CC4)cn3)c1)=N2

>  <score_type>  (27) 
oracle

>  <origin>  (27) 
autodockgpu

>  <m_score__min__energy>  (27) 
-8.5800000000000001

>  <m_primary>  (27) 
energy

>  <rmsd>  (27) 
7.22238955887623

>  <m_score__min__rmsd>  (27) 
7.22238955887623

>  <meeko>  (27) 
{"free_energy": -8.42, "intermolecular_energy": -9.62, "internal_energy": -0.75, "cluster_size": 50, "cluster_id": 1, "rank_in_cluster": 44}

>  <energy>  (27) 
-8.49

>  <cluster_rmsd>  (27) 
1.19

>  <cluster>  (27) 
1

$$$$

     RDKit          3D

 49 53  0  0  0  0  0  0  0  0999 V2000
  141.0130   68.2100  229.0110 C   0  0  0  0  0  0  0  0  0  0  0  0
  140.5990   68.5870  227.6390 C   0  0  0  0  0  0  0  0  0  0  0  0
  139.7220   67.7530  226.9600 C   0  0  0  0  0  0  0  0  0  0  0  0
  139.3020   68.0380  225.6990 C   0  0  0  0  0  0  0  0  0  0  0  0
  139.7610   69.1850  225.0850 C   0  0  0  0  0  0  0  0  0  0  0  0
  140.6250   70.0080  225.7540 C   0  0  0  0  0  0  0  0  0  0  0  0
  141.0670   69.7500  227.0220 C   0  0  0  0  0  0  0  0  0  0  0  0
  140.9430   71.1480  224.8550 C   0  0  0  0  0  0  0  0  0  0  0  0
  140.1640   70.8480  223.6510 C   0  0  0  0  0  0  0  0  0  0  0  0
  140.1000   71.6400  222.4410 C   0  0  0  0  0  0  0  0  0  0  0  0
  140.0070   71.0280  221.2080 C   0  0  0  0  0  0  0  0  0  0  0  0
  139.9480   71.8130  220.0530 C   0  0  0  0  0  0  0  0  0  0  0  0
  139.9830   73.1960  220.1670 C   0  0  0  0  0  0  0  0  0  0  0  0
  140.0760   73.8130  221.3970 C   0  0  0  0  0  0  0  0  0  0  0  0
  140.1170   75.2610  221.5670 C   0  0  0  0  0  0  0  0  0  0  0  0
  139.0500   75.9410  221.6650 O   0  0  0  0  0  0  0  0  0  0  0  0
  141.3320   76.0020  221.6330 N   0  0  0  0  0  0  0  0  0  0  0  0
  141.3380   77.4330  221.8010 C   0  0  0  0  0  0  0  0  0  0  0  0
  141.1230   77.8760  223.0960 C   0  0  0  0  0  0  0  0  0  0  0  0
  141.1090   79.2340  223.3670 C   0  0  0  0  0  0  0  0  0  0  0  0
  141.3170   80.0760  222.2950 C   0  0  0  0  0  0  0  0  0  0  0  0
  141.3150   81.5490  222.5190 C   0  0  0  0  0  0  0  0  0  0  0  0
  140.1660   82.3760  221.9570 C   0  0  0  0  0  0  0  0  0  0  0  0
  141.4810   82.4140  221.2750 C   0  0  0  0  0  0  0  0  0  0  0  0
  141.5270   79.5910  221.0250 C   0  0  0  0  0  0  0  0  0  0  0  0
  141.5390   78.2710  220.7660 N   0  0  0  0  0  0  0  0  0  0  0  0
  140.1320   73.0180  222.5050 C   0  0  0  0  0  0  0  0  0  0  0  0
  139.5070   69.7340  223.8090 N   0  0  0  0  0  0  0  0  0  0  0  0
  140.4055   68.7632  229.7424 H   0  0  0  0  0  0  0  0  0  0  0  0
  140.8657   67.1294  229.1545 H   0  0  0  0  0  0  0  0  0  0  0  0
  142.0751   68.4575  229.1545 H   0  0  0  0  0  0  0  0  0  0  0  0
  139.3582   66.8399  227.4538 H   0  0  0  0  0  0  0  0  0  0  0  0
  138.6069   67.3645  225.1762 H   0  0  0  0  0  0  0  0  0  0  0  0
  141.7626   70.4302  227.5353 H   0  0  0  0  0  0  0  0  0  0  0  0
  140.6283   72.1028  225.3014 H   0  0  0  0  0  0  0  0  0  0  0  0
  142.0198   71.2563  224.6579 H   0  0  0  0  0  0  0  0  0  0  0  0
  139.9795   69.9308  221.1345 H   0  0  0  0  0  0  0  0  0  0  0  0
  139.8745   71.3393  219.0630 H   0  0  0  0  0  0  0  0  0  0  0  0
  139.9356   73.8127  219.2574 H   0  0  0  0  0  0  0  0  0  0  0  0
  142.2470   75.5100  221.5600 H   0  0  0  0  0  0  0  0  0  0  0  0
  140.9637   77.1505  223.9073 H   0  0  0  0  0  0  0  0  0  0  0  0
  140.9409   79.6203  224.3831 H   0  0  0  0  0  0  0  0  0  0  0  0
  141.7913   81.4589  223.5064 H   0  0  0  0  0  0  0  0  0  0  0  0
  139.3141   81.8734  221.4757 H   0  0  0  0  0  0  0  0  0  0  0  0
  139.4882   83.1374  222.3703 H   0  0  0  0  0  0  0  0  0  0  0  0
  141.6009   81.9393  220.2900 H   0  0  0  0  0  0  0  0  0  0  0  0
  142.1742   83.2145  220.9774 H   0  0  0  0  0  0  0  0  0  0  0  0
  141.6892   80.3006  220.2003 H   0  0  0  0  0  0  0  0  0  0  0  0
  140.2059   73.4969  223.4925 H   0  0  0  0  0  0  0  0  0  0  0  0
  1  2  1  0
  2  3  2  0
  3  4  1  0
  4  5  2  0
  5  6  1  0
  6  7  2  0
  6  8  1  0
  8  9  1  0
  9 10  1  0
 10 11  2  0
 11 12  1  0
 12 13  2  0
 13 14  1  0
 14 15  1  0
 15 16  2  0
 15 17  1  0
 17 18  1  0
 18 19  2  0
 19 20  1  0
 20 21  2  0
 21 22  1  0
 22 23  1  0
 23 24  1  0
 21 25  1  0
 25 26  2  0
 14 27  2  0
  9 28  2  0
  7  2  1  0
 27 10  1  0
 28  5  1  0
 26 18  1  0
 24 22  1  0
  1 29  1  0
  1 30  1  0
  1 31  1  0
  3 32  1  0
  4 33  1  0
  7 34  1  0
  8 35  1  0
  8 36  1  0
 11 37  1  0
 12 38  1  0
 13 39  1  0
 17 40  1  0
 19 41  1  0
 20 42  1  0
 22 43  1  0
 23 44  1  0
 23 45  1  0
 24 46  1  0
 24 47  1  0
 25 48  1  0
 27 49  1  0
M  END
>  <smiles>  (28) 
Cc1ccc2c(c1)CC(c1cccc(C(=O)Nc3ccc(C4CC4)cn3)c1)=N2

>  <score_type>  (28) 
oracle

>  <origin>  (28) 
autodockgpu

>  <m_score__min__energy>  (28) 
-8.5800000000000001

>  <m_primary>  (28) 
energy

>  <rmsd>  (28) 
7.271592660310209

>  <m_score__min__rmsd>  (28) 
7.271592660310209

>  <meeko>  (28) 
{"free_energy": -8.45, "intermolecular_energy": -9.64, "internal_energy": -0.77, "cluster_size": 50, "cluster_id": 1, "rank_in_cluster": 41}

>  <energy>  (28) 
-8.48

>  <cluster_rmsd>  (28) 
1.19

>  <cluster>  (28) 
1

$$$$

     RDKit          3D

 49 53  0  0  0  0  0  0  0  0999 V2000
  141.1110   68.1290  229.0910 C   0  0  0  0  0  0  0  0  0  0  0  0
  140.6110   68.4650  227.7370 C   0  0  0  0  0  0  0  0  0  0  0  0
  139.7360   67.5840  227.1170 C   0  0  0  0  0  0  0  0  0  0  0  0
  139.2400   67.8310  225.8750 C   0  0  0  0  0  0  0  0  0  0  0  0
  139.6180   68.9860  225.2220 C   0  0  0  0  0  0  0  0  0  0  0  0
  140.4800   69.8550  225.8320 C   0  0  0  0  0  0  0  0  0  0  0  0
  140.9980   69.6360  227.0800 C   0  0  0  0  0  0  0  0  0  0  0  0
  140.7030   70.9920  224.9020 C   0  0  0  0  0  0  0  0  0  0  0  0
  139.8760   70.6400  223.7450 C   0  0  0  0  0  0  0  0  0  0  0  0
  139.7170   71.4090  222.5290 C   0  0  0  0  0  0  0  0  0  0  0  0
  139.3730   70.7850  221.3460 C   0  0  0  0  0  0  0  0  0  0  0  0
  139.2260   71.5470  220.1850 C   0  0  0  0  0  0  0  0  0  0  0  0
  139.4280   72.9200  220.2400 C   0  0  0  0  0  0  0  0  0  0  0  0
  139.7720   73.5480  221.4180 C   0  0  0  0  0  0  0  0  0  0  0  0
  139.9940   74.9850  221.5250 C   0  0  0  0  0  0  0  0  0  0  0  0
  140.6430   75.6180  220.6360 O   0  0  0  0  0  0  0  0  0  0  0  0
  139.5100   75.7680  222.6130 N   0  0  0  0  0  0  0  0  0  0  0  0
  139.7470   77.1880  222.6890 C   0  0  0  0  0  0  0  0  0  0  0  0
  141.0780   77.5600  222.7710 C   0  0  0  0  0  0  0  0  0  0  0  0
  141.4160   78.9020  222.8480 C   0  0  0  0  0  0  0  0  0  0  0  0
  140.3690   79.7990  222.8370 C   0  0  0  0  0  0  0  0  0  0  0  0
  140.6640   81.2570  222.9170 C   0  0  0  0  0  0  0  0  0  0  0  0
  141.7530   81.8370  222.0250 C   0  0  0  0  0  0  0  0  0  0  0  0
  142.0360   81.6330  223.4650 C   0  0  0  0  0  0  0  0  0  0  0  0
  139.0610   79.3830  222.7540 C   0  0  0  0  0  0  0  0  0  0  0  0
  138.7370   78.0790  222.6790 N   0  0  0  0  0  0  0  0  0  0  0  0
  139.9080   72.7750  222.5350 C   0  0  0  0  0  0  0  0  0  0  0  0
  139.2760   69.5030  223.9530 N   0  0  0  0  0  0  0  0  0  0  0  0
  140.4482   68.5744  229.8476 H   0  0  0  0  0  0  0  0  0  0  0  0
  141.1270   67.0362  229.2152 H   0  0  0  0  0  0  0  0  0  0  0  0
  142.1289   68.5271  229.2152 H   0  0  0  0  0  0  0  0  0  0  0  0
  139.4368   66.6649  227.6422 H   0  0  0  0  0  0  0  0  0  0  0  0
  138.5482   67.1209  225.3985 H   0  0  0  0  0  0  0  0  0  0  0  0
  141.6904   70.3523  227.5465 H   0  0  0  0  0  0  0  0  0  0  0  0
  140.3719   71.9402  225.3506 H   0  0  0  0  0  0  0  0  0  0  0  0
  141.7626   71.1417  224.6474 H   0  0  0  0  0  0  0  0  0  0  0  0
  139.2161   69.6966  221.3184 H   0  0  0  0  0  0  0  0  0  0  0  0
  138.9526   71.0640  219.2353 H   0  0  0  0  0  0  0  0  0  0  0  0
  139.3111   73.5187  219.3247 H   0  0  0  0  0  0  0  0  0  0  0  0
  138.9690   75.3170  223.3800 H   0  0  0  0  0  0  0  0  0  0  0  0
  141.8656   76.7921  222.7750 H   0  0  0  0  0  0  0  0  0  0  0  0
  142.4628   79.2334  222.9143 H   0  0  0  0  0  0  0  0  0  0  0  0
  139.6154   81.5168  223.1243 H   0  0  0  0  0  0  0  0  0  0  0  0
  142.2436   81.1991  221.2751 H   0  0  0  0  0  0  0  0  0  0  0  0
  141.8142   82.6957  221.3402 H   0  0  0  0  0  0  0  0  0  0  0  0
  142.7352   80.8441  223.7793 H   0  0  0  0  0  0  0  0  0  0  0  0
  142.3917   82.2783  224.2817 H   0  0  0  0  0  0  0  0  0  0  0  0
  138.2587   80.1356  222.7488 H   0  0  0  0  0  0  0  0  0  0  0  0
  140.1821   73.2632  223.4819 H   0  0  0  0  0  0  0  0  0  0  0  0
  1  2  1  0
  2  3  2  0
  3  4  1  0
  4  5  2  0
  5  6  1  0
  6  7  2  0
  6  8  1  0
  8  9  1  0
  9 10  1  0
 10 11  2  0
 11 12  1  0
 12 13  2  0
 13 14  1  0
 14 15  1  0
 15 16  2  0
 15 17  1  0
 17 18  1  0
 18 19  2  0
 19 20  1  0
 20 21  2  0
 21 22  1  0
 22 23  1  0
 23 24  1  0
 21 25  1  0
 25 26  2  0
 14 27  2  0
  9 28  2  0
  7  2  1  0
 27 10  1  0
 28  5  1  0
 26 18  1  0
 24 22  1  0
  1 29  1  0
  1 30  1  0
  1 31  1  0
  3 32  1  0
  4 33  1  0
  7 34  1  0
  8 35  1  0
  8 36  1  0
 11 37  1  0
 12 38  1  0
 13 39  1  0
 17 40  1  0
 19 41  1  0
 20 42  1  0
 22 43  1  0
 23 44  1  0
 23 45  1  0
 24 46  1  0
 24 47  1  0
 25 48  1  0
 27 49  1  0
M  END
>  <smiles>  (29) 
Cc1ccc2c(c1)CC(c1cccc(C(=O)Nc3ccc(C4CC4)cn3)c1)=N2

>  <score_type>  (29) 
oracle

>  <origin>  (29) 
autodockgpu

>  <m_score__min__energy>  (29) 
-8.5800000000000001

>  <m_primary>  (29) 
energy

>  <rmsd>  (29) 
7.451030050250419

>  <m_score__min__rmsd>  (29) 
7.451030050250419

>  <meeko>  (29) 
{"free_energy": -8.56, "intermolecular_energy": -9.75, "internal_energy": -0.74, "cluster_size": 50, "cluster_id": 1, "rank_in_cluster": 3}

>  <energy>  (29) 
-8.48

>  <cluster_rmsd>  (29) 
1.22

>  <cluster>  (29) 
1

$$$$

     RDKit          3D

 49 53  0  0  0  0  0  0  0  0999 V2000
  141.1800   68.1700  228.9550 C   0  0  0  0  0  0  0  0  0  0  0  0
  140.7010   68.4750  227.5870 C   0  0  0  0  0  0  0  0  0  0  0  0
  140.0230   67.4870  226.8870 C   0  0  0  0  0  0  0  0  0  0  0  0
  139.5570   67.7000  225.6280 C   0  0  0  0  0  0  0  0  0  0  0  0
  139.7650   68.9290  225.0370 C   0  0  0  0  0  0  0  0  0  0  0  0
  140.4330   69.9040  225.7260 C   0  0  0  0  0  0  0  0  0  0  0  0
  140.9150   69.7220  226.9930 C   0  0  0  0  0  0  0  0  0  0  0  0
  140.5060   71.1010  224.8500 C   0  0  0  0  0  0  0  0  0  0  0  0
  139.8130   70.6650  223.6350 C   0  0  0  0  0  0  0  0  0  0  0  0
  139.5880   71.4480  222.4380 C   0  0  0  0  0  0  0  0  0  0  0  0
  139.1680   70.8390  221.2720 C   0  0  0  0  0  0  0  0  0  0  0  0
  138.9580   71.6150  220.1290 C   0  0  0  0  0  0  0  0  0  0  0  0
  139.1750   72.9860  220.1860 C   0  0  0  0  0  0  0  0  0  0  0  0
  139.5940   73.5980  221.3470 C   0  0  0  0  0  0  0  0  0  0  0  0
  139.8350   75.0320  221.4550 C   0  0  0  0  0  0  0  0  0  0  0  0
  140.3590   75.6840  220.5000 O   0  0  0  0  0  0  0  0  0  0  0  0
  139.5080   75.7910  222.6150 N   0  0  0  0  0  0  0  0  0  0  0  0
  139.7590   77.2080  222.6900 C   0  0  0  0  0  0  0  0  0  0  0  0
  141.0950   77.5690  222.7380 C   0  0  0  0  0  0  0  0  0  0  0  0
  141.4470   78.9070  222.8110 C   0  0  0  0  0  0  0  0  0  0  0  0
  140.4080   79.8130  222.8310 C   0  0  0  0  0  0  0  0  0  0  0  0
  140.7170   81.2690  222.9090 C   0  0  0  0  0  0  0  0  0  0  0  0
  141.8210   81.8330  222.0250 C   0  0  0  0  0  0  0  0  0  0  0  0
  142.0870   81.6320  223.4690 C   0  0  0  0  0  0  0  0  0  0  0  0
  139.0940   79.4090  222.7820 C   0  0  0  0  0  0  0  0  0  0  0  0
  138.7570   78.1080  222.7110 N   0  0  0  0  0  0  0  0  0  0  0  0
  139.7900   72.8130  222.4460 C   0  0  0  0  0  0  0  0  0  0  0  0
  139.4060   69.4350  223.7690 N   0  0  0  0  0  0  0  0  0  0  0  0
  140.4906   68.6090  229.6912 H   0  0  0  0  0  0  0  0  0  0  0  0
  141.2201   67.0797  229.0949 H   0  0  0  0  0  0  0  0  0  0  0  0
  142.1850   68.5949  229.0949 H   0  0  0  0  0  0  0  0  0  0  0  0
  139.8588   66.5086  227.3621 H   0  0  0  0  0  0  0  0  0  0  0  0
  139.0221   66.9044  225.0886 H   0  0  0  0  0  0  0  0  0  0  0  0
  141.4493   70.5243  227.5229 H   0  0  0  0  0  0  0  0  0  0  0  0
  139.9944   71.9592  225.3102 H   0  0  0  0  0  0  0  0  0  0  0  0
  141.5362   71.4385  224.6633 H   0  0  0  0  0  0  0  0  0  0  0  0
  139.0002   69.7523  221.2432 H   0  0  0  0  0  0  0  0  0  0  0  0
  138.6239   71.1445  219.1925 H   0  0  0  0  0  0  0  0  0  0  0  0
  139.0089   73.5955  219.2855 H   0  0  0  0  0  0  0  0  0  0  0  0
  139.0740   75.3230  223.4390 H   0  0  0  0  0  0  0  0  0  0  0  0
  141.8758   76.7944  222.7182 H   0  0  0  0  0  0  0  0  0  0  0  0
  142.4981   79.2289  222.8508 H   0  0  0  0  0  0  0  0  0  0  0  0
  139.6695   81.5413  223.1053 H   0  0  0  0  0  0  0  0  0  0  0  0
  142.3119   81.1864  221.2828 H   0  0  0  0  0  0  0  0  0  0  0  0
  141.8986   82.6879  221.3371 H   0  0  0  0  0  0  0  0  0  0  0  0
  142.7741   80.8368  223.7938 H   0  0  0  0  0  0  0  0  0  0  0  0
  142.4415   82.2769  224.2866 H   0  0  0  0  0  0  0  0  0  0  0  0
  138.2985   80.1685  222.8013 H   0  0  0  0  0  0  0  0  0  0  0  0
  140.1238   73.2895  223.3796 H   0  0  0  0  0  0  0  0  0  0  0  0
  1  2  1  0
  2  3  2  0
  3  4  1  0
  4  5  2  0
  5  6  1  0
  6  7  2  0
  6  8  1  0
  8  9  1  0
  9 10  1  0
 10 11  2  0
 11 12  1  0
 12 13  2  0
 13 14  1  0
 14 15  1  0
 15 16  2  0
 15 17  1  0
 17 18  1  0
 18 19  2  0
 19 20  1  0
 20 21  2  0
 21 22  1  0
 22 23  1  0
 23 24  1  0
 21 25  1  0
 25 26  2  0
 14 27  2  0
  9 28  2  0
  7  2  1  0
 27 10  1  0
 28  5  1  0
 26 18  1  0
 24 22  1  0
  1 29  1  0
  1 30  1  0
  1 31  1  0
  3 32  1  0
  4 33  1  0
  7 34  1  0
  8 35  1  0
  8 36  1  0
 11 37  1  0
 12 38  1  0
 13 39  1  0
 17 40  1  0
 19 41  1  0
 20 42  1  0
 22 43  1  0
 23 44  1  0
 23 45  1  0
 24 46  1  0
 24 47  1  0
 25 48  1  0
 27 49  1  0
M  END
>  <smiles>  (30) 
Cc1ccc2c(c1)CC(c1cccc(C(=O)Nc3ccc(C4CC4)cn3)c1)=N2

>  <score_type>  (30) 
oracle

>  <origin>  (30) 
autodockgpu

>  <m_score__min__energy>  (30) 
-8.5800000000000001

>  <m_primary>  (30) 
energy

>  <rmsd>  (30) 
7.419800883771589

>  <m_score__min__rmsd>  (30) 
7.419800883771589

>  <meeko>  (30) 
{"free_energy": -8.5, "intermolecular_energy": -9.69, "internal_energy": -0.76, "cluster_size": 50, "cluster_id": 1, "rank_in_cluster": 24}

>  <energy>  (30) 
-8.48

>  <cluster_rmsd>  (30) 
1.14

>  <cluster>  (30) 
1

$$$$

     RDKit          3D

 49 53  0  0  0  0  0  0  0  0999 V2000
  141.1640   68.1110  229.0700 C   0  0  0  0  0  0  0  0  0  0  0  0
  140.6810   68.4470  227.7100 C   0  0  0  0  0  0  0  0  0  0  0  0
  139.8720   67.5320  227.0510 C   0  0  0  0  0  0  0  0  0  0  0  0
  139.3950   67.7770  225.8010 C   0  0  0  0  0  0  0  0  0  0  0  0
  139.7250   68.9640  225.1800 C   0  0  0  0  0  0  0  0  0  0  0  0
  140.5210   69.8660  225.8300 C   0  0  0  0  0  0  0  0  0  0  0  0
  141.0190   69.6510  227.0860 C   0  0  0  0  0  0  0  0  0  0  0  0
  140.7040   71.0320  224.9280 C   0  0  0  0  0  0  0  0  0  0  0  0
  139.9280   70.6590  223.7420 C   0  0  0  0  0  0  0  0  0  0  0  0
  139.7570   71.4430  222.5370 C   0  0  0  0  0  0  0  0  0  0  0  0
  139.3860   70.8350  221.3540 C   0  0  0  0  0  0  0  0  0  0  0  0
  139.2270   71.6110  220.2030 C   0  0  0  0  0  0  0  0  0  0  0  0
  139.4460   72.9810  220.2690 C   0  0  0  0  0  0  0  0  0  0  0  0
  139.8180   73.5930  221.4480 C   0  0  0  0  0  0  0  0  0  0  0  0
  140.0590   75.0260  221.5660 C   0  0  0  0  0  0  0  0  0  0  0  0
  140.7890   75.6410  220.7300 O   0  0  0  0  0  0  0  0  0  0  0  0
  139.5040   75.8240  222.6070 N   0  0  0  0  0  0  0  0  0  0  0  0
  139.7620   77.2400  222.6960 C   0  0  0  0  0  0  0  0  0  0  0  0
  141.0880   77.5870  222.8910 C   0  0  0  0  0  0  0  0  0  0  0  0
  141.4440   78.9220  222.9900 C   0  0  0  0  0  0  0  0  0  0  0  0
  140.4200   79.8390  222.8840 C   0  0  0  0  0  0  0  0  0  0  0  0
  140.7360   81.2920  222.9810 C   0  0  0  0  0  0  0  0  0  0  0  0
  141.7820   81.8820  222.0430 C   0  0  0  0  0  0  0  0  0  0  0  0
  142.1400   81.6410  223.4610 C   0  0  0  0  0  0  0  0  0  0  0  0
  139.1160   79.4480  222.6890 C   0  0  0  0  0  0  0  0  0  0  0  0
  138.7740   78.1500  222.5940 N   0  0  0  0  0  0  0  0  0  0  0  0
  139.9640   72.8070  222.5540 C   0  0  0  0  0  0  0  0  0  0  0  0
  139.3860   69.4870  223.9130 N   0  0  0  0  0  0  0  0  0  0  0  0
  140.5021   68.5714  229.8183 H   0  0  0  0  0  0  0  0  0  0  0  0
  141.1613   67.0188  229.2006 H   0  0  0  0  0  0  0  0  0  0  0  0
  142.1871   68.4934  229.2006 H   0  0  0  0  0  0  0  0  0  0  0  0
  139.6107   66.5875  227.5507 H   0  0  0  0  0  0  0  0  0  0  0  0
  138.7558   67.0399  225.2929 H   0  0  0  0  0  0  0  0  0  0  0  0
  141.6586   70.3946  227.5839 H   0  0  0  0  0  0  0  0  0  0  0  0
  140.3090   71.9511  225.3855 H   0  0  0  0  0  0  0  0  0  0  0  0
  141.7599   71.2448  224.7048 H   0  0  0  0  0  0  0  0  0  0  0  0
  139.2170   69.7487  221.3181 H   0  0  0  0  0  0  0  0  0  0  0  0
  138.9311   71.1413  219.2534 H   0  0  0  0  0  0  0  0  0  0  0  0
  139.3202   73.5907  219.3621 H   0  0  0  0  0  0  0  0  0  0  0  0
  138.8930   75.3880  223.3300 H   0  0  0  0  0  0  0  0  0  0  0  0
  141.8571   76.8043  222.9672 H   0  0  0  0  0  0  0  0  0  0  0  0
  142.4875   79.2337  223.1449 H   0  0  0  0  0  0  0  0  0  0  0  0
  139.7034   81.5576  223.2516 H   0  0  0  0  0  0  0  0  0  0  0  0
  142.2237   81.2569  221.2530 H   0  0  0  0  0  0  0  0  0  0  0  0
  141.8159   82.7557  221.3756 H   0  0  0  0  0  0  0  0  0  0  0  0
  142.8460   80.8378  223.7185 H   0  0  0  0  0  0  0  0  0  0  0  0
  142.5469   82.2634  224.2716 H   0  0  0  0  0  0  0  0  0  0  0  0
  138.3325   80.2159  222.6086 H   0  0  0  0  0  0  0  0  0  0  0  0
  140.2598   73.2820  223.5010 H   0  0  0  0  0  0  0  0  0  0  0  0
  1  2  1  0
  2  3  2  0
  3  4  1  0
  4  5  2  0
  5  6  1  0
  6  7  2  0
  6  8  1  0
  8  9  1  0
  9 10  1  0
 10 11  2  0
 11 12  1  0
 12 13  2  0
 13 14  1  0
 14 15  1  0
 15 16  2  0
 15 17  1  0
 17 18  1  0
 18 19  2  0
 19 20  1  0
 20 21  2  0
 21 22  1  0
 22 23  1  0
 23 24  1  0
 21 25  1  0
 25 26  2  0
 14 27  2  0
  9 28  2  0
  7  2  1  0
 27 10  1  0
 28  5  1  0
 26 18  1  0
 24 22  1  0
  1 29  1  0
  1 30  1  0
  1 31  1  0
  3 32  1  0
  4 33  1  0
  7 34  1  0
  8 35  1  0
  8 36  1  0
 11 37  1  0
 12 38  1  0
 13 39  1  0
 17 40  1  0
 19 41  1  0
 20 42  1  0
 22 43  1  0
 23 44  1  0
 23 45  1  0
 24 46  1  0
 24 47  1  0
 25 48  1  0
 27 49  1  0
M  END
>  <smiles>  (31) 
Cc1ccc2c(c1)CC(c1cccc(C(=O)Nc3ccc(C4CC4)cn3)c1)=N2

>  <score_type>  (31) 
oracle

>  <origin>  (31) 
autodockgpu

>  <m_score__min__energy>  (31) 
-8.5800000000000001

>  <m_primary>  (31) 
energy

>  <rmsd>  (31) 
7.44418915589666

>  <m_score__min__rmsd>  (31) 
7.44418915589666

>  <meeko>  (31) 
{"free_energy": -8.54, "intermolecular_energy": -9.74, "internal_energy": -0.74, "cluster_size": 50, "cluster_id": 1, "rank_in_cluster": 10}

>  <energy>  (31) 
-8.48

>  <cluster_rmsd>  (31) 
1.25

>  <cluster>  (31) 
1

$$$$

     RDKit          3D

 49 53  0  0  0  0  0  0  0  0999 V2000
  141.2930   68.1500  229.0920 C   0  0  0  0  0  0  0  0  0  0  0  0
  140.8020   68.4600  227.7290 C   0  0  0  0  0  0  0  0  0  0  0  0
  140.0590   67.4990  227.0580 C   0  0  0  0  0  0  0  0  0  0  0  0
  139.5790   67.7180  225.8050 C   0  0  0  0  0  0  0  0  0  0  0  0
  139.8390   68.9260  225.1920 C   0  0  0  0  0  0  0  0  0  0  0  0
  140.5700   69.8750  225.8530 C   0  0  0  0  0  0  0  0  0  0  0  0
  141.0680   69.6850  227.1130 C   0  0  0  0  0  0  0  0  0  0  0  0
  140.6870   71.0540  224.9570 C   0  0  0  0  0  0  0  0  0  0  0  0
  139.9470   70.6370  223.7630 C   0  0  0  0  0  0  0  0  0  0  0  0
  139.7380   71.4140  222.5590 C   0  0  0  0  0  0  0  0  0  0  0  0
  139.3360   70.7990  221.3900 C   0  0  0  0  0  0  0  0  0  0  0  0
  139.1410   71.5680  220.2400 C   0  0  0  0  0  0  0  0  0  0  0  0
  139.3560   72.9390  220.2930 C   0  0  0  0  0  0  0  0  0  0  0  0
  139.7580   73.5590  221.4580 C   0  0  0  0  0  0  0  0  0  0  0  0
  139.9960   74.9930  221.5610 C   0  0  0  0  0  0  0  0  0  0  0  0
  140.6770   75.6110  220.6870 O   0  0  0  0  0  0  0  0  0  0  0  0
  139.4930   75.7900  222.6300 N   0  0  0  0  0  0  0  0  0  0  0  0
  139.7460   77.2070  222.7030 C   0  0  0  0  0  0  0  0  0  0  0  0
  141.0820   77.5650  222.7680 C   0  0  0  0  0  0  0  0  0  0  0  0
  141.4350   78.9020  222.8410 C   0  0  0  0  0  0  0  0  0  0  0  0
  140.3980   79.8110  222.8440 C   0  0  0  0  0  0  0  0  0  0  0  0
  140.7090   81.2660  222.9210 C   0  0  0  0  0  0  0  0  0  0  0  0
  141.8060   81.8310  222.0280 C   0  0  0  0  0  0  0  0  0  0  0  0
  142.0850   81.6270  223.4700 C   0  0  0  0  0  0  0  0  0  0  0  0
  139.0840   79.4090  222.7780 C   0  0  0  0  0  0  0  0  0  0  0  0
  138.7460   78.1080  222.7070 N   0  0  0  0  0  0  0  0  0  0  0  0
  139.9390   72.7790  222.5630 C   0  0  0  0  0  0  0  0  0  0  0  0
  139.4800   69.4320  223.9240 N   0  0  0  0  0  0  0  0  0  0  0  0
  140.6077   68.5826  229.8358 H   0  0  0  0  0  0  0  0  0  0  0  0
  141.3384   67.0592  229.2261 H   0  0  0  0  0  0  0  0  0  0  0  0
  142.2974   68.5780  229.2261 H   0  0  0  0  0  0  0  0  0  0  0  0
  139.8536   66.5376  227.5515 H   0  0  0  0  0  0  0  0  0  0  0  0
  138.9925   66.9441  225.2882 H   0  0  0  0  0  0  0  0  0  0  0  0
  141.6541   70.4654  227.6204 H   0  0  0  0  0  0  0  0  0  0  0  0
  140.2304   71.9444  225.4139 H   0  0  0  0  0  0  0  0  0  0  0  0
  141.7292   71.3345  224.7444 H   0  0  0  0  0  0  0  0  0  0  0  0
  139.1705   69.7118  221.3643 H   0  0  0  0  0  0  0  0  0  0  0  0
  138.8203   71.0921  219.3016 H   0  0  0  0  0  0  0  0  0  0  0  0
  139.2025   73.5434  219.3868 H   0  0  0  0  0  0  0  0  0  0  0  0
  138.9240   75.3510  223.3850 H   0  0  0  0  0  0  0  0  0  0  0  0
  141.8614   76.7888  222.7617 H   0  0  0  0  0  0  0  0  0  0  0  0
  142.4862   79.2218  222.8938 H   0  0  0  0  0  0  0  0  0  0  0  0
  139.6634   81.5388  223.1265 H   0  0  0  0  0  0  0  0  0  0  0  0
  142.2898   81.1854  221.2802 H   0  0  0  0  0  0  0  0  0  0  0  0
  141.8781   82.6871  221.3411 H   0  0  0  0  0  0  0  0  0  0  0  0
  142.7743   80.8306  223.7871 H   0  0  0  0  0  0  0  0  0  0  0  0
  142.4474   82.2700  224.2856 H   0  0  0  0  0  0  0  0  0  0  0  0
  138.2896   80.1698  222.7834 H   0  0  0  0  0  0  0  0  0  0  0  0
  140.2595   73.2601  223.4989 H   0  0  0  0  0  0  0  0  0  0  0  0
  1  2  1  0
  2  3  2  0
  3  4  1  0
  4  5  2  0
  5  6  1  0
  6  7  2  0
  6  8  1  0
  8  9  1  0
  9 10  1  0
 10 11  2  0
 11 12  1  0
 12 13  2  0
 13 14  1  0
 14 15  1  0
 15 16  2  0
 15 17  1  0
 17 18  1  0
 18 19  2  0
 19 20  1  0
 20 21  2  0
 21 22  1  0
 22 23  1  0
 23 24  1  0
 21 25  1  0
 25 26  2  0
 14 27  2  0
  9 28  2  0
  7  2  1  0
 27 10  1  0
 28  5  1  0
 26 18  1  0
 24 22  1  0
  1 29  1  0
  1 30  1  0
  1 31  1  0
  3 32  1  0
  4 33  1  0
  7 34  1  0
  8 35  1  0
  8 36  1  0
 11 37  1  0
 12 38  1  0
 13 39  1  0
 17 40  1  0
 19 41  1  0
 20 42  1  0
 22 43  1  0
 23 44  1  0
 23 45  1  0
 24 46  1  0
 24 47  1  0
 25 48  1  0
 27 49  1  0
M  END
>  <smiles>  (32) 
Cc1ccc2c(c1)CC(c1cccc(C(=O)Nc3ccc(C4CC4)cn3)c1)=N2

>  <score_type>  (32) 
oracle

>  <origin>  (32) 
autodockgpu

>  <m_score__min__energy>  (32) 
-8.5800000000000001

>  <m_primary>  (32) 
energy

>  <rmsd>  (32) 
7.445439972761628

>  <m_score__min__rmsd>  (32) 
7.445439972761628

>  <meeko>  (32) 
{"free_energy": -8.58, "intermolecular_energy": -9.77, "internal_energy": -0.73, "cluster_size": 50, "cluster_id": 1, "rank_in_cluster": 1}

>  <energy>  (32) 
-8.47

>  <cluster_rmsd>  (32) 
1.19

>  <cluster>  (32) 
1

$$$$

     RDKit          3D

 49 53  0  0  0  0  0  0  0  0999 V2000
  141.1230   68.1480  228.9830 C   0  0  0  0  0  0  0  0  0  0  0  0
  140.6930   68.5220  227.6150 C   0  0  0  0  0  0  0  0  0  0  0  0
  139.9020   67.6320  226.9030 C   0  0  0  0  0  0  0  0  0  0  0  0
  139.4730   67.9120  225.6440 C   0  0  0  0  0  0  0  0  0  0  0  0
  139.8340   69.1110  225.0660 C   0  0  0  0  0  0  0  0  0  0  0  0
  140.6140   69.9900  225.7660 C   0  0  0  0  0  0  0  0  0  0  0  0
  141.0630   69.7380  227.0340 C   0  0  0  0  0  0  0  0  0  0  0  0
  140.8390   71.1760  224.9020 C   0  0  0  0  0  0  0  0  0  0  0  0
  140.1040   70.8400  223.6800 C   0  0  0  0  0  0  0  0  0  0  0  0
  139.9830   71.6550  222.4890 C   0  0  0  0  0  0  0  0  0  0  0  0
  139.8020   71.0670  221.2540 C   0  0  0  0  0  0  0  0  0  0  0  0
  139.6890   71.8730  220.1180 C   0  0  0  0  0  0  0  0  0  0  0  0
  139.7620   73.2540  220.2530 C   0  0  0  0  0  0  0  0  0  0  0  0
  139.9430   73.8460  221.4850 C   0  0  0  0  0  0  0  0  0  0  0  0
  140.0260   75.2900  221.6760 C   0  0  0  0  0  0  0  0  0  0  0  0
  138.9870   76.0180  221.6330 O   0  0  0  0  0  0  0  0  0  0  0  0
  141.2510   75.9730  221.9180 N   0  0  0  0  0  0  0  0  0  0  0  0
  141.2990   77.4020  222.1030 C   0  0  0  0  0  0  0  0  0  0  0  0
  141.3920   78.1440  220.9380 C   0  0  0  0  0  0  0  0  0  0  0  0
  141.4450   79.5270  221.0030 C   0  0  0  0  0  0  0  0  0  0  0  0
  141.3980   80.0830  222.2640 C   0  0  0  0  0  0  0  0  0  0  0  0
  141.4490   81.5660  222.4050 C   0  0  0  0  0  0  0  0  0  0  0  0
  140.2400   82.3870  221.9760 C   0  0  0  0  0  0  0  0  0  0  0  0
  141.4390   82.3620  221.1050 C   0  0  0  0  0  0  0  0  0  0  0  0
  141.3050   79.3060  223.3950 C   0  0  0  0  0  0  0  0  0  0  0  0
  141.2540   77.9620  223.3260 N   0  0  0  0  0  0  0  0  0  0  0  0
  140.0500   73.0310  222.5740 C   0  0  0  0  0  0  0  0  0  0  0  0
  139.5470   69.6690  223.8010 N   0  0  0  0  0  0  0  0  0  0  0  0
  140.5070   68.6837  229.7203 H   0  0  0  0  0  0  0  0  0  0  0  0
  141.0012   67.0637  229.1221 H   0  0  0  0  0  0  0  0  0  0  0  0
  142.1800   68.4190  229.1221 H   0  0  0  0  0  0  0  0  0  0  0  0
  139.6153   66.6774  227.3683 H   0  0  0  0  0  0  0  0  0  0  0  0
  138.8474   67.1932  225.0945 H   0  0  0  0  0  0  0  0  0  0  0  0
  141.6897   70.4631  227.5739 H   0  0  0  0  0  0  0  0  0  0  0  0
  140.4350   72.0867  225.3682 H   0  0  0  0  0  0  0  0  0  0  0  0
  141.9040   71.3851  224.7228 H   0  0  0  0  0  0  0  0  0  0  0  0
  139.7471   69.9720  221.1643 H   0  0  0  0  0  0  0  0  0  0  0  0
  139.5437   71.4187  219.1268 H   0  0  0  0  0  0  0  0  0  0  0  0
  139.6736   73.8881  219.3585 H   0  0  0  0  0  0  0  0  0  0  0  0
  142.1450   75.4400  221.9670 H   0  0  0  0  0  0  0  0  0  0  0  0
  141.4238   77.6366  219.9626 H   0  0  0  0  0  0  0  0  0  0  0  0
  141.5205   80.1477  220.0980 H   0  0  0  0  0  0  0  0  0  0  0  0
  142.0663   81.5170  223.3141 H   0  0  0  0  0  0  0  0  0  0  0  0
  139.3192   81.8784  221.6545 H   0  0  0  0  0  0  0  0  0  0  0  0
  139.6417   83.1828  222.4436 H   0  0  0  0  0  0  0  0  0  0  0  0
  141.4041   81.8347  220.1403 H   0  0  0  0  0  0  0  0  0  0  0  0
  142.0906   83.1312  220.6649 H   0  0  0  0  0  0  0  0  0  0  0  0
  141.2714   79.7943  224.3801 H   0  0  0  0  0  0  0  0  0  0  0  0
  140.1960   73.4905  223.5627 H   0  0  0  0  0  0  0  0  0  0  0  0
  1  2  1  0
  2  3  2  0
  3  4  1  0
  4  5  2  0
  5  6  1  0
  6  7  2  0
  6  8  1  0
  8  9  1  0
  9 10  1  0
 10 11  2  0
 11 12  1  0
 12 13  2  0
 13 14  1  0
 14 15  1  0
 15 16  2  0
 15 17  1  0
 17 18  1  0
 18 19  2  0
 19 20  1  0
 20 21  2  0
 21 22  1  0
 22 23  1  0
 23 24  1  0
 21 25  1  0
 25 26  2  0
 14 27  2  0
  9 28  2  0
  7  2  1  0
 27 10  1  0
 28  5  1  0
 26 18  1  0
 24 22  1  0
  1 29  1  0
  1 30  1  0
  1 31  1  0
  3 32  1  0
  4 33  1  0
  7 34  1  0
  8 35  1  0
  8 36  1  0
 11 37  1  0
 12 38  1  0
 13 39  1  0
 17 40  1  0
 19 41  1  0
 20 42  1  0
 22 43  1  0
 23 44  1  0
 23 45  1  0
 24 46  1  0
 24 47  1  0
 25 48  1  0
 27 49  1  0
M  END
>  <smiles>  (33) 
Cc1ccc2c(c1)CC(c1cccc(C(=O)Nc3ccc(C4CC4)cn3)c1)=N2

>  <score_type>  (33) 
oracle

>  <origin>  (33) 
autodockgpu

>  <m_score__min__energy>  (33) 
-8.5800000000000001

>  <m_primary>  (33) 
energy

>  <rmsd>  (33) 
7.176252313865418

>  <m_score__min__rmsd>  (33) 
7.176252313865418

>  <meeko>  (33) 
{"free_energy": -8.5, "intermolecular_energy": -9.69, "internal_energy": -0.76, "cluster_size": 50, "cluster_id": 1, "rank_in_cluster": 26}

>  <energy>  (33) 
-8.47

>  <cluster_rmsd>  (33) 
1.25

>  <cluster>  (33) 
1

$$$$

     RDKit          3D

 49 53  0  0  0  0  0  0  0  0999 V2000
  141.0540   68.1870  229.0440 C   0  0  0  0  0  0  0  0  0  0  0  0
  140.6340   68.5680  227.6750 C   0  0  0  0  0  0  0  0  0  0  0  0
  139.7510   67.7380  226.9990 C   0  0  0  0  0  0  0  0  0  0  0  0
  139.3260   68.0270  225.7410 C   0  0  0  0  0  0  0  0  0  0  0  0
  139.7860   69.1740  225.1260 C   0  0  0  0  0  0  0  0  0  0  0  0
  140.6560   69.9920  225.7920 C   0  0  0  0  0  0  0  0  0  0  0  0
  141.1040   69.7300  227.0580 C   0  0  0  0  0  0  0  0  0  0  0  0
  140.9740   71.1320  224.8940 C   0  0  0  0  0  0  0  0  0  0  0  0
  140.1880   70.8370  223.6930 C   0  0  0  0  0  0  0  0  0  0  0  0
  140.1210   71.6320  222.4850 C   0  0  0  0  0  0  0  0  0  0  0  0
  140.0540   71.0210  221.2490 C   0  0  0  0  0  0  0  0  0  0  0  0
  139.9920   71.8080  220.0960 C   0  0  0  0  0  0  0  0  0  0  0  0
  139.9980   73.1920  220.2140 C   0  0  0  0  0  0  0  0  0  0  0  0
  140.0650   73.8070  221.4460 C   0  0  0  0  0  0  0  0  0  0  0  0
  140.0740   75.2540  221.6200 C   0  0  0  0  0  0  0  0  0  0  0  0
  138.9930   75.9100  221.7310 O   0  0  0  0  0  0  0  0  0  0  0  0
  141.2720   76.0230  221.6770 N   0  0  0  0  0  0  0  0  0  0  0  0
  141.2470   77.4530  221.8500 C   0  0  0  0  0  0  0  0  0  0  0  0
  141.3620   77.8910  223.1590 C   0  0  0  0  0  0  0  0  0  0  0  0
  141.3490   79.2490  223.4360 C   0  0  0  0  0  0  0  0  0  0  0  0
  141.2190   80.0940  222.3550 C   0  0  0  0  0  0  0  0  0  0  0  0
  141.1990   81.5660  222.5840 C   0  0  0  0  0  0  0  0  0  0  0  0
  140.0710   82.3890  221.9750 C   0  0  0  0  0  0  0  0  0  0  0  0
  141.4150   82.4370  221.3510 C   0  0  0  0  0  0  0  0  0  0  0  0
  141.1080   79.6140  221.0710 C   0  0  0  0  0  0  0  0  0  0  0  0
  141.1210   78.2940  220.8060 N   0  0  0  0  0  0  0  0  0  0  0  0
  140.1250   73.0100  222.5520 C   0  0  0  0  0  0  0  0  0  0  0  0
  139.5280   69.7260  223.8530 N   0  0  0  0  0  0  0  0  0  0  0  0
  140.4483   68.7365  229.7796 H   0  0  0  0  0  0  0  0  0  0  0  0
  140.9093   67.1056  229.1843 H   0  0  0  0  0  0  0  0  0  0  0  0
  142.1162   68.4360  229.1843 H   0  0  0  0  0  0  0  0  0  0  0  0
  139.3867   66.8251  227.4928 H   0  0  0  0  0  0  0  0  0  0  0  0
  138.6259   67.3569  225.2206 H   0  0  0  0  0  0  0  0  0  0  0  0
  141.8052   70.4063  227.5688 H   0  0  0  0  0  0  0  0  0  0  0  0
  140.6650   72.0872  225.3436 H   0  0  0  0  0  0  0  0  0  0  0  0
  142.0502   71.2367  224.6920 H   0  0  0  0  0  0  0  0  0  0  0  0
  140.0495   69.9237  221.1723 H   0  0  0  0  0  0  0  0  0  0  0  0
  139.9389   71.3358  219.1039 H   0  0  0  0  0  0  0  0  0  0  0  0
  139.9483   73.8102  219.3055 H   0  0  0  0  0  0  0  0  0  0  0  0
  142.1980   75.5520  221.5940 H   0  0  0  0  0  0  0  0  0  0  0  0
  141.4634   77.1626  223.9770 H   0  0  0  0  0  0  0  0  0  0  0  0
  141.4377   79.6318  224.4634 H   0  0  0  0  0  0  0  0  0  0  0  0
  141.6319   81.4748  223.5911 H   0  0  0  0  0  0  0  0  0  0  0  0
  139.2438   81.8836  221.4550 H   0  0  0  0  0  0  0  0  0  0  0  0
  139.3714   83.1451  222.3610 H   0  0  0  0  0  0  0  0  0  0  0  0
  141.5807   81.9667  220.3705 H   0  0  0  0  0  0  0  0  0  0  0  0
  142.1161   83.2424  221.0869 H   0  0  0  0  0  0  0  0  0  0  0  0
  141.0060   80.3267  220.2393 H   0  0  0  0  0  0  0  0  0  0  0  0
  140.1790   73.4877  223.5414 H   0  0  0  0  0  0  0  0  0  0  0  0
  1  2  1  0
  2  3  2  0
  3  4  1  0
  4  5  2  0
  5  6  1  0
  6  7  2  0
  6  8  1  0
  8  9  1  0
  9 10  1  0
 10 11  2  0
 11 12  1  0
 12 13  2  0
 13 14  1  0
 14 15  1  0
 15 16  2  0
 15 17  1  0
 17 18  1  0
 18 19  2  0
 19 20  1  0
 20 21  2  0
 21 22  1  0
 22 23  1  0
 23 24  1  0
 21 25  1  0
 25 26  2  0
 14 27  2  0
  9 28  2  0
  7  2  1  0
 27 10  1  0
 28  5  1  0
 26 18  1  0
 24 22  1  0
  1 29  1  0
  1 30  1  0
  1 31  1  0
  3 32  1  0
  4 33  1  0
  7 34  1  0
  8 35  1  0
  8 36  1  0
 11 37  1  0
 12 38  1  0
 13 39  1  0
 17 40  1  0
 19 41  1  0
 20 42  1  0
 22 43  1  0
 23 44  1  0
 23 45  1  0
 24 46  1  0
 24 47  1  0
 25 48  1  0
 27 49  1  0
M  END
>  <smiles>  (34) 
Cc1ccc2c(c1)CC(c1cccc(C(=O)Nc3ccc(C4CC4)cn3)c1)=N2

>  <score_type>  (34) 
oracle

>  <origin>  (34) 
autodockgpu

>  <m_score__min__energy>  (34) 
-8.5800000000000001

>  <m_primary>  (34) 
energy

>  <rmsd>  (34) 
7.28051882557224

>  <m_score__min__rmsd>  (34) 
7.28051882557224

>  <meeko>  (34) 
{"free_energy": -8.48, "intermolecular_energy": -9.67, "internal_energy": -0.76, "cluster_size": 50, "cluster_id": 1, "rank_in_cluster": 31}

>  <energy>  (34) 
-8.47

>  <cluster_rmsd>  (34) 
1.26

>  <cluster>  (34) 
1

$$$$

     RDKit          3D

 49 53  0  0  0  0  0  0  0  0999 V2000
  141.0850   68.1430  228.9950 C   0  0  0  0  0  0  0  0  0  0  0  0
  140.6740   68.5140  227.6210 C   0  0  0  0  0  0  0  0  0  0  0  0
  139.9090   67.6130  226.8930 C   0  0  0  0  0  0  0  0  0  0  0  0
  139.4980   67.8890  225.6270 C   0  0  0  0  0  0  0  0  0  0  0  0
  139.8530   69.0950  225.0570 C   0  0  0  0  0  0  0  0  0  0  0  0
  140.6070   69.9830  225.7740 C   0  0  0  0  0  0  0  0  0  0  0  0
  141.0360   69.7360  227.0490 C   0  0  0  0  0  0  0  0  0  0  0  0
  140.8290   71.1750  224.9150 C   0  0  0  0  0  0  0  0  0  0  0  0
  140.1220   70.8300  223.6800 C   0  0  0  0  0  0  0  0  0  0  0  0
  140.0110   71.6460  222.4890 C   0  0  0  0  0  0  0  0  0  0  0  0
  139.8480   71.0580  221.2510 C   0  0  0  0  0  0  0  0  0  0  0  0
  139.7450   71.8650  220.1150 C   0  0  0  0  0  0  0  0  0  0  0  0
  139.8060   73.2460  220.2520 C   0  0  0  0  0  0  0  0  0  0  0  0
  139.9690   73.8380  221.4860 C   0  0  0  0  0  0  0  0  0  0  0  0
  140.0400   75.2810  221.6790 C   0  0  0  0  0  0  0  0  0  0  0  0
  138.9870   75.9830  221.7830 O   0  0  0  0  0  0  0  0  0  0  0  0
  141.2690   75.9950  221.7630 N   0  0  0  0  0  0  0  0  0  0  0  0
  141.3050   77.4230  221.9550 C   0  0  0  0  0  0  0  0  0  0  0  0
  141.7340   78.1550  220.8600 C   0  0  0  0  0  0  0  0  0  0  0  0
  141.8050   79.5360  220.9390 C   0  0  0  0  0  0  0  0  0  0  0  0
  141.4320   80.1020  222.1400 C   0  0  0  0  0  0  0  0  0  0  0  0
  141.4850   81.5840  222.2910 C   0  0  0  0  0  0  0  0  0  0  0  0
  140.2630   82.4060  221.9050 C   0  0  0  0  0  0  0  0  0  0  0  0
  141.4350   82.3890  220.9980 C   0  0  0  0  0  0  0  0  0  0  0  0
  141.0120   79.3350  223.2020 C   0  0  0  0  0  0  0  0  0  0  0  0
  140.9450   77.9930  223.1210 N   0  0  0  0  0  0  0  0  0  0  0  0
  140.0670   73.0220  222.5750 C   0  0  0  0  0  0  0  0  0  0  0  0
  139.5800   69.6510  223.7890 N   0  0  0  0  0  0  0  0  0  0  0  0
  140.4727   68.6957  229.7227 H   0  0  0  0  0  0  0  0  0  0  0  0
  140.9420   67.0622  229.1413 H   0  0  0  0  0  0  0  0  0  0  0  0
  142.1456   68.3956  229.1413 H   0  0  0  0  0  0  0  0  0  0  0  0
  139.6288   66.6531  227.3514 H   0  0  0  0  0  0  0  0  0  0  0  0
  138.8920   67.1627  225.0656 H   0  0  0  0  0  0  0  0  0  0  0  0
  141.6414   70.4697  227.6015 H   0  0  0  0  0  0  0  0  0  0  0  0
  140.4023   72.0785  225.3752 H   0  0  0  0  0  0  0  0  0  0  0  0
  141.8936   71.4009  224.7553 H   0  0  0  0  0  0  0  0  0  0  0  0
  139.7996   69.9629  221.1594 H   0  0  0  0  0  0  0  0  0  0  0  0
  139.6168   71.4109  219.1213 H   0  0  0  0  0  0  0  0  0  0  0  0
  139.7225   73.8802  219.3571 H   0  0  0  0  0  0  0  0  0  0  0  0
  142.1750   75.4850  221.6870 H   0  0  0  0  0  0  0  0  0  0  0  0
  142.0176   77.6407  219.9299 H   0  0  0  0  0  0  0  0  0  0  0  0
  142.1409   80.1485  220.0893 H   0  0  0  0  0  0  0  0  0  0  0  0
  142.1292   81.5293  223.1810 H   0  0  0  0  0  0  0  0  0  0  0  0
  139.3335   81.8984  221.6078 H   0  0  0  0  0  0  0  0  0  0  0  0
  139.6781   83.1975  222.3963 H   0  0  0  0  0  0  0  0  0  0  0  0
  141.3716   81.8686  220.0310 H   0  0  0  0  0  0  0  0  0  0  0  0
  142.0721   83.1622  220.5439 H   0  0  0  0  0  0  0  0  0  0  0  0
  140.7237   79.8307  224.1407 H   0  0  0  0  0  0  0  0  0  0  0  0
  140.1965   73.4816  223.5659 H   0  0  0  0  0  0  0  0  0  0  0  0
  1  2  1  0
  2  3  2  0
  3  4  1  0
  4  5  2  0
  5  6  1  0
  6  7  2  0
  6  8  1  0
  8  9  1  0
  9 10  1  0
 10 11  2  0
 11 12  1  0
 12 13  2  0
 13 14  1  0
 14 15  1  0
 15 16  2  0
 15 17  1  0
 17 18  1  0
 18 19  2  0
 19 20  1  0
 20 21  2  0
 21 22  1  0
 22 23  1  0
 23 24  1  0
 21 25  1  0
 25 26  2  0
 14 27  2  0
  9 28  2  0
  7  2  1  0
 27 10  1  0
 28  5  1  0
 26 18  1  0
 24 22  1  0
  1 29  1  0
  1 30  1  0
  1 31  1  0
  3 32  1  0
  4 33  1  0
  7 34  1  0
  8 35  1  0
  8 36  1  0
 11 37  1  0
 12 38  1  0
 13 39  1  0
 17 40  1  0
 19 41  1  0
 20 42  1  0
 22 43  1  0
 23 44  1  0
 23 45  1  0
 24 46  1  0
 24 47  1  0
 25 48  1  0
 27 49  1  0
M  END
>  <smiles>  (35) 
Cc1ccc2c(c1)CC(c1cccc(C(=O)Nc3ccc(C4CC4)cn3)c1)=N2

>  <score_type>  (35) 
oracle

>  <origin>  (35) 
autodockgpu

>  <m_score__min__energy>  (35) 
-8.5800000000000001

>  <m_primary>  (35) 
energy

>  <rmsd>  (35) 
7.153415966268754

>  <m_score__min__rmsd>  (35) 
7.153415966268754

>  <meeko>  (35) 
{"free_energy": -8.5, "intermolecular_energy": -9.69, "internal_energy": -0.74, "cluster_size": 50, "cluster_id": 1, "rank_in_cluster": 25}

>  <energy>  (35) 
-8.47

>  <cluster_rmsd>  (35) 
0.24

>  <cluster>  (35) 
1

$$$$

     RDKit          3D

 49 53  0  0  0  0  0  0  0  0999 V2000
  141.1000   68.1340  228.9830 C   0  0  0  0  0  0  0  0  0  0  0  0
  140.6720   68.5000  227.6120 C   0  0  0  0  0  0  0  0  0  0  0  0
  139.9360   67.5790  226.8810 C   0  0  0  0  0  0  0  0  0  0  0  0
  139.5120   67.8490  225.6180 C   0  0  0  0  0  0  0  0  0  0  0  0
  139.8240   69.0700  225.0550 C   0  0  0  0  0  0  0  0  0  0  0  0
  140.5490   69.9790  225.7750 C   0  0  0  0  0  0  0  0  0  0  0  0
  140.9910   69.7380  227.0470 C   0  0  0  0  0  0  0  0  0  0  0  0
  140.7290   71.1830  224.9240 C   0  0  0  0  0  0  0  0  0  0  0  0
  140.0300   70.8230  223.6890 C   0  0  0  0  0  0  0  0  0  0  0  0
  139.8870   71.6430  222.5030 C   0  0  0  0  0  0  0  0  0  0  0  0
  139.6730   71.0590  221.2710 C   0  0  0  0  0  0  0  0  0  0  0  0
  139.5400   71.8700  220.1400 C   0  0  0  0  0  0  0  0  0  0  0  0
  139.6250   73.2490  220.2770 C   0  0  0  0  0  0  0  0  0  0  0  0
  139.8390   73.8370  221.5060 C   0  0  0  0  0  0  0  0  0  0  0  0
  139.9360   75.2790  221.6990 C   0  0  0  0  0  0  0  0  0  0  0  0
  138.9020   76.0150  221.6810 O   0  0  0  0  0  0  0  0  0  0  0  0
  141.1710   75.9530  221.9160 N   0  0  0  0  0  0  0  0  0  0  0  0
  141.2330   77.3810  222.1040 C   0  0  0  0  0  0  0  0  0  0  0  0
  141.3940   78.1220  220.9450 C   0  0  0  0  0  0  0  0  0  0  0  0
  141.4650   79.5040  221.0140 C   0  0  0  0  0  0  0  0  0  0  0  0
  141.3660   80.0610  222.2720 C   0  0  0  0  0  0  0  0  0  0  0  0
  141.4350   81.5420  222.4160 C   0  0  0  0  0  0  0  0  0  0  0  0
  140.2440   82.3800  221.9680 C   0  0  0  0  0  0  0  0  0  0  0  0
  141.4570   82.3400  221.1170 C   0  0  0  0  0  0  0  0  0  0  0  0
  141.2070   79.2850  223.3960 C   0  0  0  0  0  0  0  0  0  0  0  0
  141.1390   77.9430  223.3240 N   0  0  0  0  0  0  0  0  0  0  0  0
  139.9650   73.0170  222.5900 C   0  0  0  0  0  0  0  0  0  0  0  0
  139.5290   69.6250  223.7910 N   0  0  0  0  0  0  0  0  0  0  0  0
  140.4768   68.6669  229.7162 H   0  0  0  0  0  0  0  0  0  0  0  0
  140.9867   67.0491  229.1251 H   0  0  0  0  0  0  0  0  0  0  0  0
  142.1541   68.4143  229.1251 H   0  0  0  0  0  0  0  0  0  0  0  0
  139.6897   66.6073  227.3340 H   0  0  0  0  0  0  0  0  0  0  0  0
  138.9294   67.1061  225.0535 H   0  0  0  0  0  0  0  0  0  0  0  0
  141.5736   70.4878  227.6024 H   0  0  0  0  0  0  0  0  0  0  0  0
  140.2742   72.0688  225.3915 H   0  0  0  0  0  0  0  0  0  0  0  0
  141.7851   71.4451  224.7629 H   0  0  0  0  0  0  0  0  0  0  0  0
  139.6077   69.9647  221.1797 H   0  0  0  0  0  0  0  0  0  0  0  0
  139.3696   71.4198  219.1509 H   0  0  0  0  0  0  0  0  0  0  0  0
  139.5194   73.8860  219.3865 H   0  0  0  0  0  0  0  0  0  0  0  0
  142.0620   75.4140  221.9440 H   0  0  0  0  0  0  0  0  0  0  0  0
  141.4653   77.6144  219.9718 H   0  0  0  0  0  0  0  0  0  0  0  0
  141.5934   80.1235  220.1142 H   0  0  0  0  0  0  0  0  0  0  0  0
  142.0367   81.4835  223.3350 H   0  0  0  0  0  0  0  0  0  0  0  0
  139.3219   81.8842  221.6304 H   0  0  0  0  0  0  0  0  0  0  0  0
  139.6487   83.1832  222.4268 H   0  0  0  0  0  0  0  0  0  0  0  0
  141.4311   81.8145  220.1510 H   0  0  0  0  0  0  0  0  0  0  0  0
  142.1260   83.1011  220.6889 H   0  0  0  0  0  0  0  0  0  0  0  0
  141.1335   79.7736  224.3788 H   0  0  0  0  0  0  0  0  0  0  0  0
  140.1363   73.4724  223.5765 H   0  0  0  0  0  0  0  0  0  0  0  0
  1  2  1  0
  2  3  2  0
  3  4  1  0
  4  5  2  0
  5  6  1  0
  6  7  2  0
  6  8  1  0
  8  9  1  0
  9 10  1  0
 10 11  2  0
 11 12  1  0
 12 13  2  0
 13 14  1  0
 14 15  1  0
 15 16  2  0
 15 17  1  0
 17 18  1  0
 18 19  2  0
 19 20  1  0
 20 21  2  0
 21 22  1  0
 22 23  1  0
 23 24  1  0
 21 25  1  0
 25 26  2  0
 14 27  2  0
  9 28  2  0
  7  2  1  0
 27 10  1  0
 28  5  1  0
 26 18  1  0
 24 22  1  0
  1 29  1  0
  1 30  1  0
  1 31  1  0
  3 32  1  0
  4 33  1  0
  7 34  1  0
  8 35  1  0
  8 36  1  0
 11 37  1  0
 12 38  1  0
 13 39  1  0
 17 40  1  0
 19 41  1  0
 20 42  1  0
 22 43  1  0
 23 44  1  0
 23 45  1  0
 24 46  1  0
 24 47  1  0
 25 48  1  0
 27 49  1  0
M  END
>  <smiles>  (36) 
Cc1ccc2c(c1)CC(c1cccc(C(=O)Nc3ccc(C4CC4)cn3)c1)=N2

>  <score_type>  (36) 
oracle

>  <origin>  (36) 
autodockgpu

>  <m_score__min__energy>  (36) 
-8.5800000000000001

>  <m_primary>  (36) 
energy

>  <rmsd>  (36) 
7.171943386589736

>  <m_score__min__rmsd>  (36) 
7.171943386589736

>  <meeko>  (36) 
{"free_energy": -8.51, "intermolecular_energy": -9.7, "internal_energy": -0.76, "cluster_size": 50, "cluster_id": 1, "rank_in_cluster": 21}

>  <energy>  (36) 
-8.47

>  <cluster_rmsd>  (36) 
1.29

>  <cluster>  (36) 
1

$$$$

     RDKit          3D

 49 53  0  0  0  0  0  0  0  0999 V2000
  141.2670   68.1410  229.0300 C   0  0  0  0  0  0  0  0  0  0  0  0
  140.7770   68.4540  227.6680 C   0  0  0  0  0  0  0  0  0  0  0  0
  140.0450   67.4890  226.9900 C   0  0  0  0  0  0  0  0  0  0  0  0
  139.5660   67.7110  225.7370 C   0  0  0  0  0  0  0  0  0  0  0  0
  139.8150   68.9250  225.1310 C   0  0  0  0  0  0  0  0  0  0  0  0
  140.5350   69.8770  225.7980 C   0  0  0  0  0  0  0  0  0  0  0  0
  141.0320   69.6850  227.0590 C   0  0  0  0  0  0  0  0  0  0  0  0
  140.6430   71.0620  224.9090 C   0  0  0  0  0  0  0  0  0  0  0  0
  139.9100   70.6440  223.7110 C   0  0  0  0  0  0  0  0  0  0  0  0
  139.6960   71.4260  222.5110 C   0  0  0  0  0  0  0  0  0  0  0  0
  139.2870   70.8150  221.3420 C   0  0  0  0  0  0  0  0  0  0  0  0
  139.0880   71.5880  220.1960 C   0  0  0  0  0  0  0  0  0  0  0  0
  139.3050   72.9590  220.2520 C   0  0  0  0  0  0  0  0  0  0  0  0
  139.7140   73.5740  221.4170 C   0  0  0  0  0  0  0  0  0  0  0  0
  139.9540   75.0080  221.5240 C   0  0  0  0  0  0  0  0  0  0  0  0
  140.6190   75.6310  220.6400 O   0  0  0  0  0  0  0  0  0  0  0  0
  139.4720   75.7980  222.6070 N   0  0  0  0  0  0  0  0  0  0  0  0
  139.7270   77.2140  222.6830 C   0  0  0  0  0  0  0  0  0  0  0  0
  141.0630   77.5710  222.7500 C   0  0  0  0  0  0  0  0  0  0  0  0
  141.4180   78.9080  222.8270 C   0  0  0  0  0  0  0  0  0  0  0  0
  140.3820   79.8180  222.8310 C   0  0  0  0  0  0  0  0  0  0  0  0
  140.6950   81.2720  222.9110 C   0  0  0  0  0  0  0  0  0  0  0  0
  141.7640   81.8460  221.9900 C   0  0  0  0  0  0  0  0  0  0  0  0
  142.0870   81.6290  223.4200 C   0  0  0  0  0  0  0  0  0  0  0  0
  139.0680   79.4180  222.7630 C   0  0  0  0  0  0  0  0  0  0  0  0
  138.7280   78.1180  222.6890 N   0  0  0  0  0  0  0  0  0  0  0  0
  139.8990   72.7900  222.5180 C   0  0  0  0  0  0  0  0  0  0  0  0
  139.4540   69.4340  223.8640 N   0  0  0  0  0  0  0  0  0  0  0  0
  140.5845   68.5770  229.7744 H   0  0  0  0  0  0  0  0  0  0  0  0
  141.3067   67.0499  229.1636 H   0  0  0  0  0  0  0  0  0  0  0  0
  142.2737   68.5637  229.1636 H   0  0  0  0  0  0  0  0  0  0  0  0
  139.8480   66.5228  227.4774 H   0  0  0  0  0  0  0  0  0  0  0  0
  138.9886   66.9342  225.2143 H   0  0  0  0  0  0  0  0  0  0  0  0
  141.6089   70.4685  227.5720 H   0  0  0  0  0  0  0  0  0  0  0  0
  140.1767   71.9454  225.3695 H   0  0  0  0  0  0  0  0  0  0  0  0
  141.6829   71.3540  224.7008 H   0  0  0  0  0  0  0  0  0  0  0  0
  139.1193   69.7282  221.3137 H   0  0  0  0  0  0  0  0  0  0  0  0
  138.7624   71.1155  219.2575 H   0  0  0  0  0  0  0  0  0  0  0  0
  139.1474   73.5667  219.3487 H   0  0  0  0  0  0  0  0  0  0  0  0
  138.9180   75.3550  223.3700 H   0  0  0  0  0  0  0  0  0  0  0  0
  141.8417   76.7941  222.7421 H   0  0  0  0  0  0  0  0  0  0  0  0
  142.4695   79.2264  222.8820 H   0  0  0  0  0  0  0  0  0  0  0  0
  139.6560   81.5421  223.1510 H   0  0  0  0  0  0  0  0  0  0  0  0
  142.2249   81.2077  221.2218 H   0  0  0  0  0  0  0  0  0  0  0  0
  141.8147   82.7085  221.3092 H   0  0  0  0  0  0  0  0  0  0  0  0
  142.7861   80.8302  223.7084 H   0  0  0  0  0  0  0  0  0  0  0  0
  142.4741   82.2649  224.2299 H   0  0  0  0  0  0  0  0  0  0  0  0
  138.2747   80.1800  222.7693 H   0  0  0  0  0  0  0  0  0  0  0  0
  140.2249   73.2675  223.4538 H   0  0  0  0  0  0  0  0  0  0  0  0
  1  2  1  0
  2  3  2  0
  3  4  1  0
  4  5  2  0
  5  6  1  0
  6  7  2  0
  6  8  1  0
  8  9  1  0
  9 10  1  0
 10 11  2  0
 11 12  1  0
 12 13  2  0
 13 14  1  0
 14 15  1  0
 15 16  2  0
 15 17  1  0
 17 18  1  0
 18 19  2  0
 19 20  1  0
 20 21  2  0
 21 22  1  0
 22 23  1  0
 23 24  1  0
 21 25  1  0
 25 26  2  0
 14 27  2  0
  9 28  2  0
  7  2  1  0
 27 10  1  0
 28  5  1  0
 26 18  1  0
 24 22  1  0
  1 29  1  0
  1 30  1  0
  1 31  1  0
  3 32  1  0
  4 33  1  0
  7 34  1  0
  8 35  1  0
  8 36  1  0
 11 37  1  0
 12 38  1  0
 13 39  1  0
 17 40  1  0
 19 41  1  0
 20 42  1  0
 22 43  1  0
 23 44  1  0
 23 45  1  0
 24 46  1  0
 24 47  1  0
 25 48  1  0
 27 49  1  0
M  END
>  <smiles>  (37) 
Cc1ccc2c(c1)CC(c1cccc(C(=O)Nc3ccc(C4CC4)cn3)c1)=N2

>  <score_type>  (37) 
oracle

>  <origin>  (37) 
autodockgpu

>  <m_score__min__energy>  (37) 
-8.5800000000000001

>  <m_primary>  (37) 
energy

>  <rmsd>  (37) 
7.434729059116377

>  <m_score__min__rmsd>  (37) 
7.434729059116377

>  <meeko>  (37) 
{"free_energy": -8.55, "intermolecular_energy": -9.74, "internal_energy": -0.74, "cluster_size": 50, "cluster_id": 1, "rank_in_cluster": 8}

>  <energy>  (37) 
-8.46

>  <cluster_rmsd>  (37) 
1.27

>  <cluster>  (37) 
1

$$$$

     RDKit          3D

 49 53  0  0  0  0  0  0  0  0999 V2000
  141.0520   68.1980  229.0580 C   0  0  0  0  0  0  0  0  0  0  0  0
  140.6450   68.5750  227.6850 C   0  0  0  0  0  0  0  0  0  0  0  0
  139.7820   67.7340  226.9960 C   0  0  0  0  0  0  0  0  0  0  0  0
  139.3690   68.0190  225.7330 C   0  0  0  0  0  0  0  0  0  0  0  0
  139.8210   69.1730  225.1260 C   0  0  0  0  0  0  0  0  0  0  0  0
  140.6720   70.0020  225.8040 C   0  0  0  0  0  0  0  0  0  0  0  0
  141.1070   69.7440  227.0750 C   0  0  0  0  0  0  0  0  0  0  0  0
  140.9850   71.1480  224.9110 C   0  0  0  0  0  0  0  0  0  0  0  0
  140.2190   70.8430  223.7000 C   0  0  0  0  0  0  0  0  0  0  0  0
  140.1560   71.6390  222.4920 C   0  0  0  0  0  0  0  0  0  0  0  0
  140.1090   71.0290  221.2550 C   0  0  0  0  0  0  0  0  0  0  0  0
  140.0500   71.8170  220.1020 C   0  0  0  0  0  0  0  0  0  0  0  0
  140.0400   73.2010  220.2220 C   0  0  0  0  0  0  0  0  0  0  0  0
  140.0880   73.8150  221.4560 C   0  0  0  0  0  0  0  0  0  0  0  0
  140.0800   75.2620  221.6320 C   0  0  0  0  0  0  0  0  0  0  0  0
  138.9900   75.9110  221.6910 O   0  0  0  0  0  0  0  0  0  0  0  0
  141.2680   76.0380  221.7470 N   0  0  0  0  0  0  0  0  0  0  0  0
  141.2260   77.4680  221.9210 C   0  0  0  0  0  0  0  0  0  0  0  0
  141.4470   77.9120  223.2140 C   0  0  0  0  0  0  0  0  0  0  0  0
  141.4270   79.2700  223.4900 C   0  0  0  0  0  0  0  0  0  0  0  0
  141.1830   80.1090  222.4230 C   0  0  0  0  0  0  0  0  0  0  0  0
  141.1500   81.5810  222.6510 C   0  0  0  0  0  0  0  0  0  0  0  0
  140.0650   82.4060  221.9710 C   0  0  0  0  0  0  0  0  0  0  0  0
  141.4470   82.4530  221.4370 C   0  0  0  0  0  0  0  0  0  0  0  0
  140.9700   79.6230  221.1540 C   0  0  0  0  0  0  0  0  0  0  0  0
  140.9890   78.3030  220.8910 N   0  0  0  0  0  0  0  0  0  0  0  0
  140.1440   73.0170  222.5610 C   0  0  0  0  0  0  0  0  0  0  0  0
  139.5710   69.7230  223.8500 N   0  0  0  0  0  0  0  0  0  0  0  0
  140.4473   68.7581  229.7865 H   0  0  0  0  0  0  0  0  0  0  0  0
  140.8952   67.1190  229.2037 H   0  0  0  0  0  0  0  0  0  0  0  0
  142.1158   68.4368  229.2037 H   0  0  0  0  0  0  0  0  0  0  0  0
  139.4240   66.8153  227.4837 H   0  0  0  0  0  0  0  0  0  0  0  0
  138.6849   67.3402  225.2027 H   0  0  0  0  0  0  0  0  0  0  0  0
  141.7925   70.4289  227.5955 H   0  0  0  0  0  0  0  0  0  0  0  0
  140.6564   72.0981  225.3575 H   0  0  0  0  0  0  0  0  0  0  0  0
  142.0621   71.2686  224.7230 H   0  0  0  0  0  0  0  0  0  0  0  0
  140.1179   69.9318  221.1770 H   0  0  0  0  0  0  0  0  0  0  0  0
  140.0119   71.3456  219.1088 H   0  0  0  0  0  0  0  0  0  0  0  0
  139.9928   73.8200  219.3139 H   0  0  0  0  0  0  0  0  0  0  0  0
  142.2000   75.5730  221.7080 H   0  0  0  0  0  0  0  0  0  0  0  0
  141.6380   77.1884  224.0202 H   0  0  0  0  0  0  0  0  0  0  0  0
  141.5966   79.6577  224.5053 H   0  0  0  0  0  0  0  0  0  0  0  0
  141.5164   81.4879  223.6840 H   0  0  0  0  0  0  0  0  0  0  0  0
  139.2732   81.9024  221.3971 H   0  0  0  0  0  0  0  0  0  0  0  0
  139.3423   83.1622  222.3114 H   0  0  0  0  0  0  0  0  0  0  0  0
  141.6762   81.9839  220.4688 H   0  0  0  0  0  0  0  0  0  0  0  0
  142.1649   83.2579  221.2209 H   0  0  0  0  0  0  0  0  0  0  0  0
  140.7794   80.3306  220.3337 H   0  0  0  0  0  0  0  0  0  0  0  0
  140.1813   73.4936  223.5517 H   0  0  0  0  0  0  0  0  0  0  0  0
  1  2  1  0
  2  3  2  0
  3  4  1  0
  4  5  2  0
  5  6  1  0
  6  7  2  0
  6  8  1  0
  8  9  1  0
  9 10  1  0
 10 11  2  0
 11 12  1  0
 12 13  2  0
 13 14  1  0
 14 15  1  0
 15 16  2  0
 15 17  1  0
 17 18  1  0
 18 19  2  0
 19 20  1  0
 20 21  2  0
 21 22  1  0
 22 23  1  0
 23 24  1  0
 21 25  1  0
 25 26  2  0
 14 27  2  0
  9 28  2  0
  7  2  1  0
 27 10  1  0
 28  5  1  0
 26 18  1  0
 24 22  1  0
  1 29  1  0
  1 30  1  0
  1 31  1  0
  3 32  1  0
  4 33  1  0
  7 34  1  0
  8 35  1  0
  8 36  1  0
 11 37  1  0
 12 38  1  0
 13 39  1  0
 17 40  1  0
 19 41  1  0
 20 42  1  0
 22 43  1  0
 23 44  1  0
 23 45  1  0
 24 46  1  0
 24 47  1  0
 25 48  1  0
 27 49  1  0
M  END
>  <smiles>  (38) 
Cc1ccc2c(c1)CC(c1cccc(C(=O)Nc3ccc(C4CC4)cn3)c1)=N2

>  <score_type>  (38) 
oracle

>  <origin>  (38) 
autodockgpu

>  <m_score__min__energy>  (38) 
-8.5800000000000001

>  <m_primary>  (38) 
energy

>  <rmsd>  (38) 
7.292365216836336

>  <m_score__min__rmsd>  (38) 
7.292365216836336

>  <meeko>  (38) 
{"free_energy": -8.48, "intermolecular_energy": -9.67, "internal_energy": -0.75, "cluster_size": 50, "cluster_id": 1, "rank_in_cluster": 29}

>  <energy>  (38) 
-8.46

>  <cluster_rmsd>  (38) 
1.27

>  <cluster>  (38) 
1

$$$$

     RDKit          3D

 49 53  0  0  0  0  0  0  0  0999 V2000
  141.0870   68.1310  229.0580 C   0  0  0  0  0  0  0  0  0  0  0  0
  140.6530   68.5020  227.6910 C   0  0  0  0  0  0  0  0  0  0  0  0
  139.8640   67.6070  226.9820 C   0  0  0  0  0  0  0  0  0  0  0  0
  139.4330   67.8830  225.7220 C   0  0  0  0  0  0  0  0  0  0  0  0
  139.7900   69.0830  225.1410 C   0  0  0  0  0  0  0  0  0  0  0  0
  140.5670   69.9650  225.8390 C   0  0  0  0  0  0  0  0  0  0  0  0
  141.0190   69.7170  227.1070 C   0  0  0  0  0  0  0  0  0  0  0  0
  140.7880   71.1500  224.9720 C   0  0  0  0  0  0  0  0  0  0  0  0
  140.0520   70.8090  223.7520 C   0  0  0  0  0  0  0  0  0  0  0  0
  139.9280   71.6220  222.5600 C   0  0  0  0  0  0  0  0  0  0  0  0
  139.7410   71.0310  221.3260 C   0  0  0  0  0  0  0  0  0  0  0  0
  139.6250   71.8350  220.1890 C   0  0  0  0  0  0  0  0  0  0  0  0
  139.6990   73.2160  220.3200 C   0  0  0  0  0  0  0  0  0  0  0  0
  139.8860   73.8110  221.5500 C   0  0  0  0  0  0  0  0  0  0  0  0
  139.9700   75.2540  221.7370 C   0  0  0  0  0  0  0  0  0  0  0  0
  138.9280   75.9800  221.7340 O   0  0  0  0  0  0  0  0  0  0  0  0
  141.2020   75.9420  221.9330 N   0  0  0  0  0  0  0  0  0  0  0  0
  141.2520   77.3710  222.1150 C   0  0  0  0  0  0  0  0  0  0  0  0
  141.4230   78.1080  220.9550 C   0  0  0  0  0  0  0  0  0  0  0  0
  141.4840   79.4910  221.0190 C   0  0  0  0  0  0  0  0  0  0  0  0
  141.3650   80.0520  222.2730 C   0  0  0  0  0  0  0  0  0  0  0  0
  141.4220   81.5350  222.4120 C   0  0  0  0  0  0  0  0  0  0  0  0
  140.2230   82.3610  221.9650 C   0  0  0  0  0  0  0  0  0  0  0  0
  141.4340   82.3280  221.1100 C   0  0  0  0  0  0  0  0  0  0  0  0
  141.1960   79.2800  223.3990 C   0  0  0  0  0  0  0  0  0  0  0  0
  141.1380   77.9370  223.3320 N   0  0  0  0  0  0  0  0  0  0  0  0
  139.9960   72.9980  222.6400 C   0  0  0  0  0  0  0  0  0  0  0  0
  139.4990   69.6370  223.8760 N   0  0  0  0  0  0  0  0  0  0  0  0
  140.4670   68.6610  229.7960 H   0  0  0  0  0  0  0  0  0  0  0  0
  140.9745   67.0456  229.1965 H   0  0  0  0  0  0  0  0  0  0  0  0
  142.1417   68.4110  229.1965 H   0  0  0  0  0  0  0  0  0  0  0  0
  139.5808   66.6526  227.4499 H   0  0  0  0  0  0  0  0  0  0  0  0
  138.8095   67.1610  225.1743 H   0  0  0  0  0  0  0  0  0  0  0  0
  141.6449   70.4448  227.6442 H   0  0  0  0  0  0  0  0  0  0  0  0
  140.3823   72.0608  225.4367 H   0  0  0  0  0  0  0  0  0  0  0  0
  141.8521   71.3616  224.7909 H   0  0  0  0  0  0  0  0  0  0  0  0
  139.6838   69.9360  221.2388 H   0  0  0  0  0  0  0  0  0  0  0  0
  139.4764   71.3785  219.1993 H   0  0  0  0  0  0  0  0  0  0  0  0
  139.6066   73.8479  219.4244 H   0  0  0  0  0  0  0  0  0  0  0  0
  142.0990   75.4120  221.9480 H   0  0  0  0  0  0  0  0  0  0  0  0
  141.5102   77.5967  219.9850 H   0  0  0  0  0  0  0  0  0  0  0  0
  141.6199   80.1077  220.1184 H   0  0  0  0  0  0  0  0  0  0  0  0
  142.0266   81.4850  223.3296 H   0  0  0  0  0  0  0  0  0  0  0  0
  139.3040   81.8563  221.6322 H   0  0  0  0  0  0  0  0  0  0  0  0
  139.6224   83.1608  222.4227 H   0  0  0  0  0  0  0  0  0  0  0  0
  141.4096   81.7986  220.1461 H   0  0  0  0  0  0  0  0  0  0  0  0
  142.0954   83.0929  220.6770 H   0  0  0  0  0  0  0  0  0  0  0  0
  141.1060   79.7725  224.3784 H   0  0  0  0  0  0  0  0  0  0  0  0
  140.1456   73.4600  223.6270 H   0  0  0  0  0  0  0  0  0  0  0  0
  1  2  1  0
  2  3  2  0
  3  4  1  0
  4  5  2  0
  5  6  1  0
  6  7  2  0
  6  8  1  0
  8  9  1  0
  9 10  1  0
 10 11  2  0
 11 12  1  0
 12 13  2  0
 13 14  1  0
 14 15  1  0
 15 16  2  0
 15 17  1  0
 17 18  1  0
 18 19  2  0
 19 20  1  0
 20 21  2  0
 21 22  1  0
 22 23  1  0
 23 24  1  0
 21 25  1  0
 25 26  2  0
 14 27  2  0
  9 28  2  0
  7  2  1  0
 27 10  1  0
 28  5  1  0
 26 18  1  0
 24 22  1  0
  1 29  1  0
  1 30  1  0
  1 31  1  0
  3 32  1  0
  4 33  1  0
  7 34  1  0
  8 35  1  0
  8 36  1  0
 11 37  1  0
 12 38  1  0
 13 39  1  0
 17 40  1  0
 19 41  1  0
 20 42  1  0
 22 43  1  0
 23 44  1  0
 23 45  1  0
 24 46  1  0
 24 47  1  0
 25 48  1  0
 27 49  1  0
M  END
>  <smiles>  (39) 
Cc1ccc2c(c1)CC(c1cccc(C(=O)Nc3ccc(C4CC4)cn3)c1)=N2

>  <score_type>  (39) 
oracle

>  <origin>  (39) 
autodockgpu

>  <m_score__min__energy>  (39) 
-8.5800000000000001

>  <m_primary>  (39) 
energy

>  <rmsd>  (39) 
7.187947349783001

>  <m_score__min__rmsd>  (39) 
7.187947349783001

>  <meeko>  (39) 
{"free_energy": -8.5, "intermolecular_energy": -9.69, "internal_energy": -0.75, "cluster_size": 50, "cluster_id": 1, "rank_in_cluster": 23}

>  <energy>  (39) 
-8.46

>  <cluster_rmsd>  (39) 
1.13

>  <cluster>  (39) 
1

$$$$

     RDKit          3D

 49 53  0  0  0  0  0  0  0  0999 V2000
  140.7840   68.1370  228.8420 C   0  0  0  0  0  0  0  0  0  0  0  0
  140.7310   69.2040  227.8150 C   0  0  0  0  0  0  0  0  0  0  0  0
  141.0910   70.4930  228.1800 C   0  0  0  0  0  0  0  0  0  0  0  0
  141.0650   71.5190  227.2880 C   0  0  0  0  0  0  0  0  0  0  0  0
  140.6700   71.2650  225.9900 C   0  0  0  0  0  0  0  0  0  0  0  0
  140.3150   69.9950  225.6290 C   0  0  0  0  0  0  0  0  0  0  0  0
  140.3300   68.9420  226.5020 C   0  0  0  0  0  0  0  0  0  0  0  0
  139.9400   70.0260  224.1920 C   0  0  0  0  0  0  0  0  0  0  0  0
  140.1330   71.4330  223.8300 C   0  0  0  0  0  0  0  0  0  0  0  0
  139.9120   72.0300  222.5300 C   0  0  0  0  0  0  0  0  0  0  0  0
  139.5410   71.2480  221.4540 C   0  0  0  0  0  0  0  0  0  0  0  0
  139.3350   71.8460  220.2080 C   0  0  0  0  0  0  0  0  0  0  0  0
  139.5070   73.2180  220.0740 C   0  0  0  0  0  0  0  0  0  0  0  0
  139.8780   74.0030  221.1450 C   0  0  0  0  0  0  0  0  0  0  0  0
  140.0700   75.4460  221.0520 C   0  0  0  0  0  0  0  0  0  0  0  0
  139.2830   76.1710  220.3700 O   0  0  0  0  0  0  0  0  0  0  0  0
  141.1330   76.1320  221.7070 N   0  0  0  0  0  0  0  0  0  0  0  0
  141.2960   77.5600  221.5950 C   0  0  0  0  0  0  0  0  0  0  0  0
  141.3380   78.2440  222.7980 C   0  0  0  0  0  0  0  0  0  0  0  0
  141.4920   79.6210  222.8040 C   0  0  0  0  0  0  0  0  0  0  0  0
  141.5950   80.2310  221.5710 C   0  0  0  0  0  0  0  0  0  0  0  0
  141.7620   81.7110  221.5070 C   0  0  0  0  0  0  0  0  0  0  0  0
  140.5190   82.5900  221.4740 C   0  0  0  0  0  0  0  0  0  0  0  0
  141.2870   82.3810  220.2230 C   0  0  0  0  0  0  0  0  0  0  0  0
  141.5480   79.5100  220.4010 C   0  0  0  0  0  0  0  0  0  0  0  0
  141.3980   78.1730  220.4010 N   0  0  0  0  0  0  0  0  0  0  0  0
  140.0710   73.3890  222.3480 C   0  0  0  0  0  0  0  0  0  0  0  0
  140.5450   72.1080  224.8640 N   0  0  0  0  0  0  0  0  0  0  0  0
  140.7615   68.5908  229.8438 H   0  0  0  0  0  0  0  0  0  0  0  0
  139.9179   67.4695  228.7223 H   0  0  0  0  0  0  0  0  0  0  0  0
  141.7120   67.5586  228.7223 H   0  0  0  0  0  0  0  0  0  0  0  0
  141.4050   70.6898  229.2157 H   0  0  0  0  0  0  0  0  0  0  0  0
  141.3540   72.5348  227.5957 H   0  0  0  0  0  0  0  0  0  0  0  0
  140.0384   67.9303  226.1836 H   0  0  0  0  0  0  0  0  0  0  0  0
  140.5954   69.3718  223.5984 H   0  0  0  0  0  0  0  0  0  0  0  0
  138.9176   69.6667  224.0034 H   0  0  0  0  0  0  0  0  0  0  0  0
  139.4087   70.1629  221.5768 H   0  0  0  0  0  0  0  0  0  0  0  0
  139.0395   71.2362  219.3415 H   0  0  0  0  0  0  0  0  0  0  0  0
  139.3438   73.6879  219.0929 H   0  0  0  0  0  0  0  0  0  0  0  0
  141.8180   75.6010  222.2850 H   0  0  0  0  0  0  0  0  0  0  0  0
  141.2493   77.6953  223.7472 H   0  0  0  0  0  0  0  0  0  0  0  0
  141.5301   80.1963  223.7408 H   0  0  0  0  0  0  0  0  0  0  0  0
  142.6790   81.6932  222.1143 H   0  0  0  0  0  0  0  0  0  0  0  0
  139.5238   82.1353  221.5878 H   0  0  0  0  0  0  0  0  0  0  0  0
  140.1833   83.4743  222.0355 H   0  0  0  0  0  0  0  0  0  0  0  0
  140.8594   81.7717  219.4131 H   0  0  0  0  0  0  0  0  0  0  0  0
  141.7518   83.0469  219.4811 H   0  0  0  0  0  0  0  0  0  0  0  0
  141.6353   80.0397  219.4409 H   0  0  0  0  0  0  0  0  0  0  0  0
  140.3663   74.0040  223.2109 H   0  0  0  0  0  0  0  0  0  0  0  0
  1  2  1  0
  2  3  2  0
  3  4  1  0
  4  5  2  0
  5  6  1  0
  6  7  2  0
  6  8  1  0
  8  9  1  0
  9 10  1  0
 10 11  2  0
 11 12  1  0
 12 13  2  0
 13 14  1  0
 14 15  1  0
 15 16  2  0
 15 17  1  0
 17 18  1  0
 18 19  2  0
 19 20  1  0
 20 21  2  0
 21 22  1  0
 22 23  1  0
 23 24  1  0
 21 25  1  0
 25 26  2  0
 14 27  2  0
  9 28  2  0
  7  2  1  0
 27 10  1  0
 28  5  1  0
 26 18  1  0
 24 22  1  0
  1 29  1  0
  1 30  1  0
  1 31  1  0
  3 32  1  0
  4 33  1  0
  7 34  1  0
  8 35  1  0
  8 36  1  0
 11 37  1  0
 12 38  1  0
 13 39  1  0
 17 40  1  0
 19 41  1  0
 20 42  1  0
 22 43  1  0
 23 44  1  0
 23 45  1  0
 24 46  1  0
 24 47  1  0
 25 48  1  0
 27 49  1  0
M  END
>  <smiles>  (40) 
Cc1ccc2c(c1)CC(c1cccc(C(=O)Nc3ccc(C4CC4)cn3)c1)=N2

>  <score_type>  (40) 
oracle

>  <origin>  (40) 
autodockgpu

>  <m_score__min__energy>  (40) 
-8.5800000000000001

>  <m_primary>  (40) 
energy

>  <rmsd>  (40) 
7.048338257160438

>  <m_score__min__rmsd>  (40) 
7.048338257160438

>  <meeko>  (40) 
{"free_energy": -8.34, "intermolecular_energy": -9.53, "internal_energy": -0.74, "cluster_size": 50, "cluster_id": 1, "rank_in_cluster": 49}

>  <energy>  (40) 
-8.45

>  <cluster_rmsd>  (40) 
1.28

>  <cluster>  (40) 
1

$$$$

     RDKit          3D

 49 53  0  0  0  0  0  0  0  0999 V2000
  141.2610   68.1500  229.0660 C   0  0  0  0  0  0  0  0  0  0  0  0
  140.7510   68.4850  227.7160 C   0  0  0  0  0  0  0  0  0  0  0  0
  139.9580   67.5550  227.0580 C   0  0  0  0  0  0  0  0  0  0  0  0
  139.4580   67.7990  225.8180 C   0  0  0  0  0  0  0  0  0  0  0  0
  139.7470   69.0000  225.2040 C   0  0  0  0  0  0  0  0  0  0  0  0
  140.5280   69.9180  225.8520 C   0  0  0  0  0  0  0  0  0  0  0  0
  141.0480   69.7030  227.0990 C   0  0  0  0  0  0  0  0  0  0  0  0
  140.6670   71.0960  224.9590 C   0  0  0  0  0  0  0  0  0  0  0  0
  139.8860   70.7130  223.7810 C   0  0  0  0  0  0  0  0  0  0  0  0
  139.6780   71.5040  222.5850 C   0  0  0  0  0  0  0  0  0  0  0  0
  139.2190   70.9120  221.4260 C   0  0  0  0  0  0  0  0  0  0  0  0
  139.0270   71.6940  220.2840 C   0  0  0  0  0  0  0  0  0  0  0  0
  139.3000   73.0540  220.3360 C   0  0  0  0  0  0  0  0  0  0  0  0
  139.7580   73.6510  221.4920 C   0  0  0  0  0  0  0  0  0  0  0  0
  140.0590   75.0740  221.5940 C   0  0  0  0  0  0  0  0  0  0  0  0
  140.8090   75.6500  220.7480 O   0  0  0  0  0  0  0  0  0  0  0  0
  139.5430   75.9050  222.6300 N   0  0  0  0  0  0  0  0  0  0  0  0
  139.8590   77.3090  222.7030 C   0  0  0  0  0  0  0  0  0  0  0  0
  141.1840   77.6020  222.9780 C   0  0  0  0  0  0  0  0  0  0  0  0
  141.5950   78.9220  223.0710 C   0  0  0  0  0  0  0  0  0  0  0  0
  140.6230   79.8810  222.8740 C   0  0  0  0  0  0  0  0  0  0  0  0
  140.9980   81.3210  222.9590 C   0  0  0  0  0  0  0  0  0  0  0  0
  140.3920   82.2980  221.9600 C   0  0  0  0  0  0  0  0  0  0  0  0
  141.8020   81.8720  221.7870 C   0  0  0  0  0  0  0  0  0  0  0  0
  139.3180   79.5430  222.6030 C   0  0  0  0  0  0  0  0  0  0  0  0
  138.9240   78.2590  222.5150 N   0  0  0  0  0  0  0  0  0  0  0  0
  139.9360   72.8590  222.5890 C   0  0  0  0  0  0  0  0  0  0  0  0
  139.3780   69.5260  223.9470 N   0  0  0  0  0  0  0  0  0  0  0  0
  140.5973   68.5859  229.8273 H   0  0  0  0  0  0  0  0  0  0  0  0
  141.2891   67.0570  229.1865 H   0  0  0  0  0  0  0  0  0  0  0  0
  142.2753   68.5583  229.1865 H   0  0  0  0  0  0  0  0  0  0  0  0
  139.7290   66.5989  227.5513 H   0  0  0  0  0  0  0  0  0  0  0  0
  138.8320   67.0497  225.3114 H   0  0  0  0  0  0  0  0  0  0  0  0
  141.6746   70.4584  227.5958 H   0  0  0  0  0  0  0  0  0  0  0  0
  140.2535   71.9999  225.4302 H   0  0  0  0  0  0  0  0  0  0  0  0
  141.7136   71.3394  224.7237 H   0  0  0  0  0  0  0  0  0  0  0  0
  139.0060   69.8331  221.4013 H   0  0  0  0  0  0  0  0  0  0  0  0
  138.6629   71.2361  219.3525 H   0  0  0  0  0  0  0  0  0  0  0  0
  139.1479   73.6685  219.4364 H   0  0  0  0  0  0  0  0  0  0  0  0
  138.9190   75.5010  223.3600 H   0  0  0  0  0  0  0  0  0  0  0  0
  141.9095   76.7879  223.1225 H   0  0  0  0  0  0  0  0  0  0  0  0
  142.6390   79.1905  223.2899 H   0  0  0  0  0  0  0  0  0  0  0  0
  141.0883   81.2938  224.0550 H   0  0  0  0  0  0  0  0  0  0  0  0
  139.6247   81.9516  221.2521 H   0  0  0  0  0  0  0  0  0  0  0  0
  139.8832   83.2699  222.0415 H   0  0  0  0  0  0  0  0  0  0  0  0
  142.0758   81.2108  220.9516 H   0  0  0  0  0  0  0  0  0  0  0  0
  142.7622   82.3995  221.6885 H   0  0  0  0  0  0  0  0  0  0  0  0
  138.5771   80.3424  222.4543 H   0  0  0  0  0  0  0  0  0  0  0  0
  140.3015   73.3217  223.5176 H   0  0  0  0  0  0  0  0  0  0  0  0
  1  2  1  0
  2  3  2  0
  3  4  1  0
  4  5  2  0
  5  6  1  0
  6  7  2  0
  6  8  1  0
  8  9  1  0
  9 10  1  0
 10 11  2  0
 11 12  1  0
 12 13  2  0
 13 14  1  0
 14 15  1  0
 15 16  2  0
 15 17  1  0
 17 18  1  0
 18 19  2  0
 19 20  1  0
 20 21  2  0
 21 22  1  0
 22 23  1  0
 23 24  1  0
 21 25  1  0
 25 26  2  0
 14 27  2  0
  9 28  2  0
  7  2  1  0
 27 10  1  0
 28  5  1  0
 26 18  1  0
 24 22  1  0
  1 29  1  0
  1 30  1  0
  1 31  1  0
  3 32  1  0
  4 33  1  0
  7 34  1  0
  8 35  1  0
  8 36  1  0
 11 37  1  0
 12 38  1  0
 13 39  1  0
 17 40  1  0
 19 41  1  0
 20 42  1  0
 22 43  1  0
 23 44  1  0
 23 45  1  0
 24 46  1  0
 24 47  1  0
 25 48  1  0
 27 49  1  0
M  END
>  <smiles>  (41) 
Cc1ccc2c(c1)CC(c1cccc(C(=O)Nc3ccc(C4CC4)cn3)c1)=N2

>  <score_type>  (41) 
oracle

>  <origin>  (41) 
autodockgpu

>  <m_score__min__energy>  (41) 
-8.5800000000000001

>  <m_primary>  (41) 
energy

>  <rmsd>  (41) 
7.414216294553748

>  <m_score__min__rmsd>  (41) 
7.414216294553748

>  <meeko>  (41) 
{"free_energy": -8.39, "intermolecular_energy": -9.58, "internal_energy": -0.76, "cluster_size": 50, "cluster_id": 1, "rank_in_cluster": 48}

>  <energy>  (41) 
-8.45

>  <cluster_rmsd>  (41) 
1.29

>  <cluster>  (41) 
1

$$$$

     RDKit          3D

 49 53  0  0  0  0  0  0  0  0999 V2000
  141.0320   68.1950  229.0710 C   0  0  0  0  0  0  0  0  0  0  0  0
  140.6130   68.5720  227.7000 C   0  0  0  0  0  0  0  0  0  0  0  0
  139.7370   67.7360  227.0230 C   0  0  0  0  0  0  0  0  0  0  0  0
  139.3120   68.0210  225.7630 C   0  0  0  0  0  0  0  0  0  0  0  0
  139.7660   69.1710  225.1490 C   0  0  0  0  0  0  0  0  0  0  0  0
  140.6290   69.9960  225.8160 C   0  0  0  0  0  0  0  0  0  0  0  0
  141.0760   69.7370  227.0840 C   0  0  0  0  0  0  0  0  0  0  0  0
  140.9410   71.1380  224.9190 C   0  0  0  0  0  0  0  0  0  0  0  0
  140.1600   70.8360  223.7160 C   0  0  0  0  0  0  0  0  0  0  0  0
  140.0910   71.6300  222.5070 C   0  0  0  0  0  0  0  0  0  0  0  0
  140.0520   71.0190  221.2700 C   0  0  0  0  0  0  0  0  0  0  0  0
  139.9860   71.8050  220.1170 C   0  0  0  0  0  0  0  0  0  0  0  0
  139.9600   73.1890  220.2360 C   0  0  0  0  0  0  0  0  0  0  0  0
  139.9980   73.8040  221.4690 C   0  0  0  0  0  0  0  0  0  0  0  0
  139.9730   75.2520  221.6440 C   0  0  0  0  0  0  0  0  0  0  0  0
  138.8850   75.9020  221.5830 O   0  0  0  0  0  0  0  0  0  0  0  0
  141.1440   76.0250  221.8890 N   0  0  0  0  0  0  0  0  0  0  0  0
  141.0850   77.4550  222.0580 C   0  0  0  0  0  0  0  0  0  0  0  0
  141.4570   77.9180  223.3090 C   0  0  0  0  0  0  0  0  0  0  0  0
  141.4360   79.2770  223.5770 C   0  0  0  0  0  0  0  0  0  0  0  0
  141.0340   80.0990  222.5450 C   0  0  0  0  0  0  0  0  0  0  0  0
  140.9900   81.5720  222.7660 C   0  0  0  0  0  0  0  0  0  0  0  0
  140.0120   82.4080  221.9510 C   0  0  0  0  0  0  0  0  0  0  0  0
  141.4520   82.4370  221.6000 C   0  0  0  0  0  0  0  0  0  0  0  0
  140.6730   79.5950  221.3170 C   0  0  0  0  0  0  0  0  0  0  0  0
  140.6950   78.2740  221.0620 N   0  0  0  0  0  0  0  0  0  0  0  0
  140.0630   73.0080  222.5760 C   0  0  0  0  0  0  0  0  0  0  0  0
  139.5070   69.7210  223.8750 N   0  0  0  0  0  0  0  0  0  0  0  0
  140.4226   68.7433  229.8045 H   0  0  0  0  0  0  0  0  0  0  0  0
  140.8914   67.1133  229.2130 H   0  0  0  0  0  0  0  0  0  0  0  0
  142.0929   68.4486  229.2130 H   0  0  0  0  0  0  0  0  0  0  0  0
  139.3778   66.8211  227.5169 H   0  0  0  0  0  0  0  0  0  0  0  0
  138.6175   67.3459  225.2414 H   0  0  0  0  0  0  0  0  0  0  0  0
  141.7711   70.4183  227.5965 H   0  0  0  0  0  0  0  0  0  0  0  0
  140.6236   72.0910  225.3674 H   0  0  0  0  0  0  0  0  0  0  0  0
  142.0169   71.2512  224.7200 H   0  0  0  0  0  0  0  0  0  0  0  0
  140.0727   69.9219  221.1927 H   0  0  0  0  0  0  0  0  0  0  0  0
  139.9549   71.3325  219.1241 H   0  0  0  0  0  0  0  0  0  0  0  0
  139.9080   73.8068  219.3274 H   0  0  0  0  0  0  0  0  0  0  0  0
  142.0740   75.5590  221.9530 H   0  0  0  0  0  0  0  0  0  0  0  0
  141.7687   77.2076  224.0889 H   0  0  0  0  0  0  0  0  0  0  0  0
  141.7243   79.6787  224.5596 H   0  0  0  0  0  0  0  0  0  0  0  0
  141.2189   81.4772  223.8377 H   0  0  0  0  0  0  0  0  0  0  0  0
  139.2948   81.9124  221.2801 H   0  0  0  0  0  0  0  0  0  0  0  0
  139.2607   83.1737  222.1944 H   0  0  0  0  0  0  0  0  0  0  0  0
  141.7986   81.9627  220.6700 H   0  0  0  0  0  0  0  0  0  0  0  0
  142.2016   83.2327  221.4777 H   0  0  0  0  0  0  0  0  0  0  0  0
  140.3585   80.2892  220.5238 H   0  0  0  0  0  0  0  0  0  0  0  0
  140.0944   73.4858  223.5663 H   0  0  0  0  0  0  0  0  0  0  0  0
  1  2  1  0
  2  3  2  0
  3  4  1  0
  4  5  2  0
  5  6  1  0
  6  7  2  0
  6  8  1  0
  8  9  1  0
  9 10  1  0
 10 11  2  0
 11 12  1  0
 12 13  2  0
 13 14  1  0
 14 15  1  0
 15 16  2  0
 15 17  1  0
 17 18  1  0
 18 19  2  0
 19 20  1  0
 20 21  2  0
 21 22  1  0
 22 23  1  0
 23 24  1  0
 21 25  1  0
 25 26  2  0
 14 27  2  0
  9 28  2  0
  7  2  1  0
 27 10  1  0
 28  5  1  0
 26 18  1  0
 24 22  1  0
  1 29  1  0
  1 30  1  0
  1 31  1  0
  3 32  1  0
  4 33  1  0
  7 34  1  0
  8 35  1  0
  8 36  1  0
 11 37  1  0
 12 38  1  0
 13 39  1  0
 17 40  1  0
 19 41  1  0
 20 42  1  0
 22 43  1  0
 23 44  1  0
 23 45  1  0
 24 46  1  0
 24 47  1  0
 25 48  1  0
 27 49  1  0
M  END
>  <smiles>  (42) 
Cc1ccc2c(c1)CC(c1cccc(C(=O)Nc3ccc(C4CC4)cn3)c1)=N2

>  <score_type>  (42) 
oracle

>  <origin>  (42) 
autodockgpu

>  <m_score__min__energy>  (42) 
-8.5800000000000001

>  <m_primary>  (42) 
energy

>  <rmsd>  (42) 
7.314691082353339

>  <m_score__min__rmsd>  (42) 
7.314691082353339

>  <meeko>  (42) 
{"free_energy": -8.48, "intermolecular_energy": -9.67, "internal_energy": -0.74, "cluster_size": 50, "cluster_id": 1, "rank_in_cluster": 30}

>  <energy>  (42) 
-8.44

>  <cluster_rmsd>  (42) 
1.29

>  <cluster>  (42) 
1

$$$$

     RDKit          3D

 49 53  0  0  0  0  0  0  0  0999 V2000
  141.2280   68.1340  229.0630 C   0  0  0  0  0  0  0  0  0  0  0  0
  140.7520   68.4560  227.6970 C   0  0  0  0  0  0  0  0  0  0  0  0
  140.0170   67.5000  227.0100 C   0  0  0  0  0  0  0  0  0  0  0  0
  139.5500   67.7290  225.7540 C   0  0  0  0  0  0  0  0  0  0  0  0
  139.8150   68.9430  225.1540 C   0  0  0  0  0  0  0  0  0  0  0  0
  140.5390   69.8860  225.8300 C   0  0  0  0  0  0  0  0  0  0  0  0
  141.0240   69.6860  227.0940 C   0  0  0  0  0  0  0  0  0  0  0  0
  140.6640   71.0720  224.9460 C   0  0  0  0  0  0  0  0  0  0  0  0
  139.9380   70.6650  223.7400 C   0  0  0  0  0  0  0  0  0  0  0  0
  139.7410   71.4520  222.5400 C   0  0  0  0  0  0  0  0  0  0  0  0
  139.3420   70.8480  221.3650 C   0  0  0  0  0  0  0  0  0  0  0  0
  139.1590   71.6260  220.2200 C   0  0  0  0  0  0  0  0  0  0  0  0
  139.3820   72.9960  220.2840 C   0  0  0  0  0  0  0  0  0  0  0  0
  139.7820   73.6040  221.4550 C   0  0  0  0  0  0  0  0  0  0  0  0
  140.0280   75.0370  221.5700 C   0  0  0  0  0  0  0  0  0  0  0  0
  140.7500   75.6490  220.7250 O   0  0  0  0  0  0  0  0  0  0  0  0
  139.4890   75.8360  222.6180 N   0  0  0  0  0  0  0  0  0  0  0  0
  139.7520   77.2510  222.7040 C   0  0  0  0  0  0  0  0  0  0  0  0
  141.0890   77.5970  222.8020 C   0  0  0  0  0  0  0  0  0  0  0  0
  141.4510   78.9320  222.8900 C   0  0  0  0  0  0  0  0  0  0  0  0
  140.4210   79.8490  222.8720 C   0  0  0  0  0  0  0  0  0  0  0  0
  140.7430   81.3010  222.9630 C   0  0  0  0  0  0  0  0  0  0  0  0
  141.8170   81.8740  222.0480 C   0  0  0  0  0  0  0  0  0  0  0  0
  142.1350   81.6470  223.4780 C   0  0  0  0  0  0  0  0  0  0  0  0
  139.1060   79.4580  222.7730 C   0  0  0  0  0  0  0  0  0  0  0  0
  138.7590   78.1610  222.6890 N   0  0  0  0  0  0  0  0  0  0  0  0
  139.9510   72.8150  222.5550 C   0  0  0  0  0  0  0  0  0  0  0  0
  139.4690   69.4590  223.8860 N   0  0  0  0  0  0  0  0  0  0  0  0
  140.5540   68.5900  229.8031 H   0  0  0  0  0  0  0  0  0  0  0  0
  141.2384   67.0426  229.1999 H   0  0  0  0  0  0  0  0  0  0  0  0
  142.2449   68.5304  229.1999 H   0  0  0  0  0  0  0  0  0  0  0  0
  139.8074   66.5343  227.4931 H   0  0  0  0  0  0  0  0  0  0  0  0
  138.9701   66.9588  225.2244 H   0  0  0  0  0  0  0  0  0  0  0  0
  141.6044   70.4624  227.6139 H   0  0  0  0  0  0  0  0  0  0  0  0
  140.2011   71.9577  225.4056 H   0  0  0  0  0  0  0  0  0  0  0  0
  141.7082   71.3553  224.7474 H   0  0  0  0  0  0  0  0  0  0  0  0
  139.1695   69.7622  221.3307 H   0  0  0  0  0  0  0  0  0  0  0  0
  138.8413   71.1587  219.2762 H   0  0  0  0  0  0  0  0  0  0  0  0
  139.2364   73.6081  219.3817 H   0  0  0  0  0  0  0  0  0  0  0  0
  138.8860   75.4020  223.3490 H   0  0  0  0  0  0  0  0  0  0  0  0
  141.8620   76.8144  222.8100 H   0  0  0  0  0  0  0  0  0  0  0  0
  142.5030   79.2433  222.9699 H   0  0  0  0  0  0  0  0  0  0  0  0
  139.7052   81.5756  223.2027 H   0  0  0  0  0  0  0  0  0  0  0  0
  142.2762   81.2375  221.2774 H   0  0  0  0  0  0  0  0  0  0  0  0
  141.8743   82.7400  221.3721 H   0  0  0  0  0  0  0  0  0  0  0  0
  142.8288   80.8426  223.7637 H   0  0  0  0  0  0  0  0  0  0  0  0
  142.5234   82.2760  224.2926 H   0  0  0  0  0  0  0  0  0  0  0  0
  138.3180   80.2254  222.7622 H   0  0  0  0  0  0  0  0  0  0  0  0
  140.2691   73.2871  223.4962 H   0  0  0  0  0  0  0  0  0  0  0  0
  1  2  1  0
  2  3  2  0
  3  4  1  0
  4  5  2  0
  5  6  1  0
  6  7  2  0
  6  8  1  0
  8  9  1  0
  9 10  1  0
 10 11  2  0
 11 12  1  0
 12 13  2  0
 13 14  1  0
 14 15  1  0
 15 16  2  0
 15 17  1  0
 17 18  1  0
 18 19  2  0
 19 20  1  0
 20 21  2  0
 21 22  1  0
 22 23  1  0
 23 24  1  0
 21 25  1  0
 25 26  2  0
 14 27  2  0
  9 28  2  0
  7  2  1  0
 27 10  1  0
 28  5  1  0
 26 18  1  0
 24 22  1  0
  1 29  1  0
  1 30  1  0
  1 31  1  0
  3 32  1  0
  4 33  1  0
  7 34  1  0
  8 35  1  0
  8 36  1  0
 11 37  1  0
 12 38  1  0
 13 39  1  0
 17 40  1  0
 19 41  1  0
 20 42  1  0
 22 43  1  0
 23 44  1  0
 23 45  1  0
 24 46  1  0
 24 47  1  0
 25 48  1  0
 27 49  1  0
M  END
>  <smiles>  (43) 
Cc1ccc2c(c1)CC(c1cccc(C(=O)Nc3ccc(C4CC4)cn3)c1)=N2

>  <score_type>  (43) 
oracle

>  <origin>  (43) 
autodockgpu

>  <m_score__min__energy>  (43) 
-8.5800000000000001

>  <m_primary>  (43) 
energy

>  <rmsd>  (43) 
7.43331517371378

>  <m_score__min__rmsd>  (43) 
7.43331517371378

>  <meeko>  (43) 
{"free_energy": -8.57, "intermolecular_energy": -9.76, "internal_energy": -0.73, "cluster_size": 50, "cluster_id": 1, "rank_in_cluster": 2}

>  <energy>  (43) 
-8.43

>  <cluster_rmsd>  (43) 
1.28

>  <cluster>  (43) 
1

$$$$

     RDKit          3D

 49 53  0  0  0  0  0  0  0  0999 V2000
  141.0990   68.1370  229.0390 C   0  0  0  0  0  0  0  0  0  0  0  0
  140.6610   68.5090  227.6730 C   0  0  0  0  0  0  0  0  0  0  0  0
  139.8630   67.6180  226.9690 C   0  0  0  0  0  0  0  0  0  0  0  0
  139.4270   67.8960  225.7110 C   0  0  0  0  0  0  0  0  0  0  0  0
  139.7880   69.0930  225.1270 C   0  0  0  0  0  0  0  0  0  0  0  0
  140.5750   69.9710  225.8210 C   0  0  0  0  0  0  0  0  0  0  0  0
  141.0310   69.7220  227.0860 C   0  0  0  0  0  0  0  0  0  0  0  0
  140.7980   71.1550  224.9510 C   0  0  0  0  0  0  0  0  0  0  0  0
  140.0540   70.8170  223.7350 C   0  0  0  0  0  0  0  0  0  0  0  0
  139.9280   71.6290  222.5430 C   0  0  0  0  0  0  0  0  0  0  0  0
  139.7360   71.0380  221.3110 C   0  0  0  0  0  0  0  0  0  0  0  0
  139.6190   71.8420  220.1740 C   0  0  0  0  0  0  0  0  0  0  0  0
  139.6970   73.2230  220.3040 C   0  0  0  0  0  0  0  0  0  0  0  0
  139.8900   73.8180  221.5330 C   0  0  0  0  0  0  0  0  0  0  0  0
  139.9790   75.2610  221.7190 C   0  0  0  0  0  0  0  0  0  0  0  0
  138.9420   75.9930  221.6930 O   0  0  0  0  0  0  0  0  0  0  0  0
  141.2110   75.9420  221.9380 N   0  0  0  0  0  0  0  0  0  0  0  0
  141.2650   77.3710  222.1180 C   0  0  0  0  0  0  0  0  0  0  0  0
  141.3580   78.1100  220.9510 C   0  0  0  0  0  0  0  0  0  0  0  0
  141.4160   79.4930  221.0130 C   0  0  0  0  0  0  0  0  0  0  0  0
  141.3760   80.0530  222.2720 C   0  0  0  0  0  0  0  0  0  0  0  0
  141.4340   81.5350  222.4090 C   0  0  0  0  0  0  0  0  0  0  0  0
  140.2380   82.3630  221.9560 C   0  0  0  0  0  0  0  0  0  0  0  0
  141.4520   82.3260  221.1060 C   0  0  0  0  0  0  0  0  0  0  0  0
  141.2820   79.2790  223.4050 C   0  0  0  0  0  0  0  0  0  0  0  0
  141.2260   77.9350  223.3410 N   0  0  0  0  0  0  0  0  0  0  0  0
  140.0000   73.0050  222.6230 C   0  0  0  0  0  0  0  0  0  0  0  0
  139.4950   69.6480  223.8630 N   0  0  0  0  0  0  0  0  0  0  0  0
  140.4788   68.6638  229.7791 H   0  0  0  0  0  0  0  0  0  0  0  0
  140.9903   67.0510  229.1759 H   0  0  0  0  0  0  0  0  0  0  0  0
  142.1531   68.4201  229.1759 H   0  0  0  0  0  0  0  0  0  0  0  0
  139.5767   66.6656  227.4390 H   0  0  0  0  0  0  0  0  0  0  0  0
  138.7961   67.1774  225.1673 H   0  0  0  0  0  0  0  0  0  0  0  0
  141.6632   70.4469  227.6197 H   0  0  0  0  0  0  0  0  0  0  0  0
  140.3996   72.0683  225.4169 H   0  0  0  0  0  0  0  0  0  0  0  0
  141.8623   71.3607  224.7642 H   0  0  0  0  0  0  0  0  0  0  0  0
  139.6755   69.9431  221.2246 H   0  0  0  0  0  0  0  0  0  0  0  0
  139.4665   71.3855  219.1849 H   0  0  0  0  0  0  0  0  0  0  0  0
  139.6029   73.8547  219.4084 H   0  0  0  0  0  0  0  0  0  0  0  0
  142.1040   75.4070  221.9720 H   0  0  0  0  0  0  0  0  0  0  0  0
  141.3858   77.6003  219.9766 H   0  0  0  0  0  0  0  0  0  0  0  0
  141.4900   80.1110  220.1061 H   0  0  0  0  0  0  0  0  0  0  0  0
  142.0347   81.4852  223.3292 H   0  0  0  0  0  0  0  0  0  0  0  0
  139.3193   81.8596  221.6205 H   0  0  0  0  0  0  0  0  0  0  0  0
  139.6373   83.1648  222.4101 H   0  0  0  0  0  0  0  0  0  0  0  0
  141.4301   81.7951  220.1428 H   0  0  0  0  0  0  0  0  0  0  0  0
  142.1166   83.0889  220.6743 H   0  0  0  0  0  0  0  0  0  0  0  0
  141.2518   79.7704  224.3887 H   0  0  0  0  0  0  0  0  0  0  0  0
  140.1529   73.4667  223.6096 H   0  0  0  0  0  0  0  0  0  0  0  0
  1  2  1  0
  2  3  2  0
  3  4  1  0
  4  5  2  0
  5  6  1  0
  6  7  2  0
  6  8  1  0
  8  9  1  0
  9 10  1  0
 10 11  2  0
 11 12  1  0
 12 13  2  0
 13 14  1  0
 14 15  1  0
 15 16  2  0
 15 17  1  0
 17 18  1  0
 18 19  2  0
 19 20  1  0
 20 21  2  0
 21 22  1  0
 22 23  1  0
 23 24  1  0
 21 25  1  0
 25 26  2  0
 14 27  2  0
  9 28  2  0
  7  2  1  0
 27 10  1  0
 28  5  1  0
 26 18  1  0
 24 22  1  0
  1 29  1  0
  1 30  1  0
  1 31  1  0
  3 32  1  0
  4 33  1  0
  7 34  1  0
  8 35  1  0
  8 36  1  0
 11 37  1  0
 12 38  1  0
 13 39  1  0
 17 40  1  0
 19 41  1  0
 20 42  1  0
 22 43  1  0
 23 44  1  0
 23 45  1  0
 24 46  1  0
 24 47  1  0
 25 48  1  0
 27 49  1  0
M  END
>  <smiles>  (44) 
Cc1ccc2c(c1)CC(c1cccc(C(=O)Nc3ccc(C4CC4)cn3)c1)=N2

>  <score_type>  (44) 
oracle

>  <origin>  (44) 
autodockgpu

>  <m_score__min__energy>  (44) 
-8.5800000000000001

>  <m_primary>  (44) 
energy

>  <rmsd>  (44) 
7.186228316734799

>  <m_score__min__rmsd>  (44) 
7.186228316734799

>  <meeko>  (44) 
{"free_energy": -8.51, "intermolecular_energy": -9.7, "internal_energy": -0.76, "cluster_size": 50, "cluster_id": 1, "rank_in_cluster": 19}

>  <energy>  (44) 
-8.42

>  <cluster_rmsd>  (44) 
1.16

>  <cluster>  (44) 
1

$$$$

     RDKit          3D

 49 53  0  0  0  0  0  0  0  0999 V2000
  141.2820   68.1470  229.0440 C   0  0  0  0  0  0  0  0  0  0  0  0
  140.7840   68.4590  227.6840 C   0  0  0  0  0  0  0  0  0  0  0  0
  140.0440   67.4950  227.0130 C   0  0  0  0  0  0  0  0  0  0  0  0
  139.5580   67.7150  225.7630 C   0  0  0  0  0  0  0  0  0  0  0  0
  139.8070   68.9270  225.1520 C   0  0  0  0  0  0  0  0  0  0  0  0
  140.5350   69.8780  225.8130 C   0  0  0  0  0  0  0  0  0  0  0  0
  141.0400   69.6880  227.0700 C   0  0  0  0  0  0  0  0  0  0  0  0
  140.6410   71.0610  224.9200 C   0  0  0  0  0  0  0  0  0  0  0  0
  139.8990   70.6430  223.7280 C   0  0  0  0  0  0  0  0  0  0  0  0
  139.6800   71.4230  222.5270 C   0  0  0  0  0  0  0  0  0  0  0  0
  139.2720   70.8090  221.3600 C   0  0  0  0  0  0  0  0  0  0  0  0
  139.0680   71.5810  220.2130 C   0  0  0  0  0  0  0  0  0  0  0  0
  139.2790   72.9530  220.2680 C   0  0  0  0  0  0  0  0  0  0  0  0
  139.6860   73.5700  221.4320 C   0  0  0  0  0  0  0  0  0  0  0  0
  139.9200   75.0050  221.5380 C   0  0  0  0  0  0  0  0  0  0  0  0
  140.5420   75.6390  220.6300 O   0  0  0  0  0  0  0  0  0  0  0  0
  139.4790   75.7850  222.6450 N   0  0  0  0  0  0  0  0  0  0  0  0
  139.7260   77.2030  222.7190 C   0  0  0  0  0  0  0  0  0  0  0  0
  141.0600   77.5660  222.7860 C   0  0  0  0  0  0  0  0  0  0  0  0
  141.4080   78.9060  222.8610 C   0  0  0  0  0  0  0  0  0  0  0  0
  140.3670   79.8100  222.8630 C   0  0  0  0  0  0  0  0  0  0  0  0
  140.6730   81.2660  222.9410 C   0  0  0  0  0  0  0  0  0  0  0  0
  141.7720   81.8350  222.0530 C   0  0  0  0  0  0  0  0  0  0  0  0
  142.0440   81.6330  223.4960 C   0  0  0  0  0  0  0  0  0  0  0  0
  139.0550   79.4030  222.7950 C   0  0  0  0  0  0  0  0  0  0  0  0
  138.7220   78.1010  222.7230 N   0  0  0  0  0  0  0  0  0  0  0  0
  139.8770   72.7880  222.5340 C   0  0  0  0  0  0  0  0  0  0  0  0
  139.4400   69.4350  223.8870 N   0  0  0  0  0  0  0  0  0  0  0  0
  140.5985   68.5752  229.7920 H   0  0  0  0  0  0  0  0  0  0  0  0
  141.3318   67.0560  229.1749 H   0  0  0  0  0  0  0  0  0  0  0  0
  142.2855   68.5782  229.1749 H   0  0  0  0  0  0  0  0  0  0  0  0
  139.8465   66.5309  227.5043 H   0  0  0  0  0  0  0  0  0  0  0  0
  138.9749   66.9386  225.2461 H   0  0  0  0  0  0  0  0  0  0  0  0
  141.6237   70.4706  227.5768 H   0  0  0  0  0  0  0  0  0  0  0  0
  140.1806   71.9470  225.3815 H   0  0  0  0  0  0  0  0  0  0  0  0
  141.6805   71.3489  224.7042 H   0  0  0  0  0  0  0  0  0  0  0  0
  139.1089   69.7215  221.3330 H   0  0  0  0  0  0  0  0  0  0  0  0
  138.7433   71.1066  219.2752 H   0  0  0  0  0  0  0  0  0  0  0  0
  139.1181   73.5595  219.3645 H   0  0  0  0  0  0  0  0  0  0  0  0
  138.9610   75.3330  223.4280 H   0  0  0  0  0  0  0  0  0  0  0  0
  141.8425   76.7929  222.7798 H   0  0  0  0  0  0  0  0  0  0  0  0
  142.4577   79.2303  222.9159 H   0  0  0  0  0  0  0  0  0  0  0  0
  139.6253   81.5345  223.1416 H   0  0  0  0  0  0  0  0  0  0  0  0
  142.2623   81.1910  221.3081 H   0  0  0  0  0  0  0  0  0  0  0  0
  141.8441   82.6909  221.3658 H   0  0  0  0  0  0  0  0  0  0  0  0
  142.7350   80.8397  223.8172 H   0  0  0  0  0  0  0  0  0  0  0  0
  142.3994   82.2781  224.3130 H   0  0  0  0  0  0  0  0  0  0  0  0
  138.2577   80.1608  222.7996 H   0  0  0  0  0  0  0  0  0  0  0  0
  140.2024   73.2675  223.4690 H   0  0  0  0  0  0  0  0  0  0  0  0
  1  2  1  0
  2  3  2  0
  3  4  1  0
  4  5  2  0
  5  6  1  0
  6  7  2  0
  6  8  1  0
  8  9  1  0
  9 10  1  0
 10 11  2  0
 11 12  1  0
 12 13  2  0
 13 14  1  0
 14 15  1  0
 15 16  2  0
 15 17  1  0
 17 18  1  0
 18 19  2  0
 19 20  1  0
 20 21  2  0
 21 22  1  0
 22 23  1  0
 23 24  1  0
 21 25  1  0
 25 26  2  0
 14 27  2  0
  9 28  2  0
  7  2  1  0
 27 10  1  0
 28  5  1  0
 26 18  1  0
 24 22  1  0
  1 29  1  0
  1 30  1  0
  1 31  1  0
  3 32  1  0
  4 33  1  0
  7 34  1  0
  8 35  1  0
  8 36  1  0
 11 37  1  0
 12 38  1  0
 13 39  1  0
 17 40  1  0
 19 41  1  0
 20 42  1  0
 22 43  1  0
 23 44  1  0
 23 45  1  0
 24 46  1  0
 24 47  1  0
 25 48  1  0
 27 49  1  0
M  END
>  <smiles>  (45) 
Cc1ccc2c(c1)CC(c1cccc(C(=O)Nc3ccc(C4CC4)cn3)c1)=N2

>  <score_type>  (45) 
oracle

>  <origin>  (45) 
autodockgpu

>  <m_score__min__energy>  (45) 
-8.5800000000000001

>  <m_primary>  (45) 
energy

>  <rmsd>  (45) 
7.444947842925837

>  <m_score__min__rmsd>  (45) 
7.444947842925837

>  <meeko>  (45) 
{"free_energy": -8.54, "intermolecular_energy": -9.74, "internal_energy": -0.75, "cluster_size": 50, "cluster_id": 1, "rank_in_cluster": 9}

>  <energy>  (45) 
-8.42

>  <cluster_rmsd>  (45) 
1.28

>  <cluster>  (45) 
1

$$$$

     RDKit          3D

 49 53  0  0  0  0  0  0  0  0999 V2000
  141.0790   68.1380  229.0200 C   0  0  0  0  0  0  0  0  0  0  0  0
  140.6570   68.5050  227.6480 C   0  0  0  0  0  0  0  0  0  0  0  0
  139.9190   67.5870  226.9150 C   0  0  0  0  0  0  0  0  0  0  0  0
  139.5000   67.8590  225.6510 C   0  0  0  0  0  0  0  0  0  0  0  0
  139.8180   69.0780  225.0890 C   0  0  0  0  0  0  0  0  0  0  0  0
  140.5450   69.9840  225.8110 C   0  0  0  0  0  0  0  0  0  0  0  0
  140.9820   69.7410  227.0840 C   0  0  0  0  0  0  0  0  0  0  0  0
  140.7320   71.1870  224.9600 C   0  0  0  0  0  0  0  0  0  0  0  0
  140.0350   70.8290  223.7220 C   0  0  0  0  0  0  0  0  0  0  0  0
  139.9000   71.6500  222.5360 C   0  0  0  0  0  0  0  0  0  0  0  0
  139.7030   71.0660  221.3010 C   0  0  0  0  0  0  0  0  0  0  0  0
  139.5760   71.8770  220.1700 C   0  0  0  0  0  0  0  0  0  0  0  0
  139.6500   73.2570  220.3090 C   0  0  0  0  0  0  0  0  0  0  0  0
  139.8460   73.8440  221.5410 C   0  0  0  0  0  0  0  0  0  0  0  0
  139.9310   75.2870  221.7360 C   0  0  0  0  0  0  0  0  0  0  0  0
  138.8920   76.0160  221.7100 O   0  0  0  0  0  0  0  0  0  0  0  0
  141.1590   75.9700  221.9650 N   0  0  0  0  0  0  0  0  0  0  0  0
  141.2090   77.3980  222.1550 C   0  0  0  0  0  0  0  0  0  0  0  0
  141.0010   78.1520  221.0130 C   0  0  0  0  0  0  0  0  0  0  0  0
  141.0280   79.5360  221.0850 C   0  0  0  0  0  0  0  0  0  0  0  0
  141.2670   80.0800  222.3290 C   0  0  0  0  0  0  0  0  0  0  0  0
  141.3080   81.5620  222.4760 C   0  0  0  0  0  0  0  0  0  0  0  0
  140.1700   82.3900  221.8940 C   0  0  0  0  0  0  0  0  0  0  0  0
  141.4710   82.3570  221.1860 C   0  0  0  0  0  0  0  0  0  0  0  0
  141.4680   79.2910  223.4380 C   0  0  0  0  0  0  0  0  0  0  0  0
  141.4410   77.9470  223.3630 N   0  0  0  0  0  0  0  0  0  0  0  0
  139.9660   73.0250  222.6250 C   0  0  0  0  0  0  0  0  0  0  0  0
  139.5290   69.6340  223.8230 N   0  0  0  0  0  0  0  0  0  0  0  0
  140.4588   68.6774  229.7510 H   0  0  0  0  0  0  0  0  0  0  0  0
  140.9564   67.0544  229.1638 H   0  0  0  0  0  0  0  0  0  0  0  0
  142.1351   68.4098  229.1638 H   0  0  0  0  0  0  0  0  0  0  0  0
  139.6671   66.6164  227.3673 H   0  0  0  0  0  0  0  0  0  0  0  0
  138.9162   67.1184  225.0848 H   0  0  0  0  0  0  0  0  0  0  0  0
  141.5657   70.4885  227.6412 H   0  0  0  0  0  0  0  0  0  0  0  0
  140.2791   72.0746  225.4258 H   0  0  0  0  0  0  0  0  0  0  0  0
  141.7896   71.4451  224.8020 H   0  0  0  0  0  0  0  0  0  0  0  0
  139.6464   69.9714  221.2078 H   0  0  0  0  0  0  0  0  0  0  0  0
  139.4189   71.4266  219.1788 H   0  0  0  0  0  0  0  0  0  0  0  0
  139.5502   73.8945  219.4181 H   0  0  0  0  0  0  0  0  0  0  0  0
  142.0540   75.4370  222.0010 H   0  0  0  0  0  0  0  0  0  0  0  0
  140.8146   77.6538  220.0501 H   0  0  0  0  0  0  0  0  0  0  0  0
  140.8674   80.1660  220.1977 H   0  0  0  0  0  0  0  0  0  0  0  0
  141.8019   81.5098  223.4575 H   0  0  0  0  0  0  0  0  0  0  0  0
  139.2955   81.8868  221.4558 H   0  0  0  0  0  0  0  0  0  0  0  0
  139.5210   83.1898  222.2801 H   0  0  0  0  0  0  0  0  0  0  0  0
  141.5581   81.8292  220.2248 H   0  0  0  0  0  0  0  0  0  0  0  0
  142.1787   83.1220  220.8340 H   0  0  0  0  0  0  0  0  0  0  0  0
  141.6555   79.7702  224.4102 H   0  0  0  0  0  0  0  0  0  0  0  0
  140.1223   73.4810  223.6138 H   0  0  0  0  0  0  0  0  0  0  0  0
  1  2  1  0
  2  3  2  0
  3  4  1  0
  4  5  2  0
  5  6  1  0
  6  7  2  0
  6  8  1  0
  8  9  1  0
  9 10  1  0
 10 11  2  0
 11 12  1  0
 12 13  2  0
 13 14  1  0
 14 15  1  0
 15 16  2  0
 15 17  1  0
 17 18  1  0
 18 19  2  0
 19 20  1  0
 20 21  2  0
 21 22  1  0
 22 23  1  0
 23 24  1  0
 21 25  1  0
 25 26  2  0
 14 27  2  0
  9 28  2  0
  7  2  1  0
 27 10  1  0
 28  5  1  0
 26 18  1  0
 24 22  1  0
  1 29  1  0
  1 30  1  0
  1 31  1  0
  3 32  1  0
  4 33  1  0
  7 34  1  0
  8 35  1  0
  8 36  1  0
 11 37  1  0
 12 38  1  0
 13 39  1  0
 17 40  1  0
 19 41  1  0
 20 42  1  0
 22 43  1  0
 23 44  1  0
 23 45  1  0
 24 46  1  0
 24 47  1  0
 25 48  1  0
 27 49  1  0
M  END
>  <smiles>  (46) 
Cc1ccc2c(c1)CC(c1cccc(C(=O)Nc3ccc(C4CC4)cn3)c1)=N2

>  <score_type>  (46) 
oracle

>  <origin>  (46) 
autodockgpu

>  <m_score__min__energy>  (46) 
-8.5800000000000001

>  <m_primary>  (46) 
energy

>  <rmsd>  (46) 
7.190031142770813

>  <m_score__min__rmsd>  (46) 
7.190031142770813

>  <meeko>  (46) 
{"free_energy": -8.51, "intermolecular_energy": -9.7, "internal_energy": -0.76, "cluster_size": 50, "cluster_id": 1, "rank_in_cluster": 22}

>  <energy>  (46) 
-8.4

>  <cluster_rmsd>  (46) 
1.54

>  <cluster>  (46) 
1

$$$$

     RDKit          3D

 49 53  0  0  0  0  0  0  0  0999 V2000
  141.0340   68.1690  229.0520 C   0  0  0  0  0  0  0  0  0  0  0  0
  140.6090   68.5590  227.6870 C   0  0  0  0  0  0  0  0  0  0  0  0
  139.7020   67.7480  227.0190 C   0  0  0  0  0  0  0  0  0  0  0  0
  139.2710   68.0460  225.7650 C   0  0  0  0  0  0  0  0  0  0  0  0
  139.7490   69.1840  225.1470 C   0  0  0  0  0  0  0  0  0  0  0  0
  140.6430   69.9840  225.8050 C   0  0  0  0  0  0  0  0  0  0  0  0
  141.0970   69.7110  227.0660 C   0  0  0  0  0  0  0  0  0  0  0  0
  140.9750   71.1180  224.9040 C   0  0  0  0  0  0  0  0  0  0  0  0
  140.1720   70.8400  223.7110 C   0  0  0  0  0  0  0  0  0  0  0  0
  140.1100   71.6370  222.5040 C   0  0  0  0  0  0  0  0  0  0  0  0
  140.0450   71.0280  221.2660 C   0  0  0  0  0  0  0  0  0  0  0  0
  139.9870   71.8170  220.1150 C   0  0  0  0  0  0  0  0  0  0  0  0
  139.9950   73.2010  220.2350 C   0  0  0  0  0  0  0  0  0  0  0  0
  140.0610   73.8130  221.4690 C   0  0  0  0  0  0  0  0  0  0  0  0
  140.0730   75.2610  221.6450 C   0  0  0  0  0  0  0  0  0  0  0  0
  138.9940   75.9170  221.7710 O   0  0  0  0  0  0  0  0  0  0  0  0
  141.2720   76.0290  221.6880 N   0  0  0  0  0  0  0  0  0  0  0  0
  141.2500   77.4590  221.8640 C   0  0  0  0  0  0  0  0  0  0  0  0
  141.2740   77.8920  223.1800 C   0  0  0  0  0  0  0  0  0  0  0  0
  141.2560   79.2480  223.4600 C   0  0  0  0  0  0  0  0  0  0  0  0
  141.2140   80.0980  222.3750 C   0  0  0  0  0  0  0  0  0  0  0  0
  141.1940   81.5700  222.6070 C   0  0  0  0  0  0  0  0  0  0  0  0
  140.0760   82.3960  221.9840 C   0  0  0  0  0  0  0  0  0  0  0  0
  141.4290   82.4440  221.3800 C   0  0  0  0  0  0  0  0  0  0  0  0
  141.1920   79.6230  221.0840 C   0  0  0  0  0  0  0  0  0  0  0  0
  141.2090   78.3040  220.8170 N   0  0  0  0  0  0  0  0  0  0  0  0
  140.1170   73.0150  222.5740 C   0  0  0  0  0  0  0  0  0  0  0  0
  139.4900   69.7420  223.8760 N   0  0  0  0  0  0  0  0  0  0  0  0
  140.4353   68.7184  229.7934 H   0  0  0  0  0  0  0  0  0  0  0  0
  140.8838   67.0878  229.1879 H   0  0  0  0  0  0  0  0  0  0  0  0
  142.0983   68.4113  229.1879 H   0  0  0  0  0  0  0  0  0  0  0  0
  139.3232   66.8429  227.5162 H   0  0  0  0  0  0  0  0  0  0  0  0
  138.5526   67.3907  225.2507 H   0  0  0  0  0  0  0  0  0  0  0  0
  141.8172   70.3718  227.5706 H   0  0  0  0  0  0  0  0  0  0  0  0
  140.6897   72.0789  225.3570 H   0  0  0  0  0  0  0  0  0  0  0  0
  142.0511   71.2008  224.6914 H   0  0  0  0  0  0  0  0  0  0  0  0
  140.0390   69.9308  221.1872 H   0  0  0  0  0  0  0  0  0  0  0  0
  139.9354   71.3466  219.1220 H   0  0  0  0  0  0  0  0  0  0  0  0
  139.9477   73.8210  219.3276 H   0  0  0  0  0  0  0  0  0  0  0  0
  142.1970   75.5580  221.5920 H   0  0  0  0  0  0  0  0  0  0  0  0
  141.3073   77.1601  224.0005 H   0  0  0  0  0  0  0  0  0  0  0  0
  141.2742   79.6268  224.4926 H   0  0  0  0  0  0  0  0  0  0  0  0
  141.6129   81.4755  223.6197 H   0  0  0  0  0  0  0  0  0  0  0  0
  139.2559   81.8931  221.4505 H   0  0  0  0  0  0  0  0  0  0  0  0
  139.3717   83.1518  222.3618 H   0  0  0  0  0  0  0  0  0  0  0  0
  141.6085   81.9763  220.4007 H   0  0  0  0  0  0  0  0  0  0  0  0
  142.1349   83.2493  221.1285 H   0  0  0  0  0  0  0  0  0  0  0  0
  141.1597   80.3389  220.2495 H   0  0  0  0  0  0  0  0  0  0  0  0
  140.1701   73.4910  223.5643 H   0  0  0  0  0  0  0  0  0  0  0  0
  1  2  1  0
  2  3  2  0
  3  4  1  0
  4  5  2  0
  5  6  1  0
  6  7  2  0
  6  8  1  0
  8  9  1  0
  9 10  1  0
 10 11  2  0
 11 12  1  0
 12 13  2  0
 13 14  1  0
 14 15  1  0
 15 16  2  0
 15 17  1  0
 17 18  1  0
 18 19  2  0
 19 20  1  0
 20 21  2  0
 21 22  1  0
 22 23  1  0
 23 24  1  0
 21 25  1  0
 25 26  2  0
 14 27  2  0
  9 28  2  0
  7  2  1  0
 27 10  1  0
 28  5  1  0
 26 18  1  0
 24 22  1  0
  1 29  1  0
  1 30  1  0
  1 31  1  0
  3 32  1  0
  4 33  1  0
  7 34  1  0
  8 35  1  0
  8 36  1  0
 11 37  1  0
 12 38  1  0
 13 39  1  0
 17 40  1  0
 19 41  1  0
 20 42  1  0
 22 43  1  0
 23 44  1  0
 23 45  1  0
 24 46  1  0
 24 47  1  0
 25 48  1  0
 27 49  1  0
M  END
>  <smiles>  (47) 
Cc1ccc2c(c1)CC(c1cccc(C(=O)Nc3ccc(C4CC4)cn3)c1)=N2

>  <score_type>  (47) 
oracle

>  <origin>  (47) 
autodockgpu

>  <m_score__min__energy>  (47) 
-8.5800000000000001

>  <m_primary>  (47) 
energy

>  <rmsd>  (47) 
7.284584100939939

>  <m_score__min__rmsd>  (47) 
7.284584100939939

>  <meeko>  (47) 
{"free_energy": -8.47, "intermolecular_energy": -9.67, "internal_energy": -0.76, "cluster_size": 50, "cluster_id": 1, "rank_in_cluster": 33}

>  <energy>  (47) 
-8.39

>  <cluster_rmsd>  (47) 
1.28

>  <cluster>  (47) 
1

$$$$

     RDKit          3D

 49 53  0  0  0  0  0  0  0  0999 V2000
  141.1790   68.1420  228.9410 C   0  0  0  0  0  0  0  0  0  0  0  0
  140.6840   68.4390  227.5760 C   0  0  0  0  0  0  0  0  0  0  0  0
  140.0120   67.4410  226.8840 C   0  0  0  0  0  0  0  0  0  0  0  0
  139.5320   67.6460  225.6290 C   0  0  0  0  0  0  0  0  0  0  0  0
  139.7200   68.8770  225.0340 C   0  0  0  0  0  0  0  0  0  0  0  0
  140.3830   69.8610  225.7150 C   0  0  0  0  0  0  0  0  0  0  0  0
  140.8790   69.6870  226.9780 C   0  0  0  0  0  0  0  0  0  0  0  0
  140.4340   71.0570  224.8360 C   0  0  0  0  0  0  0  0  0  0  0  0
  139.7350   70.6100  223.6280 C   0  0  0  0  0  0  0  0  0  0  0  0
  139.4900   71.3880  222.4310 C   0  0  0  0  0  0  0  0  0  0  0  0
  139.0560   70.7740  221.2740 C   0  0  0  0  0  0  0  0  0  0  0  0
  138.8270   71.5440  220.1310 C   0  0  0  0  0  0  0  0  0  0  0  0
  139.0400   72.9160  220.1800 C   0  0  0  0  0  0  0  0  0  0  0  0
  139.4730   73.5340  221.3330 C   0  0  0  0  0  0  0  0  0  0  0  0
  139.7110   74.9700  221.4320 C   0  0  0  0  0  0  0  0  0  0  0  0
  140.1250   75.6380  220.4350 O   0  0  0  0  0  0  0  0  0  0  0  0
  139.5000   75.7110  222.6300 N   0  0  0  0  0  0  0  0  0  0  0  0
  139.7440   77.1300  222.6950 C   0  0  0  0  0  0  0  0  0  0  0  0
  141.0790   77.4990  222.7290 C   0  0  0  0  0  0  0  0  0  0  0  0
  141.4230   78.8390  222.7930 C   0  0  0  0  0  0  0  0  0  0  0  0
  140.3790   79.7400  222.8170 C   0  0  0  0  0  0  0  0  0  0  0  0
  140.6810   81.1980  222.8840 C   0  0  0  0  0  0  0  0  0  0  0  0
  141.8230   81.7510  222.0410 C   0  0  0  0  0  0  0  0  0  0  0  0
  142.0240   81.5740  223.4990 C   0  0  0  0  0  0  0  0  0  0  0  0
  139.0670   79.3280  222.7800 C   0  0  0  0  0  0  0  0  0  0  0  0
  138.7380   78.0250  222.7190 N   0  0  0  0  0  0  0  0  0  0  0  0
  139.6880   72.7530  222.4320 C   0  0  0  0  0  0  0  0  0  0  0  0
  139.3440   69.3760  223.7680 N   0  0  0  0  0  0  0  0  0  0  0  0
  140.4824   68.5600  229.6827 H   0  0  0  0  0  0  0  0  0  0  0  0
  141.2489   67.0526  229.0767 H   0  0  0  0  0  0  0  0  0  0  0  0
  142.1731   68.5929  229.0767 H   0  0  0  0  0  0  0  0  0  0  0  0
  139.8645   66.4615  227.3623 H   0  0  0  0  0  0  0  0  0  0  0  0
  139.0019   66.8431  225.0958 H   0  0  0  0  0  0  0  0  0  0  0  0
  141.4095   70.4961  227.5014 H   0  0  0  0  0  0  0  0  0  0  0  0
  139.9165   71.9101  225.2991 H   0  0  0  0  0  0  0  0  0  0  0  0
  141.4583   71.4063  224.6392 H   0  0  0  0  0  0  0  0  0  0  0  0
  138.8916   69.6866  221.2518 H   0  0  0  0  0  0  0  0  0  0  0  0
  138.4814   71.0686  219.2012 H   0  0  0  0  0  0  0  0  0  0  0  0
  138.8592   73.5216  219.2797 H   0  0  0  0  0  0  0  0  0  0  0  0
  139.1600   75.2300  223.4890 H   0  0  0  0  0  0  0  0  0  0  0  0
  141.8643   76.7291  222.7052 H   0  0  0  0  0  0  0  0  0  0  0  0
  142.4725   79.1671  222.8231 H   0  0  0  0  0  0  0  0  0  0  0  0
  139.6251   81.4705  223.0281 H   0  0  0  0  0  0  0  0  0  0  0  0
  142.3482   81.0939  221.3322 H   0  0  0  0  0  0  0  0  0  0  0  0
  141.9297   82.5948  221.3435 H   0  0  0  0  0  0  0  0  0  0  0  0
  142.6974   80.7860  223.8672 H   0  0  0  0  0  0  0  0  0  0  0  0
  142.3400   82.2331  224.3211 H   0  0  0  0  0  0  0  0  0  0  0  0
  138.2670   80.0827  222.8008 H   0  0  0  0  0  0  0  0  0  0  0  0
  140.0343   73.2334  223.3590 H   0  0  0  0  0  0  0  0  0  0  0  0
  1  2  1  0
  2  3  2  0
  3  4  1  0
  4  5  2  0
  5  6  1  0
  6  7  2  0
  6  8  1  0
  8  9  1  0
  9 10  1  0
 10 11  2  0
 11 12  1  0
 12 13  2  0
 13 14  1  0
 14 15  1  0
 15 16  2  0
 15 17  1  0
 17 18  1  0
 18 19  2  0
 19 20  1  0
 20 21  2  0
 21 22  1  0
 22 23  1  0
 23 24  1  0
 21 25  1  0
 25 26  2  0
 14 27  2  0
  9 28  2  0
  7  2  1  0
 27 10  1  0
 28  5  1  0
 26 18  1  0
 24 22  1  0
  1 29  1  0
  1 30  1  0
  1 31  1  0
  3 32  1  0
  4 33  1  0
  7 34  1  0
  8 35  1  0
  8 36  1  0
 11 37  1  0
 12 38  1  0
 13 39  1  0
 17 40  1  0
 19 41  1  0
 20 42  1  0
 22 43  1  0
 23 44  1  0
 23 45  1  0
 24 46  1  0
 24 47  1  0
 25 48  1  0
 27 49  1  0
M  END
>  <smiles>  (48) 
Cc1ccc2c(c1)CC(c1cccc(C(=O)Nc3ccc(C4CC4)cn3)c1)=N2

>  <score_type>  (48) 
oracle

>  <origin>  (48) 
autodockgpu

>  <m_score__min__energy>  (48) 
-8.5800000000000001

>  <m_primary>  (48) 
energy

>  <rmsd>  (48) 
7.441565344932022

>  <m_score__min__rmsd>  (48) 
7.441565344932022

>  <meeko>  (48) 
{"free_energy": -8.47, "intermolecular_energy": -9.66, "internal_energy": -0.77, "cluster_size": 50, "cluster_id": 1, "rank_in_cluster": 35}

>  <energy>  (48) 
-8.39

>  <cluster_rmsd>  (48) 
0.32

>  <cluster>  (48) 
1

$$$$

     RDKit          3D

 49 53  0  0  0  0  0  0  0  0999 V2000
  141.1540   68.1430  229.0900 C   0  0  0  0  0  0  0  0  0  0  0  0
  140.6330   68.4800  227.7450 C   0  0  0  0  0  0  0  0  0  0  0  0
  139.7380   67.6060  227.1440 C   0  0  0  0  0  0  0  0  0  0  0  0
  139.2220   67.8530  225.9100 C   0  0  0  0  0  0  0  0  0  0  0  0
  139.6000   69.0020  225.2460 C   0  0  0  0  0  0  0  0  0  0  0  0
  140.4820   69.8640  225.8380 C   0  0  0  0  0  0  0  0  0  0  0  0
  141.0200   69.6440  227.0760 C   0  0  0  0  0  0  0  0  0  0  0  0
  140.6990   70.9950  224.9000 C   0  0  0  0  0  0  0  0  0  0  0  0
  139.8480   70.6480  223.7590 C   0  0  0  0  0  0  0  0  0  0  0  0
  139.6750   71.4140  222.5430 C   0  0  0  0  0  0  0  0  0  0  0  0
  139.3180   70.7880  221.3660 C   0  0  0  0  0  0  0  0  0  0  0  0
  139.1570   71.5470  220.2040 C   0  0  0  0  0  0  0  0  0  0  0  0
  139.3590   72.9210  220.2540 C   0  0  0  0  0  0  0  0  0  0  0  0
  139.7170   73.5510  221.4270 C   0  0  0  0  0  0  0  0  0  0  0  0
  139.9400   74.9880  221.5280 C   0  0  0  0  0  0  0  0  0  0  0  0
  140.5540   75.6240  220.6170 O   0  0  0  0  0  0  0  0  0  0  0  0
  139.4970   75.7680  222.6350 N   0  0  0  0  0  0  0  0  0  0  0  0
  139.7340   77.1880  222.7040 C   0  0  0  0  0  0  0  0  0  0  0  0
  141.0660   77.5620  222.7620 C   0  0  0  0  0  0  0  0  0  0  0  0
  141.4040   78.9040  222.8310 C   0  0  0  0  0  0  0  0  0  0  0  0
  140.3560   79.8000  222.8380 C   0  0  0  0  0  0  0  0  0  0  0  0
  140.6500   81.2590  222.9110 C   0  0  0  0  0  0  0  0  0  0  0  0
  141.7760   81.8250  222.0550 C   0  0  0  0  0  0  0  0  0  0  0  0
  142.0000   81.6390  223.5080 C   0  0  0  0  0  0  0  0  0  0  0  0
  139.0460   79.3830  222.7790 C   0  0  0  0  0  0  0  0  0  0  0  0
  138.7230   78.0780  222.7120 N   0  0  0  0  0  0  0  0  0  0  0  0
  139.8660   72.7810  222.5440 C   0  0  0  0  0  0  0  0  0  0  0  0
  139.2400   69.5180  223.9820 N   0  0  0  0  0  0  0  0  0  0  0  0
  140.4923   68.5710  229.8574 H   0  0  0  0  0  0  0  0  0  0  0  0
  141.1905   67.0497  229.2057 H   0  0  0  0  0  0  0  0  0  0  0  0
  142.1661   68.5580  229.2057 H   0  0  0  0  0  0  0  0  0  0  0  0
  139.4389   66.6921  227.6781 H   0  0  0  0  0  0  0  0  0  0  0  0
  138.5147   67.1481  225.4487 H   0  0  0  0  0  0  0  0  0  0  0  0
  141.7286   70.3545  227.5267 H   0  0  0  0  0  0  0  0  0  0  0  0
  140.3854   71.9480  225.3511 H   0  0  0  0  0  0  0  0  0  0  0  0
  141.7553   71.1328  224.6256 H   0  0  0  0  0  0  0  0  0  0  0  0
  139.1613   69.6995  221.3429 H   0  0  0  0  0  0  0  0  0  0  0  0
  138.8731   71.0616  219.2586 H   0  0  0  0  0  0  0  0  0  0  0  0
  139.2307   73.5181  219.3391 H   0  0  0  0  0  0  0  0  0  0  0  0
  138.9850   75.3140  223.4210 H   0  0  0  0  0  0  0  0  0  0  0  0
  141.8545   76.7950  222.7533 H   0  0  0  0  0  0  0  0  0  0  0  0
  142.4515   79.2365  222.8776 H   0  0  0  0  0  0  0  0  0  0  0  0
  139.5947   81.5239  223.0730 H   0  0  0  0  0  0  0  0  0  0  0  0
  142.2945   81.1762  221.3337 H   0  0  0  0  0  0  0  0  0  0  0  0
  141.8671   82.6744  221.3620 H   0  0  0  0  0  0  0  0  0  0  0  0
  142.6837   80.8526  223.8604 H   0  0  0  0  0  0  0  0  0  0  0  0
  142.3245   82.2942  224.3298 H   0  0  0  0  0  0  0  0  0  0  0  0
  138.2429   80.1347  222.7868 H   0  0  0  0  0  0  0  0  0  0  0  0
  140.1508   73.2714  223.4865 H   0  0  0  0  0  0  0  0  0  0  0  0
  1  2  1  0
  2  3  2  0
  3  4  1  0
  4  5  2  0
  5  6  1  0
  6  7  2  0
  6  8  1  0
  8  9  1  0
  9 10  1  0
 10 11  2  0
 11 12  1  0
 12 13  2  0
 13 14  1  0
 14 15  1  0
 15 16  2  0
 15 17  1  0
 17 18  1  0
 18 19  2  0
 19 20  1  0
 20 21  2  0
 21 22  1  0
 22 23  1  0
 23 24  1  0
 21 25  1  0
 25 26  2  0
 14 27  2  0
  9 28  2  0
  7  2  1  0
 27 10  1  0
 28  5  1  0
 26 18  1  0
 24 22  1  0
  1 29  1  0
  1 30  1  0
  1 31  1  0
  3 32  1  0
  4 33  1  0
  7 34  1  0
  8 35  1  0
  8 36  1  0
 11 37  1  0
 12 38  1  0
 13 39  1  0
 17 40  1  0
 19 41  1  0
 20 42  1  0
 22 43  1  0
 23 44  1  0
 23 45  1  0
 24 46  1  0
 24 47  1  0
 25 48  1  0
 27 49  1  0
M  END
>  <smiles>  (49) 
Cc1ccc2c(c1)CC(c1cccc(C(=O)Nc3ccc(C4CC4)cn3)c1)=N2

>  <score_type>  (49) 
oracle

>  <origin>  (49) 
autodockgpu

>  <m_score__min__energy>  (49) 
-8.5800000000000001

>  <m_primary>  (49) 
energy

>  <rmsd>  (49) 
7.450624363126523

>  <m_score__min__rmsd>  (49) 
7.450624363126523

>  <meeko>  (49) 
{"free_energy": -8.56, "intermolecular_energy": -9.75, "internal_energy": -0.74, "cluster_size": 50, "cluster_id": 1, "rank_in_cluster": 4}

>  <energy>  (49) 
-8.34

>  <cluster_rmsd>  (49) 
1.54

>  <cluster>  (49) 
1

$$$$

     RDKit          3D

 49 53  0  0  0  0  0  0  0  0999 V2000
  140.9860   68.1320  229.0470 C   0  0  0  0  0  0  0  0  0  0  0  0
  140.5930   68.5290  227.6750 C   0  0  0  0  0  0  0  0  0  0  0  0
  139.7290   67.7040  226.9690 C   0  0  0  0  0  0  0  0  0  0  0  0
  139.3290   68.0070  225.7060 C   0  0  0  0  0  0  0  0  0  0  0  0
  139.7950   69.1650  225.1170 C   0  0  0  0  0  0  0  0  0  0  0  0
  140.6460   69.9800  225.8120 C   0  0  0  0  0  0  0  0  0  0  0  0
  141.0690   69.7020  227.0830 C   0  0  0  0  0  0  0  0  0  0  0  0
  140.9760   71.1330  224.9370 C   0  0  0  0  0  0  0  0  0  0  0  0
  140.2170   70.8500  223.7160 C   0  0  0  0  0  0  0  0  0  0  0  0
  140.1710   71.6610  222.5170 C   0  0  0  0  0  0  0  0  0  0  0  0
  140.1490   71.0670  221.2710 C   0  0  0  0  0  0  0  0  0  0  0  0
  140.1050   71.8700  220.1280 C   0  0  0  0  0  0  0  0  0  0  0  0
  140.0850   73.2520  220.2660 C   0  0  0  0  0  0  0  0  0  0  0  0
  140.1070   73.8500  221.5080 C   0  0  0  0  0  0  0  0  0  0  0  0
  140.0880   75.2950  221.7020 C   0  0  0  0  0  0  0  0  0  0  0  0
  138.9950   75.9240  221.8440 O   0  0  0  0  0  0  0  0  0  0  0  0
  141.2690   76.0890  221.7460 N   0  0  0  0  0  0  0  0  0  0  0  0
  141.2160   77.5160  221.9400 C   0  0  0  0  0  0  0  0  0  0  0  0
  141.5750   78.2750  220.8390 C   0  0  0  0  0  0  0  0  0  0  0  0
  141.5590   79.6590  220.9190 C   0  0  0  0  0  0  0  0  0  0  0  0
  141.1720   80.1980  222.1270 C   0  0  0  0  0  0  0  0  0  0  0  0
  141.1320   81.6800  222.2800 C   0  0  0  0  0  0  0  0  0  0  0  0
  140.0560   82.4650  221.5410 C   0  0  0  0  0  0  0  0  0  0  0  0
  141.4460   82.4890  221.0280 C   0  0  0  0  0  0  0  0  0  0  0  0
  140.8220   79.4040  223.1950 C   0  0  0  0  0  0  0  0  0  0  0  0
  140.8410   78.0610  223.1130 N   0  0  0  0  0  0  0  0  0  0  0  0
  140.1500   73.0380  222.6040 C   0  0  0  0  0  0  0  0  0  0  0  0
  139.5600   69.7330  223.8460 N   0  0  0  0  0  0  0  0  0  0  0  0
  140.4075   68.7164  229.7777 H   0  0  0  0  0  0  0  0  0  0  0  0
  140.7828   67.0606  229.1911 H   0  0  0  0  0  0  0  0  0  0  0  0
  142.0594   68.3243  229.1911 H   0  0  0  0  0  0  0  0  0  0  0  0
  139.3591   66.7828  227.4429 H   0  0  0  0  0  0  0  0  0  0  0  0
  138.6445   67.3398  225.1616 H   0  0  0  0  0  0  0  0  0  0  0  0
  141.7560   70.3746  227.6174 H   0  0  0  0  0  0  0  0  0  0  0  0
  140.6522   72.0803  225.3928 H   0  0  0  0  0  0  0  0  0  0  0  0
  142.0556   71.2463  224.7591 H   0  0  0  0  0  0  0  0  0  0  0  0
  140.1660   69.9710  221.1786 H   0  0  0  0  0  0  0  0  0  0  0  0
  140.0864   71.4118  219.1282 H   0  0  0  0  0  0  0  0  0  0  0  0
  140.0509   73.8826  219.3653 H   0  0  0  0  0  0  0  0  0  0  0  0
  142.2040   75.6410  221.6370 H   0  0  0  0  0  0  0  0  0  0  0  0
  141.8724   77.7807  219.9024 H   0  0  0  0  0  0  0  0  0  0  0  0
  141.8399   80.2925  220.0648 H   0  0  0  0  0  0  0  0  0  0  0  0
  141.4820   81.6415  223.3221 H   0  0  0  0  0  0  0  0  0  0  0  0
  139.2750   81.9297  220.9811 H   0  0  0  0  0  0  0  0  0  0  0  0
  139.3259   83.2353  221.8301 H   0  0  0  0  0  0  0  0  0  0  0  0
  141.6921   81.9714  220.0891 H   0  0  0  0  0  0  0  0  0  0  0  0
  142.1652   83.2842  220.7822 H   0  0  0  0  0  0  0  0  0  0  0  0
  140.5190   79.8792  224.1397 H   0  0  0  0  0  0  0  0  0  0  0  0
  140.1687   73.5019  223.6012 H   0  0  0  0  0  0  0  0  0  0  0  0
  1  2  1  0
  2  3  2  0
  3  4  1  0
  4  5  2  0
  5  6  1  0
  6  7  2  0
  6  8  1  0
  8  9  1  0
  9 10  1  0
 10 11  2  0
 11 12  1  0
 12 13  2  0
 13 14  1  0
 14 15  1  0
 15 16  2  0
 15 17  1  0
 17 18  1  0
 18 19  2  0
 19 20  1  0
 20 21  2  0
 21 22  1  0
 22 23  1  0
 23 24  1  0
 21 25  1  0
 25 26  2  0
 14 27  2  0
  9 28  2  0
  7  2  1  0
 27 10  1  0
 28  5  1  0
 26 18  1  0
 24 22  1  0
  1 29  1  0
  1 30  1  0
  1 31  1  0
  3 32  1  0
  4 33  1  0
  7 34  1  0
  8 35  1  0
  8 36  1  0
 11 37  1  0
 12 38  1  0
 13 39  1  0
 17 40  1  0
 19 41  1  0
 20 42  1  0
 22 43  1  0
 23 44  1  0
 23 45  1  0
 24 46  1  0
 24 47  1  0
 25 48  1  0
 27 49  1  0
M  END
>  <smiles>  (50) 
Cc1ccc2c(c1)CC(c1cccc(C(=O)Nc3ccc(C4CC4)cn3)c1)=N2

>  <score_type>  (50) 
oracle

>  <origin>  (50) 
autodockgpu

>  <m_score__min__energy>  (50) 
-8.5800000000000001

>  <m_primary>  (50) 
energy

>  <rmsd>  (50) 
7.162799151559798

>  <m_score__min__rmsd>  (50) 
7.162799151559798

>  <meeko>  (50) 
{"free_energy": -8.45, "intermolecular_energy": -9.65, "internal_energy": -0.74, "cluster_size": 50, "cluster_id": 1, "rank_in_cluster": 40}

>  <energy>  (50) 
-8.31

>  <cluster_rmsd>  (50) 
1.19

>  <cluster>  (50) 
1

$$$$
