
     RDKit          3D

 58 62  0  0  0  0  0  0  0  0999 V2000
  142.1030   73.0470  219.1350 O   0  0  0  0  0  0  0  0  0  0  0  0
  141.4110   73.3240  220.1520 C   0  0  0  0  0  0  0  0  0  0  0  0
  140.6330   72.2400  220.7880 C   0  0  0  0  0  0  0  0  0  0  0  0
  139.9060   72.8010  221.9470 C   0  0  0  0  0  0  0  0  0  0  0  0
  139.0430   71.8900  222.7320 C   0  0  0  0  0  0  0  0  0  0  0  0
  137.6720   72.0900  222.7440 C   0  0  0  0  0  0  0  0  0  0  0  0
  136.8650   71.2450  223.4770 C   0  0  0  0  0  0  0  0  0  0  0  0
  137.3920   70.2090  224.1960 C   0  0  0  0  0  0  0  0  0  0  0  0
  138.7680   69.9800  224.2050 C   0  0  0  0  0  0  0  0  0  0  0  0
  139.3560   68.9000  224.9610 C   0  0  0  0  0  0  0  0  0  0  0  0
  139.2260   67.6920  224.6190 O   0  0  0  0  0  0  0  0  0  0  0  0
  140.1070   69.2640  226.1360 N   0  0  0  0  0  0  0  0  0  0  0  0
  140.2560   70.6690  226.5310 C   0  0  0  0  0  0  0  0  0  0  0  0
  140.7530   70.6800  227.9520 C   0  0  0  0  0  0  0  0  0  0  0  0
  140.0740   69.6680  228.6420 O   0  0  0  0  0  0  0  0  0  0  0  0
  140.7350   68.4910  228.3980 C   0  0  0  0  0  0  0  0  0  0  0  0
  140.7200   68.2020  226.9300 C   0  0  0  0  0  0  0  0  0  0  0  0
  139.5470   70.8510  223.4550 C   0  0  0  0  0  0  0  0  0  0  0  0
  139.9430   74.0160  222.3380 N   0  0  0  0  0  0  0  0  0  0  0  0
  140.6890   75.0640  221.7370 C   0  0  0  0  0  0  0  0  0  0  0  0
  140.7030   76.3580  222.1870 C   0  0  0  0  0  0  0  0  0  0  0  0
  141.4520   77.3240  221.5480 C   0  0  0  0  0  0  0  0  0  0  0  0
  141.4950   78.6850  221.9950 N   0  0  0  0  0  0  0  0  0  0  0  0
  141.4420   79.0440  223.3980 C   0  0  0  0  0  0  0  0  0  0  0  0
  142.2360   80.3540  223.4990 C   0  0  0  0  0  0  0  0  0  0  0  0
  141.3530   81.4170  222.8650 C   0  0  0  0  0  0  0  0  0  0  0  0
  141.0320   81.0490  221.4570 C   0  0  0  0  0  0  0  0  0  0  0  0
  141.5830   79.7380  221.0020 C   0  0  0  0  0  0  0  0  0  0  0  0
  142.1820   76.9380  220.4460 C   0  0  0  0  0  0  0  0  0  0  0  0
  142.1990   75.6480  219.9550 C   0  0  0  0  0  0  0  0  0  0  0  0
  141.4420   74.6990  220.6130 C   0  0  0  0  0  0  0  0  0  0  0  0
  139.9150   71.8254  220.0651 H   0  0  0  0  0  0  0  0  0  0  0  0
  141.3076   71.4368  221.1194 H   0  0  0  0  0  0  0  0  0  0  0  0
  137.2293   72.9186  222.1718 H   0  0  0  0  0  0  0  0  0  0  0  0
  135.7772   71.4080  223.4830 H   0  0  0  0  0  0  0  0  0  0  0  0
  136.7256   69.5504  224.7723 H   0  0  0  0  0  0  0  0  0  0  0  0
  140.9816   71.1706  225.8738 H   0  0  0  0  0  0  0  0  0  0  0  0
  139.2976   71.2024  226.4477 H   0  0  0  0  0  0  0  0  0  0  0  0
  141.8359   70.4877  227.9729 H   0  0  0  0  0  0  0  0  0  0  0  0
  140.5697   71.6587  228.4196 H   0  0  0  0  0  0  0  0  0  0  0  0
  141.7758   68.5772  228.7435 H   0  0  0  0  0  0  0  0  0  0  0  0
  140.2348   67.6726  228.9366 H   0  0  0  0  0  0  0  0  0  0  0  0
  141.7576   68.0674  226.5905 H   0  0  0  0  0  0  0  0  0  0  0  0
  140.1138   67.2959  226.7835 H   0  0  0  0  0  0  0  0  0  0  0  0
  140.6355   70.6928  223.4439 H   0  0  0  0  0  0  0  0  0  0  0  0
  140.1080   76.6306  223.0711 H   0  0  0  0  0  0  0  0  0  0  0  0
  140.4012   79.1962  223.7198 H   0  0  0  0  0  0  0  0  0  0  0  0
  141.8575   78.2563  224.0437 H   0  0  0  0  0  0  0  0  0  0  0  0
  142.4379   80.6004  224.5518 H   0  0  0  0  0  0  0  0  0  0  0  0
  143.2102   80.2796  222.9936 H   0  0  0  0  0  0  0  0  0  0  0  0
  140.4190   81.5032  223.4397 H   0  0  0  0  0  0  0  0  0  0  0  0
  141.8886   82.3778  222.8710 H   0  0  0  0  0  0  0  0  0  0  0  0
  139.9373   81.0117  221.3560 H   0  0  0  0  0  0  0  0  0  0  0  0
  141.5053   81.8152  220.8254 H   0  0  0  0  0  0  0  0  0  0  0  0
  141.0248   79.4192  220.1093 H   0  0  0  0  0  0  0  0  0  0  0  0
  142.6525   79.8954  220.7988 H   0  0  0  0  0  0  0  0  0  0  0  0
  142.7845   77.6992  219.9287 H   0  0  0  0  0  0  0  0  0  0  0  0
  142.7957   75.3848  219.0691 H   0  0  0  0  0  0  0  0  0  0  0  0
  1  2  2  0
  2  3  1  0
  3  4  1  0
  4  5  1  0
  5  6  2  0
  6  7  1  0
  7  8  2  0
  8  9  1  0
  9 10  1  0
 10 11  2  0
 10 12  1  0
 12 13  1  0
 13 14  1  0
 14 15  1  0
 15 16  1  0
 16 17  1  0
  9 18  2  0
  4 19  2  0
 19 20  1  0
 20 21  2  0
 21 22  1  0
 22 23  1  0
 23 24  1  0
 24 25  1  0
 25 26  1  0
 26 27  1  0
 27 28  1  0
 22 29  2  0
 29 30  1  0
 30 31  2  0
 31  2  1  0
 18  5  1  0
 31 20  1  0
 17 12  1  0
 28 23  1  0
  3 32  1  0
  3 33  1  0
  6 34  1  0
  7 35  1  0
  8 36  1  0
 13 37  1  0
 13 38  1  0
 14 39  1  0
 14 40  1  0
 16 41  1  0
 16 42  1  0
 17 43  1  0
 17 44  1  0
 18 45  1  0
 21 46  1  0
 24 47  1  0
 24 48  1  0
 25 49  1  0
 25 50  1  0
 26 51  1  0
 26 52  1  0
 27 53  1  0
 27 54  1  0
 28 55  1  0
 28 56  1  0
 29 57  1  0
 30 58  1  0
M  END
>  <smiles>  (1) 
O=C1CC(c2cccc(C(=O)N3CCOCC3)c2)=Nc2cc(N3CCCCC3)ccc21

>  <score_type>  (1) 
oracle

>  <origin>  (1) 
autodockgpu

>  <m_score__min__energy>  (1) 
-9.7400000000000002

>  <m_primary>  (1) 
energy

>  <rmsd>  (1) 
6.574411662623752

>  <m_score__min__rmsd>  (1) 
6.574411662623752

>  <meeko>  (1) 
{"free_energy": -9.69, "intermolecular_energy": -10.58, "internal_energy": -0.97, "cluster_size": 48, "cluster_id": 1, "rank_in_cluster": 45}

>  <energy>  (1) 
-9.74

>  <cluster_rmsd>  (1) 
0.0

>  <cluster>  (1) 
1

$$$$

     RDKit          3D

 58 62  0  0  0  0  0  0  0  0999 V2000
  142.0150   73.2690  218.9350 O   0  0  0  0  0  0  0  0  0  0  0  0
  141.3450   73.4860  219.9800 C   0  0  0  0  0  0  0  0  0  0  0  0
  140.5800   72.3660  220.5680 C   0  0  0  0  0  0  0  0  0  0  0  0
  139.8770   72.8560  221.7720 C   0  0  0  0  0  0  0  0  0  0  0  0
  139.0310   71.9000  222.5200 C   0  0  0  0  0  0  0  0  0  0  0  0
  137.6560   71.9350  222.3600 C   0  0  0  0  0  0  0  0  0  0  0  0
  136.8640   71.0470  223.0580 C   0  0  0  0  0  0  0  0  0  0  0  0
  137.4100   70.1290  223.9100 C   0  0  0  0  0  0  0  0  0  0  0  0
  138.7910   70.0670  224.0930 C   0  0  0  0  0  0  0  0  0  0  0  0
  139.3980   69.1140  224.9920 C   0  0  0  0  0  0  0  0  0  0  0  0
  139.2130   67.8700  224.8790 O   0  0  0  0  0  0  0  0  0  0  0  0
  140.2370   69.6480  226.0350 N   0  0  0  0  0  0  0  0  0  0  0  0
  140.4520   71.0940  226.1640 C   0  0  0  0  0  0  0  0  0  0  0  0
  141.0430   71.3340  227.5270 C   0  0  0  0  0  0  0  0  0  0  0  0
  140.3850   70.4870  228.4260 O   0  0  0  0  0  0  0  0  0  0  0  0
  140.9940   69.2600  228.3550 C   0  0  0  0  0  0  0  0  0  0  0  0
  140.8730   68.7190  226.9660 C   0  0  0  0  0  0  0  0  0  0  0  0
  139.5550   70.9750  223.3730 C   0  0  0  0  0  0  0  0  0  0  0  0
  139.9230   74.0470  222.2330 N   0  0  0  0  0  0  0  0  0  0  0  0
  140.6560   75.1280  221.6790 C   0  0  0  0  0  0  0  0  0  0  0  0
  140.6790   76.3940  222.2040 C   0  0  0  0  0  0  0  0  0  0  0  0
  141.4140   77.3970  221.6070 C   0  0  0  0  0  0  0  0  0  0  0  0
  141.4670   78.7300  222.1330 N   0  0  0  0  0  0  0  0  0  0  0  0
  141.1960   79.8960  221.3180 C   0  0  0  0  0  0  0  0  0  0  0  0
  140.6200   80.9320  222.2940 C   0  0  0  0  0  0  0  0  0  0  0  0
  141.7960   81.3980  223.1370 C   0  0  0  0  0  0  0  0  0  0  0  0
  142.4230   80.2400  223.8350 C   0  0  0  0  0  0  0  0  0  0  0  0
  141.8150   78.9110  223.5280 C   0  0  0  0  0  0  0  0  0  0  0  0
  142.1210   77.0780  220.4690 C   0  0  0  0  0  0  0  0  0  0  0  0
  142.1290   75.8180  219.9030 C   0  0  0  0  0  0  0  0  0  0  0  0
  141.3850   74.8320  220.5200 C   0  0  0  0  0  0  0  0  0  0  0  0
  139.8473   71.9935  219.8369 H   0  0  0  0  0  0  0  0  0  0  0  0
  141.2618   71.5463  220.8384 H   0  0  0  0  0  0  0  0  0  0  0  0
  137.1974   72.6675  221.6795 H   0  0  0  0  0  0  0  0  0  0  0  0
  135.7724   71.0786  222.9262 H   0  0  0  0  0  0  0  0  0  0  0  0
  136.7553   69.4336  224.4557 H   0  0  0  0  0  0  0  0  0  0  0  0
  141.1458   71.4432  225.3851 H   0  0  0  0  0  0  0  0  0  0  0  0
  139.5059   71.6424  226.0456 H   0  0  0  0  0  0  0  0  0  0  0  0
  142.1191   71.1060  227.5152 H   0  0  0  0  0  0  0  0  0  0  0  0
  140.9182   72.3859  227.8236 H   0  0  0  0  0  0  0  0  0  0  0  0
  142.0575   69.3636  228.6161 H   0  0  0  0  0  0  0  0  0  0  0  0
  140.5073   68.5695  229.0595 H   0  0  0  0  0  0  0  0  0  0  0  0
  141.8815   68.4872  226.5930 H   0  0  0  0  0  0  0  0  0  0  0  0
  140.2342   67.8251  227.0201 H   0  0  0  0  0  0  0  0  0  0  0  0
  140.6475   70.9464  223.4981 H   0  0  0  0  0  0  0  0  0  0  0  0
  140.1027   76.6134  223.1149 H   0  0  0  0  0  0  0  0  0  0  0  0
  142.1221   80.2705  220.8575 H   0  0  0  0  0  0  0  0  0  0  0  0
  140.5038   79.6736  220.4925 H   0  0  0  0  0  0  0  0  0  0  0  0
  140.1838   81.7780  221.7426 H   0  0  0  0  0  0  0  0  0  0  0  0
  139.8185   80.5048  222.9146 H   0  0  0  0  0  0  0  0  0  0  0  0
  142.5422   81.8766  222.4858 H   0  0  0  0  0  0  0  0  0  0  0  0
  141.4355   82.1162  223.8882 H   0  0  0  0  0  0  0  0  0  0  0  0
  143.4845   80.2035  223.5488 H   0  0  0  0  0  0  0  0  0  0  0  0
  142.2651   80.4082  224.9105 H   0  0  0  0  0  0  0  0  0  0  0  0
  142.5347   78.1281  223.8093 H   0  0  0  0  0  0  0  0  0  0  0  0
  140.8776   78.8501  224.1003 H   0  0  0  0  0  0  0  0  0  0  0  0
  142.7114   77.8696  219.9844 H   0  0  0  0  0  0  0  0  0  0  0  0
  142.7083   75.6073  218.9919 H   0  0  0  0  0  0  0  0  0  0  0  0
  1  2  2  0
  2  3  1  0
  3  4  1  0
  4  5  1  0
  5  6  2  0
  6  7  1  0
  7  8  2  0
  8  9  1  0
  9 10  1  0
 10 11  2  0
 10 12  1  0
 12 13  1  0
 13 14  1  0
 14 15  1  0
 15 16  1  0
 16 17  1  0
  9 18  2  0
  4 19  2  0
 19 20  1  0
 20 21  2  0
 21 22  1  0
 22 23  1  0
 23 24  1  0
 24 25  1  0
 25 26  1  0
 26 27  1  0
 27 28  1  0
 22 29  2  0
 29 30  1  0
 30 31  2  0
 31  2  1  0
 18  5  1  0
 31 20  1  0
 17 12  1  0
 28 23  1  0
  3 32  1  0
  3 33  1  0
  6 34  1  0
  7 35  1  0
  8 36  1  0
 13 37  1  0
 13 38  1  0
 14 39  1  0
 14 40  1  0
 16 41  1  0
 16 42  1  0
 17 43  1  0
 17 44  1  0
 18 45  1  0
 21 46  1  0
 24 47  1  0
 24 48  1  0
 25 49  1  0
 25 50  1  0
 26 51  1  0
 26 52  1  0
 27 53  1  0
 27 54  1  0
 28 55  1  0
 28 56  1  0
 29 57  1  0
 30 58  1  0
M  END
>  <smiles>  (2) 
O=C1CC(c2cccc(C(=O)N3CCOCC3)c2)=Nc2cc(N3CCCCC3)ccc21

>  <score_type>  (2) 
oracle

>  <origin>  (2) 
autodockgpu

>  <m_score__min__energy>  (2) 
-9.7400000000000002

>  <m_primary>  (2) 
energy

>  <rmsd>  (2) 
6.81562579045867

>  <m_score__min__rmsd>  (2) 
6.81562579045867

>  <meeko>  (2) 
{"free_energy": -9.62, "intermolecular_energy": -10.52, "internal_energy": -0.84, "cluster_size": 48, "cluster_id": 1, "rank_in_cluster": 47}

>  <energy>  (2) 
-9.74

>  <cluster_rmsd>  (2) 
0.09

>  <cluster>  (2) 
1

$$$$

     RDKit          3D

 58 62  0  0  0  0  0  0  0  0999 V2000
  142.1280   73.0340  219.1600 O   0  0  0  0  0  0  0  0  0  0  0  0
  141.4270   73.3160  220.1690 C   0  0  0  0  0  0  0  0  0  0  0  0
  140.6440   72.2350  220.8040 C   0  0  0  0  0  0  0  0  0  0  0  0
  139.9050   72.8010  221.9520 C   0  0  0  0  0  0  0  0  0  0  0  0
  139.0360   71.8940  222.7350 C   0  0  0  0  0  0  0  0  0  0  0  0
  137.6660   72.0960  222.7390 C   0  0  0  0  0  0  0  0  0  0  0  0
  136.8530   71.2540  223.4690 C   0  0  0  0  0  0  0  0  0  0  0  0
  137.3740   70.2200  224.1940 C   0  0  0  0  0  0  0  0  0  0  0  0
  138.7490   69.9880  224.2110 C   0  0  0  0  0  0  0  0  0  0  0  0
  139.3310   68.9090  224.9730 C   0  0  0  0  0  0  0  0  0  0  0  0
  139.1960   67.7000  224.6370 O   0  0  0  0  0  0  0  0  0  0  0  0
  140.0820   69.2750  226.1480 N   0  0  0  0  0  0  0  0  0  0  0  0
  140.2370   70.6820  226.5370 C   0  0  0  0  0  0  0  0  0  0  0  0
  140.7310   70.6970  227.9580 C   0  0  0  0  0  0  0  0  0  0  0  0
  140.0460   69.6920  228.6520 O   0  0  0  0  0  0  0  0  0  0  0  0
  140.7020   68.5100  228.4150 C   0  0  0  0  0  0  0  0  0  0  0  0
  140.6890   68.2140  226.9480 C   0  0  0  0  0  0  0  0  0  0  0  0
  139.5340   70.8560  223.4630 C   0  0  0  0  0  0  0  0  0  0  0  0
  139.9380   74.0190  222.3370 N   0  0  0  0  0  0  0  0  0  0  0  0
  140.6880   75.0640  221.7370 C   0  0  0  0  0  0  0  0  0  0  0  0
  140.6960   76.3610  222.1790 C   0  0  0  0  0  0  0  0  0  0  0  0
  141.4490   77.3240  221.5420 C   0  0  0  0  0  0  0  0  0  0  0  0
  141.4860   78.6880  221.9820 N   0  0  0  0  0  0  0  0  0  0  0  0
  141.4360   79.8030  221.0580 C   0  0  0  0  0  0  0  0  0  0  0  0
  140.7580   80.9330  221.8440 C   0  0  0  0  0  0  0  0  0  0  0  0
  141.7900   81.4050  222.8560 C   0  0  0  0  0  0  0  0  0  0  0  0
  142.2110   80.2730  223.7300 C   0  0  0  0  0  0  0  0  0  0  0  0
  141.5900   78.9540  223.4030 C   0  0  0  0  0  0  0  0  0  0  0  0
  142.1900   76.9330  220.4490 C   0  0  0  0  0  0  0  0  0  0  0  0
  142.2140   75.6390  219.9660 C   0  0  0  0  0  0  0  0  0  0  0  0
  141.4520   74.6940  220.6220 C   0  0  0  0  0  0  0  0  0  0  0  0
  139.9337   71.8152  220.0765 H   0  0  0  0  0  0  0  0  0  0  0  0
  141.3166   71.4350  221.1471 H   0  0  0  0  0  0  0  0  0  0  0  0
  137.2280   72.9242  222.1626 H   0  0  0  0  0  0  0  0  0  0  0  0
  135.7653   71.4181  223.4673 H   0  0  0  0  0  0  0  0  0  0  0  0
  136.7032   69.5649  224.7692 H   0  0  0  0  0  0  0  0  0  0  0  0
  140.9662   71.1772  225.8789 H   0  0  0  0  0  0  0  0  0  0  0  0
  139.2814   71.2197  226.4493 H   0  0  0  0  0  0  0  0  0  0  0  0
  141.8128   70.4994  227.9817 H   0  0  0  0  0  0  0  0  0  0  0  0
  140.5514   71.6788  228.4204 H   0  0  0  0  0  0  0  0  0  0  0  0
  141.7424   68.5926  228.7626 H   0  0  0  0  0  0  0  0  0  0  0  0
  140.1964   67.6967  228.9563 H   0  0  0  0  0  0  0  0  0  0  0  0
  141.7267   68.0736  226.6113 H   0  0  0  0  0  0  0  0  0  0  0  0
  140.0796   67.3096  226.8043 H   0  0  0  0  0  0  0  0  0  0  0  0
  140.6222   70.6957  223.4582 H   0  0  0  0  0  0  0  0  0  0  0  0
  140.0922   76.6380  223.0557 H   0  0  0  0  0  0  0  0  0  0  0  0
  142.4504   80.0984  220.7518 H   0  0  0  0  0  0  0  0  0  0  0  0
  140.8911   79.5538  220.1355 H   0  0  0  0  0  0  0  0  0  0  0  0
  140.4780   81.7554  221.1693 H   0  0  0  0  0  0  0  0  0  0  0  0
  139.8349   80.5902  222.3343 H   0  0  0  0  0  0  0  0  0  0  0  0
  142.6681   81.7981  222.3228 H   0  0  0  0  0  0  0  0  0  0  0  0
  141.3450   82.1936  223.4805 H   0  0  0  0  0  0  0  0  0  0  0  0
  143.3025   80.1657  223.6463 H   0  0  0  0  0  0  0  0  0  0  0  0
  141.8720   80.5276  224.7450 H   0  0  0  0  0  0  0  0  0  0  0  0
  142.2008   78.1613  223.8596 H   0  0  0  0  0  0  0  0  0  0  0  0
  140.5638   78.9784  223.7984 H   0  0  0  0  0  0  0  0  0  0  0  0
  142.7956   77.6923  219.9326 H   0  0  0  0  0  0  0  0  0  0  0  0
  142.8201   75.3710  219.0881 H   0  0  0  0  0  0  0  0  0  0  0  0
  1  2  2  0
  2  3  1  0
  3  4  1  0
  4  5  1  0
  5  6  2  0
  6  7  1  0
  7  8  2  0
  8  9  1  0
  9 10  1  0
 10 11  2  0
 10 12  1  0
 12 13  1  0
 13 14  1  0
 14 15  1  0
 15 16  1  0
 16 17  1  0
  9 18  2  0
  4 19  2  0
 19 20  1  0
 20 21  2  0
 21 22  1  0
 22 23  1  0
 23 24  1  0
 24 25  1  0
 25 26  1  0
 26 27  1  0
 27 28  1  0
 22 29  2  0
 29 30  1  0
 30 31  2  0
 31  2  1  0
 18  5  1  0
 31 20  1  0
 17 12  1  0
 28 23  1  0
  3 32  1  0
  3 33  1  0
  6 34  1  0
  7 35  1  0
  8 36  1  0
 13 37  1  0
 13 38  1  0
 14 39  1  0
 14 40  1  0
 16 41  1  0
 16 42  1  0
 17 43  1  0
 17 44  1  0
 18 45  1  0
 21 46  1  0
 24 47  1  0
 24 48  1  0
 25 49  1  0
 25 50  1  0
 26 51  1  0
 26 52  1  0
 27 53  1  0
 27 54  1  0
 28 55  1  0
 28 56  1  0
 29 57  1  0
 30 58  1  0
M  END
>  <smiles>  (3) 
O=C1CC(c2cccc(C(=O)N3CCOCC3)c2)=Nc2cc(N3CCCCC3)ccc21

>  <score_type>  (3) 
oracle

>  <origin>  (3) 
autodockgpu

>  <m_score__min__energy>  (3) 
-9.7400000000000002

>  <m_primary>  (3) 
energy

>  <rmsd>  (3) 
6.80627267328526

>  <m_score__min__rmsd>  (3) 
6.80627267328526

>  <meeko>  (3) 
{"free_energy": -9.74, "intermolecular_energy": -10.63, "internal_energy": -0.97, "cluster_size": 48, "cluster_id": 1, "rank_in_cluster": 7}

>  <energy>  (3) 
-9.74

>  <cluster_rmsd>  (3) 
0.02

>  <cluster>  (3) 
1

$$$$

     RDKit          3D

 58 62  0  0  0  0  0  0  0  0999 V2000
  142.1540   73.0560  219.1710 O   0  0  0  0  0  0  0  0  0  0  0  0
  141.4470   73.3380  220.1760 C   0  0  0  0  0  0  0  0  0  0  0  0
  140.6640   72.2560  220.8090 C   0  0  0  0  0  0  0  0  0  0  0  0
  139.9180   72.8210  221.9530 C   0  0  0  0  0  0  0  0  0  0  0  0
  139.0470   71.9130  222.7320 C   0  0  0  0  0  0  0  0  0  0  0  0
  137.6760   72.1120  222.7300 C   0  0  0  0  0  0  0  0  0  0  0  0
  136.8620   71.2690  223.4570 C   0  0  0  0  0  0  0  0  0  0  0  0
  137.3820   70.2360  224.1840 C   0  0  0  0  0  0  0  0  0  0  0  0
  138.7570   70.0070  224.2080 C   0  0  0  0  0  0  0  0  0  0  0  0
  139.3380   68.9300  224.9730 C   0  0  0  0  0  0  0  0  0  0  0  0
  139.1990   67.7190  224.6430 O   0  0  0  0  0  0  0  0  0  0  0  0
  140.0930   69.2980  226.1450 N   0  0  0  0  0  0  0  0  0  0  0  0
  140.2530   70.7060  226.5270 C   0  0  0  0  0  0  0  0  0  0  0  0
  140.7500   70.7260  227.9470 C   0  0  0  0  0  0  0  0  0  0  0  0
  140.0650   69.7260  228.6470 O   0  0  0  0  0  0  0  0  0  0  0  0
  140.7160   68.5410  228.4130 C   0  0  0  0  0  0  0  0  0  0  0  0
  140.6990   68.2390  226.9480 C   0  0  0  0  0  0  0  0  0  0  0  0
  139.5440   70.8760  223.4630 C   0  0  0  0  0  0  0  0  0  0  0  0
  139.9460   74.0390  222.3370 N   0  0  0  0  0  0  0  0  0  0  0  0
  140.6960   75.0850  221.7390 C   0  0  0  0  0  0  0  0  0  0  0  0
  140.6990   76.3830  222.1800 C   0  0  0  0  0  0  0  0  0  0  0  0
  141.4530   77.3470  221.5460 C   0  0  0  0  0  0  0  0  0  0  0  0
  141.4850   78.7110  221.9840 N   0  0  0  0  0  0  0  0  0  0  0  0
  141.2060   79.8200  221.0940 C   0  0  0  0  0  0  0  0  0  0  0  0
  140.6100   80.9080  221.9970 C   0  0  0  0  0  0  0  0  0  0  0  0
  141.7740   81.4430  222.8160 C   0  0  0  0  0  0  0  0  0  0  0  0
  142.4100   80.3410  223.5910 C   0  0  0  0  0  0  0  0  0  0  0  0
  141.8210   78.9860  223.3670 C   0  0  0  0  0  0  0  0  0  0  0  0
  142.2000   76.9570  220.4560 C   0  0  0  0  0  0  0  0  0  0  0  0
  142.2290   75.6630  219.9740 C   0  0  0  0  0  0  0  0  0  0  0  0
  141.4660   74.7160  220.6280 C   0  0  0  0  0  0  0  0  0  0  0  0
  139.9582   71.8333  220.0788 H   0  0  0  0  0  0  0  0  0  0  0  0
  141.3374   71.4586  221.1564 H   0  0  0  0  0  0  0  0  0  0  0  0
  137.2386   72.9388  222.1511 H   0  0  0  0  0  0  0  0  0  0  0  0
  135.7741   71.4314  223.4514 H   0  0  0  0  0  0  0  0  0  0  0  0
  136.7099   69.5790  224.7556 H   0  0  0  0  0  0  0  0  0  0  0  0
  140.9824   71.1959  225.8651 H   0  0  0  0  0  0  0  0  0  0  0  0
  139.2989   71.2462  226.4387 H   0  0  0  0  0  0  0  0  0  0  0  0
  141.8315   70.5263  227.9692 H   0  0  0  0  0  0  0  0  0  0  0  0
  140.5731   71.7102  228.4054 H   0  0  0  0  0  0  0  0  0  0  0  0
  141.7574   68.6212  228.7580 H   0  0  0  0  0  0  0  0  0  0  0  0
  140.2083   67.7318  228.9584 H   0  0  0  0  0  0  0  0  0  0  0  0
  141.7356   68.0945  226.6096 H   0  0  0  0  0  0  0  0  0  0  0  0
  140.0870   67.3355  226.8095 H   0  0  0  0  0  0  0  0  0  0  0  0
  140.6326   70.7177  223.4632 H   0  0  0  0  0  0  0  0  0  0  0  0
  140.0902   76.6595  223.0534 H   0  0  0  0  0  0  0  0  0  0  0  0
  142.1311   80.1762  220.6172 H   0  0  0  0  0  0  0  0  0  0  0  0
  140.5230   79.5367  220.2796 H   0  0  0  0  0  0  0  0  0  0  0  0
  140.1669   81.7109  221.3895 H   0  0  0  0  0  0  0  0  0  0  0  0
  139.8096   80.5109  222.6386 H   0  0  0  0  0  0  0  0  0  0  0  0
  142.5189   81.8883  222.1402 H   0  0  0  0  0  0  0  0  0  0  0  0
  141.3991   82.2035  223.5168 H   0  0  0  0  0  0  0  0  0  0  0  0
  143.4739   80.3000  223.3145 H   0  0  0  0  0  0  0  0  0  0  0  0
  142.2417   80.5764  224.6523 H   0  0  0  0  0  0  0  0  0  0  0  0
  142.5488   78.2326  223.7026 H   0  0  0  0  0  0  0  0  0  0  0  0
  140.8806   78.9494  223.9365 H   0  0  0  0  0  0  0  0  0  0  0  0
  142.8061   77.7174  219.9418 H   0  0  0  0  0  0  0  0  0  0  0  0
  142.8393   75.3958  219.0987 H   0  0  0  0  0  0  0  0  0  0  0  0
  1  2  2  0
  2  3  1  0
  3  4  1  0
  4  5  1  0
  5  6  2  0
  6  7  1  0
  7  8  2  0
  8  9  1  0
  9 10  1  0
 10 11  2  0
 10 12  1  0
 12 13  1  0
 13 14  1  0
 14 15  1  0
 15 16  1  0
 16 17  1  0
  9 18  2  0
  4 19  2  0
 19 20  1  0
 20 21  2  0
 21 22  1  0
 22 23  1  0
 23 24  1  0
 24 25  1  0
 25 26  1  0
 26 27  1  0
 27 28  1  0
 22 29  2  0
 29 30  1  0
 30 31  2  0
 31  2  1  0
 18  5  1  0
 31 20  1  0
 17 12  1  0
 28 23  1  0
  3 32  1  0
  3 33  1  0
  6 34  1  0
  7 35  1  0
  8 36  1  0
 13 37  1  0
 13 38  1  0
 14 39  1  0
 14 40  1  0
 16 41  1  0
 16 42  1  0
 17 43  1  0
 17 44  1  0
 18 45  1  0
 21 46  1  0
 24 47  1  0
 24 48  1  0
 25 49  1  0
 25 50  1  0
 26 51  1  0
 26 52  1  0
 27 53  1  0
 27 54  1  0
 28 55  1  0
 28 56  1  0
 29 57  1  0
 30 58  1  0
M  END
>  <smiles>  (4) 
O=C1CC(c2cccc(C(=O)N3CCOCC3)c2)=Nc2cc(N3CCCCC3)ccc21

>  <score_type>  (4) 
oracle

>  <origin>  (4) 
autodockgpu

>  <m_score__min__energy>  (4) 
-9.7400000000000002

>  <m_primary>  (4) 
energy

>  <rmsd>  (4) 
6.8049370888748175

>  <m_score__min__rmsd>  (4) 
6.8049370888748175

>  <meeko>  (4) 
{"free_energy": -9.74, "intermolecular_energy": -10.63, "internal_energy": -0.97, "cluster_size": 48, "cluster_id": 1, "rank_in_cluster": 15}

>  <energy>  (4) 
-9.74

>  <cluster_rmsd>  (4) 
0.01

>  <cluster>  (4) 
1

$$$$

     RDKit          3D

 58 62  0  0  0  0  0  0  0  0999 V2000
  142.1180   73.0410  219.1610 O   0  0  0  0  0  0  0  0  0  0  0  0
  141.4160   73.3220  220.1700 C   0  0  0  0  0  0  0  0  0  0  0  0
  140.6360   72.2390  220.8050 C   0  0  0  0  0  0  0  0  0  0  0  0
  139.8970   72.8040  221.9540 C   0  0  0  0  0  0  0  0  0  0  0  0
  139.0300   71.8950  222.7370 C   0  0  0  0  0  0  0  0  0  0  0  0
  137.6590   72.0930  222.7390 C   0  0  0  0  0  0  0  0  0  0  0  0
  136.8480   71.2490  223.4690 C   0  0  0  0  0  0  0  0  0  0  0  0
  137.3710   70.2170  224.1960 C   0  0  0  0  0  0  0  0  0  0  0  0
  138.7470   69.9900  224.2150 C   0  0  0  0  0  0  0  0  0  0  0  0
  139.3310   68.9140  224.9790 C   0  0  0  0  0  0  0  0  0  0  0  0
  139.1980   67.7030  224.6470 O   0  0  0  0  0  0  0  0  0  0  0  0
  140.0850   69.2840  226.1510 N   0  0  0  0  0  0  0  0  0  0  0  0
  140.2390   70.6920  226.5350 C   0  0  0  0  0  0  0  0  0  0  0  0
  140.7360   70.7110  227.9560 C   0  0  0  0  0  0  0  0  0  0  0  0
  140.0540   69.7080  228.6540 O   0  0  0  0  0  0  0  0  0  0  0  0
  140.7110   68.5260  228.4190 C   0  0  0  0  0  0  0  0  0  0  0  0
  140.6950   68.2260  226.9530 C   0  0  0  0  0  0  0  0  0  0  0  0
  139.5310   70.8590  223.4670 C   0  0  0  0  0  0  0  0  0  0  0  0
  139.9270   74.0210  222.3400 N   0  0  0  0  0  0  0  0  0  0  0  0
  140.6750   75.0680  221.7390 C   0  0  0  0  0  0  0  0  0  0  0  0
  140.6810   76.3650  222.1820 C   0  0  0  0  0  0  0  0  0  0  0  0
  141.4330   77.3300  221.5450 C   0  0  0  0  0  0  0  0  0  0  0  0
  141.4680   78.6930  221.9850 N   0  0  0  0  0  0  0  0  0  0  0  0
  141.4220   79.8080  221.0620 C   0  0  0  0  0  0  0  0  0  0  0  0
  140.7400   80.9390  221.8450 C   0  0  0  0  0  0  0  0  0  0  0  0
  141.7670   81.4100  222.8620 C   0  0  0  0  0  0  0  0  0  0  0  0
  142.1840   80.2780  223.7370 C   0  0  0  0  0  0  0  0  0  0  0  0
  141.5640   78.9590  223.4070 C   0  0  0  0  0  0  0  0  0  0  0  0
  142.1730   76.9400  220.4510 C   0  0  0  0  0  0  0  0  0  0  0  0
  142.1990   75.6470  219.9670 C   0  0  0  0  0  0  0  0  0  0  0  0
  141.4390   74.7000  220.6230 C   0  0  0  0  0  0  0  0  0  0  0  0
  139.9259   71.8180  220.0780 H   0  0  0  0  0  0  0  0  0  0  0  0
  141.3102   71.4399  221.1469 H   0  0  0  0  0  0  0  0  0  0  0  0
  137.2191   72.9193  222.1613 H   0  0  0  0  0  0  0  0  0  0  0  0
  135.7598   71.4098  223.4658 H   0  0  0  0  0  0  0  0  0  0  0  0
  136.7016   69.5601  224.7708 H   0  0  0  0  0  0  0  0  0  0  0  0
  140.9664   71.1860  225.8741 H   0  0  0  0  0  0  0  0  0  0  0  0
  139.2829   71.2288  226.4472 H   0  0  0  0  0  0  0  0  0  0  0  0
  141.8181   70.5144  227.9780 H   0  0  0  0  0  0  0  0  0  0  0  0
  140.5561   71.6938  228.4161 H   0  0  0  0  0  0  0  0  0  0  0  0
  141.7520   68.6109  228.7640 H   0  0  0  0  0  0  0  0  0  0  0  0
  140.2078   67.7136  228.9638 H   0  0  0  0  0  0  0  0  0  0  0  0
  141.7322   68.0858  226.6144 H   0  0  0  0  0  0  0  0  0  0  0  0
  140.0861   67.3206  226.8134 H   0  0  0  0  0  0  0  0  0  0  0  0
  140.6197   70.7018  223.4637 H   0  0  0  0  0  0  0  0  0  0  0  0
  140.0769   76.6406  223.0590 H   0  0  0  0  0  0  0  0  0  0  0  0
  142.4378   80.1034  220.7606 H   0  0  0  0  0  0  0  0  0  0  0  0
  140.8809   79.5589  220.1373 H   0  0  0  0  0  0  0  0  0  0  0  0
  140.4640   81.7617  221.1690 H   0  0  0  0  0  0  0  0  0  0  0  0
  139.8141   80.5968  222.3304 H   0  0  0  0  0  0  0  0  0  0  0  0
  142.6476   81.8035  222.3331 H   0  0  0  0  0  0  0  0  0  0  0  0
  141.3188   82.1980  223.4850 H   0  0  0  0  0  0  0  0  0  0  0  0
  143.2759   80.1705  223.6577 H   0  0  0  0  0  0  0  0  0  0  0  0
  141.8409   80.5323  224.7507 H   0  0  0  0  0  0  0  0  0  0  0  0
  142.1718   78.1660  223.8672 H   0  0  0  0  0  0  0  0  0  0  0  0
  140.5357   78.9837  223.7968 H   0  0  0  0  0  0  0  0  0  0  0  0
  142.7767   77.7005  219.9342 H   0  0  0  0  0  0  0  0  0  0  0  0
  142.8049   75.3808  219.0884 H   0  0  0  0  0  0  0  0  0  0  0  0
  1  2  2  0
  2  3  1  0
  3  4  1  0
  4  5  1  0
  5  6  2  0
  6  7  1  0
  7  8  2  0
  8  9  1  0
  9 10  1  0
 10 11  2  0
 10 12  1  0
 12 13  1  0
 13 14  1  0
 14 15  1  0
 15 16  1  0
 16 17  1  0
  9 18  2  0
  4 19  2  0
 19 20  1  0
 20 21  2  0
 21 22  1  0
 22 23  1  0
 23 24  1  0
 24 25  1  0
 25 26  1  0
 26 27  1  0
 27 28  1  0
 22 29  2  0
 29 30  1  0
 30 31  2  0
 31  2  1  0
 18  5  1  0
 31 20  1  0
 17 12  1  0
 28 23  1  0
  3 32  1  0
  3 33  1  0
  6 34  1  0
  7 35  1  0
  8 36  1  0
 13 37  1  0
 13 38  1  0
 14 39  1  0
 14 40  1  0
 16 41  1  0
 16 42  1  0
 17 43  1  0
 17 44  1  0
 18 45  1  0
 21 46  1  0
 24 47  1  0
 24 48  1  0
 25 49  1  0
 25 50  1  0
 26 51  1  0
 26 52  1  0
 27 53  1  0
 27 54  1  0
 28 55  1  0
 28 56  1  0
 29 57  1  0
 30 58  1  0
M  END
>  <smiles>  (5) 
O=C1CC(c2cccc(C(=O)N3CCOCC3)c2)=Nc2cc(N3CCCCC3)ccc21

>  <score_type>  (5) 
oracle

>  <origin>  (5) 
autodockgpu

>  <m_score__min__energy>  (5) 
-9.7400000000000002

>  <m_primary>  (5) 
energy

>  <rmsd>  (5) 
6.803975487129003

>  <m_score__min__rmsd>  (5) 
6.803975487129003

>  <meeko>  (5) 
{"free_energy": -9.73, "intermolecular_energy": -10.63, "internal_energy": -0.97, "cluster_size": 48, "cluster_id": 1, "rank_in_cluster": 19}

>  <energy>  (5) 
-9.74

>  <cluster_rmsd>  (5) 
0.03

>  <cluster>  (5) 
1

$$$$

     RDKit          3D

 58 62  0  0  0  0  0  0  0  0999 V2000
  142.0420   73.0480  219.1130 O   0  0  0  0  0  0  0  0  0  0  0  0
  141.3630   73.3210  220.1390 C   0  0  0  0  0  0  0  0  0  0  0  0
  140.5860   72.2370  220.7760 C   0  0  0  0  0  0  0  0  0  0  0  0
  139.8740   72.7920  221.9450 C   0  0  0  0  0  0  0  0  0  0  0  0
  139.0150   71.8800  222.7340 C   0  0  0  0  0  0  0  0  0  0  0  0
  137.6420   72.0680  222.7370 C   0  0  0  0  0  0  0  0  0  0  0  0
  136.8390   71.2210  223.4730 C   0  0  0  0  0  0  0  0  0  0  0  0
  137.3720   70.1960  224.2030 C   0  0  0  0  0  0  0  0  0  0  0  0
  138.7490   69.9800  224.2210 C   0  0  0  0  0  0  0  0  0  0  0  0
  139.3430   68.9110  224.9880 C   0  0  0  0  0  0  0  0  0  0  0  0
  139.2010   67.6970  224.6730 O   0  0  0  0  0  0  0  0  0  0  0  0
  140.1150   69.2930  226.1440 N   0  0  0  0  0  0  0  0  0  0  0  0
  140.2780   70.7050  226.5090 C   0  0  0  0  0  0  0  0  0  0  0  0
  140.7980   70.7410  227.9210 C   0  0  0  0  0  0  0  0  0  0  0  0
  140.1240   69.7470  228.6420 O   0  0  0  0  0  0  0  0  0  0  0  0
  140.7740   68.5610  228.4110 C   0  0  0  0  0  0  0  0  0  0  0  0
  140.7350   68.2440  226.9490 C   0  0  0  0  0  0  0  0  0  0  0  0
  139.5250   70.8520  223.4680 C   0  0  0  0  0  0  0  0  0  0  0  0
  139.9210   74.0050  222.3450 N   0  0  0  0  0  0  0  0  0  0  0  0
  140.6650   75.0530  221.7430 C   0  0  0  0  0  0  0  0  0  0  0  0
  140.6890   76.3440  222.2010 C   0  0  0  0  0  0  0  0  0  0  0  0
  141.4350   77.3120  221.5610 C   0  0  0  0  0  0  0  0  0  0  0  0
  141.4890   78.6690  222.0170 N   0  0  0  0  0  0  0  0  0  0  0  0
  141.4920   79.7950  221.1050 C   0  0  0  0  0  0  0  0  0  0  0  0
  140.8150   80.9320  221.8820 C   0  0  0  0  0  0  0  0  0  0  0  0
  141.8250   81.3690  222.9310 C   0  0  0  0  0  0  0  0  0  0  0  0
  142.1940   80.2190  223.8040 C   0  0  0  0  0  0  0  0  0  0  0  0
  141.5540   78.9190  223.4440 C   0  0  0  0  0  0  0  0  0  0  0  0
  142.1520   76.9300  220.4490 C   0  0  0  0  0  0  0  0  0  0  0  0
  142.1590   75.6430  219.9490 C   0  0  0  0  0  0  0  0  0  0  0  0
  141.4040   74.6930  220.6080 C   0  0  0  0  0  0  0  0  0  0  0  0
  139.8587   71.8309  220.0576 H   0  0  0  0  0  0  0  0  0  0  0  0
  141.2604   71.4289  221.0956 H   0  0  0  0  0  0  0  0  0  0  0  0
  137.1948   72.8879  222.1559 H   0  0  0  0  0  0  0  0  0  0  0  0
  135.7496   71.3736  223.4722 H   0  0  0  0  0  0  0  0  0  0  0  0
  136.7088   69.5358  224.7813 H   0  0  0  0  0  0  0  0  0  0  0  0
  140.9954   71.1896  225.8304 H   0  0  0  0  0  0  0  0  0  0  0  0
  139.3212   71.2421  226.4308 H   0  0  0  0  0  0  0  0  0  0  0  0
  141.8799   70.5423  227.9283 H   0  0  0  0  0  0  0  0  0  0  0  0
  140.6283   71.7299  228.3719 H   0  0  0  0  0  0  0  0  0  0  0  0
  141.8204   68.6470  228.7392 H   0  0  0  0  0  0  0  0  0  0  0  0
  140.2770   67.7564  228.9728 H   0  0  0  0  0  0  0  0  0  0  0  0
  141.7666   68.0978  226.5964 H   0  0  0  0  0  0  0  0  0  0  0  0
  140.1222   67.3383  226.8295 H   0  0  0  0  0  0  0  0  0  0  0  0
  140.6150   70.7038  223.4642 H   0  0  0  0  0  0  0  0  0  0  0  0
  140.1042   76.6129  223.0931 H   0  0  0  0  0  0  0  0  0  0  0  0
  142.5217   80.0708  220.8336 H   0  0  0  0  0  0  0  0  0  0  0  0
  140.9702   79.5678  220.1637 H   0  0  0  0  0  0  0  0  0  0  0  0
  140.5753   81.7678  221.2082 H   0  0  0  0  0  0  0  0  0  0  0  0
  139.8692   80.6056  222.3390 H   0  0  0  0  0  0  0  0  0  0  0  0
  142.7277   81.7485  222.4298 H   0  0  0  0  0  0  0  0  0  0  0  0
  141.3777   82.1599  223.5510 H   0  0  0  0  0  0  0  0  0  0  0  0
  143.2849   80.0877  223.7515 H   0  0  0  0  0  0  0  0  0  0  0  0
  141.8307   80.4705  224.8114 H   0  0  0  0  0  0  0  0  0  0  0  0
  142.1317   78.1079  223.9114 H   0  0  0  0  0  0  0  0  0  0  0  0
  140.5166   78.9636  223.8070 H   0  0  0  0  0  0  0  0  0  0  0  0
  142.7522   77.6922  219.9306 H   0  0  0  0  0  0  0  0  0  0  0  0
  142.7462   75.3832  219.0559 H   0  0  0  0  0  0  0  0  0  0  0  0
  1  2  2  0
  2  3  1  0
  3  4  1  0
  4  5  1  0
  5  6  2  0
  6  7  1  0
  7  8  2  0
  8  9  1  0
  9 10  1  0
 10 11  2  0
 10 12  1  0
 12 13  1  0
 13 14  1  0
 14 15  1  0
 15 16  1  0
 16 17  1  0
  9 18  2  0
  4 19  2  0
 19 20  1  0
 20 21  2  0
 21 22  1  0
 22 23  1  0
 23 24  1  0
 24 25  1  0
 25 26  1  0
 26 27  1  0
 27 28  1  0
 22 29  2  0
 29 30  1  0
 30 31  2  0
 31  2  1  0
 18  5  1  0
 31 20  1  0
 17 12  1  0
 28 23  1  0
  3 32  1  0
  3 33  1  0
  6 34  1  0
  7 35  1  0
  8 36  1  0
 13 37  1  0
 13 38  1  0
 14 39  1  0
 14 40  1  0
 16 41  1  0
 16 42  1  0
 17 43  1  0
 17 44  1  0
 18 45  1  0
 21 46  1  0
 24 47  1  0
 24 48  1  0
 25 49  1  0
 25 50  1  0
 26 51  1  0
 26 52  1  0
 27 53  1  0
 27 54  1  0
 28 55  1  0
 28 56  1  0
 29 57  1  0
 30 58  1  0
M  END
>  <smiles>  (6) 
O=C1CC(c2cccc(C(=O)N3CCOCC3)c2)=Nc2cc(N3CCCCC3)ccc21

>  <score_type>  (6) 
oracle

>  <origin>  (6) 
autodockgpu

>  <m_score__min__energy>  (6) 
-9.7400000000000002

>  <m_primary>  (6) 
energy

>  <rmsd>  (6) 
6.809430217029902

>  <m_score__min__rmsd>  (6) 
6.809430217029902

>  <meeko>  (6) 
{"free_energy": -9.74, "intermolecular_energy": -10.63, "internal_energy": -0.97, "cluster_size": 48, "cluster_id": 1, "rank_in_cluster": 13}

>  <energy>  (6) 
-9.74

>  <cluster_rmsd>  (6) 
0.03

>  <cluster>  (6) 
1

$$$$

     RDKit          3D

 58 62  0  0  0  0  0  0  0  0999 V2000
  142.1350   73.0620  219.1690 O   0  0  0  0  0  0  0  0  0  0  0  0
  141.4280   73.3420  220.1750 C   0  0  0  0  0  0  0  0  0  0  0  0
  140.6480   72.2580  220.8080 C   0  0  0  0  0  0  0  0  0  0  0  0
  139.9020   72.8220  221.9520 C   0  0  0  0  0  0  0  0  0  0  0  0
  139.0340   71.9120  222.7320 C   0  0  0  0  0  0  0  0  0  0  0  0
  137.6620   72.1080  222.7300 C   0  0  0  0  0  0  0  0  0  0  0  0
  136.8500   71.2620  223.4570 C   0  0  0  0  0  0  0  0  0  0  0  0
  137.3720   70.2310  224.1850 C   0  0  0  0  0  0  0  0  0  0  0  0
  138.7480   70.0060  224.2090 C   0  0  0  0  0  0  0  0  0  0  0  0
  139.3310   68.9300  224.9750 C   0  0  0  0  0  0  0  0  0  0  0  0
  139.1970   67.7190  224.6430 O   0  0  0  0  0  0  0  0  0  0  0  0
  140.0840   69.3010  226.1470 N   0  0  0  0  0  0  0  0  0  0  0  0
  140.2380   70.7090  226.5300 C   0  0  0  0  0  0  0  0  0  0  0  0
  140.7340   70.7300  227.9510 C   0  0  0  0  0  0  0  0  0  0  0  0
  140.0510   69.7270  228.6490 O   0  0  0  0  0  0  0  0  0  0  0  0
  140.7070   68.5450  228.4160 C   0  0  0  0  0  0  0  0  0  0  0  0
  140.6920   68.2440  226.9500 C   0  0  0  0  0  0  0  0  0  0  0  0
  139.5330   70.8760  223.4640 C   0  0  0  0  0  0  0  0  0  0  0  0
  139.9280   74.0400  222.3370 N   0  0  0  0  0  0  0  0  0  0  0  0
  140.6760   75.0870  221.7390 C   0  0  0  0  0  0  0  0  0  0  0  0
  140.6770   76.3850  222.1800 C   0  0  0  0  0  0  0  0  0  0  0  0
  141.4290   77.3510  221.5460 C   0  0  0  0  0  0  0  0  0  0  0  0
  141.4580   78.7150  221.9840 N   0  0  0  0  0  0  0  0  0  0  0  0
  141.1840   79.8230  221.0930 C   0  0  0  0  0  0  0  0  0  0  0  0
  140.5830   80.9120  221.9930 C   0  0  0  0  0  0  0  0  0  0  0  0
  141.7430   81.4470  222.8190 C   0  0  0  0  0  0  0  0  0  0  0  0
  142.3750   80.3440  223.5970 C   0  0  0  0  0  0  0  0  0  0  0  0
  141.7870   78.9890  223.3690 C   0  0  0  0  0  0  0  0  0  0  0  0
  142.1750   76.9620  220.4550 C   0  0  0  0  0  0  0  0  0  0  0  0
  142.2070   75.6680  219.9730 C   0  0  0  0  0  0  0  0  0  0  0  0
  141.4460   74.7200  220.6270 C   0  0  0  0  0  0  0  0  0  0  0  0
  139.9427   71.8338  220.0782 H   0  0  0  0  0  0  0  0  0  0  0  0
  141.3230   71.4616  221.1546 H   0  0  0  0  0  0  0  0  0  0  0  0
  137.2226   72.9340  222.1516 H   0  0  0  0  0  0  0  0  0  0  0  0
  135.7616   71.4209  223.4502 H   0  0  0  0  0  0  0  0  0  0  0  0
  136.7015   69.5728  224.7570 H   0  0  0  0  0  0  0  0  0  0  0  0
  140.9659   71.2023  225.8691 H   0  0  0  0  0  0  0  0  0  0  0  0
  139.2818   71.2455  226.4413 H   0  0  0  0  0  0  0  0  0  0  0  0
  141.8161   70.5337  227.9742 H   0  0  0  0  0  0  0  0  0  0  0  0
  140.5541   71.7133  228.4101 H   0  0  0  0  0  0  0  0  0  0  0  0
  141.7478   68.6294  228.7619 H   0  0  0  0  0  0  0  0  0  0  0  0
  140.2029   67.7334  228.9611 H   0  0  0  0  0  0  0  0  0  0  0  0
  141.7294   68.1027  226.6125 H   0  0  0  0  0  0  0  0  0  0  0  0
  140.0824   67.3391  226.8106 H   0  0  0  0  0  0  0  0  0  0  0  0
  140.6219   70.7200  223.4646 H   0  0  0  0  0  0  0  0  0  0  0  0
  140.0680   76.6602  223.0537 H   0  0  0  0  0  0  0  0  0  0  0  0
  142.1116   80.1790  220.6210 H   0  0  0  0  0  0  0  0  0  0  0  0
  140.5052   79.5395  220.2751 H   0  0  0  0  0  0  0  0  0  0  0  0
  140.1437   81.7150  221.3829 H   0  0  0  0  0  0  0  0  0  0  0  0
  139.7788   80.5152  222.6301 H   0  0  0  0  0  0  0  0  0  0  0  0
  142.4916   81.8928  222.1475 H   0  0  0  0  0  0  0  0  0  0  0  0
  141.3643   82.2071  223.5182 H   0  0  0  0  0  0  0  0  0  0  0  0
  143.4403   80.3030  223.3261 H   0  0  0  0  0  0  0  0  0  0  0  0
  142.2011   80.5787  224.6575 H   0  0  0  0  0  0  0  0  0  0  0  0
  142.5131   78.2353  223.7078 H   0  0  0  0  0  0  0  0  0  0  0  0
  140.8438   78.9520  223.9337 H   0  0  0  0  0  0  0  0  0  0  0  0
  142.7783   77.7238  219.9395 H   0  0  0  0  0  0  0  0  0  0  0  0
  142.8180   75.4020  219.0979 H   0  0  0  0  0  0  0  0  0  0  0  0
  1  2  2  0
  2  3  1  0
  3  4  1  0
  4  5  1  0
  5  6  2  0
  6  7  1  0
  7  8  2  0
  8  9  1  0
  9 10  1  0
 10 11  2  0
 10 12  1  0
 12 13  1  0
 13 14  1  0
 14 15  1  0
 15 16  1  0
 16 17  1  0
  9 18  2  0
  4 19  2  0
 19 20  1  0
 20 21  2  0
 21 22  1  0
 22 23  1  0
 23 24  1  0
 24 25  1  0
 25 26  1  0
 26 27  1  0
 27 28  1  0
 22 29  2  0
 29 30  1  0
 30 31  2  0
 31  2  1  0
 18  5  1  0
 31 20  1  0
 17 12  1  0
 28 23  1  0
  3 32  1  0
  3 33  1  0
  6 34  1  0
  7 35  1  0
  8 36  1  0
 13 37  1  0
 13 38  1  0
 14 39  1  0
 14 40  1  0
 16 41  1  0
 16 42  1  0
 17 43  1  0
 17 44  1  0
 18 45  1  0
 21 46  1  0
 24 47  1  0
 24 48  1  0
 25 49  1  0
 25 50  1  0
 26 51  1  0
 26 52  1  0
 27 53  1  0
 27 54  1  0
 28 55  1  0
 28 56  1  0
 29 57  1  0
 30 58  1  0
M  END
>  <smiles>  (7) 
O=C1CC(c2cccc(C(=O)N3CCOCC3)c2)=Nc2cc(N3CCCCC3)ccc21

>  <score_type>  (7) 
oracle

>  <origin>  (7) 
autodockgpu

>  <m_score__min__energy>  (7) 
-9.7400000000000002

>  <m_primary>  (7) 
energy

>  <rmsd>  (7) 
6.801249760681884

>  <m_score__min__rmsd>  (7) 
6.801249760681884

>  <meeko>  (7) 
{"free_energy": -9.73, "intermolecular_energy": -10.62, "internal_energy": -0.97, "cluster_size": 48, "cluster_id": 1, "rank_in_cluster": 30}

>  <energy>  (7) 
-9.74

>  <cluster_rmsd>  (7) 
0.03

>  <cluster>  (7) 
1

$$$$

     RDKit          3D

 58 62  0  0  0  0  0  0  0  0999 V2000
  142.1140   73.0770  219.1350 O   0  0  0  0  0  0  0  0  0  0  0  0
  141.4190   73.3540  220.1500 C   0  0  0  0  0  0  0  0  0  0  0  0
  140.6390   72.2690  220.7830 C   0  0  0  0  0  0  0  0  0  0  0  0
  139.9070   72.8290  221.9380 C   0  0  0  0  0  0  0  0  0  0  0  0
  139.0420   71.9180  222.7200 C   0  0  0  0  0  0  0  0  0  0  0  0
  137.6700   72.1100  222.7190 C   0  0  0  0  0  0  0  0  0  0  0  0
  136.8600   71.2640  223.4490 C   0  0  0  0  0  0  0  0  0  0  0  0
  137.3860   70.2350  224.1780 C   0  0  0  0  0  0  0  0  0  0  0  0
  138.7630   70.0130  224.2000 C   0  0  0  0  0  0  0  0  0  0  0  0
  139.3500   68.9400  224.9660 C   0  0  0  0  0  0  0  0  0  0  0  0
  139.2040   67.7270  224.6460 O   0  0  0  0  0  0  0  0  0  0  0  0
  140.1200   69.3150  226.1250 N   0  0  0  0  0  0  0  0  0  0  0  0
  140.2880   70.7250  226.4950 C   0  0  0  0  0  0  0  0  0  0  0  0
  140.8040   70.7540  227.9090 C   0  0  0  0  0  0  0  0  0  0  0  0
  140.1240   69.7620  228.6240 O   0  0  0  0  0  0  0  0  0  0  0  0
  140.7690   68.5740  228.3920 C   0  0  0  0  0  0  0  0  0  0  0  0
  140.7330   68.2610  226.9290 C   0  0  0  0  0  0  0  0  0  0  0  0
  139.5450   70.8840  223.4520 C   0  0  0  0  0  0  0  0  0  0  0  0
  139.9420   74.0440  222.3300 N   0  0  0  0  0  0  0  0  0  0  0  0
  140.6890   75.0920  221.7320 C   0  0  0  0  0  0  0  0  0  0  0  0
  140.7000   76.3870  222.1810 C   0  0  0  0  0  0  0  0  0  0  0  0
  141.4500   77.3540  221.5460 C   0  0  0  0  0  0  0  0  0  0  0  0
  141.4900   78.7150  221.9930 N   0  0  0  0  0  0  0  0  0  0  0  0
  141.2330   79.8310  221.1070 C   0  0  0  0  0  0  0  0  0  0  0  0
  140.6370   80.9200  222.0090 C   0  0  0  0  0  0  0  0  0  0  0  0
  141.7960   81.4380  222.8460 C   0  0  0  0  0  0  0  0  0  0  0  0
  142.4110   80.3250  223.6220 C   0  0  0  0  0  0  0  0  0  0  0  0
  141.8120   78.9780  223.3820 C   0  0  0  0  0  0  0  0  0  0  0  0
  142.1850   76.9680  220.4460 C   0  0  0  0  0  0  0  0  0  0  0  0
  142.2050   75.6780  219.9550 C   0  0  0  0  0  0  0  0  0  0  0  0
  141.4460   74.7290  220.6100 C   0  0  0  0  0  0  0  0  0  0  0  0
  139.9245   71.8536  220.0571 H   0  0  0  0  0  0  0  0  0  0  0  0
  141.3129   71.4665  221.1175 H   0  0  0  0  0  0  0  0  0  0  0  0
  137.2280   72.9334  222.1387 H   0  0  0  0  0  0  0  0  0  0  0  0
  135.7713   71.4210  223.4439 H   0  0  0  0  0  0  0  0  0  0  0  0
  136.7181   69.5762  224.7523 H   0  0  0  0  0  0  0  0  0  0  0  0
  141.0096   71.2086  225.8202 H   0  0  0  0  0  0  0  0  0  0  0  0
  139.3339   71.2666  226.4156 H   0  0  0  0  0  0  0  0  0  0  0  0
  141.8849   70.5502  227.9188 H   0  0  0  0  0  0  0  0  0  0  0  0
  140.6375   71.7422  228.3625 H   0  0  0  0  0  0  0  0  0  0  0  0
  141.8147   68.6543  228.7236 H   0  0  0  0  0  0  0  0  0  0  0  0
  140.2665   67.7703  228.9502 H   0  0  0  0  0  0  0  0  0  0  0  0
  141.7650   68.1112  226.5790 H   0  0  0  0  0  0  0  0  0  0  0  0
  140.1167   67.3583  226.8052 H   0  0  0  0  0  0  0  0  0  0  0  0
  140.6342   70.7302  223.4503 H   0  0  0  0  0  0  0  0  0  0  0  0
  140.1007   76.6592  223.0623 H   0  0  0  0  0  0  0  0  0  0  0  0
  142.1673   80.1806  220.6434 H   0  0  0  0  0  0  0  0  0  0  0  0
  140.5570   79.5592  220.2829 H   0  0  0  0  0  0  0  0  0  0  0  0
  140.2101   81.7311  221.4008 H   0  0  0  0  0  0  0  0  0  0  0  0
  139.8244   80.5275  222.6380 H   0  0  0  0  0  0  0  0  0  0  0  0
  142.5539   81.8799  222.1824 H   0  0  0  0  0  0  0  0  0  0  0  0
  141.4199   82.1979  223.5468 H   0  0  0  0  0  0  0  0  0  0  0  0
  143.4779   80.2752  223.3589 H   0  0  0  0  0  0  0  0  0  0  0  0
  142.2313   80.5554  224.6825 H   0  0  0  0  0  0  0  0  0  0  0  0
  142.5284   78.2154  223.7214 H   0  0  0  0  0  0  0  0  0  0  0  0
  140.8644   78.9470  223.9398 H   0  0  0  0  0  0  0  0  0  0  0  0
  142.7889   77.7296  219.9310 H   0  0  0  0  0  0  0  0  0  0  0  0
  142.8055   75.4151  219.0716 H   0  0  0  0  0  0  0  0  0  0  0  0
  1  2  2  0
  2  3  1  0
  3  4  1  0
  4  5  1  0
  5  6  2  0
  6  7  1  0
  7  8  2  0
  8  9  1  0
  9 10  1  0
 10 11  2  0
 10 12  1  0
 12 13  1  0
 13 14  1  0
 14 15  1  0
 15 16  1  0
 16 17  1  0
  9 18  2  0
  4 19  2  0
 19 20  1  0
 20 21  2  0
 21 22  1  0
 22 23  1  0
 23 24  1  0
 24 25  1  0
 25 26  1  0
 26 27  1  0
 27 28  1  0
 22 29  2  0
 29 30  1  0
 30 31  2  0
 31  2  1  0
 18  5  1  0
 31 20  1  0
 17 12  1  0
 28 23  1  0
  3 32  1  0
  3 33  1  0
  6 34  1  0
  7 35  1  0
  8 36  1  0
 13 37  1  0
 13 38  1  0
 14 39  1  0
 14 40  1  0
 16 41  1  0
 16 42  1  0
 17 43  1  0
 17 44  1  0
 18 45  1  0
 21 46  1  0
 24 47  1  0
 24 48  1  0
 25 49  1  0
 25 50  1  0
 26 51  1  0
 26 52  1  0
 27 53  1  0
 27 54  1  0
 28 55  1  0
 28 56  1  0
 29 57  1  0
 30 58  1  0
M  END
>  <smiles>  (8) 
O=C1CC(c2cccc(C(=O)N3CCOCC3)c2)=Nc2cc(N3CCCCC3)ccc21

>  <score_type>  (8) 
oracle

>  <origin>  (8) 
autodockgpu

>  <m_score__min__energy>  (8) 
-9.7400000000000002

>  <m_primary>  (8) 
energy

>  <rmsd>  (8) 
6.803527529205936

>  <m_score__min__rmsd>  (8) 
6.803527529205936

>  <meeko>  (8) 
{"free_energy": -9.74, "intermolecular_energy": -10.63, "internal_energy": -0.97, "cluster_size": 48, "cluster_id": 1, "rank_in_cluster": 11}

>  <energy>  (8) 
-9.74

>  <cluster_rmsd>  (8) 
0.08

>  <cluster>  (8) 
1

$$$$

     RDKit          3D

 58 62  0  0  0  0  0  0  0  0999 V2000
  142.1070   73.0650  219.1490 O   0  0  0  0  0  0  0  0  0  0  0  0
  141.4110   73.3410  220.1630 C   0  0  0  0  0  0  0  0  0  0  0  0
  140.6310   72.2550  220.7950 C   0  0  0  0  0  0  0  0  0  0  0  0
  139.8980   72.8130  221.9510 C   0  0  0  0  0  0  0  0  0  0  0  0
  139.0330   71.9010  222.7310 C   0  0  0  0  0  0  0  0  0  0  0  0
  137.6610   72.0920  222.7260 C   0  0  0  0  0  0  0  0  0  0  0  0
  136.8510   71.2440  223.4540 C   0  0  0  0  0  0  0  0  0  0  0  0
  137.3770   70.2160  224.1850 C   0  0  0  0  0  0  0  0  0  0  0  0
  138.7540   69.9970  224.2110 C   0  0  0  0  0  0  0  0  0  0  0  0
  139.3400   68.9250  224.9800 C   0  0  0  0  0  0  0  0  0  0  0  0
  139.2010   67.7130  224.6580 O   0  0  0  0  0  0  0  0  0  0  0  0
  140.1020   69.3030  226.1440 N   0  0  0  0  0  0  0  0  0  0  0  0
  140.2620   70.7130  226.5160 C   0  0  0  0  0  0  0  0  0  0  0  0
  140.7690   70.7430  227.9330 C   0  0  0  0  0  0  0  0  0  0  0  0
  140.0890   69.7460  228.6430 O   0  0  0  0  0  0  0  0  0  0  0  0
  140.7410   68.5610  228.4130 C   0  0  0  0  0  0  0  0  0  0  0  0
  140.7150   68.2500  226.9500 C   0  0  0  0  0  0  0  0  0  0  0  0
  139.5360   70.8690  223.4650 C   0  0  0  0  0  0  0  0  0  0  0  0
  139.9330   74.0280  222.3440 N   0  0  0  0  0  0  0  0  0  0  0  0
  140.6810   75.0770  221.7480 C   0  0  0  0  0  0  0  0  0  0  0  0
  140.6920   76.3710  222.1990 C   0  0  0  0  0  0  0  0  0  0  0  0
  141.4420   77.3390  221.5650 C   0  0  0  0  0  0  0  0  0  0  0  0
  141.4830   78.6990  222.0150 N   0  0  0  0  0  0  0  0  0  0  0  0
  141.2360   79.8170  221.1270 C   0  0  0  0  0  0  0  0  0  0  0  0
  140.6360   80.9070  222.0260 C   0  0  0  0  0  0  0  0  0  0  0  0
  141.7890   81.4210  222.8730 C   0  0  0  0  0  0  0  0  0  0  0  0
  142.3940   80.3050  223.6530 C   0  0  0  0  0  0  0  0  0  0  0  0
  141.7930   78.9590  223.4070 C   0  0  0  0  0  0  0  0  0  0  0  0
  142.1770   76.9550  220.4650 C   0  0  0  0  0  0  0  0  0  0  0  0
  142.1980   75.6650  219.9730 C   0  0  0  0  0  0  0  0  0  0  0  0
  141.4390   74.7150  220.6260 C   0  0  0  0  0  0  0  0  0  0  0  0
  139.9169   71.8402  220.0684 H   0  0  0  0  0  0  0  0  0  0  0  0
  141.3054   71.4528  221.1290 H   0  0  0  0  0  0  0  0  0  0  0  0
  137.2194   72.9151  222.1450 H   0  0  0  0  0  0  0  0  0  0  0  0
  135.7619   71.3985  223.4456 H   0  0  0  0  0  0  0  0  0  0  0  0
  136.7087   69.5560  224.7575 H   0  0  0  0  0  0  0  0  0  0  0  0
  140.9858   71.2000  225.8460 H   0  0  0  0  0  0  0  0  0  0  0  0
  139.3062   71.2508  226.4311 H   0  0  0  0  0  0  0  0  0  0  0  0
  141.8508   70.5446  227.9494 H   0  0  0  0  0  0  0  0  0  0  0  0
  140.5948   71.7298  228.3867 H   0  0  0  0  0  0  0  0  0  0  0  0
  141.7844   68.6456  228.7508 H   0  0  0  0  0  0  0  0  0  0  0  0
  140.2390   67.7542  228.9671 H   0  0  0  0  0  0  0  0  0  0  0  0
  141.7497   68.1051  226.6058 H   0  0  0  0  0  0  0  0  0  0  0  0
  140.1035   67.3448  226.8212 H   0  0  0  0  0  0  0  0  0  0  0  0
  140.6255   70.7177  223.4667 H   0  0  0  0  0  0  0  0  0  0  0  0
  140.0929   76.6418  223.0809 H   0  0  0  0  0  0  0  0  0  0  0  0
  142.1748   80.1643  220.6709 H   0  0  0  0  0  0  0  0  0  0  0  0
  140.5659   79.5479  220.2972 H   0  0  0  0  0  0  0  0  0  0  0  0
  140.2163   81.7200  221.4153 H   0  0  0  0  0  0  0  0  0  0  0  0
  139.8176   80.5157  222.6482 H   0  0  0  0  0  0  0  0  0  0  0  0
  142.5538   81.8613  222.2163 H   0  0  0  0  0  0  0  0  0  0  0  0
  141.4094   82.1815  223.5712 H   0  0  0  0  0  0  0  0  0  0  0  0
  143.4629   80.2522  223.3988 H   0  0  0  0  0  0  0  0  0  0  0  0
  142.2056   80.5350  224.7121 H   0  0  0  0  0  0  0  0  0  0  0  0
  142.5041   78.1940  223.7521 H   0  0  0  0  0  0  0  0  0  0  0  0
  140.8407   78.9295  223.9568 H   0  0  0  0  0  0  0  0  0  0  0  0
  142.7801   77.7176  219.9505 H   0  0  0  0  0  0  0  0  0  0  0  0
  142.7996   75.4032  219.0901 H   0  0  0  0  0  0  0  0  0  0  0  0
  1  2  2  0
  2  3  1  0
  3  4  1  0
  4  5  1  0
  5  6  2  0
  6  7  1  0
  7  8  2  0
  8  9  1  0
  9 10  1  0
 10 11  2  0
 10 12  1  0
 12 13  1  0
 13 14  1  0
 14 15  1  0
 15 16  1  0
 16 17  1  0
  9 18  2  0
  4 19  2  0
 19 20  1  0
 20 21  2  0
 21 22  1  0
 22 23  1  0
 23 24  1  0
 24 25  1  0
 25 26  1  0
 26 27  1  0
 27 28  1  0
 22 29  2  0
 29 30  1  0
 30 31  2  0
 31  2  1  0
 18  5  1  0
 31 20  1  0
 17 12  1  0
 28 23  1  0
  3 32  1  0
  3 33  1  0
  6 34  1  0
  7 35  1  0
  8 36  1  0
 13 37  1  0
 13 38  1  0
 14 39  1  0
 14 40  1  0
 16 41  1  0
 16 42  1  0
 17 43  1  0
 17 44  1  0
 18 45  1  0
 21 46  1  0
 24 47  1  0
 24 48  1  0
 25 49  1  0
 25 50  1  0
 26 51  1  0
 26 52  1  0
 27 53  1  0
 27 54  1  0
 28 55  1  0
 28 56  1  0
 29 57  1  0
 30 58  1  0
M  END
>  <smiles>  (9) 
O=C1CC(c2cccc(C(=O)N3CCOCC3)c2)=Nc2cc(N3CCCCC3)ccc21

>  <score_type>  (9) 
oracle

>  <origin>  (9) 
autodockgpu

>  <m_score__min__energy>  (9) 
-9.7400000000000002

>  <m_primary>  (9) 
energy

>  <rmsd>  (9) 
6.809927884697281

>  <m_score__min__rmsd>  (9) 
6.809927884697281

>  <meeko>  (9) 
{"free_energy": -9.74, "intermolecular_energy": -10.63, "internal_energy": -0.97, "cluster_size": 48, "cluster_id": 1, "rank_in_cluster": 8}

>  <energy>  (9) 
-9.74

>  <cluster_rmsd>  (9) 
0.04

>  <cluster>  (9) 
1

$$$$

     RDKit          3D

 58 62  0  0  0  0  0  0  0  0999 V2000
  142.0560   73.0320  219.1220 O   0  0  0  0  0  0  0  0  0  0  0  0
  141.3740   73.3090  220.1460 C   0  0  0  0  0  0  0  0  0  0  0  0
  140.5960   72.2270  220.7850 C   0  0  0  0  0  0  0  0  0  0  0  0
  139.8800   72.7870  221.9510 C   0  0  0  0  0  0  0  0  0  0  0  0
  139.0200   71.8780  222.7400 C   0  0  0  0  0  0  0  0  0  0  0  0
  137.6480   72.0720  222.7470 C   0  0  0  0  0  0  0  0  0  0  0  0
  136.8430   71.2280  223.4840 C   0  0  0  0  0  0  0  0  0  0  0  0
  137.3730   70.2000  224.2120 C   0  0  0  0  0  0  0  0  0  0  0  0
  138.7490   69.9780  224.2260 C   0  0  0  0  0  0  0  0  0  0  0  0
  139.3400   68.9060  224.9920 C   0  0  0  0  0  0  0  0  0  0  0  0
  139.2090   67.6940  224.6640 O   0  0  0  0  0  0  0  0  0  0  0  0
  140.0970   69.2820  226.1600 N   0  0  0  0  0  0  0  0  0  0  0  0
  140.2480   70.6920  226.5390 C   0  0  0  0  0  0  0  0  0  0  0  0
  140.7500   70.7180  227.9570 C   0  0  0  0  0  0  0  0  0  0  0  0
  140.0740   69.7140  228.6610 O   0  0  0  0  0  0  0  0  0  0  0  0
  140.7340   68.5340  228.4270 C   0  0  0  0  0  0  0  0  0  0  0  0
  140.7130   68.2300  226.9620 C   0  0  0  0  0  0  0  0  0  0  0  0
  139.5270   70.8470  223.4720 C   0  0  0  0  0  0  0  0  0  0  0  0
  139.9270   74.0010  222.3460 N   0  0  0  0  0  0  0  0  0  0  0  0
  140.6730   75.0470  221.7420 C   0  0  0  0  0  0  0  0  0  0  0  0
  140.6970   76.3400  222.1950 C   0  0  0  0  0  0  0  0  0  0  0  0
  141.4450   77.3050  221.5540 C   0  0  0  0  0  0  0  0  0  0  0  0
  141.4980   78.6640  222.0050 N   0  0  0  0  0  0  0  0  0  0  0  0
  141.4690   79.7870  221.0910 C   0  0  0  0  0  0  0  0  0  0  0  0
  140.8020   80.9200  221.8810 C   0  0  0  0  0  0  0  0  0  0  0  0
  141.8330   81.3690  222.9040 C   0  0  0  0  0  0  0  0  0  0  0  0
  142.2330   80.2250  223.7710 C   0  0  0  0  0  0  0  0  0  0  0  0
  141.5950   78.9170  223.4290 C   0  0  0  0  0  0  0  0  0  0  0  0
  142.1640   76.9190  220.4440 C   0  0  0  0  0  0  0  0  0  0  0  0
  142.1710   75.6300  219.9490 C   0  0  0  0  0  0  0  0  0  0  0  0
  141.4150   74.6830  220.6100 C   0  0  0  0  0  0  0  0  0  0  0  0
  139.8708   71.8176  220.0663 H   0  0  0  0  0  0  0  0  0  0  0  0
  141.2699   71.4204  221.1094 H   0  0  0  0  0  0  0  0  0  0  0  0
  137.2030   72.8946  222.1680 H   0  0  0  0  0  0  0  0  0  0  0  0
  135.7543   71.3855  223.4856 H   0  0  0  0  0  0  0  0  0  0  0  0
  136.7084   69.5425  224.7916 H   0  0  0  0  0  0  0  0  0  0  0  0
  140.9713   71.1861  225.8736 H   0  0  0  0  0  0  0  0  0  0  0  0
  139.2896   71.2251  226.4533 H   0  0  0  0  0  0  0  0  0  0  0  0
  141.8329   70.5258  227.9757 H   0  0  0  0  0  0  0  0  0  0  0  0
  140.5682   71.7017  228.4145 H   0  0  0  0  0  0  0  0  0  0  0  0
  141.7761   68.6235  228.7676 H   0  0  0  0  0  0  0  0  0  0  0  0
  140.2360   67.7214  228.9762 H   0  0  0  0  0  0  0  0  0  0  0  0
  141.7493   68.0923  226.6197 H   0  0  0  0  0  0  0  0  0  0  0  0
  140.1063   67.3223  226.8277 H   0  0  0  0  0  0  0  0  0  0  0  0
  140.6163   70.6938  223.4655 H   0  0  0  0  0  0  0  0  0  0  0  0
  140.1100   76.6126  223.0845 H   0  0  0  0  0  0  0  0  0  0  0  0
  142.4893   80.0708  220.7937 H   0  0  0  0  0  0  0  0  0  0  0  0
  140.9260   79.5528  220.1635 H   0  0  0  0  0  0  0  0  0  0  0  0
  140.5388   81.7517  221.2110 H   0  0  0  0  0  0  0  0  0  0  0  0
  139.8706   80.5866  222.3620 H   0  0  0  0  0  0  0  0  0  0  0  0
  142.7199   81.7548  222.3801 H   0  0  0  0  0  0  0  0  0  0  0  0
  141.3938   82.1579  223.5323 H   0  0  0  0  0  0  0  0  0  0  0  0
  143.3234   80.1031  223.6928 H   0  0  0  0  0  0  0  0  0  0  0  0
  141.8921   80.4761  224.7862 H   0  0  0  0  0  0  0  0  0  0  0  0
  142.1908   78.1119  223.8838 H   0  0  0  0  0  0  0  0  0  0  0  0
  140.5664   78.9529  223.8171 H   0  0  0  0  0  0  0  0  0  0  0  0
  142.7653   77.6791  219.9237 H   0  0  0  0  0  0  0  0  0  0  0  0
  142.7594   75.3666  219.0577 H   0  0  0  0  0  0  0  0  0  0  0  0
  1  2  2  0
  2  3  1  0
  3  4  1  0
  4  5  1  0
  5  6  2  0
  6  7  1  0
  7  8  2  0
  8  9  1  0
  9 10  1  0
 10 11  2  0
 10 12  1  0
 12 13  1  0
 13 14  1  0
 14 15  1  0
 15 16  1  0
 16 17  1  0
  9 18  2  0
  4 19  2  0
 19 20  1  0
 20 21  2  0
 21 22  1  0
 22 23  1  0
 23 24  1  0
 24 25  1  0
 25 26  1  0
 26 27  1  0
 27 28  1  0
 22 29  2  0
 29 30  1  0
 30 31  2  0
 31  2  1  0
 18  5  1  0
 31 20  1  0
 17 12  1  0
 28 23  1  0
  3 32  1  0
  3 33  1  0
  6 34  1  0
  7 35  1  0
  8 36  1  0
 13 37  1  0
 13 38  1  0
 14 39  1  0
 14 40  1  0
 16 41  1  0
 16 42  1  0
 17 43  1  0
 17 44  1  0
 18 45  1  0
 21 46  1  0
 24 47  1  0
 24 48  1  0
 25 49  1  0
 25 50  1  0
 26 51  1  0
 26 52  1  0
 27 53  1  0
 27 54  1  0
 28 55  1  0
 28 56  1  0
 29 57  1  0
 30 58  1  0
M  END
>  <smiles>  (10) 
O=C1CC(c2cccc(C(=O)N3CCOCC3)c2)=Nc2cc(N3CCCCC3)ccc21

>  <score_type>  (10) 
oracle

>  <origin>  (10) 
autodockgpu

>  <m_score__min__energy>  (10) 
-9.7400000000000002

>  <m_primary>  (10) 
energy

>  <rmsd>  (10) 
6.8098896023400215

>  <m_score__min__rmsd>  (10) 
6.8098896023400215

>  <meeko>  (10) 
{"free_energy": -9.73, "intermolecular_energy": -10.62, "internal_energy": -0.97, "cluster_size": 48, "cluster_id": 1, "rank_in_cluster": 28}

>  <energy>  (10) 
-9.74

>  <cluster_rmsd>  (10) 
0.03

>  <cluster>  (10) 
1

$$$$

     RDKit          3D

 58 62  0  0  0  0  0  0  0  0999 V2000
  142.0510   73.0650  219.0990 O   0  0  0  0  0  0  0  0  0  0  0  0
  141.3700   73.3400  220.1240 C   0  0  0  0  0  0  0  0  0  0  0  0
  140.5910   72.2560  220.7590 C   0  0  0  0  0  0  0  0  0  0  0  0
  139.8780   72.8110  221.9280 C   0  0  0  0  0  0  0  0  0  0  0  0
  139.0170   71.9000  222.7140 C   0  0  0  0  0  0  0  0  0  0  0  0
  137.6440   72.0880  222.7130 C   0  0  0  0  0  0  0  0  0  0  0  0
  136.8380   71.2420  223.4470 C   0  0  0  0  0  0  0  0  0  0  0  0
  137.3690   70.2180  224.1800 C   0  0  0  0  0  0  0  0  0  0  0  0
  138.7460   70.0010  224.2020 C   0  0  0  0  0  0  0  0  0  0  0  0
  139.3380   68.9330  224.9730 C   0  0  0  0  0  0  0  0  0  0  0  0
  139.2010   67.7190  224.6550 O   0  0  0  0  0  0  0  0  0  0  0  0
  140.1010   69.3160  226.1340 N   0  0  0  0  0  0  0  0  0  0  0  0
  140.2580   70.7290  226.5020 C   0  0  0  0  0  0  0  0  0  0  0  0
  140.7670   70.7640  227.9180 C   0  0  0  0  0  0  0  0  0  0  0  0
  140.0920   69.7670  228.6320 O   0  0  0  0  0  0  0  0  0  0  0  0
  140.7460   68.5840  228.4040 C   0  0  0  0  0  0  0  0  0  0  0  0
  140.7180   68.2680  226.9420 C   0  0  0  0  0  0  0  0  0  0  0  0
  139.5240   70.8720  223.4510 C   0  0  0  0  0  0  0  0  0  0  0  0
  139.9260   74.0240  222.3280 N   0  0  0  0  0  0  0  0  0  0  0  0
  140.6730   75.0710  221.7280 C   0  0  0  0  0  0  0  0  0  0  0  0
  140.6980   76.3620  222.1870 C   0  0  0  0  0  0  0  0  0  0  0  0
  141.4470   77.3290  221.5490 C   0  0  0  0  0  0  0  0  0  0  0  0
  141.5020   78.6860  222.0060 N   0  0  0  0  0  0  0  0  0  0  0  0
  141.4880   79.8130  221.0950 C   0  0  0  0  0  0  0  0  0  0  0  0
  140.8180   80.9460  221.8840 C   0  0  0  0  0  0  0  0  0  0  0  0
  141.8410   81.3860  222.9180 C   0  0  0  0  0  0  0  0  0  0  0  0
  142.2270   80.2360  223.7850 C   0  0  0  0  0  0  0  0  0  0  0  0
  141.5870   78.9340  223.4310 C   0  0  0  0  0  0  0  0  0  0  0  0
  142.1650   76.9470  220.4370 C   0  0  0  0  0  0  0  0  0  0  0  0
  142.1700   75.6600  219.9370 C   0  0  0  0  0  0  0  0  0  0  0  0
  141.4130   74.7110  220.5940 C   0  0  0  0  0  0  0  0  0  0  0  0
  139.8642   71.8513  220.0393 H   0  0  0  0  0  0  0  0  0  0  0  0
  141.2641   71.4468  221.0785 H   0  0  0  0  0  0  0  0  0  0  0  0
  137.1988   72.9076  222.1299 H   0  0  0  0  0  0  0  0  0  0  0  0
  135.7486   71.3945  223.4421 H   0  0  0  0  0  0  0  0  0  0  0  0
  136.7040   69.5592  224.7577 H   0  0  0  0  0  0  0  0  0  0  0  0
  140.9796   71.2160  225.8296 H   0  0  0  0  0  0  0  0  0  0  0  0
  139.3008   71.2643  226.4169 H   0  0  0  0  0  0  0  0  0  0  0  0
  141.8495   70.5693  227.9330 H   0  0  0  0  0  0  0  0  0  0  0  0
  140.5899   71.7514  228.3693 H   0  0  0  0  0  0  0  0  0  0  0  0
  141.7899   68.6724  228.7394 H   0  0  0  0  0  0  0  0  0  0  0  0
  140.2469   67.7777  228.9614 H   0  0  0  0  0  0  0  0  0  0  0  0
  141.7524   68.1247  226.5964 H   0  0  0  0  0  0  0  0  0  0  0  0
  140.1086   67.3607  226.8175 H   0  0  0  0  0  0  0  0  0  0  0  0
  140.6139   70.7235  223.4510 H   0  0  0  0  0  0  0  0  0  0  0  0
  140.1118   76.6314  223.0779 H   0  0  0  0  0  0  0  0  0  0  0  0
  142.5126   80.0930  220.8091 H   0  0  0  0  0  0  0  0  0  0  0  0
  140.9540   79.5853  220.1606 H   0  0  0  0  0  0  0  0  0  0  0  0
  140.5645   81.7817  221.2152 H   0  0  0  0  0  0  0  0  0  0  0  0
  139.8807   80.6145  222.3548 H   0  0  0  0  0  0  0  0  0  0  0  0
  142.7349   81.7692  222.4040 H   0  0  0  0  0  0  0  0  0  0  0  0
  141.4000   82.1749  223.5449 H   0  0  0  0  0  0  0  0  0  0  0  0
  143.3176   80.1093  223.7177 H   0  0  0  0  0  0  0  0  0  0  0  0
  141.8770   80.4844  224.7978 H   0  0  0  0  0  0  0  0  0  0  0  0
  142.1746   78.1243  223.8883 H   0  0  0  0  0  0  0  0  0  0  0  0
  140.5546   78.9744  223.8086 H   0  0  0  0  0  0  0  0  0  0  0  0
  142.7668   77.7085  219.9195 H   0  0  0  0  0  0  0  0  0  0  0  0
  142.7579   75.3995  219.0445 H   0  0  0  0  0  0  0  0  0  0  0  0
  1  2  2  0
  2  3  1  0
  3  4  1  0
  4  5  1  0
  5  6  2  0
  6  7  1  0
  7  8  2  0
  8  9  1  0
  9 10  1  0
 10 11  2  0
 10 12  1  0
 12 13  1  0
 13 14  1  0
 14 15  1  0
 15 16  1  0
 16 17  1  0
  9 18  2  0
  4 19  2  0
 19 20  1  0
 20 21  2  0
 21 22  1  0
 22 23  1  0
 23 24  1  0
 24 25  1  0
 25 26  1  0
 26 27  1  0
 27 28  1  0
 22 29  2  0
 29 30  1  0
 30 31  2  0
 31  2  1  0
 18  5  1  0
 31 20  1  0
 17 12  1  0
 28 23  1  0
  3 32  1  0
  3 33  1  0
  6 34  1  0
  7 35  1  0
  8 36  1  0
 13 37  1  0
 13 38  1  0
 14 39  1  0
 14 40  1  0
 16 41  1  0
 16 42  1  0
 17 43  1  0
 17 44  1  0
 18 45  1  0
 21 46  1  0
 24 47  1  0
 24 48  1  0
 25 49  1  0
 25 50  1  0
 26 51  1  0
 26 52  1  0
 27 53  1  0
 27 54  1  0
 28 55  1  0
 28 56  1  0
 29 57  1  0
 30 58  1  0
M  END
>  <smiles>  (11) 
O=C1CC(c2cccc(C(=O)N3CCOCC3)c2)=Nc2cc(N3CCCCC3)ccc21

>  <score_type>  (11) 
oracle

>  <origin>  (11) 
autodockgpu

>  <m_score__min__energy>  (11) 
-9.7400000000000002

>  <m_primary>  (11) 
energy

>  <rmsd>  (11) 
6.805465921361984

>  <m_score__min__rmsd>  (11) 
6.805465921361984

>  <meeko>  (11) 
{"free_energy": -9.73, "intermolecular_energy": -10.63, "internal_energy": -0.97, "cluster_size": 48, "cluster_id": 1, "rank_in_cluster": 26}

>  <energy>  (11) 
-9.74

>  <cluster_rmsd>  (11) 
0.08

>  <cluster>  (11) 
1

$$$$

     RDKit          3D

 58 62  0  0  0  0  0  0  0  0999 V2000
  141.9020   73.1530  219.0120 O   0  0  0  0  0  0  0  0  0  0  0  0
  141.2590   73.4170  220.0650 C   0  0  0  0  0  0  0  0  0  0  0  0
  140.4870   72.3320  220.7060 C   0  0  0  0  0  0  0  0  0  0  0  0
  139.8210   72.8750  221.9080 C   0  0  0  0  0  0  0  0  0  0  0  0
  138.9740   71.9610  222.7060 C   0  0  0  0  0  0  0  0  0  0  0  0
  137.6020   72.1560  222.7400 C   0  0  0  0  0  0  0  0  0  0  0  0
  136.8100   71.3070  223.4850 C   0  0  0  0  0  0  0  0  0  0  0  0
  137.3520   70.2730  224.1950 C   0  0  0  0  0  0  0  0  0  0  0  0
  138.7280   70.0490  224.1820 C   0  0  0  0  0  0  0  0  0  0  0  0
  139.3320   68.9700  224.9280 C   0  0  0  0  0  0  0  0  0  0  0  0
  139.2020   67.7620  224.5870 O   0  0  0  0  0  0  0  0  0  0  0  0
  140.1000   69.3360  226.0910 N   0  0  0  0  0  0  0  0  0  0  0  0
  140.2510   70.7420  226.4850 C   0  0  0  0  0  0  0  0  0  0  0  0
  140.7690   70.7530  227.8980 C   0  0  0  0  0  0  0  0  0  0  0  0
  140.1050   69.7390  228.5970 O   0  0  0  0  0  0  0  0  0  0  0  0
  140.7660   68.5640  228.3420 C   0  0  0  0  0  0  0  0  0  0  0  0
  140.7300   68.2760  226.8740 C   0  0  0  0  0  0  0  0  0  0  0  0
  139.4930   70.9230  223.4200 C   0  0  0  0  0  0  0  0  0  0  0  0
  139.8990   74.0790  222.3280 N   0  0  0  0  0  0  0  0  0  0  0  0
  140.6400   75.1270  221.7230 C   0  0  0  0  0  0  0  0  0  0  0  0
  140.6990   76.4090  222.2040 C   0  0  0  0  0  0  0  0  0  0  0  0
  141.4390   77.3770  221.5590 C   0  0  0  0  0  0  0  0  0  0  0  0
  141.5290   78.7250  222.0380 N   0  0  0  0  0  0  0  0  0  0  0  0
  141.4340   79.0560  223.4450 C   0  0  0  0  0  0  0  0  0  0  0  0
  142.2840   80.3230  223.6090 C   0  0  0  0  0  0  0  0  0  0  0  0
  141.4820   81.4420  222.9630 C   0  0  0  0  0  0  0  0  0  0  0  0
  141.2030   81.1190  221.5350 C   0  0  0  0  0  0  0  0  0  0  0  0
  141.7100   79.7920  221.0740 C   0  0  0  0  0  0  0  0  0  0  0  0
  142.1140   77.0070  220.4170 C   0  0  0  0  0  0  0  0  0  0  0  0
  142.0850   75.7290  219.8930 C   0  0  0  0  0  0  0  0  0  0  0  0
  141.3370   74.7780  220.5580 C   0  0  0  0  0  0  0  0  0  0  0  0
  139.7311   71.9501  220.0040 H   0  0  0  0  0  0  0  0  0  0  0  0
  141.1591   71.5082  220.9882 H   0  0  0  0  0  0  0  0  0  0  0  0
  137.1471   72.9835  222.1758 H   0  0  0  0  0  0  0  0  0  0  0  0
  135.7217   71.4654  223.5079 H   0  0  0  0  0  0  0  0  0  0  0  0
  136.6973   69.6119  224.7817 H   0  0  0  0  0  0  0  0  0  0  0  0
  140.9653   71.2462  225.8175 H   0  0  0  0  0  0  0  0  0  0  0  0
  139.2901   71.2730  226.4164 H   0  0  0  0  0  0  0  0  0  0  0  0
  141.8527   70.5646  227.9022 H   0  0  0  0  0  0  0  0  0  0  0  0
  140.5889   71.7305  228.3692 H   0  0  0  0  0  0  0  0  0  0  0  0
  141.8115   68.6531  228.6720 H   0  0  0  0  0  0  0  0  0  0  0  0
  140.2763   67.7437  228.8873 H   0  0  0  0  0  0  0  0  0  0  0  0
  141.7629   68.1465  226.5185 H   0  0  0  0  0  0  0  0  0  0  0  0
  140.1262   67.3670  226.7357 H   0  0  0  0  0  0  0  0  0  0  0  0
  140.5816   70.7680  223.3913 H   0  0  0  0  0  0  0  0  0  0  0  0
  140.1472   76.6697  223.1192 H   0  0  0  0  0  0  0  0  0  0  0  0
  140.3889   79.2515  223.7272 H   0  0  0  0  0  0  0  0  0  0  0  0
  141.7840   78.2355  224.0887 H   0  0  0  0  0  0  0  0  0  0  0  0
  142.4518   80.5371  224.6748 H   0  0  0  0  0  0  0  0  0  0  0  0
  143.2741   80.2113  223.1428 H   0  0  0  0  0  0  0  0  0  0  0  0
  140.5300   81.5634  223.5005 H   0  0  0  0  0  0  0  0  0  0  0  0
  142.0636   82.3744  223.0125 H   0  0  0  0  0  0  0  0  0  0  0  0
  140.1130   81.1368  221.3885 H   0  0  0  0  0  0  0  0  0  0  0  0
  141.7378   81.8742  220.9404 H   0  0  0  0  0  0  0  0  0  0  0  0
  141.1764   79.5192  220.1516 H   0  0  0  0  0  0  0  0  0  0  0  0
  142.7936   79.9012  220.9196 H   0  0  0  0  0  0  0  0  0  0  0  0
  142.7084   77.7704  219.8937 H   0  0  0  0  0  0  0  0  0  0  0  0
  142.6393   75.4776  218.9767 H   0  0  0  0  0  0  0  0  0  0  0  0
  1  2  2  0
  2  3  1  0
  3  4  1  0
  4  5  1  0
  5  6  2  0
  6  7  1  0
  7  8  2  0
  8  9  1  0
  9 10  1  0
 10 11  2  0
 10 12  1  0
 12 13  1  0
 13 14  1  0
 14 15  1  0
 15 16  1  0
 16 17  1  0
  9 18  2  0
  4 19  2  0
 19 20  1  0
 20 21  2  0
 21 22  1  0
 22 23  1  0
 23 24  1  0
 24 25  1  0
 25 26  1  0
 26 27  1  0
 27 28  1  0
 22 29  2  0
 29 30  1  0
 30 31  2  0
 31  2  1  0
 18  5  1  0
 31 20  1  0
 17 12  1  0
 28 23  1  0
  3 32  1  0
  3 33  1  0
  6 34  1  0
  7 35  1  0
  8 36  1  0
 13 37  1  0
 13 38  1  0
 14 39  1  0
 14 40  1  0
 16 41  1  0
 16 42  1  0
 17 43  1  0
 17 44  1  0
 18 45  1  0
 21 46  1  0
 24 47  1  0
 24 48  1  0
 25 49  1  0
 25 50  1  0
 26 51  1  0
 26 52  1  0
 27 53  1  0
 27 54  1  0
 28 55  1  0
 28 56  1  0
 29 57  1  0
 30 58  1  0
M  END
>  <smiles>  (12) 
O=C1CC(c2cccc(C(=O)N3CCOCC3)c2)=Nc2cc(N3CCCCC3)ccc21

>  <score_type>  (12) 
oracle

>  <origin>  (12) 
autodockgpu

>  <m_score__min__energy>  (12) 
-9.7400000000000002

>  <m_primary>  (12) 
energy

>  <rmsd>  (12) 
6.571146472066642

>  <m_score__min__rmsd>  (12) 
6.571146472066642

>  <meeko>  (12) 
{"free_energy": -9.69, "intermolecular_energy": -10.58, "internal_energy": -0.97, "cluster_size": 48, "cluster_id": 1, "rank_in_cluster": 44}

>  <energy>  (12) 
-9.74

>  <cluster_rmsd>  (12) 
0.03

>  <cluster>  (12) 
1

$$$$

     RDKit          3D

 58 62  0  0  0  0  0  0  0  0999 V2000
  142.1000   73.0680  219.1500 O   0  0  0  0  0  0  0  0  0  0  0  0
  141.4040   73.3460  220.1640 C   0  0  0  0  0  0  0  0  0  0  0  0
  140.6250   72.2610  220.7980 C   0  0  0  0  0  0  0  0  0  0  0  0
  139.8920   72.8210  221.9530 C   0  0  0  0  0  0  0  0  0  0  0  0
  139.0280   71.9100  222.7360 C   0  0  0  0  0  0  0  0  0  0  0  0
  137.6560   72.1010  222.7340 C   0  0  0  0  0  0  0  0  0  0  0  0
  136.8470   71.2550  223.4650 C   0  0  0  0  0  0  0  0  0  0  0  0
  137.3740   70.2270  224.1950 C   0  0  0  0  0  0  0  0  0  0  0  0
  138.7510   70.0060  224.2170 C   0  0  0  0  0  0  0  0  0  0  0  0
  139.3390   68.9340  224.9850 C   0  0  0  0  0  0  0  0  0  0  0  0
  139.2090   67.7220  224.6560 O   0  0  0  0  0  0  0  0  0  0  0  0
  140.0910   69.3100  226.1550 N   0  0  0  0  0  0  0  0  0  0  0  0
  140.2410   70.7200  226.5350 C   0  0  0  0  0  0  0  0  0  0  0  0
  140.7380   70.7460  227.9550 C   0  0  0  0  0  0  0  0  0  0  0  0
  140.0600   69.7420  228.6560 O   0  0  0  0  0  0  0  0  0  0  0  0
  140.7190   68.5620  228.4250 C   0  0  0  0  0  0  0  0  0  0  0  0
  140.7040   68.2570  226.9600 C   0  0  0  0  0  0  0  0  0  0  0  0
  139.5320   70.8780  223.4690 C   0  0  0  0  0  0  0  0  0  0  0  0
  139.9260   74.0370  222.3440 N   0  0  0  0  0  0  0  0  0  0  0  0
  140.6730   75.0850  221.7450 C   0  0  0  0  0  0  0  0  0  0  0  0
  140.6820   76.3800  222.1930 C   0  0  0  0  0  0  0  0  0  0  0  0
  141.4320   77.3470  221.5570 C   0  0  0  0  0  0  0  0  0  0  0  0
  141.4710   78.7080  222.0030 N   0  0  0  0  0  0  0  0  0  0  0  0
  141.2500   79.8250  221.1070 C   0  0  0  0  0  0  0  0  0  0  0  0
  140.6370   80.9210  221.9900 C   0  0  0  0  0  0  0  0  0  0  0  0
  141.7750   81.4310  222.8600 C   0  0  0  0  0  0  0  0  0  0  0  0
  142.3570   80.3130  223.6560 C   0  0  0  0  0  0  0  0  0  0  0  0
  141.7530   78.9710  223.4000 C   0  0  0  0  0  0  0  0  0  0  0  0
  142.1670   76.9610  220.4570 C   0  0  0  0  0  0  0  0  0  0  0  0
  142.1890   75.6700  219.9680 C   0  0  0  0  0  0  0  0  0  0  0  0
  141.4300   74.7210  220.6230 C   0  0  0  0  0  0  0  0  0  0  0  0
  139.9110   71.8444  220.0723 H   0  0  0  0  0  0  0  0  0  0  0  0
  141.2999   71.4597  221.1333 H   0  0  0  0  0  0  0  0  0  0  0  0
  137.2134   72.9231  222.1525 H   0  0  0  0  0  0  0  0  0  0  0  0
  135.7581   71.4110  223.4599 H   0  0  0  0  0  0  0  0  0  0  0  0
  136.7066   69.5683  224.7701 H   0  0  0  0  0  0  0  0  0  0  0  0
  140.9667   71.2141  225.8723 H   0  0  0  0  0  0  0  0  0  0  0  0
  139.2829   71.2531  226.4461 H   0  0  0  0  0  0  0  0  0  0  0  0
  141.8209   70.5542  227.9776 H   0  0  0  0  0  0  0  0  0  0  0  0
  140.5543   71.7296  228.4120 H   0  0  0  0  0  0  0  0  0  0  0  0
  141.7598   68.6504  228.7699 H   0  0  0  0  0  0  0  0  0  0  0  0
  140.2174   67.7503  228.9722 H   0  0  0  0  0  0  0  0  0  0  0  0
  141.7416   68.1189  226.6219 H   0  0  0  0  0  0  0  0  0  0  0  0
  140.0980   67.3492  226.8233 H   0  0  0  0  0  0  0  0  0  0  0  0
  140.6215   70.7263  223.4685 H   0  0  0  0  0  0  0  0  0  0  0  0
  140.0817   76.6525  223.0736 H   0  0  0  0  0  0  0  0  0  0  0  0
  142.2005   80.1656  220.6706 H   0  0  0  0  0  0  0  0  0  0  0  0
  140.5965   79.5576  220.2635 H   0  0  0  0  0  0  0  0  0  0  0  0
  140.2349   81.7345  221.3683 H   0  0  0  0  0  0  0  0  0  0  0  0
  139.8033   80.5362  222.5956 H   0  0  0  0  0  0  0  0  0  0  0  0
  142.5561   81.8651  222.2185 H   0  0  0  0  0  0  0  0  0  0  0  0
  141.3852   82.1958  223.5479 H   0  0  0  0  0  0  0  0  0  0  0  0
  143.4308   80.2531  223.4248 H   0  0  0  0  0  0  0  0  0  0  0  0
  142.1481   80.5467  224.7104 H   0  0  0  0  0  0  0  0  0  0  0  0
  142.4516   78.2025  223.7624 H   0  0  0  0  0  0  0  0  0  0  0  0
  140.7886   78.9501  223.9286 H   0  0  0  0  0  0  0  0  0  0  0  0
  142.7690   77.7230  219.9404 H   0  0  0  0  0  0  0  0  0  0  0  0
  142.7912   75.4065  219.0860 H   0  0  0  0  0  0  0  0  0  0  0  0
  1  2  2  0
  2  3  1  0
  3  4  1  0
  4  5  1  0
  5  6  2  0
  6  7  1  0
  7  8  2  0
  8  9  1  0
  9 10  1  0
 10 11  2  0
 10 12  1  0
 12 13  1  0
 13 14  1  0
 14 15  1  0
 15 16  1  0
 16 17  1  0
  9 18  2  0
  4 19  2  0
 19 20  1  0
 20 21  2  0
 21 22  1  0
 22 23  1  0
 23 24  1  0
 24 25  1  0
 25 26  1  0
 26 27  1  0
 27 28  1  0
 22 29  2  0
 29 30  1  0
 30 31  2  0
 31  2  1  0
 18  5  1  0
 31 20  1  0
 17 12  1  0
 28 23  1  0
  3 32  1  0
  3 33  1  0
  6 34  1  0
  7 35  1  0
  8 36  1  0
 13 37  1  0
 13 38  1  0
 14 39  1  0
 14 40  1  0
 16 41  1  0
 16 42  1  0
 17 43  1  0
 17 44  1  0
 18 45  1  0
 21 46  1  0
 24 47  1  0
 24 48  1  0
 25 49  1  0
 25 50  1  0
 26 51  1  0
 26 52  1  0
 27 53  1  0
 27 54  1  0
 28 55  1  0
 28 56  1  0
 29 57  1  0
 30 58  1  0
M  END
>  <smiles>  (13) 
O=C1CC(c2cccc(C(=O)N3CCOCC3)c2)=Nc2cc(N3CCCCC3)ccc21

>  <score_type>  (13) 
oracle

>  <origin>  (13) 
autodockgpu

>  <m_score__min__energy>  (13) 
-9.7400000000000002

>  <m_primary>  (13) 
energy

>  <rmsd>  (13) 
6.804623481879161

>  <m_score__min__rmsd>  (13) 
6.804623481879161

>  <meeko>  (13) 
{"free_energy": -9.73, "intermolecular_energy": -10.62, "internal_energy": -0.97, "cluster_size": 48, "cluster_id": 1, "rank_in_cluster": 33}

>  <energy>  (13) 
-9.74

>  <cluster_rmsd>  (13) 
0.06

>  <cluster>  (13) 
1

$$$$

     RDKit          3D

 58 62  0  0  0  0  0  0  0  0999 V2000
  142.0720   73.0470  219.1370 O   0  0  0  0  0  0  0  0  0  0  0  0
  141.3840   73.3240  220.1570 C   0  0  0  0  0  0  0  0  0  0  0  0
  140.6010   72.2420  220.7900 C   0  0  0  0  0  0  0  0  0  0  0  0
  139.8790   72.8020  221.9520 C   0  0  0  0  0  0  0  0  0  0  0  0
  139.0130   71.8930  222.7350 C   0  0  0  0  0  0  0  0  0  0  0  0
  137.6420   72.0910  222.7390 C   0  0  0  0  0  0  0  0  0  0  0  0
  136.8310   71.2470  223.4700 C   0  0  0  0  0  0  0  0  0  0  0  0
  137.3550   70.2140  224.1950 C   0  0  0  0  0  0  0  0  0  0  0  0
  138.7310   69.9870  224.2130 C   0  0  0  0  0  0  0  0  0  0  0  0
  139.3160   68.9100  224.9760 C   0  0  0  0  0  0  0  0  0  0  0  0
  139.1730   67.6990  224.6490 O   0  0  0  0  0  0  0  0  0  0  0  0
  140.0810   69.2800  226.1400 N   0  0  0  0  0  0  0  0  0  0  0  0
  140.2460   70.6890  226.5180 C   0  0  0  0  0  0  0  0  0  0  0  0
  140.7550   70.7110  227.9340 C   0  0  0  0  0  0  0  0  0  0  0  0
  140.0740   69.7130  228.6410 O   0  0  0  0  0  0  0  0  0  0  0  0
  140.7220   68.5270  228.4050 C   0  0  0  0  0  0  0  0  0  0  0  0
  140.6920   68.2220  226.9400 C   0  0  0  0  0  0  0  0  0  0  0  0
  139.5140   70.8560  223.4640 C   0  0  0  0  0  0  0  0  0  0  0  0
  139.9240   74.0150  222.3480 N   0  0  0  0  0  0  0  0  0  0  0  0
  140.6740   75.0610  221.7500 C   0  0  0  0  0  0  0  0  0  0  0  0
  140.6960   76.3540  222.2040 C   0  0  0  0  0  0  0  0  0  0  0  0
  141.4480   77.3190  221.5680 C   0  0  0  0  0  0  0  0  0  0  0  0
  141.4990   78.6770  222.0210 N   0  0  0  0  0  0  0  0  0  0  0  0
  141.5430   79.7990  221.1060 C   0  0  0  0  0  0  0  0  0  0  0  0
  140.8510   80.9460  221.8550 C   0  0  0  0  0  0  0  0  0  0  0  0
  141.8300   81.3780  222.9360 C   0  0  0  0  0  0  0  0  0  0  0  0
  142.1590   80.2280  223.8250 C   0  0  0  0  0  0  0  0  0  0  0  0
  141.5190   78.9320  223.4480 C   0  0  0  0  0  0  0  0  0  0  0  0
  142.1740   76.9330  220.4630 C   0  0  0  0  0  0  0  0  0  0  0  0
  142.1840   75.6440  219.9670 C   0  0  0  0  0  0  0  0  0  0  0  0
  141.4230   74.6970  220.6230 C   0  0  0  0  0  0  0  0  0  0  0  0
  139.8796   71.8342  220.0666 H   0  0  0  0  0  0  0  0  0  0  0  0
  141.2717   71.4340  221.1173 H   0  0  0  0  0  0  0  0  0  0  0  0
  137.2016   72.9175  222.1619 H   0  0  0  0  0  0  0  0  0  0  0  0
  135.7429   71.4087  223.4690 H   0  0  0  0  0  0  0  0  0  0  0  0
  136.6861   69.5561  224.7692 H   0  0  0  0  0  0  0  0  0  0  0  0
  140.9704   71.1767  225.8491 H   0  0  0  0  0  0  0  0  0  0  0  0
  139.2919   71.2303  226.4367 H   0  0  0  0  0  0  0  0  0  0  0  0
  141.8363   70.5097  227.9477 H   0  0  0  0  0  0  0  0  0  0  0  0
  140.5837   71.6962  228.3922 H   0  0  0  0  0  0  0  0  0  0  0  0
  141.7663   68.6071  228.7410 H   0  0  0  0  0  0  0  0  0  0  0  0
  140.2188   67.7194  228.9569 H   0  0  0  0  0  0  0  0  0  0  0  0
  141.7255   68.0752  226.5931 H   0  0  0  0  0  0  0  0  0  0  0  0
  140.0773   67.3193  226.8086 H   0  0  0  0  0  0  0  0  0  0  0  0
  140.6026   70.6980  223.4589 H   0  0  0  0  0  0  0  0  0  0  0  0
  140.1041   76.6264  223.0902 H   0  0  0  0  0  0  0  0  0  0  0  0
  142.5838   80.0641  220.8684 H   0  0  0  0  0  0  0  0  0  0  0  0
  141.0506   79.5726  220.1488 H   0  0  0  0  0  0  0  0  0  0  0  0
  140.6422   81.7811  221.1701 H   0  0  0  0  0  0  0  0  0  0  0  0
  139.8871   80.6308  222.2811 H   0  0  0  0  0  0  0  0  0  0  0  0
  142.7524   81.7472  222.4638 H   0  0  0  0  0  0  0  0  0  0  0  0
  141.3697   82.1754  223.5379 H   0  0  0  0  0  0  0  0  0  0  0  0
  143.2498   80.0866  223.8095 H   0  0  0  0  0  0  0  0  0  0  0  0
  141.7647   80.4866  224.8188 H   0  0  0  0  0  0  0  0  0  0  0  0
  142.0732   78.1174  223.9371 H   0  0  0  0  0  0  0  0  0  0  0  0
  140.4705   78.9877  223.7759 H   0  0  0  0  0  0  0  0  0  0  0  0
  142.7791   77.6931  219.9472 H   0  0  0  0  0  0  0  0  0  0  0  0
  142.7781   75.3808  219.0794 H   0  0  0  0  0  0  0  0  0  0  0  0
  1  2  2  0
  2  3  1  0
  3  4  1  0
  4  5  1  0
  5  6  2  0
  6  7  1  0
  7  8  2  0
  8  9  1  0
  9 10  1  0
 10 11  2  0
 10 12  1  0
 12 13  1  0
 13 14  1  0
 14 15  1  0
 15 16  1  0
 16 17  1  0
  9 18  2  0
  4 19  2  0
 19 20  1  0
 20 21  2  0
 21 22  1  0
 22 23  1  0
 23 24  1  0
 24 25  1  0
 25 26  1  0
 26 27  1  0
 27 28  1  0
 22 29  2  0
 29 30  1  0
 30 31  2  0
 31  2  1  0
 18  5  1  0
 31 20  1  0
 17 12  1  0
 28 23  1  0
  3 32  1  0
  3 33  1  0
  6 34  1  0
  7 35  1  0
  8 36  1  0
 13 37  1  0
 13 38  1  0
 14 39  1  0
 14 40  1  0
 16 41  1  0
 16 42  1  0
 17 43  1  0
 17 44  1  0
 18 45  1  0
 21 46  1  0
 24 47  1  0
 24 48  1  0
 25 49  1  0
 25 50  1  0
 26 51  1  0
 26 52  1  0
 27 53  1  0
 27 54  1  0
 28 55  1  0
 28 56  1  0
 29 57  1  0
 30 58  1  0
M  END
>  <smiles>  (14) 
O=C1CC(c2cccc(C(=O)N3CCOCC3)c2)=Nc2cc(N3CCCCC3)ccc21

>  <score_type>  (14) 
oracle

>  <origin>  (14) 
autodockgpu

>  <m_score__min__energy>  (14) 
-9.7400000000000002

>  <m_primary>  (14) 
energy

>  <rmsd>  (14) 
6.811802402546356

>  <m_score__min__rmsd>  (14) 
6.811802402546356

>  <meeko>  (14) 
{"free_energy": -9.73, "intermolecular_energy": -10.62, "internal_energy": -0.97, "cluster_size": 48, "cluster_id": 1, "rank_in_cluster": 32}

>  <energy>  (14) 
-9.74

>  <cluster_rmsd>  (14) 
0.03

>  <cluster>  (14) 
1

$$$$

     RDKit          3D

 58 62  0  0  0  0  0  0  0  0999 V2000
  141.8290   73.1590  219.0540 O   0  0  0  0  0  0  0  0  0  0  0  0
  141.1680   73.3940  220.1010 C   0  0  0  0  0  0  0  0  0  0  0  0
  140.4180   72.2810  220.7220 C   0  0  0  0  0  0  0  0  0  0  0  0
  139.7230   72.7930  221.9220 C   0  0  0  0  0  0  0  0  0  0  0  0
  138.8930   71.8470  222.7000 C   0  0  0  0  0  0  0  0  0  0  0  0
  137.5150   71.9900  222.7010 C   0  0  0  0  0  0  0  0  0  0  0  0
  136.7370   71.1110  223.4280 C   0  0  0  0  0  0  0  0  0  0  0  0
  137.3010   70.0990  224.1510 C   0  0  0  0  0  0  0  0  0  0  0  0
  138.6850   69.9270  224.1720 C   0  0  0  0  0  0  0  0  0  0  0  0
  139.3110   68.8730  224.9330 C   0  0  0  0  0  0  0  0  0  0  0  0
  139.2010   67.6560  224.6130 O   0  0  0  0  0  0  0  0  0  0  0  0
  140.0780   69.2710  226.0870 N   0  0  0  0  0  0  0  0  0  0  0  0
  140.2040   70.6860  226.4560 C   0  0  0  0  0  0  0  0  0  0  0  0
  140.7280   70.7300  227.8660 C   0  0  0  0  0  0  0  0  0  0  0  0
  140.0850   69.7160  228.5860 O   0  0  0  0  0  0  0  0  0  0  0  0
  140.7660   68.5490  228.3470 C   0  0  0  0  0  0  0  0  0  0  0  0
  140.7290   68.2360  226.8850 C   0  0  0  0  0  0  0  0  0  0  0  0
  139.4340   70.8300  223.4280 C   0  0  0  0  0  0  0  0  0  0  0  0
  139.7640   73.9940  222.3560 N   0  0  0  0  0  0  0  0  0  0  0  0
  140.4830   75.0690  221.7700 C   0  0  0  0  0  0  0  0  0  0  0  0
  140.5010   76.3460  222.2660 C   0  0  0  0  0  0  0  0  0  0  0  0
  141.2220   77.3410  221.6400 C   0  0  0  0  0  0  0  0  0  0  0  0
  141.2680   78.6850  222.1340 N   0  0  0  0  0  0  0  0  0  0  0  0
  142.5150   79.3840  222.3680 C   0  0  0  0  0  0  0  0  0  0  0  0
  142.1860   80.8650  222.1380 C   0  0  0  0  0  0  0  0  0  0  0  0
  141.3530   81.2900  223.3370 C   0  0  0  0  0  0  0  0  0  0  0  0
  140.1330   80.4420  223.4450 C   0  0  0  0  0  0  0  0  0  0  0  0
  140.0180   79.3620  222.4200 C   0  0  0  0  0  0  0  0  0  0  0  0
  141.9190   77.0020  220.5020 C   0  0  0  0  0  0  0  0  0  0  0  0
  141.9310   75.7300  219.9640 C   0  0  0  0  0  0  0  0  0  0  0  0
  141.2020   74.7510  220.6100 C   0  0  0  0  0  0  0  0  0  0  0  0
  139.6811   71.8861  220.0071 H   0  0  0  0  0  0  0  0  0  0  0  0
  141.1091   71.4729  221.0038 H   0  0  0  0  0  0  0  0  0  0  0  0
  137.0430   72.7999  222.1254 H   0  0  0  0  0  0  0  0  0  0  0  0
  135.6432   71.2280  223.4247 H   0  0  0  0  0  0  0  0  0  0  0  0
  136.6579   69.4132  224.7221 H   0  0  0  0  0  0  0  0  0  0  0  0
  140.9056   71.1922  225.7766 H   0  0  0  0  0  0  0  0  0  0  0  0
  139.2331   71.1979  226.3827 H   0  0  0  0  0  0  0  0  0  0  0  0
  141.8149   70.5608  227.8681 H   0  0  0  0  0  0  0  0  0  0  0  0
  140.5325   71.7121  228.3214 H   0  0  0  0  0  0  0  0  0  0  0  0
  141.8112   68.6624  228.6706 H   0  0  0  0  0  0  0  0  0  0  0  0
  140.2933   67.7292  228.9078 H   0  0  0  0  0  0  0  0  0  0  0  0
  141.7625   68.1183  226.5273 H   0  0  0  0  0  0  0  0  0  0  0  0
  140.1402   67.3147  226.7648 H   0  0  0  0  0  0  0  0  0  0  0  0
  140.5282   70.7174  223.4265 H   0  0  0  0  0  0  0  0  0  0  0  0
  139.9317   76.5812  223.1774 H   0  0  0  0  0  0  0  0  0  0  0  0
  142.8631   79.2203  223.3986 H   0  0  0  0  0  0  0  0  0  0  0  0
  143.3188   79.0304  221.7055 H   0  0  0  0  0  0  0  0  0  0  0  0
  143.1099   81.4594  222.0823 H   0  0  0  0  0  0  0  0  0  0  0  0
  141.6463   81.0198  221.1921 H   0  0  0  0  0  0  0  0  0  0  0  0
  141.9529   81.1812  224.2526 H   0  0  0  0  0  0  0  0  0  0  0  0
  141.0494   82.3394  223.2082 H   0  0  0  0  0  0  0  0  0  0  0  0
  140.1333   79.9699  224.4386 H   0  0  0  0  0  0  0  0  0  0  0  0
  139.2780   81.1137  223.2787 H   0  0  0  0  0  0  0  0  0  0  0  0
  139.2957   78.6160  222.7831 H   0  0  0  0  0  0  0  0  0  0  0  0
  139.6956   79.8435  221.4850 H   0  0  0  0  0  0  0  0  0  0  0  0
  142.4979   77.7871  219.9936 H   0  0  0  0  0  0  0  0  0  0  0  0
  142.5022   75.5043  219.0514 H   0  0  0  0  0  0  0  0  0  0  0  0
  1  2  2  0
  2  3  1  0
  3  4  1  0
  4  5  1  0
  5  6  2  0
  6  7  1  0
  7  8  2  0
  8  9  1  0
  9 10  1  0
 10 11  2  0
 10 12  1  0
 12 13  1  0
 13 14  1  0
 14 15  1  0
 15 16  1  0
 16 17  1  0
  9 18  2  0
  4 19  2  0
 19 20  1  0
 20 21  2  0
 21 22  1  0
 22 23  1  0
 23 24  1  0
 24 25  1  0
 25 26  1  0
 26 27  1  0
 27 28  1  0
 22 29  2  0
 29 30  1  0
 30 31  2  0
 31  2  1  0
 18  5  1  0
 31 20  1  0
 17 12  1  0
 28 23  1  0
  3 32  1  0
  3 33  1  0
  6 34  1  0
  7 35  1  0
  8 36  1  0
 13 37  1  0
 13 38  1  0
 14 39  1  0
 14 40  1  0
 16 41  1  0
 16 42  1  0
 17 43  1  0
 17 44  1  0
 18 45  1  0
 21 46  1  0
 24 47  1  0
 24 48  1  0
 25 49  1  0
 25 50  1  0
 26 51  1  0
 26 52  1  0
 27 53  1  0
 27 54  1  0
 28 55  1  0
 28 56  1  0
 29 57  1  0
 30 58  1  0
M  END
>  <smiles>  (15) 
O=C1CC(c2cccc(C(=O)N3CCOCC3)c2)=Nc2cc(N3CCCCC3)ccc21

>  <score_type>  (15) 
oracle

>  <origin>  (15) 
autodockgpu

>  <m_score__min__energy>  (15) 
-9.7400000000000002

>  <m_primary>  (15) 
energy

>  <rmsd>  (15) 
6.680628769128419

>  <m_score__min__rmsd>  (15) 
6.680628769128419

>  <meeko>  (15) 
{"free_energy": -9.48, "intermolecular_energy": -10.38, "internal_energy": -0.96, "cluster_size": 48, "cluster_id": 1, "rank_in_cluster": 48}

>  <energy>  (15) 
-9.74

>  <cluster_rmsd>  (15) 
0.09

>  <cluster>  (15) 
1

$$$$

     RDKit          3D

 58 62  0  0  0  0  0  0  0  0999 V2000
  142.1930   73.0280  219.2040 O   0  0  0  0  0  0  0  0  0  0  0  0
  141.4750   73.3140  220.2000 C   0  0  0  0  0  0  0  0  0  0  0  0
  140.6930   72.2320  220.8340 C   0  0  0  0  0  0  0  0  0  0  0  0
  139.9330   72.8020  221.9660 C   0  0  0  0  0  0  0  0  0  0  0  0
  139.0610   71.8950  222.7450 C   0  0  0  0  0  0  0  0  0  0  0  0
  137.6900   72.0980  222.7440 C   0  0  0  0  0  0  0  0  0  0  0  0
  136.8750   71.2550  223.4710 C   0  0  0  0  0  0  0  0  0  0  0  0
  137.3930   70.2200  224.1970 C   0  0  0  0  0  0  0  0  0  0  0  0
  138.7670   69.9880  224.2180 C   0  0  0  0  0  0  0  0  0  0  0  0
  139.3460   68.9070  224.9810 C   0  0  0  0  0  0  0  0  0  0  0  0
  139.2080   67.6980  224.6460 O   0  0  0  0  0  0  0  0  0  0  0  0
  140.0990   69.2710  226.1550 N   0  0  0  0  0  0  0  0  0  0  0  0
  140.2580   70.6780  226.5430 C   0  0  0  0  0  0  0  0  0  0  0  0
  140.7520   70.6920  227.9650 C   0  0  0  0  0  0  0  0  0  0  0  0
  140.0650   69.6900  228.6590 O   0  0  0  0  0  0  0  0  0  0  0  0
  140.7170   68.5060  228.4220 C   0  0  0  0  0  0  0  0  0  0  0  0
  140.7020   68.2100  226.9560 C   0  0  0  0  0  0  0  0  0  0  0  0
  139.5560   70.8550  223.4740 C   0  0  0  0  0  0  0  0  0  0  0  0
  139.9490   74.0230  222.3400 N   0  0  0  0  0  0  0  0  0  0  0  0
  140.6990   75.0690  221.7410 C   0  0  0  0  0  0  0  0  0  0  0  0
  140.6890   76.3710  222.1710 C   0  0  0  0  0  0  0  0  0  0  0  0
  141.4430   77.3350  221.5360 C   0  0  0  0  0  0  0  0  0  0  0  0
  141.4620   78.7020  221.9630 N   0  0  0  0  0  0  0  0  0  0  0  0
  141.1660   79.8000  221.0660 C   0  0  0  0  0  0  0  0  0  0  0  0
  140.5630   80.8900  221.9630 C   0  0  0  0  0  0  0  0  0  0  0  0
  141.7260   81.4440  222.7710 C   0  0  0  0  0  0  0  0  0  0  0  0
  142.3780   80.3550  223.5520 C   0  0  0  0  0  0  0  0  0  0  0  0
  141.8030   78.9920  223.3420 C   0  0  0  0  0  0  0  0  0  0  0  0
  142.2030   76.9400  220.4560 C   0  0  0  0  0  0  0  0  0  0  0  0
  142.2450   75.6420  219.9860 C   0  0  0  0  0  0  0  0  0  0  0  0
  141.4810   74.6960  220.6400 C   0  0  0  0  0  0  0  0  0  0  0  0
  139.9968   71.7990  220.1006 H   0  0  0  0  0  0  0  0  0  0  0  0
  141.3677   71.4413  221.1940 H   0  0  0  0  0  0  0  0  0  0  0  0
  137.2541   72.9267  222.1668 H   0  0  0  0  0  0  0  0  0  0  0  0
  135.7874   71.4193  223.4660 H   0  0  0  0  0  0  0  0  0  0  0  0
  136.7202   69.5646  224.7695 H   0  0  0  0  0  0  0  0  0  0  0  0
  140.9888   71.1706  225.8848 H   0  0  0  0  0  0  0  0  0  0  0  0
  139.3041   71.2187  226.4546 H   0  0  0  0  0  0  0  0  0  0  0  0
  141.8333   70.4915  227.9889 H   0  0  0  0  0  0  0  0  0  0  0  0
  140.5747   71.6744  228.4270 H   0  0  0  0  0  0  0  0  0  0  0  0
  141.7579   68.5854  228.7689 H   0  0  0  0  0  0  0  0  0  0  0  0
  140.2093   67.6944  228.9639 H   0  0  0  0  0  0  0  0  0  0  0  0
  141.7391   68.0657  226.6191 H   0  0  0  0  0  0  0  0  0  0  0  0
  140.0885   67.3081  226.8138 H   0  0  0  0  0  0  0  0  0  0  0  0
  140.6440   70.6932  223.4728 H   0  0  0  0  0  0  0  0  0  0  0  0
  140.0698   76.6508  223.0361 H   0  0  0  0  0  0  0  0  0  0  0  0
  142.0845   80.1621  220.5809 H   0  0  0  0  0  0  0  0  0  0  0  0
  140.4813   79.5022  220.2582 H   0  0  0  0  0  0  0  0  0  0  0  0
  140.1084   81.6829  221.3510 H   0  0  0  0  0  0  0  0  0  0  0  0
  139.7700   80.4904  222.6122 H   0  0  0  0  0  0  0  0  0  0  0  0
  142.4625   81.8913  222.0873 H   0  0  0  0  0  0  0  0  0  0  0  0
  141.3470   82.2064  223.4675 H   0  0  0  0  0  0  0  0  0  0  0  0
  143.4409   80.3234  223.2706 H   0  0  0  0  0  0  0  0  0  0  0  0
  142.2122   80.5972  224.6121 H   0  0  0  0  0  0  0  0  0  0  0  0
  142.5411   78.2494  223.6793 H   0  0  0  0  0  0  0  0  0  0  0  0
  140.8663   78.9496  223.9172 H   0  0  0  0  0  0  0  0  0  0  0  0
  142.8089   77.6998  219.9405 H   0  0  0  0  0  0  0  0  0  0  0  0
  142.8663   75.3710  219.1197 H   0  0  0  0  0  0  0  0  0  0  0  0
  1  2  2  0
  2  3  1  0
  3  4  1  0
  4  5  1  0
  5  6  2  0
  6  7  1  0
  7  8  2  0
  8  9  1  0
  9 10  1  0
 10 11  2  0
 10 12  1  0
 12 13  1  0
 13 14  1  0
 14 15  1  0
 15 16  1  0
 16 17  1  0
  9 18  2  0
  4 19  2  0
 19 20  1  0
 20 21  2  0
 21 22  1  0
 22 23  1  0
 23 24  1  0
 24 25  1  0
 25 26  1  0
 26 27  1  0
 27 28  1  0
 22 29  2  0
 29 30  1  0
 30 31  2  0
 31  2  1  0
 18  5  1  0
 31 20  1  0
 17 12  1  0
 28 23  1  0
  3 32  1  0
  3 33  1  0
  6 34  1  0
  7 35  1  0
  8 36  1  0
 13 37  1  0
 13 38  1  0
 14 39  1  0
 14 40  1  0
 16 41  1  0
 16 42  1  0
 17 43  1  0
 17 44  1  0
 18 45  1  0
 21 46  1  0
 24 47  1  0
 24 48  1  0
 25 49  1  0
 25 50  1  0
 26 51  1  0
 26 52  1  0
 27 53  1  0
 27 54  1  0
 28 55  1  0
 28 56  1  0
 29 57  1  0
 30 58  1  0
M  END
>  <smiles>  (16) 
O=C1CC(c2cccc(C(=O)N3CCOCC3)c2)=Nc2cc(N3CCCCC3)ccc21

>  <score_type>  (16) 
oracle

>  <origin>  (16) 
autodockgpu

>  <m_score__min__energy>  (16) 
-9.7400000000000002

>  <m_primary>  (16) 
energy

>  <rmsd>  (16) 
6.803756057333149

>  <m_score__min__rmsd>  (16) 
6.803756057333149

>  <meeko>  (16) 
{"free_energy": -9.73, "intermolecular_energy": -10.62, "internal_energy": -0.97, "cluster_size": 48, "cluster_id": 1, "rank_in_cluster": 29}

>  <energy>  (16) 
-9.74

>  <cluster_rmsd>  (16) 
0.04

>  <cluster>  (16) 
1

$$$$

     RDKit          3D

 58 62  0  0  0  0  0  0  0  0999 V2000
  142.1310   73.0680  219.1570 O   0  0  0  0  0  0  0  0  0  0  0  0
  141.4300   73.3470  220.1670 C   0  0  0  0  0  0  0  0  0  0  0  0
  140.6490   72.2630  220.8000 C   0  0  0  0  0  0  0  0  0  0  0  0
  139.9100   72.8260  221.9500 C   0  0  0  0  0  0  0  0  0  0  0  0
  139.0430   71.9160  222.7310 C   0  0  0  0  0  0  0  0  0  0  0  0
  137.6720   72.1140  222.7340 C   0  0  0  0  0  0  0  0  0  0  0  0
  136.8610   71.2690  223.4630 C   0  0  0  0  0  0  0  0  0  0  0  0
  137.3840   70.2350  224.1870 C   0  0  0  0  0  0  0  0  0  0  0  0
  138.7600   70.0070  224.2050 C   0  0  0  0  0  0  0  0  0  0  0  0
  139.3440   68.9290  224.9660 C   0  0  0  0  0  0  0  0  0  0  0  0
  139.2040   67.7190  224.6340 O   0  0  0  0  0  0  0  0  0  0  0  0
  140.1040   69.2960  226.1350 N   0  0  0  0  0  0  0  0  0  0  0  0
  140.2650   70.7040  226.5180 C   0  0  0  0  0  0  0  0  0  0  0  0
  140.7690   70.7210  227.9360 C   0  0  0  0  0  0  0  0  0  0  0  0
  140.0870   69.7200  228.6370 O   0  0  0  0  0  0  0  0  0  0  0  0
  140.7380   68.5360  228.3990 C   0  0  0  0  0  0  0  0  0  0  0  0
  140.7140   68.2360  226.9330 C   0  0  0  0  0  0  0  0  0  0  0  0
  139.5440   70.8780  223.4590 C   0  0  0  0  0  0  0  0  0  0  0  0
  139.9410   74.0430  222.3380 N   0  0  0  0  0  0  0  0  0  0  0  0
  140.6890   75.0900  221.7390 C   0  0  0  0  0  0  0  0  0  0  0  0
  140.6950   76.3860  222.1840 C   0  0  0  0  0  0  0  0  0  0  0  0
  141.4460   77.3520  221.5490 C   0  0  0  0  0  0  0  0  0  0  0  0
  141.4810   78.7150  221.9910 N   0  0  0  0  0  0  0  0  0  0  0  0
  141.4300   79.8320  221.0710 C   0  0  0  0  0  0  0  0  0  0  0  0
  140.7500   80.9600  221.8580 C   0  0  0  0  0  0  0  0  0  0  0  0
  141.7810   81.4300  222.8720 C   0  0  0  0  0  0  0  0  0  0  0  0
  142.2030   80.2970  223.7430 C   0  0  0  0  0  0  0  0  0  0  0  0
  141.5840   78.9780  223.4130 C   0  0  0  0  0  0  0  0  0  0  0  0
  142.1870   76.9650  220.4540 C   0  0  0  0  0  0  0  0  0  0  0  0
  142.2130   75.6720  219.9680 C   0  0  0  0  0  0  0  0  0  0  0  0
  141.4520   74.7240  220.6230 C   0  0  0  0  0  0  0  0  0  0  0  0
  139.9388   71.8438  220.0721 H   0  0  0  0  0  0  0  0  0  0  0  0
  141.3228   71.4630  221.1406 H   0  0  0  0  0  0  0  0  0  0  0  0
  137.2320   72.9412  222.1577 H   0  0  0  0  0  0  0  0  0  0  0  0
  135.7729   71.4307  223.4614 H   0  0  0  0  0  0  0  0  0  0  0  0
  136.7145   69.5770  224.7604 H   0  0  0  0  0  0  0  0  0  0  0  0
  140.9909   71.1954  225.8535 H   0  0  0  0  0  0  0  0  0  0  0  0
  139.3105   71.2444  226.4348 H   0  0  0  0  0  0  0  0  0  0  0  0
  141.8505   70.5208  227.9526 H   0  0  0  0  0  0  0  0  0  0  0  0
  140.5948   71.7043  228.3973 H   0  0  0  0  0  0  0  0  0  0  0  0
  141.7810   68.6168  228.7391 H   0  0  0  0  0  0  0  0  0  0  0  0
  140.2341   67.7256  228.9461 H   0  0  0  0  0  0  0  0  0  0  0  0
  141.7490   68.0923  226.5893 H   0  0  0  0  0  0  0  0  0  0  0  0
  140.1017   67.3325  226.7960 H   0  0  0  0  0  0  0  0  0  0  0  0
  140.6327   70.7209  223.4555 H   0  0  0  0  0  0  0  0  0  0  0  0
  140.0911   76.6598  223.0617 H   0  0  0  0  0  0  0  0  0  0  0  0
  142.4443   80.1294  220.7665 H   0  0  0  0  0  0  0  0  0  0  0  0
  140.8854   79.5841  220.1480 H   0  0  0  0  0  0  0  0  0  0  0  0
  140.4705   81.7836  221.1846 H   0  0  0  0  0  0  0  0  0  0  0  0
  139.8262   80.6162  222.3462 H   0  0  0  0  0  0  0  0  0  0  0  0
  142.6589   81.8256  222.3402 H   0  0  0  0  0  0  0  0  0  0  0  0
  141.3344   82.2161  223.4985 H   0  0  0  0  0  0  0  0  0  0  0  0
  143.2947   80.1913  223.6593 H   0  0  0  0  0  0  0  0  0  0  0  0
  141.8633   80.5488  224.7585 H   0  0  0  0  0  0  0  0  0  0  0  0
  142.1957   78.1851  223.8681 H   0  0  0  0  0  0  0  0  0  0  0  0
  140.5576   79.0000  223.8081 H   0  0  0  0  0  0  0  0  0  0  0  0
  142.7906   77.7267  219.9387 H   0  0  0  0  0  0  0  0  0  0  0  0
  142.8192   75.4067  219.0893 H   0  0  0  0  0  0  0  0  0  0  0  0
  1  2  2  0
  2  3  1  0
  3  4  1  0
  4  5  1  0
  5  6  2  0
  6  7  1  0
  7  8  2  0
  8  9  1  0
  9 10  1  0
 10 11  2  0
 10 12  1  0
 12 13  1  0
 13 14  1  0
 14 15  1  0
 15 16  1  0
 16 17  1  0
  9 18  2  0
  4 19  2  0
 19 20  1  0
 20 21  2  0
 21 22  1  0
 22 23  1  0
 23 24  1  0
 24 25  1  0
 25 26  1  0
 26 27  1  0
 27 28  1  0
 22 29  2  0
 29 30  1  0
 30 31  2  0
 31  2  1  0
 18  5  1  0
 31 20  1  0
 17 12  1  0
 28 23  1  0
  3 32  1  0
  3 33  1  0
  6 34  1  0
  7 35  1  0
  8 36  1  0
 13 37  1  0
 13 38  1  0
 14 39  1  0
 14 40  1  0
 16 41  1  0
 16 42  1  0
 17 43  1  0
 17 44  1  0
 18 45  1  0
 21 46  1  0
 24 47  1  0
 24 48  1  0
 25 49  1  0
 25 50  1  0
 26 51  1  0
 26 52  1  0
 27 53  1  0
 27 54  1  0
 28 55  1  0
 28 56  1  0
 29 57  1  0
 30 58  1  0
M  END
>  <smiles>  (17) 
O=C1CC(c2cccc(C(=O)N3CCOCC3)c2)=Nc2cc(N3CCCCC3)ccc21

>  <score_type>  (17) 
oracle

>  <origin>  (17) 
autodockgpu

>  <m_score__min__energy>  (17) 
-9.7400000000000002

>  <m_primary>  (17) 
energy

>  <rmsd>  (17) 
6.803941688384166

>  <m_score__min__rmsd>  (17) 
6.803941688384166

>  <meeko>  (17) 
{"free_energy": -9.74, "intermolecular_energy": -10.64, "internal_energy": -0.97, "cluster_size": 48, "cluster_id": 1, "rank_in_cluster": 1}

>  <energy>  (17) 
-9.74

>  <cluster_rmsd>  (17) 
0.08

>  <cluster>  (17) 
1

$$$$

     RDKit          3D

 58 62  0  0  0  0  0  0  0  0999 V2000
  142.1220   73.0380  219.1640 O   0  0  0  0  0  0  0  0  0  0  0  0
  141.4210   73.3210  220.1720 C   0  0  0  0  0  0  0  0  0  0  0  0
  140.6370   72.2400  220.8080 C   0  0  0  0  0  0  0  0  0  0  0  0
  139.8990   72.8070  221.9560 C   0  0  0  0  0  0  0  0  0  0  0  0
  139.0290   71.9010  222.7380 C   0  0  0  0  0  0  0  0  0  0  0  0
  137.6590   72.1040  222.7430 C   0  0  0  0  0  0  0  0  0  0  0  0
  136.8460   71.2630  223.4730 C   0  0  0  0  0  0  0  0  0  0  0  0
  137.3660   70.2280  224.1980 C   0  0  0  0  0  0  0  0  0  0  0  0
  138.7410   69.9950  224.2140 C   0  0  0  0  0  0  0  0  0  0  0  0
  139.3220   68.9150  224.9760 C   0  0  0  0  0  0  0  0  0  0  0  0
  139.1850   67.7060  224.6410 O   0  0  0  0  0  0  0  0  0  0  0  0
  140.0760   69.2800  226.1490 N   0  0  0  0  0  0  0  0  0  0  0  0
  140.2340   70.6870  226.5370 C   0  0  0  0  0  0  0  0  0  0  0  0
  140.7310   70.7020  227.9570 C   0  0  0  0  0  0  0  0  0  0  0  0
  140.0460   69.6980  228.6530 O   0  0  0  0  0  0  0  0  0  0  0  0
  140.6990   68.5150  228.4150 C   0  0  0  0  0  0  0  0  0  0  0  0
  140.6830   68.2190  226.9480 C   0  0  0  0  0  0  0  0  0  0  0  0
  139.5270   70.8620  223.4660 C   0  0  0  0  0  0  0  0  0  0  0  0
  139.9310   74.0250  222.3400 N   0  0  0  0  0  0  0  0  0  0  0  0
  140.6820   75.0700  221.7390 C   0  0  0  0  0  0  0  0  0  0  0  0
  140.6910   76.3670  222.1810 C   0  0  0  0  0  0  0  0  0  0  0  0
  141.4440   77.3300  221.5440 C   0  0  0  0  0  0  0  0  0  0  0  0
  141.4820   78.6930  221.9830 N   0  0  0  0  0  0  0  0  0  0  0  0
  141.4610   79.8080  221.0580 C   0  0  0  0  0  0  0  0  0  0  0  0
  140.7740   80.9440  221.8270 C   0  0  0  0  0  0  0  0  0  0  0  0
  141.7860   81.4090  222.8620 C   0  0  0  0  0  0  0  0  0  0  0  0
  142.1790   80.2750  223.7450 C   0  0  0  0  0  0  0  0  0  0  0  0
  141.5550   78.9610  223.4060 C   0  0  0  0  0  0  0  0  0  0  0  0
  142.1850   76.9380  220.4510 C   0  0  0  0  0  0  0  0  0  0  0  0
  142.2080   75.6440  219.9680 C   0  0  0  0  0  0  0  0  0  0  0  0
  141.4460   74.6990  220.6240 C   0  0  0  0  0  0  0  0  0  0  0  0
  139.9261   71.8205  220.0809 H   0  0  0  0  0  0  0  0  0  0  0  0
  141.3091   71.4396  221.1510 H   0  0  0  0  0  0  0  0  0  0  0  0
  137.2213   72.9327  222.1670 H   0  0  0  0  0  0  0  0  0  0  0  0
  135.7585   71.4283  223.4718 H   0  0  0  0  0  0  0  0  0  0  0  0
  136.6949   69.5735  224.7735 H   0  0  0  0  0  0  0  0  0  0  0  0
  140.9626   71.1807  225.8771 H   0  0  0  0  0  0  0  0  0  0  0  0
  139.2790   71.2261  226.4511 H   0  0  0  0  0  0  0  0  0  0  0  0
  141.8126   70.5030  227.9785 H   0  0  0  0  0  0  0  0  0  0  0  0
  140.5537   71.6842  228.4194 H   0  0  0  0  0  0  0  0  0  0  0  0
  141.7401   68.5955  228.7609 H   0  0  0  0  0  0  0  0  0  0  0  0
  140.1927   67.7028  228.9571 H   0  0  0  0  0  0  0  0  0  0  0  0
  141.7200   68.0774  226.6095 H   0  0  0  0  0  0  0  0  0  0  0  0
  140.0722   67.3153  226.8056 H   0  0  0  0  0  0  0  0  0  0  0  0
  140.6151   70.7006  223.4608 H   0  0  0  0  0  0  0  0  0  0  0  0
  140.0877   76.6441  223.0581 H   0  0  0  0  0  0  0  0  0  0  0  0
  142.4843   80.0955  220.7748 H   0  0  0  0  0  0  0  0  0  0  0  0
  140.9348   79.5620  220.1239 H   0  0  0  0  0  0  0  0  0  0  0  0
  140.5161   81.7678  221.1453 H   0  0  0  0  0  0  0  0  0  0  0  0
  139.8372   80.6090  222.2962 H   0  0  0  0  0  0  0  0  0  0  0  0
  142.6787   81.7958  222.3487 H   0  0  0  0  0  0  0  0  0  0  0  0
  141.3324   82.2009  223.4762 H   0  0  0  0  0  0  0  0  0  0  0  0
  143.2712   80.1590  223.6846 H   0  0  0  0  0  0  0  0  0  0  0  0
  141.8203   80.5332  224.7523 H   0  0  0  0  0  0  0  0  0  0  0  0
  142.1483   78.1641  223.8782 H   0  0  0  0  0  0  0  0  0  0  0  0
  140.5201   78.9947  223.7772 H   0  0  0  0  0  0  0  0  0  0  0  0
  142.7915   77.6967  219.9347 H   0  0  0  0  0  0  0  0  0  0  0  0
  142.8136   75.3759  219.0897 H   0  0  0  0  0  0  0  0  0  0  0  0
  1  2  2  0
  2  3  1  0
  3  4  1  0
  4  5  1  0
  5  6  2  0
  6  7  1  0
  7  8  2  0
  8  9  1  0
  9 10  1  0
 10 11  2  0
 10 12  1  0
 12 13  1  0
 13 14  1  0
 14 15  1  0
 15 16  1  0
 16 17  1  0
  9 18  2  0
  4 19  2  0
 19 20  1  0
 20 21  2  0
 21 22  1  0
 22 23  1  0
 23 24  1  0
 24 25  1  0
 25 26  1  0
 26 27  1  0
 27 28  1  0
 22 29  2  0
 29 30  1  0
 30 31  2  0
 31  2  1  0
 18  5  1  0
 31 20  1  0
 17 12  1  0
 28 23  1  0
  3 32  1  0
  3 33  1  0
  6 34  1  0
  7 35  1  0
  8 36  1  0
 13 37  1  0
 13 38  1  0
 14 39  1  0
 14 40  1  0
 16 41  1  0
 16 42  1  0
 17 43  1  0
 17 44  1  0
 18 45  1  0
 21 46  1  0
 24 47  1  0
 24 48  1  0
 25 49  1  0
 25 50  1  0
 26 51  1  0
 26 52  1  0
 27 53  1  0
 27 54  1  0
 28 55  1  0
 28 56  1  0
 29 57  1  0
 30 58  1  0
M  END
>  <smiles>  (18) 
O=C1CC(c2cccc(C(=O)N3CCOCC3)c2)=Nc2cc(N3CCCCC3)ccc21

>  <score_type>  (18) 
oracle

>  <origin>  (18) 
autodockgpu

>  <m_score__min__energy>  (18) 
-9.7400000000000002

>  <m_primary>  (18) 
energy

>  <rmsd>  (18) 
6.804528847924063

>  <m_score__min__rmsd>  (18) 
6.804528847924063

>  <meeko>  (18) 
{"free_energy": -9.73, "intermolecular_energy": -10.63, "internal_energy": -0.97, "cluster_size": 48, "cluster_id": 1, "rank_in_cluster": 21}

>  <energy>  (18) 
-9.74

>  <cluster_rmsd>  (18) 
0.08

>  <cluster>  (18) 
1

$$$$

     RDKit          3D

 58 62  0  0  0  0  0  0  0  0999 V2000
  142.1180   73.0370  219.1650 O   0  0  0  0  0  0  0  0  0  0  0  0
  141.4170   73.3190  220.1740 C   0  0  0  0  0  0  0  0  0  0  0  0
  140.6360   72.2370  220.8110 C   0  0  0  0  0  0  0  0  0  0  0  0
  139.8980   72.8030  221.9600 C   0  0  0  0  0  0  0  0  0  0  0  0
  139.0310   71.8950  222.7430 C   0  0  0  0  0  0  0  0  0  0  0  0
  137.6600   72.0970  222.7490 C   0  0  0  0  0  0  0  0  0  0  0  0
  136.8490   71.2540  223.4810 C   0  0  0  0  0  0  0  0  0  0  0  0
  137.3720   70.2200  224.2050 C   0  0  0  0  0  0  0  0  0  0  0  0
  138.7470   69.9890  224.2200 C   0  0  0  0  0  0  0  0  0  0  0  0
  139.3300   68.9100  224.9810 C   0  0  0  0  0  0  0  0  0  0  0  0
  139.1930   67.7010  224.6470 O   0  0  0  0  0  0  0  0  0  0  0  0
  140.0870   69.2770  226.1530 N   0  0  0  0  0  0  0  0  0  0  0  0
  140.2440   70.6840  226.5390 C   0  0  0  0  0  0  0  0  0  0  0  0
  140.7440   70.7000  227.9590 C   0  0  0  0  0  0  0  0  0  0  0  0
  140.0610   69.6970  228.6560 O   0  0  0  0  0  0  0  0  0  0  0  0
  140.7140   68.5140  228.4180 C   0  0  0  0  0  0  0  0  0  0  0  0
  140.6950   68.2170  226.9510 C   0  0  0  0  0  0  0  0  0  0  0  0
  139.5310   70.8570  223.4710 C   0  0  0  0  0  0  0  0  0  0  0  0
  139.9300   74.0210  222.3440 N   0  0  0  0  0  0  0  0  0  0  0  0
  140.6790   75.0660  221.7430 C   0  0  0  0  0  0  0  0  0  0  0  0
  140.6870   76.3630  222.1850 C   0  0  0  0  0  0  0  0  0  0  0  0
  141.4380   77.3270  221.5470 C   0  0  0  0  0  0  0  0  0  0  0  0
  141.4750   78.6910  221.9860 N   0  0  0  0  0  0  0  0  0  0  0  0
  141.4210   79.8050  221.0630 C   0  0  0  0  0  0  0  0  0  0  0  0
  140.7430   80.9350  221.8500 C   0  0  0  0  0  0  0  0  0  0  0  0
  141.7780   81.4080  222.8600 C   0  0  0  0  0  0  0  0  0  0  0  0
  142.2020   80.2770  223.7320 C   0  0  0  0  0  0  0  0  0  0  0  0
  141.5820   78.9580  223.4070 C   0  0  0  0  0  0  0  0  0  0  0  0
  142.1780   76.9360  220.4530 C   0  0  0  0  0  0  0  0  0  0  0  0
  142.2020   75.6430  219.9700 C   0  0  0  0  0  0  0  0  0  0  0  0
  141.4410   74.6970  220.6270 C   0  0  0  0  0  0  0  0  0  0  0  0
  139.9251   71.8159  220.0848 H   0  0  0  0  0  0  0  0  0  0  0  0
  141.3100   71.4380  221.1535 H   0  0  0  0  0  0  0  0  0  0  0  0
  137.2206   72.9249  222.1733 H   0  0  0  0  0  0  0  0  0  0  0  0
  135.7612   71.4175  223.4817 H   0  0  0  0  0  0  0  0  0  0  0  0
  136.7026   69.5642  224.7810 H   0  0  0  0  0  0  0  0  0  0  0  0
  140.9708   71.1780  225.8774 H   0  0  0  0  0  0  0  0  0  0  0  0
  139.2885   71.2224  226.4541 H   0  0  0  0  0  0  0  0  0  0  0  0
  141.8257   70.5013  227.9787 H   0  0  0  0  0  0  0  0  0  0  0  0
  140.5674   71.6824  228.4212 H   0  0  0  0  0  0  0  0  0  0  0  0
  141.7558   68.5952  228.7617 H   0  0  0  0  0  0  0  0  0  0  0  0
  140.2093   67.7020  228.9620 H   0  0  0  0  0  0  0  0  0  0  0  0
  141.7313   68.0750  226.6105 H   0  0  0  0  0  0  0  0  0  0  0  0
  140.0837   67.3134  226.8105 H   0  0  0  0  0  0  0  0  0  0  0  0
  140.6193   70.6973  223.4650 H   0  0  0  0  0  0  0  0  0  0  0  0
  140.0846   76.6394  223.0629 H   0  0  0  0  0  0  0  0  0  0  0  0
  142.4343   80.1018  220.7544 H   0  0  0  0  0  0  0  0  0  0  0  0
  140.8739   79.5546  220.1421 H   0  0  0  0  0  0  0  0  0  0  0  0
  140.4608   81.7570  221.1757 H   0  0  0  0  0  0  0  0  0  0  0  0
  139.8210   80.5920  222.3422 H   0  0  0  0  0  0  0  0  0  0  0  0
  142.6544   81.8020  222.3245 H   0  0  0  0  0  0  0  0  0  0  0  0
  141.3340   82.1961  223.4858 H   0  0  0  0  0  0  0  0  0  0  0  0
  143.2934   80.1708  223.6453 H   0  0  0  0  0  0  0  0  0  0  0  0
  141.8651   80.5312  224.7478 H   0  0  0  0  0  0  0  0  0  0  0  0
  142.1947   78.1661  223.8626 H   0  0  0  0  0  0  0  0  0  0  0  0
  140.5566   78.9817  223.8045 H   0  0  0  0  0  0  0  0  0  0  0  0
  142.7828   77.6955  219.9360 H   0  0  0  0  0  0  0  0  0  0  0  0
  142.8071   75.3755  219.0912 H   0  0  0  0  0  0  0  0  0  0  0  0
  1  2  2  0
  2  3  1  0
  3  4  1  0
  4  5  1  0
  5  6  2  0
  6  7  1  0
  7  8  2  0
  8  9  1  0
  9 10  1  0
 10 11  2  0
 10 12  1  0
 12 13  1  0
 13 14  1  0
 14 15  1  0
 15 16  1  0
 16 17  1  0
  9 18  2  0
  4 19  2  0
 19 20  1  0
 20 21  2  0
 21 22  1  0
 22 23  1  0
 23 24  1  0
 24 25  1  0
 25 26  1  0
 26 27  1  0
 27 28  1  0
 22 29  2  0
 29 30  1  0
 30 31  2  0
 31  2  1  0
 18  5  1  0
 31 20  1  0
 17 12  1  0
 28 23  1  0
  3 32  1  0
  3 33  1  0
  6 34  1  0
  7 35  1  0
  8 36  1  0
 13 37  1  0
 13 38  1  0
 14 39  1  0
 14 40  1  0
 16 41  1  0
 16 42  1  0
 17 43  1  0
 17 44  1  0
 18 45  1  0
 21 46  1  0
 24 47  1  0
 24 48  1  0
 25 49  1  0
 25 50  1  0
 26 51  1  0
 26 52  1  0
 27 53  1  0
 27 54  1  0
 28 55  1  0
 28 56  1  0
 29 57  1  0
 30 58  1  0
M  END
>  <smiles>  (19) 
O=C1CC(c2cccc(C(=O)N3CCOCC3)c2)=Nc2cc(N3CCCCC3)ccc21

>  <score_type>  (19) 
oracle

>  <origin>  (19) 
autodockgpu

>  <m_score__min__energy>  (19) 
-9.7400000000000002

>  <m_primary>  (19) 
energy

>  <rmsd>  (19) 
6.80526024219942

>  <m_score__min__rmsd>  (19) 
6.80526024219942

>  <meeko>  (19) 
{"free_energy": -9.74, "intermolecular_energy": -10.63, "internal_energy": -0.97, "cluster_size": 48, "cluster_id": 1, "rank_in_cluster": 14}

>  <energy>  (19) 
-9.73

>  <cluster_rmsd>  (19) 
0.03

>  <cluster>  (19) 
1

$$$$

     RDKit          3D

 58 62  0  0  0  0  0  0  0  0999 V2000
  142.0230   73.0840  219.0840 O   0  0  0  0  0  0  0  0  0  0  0  0
  141.3510   73.3590  220.1150 C   0  0  0  0  0  0  0  0  0  0  0  0
  140.5750   72.2770  220.7560 C   0  0  0  0  0  0  0  0  0  0  0  0
  139.8720   72.8340  221.9310 C   0  0  0  0  0  0  0  0  0  0  0  0
  139.0160   71.9240  222.7240 C   0  0  0  0  0  0  0  0  0  0  0  0
  137.6440   72.1140  222.7340 C   0  0  0  0  0  0  0  0  0  0  0  0
  136.8420   71.2700  223.4740 C   0  0  0  0  0  0  0  0  0  0  0  0
  137.3760   70.2450  224.2030 C   0  0  0  0  0  0  0  0  0  0  0  0
  138.7530   70.0260  224.2140 C   0  0  0  0  0  0  0  0  0  0  0  0
  139.3490   68.9570  224.9800 C   0  0  0  0  0  0  0  0  0  0  0  0
  139.2140   67.7430  224.6590 O   0  0  0  0  0  0  0  0  0  0  0  0
  140.1150   69.3380  226.1410 N   0  0  0  0  0  0  0  0  0  0  0  0
  140.2700   70.7490  226.5120 C   0  0  0  0  0  0  0  0  0  0  0  0
  140.7830   70.7820  227.9260 C   0  0  0  0  0  0  0  0  0  0  0  0
  140.1120   69.7820  228.6400 O   0  0  0  0  0  0  0  0  0  0  0  0
  140.7680   68.6000  228.4070 C   0  0  0  0  0  0  0  0  0  0  0  0
  140.7360   68.2880  226.9440 C   0  0  0  0  0  0  0  0  0  0  0  0
  139.5270   70.8950  223.4570 C   0  0  0  0  0  0  0  0  0  0  0  0
  139.9270   74.0460  222.3310 N   0  0  0  0  0  0  0  0  0  0  0  0
  140.6710   75.0920  221.7250 C   0  0  0  0  0  0  0  0  0  0  0  0
  140.7030   76.3830  222.1840 C   0  0  0  0  0  0  0  0  0  0  0  0
  141.4480   77.3480  221.5400 C   0  0  0  0  0  0  0  0  0  0  0  0
  141.5100   78.7050  221.9970 N   0  0  0  0  0  0  0  0  0  0  0  0
  141.4750   79.0540  223.4020 C   0  0  0  0  0  0  0  0  0  0  0  0
  142.2830   80.3540  223.5040 C   0  0  0  0  0  0  0  0  0  0  0  0
  141.4050   81.4320  222.8870 C   0  0  0  0  0  0  0  0  0  0  0  0
  141.0650   81.0780  221.4800 C   0  0  0  0  0  0  0  0  0  0  0  0
  141.5990   79.7640  221.0100 C   0  0  0  0  0  0  0  0  0  0  0  0
  142.1560   76.9650  220.4230 C   0  0  0  0  0  0  0  0  0  0  0  0
  142.1550   75.6780  219.9220 C   0  0  0  0  0  0  0  0  0  0  0  0
  141.4010   74.7300  220.5850 C   0  0  0  0  0  0  0  0  0  0  0  0
  139.8417   71.8737  220.0421 H   0  0  0  0  0  0  0  0  0  0  0  0
  141.2488   71.4664  221.0703 H   0  0  0  0  0  0  0  0  0  0  0  0
  137.1958   72.9344  222.1543 H   0  0  0  0  0  0  0  0  0  0  0  0
  135.7530   71.4249  223.4773 H   0  0  0  0  0  0  0  0  0  0  0  0
  136.7143   69.5874  224.7858 H   0  0  0  0  0  0  0  0  0  0  0  0
  140.9885   71.2393  225.8386 H   0  0  0  0  0  0  0  0  0  0  0  0
  139.3112   71.2822  226.4313 H   0  0  0  0  0  0  0  0  0  0  0  0
  141.8659   70.5894  227.9373 H   0  0  0  0  0  0  0  0  0  0  0  0
  140.6053   71.7681  228.3799 H   0  0  0  0  0  0  0  0  0  0  0  0
  141.8127   68.6895  228.7394 H   0  0  0  0  0  0  0  0  0  0  0  0
  140.2723   67.7912  228.9639 H   0  0  0  0  0  0  0  0  0  0  0  0
  141.7695   68.1470  226.5947 H   0  0  0  0  0  0  0  0  0  0  0  0
  140.1275   67.3802  226.8186 H   0  0  0  0  0  0  0  0  0  0  0  0
  140.6166   70.7441  223.4483 H   0  0  0  0  0  0  0  0  0  0  0  0
  140.1253   76.6535  223.0802 H   0  0  0  0  0  0  0  0  0  0  0  0
  140.4392   79.2146  223.7355 H   0  0  0  0  0  0  0  0  0  0  0  0
  141.8888   78.2574  224.0378 H   0  0  0  0  0  0  0  0  0  0  0  0
  142.4985   80.5904  224.5565 H   0  0  0  0  0  0  0  0  0  0  0  0
  143.2508   80.2728  222.9874 H   0  0  0  0  0  0  0  0  0  0  0  0
  140.4782   81.5244  223.4722 H   0  0  0  0  0  0  0  0  0  0  0  0
  141.9514   82.3867  222.8942 H   0  0  0  0  0  0  0  0  0  0  0  0
  139.9690   81.0520  221.3905 H   0  0  0  0  0  0  0  0  0  0  0  0
  141.5382   81.8444  220.8485 H   0  0  0  0  0  0  0  0  0  0  0  0
  141.0291   79.4570  220.1206 H   0  0  0  0  0  0  0  0  0  0  0  0
  142.6680   79.9122  220.7971 H   0  0  0  0  0  0  0  0  0  0  0  0
  142.7552   77.7256  219.9011 H   0  0  0  0  0  0  0  0  0  0  0  0
  142.7354   75.4168  219.0248 H   0  0  0  0  0  0  0  0  0  0  0  0
  1  2  2  0
  2  3  1  0
  3  4  1  0
  4  5  1  0
  5  6  2  0
  6  7  1  0
  7  8  2  0
  8  9  1  0
  9 10  1  0
 10 11  2  0
 10 12  1  0
 12 13  1  0
 13 14  1  0
 14 15  1  0
 15 16  1  0
 16 17  1  0
  9 18  2  0
  4 19  2  0
 19 20  1  0
 20 21  2  0
 21 22  1  0
 22 23  1  0
 23 24  1  0
 24 25  1  0
 25 26  1  0
 26 27  1  0
 27 28  1  0
 22 29  2  0
 29 30  1  0
 30 31  2  0
 31  2  1  0
 18  5  1  0
 31 20  1  0
 17 12  1  0
 28 23  1  0
  3 32  1  0
  3 33  1  0
  6 34  1  0
  7 35  1  0
  8 36  1  0
 13 37  1  0
 13 38  1  0
 14 39  1  0
 14 40  1  0
 16 41  1  0
 16 42  1  0
 17 43  1  0
 17 44  1  0
 18 45  1  0
 21 46  1  0
 24 47  1  0
 24 48  1  0
 25 49  1  0
 25 50  1  0
 26 51  1  0
 26 52  1  0
 27 53  1  0
 27 54  1  0
 28 55  1  0
 28 56  1  0
 29 57  1  0
 30 58  1  0
M  END
>  <smiles>  (20) 
O=C1CC(c2cccc(C(=O)N3CCOCC3)c2)=Nc2cc(N3CCCCC3)ccc21

>  <score_type>  (20) 
oracle

>  <origin>  (20) 
autodockgpu

>  <m_score__min__energy>  (20) 
-9.7400000000000002

>  <m_primary>  (20) 
energy

>  <rmsd>  (20) 
6.5681638208729005

>  <m_score__min__rmsd>  (20) 
6.5681638208729005

>  <meeko>  (20) 
{"free_energy": -9.69, "intermolecular_energy": -10.59, "internal_energy": -0.97, "cluster_size": 48, "cluster_id": 1, "rank_in_cluster": 40}

>  <energy>  (20) 
-9.73

>  <cluster_rmsd>  (20) 
0.09

>  <cluster>  (20) 
1

$$$$

     RDKit          3D

 58 62  0  0  0  0  0  0  0  0999 V2000
  142.1660   73.0340  219.1740 O   0  0  0  0  0  0  0  0  0  0  0  0
  141.4550   73.3240  220.1740 C   0  0  0  0  0  0  0  0  0  0  0  0
  140.6710   72.2460  220.8130 C   0  0  0  0  0  0  0  0  0  0  0  0
  139.9220   72.8200  221.9500 C   0  0  0  0  0  0  0  0  0  0  0  0
  139.0500   71.9170  222.7340 C   0  0  0  0  0  0  0  0  0  0  0  0
  137.6810   72.1300  222.7460 C   0  0  0  0  0  0  0  0  0  0  0  0
  136.8650   71.2920  223.4780 C   0  0  0  0  0  0  0  0  0  0  0  0
  137.3820   70.2510  224.1960 C   0  0  0  0  0  0  0  0  0  0  0  0
  138.7550   70.0090  224.2060 C   0  0  0  0  0  0  0  0  0  0  0  0
  139.3320   68.9220  224.9610 C   0  0  0  0  0  0  0  0  0  0  0  0
  139.1830   67.7150  224.6240 O   0  0  0  0  0  0  0  0  0  0  0  0
  140.0960   69.2780  226.1300 N   0  0  0  0  0  0  0  0  0  0  0  0
  140.2670   70.6830  226.5210 C   0  0  0  0  0  0  0  0  0  0  0  0
  140.7730   70.6900  227.9380 C   0  0  0  0  0  0  0  0  0  0  0  0
  140.0840   69.6900  228.6350 O   0  0  0  0  0  0  0  0  0  0  0  0
  140.7260   68.5030  228.3910 C   0  0  0  0  0  0  0  0  0  0  0  0
  140.6990   68.2100  226.9230 C   0  0  0  0  0  0  0  0  0  0  0  0
  139.5430   70.8720  223.4570 C   0  0  0  0  0  0  0  0  0  0  0  0
  139.9470   74.0410  222.3240 N   0  0  0  0  0  0  0  0  0  0  0  0
  140.6980   75.0830  221.7200 C   0  0  0  0  0  0  0  0  0  0  0  0
  140.6980   76.3840  222.1500 C   0  0  0  0  0  0  0  0  0  0  0  0
  141.4530   77.3440  221.5100 C   0  0  0  0  0  0  0  0  0  0  0  0
  141.4820   78.7120  221.9370 N   0  0  0  0  0  0  0  0  0  0  0  0
  141.4230   79.8180  221.0040 C   0  0  0  0  0  0  0  0  0  0  0  0
  140.7390   80.9510  221.7810 C   0  0  0  0  0  0  0  0  0  0  0  0
  141.7700   81.4390  222.7870 C   0  0  0  0  0  0  0  0  0  0  0  0
  142.2000   80.3170  223.6700 C   0  0  0  0  0  0  0  0  0  0  0  0
  141.5870   78.9920  223.3560 C   0  0  0  0  0  0  0  0  0  0  0  0
  142.2040   76.9450  220.4260 C   0  0  0  0  0  0  0  0  0  0  0  0
  142.2360   75.6480  219.9560 C   0  0  0  0  0  0  0  0  0  0  0  0
  141.4720   74.7050  220.6140 C   0  0  0  0  0  0  0  0  0  0  0  0
  139.9675   71.8171  220.0842 H   0  0  0  0  0  0  0  0  0  0  0  0
  141.3436   71.4514  221.1682 H   0  0  0  0  0  0  0  0  0  0  0  0
  137.2466   72.9635  222.1745 H   0  0  0  0  0  0  0  0  0  0  0  0
  135.7787   71.4652  223.4835 H   0  0  0  0  0  0  0  0  0  0  0  0
  136.7091   69.5981  224.7712 H   0  0  0  0  0  0  0  0  0  0  0  0
  140.9952   71.1731  225.8580 H   0  0  0  0  0  0  0  0  0  0  0  0
  139.3156   71.2296  226.4425 H   0  0  0  0  0  0  0  0  0  0  0  0
  141.8530   70.4819  227.9523 H   0  0  0  0  0  0  0  0  0  0  0  0
  140.6069   71.6724  228.4042 H   0  0  0  0  0  0  0  0  0  0  0  0
  141.7697   68.5747  228.7309 H   0  0  0  0  0  0  0  0  0  0  0  0
  140.2165   67.6936  228.9345 H   0  0  0  0  0  0  0  0  0  0  0  0
  141.7328   68.0606  226.5781 H   0  0  0  0  0  0  0  0  0  0  0  0
  140.0801   67.3116  226.7822 H   0  0  0  0  0  0  0  0  0  0  0  0
  140.6298   70.7025  223.4463 H   0  0  0  0  0  0  0  0  0  0  0  0
  140.0862   76.6670  223.0193 H   0  0  0  0  0  0  0  0  0  0  0  0
  142.4349   80.1172  220.6934 H   0  0  0  0  0  0  0  0  0  0  0  0
  140.8778   79.5570  220.0849 H   0  0  0  0  0  0  0  0  0  0  0  0
  140.4525   81.7654  221.0993 H   0  0  0  0  0  0  0  0  0  0  0  0
  139.8190   80.6068  222.2761 H   0  0  0  0  0  0  0  0  0  0  0  0
  142.6445   81.8332  222.2487 H   0  0  0  0  0  0  0  0  0  0  0  0
  141.3212   82.2303  223.4054 H   0  0  0  0  0  0  0  0  0  0  0  0
  143.2920   80.2158  223.5848 H   0  0  0  0  0  0  0  0  0  0  0  0
  141.8615   80.5783  224.6835 H   0  0  0  0  0  0  0  0  0  0  0  0
  142.2036   78.2073  223.8187 H   0  0  0  0  0  0  0  0  0  0  0  0
  140.5613   79.0139  223.7528 H   0  0  0  0  0  0  0  0  0  0  0  0
  142.8110   77.7014  219.9070 H   0  0  0  0  0  0  0  0  0  0  0  0
  142.8502   75.3744  219.0854 H   0  0  0  0  0  0  0  0  0  0  0  0
  1  2  2  0
  2  3  1  0
  3  4  1  0
  4  5  1  0
  5  6  2  0
  6  7  1  0
  7  8  2  0
  8  9  1  0
  9 10  1  0
 10 11  2  0
 10 12  1  0
 12 13  1  0
 13 14  1  0
 14 15  1  0
 15 16  1  0
 16 17  1  0
  9 18  2  0
  4 19  2  0
 19 20  1  0
 20 21  2  0
 21 22  1  0
 22 23  1  0
 23 24  1  0
 24 25  1  0
 25 26  1  0
 26 27  1  0
 27 28  1  0
 22 29  2  0
 29 30  1  0
 30 31  2  0
 31  2  1  0
 18  5  1  0
 31 20  1  0
 17 12  1  0
 28 23  1  0
  3 32  1  0
  3 33  1  0
  6 34  1  0
  7 35  1  0
  8 36  1  0
 13 37  1  0
 13 38  1  0
 14 39  1  0
 14 40  1  0
 16 41  1  0
 16 42  1  0
 17 43  1  0
 17 44  1  0
 18 45  1  0
 21 46  1  0
 24 47  1  0
 24 48  1  0
 25 49  1  0
 25 50  1  0
 26 51  1  0
 26 52  1  0
 27 53  1  0
 27 54  1  0
 28 55  1  0
 28 56  1  0
 29 57  1  0
 30 58  1  0
M  END
>  <smiles>  (21) 
O=C1CC(c2cccc(C(=O)N3CCOCC3)c2)=Nc2cc(N3CCCCC3)ccc21

>  <score_type>  (21) 
oracle

>  <origin>  (21) 
autodockgpu

>  <m_score__min__energy>  (21) 
-9.7400000000000002

>  <m_primary>  (21) 
energy

>  <rmsd>  (21) 
6.79551915190335

>  <m_score__min__rmsd>  (21) 
6.79551915190335

>  <meeko>  (21) 
{"free_energy": -9.72, "intermolecular_energy": -10.61, "internal_energy": -0.97, "cluster_size": 48, "cluster_id": 1, "rank_in_cluster": 36}

>  <energy>  (21) 
-9.73

>  <cluster_rmsd>  (21) 
0.03

>  <cluster>  (21) 
1

$$$$

     RDKit          3D

 58 62  0  0  0  0  0  0  0  0999 V2000
  142.1040   73.0780  219.1490 O   0  0  0  0  0  0  0  0  0  0  0  0
  141.4100   73.3570  220.1640 C   0  0  0  0  0  0  0  0  0  0  0  0
  140.6290   72.2740  220.7980 C   0  0  0  0  0  0  0  0  0  0  0  0
  139.8990   72.8350  221.9550 C   0  0  0  0  0  0  0  0  0  0  0  0
  139.0330   71.9260  222.7380 C   0  0  0  0  0  0  0  0  0  0  0  0
  137.6620   72.1270  222.7450 C   0  0  0  0  0  0  0  0  0  0  0  0
  136.8520   71.2830  223.4760 C   0  0  0  0  0  0  0  0  0  0  0  0
  137.3760   70.2470  224.1980 C   0  0  0  0  0  0  0  0  0  0  0  0
  138.7510   70.0180  224.2110 C   0  0  0  0  0  0  0  0  0  0  0  0
  139.3350   68.9380  224.9710 C   0  0  0  0  0  0  0  0  0  0  0  0
  139.1990   67.7280  224.6340 O   0  0  0  0  0  0  0  0  0  0  0  0
  140.0920   69.3030  226.1420 N   0  0  0  0  0  0  0  0  0  0  0  0
  140.2490   70.7090  226.5310 C   0  0  0  0  0  0  0  0  0  0  0  0
  140.7490   70.7230  227.9500 C   0  0  0  0  0  0  0  0  0  0  0  0
  140.0680   69.7180  228.6460 O   0  0  0  0  0  0  0  0  0  0  0  0
  140.7220   68.5370  228.4060 C   0  0  0  0  0  0  0  0  0  0  0  0
  140.7020   68.2420  226.9390 C   0  0  0  0  0  0  0  0  0  0  0  0
  139.5340   70.8870  223.4630 C   0  0  0  0  0  0  0  0  0  0  0  0
  139.9370   74.0510  222.3460 N   0  0  0  0  0  0  0  0  0  0  0  0
  140.6870   75.0970  221.7470 C   0  0  0  0  0  0  0  0  0  0  0  0
  140.7010   76.3910  222.1970 C   0  0  0  0  0  0  0  0  0  0  0  0
  141.4530   77.3570  221.5610 C   0  0  0  0  0  0  0  0  0  0  0  0
  141.4960   78.7170  222.0080 N   0  0  0  0  0  0  0  0  0  0  0  0
  141.4120   79.0780  223.4080 C   0  0  0  0  0  0  0  0  0  0  0  0
  142.2140   80.3810  223.5280 C   0  0  0  0  0  0  0  0  0  0  0  0
  141.3570   81.4510  222.8720 C   0  0  0  0  0  0  0  0  0  0  0  0
  141.0670   81.0850  221.4570 C   0  0  0  0  0  0  0  0  0  0  0  0
  141.6180   79.7680  221.0160 C   0  0  0  0  0  0  0  0  0  0  0  0
  142.1850   76.9700  220.4600 C   0  0  0  0  0  0  0  0  0  0  0  0
  142.2020   75.6790  219.9690 C   0  0  0  0  0  0  0  0  0  0  0  0
  141.4420   74.7320  220.6250 C   0  0  0  0  0  0  0  0  0  0  0  0
  139.9127   71.8601  220.0730 H   0  0  0  0  0  0  0  0  0  0  0  0
  141.3021   71.4705  221.1316 H   0  0  0  0  0  0  0  0  0  0  0  0
  137.2218   72.9554  222.1705 H   0  0  0  0  0  0  0  0  0  0  0  0
  135.7642   71.4465  223.4781 H   0  0  0  0  0  0  0  0  0  0  0  0
  136.7076   69.5892  224.7730 H   0  0  0  0  0  0  0  0  0  0  0  0
  140.9756   71.2043  225.8702 H   0  0  0  0  0  0  0  0  0  0  0  0
  139.2932   71.2470  226.4477 H   0  0  0  0  0  0  0  0  0  0  0  0
  141.8310   70.5258  227.9689 H   0  0  0  0  0  0  0  0  0  0  0  0
  140.5708   71.7044  228.4138 H   0  0  0  0  0  0  0  0  0  0  0  0
  141.7640   68.6192  228.7488 H   0  0  0  0  0  0  0  0  0  0  0  0
  140.2190   67.7236  228.9494 H   0  0  0  0  0  0  0  0  0  0  0  0
  141.7381   68.1013  226.5975 H   0  0  0  0  0  0  0  0  0  0  0  0
  140.0912   67.3381  226.7980 H   0  0  0  0  0  0  0  0  0  0  0  0
  140.6223   70.7273  223.4553 H   0  0  0  0  0  0  0  0  0  0  0  0
  140.1033   76.6639  223.0792 H   0  0  0  0  0  0  0  0  0  0  0  0
  140.3649   79.2393  223.7041 H   0  0  0  0  0  0  0  0  0  0  0  0
  141.8053   78.2875  224.0641 H   0  0  0  0  0  0  0  0  0  0  0  0
  142.3917   80.6264  224.5855 H   0  0  0  0  0  0  0  0  0  0  0  0
  143.1997   80.2977  223.0469 H   0  0  0  0  0  0  0  0  0  0  0  0
  140.4101   81.5463  223.4236 H   0  0  0  0  0  0  0  0  0  0  0  0
  141.9013   82.4067  222.8903 H   0  0  0  0  0  0  0  0  0  0  0  0
  139.9748   81.0571  221.3295 H   0  0  0  0  0  0  0  0  0  0  0  0
  141.5619   81.8467  220.8366 H   0  0  0  0  0  0  0  0  0  0  0  0
  141.0792   79.4532  220.1101 H   0  0  0  0  0  0  0  0  0  0  0  0
  142.6935   79.9156  220.8385 H   0  0  0  0  0  0  0  0  0  0  0  0
  142.7890   77.7306  219.9436 H   0  0  0  0  0  0  0  0  0  0  0  0
  142.8010   75.4147  219.0851 H   0  0  0  0  0  0  0  0  0  0  0  0
  1  2  2  0
  2  3  1  0
  3  4  1  0
  4  5  1  0
  5  6  2  0
  6  7  1  0
  7  8  2  0
  8  9  1  0
  9 10  1  0
 10 11  2  0
 10 12  1  0
 12 13  1  0
 13 14  1  0
 14 15  1  0
 15 16  1  0
 16 17  1  0
  9 18  2  0
  4 19  2  0
 19 20  1  0
 20 21  2  0
 21 22  1  0
 22 23  1  0
 23 24  1  0
 24 25  1  0
 25 26  1  0
 26 27  1  0
 27 28  1  0
 22 29  2  0
 29 30  1  0
 30 31  2  0
 31  2  1  0
 18  5  1  0
 31 20  1  0
 17 12  1  0
 28 23  1  0
  3 32  1  0
  3 33  1  0
  6 34  1  0
  7 35  1  0
  8 36  1  0
 13 37  1  0
 13 38  1  0
 14 39  1  0
 14 40  1  0
 16 41  1  0
 16 42  1  0
 17 43  1  0
 17 44  1  0
 18 45  1  0
 21 46  1  0
 24 47  1  0
 24 48  1  0
 25 49  1  0
 25 50  1  0
 26 51  1  0
 26 52  1  0
 27 53  1  0
 27 54  1  0
 28 55  1  0
 28 56  1  0
 29 57  1  0
 30 58  1  0
M  END
>  <smiles>  (22) 
O=C1CC(c2cccc(C(=O)N3CCOCC3)c2)=Nc2cc(N3CCCCC3)ccc21

>  <score_type>  (22) 
oracle

>  <origin>  (22) 
autodockgpu

>  <m_score__min__energy>  (22) 
-9.7400000000000002

>  <m_primary>  (22) 
energy

>  <rmsd>  (22) 
6.572898908630353

>  <m_score__min__rmsd>  (22) 
6.572898908630353

>  <meeko>  (22) 
{"free_energy": -9.7, "intermolecular_energy": -10.6, "internal_energy": -0.97, "cluster_size": 48, "cluster_id": 1, "rank_in_cluster": 38}

>  <energy>  (22) 
-9.73

>  <cluster_rmsd>  (22) 
0.02

>  <cluster>  (22) 
1

$$$$

     RDKit          3D

 58 62  0  0  0  0  0  0  0  0999 V2000
  137.1480   72.2840  220.8170 O   0  0  0  0  0  0  0  0  0  0  0  0
  138.2710   72.6130  221.2840 C   0  0  0  0  0  0  0  0  0  0  0  0
  139.0410   73.6640  220.5860 C   0  0  0  0  0  0  0  0  0  0  0  0
  140.3140   73.8730  221.3080 C   0  0  0  0  0  0  0  0  0  0  0  0
  141.2580   74.8790  220.7740 C   0  0  0  0  0  0  0  0  0  0  0  0
  142.4910   74.4710  220.2920 C   0  0  0  0  0  0  0  0  0  0  0  0
  143.3750   75.4060  219.7960 C   0  0  0  0  0  0  0  0  0  0  0  0
  143.0590   76.7360  219.7700 C   0  0  0  0  0  0  0  0  0  0  0  0
  141.8260   77.1800  220.2470 C   0  0  0  0  0  0  0  0  0  0  0  0
  141.4660   78.5780  220.2420 C   0  0  0  0  0  0  0  0  0  0  0  0
  141.1980   79.1990  219.1750 O   0  0  0  0  0  0  0  0  0  0  0  0
  141.4240   79.2430  221.5200 N   0  0  0  0  0  0  0  0  0  0  0  0
  141.7370   78.5190  222.7580 C   0  0  0  0  0  0  0  0  0  0  0  0
  141.9640   79.5510  223.8290 C   0  0  0  0  0  0  0  0  0  0  0  0
  142.6850   80.6040  223.2530 O   0  0  0  0  0  0  0  0  0  0  0  0
  141.7820   81.4240  222.6250 C   0  0  0  0  0  0  0  0  0  0  0  0
  141.0630   80.6580  221.5600 C   0  0  0  0  0  0  0  0  0  0  0  0
  140.9630   76.2090  220.7380 C   0  0  0  0  0  0  0  0  0  0  0  0
  140.6880   73.2550  222.3620 N   0  0  0  0  0  0  0  0  0  0  0  0
  139.9550   72.2470  223.0420 C   0  0  0  0  0  0  0  0  0  0  0  0
  140.3920   71.6040  224.1710 C   0  0  0  0  0  0  0  0  0  0  0  0
  139.6250   70.6310  224.7760 C   0  0  0  0  0  0  0  0  0  0  0  0
  140.0470   69.9440  225.9610 N   0  0  0  0  0  0  0  0  0  0  0  0
  140.6640   70.6300  227.0770 C   0  0  0  0  0  0  0  0  0  0  0  0
  140.2710   69.8060  228.3110 C   0  0  0  0  0  0  0  0  0  0  0  0
  141.0930   68.5280  228.2290 C   0  0  0  0  0  0  0  0  0  0  0  0
  140.8120   67.8160  226.9500 C   0  0  0  0  0  0  0  0  0  0  0  0
  139.8570   68.5090  226.0340 C   0  0  0  0  0  0  0  0  0  0  0  0
  138.4080   70.3320  224.2040 C   0  0  0  0  0  0  0  0  0  0  0  0
  137.9260   70.9510  223.0670 C   0  0  0  0  0  0  0  0  0  0  0  0
  138.7130   71.9220  222.4810 C   0  0  0  0  0  0  0  0  0  0  0  0
  139.2483   73.3475  219.5531 H   0  0  0  0  0  0  0  0  0  0  0  0
  138.4639   74.6001  220.5624 H   0  0  0  0  0  0  0  0  0  0  0  0
  142.7638   73.4055  220.3049 H   0  0  0  0  0  0  0  0  0  0  0  0
  144.3523   75.0757  219.4143 H   0  0  0  0  0  0  0  0  0  0  0  0
  143.7828   77.4613  219.3698 H   0  0  0  0  0  0  0  0  0  0  0  0
  140.8968   77.8656  223.0357 H   0  0  0  0  0  0  0  0  0  0  0  0
  142.6283   77.8877  222.6275 H   0  0  0  0  0  0  0  0  0  0  0  0
  140.9986   79.9191  224.2064 H   0  0  0  0  0  0  0  0  0  0  0  0
  142.5199   79.1172  224.6733 H   0  0  0  0  0  0  0  0  0  0  0  0
  141.0548   81.7986  223.3604 H   0  0  0  0  0  0  0  0  0  0  0  0
  142.3146   82.2713  222.1685 H   0  0  0  0  0  0  0  0  0  0  0  0
  139.9813   80.7370  221.7435 H   0  0  0  0  0  0  0  0  0  0  0  0
  141.3533   81.0950  220.5932 H   0  0  0  0  0  0  0  0  0  0  0  0
  139.9836   76.5325  221.1204 H   0  0  0  0  0  0  0  0  0  0  0  0
  141.3694   71.8683  224.6008 H   0  0  0  0  0  0  0  0  0  0  0  0
  141.7575   70.6546  226.9599 H   0  0  0  0  0  0  0  0  0  0  0  0
  140.3337   71.6764  227.1546 H   0  0  0  0  0  0  0  0  0  0  0  0
  140.5093   70.3573  229.2326 H   0  0  0  0  0  0  0  0  0  0  0  0
  139.1917   69.5948  228.3323 H   0  0  0  0  0  0  0  0  0  0  0  0
  142.1626   68.7803  228.2769 H   0  0  0  0  0  0  0  0  0  0  0  0
  140.8233   67.8733  229.0708 H   0  0  0  0  0  0  0  0  0  0  0  0
  141.7647   67.6879  226.4152 H   0  0  0  0  0  0  0  0  0  0  0  0
  140.3336   66.8653  227.2281 H   0  0  0  0  0  0  0  0  0  0  0  0
  139.9818   68.0916  225.0239 H   0  0  0  0  0  0  0  0  0  0  0  0
  138.8483   68.3415  226.4396 H   0  0  0  0  0  0  0  0  0  0  0  0
  137.7863   69.5584  224.6784 H   0  0  0  0  0  0  0  0  0  0  0  0
  136.9481   70.6793  222.6429 H   0  0  0  0  0  0  0  0  0  0  0  0
  1  2  2  0
  2  3  1  0
  3  4  1  0
  4  5  1  0
  5  6  2  0
  6  7  1  0
  7  8  2  0
  8  9  1  0
  9 10  1  0
 10 11  2  0
 10 12  1  0
 12 13  1  0
 13 14  1  0
 14 15  1  0
 15 16  1  0
 16 17  1  0
  9 18  2  0
  4 19  2  0
 19 20  1  0
 20 21  2  0
 21 22  1  0
 22 23  1  0
 23 24  1  0
 24 25  1  0
 25 26  1  0
 26 27  1  0
 27 28  1  0
 22 29  2  0
 29 30  1  0
 30 31  2  0
 31  2  1  0
 18  5  1  0
 31 20  1  0
 17 12  1  0
 28 23  1  0
  3 32  1  0
  3 33  1  0
  6 34  1  0
  7 35  1  0
  8 36  1  0
 13 37  1  0
 13 38  1  0
 14 39  1  0
 14 40  1  0
 16 41  1  0
 16 42  1  0
 17 43  1  0
 17 44  1  0
 18 45  1  0
 21 46  1  0
 24 47  1  0
 24 48  1  0
 25 49  1  0
 25 50  1  0
 26 51  1  0
 26 52  1  0
 27 53  1  0
 27 54  1  0
 28 55  1  0
 28 56  1  0
 29 57  1  0
 30 58  1  0
M  END
>  <smiles>  (23) 
O=C1CC(c2cccc(C(=O)N3CCOCC3)c2)=Nc2cc(N3CCCCC3)ccc21

>  <score_type>  (23) 
oracle

>  <origin>  (23) 
autodockgpu

>  <m_score__min__energy>  (23) 
-9.7400000000000002

>  <m_primary>  (23) 
energy

>  <rmsd>  (23) 
10.73378175383819

>  <m_score__min__rmsd>  (23) 
10.73378175383819

>  <meeko>  (23) 
{"free_energy": -9.31, "intermolecular_energy": -10.21, "internal_energy": -0.97, "cluster_size": 2, "cluster_id": 2, "rank_in_cluster": 2}

>  <energy>  (23) 
-9.73

>  <cluster_rmsd>  (23) 
0.03

>  <cluster>  (23) 
1

$$$$

     RDKit          3D

 58 62  0  0  0  0  0  0  0  0999 V2000
  142.0630   73.0480  219.1160 O   0  0  0  0  0  0  0  0  0  0  0  0
  141.3790   73.3250  220.1380 C   0  0  0  0  0  0  0  0  0  0  0  0
  140.6000   72.2430  220.7760 C   0  0  0  0  0  0  0  0  0  0  0  0
  139.8820   72.8030  221.9400 C   0  0  0  0  0  0  0  0  0  0  0  0
  139.0200   71.8940  222.7280 C   0  0  0  0  0  0  0  0  0  0  0  0
  137.6480   72.0850  222.7290 C   0  0  0  0  0  0  0  0  0  0  0  0
  136.8410   71.2410  223.4640 C   0  0  0  0  0  0  0  0  0  0  0  0
  137.3700   70.2160  224.1970 C   0  0  0  0  0  0  0  0  0  0  0  0
  138.7470   69.9960  224.2170 C   0  0  0  0  0  0  0  0  0  0  0  0
  139.3370   68.9270  224.9870 C   0  0  0  0  0  0  0  0  0  0  0  0
  139.2000   67.7130  224.6680 O   0  0  0  0  0  0  0  0  0  0  0  0
  140.1000   69.3090  226.1490 N   0  0  0  0  0  0  0  0  0  0  0  0
  140.2590   70.7210  226.5180 C   0  0  0  0  0  0  0  0  0  0  0  0
  140.7670   70.7550  227.9340 C   0  0  0  0  0  0  0  0  0  0  0  0
  140.0910   69.7580  228.6470 O   0  0  0  0  0  0  0  0  0  0  0  0
  140.7440   68.5740  228.4190 C   0  0  0  0  0  0  0  0  0  0  0  0
  140.7160   68.2590  226.9570 C   0  0  0  0  0  0  0  0  0  0  0  0
  139.5260   70.8650  223.4640 C   0  0  0  0  0  0  0  0  0  0  0  0
  139.9270   74.0170  222.3350 N   0  0  0  0  0  0  0  0  0  0  0  0
  140.6740   75.0630  221.7320 C   0  0  0  0  0  0  0  0  0  0  0  0
  140.6960   76.3560  222.1860 C   0  0  0  0  0  0  0  0  0  0  0  0
  141.4450   77.3210  221.5450 C   0  0  0  0  0  0  0  0  0  0  0  0
  141.4970   78.6800  221.9960 N   0  0  0  0  0  0  0  0  0  0  0  0
  141.4870   79.8030  221.0810 C   0  0  0  0  0  0  0  0  0  0  0  0
  140.8120   80.9400  221.8600 C   0  0  0  0  0  0  0  0  0  0  0  0
  141.8290   81.3850  222.8980 C   0  0  0  0  0  0  0  0  0  0  0  0
  142.2100   80.2400  223.7720 C   0  0  0  0  0  0  0  0  0  0  0  0
  141.5730   78.9350  223.4210 C   0  0  0  0  0  0  0  0  0  0  0  0
  142.1670   76.9350  220.4370 C   0  0  0  0  0  0  0  0  0  0  0  0
  142.1760   75.6460  219.9430 C   0  0  0  0  0  0  0  0  0  0  0  0
  141.4180   74.6990  220.6020 C   0  0  0  0  0  0  0  0  0  0  0  0
  139.8763   71.8332  220.0561 H   0  0  0  0  0  0  0  0  0  0  0  0
  141.2735   71.4366  221.1019 H   0  0  0  0  0  0  0  0  0  0  0  0
  137.2039   72.9057  222.1466 H   0  0  0  0  0  0  0  0  0  0  0  0
  135.7520   71.3960  223.4599 H   0  0  0  0  0  0  0  0  0  0  0  0
  136.7042   69.5591  224.7760 H   0  0  0  0  0  0  0  0  0  0  0  0
  140.9818   71.2072  225.8463 H   0  0  0  0  0  0  0  0  0  0  0  0
  139.3025   71.2575  226.4327 H   0  0  0  0  0  0  0  0  0  0  0  0
  141.8494   70.5597  227.9496 H   0  0  0  0  0  0  0  0  0  0  0  0
  140.5901   71.7422  228.3857 H   0  0  0  0  0  0  0  0  0  0  0  0
  141.7879   68.6611  228.7548 H   0  0  0  0  0  0  0  0  0  0  0  0
  140.2440   67.7679  228.9760 H   0  0  0  0  0  0  0  0  0  0  0  0
  141.7503   68.1147  226.6115 H   0  0  0  0  0  0  0  0  0  0  0  0
  140.1056   67.3525  226.8317 H   0  0  0  0  0  0  0  0  0  0  0  0
  140.6155   70.7136  223.4617 H   0  0  0  0  0  0  0  0  0  0  0  0
  140.1077   76.6283  223.0747 H   0  0  0  0  0  0  0  0  0  0  0  0
  142.5131   80.0823  220.7997 H   0  0  0  0  0  0  0  0  0  0  0  0
  140.9576   79.5704  220.1452 H   0  0  0  0  0  0  0  0  0  0  0  0
  140.5627   81.7723  221.1854 H   0  0  0  0  0  0  0  0  0  0  0  0
  139.8717   80.6112  222.3266 H   0  0  0  0  0  0  0  0  0  0  0  0
  142.7258   81.7660  222.3875 H   0  0  0  0  0  0  0  0  0  0  0  0
  141.3841   82.1767  223.5187 H   0  0  0  0  0  0  0  0  0  0  0  0
  143.3011   80.1137  223.7117 H   0  0  0  0  0  0  0  0  0  0  0  0
  141.8532   80.4932  224.7813 H   0  0  0  0  0  0  0  0  0  0  0  0
  142.1586   78.1282  223.8860 H   0  0  0  0  0  0  0  0  0  0  0  0
  140.5384   78.9759  223.7925 H   0  0  0  0  0  0  0  0  0  0  0  0
  142.7690   77.6952  219.9177 H   0  0  0  0  0  0  0  0  0  0  0  0
  142.7675   75.3823  219.0538 H   0  0  0  0  0  0  0  0  0  0  0  0
  1  2  2  0
  2  3  1  0
  3  4  1  0
  4  5  1  0
  5  6  2  0
  6  7  1  0
  7  8  2  0
  8  9  1  0
  9 10  1  0
 10 11  2  0
 10 12  1  0
 12 13  1  0
 13 14  1  0
 14 15  1  0
 15 16  1  0
 16 17  1  0
  9 18  2  0
  4 19  2  0
 19 20  1  0
 20 21  2  0
 21 22  1  0
 22 23  1  0
 23 24  1  0
 24 25  1  0
 25 26  1  0
 26 27  1  0
 27 28  1  0
 22 29  2  0
 29 30  1  0
 30 31  2  0
 31  2  1  0
 18  5  1  0
 31 20  1  0
 17 12  1  0
 28 23  1  0
  3 32  1  0
  3 33  1  0
  6 34  1  0
  7 35  1  0
  8 36  1  0
 13 37  1  0
 13 38  1  0
 14 39  1  0
 14 40  1  0
 16 41  1  0
 16 42  1  0
 17 43  1  0
 17 44  1  0
 18 45  1  0
 21 46  1  0
 24 47  1  0
 24 48  1  0
 25 49  1  0
 25 50  1  0
 26 51  1  0
 26 52  1  0
 27 53  1  0
 27 54  1  0
 28 55  1  0
 28 56  1  0
 29 57  1  0
 30 58  1  0
M  END
>  <smiles>  (24) 
O=C1CC(c2cccc(C(=O)N3CCOCC3)c2)=Nc2cc(N3CCCCC3)ccc21

>  <score_type>  (24) 
oracle

>  <origin>  (24) 
autodockgpu

>  <m_score__min__energy>  (24) 
-9.7400000000000002

>  <m_primary>  (24) 
energy

>  <rmsd>  (24) 
6.805450164263811

>  <m_score__min__rmsd>  (24) 
6.805450164263811

>  <meeko>  (24) 
{"free_energy": -9.74, "intermolecular_energy": -10.63, "internal_energy": -0.97, "cluster_size": 48, "cluster_id": 1, "rank_in_cluster": 16}

>  <energy>  (24) 
-9.73

>  <cluster_rmsd>  (24) 
0.09

>  <cluster>  (24) 
1

$$$$

     RDKit          3D

 58 62  0  0  0  0  0  0  0  0999 V2000
  142.0920   73.0810  219.1420 O   0  0  0  0  0  0  0  0  0  0  0  0
  141.4000   73.3550  220.1600 C   0  0  0  0  0  0  0  0  0  0  0  0
  140.6200   72.2690  220.7910 C   0  0  0  0  0  0  0  0  0  0  0  0
  139.8940   72.8260  221.9520 C   0  0  0  0  0  0  0  0  0  0  0  0
  139.0300   71.9140  222.7330 C   0  0  0  0  0  0  0  0  0  0  0  0
  137.6570   72.1030  222.7310 C   0  0  0  0  0  0  0  0  0  0  0  0
  136.8490   71.2560  223.4600 C   0  0  0  0  0  0  0  0  0  0  0  0
  137.3760   70.2280  224.1900 C   0  0  0  0  0  0  0  0  0  0  0  0
  138.7530   70.0090  224.2140 C   0  0  0  0  0  0  0  0  0  0  0  0
  139.3410   68.9380  224.9820 C   0  0  0  0  0  0  0  0  0  0  0  0
  139.2040   67.7250  224.6590 O   0  0  0  0  0  0  0  0  0  0  0  0
  140.1020   69.3150  226.1470 N   0  0  0  0  0  0  0  0  0  0  0  0
  140.2600   70.7260  226.5200 C   0  0  0  0  0  0  0  0  0  0  0  0
  140.7660   70.7540  227.9370 C   0  0  0  0  0  0  0  0  0  0  0  0
  140.0870   69.7560  228.6460 O   0  0  0  0  0  0  0  0  0  0  0  0
  140.7410   68.5720  228.4150 C   0  0  0  0  0  0  0  0  0  0  0  0
  140.7160   68.2620  226.9520 C   0  0  0  0  0  0  0  0  0  0  0  0
  139.5340   70.8820  223.4670 C   0  0  0  0  0  0  0  0  0  0  0  0
  139.9330   74.0400  222.3490 N   0  0  0  0  0  0  0  0  0  0  0  0
  140.6800   75.0890  221.7520 C   0  0  0  0  0  0  0  0  0  0  0  0
  140.6960   76.3810  222.2070 C   0  0  0  0  0  0  0  0  0  0  0  0
  141.4460   77.3490  221.5730 C   0  0  0  0  0  0  0  0  0  0  0  0
  141.4910   78.7080  222.0250 N   0  0  0  0  0  0  0  0  0  0  0  0
  141.2540   79.8290  221.1400 C   0  0  0  0  0  0  0  0  0  0  0  0
  140.6540   80.9200  222.0380 C   0  0  0  0  0  0  0  0  0  0  0  0
  141.8060   81.4260  222.8920 C   0  0  0  0  0  0  0  0  0  0  0  0
  142.4020   80.3050  223.6720 C   0  0  0  0  0  0  0  0  0  0  0  0
  141.7960   78.9640  223.4190 C   0  0  0  0  0  0  0  0  0  0  0  0
  142.1750   76.9670  220.4680 C   0  0  0  0  0  0  0  0  0  0  0  0
  142.1910   75.6780  219.9720 C   0  0  0  0  0  0  0  0  0  0  0  0
  141.4330   74.7280  220.6260 C   0  0  0  0  0  0  0  0  0  0  0  0
  139.9015   71.8588  220.0661 H   0  0  0  0  0  0  0  0  0  0  0  0
  141.2931   71.4631  221.1188 H   0  0  0  0  0  0  0  0  0  0  0  0
  137.2136   72.9253  222.1503 H   0  0  0  0  0  0  0  0  0  0  0  0
  135.7600   71.4108  223.4538 H   0  0  0  0  0  0  0  0  0  0  0  0
  136.7086   69.5678  224.7634 H   0  0  0  0  0  0  0  0  0  0  0  0
  140.9837   71.2146  225.8510 H   0  0  0  0  0  0  0  0  0  0  0  0
  139.3040   71.2634  226.4345 H   0  0  0  0  0  0  0  0  0  0  0  0
  141.8480   70.5564  227.9534 H   0  0  0  0  0  0  0  0  0  0  0  0
  140.5903   71.7401  228.3917 H   0  0  0  0  0  0  0  0  0  0  0  0
  141.7842   68.6580  228.7532 H   0  0  0  0  0  0  0  0  0  0  0  0
  140.2399   67.7640  228.9682 H   0  0  0  0  0  0  0  0  0  0  0  0
  141.7510   68.1187  226.6081 H   0  0  0  0  0  0  0  0  0  0  0  0
  140.1059   67.3560  226.8221 H   0  0  0  0  0  0  0  0  0  0  0  0
  140.6236   70.7314  223.4680 H   0  0  0  0  0  0  0  0  0  0  0  0
  140.1011   76.6506  223.0921 H   0  0  0  0  0  0  0  0  0  0  0  0
  142.1969   80.1731  220.6900 H   0  0  0  0  0  0  0  0  0  0  0  0
  140.5867   79.5650  220.3063 H   0  0  0  0  0  0  0  0  0  0  0  0
  140.2415   81.7364  221.4270 H   0  0  0  0  0  0  0  0  0  0  0  0
  139.8300   80.5319  222.6547 H   0  0  0  0  0  0  0  0  0  0  0  0
  142.5760   81.8642  222.2400 H   0  0  0  0  0  0  0  0  0  0  0  0
  141.4268   82.1864  223.5906 H   0  0  0  0  0  0  0  0  0  0  0  0
  143.4719   80.2478  223.4230 H   0  0  0  0  0  0  0  0  0  0  0  0
  142.2098   80.5328  224.7309 H   0  0  0  0  0  0  0  0  0  0  0  0
  142.5017   78.1946  223.7656 H   0  0  0  0  0  0  0  0  0  0  0  0
  140.8406   78.9388  223.9636 H   0  0  0  0  0  0  0  0  0  0  0  0
  142.7770   77.7300  219.9528 H   0  0  0  0  0  0  0  0  0  0  0  0
  142.7878   75.4174  219.0855 H   0  0  0  0  0  0  0  0  0  0  0  0
  1  2  2  0
  2  3  1  0
  3  4  1  0
  4  5  1  0
  5  6  2  0
  6  7  1  0
  7  8  2  0
  8  9  1  0
  9 10  1  0
 10 11  2  0
 10 12  1  0
 12 13  1  0
 13 14  1  0
 14 15  1  0
 15 16  1  0
 16 17  1  0
  9 18  2  0
  4 19  2  0
 19 20  1  0
 20 21  2  0
 21 22  1  0
 22 23  1  0
 23 24  1  0
 24 25  1  0
 25 26  1  0
 26 27  1  0
 27 28  1  0
 22 29  2  0
 29 30  1  0
 30 31  2  0
 31  2  1  0
 18  5  1  0
 31 20  1  0
 17 12  1  0
 28 23  1  0
  3 32  1  0
  3 33  1  0
  6 34  1  0
  7 35  1  0
  8 36  1  0
 13 37  1  0
 13 38  1  0
 14 39  1  0
 14 40  1  0
 16 41  1  0
 16 42  1  0
 17 43  1  0
 17 44  1  0
 18 45  1  0
 21 46  1  0
 24 47  1  0
 24 48  1  0
 25 49  1  0
 25 50  1  0
 26 51  1  0
 26 52  1  0
 27 53  1  0
 27 54  1  0
 28 55  1  0
 28 56  1  0
 29 57  1  0
 30 58  1  0
M  END
>  <smiles>  (25) 
O=C1CC(c2cccc(C(=O)N3CCOCC3)c2)=Nc2cc(N3CCCCC3)ccc21

>  <score_type>  (25) 
oracle

>  <origin>  (25) 
autodockgpu

>  <m_score__min__energy>  (25) 
-9.7400000000000002

>  <m_primary>  (25) 
energy

>  <rmsd>  (25) 
6.810105620425818

>  <m_score__min__rmsd>  (25) 
6.810105620425818

>  <meeko>  (25) 
{"free_energy": -9.74, "intermolecular_energy": -10.63, "internal_energy": -0.97, "cluster_size": 48, "cluster_id": 1, "rank_in_cluster": 17}

>  <energy>  (25) 
-9.73

>  <cluster_rmsd>  (25) 
0.04

>  <cluster>  (25) 
1

$$$$

     RDKit          3D

 58 62  0  0  0  0  0  0  0  0999 V2000
  141.9400   73.0950  219.0560 O   0  0  0  0  0  0  0  0  0  0  0  0
  141.2890   73.3620  220.1020 C   0  0  0  0  0  0  0  0  0  0  0  0
  140.5110   72.2780  220.7400 C   0  0  0  0  0  0  0  0  0  0  0  0
  139.8340   72.8250  221.9340 C   0  0  0  0  0  0  0  0  0  0  0  0
  138.9810   71.9140  222.7280 C   0  0  0  0  0  0  0  0  0  0  0  0
  137.6080   72.1040  222.7440 C   0  0  0  0  0  0  0  0  0  0  0  0
  136.8100   71.2570  223.4850 C   0  0  0  0  0  0  0  0  0  0  0  0
  137.3470   70.2290  224.2080 C   0  0  0  0  0  0  0  0  0  0  0  0
  138.7240   70.0100  224.2130 C   0  0  0  0  0  0  0  0  0  0  0  0
  139.3220   68.9380  224.9730 C   0  0  0  0  0  0  0  0  0  0  0  0
  139.1920   67.7260  224.6430 O   0  0  0  0  0  0  0  0  0  0  0  0
  140.0850   69.3140  226.1370 N   0  0  0  0  0  0  0  0  0  0  0  0
  140.2350   70.7240  226.5170 C   0  0  0  0  0  0  0  0  0  0  0  0
  140.7460   70.7480  227.9330 C   0  0  0  0  0  0  0  0  0  0  0  0
  140.0770   69.7420  228.6380 O   0  0  0  0  0  0  0  0  0  0  0  0
  140.7370   68.5640  228.3990 C   0  0  0  0  0  0  0  0  0  0  0  0
  140.7080   68.2610  226.9330 C   0  0  0  0  0  0  0  0  0  0  0  0
  139.4940   70.8820  223.4550 C   0  0  0  0  0  0  0  0  0  0  0  0
  139.9090   74.0310  222.3520 N   0  0  0  0  0  0  0  0  0  0  0  0
  140.6540   75.0770  221.7490 C   0  0  0  0  0  0  0  0  0  0  0  0
  140.7090   76.3610  222.2270 C   0  0  0  0  0  0  0  0  0  0  0  0
  141.4540   77.3270  221.5850 C   0  0  0  0  0  0  0  0  0  0  0  0
  141.5390   78.6760  222.0610 N   0  0  0  0  0  0  0  0  0  0  0  0
  141.4860   79.0080  223.4700 C   0  0  0  0  0  0  0  0  0  0  0  0
  142.3220   80.2880  223.6040 C   0  0  0  0  0  0  0  0  0  0  0  0
  141.4810   81.3930  222.9860 C   0  0  0  0  0  0  0  0  0  0  0  0
  141.1590   81.0650  221.5680 C   0  0  0  0  0  0  0  0  0  0  0  0
  141.6700   79.7450  221.0900 C   0  0  0  0  0  0  0  0  0  0  0  0
  142.1390   76.9530  220.4500 C   0  0  0  0  0  0  0  0  0  0  0  0
  142.1150   75.6740  219.9300 C   0  0  0  0  0  0  0  0  0  0  0  0
  141.3620   74.7250  220.5920 C   0  0  0  0  0  0  0  0  0  0  0  0
  139.7617   71.8935  220.0324 H   0  0  0  0  0  0  0  0  0  0  0  0
  141.1807   71.4553  221.0310 H   0  0  0  0  0  0  0  0  0  0  0  0
  137.1570   72.9260  222.1688 H   0  0  0  0  0  0  0  0  0  0  0  0
  135.7210   71.4120  223.4941 H   0  0  0  0  0  0  0  0  0  0  0  0
  136.6875   69.5690  224.7907 H   0  0  0  0  0  0  0  0  0  0  0  0
  140.9531   71.2209  225.8481 H   0  0  0  0  0  0  0  0  0  0  0  0
  139.2752   71.2555  226.4377 H   0  0  0  0  0  0  0  0  0  0  0  0
  141.8294   70.5580  227.9447 H   0  0  0  0  0  0  0  0  0  0  0  0
  140.5650   71.7303  228.3938 H   0  0  0  0  0  0  0  0  0  0  0  0
  141.7810   68.6548  228.7336 H   0  0  0  0  0  0  0  0  0  0  0  0
  140.2433   67.7501  228.9503 H   0  0  0  0  0  0  0  0  0  0  0  0
  141.7424   68.1256  226.5841 H   0  0  0  0  0  0  0  0  0  0  0  0
  140.1029   67.3520  226.8006 H   0  0  0  0  0  0  0  0  0  0  0  0
  140.5834   70.7307  223.4405 H   0  0  0  0  0  0  0  0  0  0  0  0
  140.1499   76.6243  223.1370 H   0  0  0  0  0  0  0  0  0  0  0  0
  140.4481   79.1884  223.7866 H   0  0  0  0  0  0  0  0  0  0  0  0
  141.8695   78.1940  224.1027 H   0  0  0  0  0  0  0  0  0  0  0  0
  142.5234   80.5058  224.6633 H   0  0  0  0  0  0  0  0  0  0  0  0
  143.2971   80.1911  223.1041 H   0  0  0  0  0  0  0  0  0  0  0  0
  140.5459   81.4992  223.5554 H   0  0  0  0  0  0  0  0  0  0  0  0
  142.0488   82.3347  223.0159 H   0  0  0  0  0  0  0  0  0  0  0  0
  140.0645   81.0665  221.4582 H   0  0  0  0  0  0  0  0  0  0  0  0
  141.6623   81.8277  220.9557 H   0  0  0  0  0  0  0  0  0  0  0  0
  141.1086   79.4630  220.1870 H   0  0  0  0  0  0  0  0  0  0  0  0
  142.7457   79.8705  220.8975 H   0  0  0  0  0  0  0  0  0  0  0  0
  142.7379   77.7148  219.9294 H   0  0  0  0  0  0  0  0  0  0  0  0
  142.6769   75.4199  219.0191 H   0  0  0  0  0  0  0  0  0  0  0  0
  1  2  2  0
  2  3  1  0
  3  4  1  0
  4  5  1  0
  5  6  2  0
  6  7  1  0
  7  8  2  0
  8  9  1  0
  9 10  1  0
 10 11  2  0
 10 12  1  0
 12 13  1  0
 13 14  1  0
 14 15  1  0
 15 16  1  0
 16 17  1  0
  9 18  2  0
  4 19  2  0
 19 20  1  0
 20 21  2  0
 21 22  1  0
 22 23  1  0
 23 24  1  0
 24 25  1  0
 25 26  1  0
 26 27  1  0
 27 28  1  0
 22 29  2  0
 29 30  1  0
 30 31  2  0
 31  2  1  0
 18  5  1  0
 31 20  1  0
 17 12  1  0
 28 23  1  0
  3 32  1  0
  3 33  1  0
  6 34  1  0
  7 35  1  0
  8 36  1  0
 13 37  1  0
 13 38  1  0
 14 39  1  0
 14 40  1  0
 16 41  1  0
 16 42  1  0
 17 43  1  0
 17 44  1  0
 18 45  1  0
 21 46  1  0
 24 47  1  0
 24 48  1  0
 25 49  1  0
 25 50  1  0
 26 51  1  0
 26 52  1  0
 27 53  1  0
 27 54  1  0
 28 55  1  0
 28 56  1  0
 29 57  1  0
 30 58  1  0
M  END
>  <smiles>  (26) 
O=C1CC(c2cccc(C(=O)N3CCOCC3)c2)=Nc2cc(N3CCCCC3)ccc21

>  <score_type>  (26) 
oracle

>  <origin>  (26) 
autodockgpu

>  <m_score__min__energy>  (26) 
-9.7400000000000002

>  <m_primary>  (26) 
energy

>  <rmsd>  (26) 
6.585060545815342

>  <m_score__min__rmsd>  (26) 
6.585060545815342

>  <meeko>  (26) 
{"free_energy": -9.69, "intermolecular_energy": -10.58, "internal_energy": -0.97, "cluster_size": 48, "cluster_id": 1, "rank_in_cluster": 43}

>  <energy>  (26) 
-9.73

>  <cluster_rmsd>  (26) 
0.05

>  <cluster>  (26) 
1

$$$$

     RDKit          3D

 58 62  0  0  0  0  0  0  0  0999 V2000
  142.1320   73.0680  219.1740 O   0  0  0  0  0  0  0  0  0  0  0  0
  141.4300   73.3510  220.1820 C   0  0  0  0  0  0  0  0  0  0  0  0
  140.6480   72.2700  220.8190 C   0  0  0  0  0  0  0  0  0  0  0  0
  139.9080   72.8360  221.9660 C   0  0  0  0  0  0  0  0  0  0  0  0
  139.0410   71.9290  222.7500 C   0  0  0  0  0  0  0  0  0  0  0  0
  137.6700   72.1310  222.7560 C   0  0  0  0  0  0  0  0  0  0  0  0
  136.8590   71.2890  223.4880 C   0  0  0  0  0  0  0  0  0  0  0  0
  137.3810   70.2540  224.2110 C   0  0  0  0  0  0  0  0  0  0  0  0
  138.7560   70.0220  224.2250 C   0  0  0  0  0  0  0  0  0  0  0  0
  139.3390   68.9420  224.9860 C   0  0  0  0  0  0  0  0  0  0  0  0
  139.2010   67.7330  224.6510 O   0  0  0  0  0  0  0  0  0  0  0  0
  140.0960   69.3080  226.1570 N   0  0  0  0  0  0  0  0  0  0  0  0
  140.2550   70.7140  226.5440 C   0  0  0  0  0  0  0  0  0  0  0  0
  140.7550   70.7290  227.9630 C   0  0  0  0  0  0  0  0  0  0  0  0
  140.0720   69.7260  228.6600 O   0  0  0  0  0  0  0  0  0  0  0  0
  140.7240   68.5430  228.4210 C   0  0  0  0  0  0  0  0  0  0  0  0
  140.7040   68.2460  226.9550 C   0  0  0  0  0  0  0  0  0  0  0  0
  139.5400   70.8900  223.4760 C   0  0  0  0  0  0  0  0  0  0  0  0
  139.9390   74.0540  222.3490 N   0  0  0  0  0  0  0  0  0  0  0  0
  140.6870   75.1000  221.7480 C   0  0  0  0  0  0  0  0  0  0  0  0
  140.6930   76.3980  222.1880 C   0  0  0  0  0  0  0  0  0  0  0  0
  141.4450   77.3610  221.5500 C   0  0  0  0  0  0  0  0  0  0  0  0
  141.4800   78.7250  221.9870 N   0  0  0  0  0  0  0  0  0  0  0  0
  141.4350   79.8390  221.0620 C   0  0  0  0  0  0  0  0  0  0  0  0
  140.7520   80.9710  221.8420 C   0  0  0  0  0  0  0  0  0  0  0  0
  141.7790   81.4440  222.8590 C   0  0  0  0  0  0  0  0  0  0  0  0
  142.1950   80.3130  223.7370 C   0  0  0  0  0  0  0  0  0  0  0  0
  141.5750   78.9940  223.4080 C   0  0  0  0  0  0  0  0  0  0  0  0
  142.1870   76.9700  220.4570 C   0  0  0  0  0  0  0  0  0  0  0  0
  142.2130   75.6750  219.9760 C   0  0  0  0  0  0  0  0  0  0  0  0
  141.4520   74.7300  220.6330 C   0  0  0  0  0  0  0  0  0  0  0  0
  139.9384   71.8482  220.0920 H   0  0  0  0  0  0  0  0  0  0  0  0
  141.3219   71.4718  221.1637 H   0  0  0  0  0  0  0  0  0  0  0  0
  137.2307   72.9587  222.1799 H   0  0  0  0  0  0  0  0  0  0  0  0
  135.7714   71.4540  223.4897 H   0  0  0  0  0  0  0  0  0  0  0  0
  136.7112   69.5983  224.7868 H   0  0  0  0  0  0  0  0  0  0  0  0
  140.9823   71.2074  225.8825 H   0  0  0  0  0  0  0  0  0  0  0  0
  139.3000   71.2534  226.4599 H   0  0  0  0  0  0  0  0  0  0  0  0
  141.8367   70.5299  227.9822 H   0  0  0  0  0  0  0  0  0  0  0  0
  140.5787   71.7113  228.4257 H   0  0  0  0  0  0  0  0  0  0  0  0
  141.7661   68.6236  228.7640 H   0  0  0  0  0  0  0  0  0  0  0  0
  140.2189   67.7312  228.9650 H   0  0  0  0  0  0  0  0  0  0  0  0
  141.7399   68.1029  226.6139 H   0  0  0  0  0  0  0  0  0  0  0  0
  140.0920   67.3428  226.8146 H   0  0  0  0  0  0  0  0  0  0  0  0
  140.6281   70.7289  223.4686 H   0  0  0  0  0  0  0  0  0  0  0  0
  140.0883   76.6756  223.0639 H   0  0  0  0  0  0  0  0  0  0  0  0
  142.4512   80.1341  220.7615 H   0  0  0  0  0  0  0  0  0  0  0  0
  140.8950   79.5883  220.1370 H   0  0  0  0  0  0  0  0  0  0  0  0
  140.4762   81.7923  221.1643 H   0  0  0  0  0  0  0  0  0  0  0  0
  139.8257   80.6298  222.3273 H   0  0  0  0  0  0  0  0  0  0  0  0
  142.6601   81.8360  222.3298 H   0  0  0  0  0  0  0  0  0  0  0  0
  141.3309   82.2337  223.4800 H   0  0  0  0  0  0  0  0  0  0  0  0
  143.2869   80.2051  223.6593 H   0  0  0  0  0  0  0  0  0  0  0  0
  141.8510   80.5690  224.7500 H   0  0  0  0  0  0  0  0  0  0  0  0
  142.1821   78.2016  223.8702 H   0  0  0  0  0  0  0  0  0  0  0  0
  140.5461   79.0204  223.7962 H   0  0  0  0  0  0  0  0  0  0  0  0
  142.7912   77.7296  219.9394 H   0  0  0  0  0  0  0  0  0  0  0  0
  142.8200   75.4064  219.0988 H   0  0  0  0  0  0  0  0  0  0  0  0
  1  2  2  0
  2  3  1  0
  3  4  1  0
  4  5  1  0
  5  6  2  0
  6  7  1  0
  7  8  2  0
  8  9  1  0
  9 10  1  0
 10 11  2  0
 10 12  1  0
 12 13  1  0
 13 14  1  0
 14 15  1  0
 15 16  1  0
 16 17  1  0
  9 18  2  0
  4 19  2  0
 19 20  1  0
 20 21  2  0
 21 22  1  0
 22 23  1  0
 23 24  1  0
 24 25  1  0
 25 26  1  0
 26 27  1  0
 27 28  1  0
 22 29  2  0
 29 30  1  0
 30 31  2  0
 31  2  1  0
 18  5  1  0
 31 20  1  0
 17 12  1  0
 28 23  1  0
  3 32  1  0
  3 33  1  0
  6 34  1  0
  7 35  1  0
  8 36  1  0
 13 37  1  0
 13 38  1  0
 14 39  1  0
 14 40  1  0
 16 41  1  0
 16 42  1  0
 17 43  1  0
 17 44  1  0
 18 45  1  0
 21 46  1  0
 24 47  1  0
 24 48  1  0
 25 49  1  0
 25 50  1  0
 26 51  1  0
 26 52  1  0
 27 53  1  0
 27 54  1  0
 28 55  1  0
 28 56  1  0
 29 57  1  0
 30 58  1  0
M  END
>  <smiles>  (27) 
O=C1CC(c2cccc(C(=O)N3CCOCC3)c2)=Nc2cc(N3CCCCC3)ccc21

>  <score_type>  (27) 
oracle

>  <origin>  (27) 
autodockgpu

>  <m_score__min__energy>  (27) 
-9.7400000000000002

>  <m_primary>  (27) 
energy

>  <rmsd>  (27) 
6.801570928851088

>  <m_score__min__rmsd>  (27) 
6.801570928851088

>  <meeko>  (27) 
{"free_energy": -9.73, "intermolecular_energy": -10.63, "internal_energy": -0.97, "cluster_size": 48, "cluster_id": 1, "rank_in_cluster": 22}

>  <energy>  (27) 
-9.73

>  <cluster_rmsd>  (27) 
0.04

>  <cluster>  (27) 
1

$$$$

     RDKit          3D

 58 62  0  0  0  0  0  0  0  0999 V2000
  142.1240   73.0740  219.1610 O   0  0  0  0  0  0  0  0  0  0  0  0
  141.4230   73.3530  220.1710 C   0  0  0  0  0  0  0  0  0  0  0  0
  140.6430   72.2680  220.8040 C   0  0  0  0  0  0  0  0  0  0  0  0
  139.9050   72.8290  221.9550 C   0  0  0  0  0  0  0  0  0  0  0  0
  139.0390   71.9190  222.7360 C   0  0  0  0  0  0  0  0  0  0  0  0
  137.6670   72.1170  222.7410 C   0  0  0  0  0  0  0  0  0  0  0  0
  136.8570   71.2710  223.4700 C   0  0  0  0  0  0  0  0  0  0  0  0
  137.3820   70.2360  224.1920 C   0  0  0  0  0  0  0  0  0  0  0  0
  138.7570   70.0090  224.2090 C   0  0  0  0  0  0  0  0  0  0  0  0
  139.3420   68.9300  224.9690 C   0  0  0  0  0  0  0  0  0  0  0  0
  139.2030   67.7200  224.6360 O   0  0  0  0  0  0  0  0  0  0  0  0
  140.1030   69.2970  226.1380 N   0  0  0  0  0  0  0  0  0  0  0  0
  140.2630   70.7040  226.5230 C   0  0  0  0  0  0  0  0  0  0  0  0
  140.7670   70.7200  227.9400 C   0  0  0  0  0  0  0  0  0  0  0  0
  140.0860   69.7180  228.6400 O   0  0  0  0  0  0  0  0  0  0  0  0
  140.7380   68.5350  228.4010 C   0  0  0  0  0  0  0  0  0  0  0  0
  140.7130   68.2360  226.9350 C   0  0  0  0  0  0  0  0  0  0  0  0
  139.5400   70.8800  223.4630 C   0  0  0  0  0  0  0  0  0  0  0  0
  139.9350   74.0460  222.3430 N   0  0  0  0  0  0  0  0  0  0  0  0
  140.6820   75.0940  221.7450 C   0  0  0  0  0  0  0  0  0  0  0  0
  140.6880   76.3900  222.1910 C   0  0  0  0  0  0  0  0  0  0  0  0
  141.4390   77.3570  221.5550 C   0  0  0  0  0  0  0  0  0  0  0  0
  141.4730   78.7190  221.9990 N   0  0  0  0  0  0  0  0  0  0  0  0
  141.4190   79.8370  221.0790 C   0  0  0  0  0  0  0  0  0  0  0  0
  140.7390   80.9640  221.8690 C   0  0  0  0  0  0  0  0  0  0  0  0
  141.7730   81.4350  222.8800 C   0  0  0  0  0  0  0  0  0  0  0  0
  142.1980   80.3010  223.7500 C   0  0  0  0  0  0  0  0  0  0  0  0
  141.5790   78.9820  223.4200 C   0  0  0  0  0  0  0  0  0  0  0  0
  142.1790   76.9700  220.4600 C   0  0  0  0  0  0  0  0  0  0  0  0
  142.2050   75.6780  219.9730 C   0  0  0  0  0  0  0  0  0  0  0  0
  141.4450   74.7290  220.6280 C   0  0  0  0  0  0  0  0  0  0  0  0
  139.9323   71.8491  220.0764 H   0  0  0  0  0  0  0  0  0  0  0  0
  141.3177   71.4682  221.1433 H   0  0  0  0  0  0  0  0  0  0  0  0
  137.2262   72.9449  222.1663 H   0  0  0  0  0  0  0  0  0  0  0  0
  135.7689   71.4324  223.4702 H   0  0  0  0  0  0  0  0  0  0  0  0
  136.7134   69.5764  224.7647 H   0  0  0  0  0  0  0  0  0  0  0  0
  140.9883   71.1968  225.8589 H   0  0  0  0  0  0  0  0  0  0  0  0
  139.3079   71.2435  226.4410 H   0  0  0  0  0  0  0  0  0  0  0  0
  141.8487   70.5206  227.9562 H   0  0  0  0  0  0  0  0  0  0  0  0
  140.5922   71.7027  228.4023 H   0  0  0  0  0  0  0  0  0  0  0  0
  141.7812   68.6168  228.7403 H   0  0  0  0  0  0  0  0  0  0  0  0
  140.2356   67.7237  228.9482 H   0  0  0  0  0  0  0  0  0  0  0  0
  141.7477   68.0920  226.5906 H   0  0  0  0  0  0  0  0  0  0  0  0
  140.1002   67.3329  226.7977 H   0  0  0  0  0  0  0  0  0  0  0  0
  140.6286   70.7224  223.4583 H   0  0  0  0  0  0  0  0  0  0  0  0
  140.0849   76.6633  223.0694 H   0  0  0  0  0  0  0  0  0  0  0  0
  142.4324   80.1357  220.7726 H   0  0  0  0  0  0  0  0  0  0  0  0
  140.8731   79.5892  220.1567 H   0  0  0  0  0  0  0  0  0  0  0  0
  140.4559   81.7875  221.1970 H   0  0  0  0  0  0  0  0  0  0  0  0
  139.8171   80.6186  222.3598 H   0  0  0  0  0  0  0  0  0  0  0  0
  142.6492   81.8310  222.3457 H   0  0  0  0  0  0  0  0  0  0  0  0
  141.3283   82.2212  223.5077 H   0  0  0  0  0  0  0  0  0  0  0  0
  143.2896   80.1961  223.6639 H   0  0  0  0  0  0  0  0  0  0  0  0
  141.8605   80.5518  224.7665 H   0  0  0  0  0  0  0  0  0  0  0  0
  142.1920   78.1892  223.8736 H   0  0  0  0  0  0  0  0  0  0  0  0
  140.5532   79.0040  223.8166 H   0  0  0  0  0  0  0  0  0  0  0  0
  142.7826   77.7319  219.9450 H   0  0  0  0  0  0  0  0  0  0  0  0
  142.8104   75.4138  219.0934 H   0  0  0  0  0  0  0  0  0  0  0  0
  1  2  2  0
  2  3  1  0
  3  4  1  0
  4  5  1  0
  5  6  2  0
  6  7  1  0
  7  8  2  0
  8  9  1  0
  9 10  1  0
 10 11  2  0
 10 12  1  0
 12 13  1  0
 13 14  1  0
 14 15  1  0
 15 16  1  0
 16 17  1  0
  9 18  2  0
  4 19  2  0
 19 20  1  0
 20 21  2  0
 21 22  1  0
 22 23  1  0
 23 24  1  0
 24 25  1  0
 25 26  1  0
 26 27  1  0
 27 28  1  0
 22 29  2  0
 29 30  1  0
 30 31  2  0
 31  2  1  0
 18  5  1  0
 31 20  1  0
 17 12  1  0
 28 23  1  0
  3 32  1  0
  3 33  1  0
  6 34  1  0
  7 35  1  0
  8 36  1  0
 13 37  1  0
 13 38  1  0
 14 39  1  0
 14 40  1  0
 16 41  1  0
 16 42  1  0
 17 43  1  0
 17 44  1  0
 18 45  1  0
 21 46  1  0
 24 47  1  0
 24 48  1  0
 25 49  1  0
 25 50  1  0
 26 51  1  0
 26 52  1  0
 27 53  1  0
 27 54  1  0
 28 55  1  0
 28 56  1  0
 29 57  1  0
 30 58  1  0
M  END
>  <smiles>  (28) 
O=C1CC(c2cccc(C(=O)N3CCOCC3)c2)=Nc2cc(N3CCCCC3)ccc21

>  <score_type>  (28) 
oracle

>  <origin>  (28) 
autodockgpu

>  <m_score__min__energy>  (28) 
-9.7400000000000002

>  <m_primary>  (28) 
energy

>  <rmsd>  (28) 
6.803913072545146

>  <m_score__min__rmsd>  (28) 
6.803913072545146

>  <meeko>  (28) 
{"free_energy": -9.74, "intermolecular_energy": -10.64, "internal_energy": -0.97, "cluster_size": 48, "cluster_id": 1, "rank_in_cluster": 4}

>  <energy>  (28) 
-9.73

>  <cluster_rmsd>  (28) 
0.05

>  <cluster>  (28) 
1

$$$$

     RDKit          3D

 58 62  0  0  0  0  0  0  0  0999 V2000
  142.1680   73.0560  219.1860 O   0  0  0  0  0  0  0  0  0  0  0  0
  141.4550   73.3380  220.1860 C   0  0  0  0  0  0  0  0  0  0  0  0
  140.6730   72.2540  220.8180 C   0  0  0  0  0  0  0  0  0  0  0  0
  139.9190   72.8190  221.9560 C   0  0  0  0  0  0  0  0  0  0  0  0
  139.0480   71.9100  222.7340 C   0  0  0  0  0  0  0  0  0  0  0  0
  137.6770   72.1090  222.7320 C   0  0  0  0  0  0  0  0  0  0  0  0
  136.8630   71.2640  223.4580 C   0  0  0  0  0  0  0  0  0  0  0  0
  137.3830   70.2300  224.1840 C   0  0  0  0  0  0  0  0  0  0  0  0
  138.7590   70.0010  224.2060 C   0  0  0  0  0  0  0  0  0  0  0  0
  139.3390   68.9220  224.9690 C   0  0  0  0  0  0  0  0  0  0  0  0
  139.2030   67.7120  224.6350 O   0  0  0  0  0  0  0  0  0  0  0  0
  140.0920   69.2880  226.1430 N   0  0  0  0  0  0  0  0  0  0  0  0
  140.2490   70.6950  226.5300 C   0  0  0  0  0  0  0  0  0  0  0  0
  140.7430   70.7110  227.9520 C   0  0  0  0  0  0  0  0  0  0  0  0
  140.0580   69.7080  228.6460 O   0  0  0  0  0  0  0  0  0  0  0  0
  140.7120   68.5250  228.4100 C   0  0  0  0  0  0  0  0  0  0  0  0
  140.6980   68.2280  226.9440 C   0  0  0  0  0  0  0  0  0  0  0  0
  139.5450   70.8710  223.4630 C   0  0  0  0  0  0  0  0  0  0  0  0
  139.9380   74.0390  222.3360 N   0  0  0  0  0  0  0  0  0  0  0  0
  140.6870   75.0870  221.7390 C   0  0  0  0  0  0  0  0  0  0  0  0
  140.6810   76.3860  222.1760 C   0  0  0  0  0  0  0  0  0  0  0  0
  141.4340   77.3520  221.5420 C   0  0  0  0  0  0  0  0  0  0  0  0
  141.4570   78.7180  221.9760 N   0  0  0  0  0  0  0  0  0  0  0  0
  141.1580   79.8200  221.0860 C   0  0  0  0  0  0  0  0  0  0  0  0
  140.5600   80.9060  221.9910 C   0  0  0  0  0  0  0  0  0  0  0  0
  141.7270   81.4550  222.7970 C   0  0  0  0  0  0  0  0  0  0  0  0
  142.3820   80.3610  223.5690 C   0  0  0  0  0  0  0  0  0  0  0  0
  141.8040   79.0000  223.3550 C   0  0  0  0  0  0  0  0  0  0  0  0
  142.1890   76.9610  220.4580 C   0  0  0  0  0  0  0  0  0  0  0  0
  142.2270   75.6660  219.9810 C   0  0  0  0  0  0  0  0  0  0  0  0
  141.4650   74.7180  220.6330 C   0  0  0  0  0  0  0  0  0  0  0  0
  139.9729   71.8263  220.0852 H   0  0  0  0  0  0  0  0  0  0  0  0
  141.3478   71.4603  221.1711 H   0  0  0  0  0  0  0  0  0  0  0  0
  137.2395   72.9366  222.1544 H   0  0  0  0  0  0  0  0  0  0  0  0
  135.7750   71.4259  223.4522 H   0  0  0  0  0  0  0  0  0  0  0  0
  136.7113   69.5728  224.7558 H   0  0  0  0  0  0  0  0  0  0  0  0
  140.9791   71.1882  225.8714 H   0  0  0  0  0  0  0  0  0  0  0  0
  139.2943   71.2341  226.4413 H   0  0  0  0  0  0  0  0  0  0  0  0
  141.8247   70.5128  227.9761 H   0  0  0  0  0  0  0  0  0  0  0  0
  140.5638   71.6933  228.4135 H   0  0  0  0  0  0  0  0  0  0  0  0
  141.7526   68.6063  228.7572 H   0  0  0  0  0  0  0  0  0  0  0  0
  140.2055   67.7129  228.9522 H   0  0  0  0  0  0  0  0  0  0  0  0
  141.7355   68.0863  226.6071 H   0  0  0  0  0  0  0  0  0  0  0  0
  140.0873   67.3242  226.8017 H   0  0  0  0  0  0  0  0  0  0  0  0
  140.6335   70.7126  223.4625 H   0  0  0  0  0  0  0  0  0  0  0  0
  140.0664   76.6623  223.0454 H   0  0  0  0  0  0  0  0  0  0  0  0
  142.0746   80.1837  220.5985 H   0  0  0  0  0  0  0  0  0  0  0  0
  140.4694   79.5267  220.2799 H   0  0  0  0  0  0  0  0  0  0  0  0
  140.1035   81.7024  221.3849 H   0  0  0  0  0  0  0  0  0  0  0  0
  139.7695   80.5038  222.6416 H   0  0  0  0  0  0  0  0  0  0  0  0
  142.4607   81.9058  222.1125 H   0  0  0  0  0  0  0  0  0  0  0  0
  141.3515   82.2137  223.4994 H   0  0  0  0  0  0  0  0  0  0  0  0
  143.4433   80.3295  223.2817 H   0  0  0  0  0  0  0  0  0  0  0  0
  142.2224   80.5979  224.6313 H   0  0  0  0  0  0  0  0  0  0  0  0
  142.5423   78.2546  223.6855 H   0  0  0  0  0  0  0  0  0  0  0  0
  140.8699   78.9558  223.9341 H   0  0  0  0  0  0  0  0  0  0  0  0
  142.7946   77.7222  219.9444 H   0  0  0  0  0  0  0  0  0  0  0  0
  142.8440   75.3988  219.1104 H   0  0  0  0  0  0  0  0  0  0  0  0
  1  2  2  0
  2  3  1  0
  3  4  1  0
  4  5  1  0
  5  6  2  0
  6  7  1  0
  7  8  2  0
  8  9  1  0
  9 10  1  0
 10 11  2  0
 10 12  1  0
 12 13  1  0
 13 14  1  0
 14 15  1  0
 15 16  1  0
 16 17  1  0
  9 18  2  0
  4 19  2  0
 19 20  1  0
 20 21  2  0
 21 22  1  0
 22 23  1  0
 23 24  1  0
 24 25  1  0
 25 26  1  0
 26 27  1  0
 27 28  1  0
 22 29  2  0
 29 30  1  0
 30 31  2  0
 31  2  1  0
 18  5  1  0
 31 20  1  0
 17 12  1  0
 28 23  1  0
  3 32  1  0
  3 33  1  0
  6 34  1  0
  7 35  1  0
  8 36  1  0
 13 37  1  0
 13 38  1  0
 14 39  1  0
 14 40  1  0
 16 41  1  0
 16 42  1  0
 17 43  1  0
 17 44  1  0
 18 45  1  0
 21 46  1  0
 24 47  1  0
 24 48  1  0
 25 49  1  0
 25 50  1  0
 26 51  1  0
 26 52  1  0
 27 53  1  0
 27 54  1  0
 28 55  1  0
 28 56  1  0
 29 57  1  0
 30 58  1  0
M  END
>  <smiles>  (29) 
O=C1CC(c2cccc(C(=O)N3CCOCC3)c2)=Nc2cc(N3CCCCC3)ccc21

>  <score_type>  (29) 
oracle

>  <origin>  (29) 
autodockgpu

>  <m_score__min__energy>  (29) 
-9.7400000000000002

>  <m_primary>  (29) 
energy

>  <rmsd>  (29) 
6.801489383815669

>  <m_score__min__rmsd>  (29) 
6.801489383815669

>  <meeko>  (29) 
{"free_energy": -9.73, "intermolecular_energy": -10.63, "internal_energy": -0.97, "cluster_size": 48, "cluster_id": 1, "rank_in_cluster": 24}

>  <energy>  (29) 
-9.73

>  <cluster_rmsd>  (29) 
0.1

>  <cluster>  (29) 
1

$$$$

     RDKit          3D

 58 62  0  0  0  0  0  0  0  0999 V2000
  142.1400   73.0560  219.1690 O   0  0  0  0  0  0  0  0  0  0  0  0
  141.4360   73.3380  220.1760 C   0  0  0  0  0  0  0  0  0  0  0  0
  140.6540   72.2570  220.8110 C   0  0  0  0  0  0  0  0  0  0  0  0
  139.9130   72.8230  221.9570 C   0  0  0  0  0  0  0  0  0  0  0  0
  139.0440   71.9160  222.7400 C   0  0  0  0  0  0  0  0  0  0  0  0
  137.6730   72.1170  222.7420 C   0  0  0  0  0  0  0  0  0  0  0  0
  136.8600   71.2740  223.4720 C   0  0  0  0  0  0  0  0  0  0  0  0
  137.3820   70.2410  224.1980 C   0  0  0  0  0  0  0  0  0  0  0  0
  138.7570   70.0110  224.2170 C   0  0  0  0  0  0  0  0  0  0  0  0
  139.3390   68.9330  224.9800 C   0  0  0  0  0  0  0  0  0  0  0  0
  139.2020   67.7220  224.6470 O   0  0  0  0  0  0  0  0  0  0  0  0
  140.0930   69.3000  226.1520 N   0  0  0  0  0  0  0  0  0  0  0  0
  140.2510   70.7080  226.5380 C   0  0  0  0  0  0  0  0  0  0  0  0
  140.7480   70.7250  227.9580 C   0  0  0  0  0  0  0  0  0  0  0  0
  140.0640   69.7230  228.6550 O   0  0  0  0  0  0  0  0  0  0  0  0
  140.7170   68.5400  228.4190 C   0  0  0  0  0  0  0  0  0  0  0  0
  140.7010   68.2410  226.9530 C   0  0  0  0  0  0  0  0  0  0  0  0
  139.5420   70.8790  223.4690 C   0  0  0  0  0  0  0  0  0  0  0  0
  139.9420   74.0420  222.3410 N   0  0  0  0  0  0  0  0  0  0  0  0
  140.6920   75.0870  221.7400 C   0  0  0  0  0  0  0  0  0  0  0  0
  140.6970   76.3850  222.1810 C   0  0  0  0  0  0  0  0  0  0  0  0
  141.4500   77.3480  221.5440 C   0  0  0  0  0  0  0  0  0  0  0  0
  141.4840   78.7120  221.9820 N   0  0  0  0  0  0  0  0  0  0  0  0
  141.4210   79.8260  221.0580 C   0  0  0  0  0  0  0  0  0  0  0  0
  140.7440   80.9540  221.8480 C   0  0  0  0  0  0  0  0  0  0  0  0
  141.7820   81.4320  222.8510 C   0  0  0  0  0  0  0  0  0  0  0  0
  142.2160   80.3030  223.7220 C   0  0  0  0  0  0  0  0  0  0  0  0
  141.5990   78.9810  223.4020 C   0  0  0  0  0  0  0  0  0  0  0  0
  142.1930   76.9570  220.4520 C   0  0  0  0  0  0  0  0  0  0  0  0
  142.2200   75.6630  219.9710 C   0  0  0  0  0  0  0  0  0  0  0  0
  141.4580   74.7170  220.6270 C   0  0  0  0  0  0  0  0  0  0  0  0
  139.9453   71.8354  220.0831 H   0  0  0  0  0  0  0  0  0  0  0  0
  141.3273   71.4584  221.1559 H   0  0  0  0  0  0  0  0  0  0  0  0
  137.2348   72.9444  222.1646 H   0  0  0  0  0  0  0  0  0  0  0  0
  135.7721   71.4367  223.4693 H   0  0  0  0  0  0  0  0  0  0  0  0
  136.7116   69.5850  224.7726 H   0  0  0  0  0  0  0  0  0  0  0  0
  140.9796   71.2007  225.8774 H   0  0  0  0  0  0  0  0  0  0  0  0
  139.2961   71.2470  226.4512 H   0  0  0  0  0  0  0  0  0  0  0  0
  141.8297   70.5262  227.9797 H   0  0  0  0  0  0  0  0  0  0  0  0
  140.5704   71.7079  228.4189 H   0  0  0  0  0  0  0  0  0  0  0  0
  141.7581   68.6214  228.7646 H   0  0  0  0  0  0  0  0  0  0  0  0
  140.2106   67.7288  228.9626 H   0  0  0  0  0  0  0  0  0  0  0  0
  141.7381   68.0995  226.6146 H   0  0  0  0  0  0  0  0  0  0  0  0
  140.0909   67.3365  226.8126 H   0  0  0  0  0  0  0  0  0  0  0  0
  140.6304   70.7194  223.4652 H   0  0  0  0  0  0  0  0  0  0  0  0
  140.0911   76.6622  223.0562 H   0  0  0  0  0  0  0  0  0  0  0  0
  142.4315   80.1259  220.7434 H   0  0  0  0  0  0  0  0  0  0  0  0
  140.8695   79.5732  220.1404 H   0  0  0  0  0  0  0  0  0  0  0  0
  140.4548   81.7742  221.1745 H   0  0  0  0  0  0  0  0  0  0  0  0
  139.8265   80.6077  222.3462 H   0  0  0  0  0  0  0  0  0  0  0  0
  142.6536   81.8292  222.3102 H   0  0  0  0  0  0  0  0  0  0  0  0
  141.3382   82.2188  223.4787 H   0  0  0  0  0  0  0  0  0  0  0  0
  143.3073   80.2010  223.6288 H   0  0  0  0  0  0  0  0  0  0  0  0
  141.8845   80.5569  224.7397 H   0  0  0  0  0  0  0  0  0  0  0  0
  142.2176   78.1920  223.8545 H   0  0  0  0  0  0  0  0  0  0  0  0
  140.5760   79.0012  223.8059 H   0  0  0  0  0  0  0  0  0  0  0  0
  142.7976   77.7168  219.9351 H   0  0  0  0  0  0  0  0  0  0  0  0
  142.8282   75.3949  219.0945 H   0  0  0  0  0  0  0  0  0  0  0  0
  1  2  2  0
  2  3  1  0
  3  4  1  0
  4  5  1  0
  5  6  2  0
  6  7  1  0
  7  8  2  0
  8  9  1  0
  9 10  1  0
 10 11  2  0
 10 12  1  0
 12 13  1  0
 13 14  1  0
 14 15  1  0
 15 16  1  0
 16 17  1  0
  9 18  2  0
  4 19  2  0
 19 20  1  0
 20 21  2  0
 21 22  1  0
 22 23  1  0
 23 24  1  0
 24 25  1  0
 25 26  1  0
 26 27  1  0
 27 28  1  0
 22 29  2  0
 29 30  1  0
 30 31  2  0
 31  2  1  0
 18  5  1  0
 31 20  1  0
 17 12  1  0
 28 23  1  0
  3 32  1  0
  3 33  1  0
  6 34  1  0
  7 35  1  0
  8 36  1  0
 13 37  1  0
 13 38  1  0
 14 39  1  0
 14 40  1  0
 16 41  1  0
 16 42  1  0
 17 43  1  0
 17 44  1  0
 18 45  1  0
 21 46  1  0
 24 47  1  0
 24 48  1  0
 25 49  1  0
 25 50  1  0
 26 51  1  0
 26 52  1  0
 27 53  1  0
 27 54  1  0
 28 55  1  0
 28 56  1  0
 29 57  1  0
 30 58  1  0
M  END
>  <smiles>  (30) 
O=C1CC(c2cccc(C(=O)N3CCOCC3)c2)=Nc2cc(N3CCCCC3)ccc21

>  <score_type>  (30) 
oracle

>  <origin>  (30) 
autodockgpu

>  <m_score__min__energy>  (30) 
-9.7400000000000002

>  <m_primary>  (30) 
energy

>  <rmsd>  (30) 
6.803446215906592

>  <m_score__min__rmsd>  (30) 
6.803446215906592

>  <meeko>  (30) 
{"free_energy": -9.74, "intermolecular_energy": -10.64, "internal_energy": -0.97, "cluster_size": 48, "cluster_id": 1, "rank_in_cluster": 3}

>  <energy>  (30) 
-9.73

>  <cluster_rmsd>  (30) 
0.08

>  <cluster>  (30) 
1

$$$$

     RDKit          3D

 58 62  0  0  0  0  0  0  0  0999 V2000
  142.0930   73.0510  219.1480 O   0  0  0  0  0  0  0  0  0  0  0  0
  141.4000   73.3290  220.1640 C   0  0  0  0  0  0  0  0  0  0  0  0
  140.6200   72.2460  220.7990 C   0  0  0  0  0  0  0  0  0  0  0  0
  139.8920   72.8070  221.9570 C   0  0  0  0  0  0  0  0  0  0  0  0
  139.0270   71.8980  222.7410 C   0  0  0  0  0  0  0  0  0  0  0  0
  137.6560   72.0960  222.7460 C   0  0  0  0  0  0  0  0  0  0  0  0
  136.8470   71.2510  223.4790 C   0  0  0  0  0  0  0  0  0  0  0  0
  137.3730   70.2190  224.2030 C   0  0  0  0  0  0  0  0  0  0  0  0
  138.7480   69.9920  224.2190 C   0  0  0  0  0  0  0  0  0  0  0  0
  139.3350   68.9160  224.9810 C   0  0  0  0  0  0  0  0  0  0  0  0
  139.2000   67.7050  224.6490 O   0  0  0  0  0  0  0  0  0  0  0  0
  140.0920   69.2850  226.1510 N   0  0  0  0  0  0  0  0  0  0  0  0
  140.2470   70.6930  226.5350 C   0  0  0  0  0  0  0  0  0  0  0  0
  140.7480   70.7120  227.9540 C   0  0  0  0  0  0  0  0  0  0  0  0
  140.0680   69.7090  228.6540 O   0  0  0  0  0  0  0  0  0  0  0  0
  140.7240   68.5270  228.4170 C   0  0  0  0  0  0  0  0  0  0  0  0
  140.7030   68.2270  226.9510 C   0  0  0  0  0  0  0  0  0  0  0  0
  139.5300   70.8620  223.4690 C   0  0  0  0  0  0  0  0  0  0  0  0
  139.9310   74.0230  222.3480 N   0  0  0  0  0  0  0  0  0  0  0  0
  140.6790   75.0690  221.7480 C   0  0  0  0  0  0  0  0  0  0  0  0
  140.6940   76.3640  222.1980 C   0  0  0  0  0  0  0  0  0  0  0  0
  141.4440   77.3290  221.5600 C   0  0  0  0  0  0  0  0  0  0  0  0
  141.4880   78.6900  222.0070 N   0  0  0  0  0  0  0  0  0  0  0  0
  141.4660   79.8100  221.0890 C   0  0  0  0  0  0  0  0  0  0  0  0
  140.7870   80.9440  221.8690 C   0  0  0  0  0  0  0  0  0  0  0  0
  141.8060   81.3990  222.9010 C   0  0  0  0  0  0  0  0  0  0  0  0
  142.2000   80.2580  223.7760 C   0  0  0  0  0  0  0  0  0  0  0  0
  141.5700   78.9480  223.4310 C   0  0  0  0  0  0  0  0  0  0  0  0
  142.1750   76.9420  220.4580 C   0  0  0  0  0  0  0  0  0  0  0  0
  142.1910   75.6520  219.9670 C   0  0  0  0  0  0  0  0  0  0  0  0
  141.4320   74.7040  220.6240 C   0  0  0  0  0  0  0  0  0  0  0  0
  139.9026   71.8323  220.0751 H   0  0  0  0  0  0  0  0  0  0  0  0
  141.2935   71.4424  221.1314 H   0  0  0  0  0  0  0  0  0  0  0  0
  137.2144   72.9219  222.1691 H   0  0  0  0  0  0  0  0  0  0  0  0
  135.7588   71.4117  223.4801 H   0  0  0  0  0  0  0  0  0  0  0  0
  136.7053   69.5611  224.7786 H   0  0  0  0  0  0  0  0  0  0  0  0
  140.9724   71.1873  225.8721 H   0  0  0  0  0  0  0  0  0  0  0  0
  139.2905   71.2295  226.4503 H   0  0  0  0  0  0  0  0  0  0  0  0
  141.8301   70.5154  227.9728 H   0  0  0  0  0  0  0  0  0  0  0  0
  140.5695   71.6948  228.4146 H   0  0  0  0  0  0  0  0  0  0  0  0
  141.7662   68.6118  228.7585 H   0  0  0  0  0  0  0  0  0  0  0  0
  140.2226   67.7147  228.9636 H   0  0  0  0  0  0  0  0  0  0  0  0
  141.7389   68.0856  226.6092 H   0  0  0  0  0  0  0  0  0  0  0  0
  140.0925   67.3223  226.8135 H   0  0  0  0  0  0  0  0  0  0  0  0
  140.6187   70.7051  223.4627 H   0  0  0  0  0  0  0  0  0  0  0  0
  140.0985   76.6372  223.0816 H   0  0  0  0  0  0  0  0  0  0  0  0
  142.4887   80.0956  220.8019 H   0  0  0  0  0  0  0  0  0  0  0  0
  140.9340   79.5715  220.1562 H   0  0  0  0  0  0  0  0  0  0  0  0
  140.5283   81.7729  221.1938 H   0  0  0  0  0  0  0  0  0  0  0  0
  139.8516   80.6093  222.3413 H   0  0  0  0  0  0  0  0  0  0  0  0
  142.6973   81.7855  222.3851 H   0  0  0  0  0  0  0  0  0  0  0  0
  141.3584   82.1888  223.5222 H   0  0  0  0  0  0  0  0  0  0  0  0
  143.2916   80.1391  223.7101 H   0  0  0  0  0  0  0  0  0  0  0  0
  141.8472   80.5109  224.7867 H   0  0  0  0  0  0  0  0  0  0  0  0
  142.1636   78.1461  223.8942 H   0  0  0  0  0  0  0  0  0  0  0  0
  140.5373   78.9824  223.8081 H   0  0  0  0  0  0  0  0  0  0  0  0
  142.7788   77.7026  219.9413 H   0  0  0  0  0  0  0  0  0  0  0  0
  142.7884   75.3881  219.0819 H   0  0  0  0  0  0  0  0  0  0  0  0
  1  2  2  0
  2  3  1  0
  3  4  1  0
  4  5  1  0
  5  6  2  0
  6  7  1  0
  7  8  2  0
  8  9  1  0
  9 10  1  0
 10 11  2  0
 10 12  1  0
 12 13  1  0
 13 14  1  0
 14 15  1  0
 15 16  1  0
 16 17  1  0
  9 18  2  0
  4 19  2  0
 19 20  1  0
 20 21  2  0
 21 22  1  0
 22 23  1  0
 23 24  1  0
 24 25  1  0
 25 26  1  0
 26 27  1  0
 27 28  1  0
 22 29  2  0
 29 30  1  0
 30 31  2  0
 31  2  1  0
 18  5  1  0
 31 20  1  0
 17 12  1  0
 28 23  1  0
  3 32  1  0
  3 33  1  0
  6 34  1  0
  7 35  1  0
  8 36  1  0
 13 37  1  0
 13 38  1  0
 14 39  1  0
 14 40  1  0
 16 41  1  0
 16 42  1  0
 17 43  1  0
 17 44  1  0
 18 45  1  0
 21 46  1  0
 24 47  1  0
 24 48  1  0
 25 49  1  0
 25 50  1  0
 26 51  1  0
 26 52  1  0
 27 53  1  0
 27 54  1  0
 28 55  1  0
 28 56  1  0
 29 57  1  0
 30 58  1  0
M  END
>  <smiles>  (31) 
O=C1CC(c2cccc(C(=O)N3CCOCC3)c2)=Nc2cc(N3CCCCC3)ccc21

>  <score_type>  (31) 
oracle

>  <origin>  (31) 
autodockgpu

>  <m_score__min__energy>  (31) 
-9.7400000000000002

>  <m_primary>  (31) 
energy

>  <rmsd>  (31) 
6.808593867456899

>  <m_score__min__rmsd>  (31) 
6.808593867456899

>  <meeko>  (31) 
{"free_energy": -9.74, "intermolecular_energy": -10.63, "internal_energy": -0.97, "cluster_size": 48, "cluster_id": 1, "rank_in_cluster": 6}

>  <energy>  (31) 
-9.73

>  <cluster_rmsd>  (31) 
0.07

>  <cluster>  (31) 
1

$$$$

     RDKit          3D

 58 62  0  0  0  0  0  0  0  0999 V2000
  137.0940   72.4470  220.8920 O   0  0  0  0  0  0  0  0  0  0  0  0
  138.2380   72.7320  221.3380 C   0  0  0  0  0  0  0  0  0  0  0  0
  139.0320   73.7560  220.6260 C   0  0  0  0  0  0  0  0  0  0  0  0
  140.3260   73.9160  221.3230 C   0  0  0  0  0  0  0  0  0  0  0  0
  141.2960   74.8880  220.7730 C   0  0  0  0  0  0  0  0  0  0  0  0
  142.5130   74.4380  220.2880 C   0  0  0  0  0  0  0  0  0  0  0  0
  143.4220   75.3410  219.7760 C   0  0  0  0  0  0  0  0  0  0  0  0
  143.1450   76.6790  219.7370 C   0  0  0  0  0  0  0  0  0  0  0  0
  141.9290   77.1650  220.2160 C   0  0  0  0  0  0  0  0  0  0  0  0
  141.6100   78.5730  220.1970 C   0  0  0  0  0  0  0  0  0  0  0  0
  141.4570   79.2130  219.1190 O   0  0  0  0  0  0  0  0  0  0  0  0
  141.4710   79.2250  221.4750 N   0  0  0  0  0  0  0  0  0  0  0  0
  141.6490   78.4790  222.7260 C   0  0  0  0  0  0  0  0  0  0  0  0
  141.8070   79.4920  223.8270 C   0  0  0  0  0  0  0  0  0  0  0  0
  142.6070   80.5290  223.3320 O   0  0  0  0  0  0  0  0  0  0  0  0
  141.7880   81.3830  222.6370 C   0  0  0  0  0  0  0  0  0  0  0  0
  141.1470   80.6490  221.5010 C   0  0  0  0  0  0  0  0  0  0  0  0
  141.0400   76.2260  220.7230 C   0  0  0  0  0  0  0  0  0  0  0  0
  140.6980   73.2820  222.3680 N   0  0  0  0  0  0  0  0  0  0  0  0
  139.9420   72.3000  223.0610 C   0  0  0  0  0  0  0  0  0  0  0  0
  140.3760   71.6380  224.1800 C   0  0  0  0  0  0  0  0  0  0  0  0
  139.5860   70.6930  224.7990 C   0  0  0  0  0  0  0  0  0  0  0  0
  140.0060   69.9880  225.9730 N   0  0  0  0  0  0  0  0  0  0  0  0
  140.6150   70.6570  227.1040 C   0  0  0  0  0  0  0  0  0  0  0  0
  140.2200   69.8100  228.3220 C   0  0  0  0  0  0  0  0  0  0  0  0
  141.0470   68.5380  228.2210 C   0  0  0  0  0  0  0  0  0  0  0  0
  140.7760   67.8460  226.9300 C   0  0  0  0  0  0  0  0  0  0  0  0
  139.8220   68.5510  226.0210 C   0  0  0  0  0  0  0  0  0  0  0  0
  138.3480   70.4410  224.2500 C   0  0  0  0  0  0  0  0  0  0  0  0
  137.8670   71.0800  223.1240 C   0  0  0  0  0  0  0  0  0  0  0  0
  138.6770   72.0230  222.5240 C   0  0  0  0  0  0  0  0  0  0  0  0
  139.2068   73.4347  219.5886 H   0  0  0  0  0  0  0  0  0  0  0  0
  138.4894   74.7128  220.6152 H   0  0  0  0  0  0  0  0  0  0  0  0
  142.7538   73.3649  220.3109 H   0  0  0  0  0  0  0  0  0  0  0  0
  144.3868   74.9777  219.3924 H   0  0  0  0  0  0  0  0  0  0  0  0
  143.8874   77.3780  219.3244 H   0  0  0  0  0  0  0  0  0  0  0  0
  140.7686   77.8480  222.9175 H   0  0  0  0  0  0  0  0  0  0  0  0
  142.5301   77.8230  222.6684 H   0  0  0  0  0  0  0  0  0  0  0  0
  140.8223   79.8845  224.1206 H   0  0  0  0  0  0  0  0  0  0  0  0
  142.2710   79.0331  224.7125 H   0  0  0  0  0  0  0  0  0  0  0  0
  141.0082   81.7707  223.3091 H   0  0  0  0  0  0  0  0  0  0  0  0
  142.3828   82.2200  222.2424 H   0  0  0  0  0  0  0  0  0  0  0  0
  140.0557   80.7569  221.5874 H   0  0  0  0  0  0  0  0  0  0  0  0
  141.5354   81.0878  220.5701 H   0  0  0  0  0  0  0  0  0  0  0  0
  140.0728   76.5829  221.1066 H   0  0  0  0  0  0  0  0  0  0  0  0
  141.3710   71.8645  224.5908 H   0  0  0  0  0  0  0  0  0  0  0  0
  141.7089   70.6882  226.9924 H   0  0  0  0  0  0  0  0  0  0  0  0
  140.2797   71.7004  227.1983 H   0  0  0  0  0  0  0  0  0  0  0  0
  140.4523   70.3460  229.2541 H   0  0  0  0  0  0  0  0  0  0  0  0
  139.1414   69.5943  228.3353 H   0  0  0  0  0  0  0  0  0  0  0  0
  142.1152   68.7943  228.2781 H   0  0  0  0  0  0  0  0  0  0  0  0
  140.7753   67.8679  229.0499 H   0  0  0  0  0  0  0  0  0  0  0  0
  141.7318   67.7309  226.3979 H   0  0  0  0  0  0  0  0  0  0  0  0
  140.3010   66.8884  227.1895 H   0  0  0  0  0  0  0  0  0  0  0  0
  139.9533   68.1514  225.0046 H   0  0  0  0  0  0  0  0  0  0  0  0
  138.8122   68.3726  226.4192 H   0  0  0  0  0  0  0  0  0  0  0  0
  137.7074   69.6897  224.7350 H   0  0  0  0  0  0  0  0  0  0  0  0
  136.8716   70.8453  222.7189 H   0  0  0  0  0  0  0  0  0  0  0  0
  1  2  2  0
  2  3  1  0
  3  4  1  0
  4  5  1  0
  5  6  2  0
  6  7  1  0
  7  8  2  0
  8  9  1  0
  9 10  1  0
 10 11  2  0
 10 12  1  0
 12 13  1  0
 13 14  1  0
 14 15  1  0
 15 16  1  0
 16 17  1  0
  9 18  2  0
  4 19  2  0
 19 20  1  0
 20 21  2  0
 21 22  1  0
 22 23  1  0
 23 24  1  0
 24 25  1  0
 25 26  1  0
 26 27  1  0
 27 28  1  0
 22 29  2  0
 29 30  1  0
 30 31  2  0
 31  2  1  0
 18  5  1  0
 31 20  1  0
 17 12  1  0
 28 23  1  0
  3 32  1  0
  3 33  1  0
  6 34  1  0
  7 35  1  0
  8 36  1  0
 13 37  1  0
 13 38  1  0
 14 39  1  0
 14 40  1  0
 16 41  1  0
 16 42  1  0
 17 43  1  0
 17 44  1  0
 18 45  1  0
 21 46  1  0
 24 47  1  0
 24 48  1  0
 25 49  1  0
 25 50  1  0
 26 51  1  0
 26 52  1  0
 27 53  1  0
 27 54  1  0
 28 55  1  0
 28 56  1  0
 29 57  1  0
 30 58  1  0
M  END
>  <smiles>  (32) 
O=C1CC(c2cccc(C(=O)N3CCOCC3)c2)=Nc2cc(N3CCCCC3)ccc21

>  <score_type>  (32) 
oracle

>  <origin>  (32) 
autodockgpu

>  <m_score__min__energy>  (32) 
-9.7400000000000002

>  <m_primary>  (32) 
energy

>  <rmsd>  (32) 
10.691362817082933

>  <m_score__min__rmsd>  (32) 
10.691362817082933

>  <meeko>  (32) 
{"free_energy": -9.38, "intermolecular_energy": -10.27, "internal_energy": -0.94, "cluster_size": 2, "cluster_id": 2, "rank_in_cluster": 1}

>  <energy>  (32) 
-9.73

>  <cluster_rmsd>  (32) 
0.06

>  <cluster>  (32) 
1

$$$$

     RDKit          3D

 58 62  0  0  0  0  0  0  0  0999 V2000
  142.1100   73.0420  219.1560 O   0  0  0  0  0  0  0  0  0  0  0  0
  141.4120   73.3260  220.1660 C   0  0  0  0  0  0  0  0  0  0  0  0
  140.6270   72.2460  220.8010 C   0  0  0  0  0  0  0  0  0  0  0  0
  139.8920   72.8140  221.9520 C   0  0  0  0  0  0  0  0  0  0  0  0
  139.0220   71.9090  222.7350 C   0  0  0  0  0  0  0  0  0  0  0  0
  137.6530   72.1190  222.7460 C   0  0  0  0  0  0  0  0  0  0  0  0
  136.8380   71.2780  223.4770 C   0  0  0  0  0  0  0  0  0  0  0  0
  137.3570   70.2380  224.1960 C   0  0  0  0  0  0  0  0  0  0  0  0
  138.7310   69.9990  224.2060 C   0  0  0  0  0  0  0  0  0  0  0  0
  139.3100   68.9130  224.9610 C   0  0  0  0  0  0  0  0  0  0  0  0
  139.1690   67.7060  224.6200 O   0  0  0  0  0  0  0  0  0  0  0  0
  140.0670   69.2700  226.1350 N   0  0  0  0  0  0  0  0  0  0  0  0
  140.2290   70.6750  226.5290 C   0  0  0  0  0  0  0  0  0  0  0  0
  140.7280   70.6810  227.9490 C   0  0  0  0  0  0  0  0  0  0  0  0
  140.0410   69.6760  228.6400 O   0  0  0  0  0  0  0  0  0  0  0  0
  140.6900   68.4920  228.3960 C   0  0  0  0  0  0  0  0  0  0  0  0
  140.6710   68.2030  226.9280 C   0  0  0  0  0  0  0  0  0  0  0  0
  139.5170   70.8650  223.4570 C   0  0  0  0  0  0  0  0  0  0  0  0
  139.9300   74.0310  222.3380 N   0  0  0  0  0  0  0  0  0  0  0  0
  140.6820   75.0740  221.7380 C   0  0  0  0  0  0  0  0  0  0  0  0
  140.6950   76.3700  222.1810 C   0  0  0  0  0  0  0  0  0  0  0  0
  141.4500   77.3320  221.5440 C   0  0  0  0  0  0  0  0  0  0  0  0
  141.4930   78.6950  221.9850 N   0  0  0  0  0  0  0  0  0  0  0  0
  141.4940   79.8100  221.0610 C   0  0  0  0  0  0  0  0  0  0  0  0
  140.8060   80.9520  221.8210 C   0  0  0  0  0  0  0  0  0  0  0  0
  141.8070   81.4070  222.8710 C   0  0  0  0  0  0  0  0  0  0  0  0
  142.1780   80.2690  223.7590 C   0  0  0  0  0  0  0  0  0  0  0  0
  141.5490   78.9600  223.4090 C   0  0  0  0  0  0  0  0  0  0  0  0
  142.1880   76.9400  220.4480 C   0  0  0  0  0  0  0  0  0  0  0  0
  142.2060   75.6470  219.9640 C   0  0  0  0  0  0  0  0  0  0  0  0
  141.4420   74.7030  220.6200 C   0  0  0  0  0  0  0  0  0  0  0  0
  139.9138   71.8293  220.0745 H   0  0  0  0  0  0  0  0  0  0  0  0
  141.2974   71.4430  221.1413 H   0  0  0  0  0  0  0  0  0  0  0  0
  137.2172   72.9520  222.1749 H   0  0  0  0  0  0  0  0  0  0  0  0
  135.7512   71.4480  223.4808 H   0  0  0  0  0  0  0  0  0  0  0  0
  136.6854   69.5840  224.7716 H   0  0  0  0  0  0  0  0  0  0  0  0
  140.9581   71.1700  225.8706 H   0  0  0  0  0  0  0  0  0  0  0  0
  139.2756   71.2175  226.4464 H   0  0  0  0  0  0  0  0  0  0  0  0
  141.8090   70.4785  227.9682 H   0  0  0  0  0  0  0  0  0  0  0  0
  140.5544   71.6613  228.4168 H   0  0  0  0  0  0  0  0  0  0  0  0
  141.7318   68.5676  228.7409 H   0  0  0  0  0  0  0  0  0  0  0  0
  140.1820   67.6789  228.9352 H   0  0  0  0  0  0  0  0  0  0  0  0
  141.7070   68.0591  226.5874 H   0  0  0  0  0  0  0  0  0  0  0  0
  140.0567   67.3023  226.7821 H   0  0  0  0  0  0  0  0  0  0  0  0
  140.6042   70.6980  223.4460 H   0  0  0  0  0  0  0  0  0  0  0  0
  140.0935   76.6478  223.0590 H   0  0  0  0  0  0  0  0  0  0  0  0
  142.5235   80.0890  220.7920 H   0  0  0  0  0  0  0  0  0  0  0  0
  140.9784   79.5688  220.1198 H   0  0  0  0  0  0  0  0  0  0  0  0
  140.5656   81.7786  221.1362 H   0  0  0  0  0  0  0  0  0  0  0  0
  139.8594   80.6252  222.2762 H   0  0  0  0  0  0  0  0  0  0  0  0
  142.7103   81.7865  222.3709 H   0  0  0  0  0  0  0  0  0  0  0  0
  141.3511   82.2019  223.4795 H   0  0  0  0  0  0  0  0  0  0  0  0
  143.2701   80.1447  223.7151 H   0  0  0  0  0  0  0  0  0  0  0  0
  141.8062   80.5290  224.7611 H   0  0  0  0  0  0  0  0  0  0  0  0
  142.1302   78.1580  223.8875 H   0  0  0  0  0  0  0  0  0  0  0  0
  140.5094   79.0007  223.7663 H   0  0  0  0  0  0  0  0  0  0  0  0
  142.7952   77.6978  219.9312 H   0  0  0  0  0  0  0  0  0  0  0  0
  142.8094   75.3780  219.0845 H   0  0  0  0  0  0  0  0  0  0  0  0
  1  2  2  0
  2  3  1  0
  3  4  1  0
  4  5  1  0
  5  6  2  0
  6  7  1  0
  7  8  2  0
  8  9  1  0
  9 10  1  0
 10 11  2  0
 10 12  1  0
 12 13  1  0
 13 14  1  0
 14 15  1  0
 15 16  1  0
 16 17  1  0
  9 18  2  0
  4 19  2  0
 19 20  1  0
 20 21  2  0
 21 22  1  0
 22 23  1  0
 23 24  1  0
 24 25  1  0
 25 26  1  0
 26 27  1  0
 27 28  1  0
 22 29  2  0
 29 30  1  0
 30 31  2  0
 31  2  1  0
 18  5  1  0
 31 20  1  0
 17 12  1  0
 28 23  1  0
  3 32  1  0
  3 33  1  0
  6 34  1  0
  7 35  1  0
  8 36  1  0
 13 37  1  0
 13 38  1  0
 14 39  1  0
 14 40  1  0
 16 41  1  0
 16 42  1  0
 17 43  1  0
 17 44  1  0
 18 45  1  0
 21 46  1  0
 24 47  1  0
 24 48  1  0
 25 49  1  0
 25 50  1  0
 26 51  1  0
 26 52  1  0
 27 53  1  0
 27 54  1  0
 28 55  1  0
 28 56  1  0
 29 57  1  0
 30 58  1  0
M  END
>  <smiles>  (33) 
O=C1CC(c2cccc(C(=O)N3CCOCC3)c2)=Nc2cc(N3CCCCC3)ccc21

>  <score_type>  (33) 
oracle

>  <origin>  (33) 
autodockgpu

>  <m_score__min__energy>  (33) 
-9.7400000000000002

>  <m_primary>  (33) 
energy

>  <rmsd>  (33) 
6.804272074416546

>  <m_score__min__rmsd>  (33) 
6.804272074416546

>  <meeko>  (33) 
{"free_energy": -9.72, "intermolecular_energy": -10.61, "internal_energy": -0.97, "cluster_size": 48, "cluster_id": 1, "rank_in_cluster": 35}

>  <energy>  (33) 
-9.73

>  <cluster_rmsd>  (33) 
0.07

>  <cluster>  (33) 
1

$$$$

     RDKit          3D

 58 62  0  0  0  0  0  0  0  0999 V2000
  142.0340   73.0780  219.1010 O   0  0  0  0  0  0  0  0  0  0  0  0
  141.3580   73.3540  220.1290 C   0  0  0  0  0  0  0  0  0  0  0  0
  140.5830   72.2710  220.7700 C   0  0  0  0  0  0  0  0  0  0  0  0
  139.8750   72.8300  221.9410 C   0  0  0  0  0  0  0  0  0  0  0  0
  139.0180   71.9210  222.7340 C   0  0  0  0  0  0  0  0  0  0  0  0
  137.6470   72.1220  222.7580 C   0  0  0  0  0  0  0  0  0  0  0  0
  136.8450   71.2770  223.4980 C   0  0  0  0  0  0  0  0  0  0  0  0
  137.3780   70.2410  224.2120 C   0  0  0  0  0  0  0  0  0  0  0  0
  138.7530   70.0110  224.2100 C   0  0  0  0  0  0  0  0  0  0  0  0
  139.3460   68.9310  224.9610 C   0  0  0  0  0  0  0  0  0  0  0  0
  139.2080   67.7220  224.6240 O   0  0  0  0  0  0  0  0  0  0  0  0
  140.1140   69.2940  226.1260 N   0  0  0  0  0  0  0  0  0  0  0  0
  140.2730   70.7000  226.5150 C   0  0  0  0  0  0  0  0  0  0  0  0
  140.7880   70.7120  227.9300 C   0  0  0  0  0  0  0  0  0  0  0  0
  140.1140   69.7050  228.6300 O   0  0  0  0  0  0  0  0  0  0  0  0
  140.7670   68.5250  228.3810 C   0  0  0  0  0  0  0  0  0  0  0  0
  140.7330   68.2320  226.9140 C   0  0  0  0  0  0  0  0  0  0  0  0
  139.5270   70.8810  223.4530 C   0  0  0  0  0  0  0  0  0  0  0  0
  139.9250   74.0430  222.3380 N   0  0  0  0  0  0  0  0  0  0  0  0
  140.6680   75.0900  221.7320 C   0  0  0  0  0  0  0  0  0  0  0  0
  140.6960   76.3820  222.1880 C   0  0  0  0  0  0  0  0  0  0  0  0
  141.4410   77.3470  221.5440 C   0  0  0  0  0  0  0  0  0  0  0  0
  141.4980   78.7050  221.9970 N   0  0  0  0  0  0  0  0  0  0  0  0
  141.4250   79.0590  223.4000 C   0  0  0  0  0  0  0  0  0  0  0  0
  142.2380   80.3560  223.5200 C   0  0  0  0  0  0  0  0  0  0  0  0
  141.3850   81.4360  222.8750 C   0  0  0  0  0  0  0  0  0  0  0  0
  141.0830   81.0790  221.4600 C   0  0  0  0  0  0  0  0  0  0  0  0
  141.6210   79.7590  221.0100 C   0  0  0  0  0  0  0  0  0  0  0  0
  142.1530   76.9620  220.4300 C   0  0  0  0  0  0  0  0  0  0  0  0
  142.1570   75.6740  219.9320 C   0  0  0  0  0  0  0  0  0  0  0  0
  141.4030   74.7270  220.5960 C   0  0  0  0  0  0  0  0  0  0  0  0
  139.8531   71.8638  220.0548 H   0  0  0  0  0  0  0  0  0  0  0  0
  141.2576   71.4626  221.0883 H   0  0  0  0  0  0  0  0  0  0  0  0
  137.2001   72.9512  222.1899 H   0  0  0  0  0  0  0  0  0  0  0  0
  135.7573   71.4404  223.5133 H   0  0  0  0  0  0  0  0  0  0  0  0
  136.7161   69.5825  224.7936 H   0  0  0  0  0  0  0  0  0  0  0  0
  140.9921   71.1973  225.8474 H   0  0  0  0  0  0  0  0  0  0  0  0
  139.3159   71.2372  226.4420 H   0  0  0  0  0  0  0  0  0  0  0  0
  141.8702   70.5153  227.9377 H   0  0  0  0  0  0  0  0  0  0  0  0
  140.6147   71.6924  228.3977 H   0  0  0  0  0  0  0  0  0  0  0  0
  141.8122   68.6078  228.7136 H   0  0  0  0  0  0  0  0  0  0  0  0
  140.2699   67.7101  228.9277 H   0  0  0  0  0  0  0  0  0  0  0  0
  141.7658   68.0930  226.5619 H   0  0  0  0  0  0  0  0  0  0  0  0
  140.1225   67.3273  226.7770 H   0  0  0  0  0  0  0  0  0  0  0  0
  140.6151   70.7212  223.4325 H   0  0  0  0  0  0  0  0  0  0  0  0
  140.1150   76.6534  223.0818 H   0  0  0  0  0  0  0  0  0  0  0  0
  140.3811   79.2265  223.7036 H   0  0  0  0  0  0  0  0  0  0  0  0
  141.8157   78.2623  224.0501 H   0  0  0  0  0  0  0  0  0  0  0  0
  142.4251   80.5952  224.5773 H   0  0  0  0  0  0  0  0  0  0  0  0
  143.2194   80.2672  223.0311 H   0  0  0  0  0  0  0  0  0  0  0  0
  140.4425   81.5359  223.4333 H   0  0  0  0  0  0  0  0  0  0  0  0
  141.9367   82.3875  222.8945 H   0  0  0  0  0  0  0  0  0  0  0  0
  139.9898   81.0604  221.3392 H   0  0  0  0  0  0  0  0  0  0  0  0
  141.5796   81.8396  220.8397 H   0  0  0  0  0  0  0  0  0  0  0  0
  141.0738   79.4523  220.1064 H   0  0  0  0  0  0  0  0  0  0  0  0
  142.6965   79.8994  220.8266 H   0  0  0  0  0  0  0  0  0  0  0  0
  142.7519   77.7227  219.9078 H   0  0  0  0  0  0  0  0  0  0  0  0
  142.7407   75.4116  219.0373 H   0  0  0  0  0  0  0  0  0  0  0  0
  1  2  2  0
  2  3  1  0
  3  4  1  0
  4  5  1  0
  5  6  2  0
  6  7  1  0
  7  8  2  0
  8  9  1  0
  9 10  1  0
 10 11  2  0
 10 12  1  0
 12 13  1  0
 13 14  1  0
 14 15  1  0
 15 16  1  0
 16 17  1  0
  9 18  2  0
  4 19  2  0
 19 20  1  0
 20 21  2  0
 21 22  1  0
 22 23  1  0
 23 24  1  0
 24 25  1  0
 25 26  1  0
 26 27  1  0
 27 28  1  0
 22 29  2  0
 29 30  1  0
 30 31  2  0
 31  2  1  0
 18  5  1  0
 31 20  1  0
 17 12  1  0
 28 23  1  0
  3 32  1  0
  3 33  1  0
  6 34  1  0
  7 35  1  0
  8 36  1  0
 13 37  1  0
 13 38  1  0
 14 39  1  0
 14 40  1  0
 16 41  1  0
 16 42  1  0
 17 43  1  0
 17 44  1  0
 18 45  1  0
 21 46  1  0
 24 47  1  0
 24 48  1  0
 25 49  1  0
 25 50  1  0
 26 51  1  0
 26 52  1  0
 27 53  1  0
 27 54  1  0
 28 55  1  0
 28 56  1  0
 29 57  1  0
 30 58  1  0
M  END
>  <smiles>  (34) 
O=C1CC(c2cccc(C(=O)N3CCOCC3)c2)=Nc2cc(N3CCCCC3)ccc21

>  <score_type>  (34) 
oracle

>  <origin>  (34) 
autodockgpu

>  <m_score__min__energy>  (34) 
-9.7400000000000002

>  <m_primary>  (34) 
energy

>  <rmsd>  (34) 
6.568682940975709

>  <m_score__min__rmsd>  (34) 
6.568682940975709

>  <meeko>  (34) 
{"free_energy": -9.69, "intermolecular_energy": -10.59, "internal_energy": -0.97, "cluster_size": 48, "cluster_id": 1, "rank_in_cluster": 41}

>  <energy>  (34) 
-9.73

>  <cluster_rmsd>  (34) 
0.1

>  <cluster>  (34) 
1

$$$$

     RDKit          3D

 58 62  0  0  0  0  0  0  0  0999 V2000
  142.1220   73.0370  219.1570 O   0  0  0  0  0  0  0  0  0  0  0  0
  141.4210   73.3180  220.1670 C   0  0  0  0  0  0  0  0  0  0  0  0
  140.6400   72.2360  220.8030 C   0  0  0  0  0  0  0  0  0  0  0  0
  139.9020   72.8020  221.9520 C   0  0  0  0  0  0  0  0  0  0  0  0
  139.0350   71.8940  222.7350 C   0  0  0  0  0  0  0  0  0  0  0  0
  137.6650   72.0940  222.7400 C   0  0  0  0  0  0  0  0  0  0  0  0
  136.8530   71.2510  223.4720 C   0  0  0  0  0  0  0  0  0  0  0  0
  137.3760   70.2170  224.1960 C   0  0  0  0  0  0  0  0  0  0  0  0
  138.7520   69.9880  224.2120 C   0  0  0  0  0  0  0  0  0  0  0  0
  139.3350   68.9090  224.9740 C   0  0  0  0  0  0  0  0  0  0  0  0
  139.1990   67.6990  224.6400 O   0  0  0  0  0  0  0  0  0  0  0  0
  140.0910   69.2760  226.1450 N   0  0  0  0  0  0  0  0  0  0  0  0
  140.2480   70.6840  226.5320 C   0  0  0  0  0  0  0  0  0  0  0  0
  140.7470   70.7010  227.9510 C   0  0  0  0  0  0  0  0  0  0  0  0
  140.0640   69.6970  228.6480 O   0  0  0  0  0  0  0  0  0  0  0  0
  140.7180   68.5150  228.4110 C   0  0  0  0  0  0  0  0  0  0  0  0
  140.7000   68.2170  226.9450 C   0  0  0  0  0  0  0  0  0  0  0  0
  139.5350   70.8560  223.4630 C   0  0  0  0  0  0  0  0  0  0  0  0
  139.9340   74.0190  222.3370 N   0  0  0  0  0  0  0  0  0  0  0  0
  140.6830   75.0650  221.7360 C   0  0  0  0  0  0  0  0  0  0  0  0
  140.6900   76.3620  222.1780 C   0  0  0  0  0  0  0  0  0  0  0  0
  141.4420   77.3260  221.5400 C   0  0  0  0  0  0  0  0  0  0  0  0
  141.4780   78.6900  221.9800 N   0  0  0  0  0  0  0  0  0  0  0  0
  141.4380   79.8050  221.0560 C   0  0  0  0  0  0  0  0  0  0  0  0
  140.7560   80.9370  221.8360 C   0  0  0  0  0  0  0  0  0  0  0  0
  141.7800   81.4060  222.8570 C   0  0  0  0  0  0  0  0  0  0  0  0
  142.1910   80.2740  223.7340 C   0  0  0  0  0  0  0  0  0  0  0  0
  141.5700   78.9560  223.4020 C   0  0  0  0  0  0  0  0  0  0  0  0
  142.1810   76.9360  220.4460 C   0  0  0  0  0  0  0  0  0  0  0  0
  142.2060   75.6420  219.9630 C   0  0  0  0  0  0  0  0  0  0  0  0
  141.4450   74.6960  220.6200 C   0  0  0  0  0  0  0  0  0  0  0  0
  139.9292   71.8153  220.0765 H   0  0  0  0  0  0  0  0  0  0  0  0
  141.3136   71.4365  221.1451 H   0  0  0  0  0  0  0  0  0  0  0  0
  137.2254   72.9211  222.1632 H   0  0  0  0  0  0  0  0  0  0  0  0
  135.7652   71.4147  223.4724 H   0  0  0  0  0  0  0  0  0  0  0  0
  136.7068   69.5599  224.7708 H   0  0  0  0  0  0  0  0  0  0  0  0
  140.9750   71.1780  225.8707 H   0  0  0  0  0  0  0  0  0  0  0  0
  139.2921   71.2217  226.4472 H   0  0  0  0  0  0  0  0  0  0  0  0
  141.8289   70.5032  227.9713 H   0  0  0  0  0  0  0  0  0  0  0  0
  140.5696   71.6834  228.4129 H   0  0  0  0  0  0  0  0  0  0  0  0
  141.7595   68.5975  228.7551 H   0  0  0  0  0  0  0  0  0  0  0  0
  140.2138   67.7029  228.9552 H   0  0  0  0  0  0  0  0  0  0  0  0
  141.7366   68.0758  226.6052 H   0  0  0  0  0  0  0  0  0  0  0  0
  140.0895   67.3127  226.8051 H   0  0  0  0  0  0  0  0  0  0  0  0
  140.6234   70.6965  223.4568 H   0  0  0  0  0  0  0  0  0  0  0  0
  140.0866   76.6385  223.0551 H   0  0  0  0  0  0  0  0  0  0  0  0
  142.4556   80.0981  220.7582 H   0  0  0  0  0  0  0  0  0  0  0  0
  140.8999   79.5568  220.1292 H   0  0  0  0  0  0  0  0  0  0  0  0
  140.4843   81.7602  221.1589 H   0  0  0  0  0  0  0  0  0  0  0  0
  139.8276   80.5968  222.3180 H   0  0  0  0  0  0  0  0  0  0  0  0
  142.6636   81.7973  222.3315 H   0  0  0  0  0  0  0  0  0  0  0  0
  141.3309   82.1952  223.4779 H   0  0  0  0  0  0  0  0  0  0  0  0
  143.2830   80.1644  223.6594 H   0  0  0  0  0  0  0  0  0  0  0  0
  141.8440   80.5294  224.7461 H   0  0  0  0  0  0  0  0  0  0  0  0
  142.1752   78.1621  223.8641 H   0  0  0  0  0  0  0  0  0  0  0  0
  140.5405   78.9825  223.7885 H   0  0  0  0  0  0  0  0  0  0  0  0
  142.7845   77.6961  219.9282 H   0  0  0  0  0  0  0  0  0  0  0  0
  142.8117   75.3745  219.0846 H   0  0  0  0  0  0  0  0  0  0  0  0
  1  2  2  0
  2  3  1  0
  3  4  1  0
  4  5  1  0
  5  6  2  0
  6  7  1  0
  7  8  2  0
  8  9  1  0
  9 10  1  0
 10 11  2  0
 10 12  1  0
 12 13  1  0
 13 14  1  0
 14 15  1  0
 15 16  1  0
 16 17  1  0
  9 18  2  0
  4 19  2  0
 19 20  1  0
 20 21  2  0
 21 22  1  0
 22 23  1  0
 23 24  1  0
 24 25  1  0
 25 26  1  0
 26 27  1  0
 27 28  1  0
 22 29  2  0
 29 30  1  0
 30 31  2  0
 31  2  1  0
 18  5  1  0
 31 20  1  0
 17 12  1  0
 28 23  1  0
  3 32  1  0
  3 33  1  0
  6 34  1  0
  7 35  1  0
  8 36  1  0
 13 37  1  0
 13 38  1  0
 14 39  1  0
 14 40  1  0
 16 41  1  0
 16 42  1  0
 17 43  1  0
 17 44  1  0
 18 45  1  0
 21 46  1  0
 24 47  1  0
 24 48  1  0
 25 49  1  0
 25 50  1  0
 26 51  1  0
 26 52  1  0
 27 53  1  0
 27 54  1  0
 28 55  1  0
 28 56  1  0
 29 57  1  0
 30 58  1  0
M  END
>  <smiles>  (35) 
O=C1CC(c2cccc(C(=O)N3CCOCC3)c2)=Nc2cc(N3CCCCC3)ccc21

>  <score_type>  (35) 
oracle

>  <origin>  (35) 
autodockgpu

>  <m_score__min__energy>  (35) 
-9.7400000000000002

>  <m_primary>  (35) 
energy

>  <rmsd>  (35) 
6.804441389151161

>  <m_score__min__rmsd>  (35) 
6.804441389151161

>  <meeko>  (35) 
{"free_energy": -9.74, "intermolecular_energy": -10.63, "internal_energy": -0.97, "cluster_size": 48, "cluster_id": 1, "rank_in_cluster": 10}

>  <energy>  (35) 
-9.72

>  <cluster_rmsd>  (35) 
0.04

>  <cluster>  (35) 
1

$$$$

     RDKit          3D

 58 62  0  0  0  0  0  0  0  0999 V2000
  142.1950   73.0360  219.2010 O   0  0  0  0  0  0  0  0  0  0  0  0
  141.4750   73.3230  220.1950 C   0  0  0  0  0  0  0  0  0  0  0  0
  140.6910   72.2420  220.8280 C   0  0  0  0  0  0  0  0  0  0  0  0
  139.9280   72.8130  221.9580 C   0  0  0  0  0  0  0  0  0  0  0  0
  139.0540   71.9070  222.7350 C   0  0  0  0  0  0  0  0  0  0  0  0
  137.6840   72.1110  222.7320 C   0  0  0  0  0  0  0  0  0  0  0  0
  136.8660   71.2700  223.4570 C   0  0  0  0  0  0  0  0  0  0  0  0
  137.3820   70.2340  224.1840 C   0  0  0  0  0  0  0  0  0  0  0  0
  138.7560   70.0010  224.2090 C   0  0  0  0  0  0  0  0  0  0  0  0
  139.3320   68.9200  224.9730 C   0  0  0  0  0  0  0  0  0  0  0  0
  139.1870   67.7100  224.6430 O   0  0  0  0  0  0  0  0  0  0  0  0
  140.0910   69.2850  226.1430 N   0  0  0  0  0  0  0  0  0  0  0  0
  140.2590   70.6920  226.5250 C   0  0  0  0  0  0  0  0  0  0  0  0
  140.7590   70.7100  227.9450 C   0  0  0  0  0  0  0  0  0  0  0  0
  140.0690   69.7130  228.6450 O   0  0  0  0  0  0  0  0  0  0  0  0
  140.7140   68.5250  228.4110 C   0  0  0  0  0  0  0  0  0  0  0  0
  140.6930   68.2230  226.9450 C   0  0  0  0  0  0  0  0  0  0  0  0
  139.5470   70.8680  223.4660 C   0  0  0  0  0  0  0  0  0  0  0  0
  139.9440   74.0350  222.3310 N   0  0  0  0  0  0  0  0  0  0  0  0
  140.6960   75.0800  221.7320 C   0  0  0  0  0  0  0  0  0  0  0  0
  140.6860   76.3820  222.1610 C   0  0  0  0  0  0  0  0  0  0  0  0
  141.4420   77.3450  221.5270 C   0  0  0  0  0  0  0  0  0  0  0  0
  141.4600   78.7130  221.9530 N   0  0  0  0  0  0  0  0  0  0  0  0
  141.1540   79.8090  221.0570 C   0  0  0  0  0  0  0  0  0  0  0  0
  140.5550   80.8980  221.9590 C   0  0  0  0  0  0  0  0  0  0  0  0
  141.7220   81.4560  222.7580 C   0  0  0  0  0  0  0  0  0  0  0  0
  142.3830   80.3690  223.5340 C   0  0  0  0  0  0  0  0  0  0  0  0
  141.8110   79.0050  223.3290 C   0  0  0  0  0  0  0  0  0  0  0  0
  142.2040   76.9490  220.4500 C   0  0  0  0  0  0  0  0  0  0  0  0
  142.2460   75.6510  219.9800 C   0  0  0  0  0  0  0  0  0  0  0  0
  141.4810   74.7050  220.6340 C   0  0  0  0  0  0  0  0  0  0  0  0
  139.9966   71.8086  220.0932 H   0  0  0  0  0  0  0  0  0  0  0  0
  141.3647   71.4516  221.1905 H   0  0  0  0  0  0  0  0  0  0  0  0
  137.2503   72.9402  222.1538 H   0  0  0  0  0  0  0  0  0  0  0  0
  135.7786   71.4360  223.4500 H   0  0  0  0  0  0  0  0  0  0  0  0
  136.7073   69.5786  224.7542 H   0  0  0  0  0  0  0  0  0  0  0  0
  140.9896   71.1781  225.8618 H   0  0  0  0  0  0  0  0  0  0  0  0
  139.3073   71.2368  226.4387 H   0  0  0  0  0  0  0  0  0  0  0  0
  141.8395   70.5046  227.9657 H   0  0  0  0  0  0  0  0  0  0  0  0
  140.5889   71.6951  228.4040 H   0  0  0  0  0  0  0  0  0  0  0  0
  141.7563   68.6004  228.7544 H   0  0  0  0  0  0  0  0  0  0  0  0
  140.2039   67.7183  228.9577 H   0  0  0  0  0  0  0  0  0  0  0  0
  141.7283   68.0733  226.6049 H   0  0  0  0  0  0  0  0  0  0  0  0
  140.0762   67.3226  226.8075 H   0  0  0  0  0  0  0  0  0  0  0  0
  140.6351   70.7064  223.4678 H   0  0  0  0  0  0  0  0  0  0  0  0
  140.0651   76.6628  223.0245 H   0  0  0  0  0  0  0  0  0  0  0  0
  142.0676   80.1732  220.5643 H   0  0  0  0  0  0  0  0  0  0  0  0
  140.4641   79.5089  220.2545 H   0  0  0  0  0  0  0  0  0  0  0  0
  140.0933   81.6894  221.3503 H   0  0  0  0  0  0  0  0  0  0  0  0
  139.7686   80.4958  222.6146 H   0  0  0  0  0  0  0  0  0  0  0  0
  142.4520   81.9055  222.0687 H   0  0  0  0  0  0  0  0  0  0  0  0
  141.3460   82.2175  223.4571 H   0  0  0  0  0  0  0  0  0  0  0  0
  143.4438   80.3405  223.2444 H   0  0  0  0  0  0  0  0  0  0  0  0
  142.2243   80.6109  224.5953 H   0  0  0  0  0  0  0  0  0  0  0  0
  142.5541   78.2649  223.6608 H   0  0  0  0  0  0  0  0  0  0  0  0
  140.8789   78.9602  223.9114 H   0  0  0  0  0  0  0  0  0  0  0  0
  142.8122   77.7080  219.9362 H   0  0  0  0  0  0  0  0  0  0  0  0
  142.8677   75.3797  219.1140 H   0  0  0  0  0  0  0  0  0  0  0  0
  1  2  2  0
  2  3  1  0
  3  4  1  0
  4  5  1  0
  5  6  2  0
  6  7  1  0
  7  8  2  0
  8  9  1  0
  9 10  1  0
 10 11  2  0
 10 12  1  0
 12 13  1  0
 13 14  1  0
 14 15  1  0
 15 16  1  0
 16 17  1  0
  9 18  2  0
  4 19  2  0
 19 20  1  0
 20 21  2  0
 21 22  1  0
 22 23  1  0
 23 24  1  0
 24 25  1  0
 25 26  1  0
 26 27  1  0
 27 28  1  0
 22 29  2  0
 29 30  1  0
 30 31  2  0
 31  2  1  0
 18  5  1  0
 31 20  1  0
 17 12  1  0
 28 23  1  0
  3 32  1  0
  3 33  1  0
  6 34  1  0
  7 35  1  0
  8 36  1  0
 13 37  1  0
 13 38  1  0
 14 39  1  0
 14 40  1  0
 16 41  1  0
 16 42  1  0
 17 43  1  0
 17 44  1  0
 18 45  1  0
 21 46  1  0
 24 47  1  0
 24 48  1  0
 25 49  1  0
 25 50  1  0
 26 51  1  0
 26 52  1  0
 27 53  1  0
 27 54  1  0
 28 55  1  0
 28 56  1  0
 29 57  1  0
 30 58  1  0
M  END
>  <smiles>  (36) 
O=C1CC(c2cccc(C(=O)N3CCOCC3)c2)=Nc2cc(N3CCCCC3)ccc21

>  <score_type>  (36) 
oracle

>  <origin>  (36) 
autodockgpu

>  <m_score__min__energy>  (36) 
-9.7400000000000002

>  <m_primary>  (36) 
energy

>  <rmsd>  (36) 
6.799714601240763

>  <m_score__min__rmsd>  (36) 
6.799714601240763

>  <meeko>  (36) 
{"free_energy": -9.73, "intermolecular_energy": -10.62, "internal_energy": -0.97, "cluster_size": 48, "cluster_id": 1, "rank_in_cluster": 34}

>  <energy>  (36) 
-9.72

>  <cluster_rmsd>  (36) 
0.04

>  <cluster>  (36) 
1

$$$$

     RDKit          3D

 58 62  0  0  0  0  0  0  0  0999 V2000
  142.0670   73.0280  219.1370 O   0  0  0  0  0  0  0  0  0  0  0  0
  141.3750   73.3110  220.1520 C   0  0  0  0  0  0  0  0  0  0  0  0
  140.6010   72.2300  220.7980 C   0  0  0  0  0  0  0  0  0  0  0  0
  139.8730   72.7980  221.9530 C   0  0  0  0  0  0  0  0  0  0  0  0
  139.0140   71.8910  222.7460 C   0  0  0  0  0  0  0  0  0  0  0  0
  137.6430   72.0880  222.7590 C   0  0  0  0  0  0  0  0  0  0  0  0
  136.8380   71.2470  223.5000 C   0  0  0  0  0  0  0  0  0  0  0  0
  137.3690   70.2170  224.2250 C   0  0  0  0  0  0  0  0  0  0  0  0
  138.7450   69.9910  224.2320 C   0  0  0  0  0  0  0  0  0  0  0  0
  139.3360   68.9170  224.9950 C   0  0  0  0  0  0  0  0  0  0  0  0
  139.1990   67.7050  224.6680 O   0  0  0  0  0  0  0  0  0  0  0  0
  140.1000   69.2910  226.1580 N   0  0  0  0  0  0  0  0  0  0  0  0
  140.2580   70.7000  226.5370 C   0  0  0  0  0  0  0  0  0  0  0  0
  140.7680   70.7240  227.9520 C   0  0  0  0  0  0  0  0  0  0  0  0
  140.0930   69.7230  228.6600 O   0  0  0  0  0  0  0  0  0  0  0  0
  140.7470   68.5400  228.4230 C   0  0  0  0  0  0  0  0  0  0  0  0
  140.7170   68.2360  226.9580 C   0  0  0  0  0  0  0  0  0  0  0  0
  139.5210   70.8580  223.4750 C   0  0  0  0  0  0  0  0  0  0  0  0
  139.9090   74.0160  222.3350 N   0  0  0  0  0  0  0  0  0  0  0  0
  140.6510   75.0610  221.7250 C   0  0  0  0  0  0  0  0  0  0  0  0
  140.6630   76.3590  222.1650 C   0  0  0  0  0  0  0  0  0  0  0  0
  141.4080   77.3220  221.5190 C   0  0  0  0  0  0  0  0  0  0  0  0
  141.4480   78.6860  221.9560 N   0  0  0  0  0  0  0  0  0  0  0  0
  141.5260   79.7960  221.0280 C   0  0  0  0  0  0  0  0  0  0  0  0
  140.8130   80.9540  221.7410 C   0  0  0  0  0  0  0  0  0  0  0  0
  141.7570   81.3970  222.8480 C   0  0  0  0  0  0  0  0  0  0  0  0
  142.0520   80.2570  223.7610 C   0  0  0  0  0  0  0  0  0  0  0  0
  141.4220   78.9580  223.3790 C   0  0  0  0  0  0  0  0  0  0  0  0
  142.1380   76.9290  220.4180 C   0  0  0  0  0  0  0  0  0  0  0  0
  142.1580   75.6350  219.9370 C   0  0  0  0  0  0  0  0  0  0  0  0
  141.4030   74.6900  220.6030 C   0  0  0  0  0  0  0  0  0  0  0  0
  139.8838   71.8070  220.0792 H   0  0  0  0  0  0  0  0  0  0  0  0
  141.2787   71.4321  221.1358 H   0  0  0  0  0  0  0  0  0  0  0  0
  137.1978   72.9113  222.1811 H   0  0  0  0  0  0  0  0  0  0  0  0
  135.7499   71.4083  223.5074 H   0  0  0  0  0  0  0  0  0  0  0  0
  136.7055   69.5611  224.8077 H   0  0  0  0  0  0  0  0  0  0  0  0
  140.9792   71.1920  225.8678 H   0  0  0  0  0  0  0  0  0  0  0  0
  139.3008   71.2362  226.4571 H   0  0  0  0  0  0  0  0  0  0  0  0
  141.8503   70.5279  227.9644 H   0  0  0  0  0  0  0  0  0  0  0  0
  140.5920   71.7083  228.4104 H   0  0  0  0  0  0  0  0  0  0  0  0
  141.7912   68.6252  228.7581 H   0  0  0  0  0  0  0  0  0  0  0  0
  140.2487   67.7295  228.9751 H   0  0  0  0  0  0  0  0  0  0  0  0
  141.7509   68.0945  226.6102 H   0  0  0  0  0  0  0  0  0  0  0  0
  140.1061   67.3306  226.8272 H   0  0  0  0  0  0  0  0  0  0  0  0
  140.6098   70.7016  223.4631 H   0  0  0  0  0  0  0  0  0  0  0  0
  140.0685   76.6366  223.0479 H   0  0  0  0  0  0  0  0  0  0  0  0
  142.5748   80.0553  220.8212 H   0  0  0  0  0  0  0  0  0  0  0  0
  141.0653   79.5592  220.0576 H   0  0  0  0  0  0  0  0  0  0  0  0
  140.6287   81.7812  221.0398 H   0  0  0  0  0  0  0  0  0  0  0  0
  139.8351   80.6458  222.1395 H   0  0  0  0  0  0  0  0  0  0  0  0
  142.6957   81.7575  222.4021 H   0  0  0  0  0  0  0  0  0  0  0  0
  141.2802   82.2036  223.4242 H   0  0  0  0  0  0  0  0  0  0  0  0
  143.1423   80.1128  223.7843 H   0  0  0  0  0  0  0  0  0  0  0  0
  141.6242   80.5287  224.7373 H   0  0  0  0  0  0  0  0  0  0  0  0
  141.9582   78.1484  223.8957 H   0  0  0  0  0  0  0  0  0  0  0  0
  140.3635   79.0195  223.6718 H   0  0  0  0  0  0  0  0  0  0  0  0
  142.7375   77.6878  219.8938 H   0  0  0  0  0  0  0  0  0  0  0  0
  142.7551   75.3660  219.0532 H   0  0  0  0  0  0  0  0  0  0  0  0
  1  2  2  0
  2  3  1  0
  3  4  1  0
  4  5  1  0
  5  6  2  0
  6  7  1  0
  7  8  2  0
  8  9  1  0
  9 10  1  0
 10 11  2  0
 10 12  1  0
 12 13  1  0
 13 14  1  0
 14 15  1  0
 15 16  1  0
 16 17  1  0
  9 18  2  0
  4 19  2  0
 19 20  1  0
 20 21  2  0
 21 22  1  0
 22 23  1  0
 23 24  1  0
 24 25  1  0
 25 26  1  0
 26 27  1  0
 27 28  1  0
 22 29  2  0
 29 30  1  0
 30 31  2  0
 31  2  1  0
 18  5  1  0
 31 20  1  0
 17 12  1  0
 28 23  1  0
  3 32  1  0
  3 33  1  0
  6 34  1  0
  7 35  1  0
  8 36  1  0
 13 37  1  0
 13 38  1  0
 14 39  1  0
 14 40  1  0
 16 41  1  0
 16 42  1  0
 17 43  1  0
 17 44  1  0
 18 45  1  0
 21 46  1  0
 24 47  1  0
 24 48  1  0
 25 49  1  0
 25 50  1  0
 26 51  1  0
 26 52  1  0
 27 53  1  0
 27 54  1  0
 28 55  1  0
 28 56  1  0
 29 57  1  0
 30 58  1  0
M  END
>  <smiles>  (37) 
O=C1CC(c2cccc(C(=O)N3CCOCC3)c2)=Nc2cc(N3CCCCC3)ccc21

>  <score_type>  (37) 
oracle

>  <origin>  (37) 
autodockgpu

>  <m_score__min__energy>  (37) 
-9.7400000000000002

>  <m_primary>  (37) 
energy

>  <rmsd>  (37) 
6.791856258204595

>  <m_score__min__rmsd>  (37) 
6.791856258204595

>  <meeko>  (37) 
{"free_energy": -9.7, "intermolecular_energy": -10.6, "internal_energy": -0.97, "cluster_size": 48, "cluster_id": 1, "rank_in_cluster": 39}

>  <energy>  (37) 
-9.71

>  <cluster_rmsd>  (37) 
0.09

>  <cluster>  (37) 
1

$$$$

     RDKit          3D

 58 62  0  0  0  0  0  0  0  0999 V2000
  142.1720   73.0680  219.1880 O   0  0  0  0  0  0  0  0  0  0  0  0
  141.4600   73.3510  220.1890 C   0  0  0  0  0  0  0  0  0  0  0  0
  140.6750   72.2680  220.8190 C   0  0  0  0  0  0  0  0  0  0  0  0
  139.9220   72.8340  221.9580 C   0  0  0  0  0  0  0  0  0  0  0  0
  139.0490   71.9260  222.7340 C   0  0  0  0  0  0  0  0  0  0  0  0
  137.6780   72.1260  222.7280 C   0  0  0  0  0  0  0  0  0  0  0  0
  136.8610   71.2820  223.4520 C   0  0  0  0  0  0  0  0  0  0  0  0
  137.3790   70.2490  224.1810 C   0  0  0  0  0  0  0  0  0  0  0  0
  138.7540   70.0200  224.2080 C   0  0  0  0  0  0  0  0  0  0  0  0
  139.3310   68.9410  224.9750 C   0  0  0  0  0  0  0  0  0  0  0  0
  139.1900   67.7310  224.6450 O   0  0  0  0  0  0  0  0  0  0  0  0
  140.0870   69.3090  226.1460 N   0  0  0  0  0  0  0  0  0  0  0  0
  140.2500   70.7170  226.5270 C   0  0  0  0  0  0  0  0  0  0  0  0
  140.7470   70.7370  227.9480 C   0  0  0  0  0  0  0  0  0  0  0  0
  140.0590   69.7390  228.6470 O   0  0  0  0  0  0  0  0  0  0  0  0
  140.7080   68.5530  228.4150 C   0  0  0  0  0  0  0  0  0  0  0  0
  140.6900   68.2500  226.9500 C   0  0  0  0  0  0  0  0  0  0  0  0
  139.5430   70.8880  223.4660 C   0  0  0  0  0  0  0  0  0  0  0  0
  139.9460   74.0530  222.3400 N   0  0  0  0  0  0  0  0  0  0  0  0
  140.6980   75.0990  221.7450 C   0  0  0  0  0  0  0  0  0  0  0  0
  140.6960   76.3980  222.1830 C   0  0  0  0  0  0  0  0  0  0  0  0
  141.4520   77.3620  221.5510 C   0  0  0  0  0  0  0  0  0  0  0  0
  141.4800   78.7270  221.9880 N   0  0  0  0  0  0  0  0  0  0  0  0
  141.1940   79.8330  221.0970 C   0  0  0  0  0  0  0  0  0  0  0  0
  140.5960   80.9210  221.9990 C   0  0  0  0  0  0  0  0  0  0  0  0
  141.7590   81.4620  222.8150 C   0  0  0  0  0  0  0  0  0  0  0  0
  142.4010   80.3630  223.5910 C   0  0  0  0  0  0  0  0  0  0  0  0
  141.8170   79.0050  223.3700 C   0  0  0  0  0  0  0  0  0  0  0  0
  142.2060   76.9710  220.4670 C   0  0  0  0  0  0  0  0  0  0  0  0
  142.2390   75.6760  219.9870 C   0  0  0  0  0  0  0  0  0  0  0  0
  141.4740   74.7300  220.6380 C   0  0  0  0  0  0  0  0  0  0  0  0
  139.9739   71.8433  220.0854 H   0  0  0  0  0  0  0  0  0  0  0  0
  141.3474   71.4717  221.1710 H   0  0  0  0  0  0  0  0  0  0  0  0
  137.2429   72.9537  222.1488 H   0  0  0  0  0  0  0  0  0  0  0  0
  135.7730   71.4437  223.4421 H   0  0  0  0  0  0  0  0  0  0  0  0
  136.7055   69.5925  224.7514 H   0  0  0  0  0  0  0  0  0  0  0  0
  140.9806   71.2048  225.8649 H   0  0  0  0  0  0  0  0  0  0  0  0
  139.2971   71.2593  226.4381 H   0  0  0  0  0  0  0  0  0  0  0  0
  141.8280   70.5347  227.9709 H   0  0  0  0  0  0  0  0  0  0  0  0
  140.5729   71.7218  228.4061 H   0  0  0  0  0  0  0  0  0  0  0  0
  141.7495   68.6319  228.7599 H   0  0  0  0  0  0  0  0  0  0  0  0
  140.1997   67.7451  228.9617 H   0  0  0  0  0  0  0  0  0  0  0  0
  141.7263   68.1026  226.6117 H   0  0  0  0  0  0  0  0  0  0  0  0
  140.0754   67.3482  226.8126 H   0  0  0  0  0  0  0  0  0  0  0  0
  140.6314   70.7287  223.4690 H   0  0  0  0  0  0  0  0  0  0  0  0
  140.0816   76.6754  223.0522 H   0  0  0  0  0  0  0  0  0  0  0  0
  142.1163   80.1919  220.6169 H   0  0  0  0  0  0  0  0  0  0  0  0
  140.5096   79.5451  220.2854 H   0  0  0  0  0  0  0  0  0  0  0  0
  140.1491   81.7210  221.3906 H   0  0  0  0  0  0  0  0  0  0  0  0
  139.7983   80.5222  222.6429 H   0  0  0  0  0  0  0  0  0  0  0  0
  142.5010   81.9093  222.1372 H   0  0  0  0  0  0  0  0  0  0  0  0
  141.3823   82.2221  223.5152 H   0  0  0  0  0  0  0  0  0  0  0  0
  143.4646   80.3258  223.3128 H   0  0  0  0  0  0  0  0  0  0  0  0
  142.2334   80.5992  224.6522 H   0  0  0  0  0  0  0  0  0  0  0  0
  142.5484   78.2550  223.7055 H   0  0  0  0  0  0  0  0  0  0  0  0
  140.8778   78.9652  223.9413 H   0  0  0  0  0  0  0  0  0  0  0  0
  142.8150   77.7310  219.9556 H   0  0  0  0  0  0  0  0  0  0  0  0
  142.8543   75.4081  219.1154 H   0  0  0  0  0  0  0  0  0  0  0  0
  1  2  2  0
  2  3  1  0
  3  4  1  0
  4  5  1  0
  5  6  2  0
  6  7  1  0
  7  8  2  0
  8  9  1  0
  9 10  1  0
 10 11  2  0
 10 12  1  0
 12 13  1  0
 13 14  1  0
 14 15  1  0
 15 16  1  0
 16 17  1  0
  9 18  2  0
  4 19  2  0
 19 20  1  0
 20 21  2  0
 21 22  1  0
 22 23  1  0
 23 24  1  0
 24 25  1  0
 25 26  1  0
 26 27  1  0
 27 28  1  0
 22 29  2  0
 29 30  1  0
 30 31  2  0
 31  2  1  0
 18  5  1  0
 31 20  1  0
 17 12  1  0
 28 23  1  0
  3 32  1  0
  3 33  1  0
  6 34  1  0
  7 35  1  0
  8 36  1  0
 13 37  1  0
 13 38  1  0
 14 39  1  0
 14 40  1  0
 16 41  1  0
 16 42  1  0
 17 43  1  0
 17 44  1  0
 18 45  1  0
 21 46  1  0
 24 47  1  0
 24 48  1  0
 25 49  1  0
 25 50  1  0
 26 51  1  0
 26 52  1  0
 27 53  1  0
 27 54  1  0
 28 55  1  0
 28 56  1  0
 29 57  1  0
 30 58  1  0
M  END
>  <smiles>  (38) 
O=C1CC(c2cccc(C(=O)N3CCOCC3)c2)=Nc2cc(N3CCCCC3)ccc21

>  <score_type>  (38) 
oracle

>  <origin>  (38) 
autodockgpu

>  <m_score__min__energy>  (38) 
-9.7400000000000002

>  <m_primary>  (38) 
energy

>  <rmsd>  (38) 
6.80476777813306

>  <m_score__min__rmsd>  (38) 
6.80476777813306

>  <meeko>  (38) 
{"free_energy": -9.73, "intermolecular_energy": -10.63, "internal_energy": -0.97, "cluster_size": 48, "cluster_id": 1, "rank_in_cluster": 20}

>  <energy>  (38) 
-9.7

>  <cluster_rmsd>  (38) 
0.14

>  <cluster>  (38) 
1

$$$$

     RDKit          3D

 58 62  0  0  0  0  0  0  0  0999 V2000
  142.1470   73.0760  219.1740 O   0  0  0  0  0  0  0  0  0  0  0  0
  141.4380   73.3520  220.1790 C   0  0  0  0  0  0  0  0  0  0  0  0
  140.6580   72.2640  220.8070 C   0  0  0  0  0  0  0  0  0  0  0  0
  139.9100   72.8230  221.9530 C   0  0  0  0  0  0  0  0  0  0  0  0
  139.0420   71.9090  222.7290 C   0  0  0  0  0  0  0  0  0  0  0  0
  137.6700   72.1000  222.7210 C   0  0  0  0  0  0  0  0  0  0  0  0
  136.8580   71.2510  223.4450 C   0  0  0  0  0  0  0  0  0  0  0  0
  137.3820   70.2210  224.1740 C   0  0  0  0  0  0  0  0  0  0  0  0
  138.7590   70.0010  224.2030 C   0  0  0  0  0  0  0  0  0  0  0  0
  139.3430   68.9270  224.9700 C   0  0  0  0  0  0  0  0  0  0  0  0
  139.2010   67.7150  224.6470 O   0  0  0  0  0  0  0  0  0  0  0  0
  140.1060   69.3010  226.1350 N   0  0  0  0  0  0  0  0  0  0  0  0
  140.2690   70.7110  226.5090 C   0  0  0  0  0  0  0  0  0  0  0  0
  140.7760   70.7380  227.9260 C   0  0  0  0  0  0  0  0  0  0  0  0
  140.0940   69.7420  228.6340 O   0  0  0  0  0  0  0  0  0  0  0  0
  140.7430   68.5550  228.4030 C   0  0  0  0  0  0  0  0  0  0  0  0
  140.7160   68.2460  226.9390 C   0  0  0  0  0  0  0  0  0  0  0  0
  139.5430   70.8750  223.4610 C   0  0  0  0  0  0  0  0  0  0  0  0
  139.9330   74.0400  222.3410 N   0  0  0  0  0  0  0  0  0  0  0  0
  140.6800   75.0910  221.7470 C   0  0  0  0  0  0  0  0  0  0  0  0
  140.6780   76.3870  222.1930 C   0  0  0  0  0  0  0  0  0  0  0  0
  141.4290   77.3560  221.5620 C   0  0  0  0  0  0  0  0  0  0  0  0
  141.4560   78.7190  222.0050 N   0  0  0  0  0  0  0  0  0  0  0  0
  141.1900   79.8300  221.1150 C   0  0  0  0  0  0  0  0  0  0  0  0
  140.5820   80.9170  222.0130 C   0  0  0  0  0  0  0  0  0  0  0  0
  141.7350   81.4480  222.8500 C   0  0  0  0  0  0  0  0  0  0  0  0
  142.3580   80.3430  223.6310 C   0  0  0  0  0  0  0  0  0  0  0  0
  141.7720   78.9890  223.3940 C   0  0  0  0  0  0  0  0  0  0  0  0
  142.1780   76.9720  220.4720 C   0  0  0  0  0  0  0  0  0  0  0  0
  142.2120   75.6800  219.9860 C   0  0  0  0  0  0  0  0  0  0  0  0
  141.4520   74.7280  220.6360 C   0  0  0  0  0  0  0  0  0  0  0  0
  139.9538   71.8421  220.0748 H   0  0  0  0  0  0  0  0  0  0  0  0
  141.3333   71.4667  221.1510 H   0  0  0  0  0  0  0  0  0  0  0  0
  137.2300   72.9242  222.1405 H   0  0  0  0  0  0  0  0  0  0  0  0
  135.7691   71.4063  223.4351 H   0  0  0  0  0  0  0  0  0  0  0  0
  136.7121   69.5596  224.7429 H   0  0  0  0  0  0  0  0  0  0  0  0
  140.9939   71.1974  225.8397 H   0  0  0  0  0  0  0  0  0  0  0  0
  139.3144   71.2510  226.4247 H   0  0  0  0  0  0  0  0  0  0  0  0
  141.8574   70.5372  227.9422 H   0  0  0  0  0  0  0  0  0  0  0  0
  140.6041   71.7246  228.3811 H   0  0  0  0  0  0  0  0  0  0  0  0
  141.7866   68.6363  228.7410 H   0  0  0  0  0  0  0  0  0  0  0  0
  140.2391   67.7489  228.9563 H   0  0  0  0  0  0  0  0  0  0  0  0
  141.7503   68.0989  226.5945 H   0  0  0  0  0  0  0  0  0  0  0  0
  140.1021   67.3425  226.8090 H   0  0  0  0  0  0  0  0  0  0  0  0
  140.6325   70.7234  223.4646 H   0  0  0  0  0  0  0  0  0  0  0  0
  140.0681   76.6581  223.0674 H   0  0  0  0  0  0  0  0  0  0  0  0
  142.1218   80.1868  220.6518 H   0  0  0  0  0  0  0  0  0  0  0  0
  140.5178   79.5493  220.2908 H   0  0  0  0  0  0  0  0  0  0  0  0
  140.1487   81.7222  221.4015 H   0  0  0  0  0  0  0  0  0  0  0  0
  139.7719   80.5193  222.6419 H   0  0  0  0  0  0  0  0  0  0  0  0
  142.4903   81.8939  222.1861 H   0  0  0  0  0  0  0  0  0  0  0  0
  141.3513   82.2072  223.5474 H   0  0  0  0  0  0  0  0  0  0  0  0
  143.4260   80.3021  223.3708 H   0  0  0  0  0  0  0  0  0  0  0  0
  142.1731   80.5751  224.6902 H   0  0  0  0  0  0  0  0  0  0  0  0
  142.4947   78.2342  223.7375 H   0  0  0  0  0  0  0  0  0  0  0  0
  140.8236   78.9505  223.9498 H   0  0  0  0  0  0  0  0  0  0  0  0
  142.7820   77.7361  219.9607 H   0  0  0  0  0  0  0  0  0  0  0  0
  142.8240   75.4180  219.1104 H   0  0  0  0  0  0  0  0  0  0  0  0
  1  2  2  0
  2  3  1  0
  3  4  1  0
  4  5  1  0
  5  6  2  0
  6  7  1  0
  7  8  2  0
  8  9  1  0
  9 10  1  0
 10 11  2  0
 10 12  1  0
 12 13  1  0
 13 14  1  0
 14 15  1  0
 15 16  1  0
 16 17  1  0
  9 18  2  0
  4 19  2  0
 19 20  1  0
 20 21  2  0
 21 22  1  0
 22 23  1  0
 23 24  1  0
 24 25  1  0
 25 26  1  0
 26 27  1  0
 27 28  1  0
 22 29  2  0
 29 30  1  0
 30 31  2  0
 31  2  1  0
 18  5  1  0
 31 20  1  0
 17 12  1  0
 28 23  1  0
  3 32  1  0
  3 33  1  0
  6 34  1  0
  7 35  1  0
  8 36  1  0
 13 37  1  0
 13 38  1  0
 14 39  1  0
 14 40  1  0
 16 41  1  0
 16 42  1  0
 17 43  1  0
 17 44  1  0
 18 45  1  0
 21 46  1  0
 24 47  1  0
 24 48  1  0
 25 49  1  0
 25 50  1  0
 26 51  1  0
 26 52  1  0
 27 53  1  0
 27 54  1  0
 28 55  1  0
 28 56  1  0
 29 57  1  0
 30 58  1  0
M  END
>  <smiles>  (39) 
O=C1CC(c2cccc(C(=O)N3CCOCC3)c2)=Nc2cc(N3CCCCC3)ccc21

>  <score_type>  (39) 
oracle

>  <origin>  (39) 
autodockgpu

>  <m_score__min__energy>  (39) 
-9.7400000000000002

>  <m_primary>  (39) 
energy

>  <rmsd>  (39) 
6.806092913683658

>  <m_score__min__rmsd>  (39) 
6.806092913683658

>  <meeko>  (39) 
{"free_energy": -9.74, "intermolecular_energy": -10.63, "internal_energy": -0.97, "cluster_size": 48, "cluster_id": 1, "rank_in_cluster": 18}

>  <energy>  (39) 
-9.7

>  <cluster_rmsd>  (39) 
0.07

>  <cluster>  (39) 
1

$$$$

     RDKit          3D

 58 62  0  0  0  0  0  0  0  0999 V2000
  142.1050   73.0500  219.1570 O   0  0  0  0  0  0  0  0  0  0  0  0
  141.4090   73.3290  220.1700 C   0  0  0  0  0  0  0  0  0  0  0  0
  140.6260   72.2470  220.8030 C   0  0  0  0  0  0  0  0  0  0  0  0
  139.8930   72.8090  221.9570 C   0  0  0  0  0  0  0  0  0  0  0  0
  139.0250   71.9000  222.7380 C   0  0  0  0  0  0  0  0  0  0  0  0
  137.6540   72.1010  222.7410 C   0  0  0  0  0  0  0  0  0  0  0  0
  136.8410   71.2570  223.4700 C   0  0  0  0  0  0  0  0  0  0  0  0
  137.3630   70.2220  224.1940 C   0  0  0  0  0  0  0  0  0  0  0  0
  138.7380   69.9930  224.2120 C   0  0  0  0  0  0  0  0  0  0  0  0
  139.3210   68.9130  224.9740 C   0  0  0  0  0  0  0  0  0  0  0  0
  139.1840   67.7040  224.6390 O   0  0  0  0  0  0  0  0  0  0  0  0
  140.0760   69.2790  226.1460 N   0  0  0  0  0  0  0  0  0  0  0  0
  140.2340   70.6860  226.5330 C   0  0  0  0  0  0  0  0  0  0  0  0
  140.7320   70.7010  227.9530 C   0  0  0  0  0  0  0  0  0  0  0  0
  140.0480   69.6980  228.6490 O   0  0  0  0  0  0  0  0  0  0  0  0
  140.7020   68.5150  228.4110 C   0  0  0  0  0  0  0  0  0  0  0  0
  140.6840   68.2180  226.9450 C   0  0  0  0  0  0  0  0  0  0  0  0
  139.5230   70.8620  223.4660 C   0  0  0  0  0  0  0  0  0  0  0  0
  139.9300   74.0250  222.3480 N   0  0  0  0  0  0  0  0  0  0  0  0
  140.6810   75.0710  221.7500 C   0  0  0  0  0  0  0  0  0  0  0  0
  140.6940   76.3650  222.1990 C   0  0  0  0  0  0  0  0  0  0  0  0
  141.4480   77.3300  221.5640 C   0  0  0  0  0  0  0  0  0  0  0  0
  141.4900   78.6910  222.0100 N   0  0  0  0  0  0  0  0  0  0  0  0
  141.4700   79.8110  221.0920 C   0  0  0  0  0  0  0  0  0  0  0  0
  140.7880   80.9450  221.8690 C   0  0  0  0  0  0  0  0  0  0  0  0
  141.8050   81.4010  222.9040 C   0  0  0  0  0  0  0  0  0  0  0  0
  142.1960   80.2610  223.7800 C   0  0  0  0  0  0  0  0  0  0  0  0
  141.5680   78.9500  223.4350 C   0  0  0  0  0  0  0  0  0  0  0  0
  142.1830   76.9420  220.4660 C   0  0  0  0  0  0  0  0  0  0  0  0
  142.2010   75.6510  219.9760 C   0  0  0  0  0  0  0  0  0  0  0  0
  141.4390   74.7040  220.6300 C   0  0  0  0  0  0  0  0  0  0  0  0
  139.9117   71.8325  220.0764 H   0  0  0  0  0  0  0  0  0  0  0  0
  141.2981   71.4439  221.1395 H   0  0  0  0  0  0  0  0  0  0  0  0
  137.2157   72.9293  222.1650 H   0  0  0  0  0  0  0  0  0  0  0  0
  135.7532   71.4203  223.4683 H   0  0  0  0  0  0  0  0  0  0  0  0
  136.6928   69.5644  224.7671 H   0  0  0  0  0  0  0  0  0  0  0  0
  140.9621   71.1795  225.8725 H   0  0  0  0  0  0  0  0  0  0  0  0
  139.2791   71.2253  226.4472 H   0  0  0  0  0  0  0  0  0  0  0  0
  141.8136   70.5019  227.9738 H   0  0  0  0  0  0  0  0  0  0  0  0
  140.5550   71.6833  228.4154 H   0  0  0  0  0  0  0  0  0  0  0  0
  141.7435   68.5968  228.7552 H   0  0  0  0  0  0  0  0  0  0  0  0
  140.1973   67.7027  228.9546 H   0  0  0  0  0  0  0  0  0  0  0  0
  141.7205   68.0759  226.6052 H   0  0  0  0  0  0  0  0  0  0  0  0
  140.0729   67.3143  226.8040 H   0  0  0  0  0  0  0  0  0  0  0  0
  140.6114   70.7028  223.4627 H   0  0  0  0  0  0  0  0  0  0  0  0
  140.0940   76.6389  223.0794 H   0  0  0  0  0  0  0  0  0  0  0  0
  142.4935   80.0972  220.8080 H   0  0  0  0  0  0  0  0  0  0  0  0
  140.9407   79.5718  220.1579 H   0  0  0  0  0  0  0  0  0  0  0  0
  140.5307   81.7734  221.1925 H   0  0  0  0  0  0  0  0  0  0  0  0
  139.8512   80.6106  222.3387 H   0  0  0  0  0  0  0  0  0  0  0  0
  142.6978   81.7871  222.3903 H   0  0  0  0  0  0  0  0  0  0  0  0
  141.3562   82.1915  223.5235 H   0  0  0  0  0  0  0  0  0  0  0  0
  143.2878   80.1424  223.7174 H   0  0  0  0  0  0  0  0  0  0  0  0
  141.8391   80.5146  224.7891 H   0  0  0  0  0  0  0  0  0  0  0  0
  142.1612   78.1490  223.9004 H   0  0  0  0  0  0  0  0  0  0  0  0
  140.5344   78.9834  223.8098 H   0  0  0  0  0  0  0  0  0  0  0  0
  142.7890   77.7020  219.9510 H   0  0  0  0  0  0  0  0  0  0  0  0
  142.8025   75.3862  219.0939 H   0  0  0  0  0  0  0  0  0  0  0  0
  1  2  2  0
  2  3  1  0
  3  4  1  0
  4  5  1  0
  5  6  2  0
  6  7  1  0
  7  8  2  0
  8  9  1  0
  9 10  1  0
 10 11  2  0
 10 12  1  0
 12 13  1  0
 13 14  1  0
 14 15  1  0
 15 16  1  0
 16 17  1  0
  9 18  2  0
  4 19  2  0
 19 20  1  0
 20 21  2  0
 21 22  1  0
 22 23  1  0
 23 24  1  0
 24 25  1  0
 25 26  1  0
 26 27  1  0
 27 28  1  0
 22 29  2  0
 29 30  1  0
 30 31  2  0
 31  2  1  0
 18  5  1  0
 31 20  1  0
 17 12  1  0
 28 23  1  0
  3 32  1  0
  3 33  1  0
  6 34  1  0
  7 35  1  0
  8 36  1  0
 13 37  1  0
 13 38  1  0
 14 39  1  0
 14 40  1  0
 16 41  1  0
 16 42  1  0
 17 43  1  0
 17 44  1  0
 18 45  1  0
 21 46  1  0
 24 47  1  0
 24 48  1  0
 25 49  1  0
 25 50  1  0
 26 51  1  0
 26 52  1  0
 27 53  1  0
 27 54  1  0
 28 55  1  0
 28 56  1  0
 29 57  1  0
 30 58  1  0
M  END
>  <smiles>  (40) 
O=C1CC(c2cccc(C(=O)N3CCOCC3)c2)=Nc2cc(N3CCCCC3)ccc21

>  <score_type>  (40) 
oracle

>  <origin>  (40) 
autodockgpu

>  <m_score__min__energy>  (40) 
-9.7400000000000002

>  <m_primary>  (40) 
energy

>  <rmsd>  (40) 
6.810459857396438

>  <m_score__min__rmsd>  (40) 
6.810459857396438

>  <meeko>  (40) 
{"free_energy": -9.74, "intermolecular_energy": -10.63, "internal_energy": -0.97, "cluster_size": 48, "cluster_id": 1, "rank_in_cluster": 12}

>  <energy>  (40) 
-9.69

>  <cluster_rmsd>  (40) 
0.14

>  <cluster>  (40) 
1

$$$$

     RDKit          3D

 58 62  0  0  0  0  0  0  0  0999 V2000
  142.0850   73.0580  219.1330 O   0  0  0  0  0  0  0  0  0  0  0  0
  141.3980   73.3350  220.1530 C   0  0  0  0  0  0  0  0  0  0  0  0
  140.6210   72.2510  220.7910 C   0  0  0  0  0  0  0  0  0  0  0  0
  139.9000   72.8100  221.9530 C   0  0  0  0  0  0  0  0  0  0  0  0
  139.0390   71.9000  222.7410 C   0  0  0  0  0  0  0  0  0  0  0  0
  137.6680   72.1000  222.7580 C   0  0  0  0  0  0  0  0  0  0  0  0
  136.8630   71.2540  223.4930 C   0  0  0  0  0  0  0  0  0  0  0  0
  137.3920   70.2180  224.2100 C   0  0  0  0  0  0  0  0  0  0  0  0
  138.7680   69.9890  224.2140 C   0  0  0  0  0  0  0  0  0  0  0  0
  139.3580   68.9080  224.9680 C   0  0  0  0  0  0  0  0  0  0  0  0
  139.2230   67.7000  224.6290 O   0  0  0  0  0  0  0  0  0  0  0  0
  140.1190   69.2720  226.1370 N   0  0  0  0  0  0  0  0  0  0  0  0
  140.2750   70.6780  226.5290 C   0  0  0  0  0  0  0  0  0  0  0  0
  140.7820   70.6890  227.9460 C   0  0  0  0  0  0  0  0  0  0  0  0
  140.1050   69.6800  228.6420 O   0  0  0  0  0  0  0  0  0  0  0  0
  140.7600   68.5010  228.3950 C   0  0  0  0  0  0  0  0  0  0  0  0
  140.7350   68.2100  226.9280 C   0  0  0  0  0  0  0  0  0  0  0  0
  139.5450   70.8600  223.4620 C   0  0  0  0  0  0  0  0  0  0  0  0
  139.9400   74.0250  222.3470 N   0  0  0  0  0  0  0  0  0  0  0  0
  140.6850   75.0730  221.7440 C   0  0  0  0  0  0  0  0  0  0  0  0
  140.7020   76.3660  222.1950 C   0  0  0  0  0  0  0  0  0  0  0  0
  141.4490   77.3330  221.5550 C   0  0  0  0  0  0  0  0  0  0  0  0
  141.4950   78.6930  222.0040 N   0  0  0  0  0  0  0  0  0  0  0  0
  141.4400   79.0500  223.4060 C   0  0  0  0  0  0  0  0  0  0  0  0
  142.2380   80.3570  223.5110 C   0  0  0  0  0  0  0  0  0  0  0  0
  141.3600   81.4240  222.8760 C   0  0  0  0  0  0  0  0  0  0  0  0
  141.0410   81.0590  221.4670 C   0  0  0  0  0  0  0  0  0  0  0  0
  141.5890   79.7460  221.0120 C   0  0  0  0  0  0  0  0  0  0  0  0
  142.1740   76.9480  220.4490 C   0  0  0  0  0  0  0  0  0  0  0  0
  142.1880   75.6580  219.9560 C   0  0  0  0  0  0  0  0  0  0  0  0
  141.4320   74.7090  220.6160 C   0  0  0  0  0  0  0  0  0  0  0  0
  139.8995   71.8384  220.0704 H   0  0  0  0  0  0  0  0  0  0  0  0
  141.2962   71.4468  221.1186 H   0  0  0  0  0  0  0  0  0  0  0  0
  137.2234   72.9293  222.1882 H   0  0  0  0  0  0  0  0  0  0  0  0
  135.7751   71.4166  223.5019 H   0  0  0  0  0  0  0  0  0  0  0  0
  136.7275   69.5594  224.7886 H   0  0  0  0  0  0  0  0  0  0  0  0
  140.9973   71.1766  225.8660 H   0  0  0  0  0  0  0  0  0  0  0  0
  139.3178   71.2144  226.4516 H   0  0  0  0  0  0  0  0  0  0  0  0
  141.8644   70.4935  227.9593 H   0  0  0  0  0  0  0  0  0  0  0  0
  140.6050   71.6687  228.4137 H   0  0  0  0  0  0  0  0  0  0  0  0
  141.8032   68.5840  228.7339 H   0  0  0  0  0  0  0  0  0  0  0  0
  140.2600   67.6851  228.9375 H   0  0  0  0  0  0  0  0  0  0  0  0
  141.7701   68.0730  226.5819 H   0  0  0  0  0  0  0  0  0  0  0  0
  140.1263   67.3047  226.7866 H   0  0  0  0  0  0  0  0  0  0  0  0
  140.6334   70.7013  223.4473 H   0  0  0  0  0  0  0  0  0  0  0  0
  140.1105   76.6377  223.0818 H   0  0  0  0  0  0  0  0  0  0  0  0
  140.3989   79.2052  223.7255 H   0  0  0  0  0  0  0  0  0  0  0  0
  141.8515   78.2600  224.0515 H   0  0  0  0  0  0  0  0  0  0  0  0
  142.4379   80.6013  224.5647 H   0  0  0  0  0  0  0  0  0  0  0  0
  143.2133   80.2801  223.0082 H   0  0  0  0  0  0  0  0  0  0  0  0
  140.4250   81.5127  223.4486 H   0  0  0  0  0  0  0  0  0  0  0  0
  141.8990   82.3829  222.8843 H   0  0  0  0  0  0  0  0  0  0  0  0
  139.9464   81.0256  221.3633 H   0  0  0  0  0  0  0  0  0  0  0  0
  141.5180   81.8244  220.8372 H   0  0  0  0  0  0  0  0  0  0  0  0
  141.0320   79.4297  220.1178 H   0  0  0  0  0  0  0  0  0  0  0  0
  142.6595   79.8999  220.8112 H   0  0  0  0  0  0  0  0  0  0  0  0
  142.7746   77.7095  219.9301 H   0  0  0  0  0  0  0  0  0  0  0  0
  142.7812   75.3952  219.0677 H   0  0  0  0  0  0  0  0  0  0  0  0
  1  2  2  0
  2  3  1  0
  3  4  1  0
  4  5  1  0
  5  6  2  0
  6  7  1  0
  7  8  2  0
  8  9  1  0
  9 10  1  0
 10 11  2  0
 10 12  1  0
 12 13  1  0
 13 14  1  0
 14 15  1  0
 15 16  1  0
 16 17  1  0
  9 18  2  0
  4 19  2  0
 19 20  1  0
 20 21  2  0
 21 22  1  0
 22 23  1  0
 23 24  1  0
 24 25  1  0
 25 26  1  0
 26 27  1  0
 27 28  1  0
 22 29  2  0
 29 30  1  0
 30 31  2  0
 31  2  1  0
 18  5  1  0
 31 20  1  0
 17 12  1  0
 28 23  1  0
  3 32  1  0
  3 33  1  0
  6 34  1  0
  7 35  1  0
  8 36  1  0
 13 37  1  0
 13 38  1  0
 14 39  1  0
 14 40  1  0
 16 41  1  0
 16 42  1  0
 17 43  1  0
 17 44  1  0
 18 45  1  0
 21 46  1  0
 24 47  1  0
 24 48  1  0
 25 49  1  0
 25 50  1  0
 26 51  1  0
 26 52  1  0
 27 53  1  0
 27 54  1  0
 28 55  1  0
 28 56  1  0
 29 57  1  0
 30 58  1  0
M  END
>  <smiles>  (41) 
O=C1CC(c2cccc(C(=O)N3CCOCC3)c2)=Nc2cc(N3CCCCC3)ccc21

>  <score_type>  (41) 
oracle

>  <origin>  (41) 
autodockgpu

>  <m_score__min__energy>  (41) 
-9.7400000000000002

>  <m_primary>  (41) 
energy

>  <rmsd>  (41) 
6.573930397045066

>  <m_score__min__rmsd>  (41) 
6.573930397045066

>  <meeko>  (41) 
{"free_energy": -9.69, "intermolecular_energy": -10.58, "internal_energy": -0.97, "cluster_size": 48, "cluster_id": 1, "rank_in_cluster": 42}

>  <energy>  (41) 
-9.69

>  <cluster_rmsd>  (41) 
0.14

>  <cluster>  (41) 
1

$$$$

     RDKit          3D

 58 62  0  0  0  0  0  0  0  0999 V2000
  142.1630   73.0640  219.1830 O   0  0  0  0  0  0  0  0  0  0  0  0
  141.4530   73.3450  220.1860 C   0  0  0  0  0  0  0  0  0  0  0  0
  140.6700   72.2610  220.8170 C   0  0  0  0  0  0  0  0  0  0  0  0
  139.9210   72.8260  221.9590 C   0  0  0  0  0  0  0  0  0  0  0  0
  139.0500   71.9160  222.7360 C   0  0  0  0  0  0  0  0  0  0  0  0
  137.6790   72.1150  222.7320 C   0  0  0  0  0  0  0  0  0  0  0  0
  136.8640   71.2700  223.4580 C   0  0  0  0  0  0  0  0  0  0  0  0
  137.3840   70.2370  224.1860 C   0  0  0  0  0  0  0  0  0  0  0  0
  138.7600   70.0100  224.2110 C   0  0  0  0  0  0  0  0  0  0  0  0
  139.3400   68.9320  224.9770 C   0  0  0  0  0  0  0  0  0  0  0  0
  139.2020   67.7220  224.6460 O   0  0  0  0  0  0  0  0  0  0  0  0
  140.0950   69.3010  226.1480 N   0  0  0  0  0  0  0  0  0  0  0  0
  140.2550   70.7090  226.5300 C   0  0  0  0  0  0  0  0  0  0  0  0
  140.7530   70.7290  227.9500 C   0  0  0  0  0  0  0  0  0  0  0  0
  140.0670   69.7290  228.6490 O   0  0  0  0  0  0  0  0  0  0  0  0
  140.7190   68.5440  228.4160 C   0  0  0  0  0  0  0  0  0  0  0  0
  140.7010   68.2420  226.9510 C   0  0  0  0  0  0  0  0  0  0  0  0
  139.5470   70.8800  223.4680 C   0  0  0  0  0  0  0  0  0  0  0  0
  139.9450   74.0440  222.3420 N   0  0  0  0  0  0  0  0  0  0  0  0
  140.6950   75.0920  221.7460 C   0  0  0  0  0  0  0  0  0  0  0  0
  140.6940   76.3890  222.1860 C   0  0  0  0  0  0  0  0  0  0  0  0
  141.4480   77.3550  221.5530 C   0  0  0  0  0  0  0  0  0  0  0  0
  141.4760   78.7190  221.9900 N   0  0  0  0  0  0  0  0  0  0  0  0
  141.1840   79.8260  221.1020 C   0  0  0  0  0  0  0  0  0  0  0  0
  140.5890   80.9120  222.0100 C   0  0  0  0  0  0  0  0  0  0  0  0
  141.7570   81.4530  222.8190 C   0  0  0  0  0  0  0  0  0  0  0  0
  142.4050   80.3550  223.5900 C   0  0  0  0  0  0  0  0  0  0  0  0
  141.8220   78.9970  223.3700 C   0  0  0  0  0  0  0  0  0  0  0  0
  142.1980   76.9650  220.4650 C   0  0  0  0  0  0  0  0  0  0  0  0
  142.2320   75.6710  219.9840 C   0  0  0  0  0  0  0  0  0  0  0  0
  141.4680   74.7230  220.6370 C   0  0  0  0  0  0  0  0  0  0  0  0
  139.9665   71.8373  220.0852 H   0  0  0  0  0  0  0  0  0  0  0  0
  141.3432   71.4640  221.1656 H   0  0  0  0  0  0  0  0  0  0  0  0
  137.2421   72.9422  222.1532 H   0  0  0  0  0  0  0  0  0  0  0  0
  135.7759   71.4311  223.4504 H   0  0  0  0  0  0  0  0  0  0  0  0
  136.7121   69.5793  224.7569 H   0  0  0  0  0  0  0  0  0  0  0  0
  140.9839   71.1991  225.8677 H   0  0  0  0  0  0  0  0  0  0  0  0
  139.3007   71.2491  226.4424 H   0  0  0  0  0  0  0  0  0  0  0  0
  141.8344   70.5286  227.9719 H   0  0  0  0  0  0  0  0  0  0  0  0
  140.5777   71.7132  228.4089 H   0  0  0  0  0  0  0  0  0  0  0  0
  141.7605   68.6251  228.7605 H   0  0  0  0  0  0  0  0  0  0  0  0
  140.2129   67.7345  228.9625 H   0  0  0  0  0  0  0  0  0  0  0  0
  141.7374   68.0971  226.6121 H   0  0  0  0  0  0  0  0  0  0  0  0
  140.0884   67.3388  226.8130 H   0  0  0  0  0  0  0  0  0  0  0  0
  140.6358   70.7235  223.4706 H   0  0  0  0  0  0  0  0  0  0  0  0
  140.0824   76.6646  223.0578 H   0  0  0  0  0  0  0  0  0  0  0  0
  142.1033   80.1869  220.6177 H   0  0  0  0  0  0  0  0  0  0  0  0
  140.4960   79.5387  220.2932 H   0  0  0  0  0  0  0  0  0  0  0  0
  140.1368   81.7124  221.4059 H   0  0  0  0  0  0  0  0  0  0  0  0
  139.7957   80.5112  222.6581 H   0  0  0  0  0  0  0  0  0  0  0  0
  142.4942   81.9013  222.1367 H   0  0  0  0  0  0  0  0  0  0  0  0
  141.3839   82.2120  223.5223 H   0  0  0  0  0  0  0  0  0  0  0  0
  143.4672   80.3200  223.3061 H   0  0  0  0  0  0  0  0  0  0  0  0
  142.2432   80.5896  224.6524 H   0  0  0  0  0  0  0  0  0  0  0  0
  142.5568   78.2478  223.6997 H   0  0  0  0  0  0  0  0  0  0  0  0
  140.8862   78.9558  223.9466 H   0  0  0  0  0  0  0  0  0  0  0  0
  142.8031   77.7264  219.9511 H   0  0  0  0  0  0  0  0  0  0  0  0
  142.8461   75.4043  219.1112 H   0  0  0  0  0  0  0  0  0  0  0  0
  1  2  2  0
  2  3  1  0
  3  4  1  0
  4  5  1  0
  5  6  2  0
  6  7  1  0
  7  8  2  0
  8  9  1  0
  9 10  1  0
 10 11  2  0
 10 12  1  0
 12 13  1  0
 13 14  1  0
 14 15  1  0
 15 16  1  0
 16 17  1  0
  9 18  2  0
  4 19  2  0
 19 20  1  0
 20 21  2  0
 21 22  1  0
 22 23  1  0
 23 24  1  0
 24 25  1  0
 25 26  1  0
 26 27  1  0
 27 28  1  0
 22 29  2  0
 29 30  1  0
 30 31  2  0
 31  2  1  0
 18  5  1  0
 31 20  1  0
 17 12  1  0
 28 23  1  0
  3 32  1  0
  3 33  1  0
  6 34  1  0
  7 35  1  0
  8 36  1  0
 13 37  1  0
 13 38  1  0
 14 39  1  0
 14 40  1  0
 16 41  1  0
 16 42  1  0
 17 43  1  0
 17 44  1  0
 18 45  1  0
 21 46  1  0
 24 47  1  0
 24 48  1  0
 25 49  1  0
 25 50  1  0
 26 51  1  0
 26 52  1  0
 27 53  1  0
 27 54  1  0
 28 55  1  0
 28 56  1  0
 29 57  1  0
 30 58  1  0
M  END
>  <smiles>  (42) 
O=C1CC(c2cccc(C(=O)N3CCOCC3)c2)=Nc2cc(N3CCCCC3)ccc21

>  <score_type>  (42) 
oracle

>  <origin>  (42) 
autodockgpu

>  <m_score__min__energy>  (42) 
-9.7400000000000002

>  <m_primary>  (42) 
energy

>  <rmsd>  (42) 
6.805542559511067

>  <m_score__min__rmsd>  (42) 
6.805542559511067

>  <meeko>  (42) 
{"free_energy": -9.74, "intermolecular_energy": -10.64, "internal_energy": -0.97, "cluster_size": 48, "cluster_id": 1, "rank_in_cluster": 2}

>  <energy>  (42) 
-9.69

>  <cluster_rmsd>  (42) 
0.14

>  <cluster>  (42) 
1

$$$$

     RDKit          3D

 58 62  0  0  0  0  0  0  0  0999 V2000
  142.0820   73.0560  219.1390 O   0  0  0  0  0  0  0  0  0  0  0  0
  141.3930   73.3320  220.1590 C   0  0  0  0  0  0  0  0  0  0  0  0
  140.6130   72.2480  220.7920 C   0  0  0  0  0  0  0  0  0  0  0  0
  139.8900   72.8070  221.9550 C   0  0  0  0  0  0  0  0  0  0  0  0
  139.0260   71.8960  222.7380 C   0  0  0  0  0  0  0  0  0  0  0  0
  137.6540   72.0900  222.7410 C   0  0  0  0  0  0  0  0  0  0  0  0
  136.8450   71.2450  223.4720 C   0  0  0  0  0  0  0  0  0  0  0  0
  137.3720   70.2150  224.1990 C   0  0  0  0  0  0  0  0  0  0  0  0
  138.7480   69.9910  224.2180 C   0  0  0  0  0  0  0  0  0  0  0  0
  139.3360   68.9170  224.9820 C   0  0  0  0  0  0  0  0  0  0  0  0
  139.2030   67.7060  224.6520 O   0  0  0  0  0  0  0  0  0  0  0  0
  140.0900   69.2900  226.1530 N   0  0  0  0  0  0  0  0  0  0  0  0
  140.2430   70.6990  226.5350 C   0  0  0  0  0  0  0  0  0  0  0  0
  140.7420   70.7210  227.9540 C   0  0  0  0  0  0  0  0  0  0  0  0
  140.0630   69.7170  228.6540 O   0  0  0  0  0  0  0  0  0  0  0  0
  140.7210   68.5360  228.4200 C   0  0  0  0  0  0  0  0  0  0  0  0
  140.7030   68.2340  226.9550 C   0  0  0  0  0  0  0  0  0  0  0  0
  139.5290   70.8620  223.4690 C   0  0  0  0  0  0  0  0  0  0  0  0
  139.9320   74.0200  222.3510 N   0  0  0  0  0  0  0  0  0  0  0  0
  140.6810   75.0680  221.7520 C   0  0  0  0  0  0  0  0  0  0  0  0
  140.7000   76.3600  222.2070 C   0  0  0  0  0  0  0  0  0  0  0  0
  141.4500   77.3260  221.5710 C   0  0  0  0  0  0  0  0  0  0  0  0
  141.4990   78.6850  222.0230 N   0  0  0  0  0  0  0  0  0  0  0  0
  141.4800   79.8090  221.1090 C   0  0  0  0  0  0  0  0  0  0  0  0
  140.8040   80.9420  221.8930 C   0  0  0  0  0  0  0  0  0  0  0  0
  141.8260   81.3900  222.9270 C   0  0  0  0  0  0  0  0  0  0  0  0
  142.2160   80.2450  223.7970 C   0  0  0  0  0  0  0  0  0  0  0  0
  141.5830   78.9380  223.4480 C   0  0  0  0  0  0  0  0  0  0  0  0
  142.1770   76.9420  220.4650 C   0  0  0  0  0  0  0  0  0  0  0  0
  142.1890   75.6530  219.9690 C   0  0  0  0  0  0  0  0  0  0  0  0
  141.4300   74.7050  220.6250 C   0  0  0  0  0  0  0  0  0  0  0  0
  139.8922   71.8386  220.0689 H   0  0  0  0  0  0  0  0  0  0  0  0
  141.2856   71.4412  221.1188 H   0  0  0  0  0  0  0  0  0  0  0  0
  137.2117   72.9146  222.1627 H   0  0  0  0  0  0  0  0  0  0  0  0
  135.7564   71.4031  223.4696 H   0  0  0  0  0  0  0  0  0  0  0  0
  136.7046   69.5566  224.7744 H   0  0  0  0  0  0  0  0  0  0  0  0
  140.9687   71.1930  225.8722 H   0  0  0  0  0  0  0  0  0  0  0  0
  139.2859   71.2343  226.4482 H   0  0  0  0  0  0  0  0  0  0  0  0
  141.8245   70.5269  227.9745 H   0  0  0  0  0  0  0  0  0  0  0  0
  140.5610   71.7040  228.4133 H   0  0  0  0  0  0  0  0  0  0  0  0
  141.7625   68.6228  228.7632 H   0  0  0  0  0  0  0  0  0  0  0  0
  140.2199   67.7237  228.9669 H   0  0  0  0  0  0  0  0  0  0  0  0
  141.7398   68.0950  226.6148 H   0  0  0  0  0  0  0  0  0  0  0  0
  140.0955   67.3273  226.8175 H   0  0  0  0  0  0  0  0  0  0  0  0
  140.6181   70.7078  223.4658 H   0  0  0  0  0  0  0  0  0  0  0  0
  140.1077   76.6307  223.0935 H   0  0  0  0  0  0  0  0  0  0  0  0
  142.5035   80.0930  220.8230 H   0  0  0  0  0  0  0  0  0  0  0  0
  140.9473   79.5754  220.1754 H   0  0  0  0  0  0  0  0  0  0  0  0
  140.5475   81.7742  221.2209 H   0  0  0  0  0  0  0  0  0  0  0  0
  139.8675   80.6088  222.3640 H   0  0  0  0  0  0  0  0  0  0  0  0
  142.7185   81.7752  222.4121 H   0  0  0  0  0  0  0  0  0  0  0  0
  141.3817   82.1792  223.5513 H   0  0  0  0  0  0  0  0  0  0  0  0
  143.3072   80.1233  223.7308 H   0  0  0  0  0  0  0  0  0  0  0  0
  141.8629   80.4953  224.8083 H   0  0  0  0  0  0  0  0  0  0  0  0
  142.1753   78.1332  223.9078 H   0  0  0  0  0  0  0  0  0  0  0  0
  140.5506   78.9735  223.8262 H   0  0  0  0  0  0  0  0  0  0  0  0
  142.7805   77.7034  219.9492 H   0  0  0  0  0  0  0  0  0  0  0  0
  142.7833   75.3908  219.0813 H   0  0  0  0  0  0  0  0  0  0  0  0
  1  2  2  0
  2  3  1  0
  3  4  1  0
  4  5  1  0
  5  6  2  0
  6  7  1  0
  7  8  2  0
  8  9  1  0
  9 10  1  0
 10 11  2  0
 10 12  1  0
 12 13  1  0
 13 14  1  0
 14 15  1  0
 15 16  1  0
 16 17  1  0
  9 18  2  0
  4 19  2  0
 19 20  1  0
 20 21  2  0
 21 22  1  0
 22 23  1  0
 23 24  1  0
 24 25  1  0
 25 26  1  0
 26 27  1  0
 27 28  1  0
 22 29  2  0
 29 30  1  0
 30 31  2  0
 31  2  1  0
 18  5  1  0
 31 20  1  0
 17 12  1  0
 28 23  1  0
  3 32  1  0
  3 33  1  0
  6 34  1  0
  7 35  1  0
  8 36  1  0
 13 37  1  0
 13 38  1  0
 14 39  1  0
 14 40  1  0
 16 41  1  0
 16 42  1  0
 17 43  1  0
 17 44  1  0
 18 45  1  0
 21 46  1  0
 24 47  1  0
 24 48  1  0
 25 49  1  0
 25 50  1  0
 26 51  1  0
 26 52  1  0
 27 53  1  0
 27 54  1  0
 28 55  1  0
 28 56  1  0
 29 57  1  0
 30 58  1  0
M  END
>  <smiles>  (43) 
O=C1CC(c2cccc(C(=O)N3CCOCC3)c2)=Nc2cc(N3CCCCC3)ccc21

>  <score_type>  (43) 
oracle

>  <origin>  (43) 
autodockgpu

>  <m_score__min__energy>  (43) 
-9.7400000000000002

>  <m_primary>  (43) 
energy

>  <rmsd>  (43) 
6.81283240385326

>  <m_score__min__rmsd>  (43) 
6.81283240385326

>  <meeko>  (43) 
{"free_energy": -9.74, "intermolecular_energy": -10.63, "internal_energy": -0.97, "cluster_size": 48, "cluster_id": 1, "rank_in_cluster": 9}

>  <energy>  (43) 
-9.69

>  <cluster_rmsd>  (43) 
0.14

>  <cluster>  (43) 
1

$$$$

     RDKit          3D

 58 62  0  0  0  0  0  0  0  0999 V2000
  142.1280   73.0530  219.1460 O   0  0  0  0  0  0  0  0  0  0  0  0
  141.4270   73.3390  220.1540 C   0  0  0  0  0  0  0  0  0  0  0  0
  140.6450   72.2600  220.7930 C   0  0  0  0  0  0  0  0  0  0  0  0
  139.9070   72.8300  221.9400 C   0  0  0  0  0  0  0  0  0  0  0  0
  139.0390   71.9260  222.7270 C   0  0  0  0  0  0  0  0  0  0  0  0
  137.6700   72.1350  222.7410 C   0  0  0  0  0  0  0  0  0  0  0  0
  136.8580   71.2950  223.4750 C   0  0  0  0  0  0  0  0  0  0  0  0
  137.3790   70.2560  224.1930 C   0  0  0  0  0  0  0  0  0  0  0  0
  138.7520   70.0180  224.2000 C   0  0  0  0  0  0  0  0  0  0  0  0
  139.3340   68.9340  224.9550 C   0  0  0  0  0  0  0  0  0  0  0  0
  139.1950   67.7260  224.6140 O   0  0  0  0  0  0  0  0  0  0  0  0
  140.0910   69.2920  226.1290 N   0  0  0  0  0  0  0  0  0  0  0  0
  140.2510   70.6970  226.5230 C   0  0  0  0  0  0  0  0  0  0  0  0
  140.7510   70.7040  227.9430 C   0  0  0  0  0  0  0  0  0  0  0  0
  140.0660   69.6980  228.6340 O   0  0  0  0  0  0  0  0  0  0  0  0
  140.7170   68.5160  228.3890 C   0  0  0  0  0  0  0  0  0  0  0  0
  140.6980   68.2260  226.9210 C   0  0  0  0  0  0  0  0  0  0  0  0
  139.5370   70.8830  223.4490 C   0  0  0  0  0  0  0  0  0  0  0  0
  139.9390   74.0490  222.3200 N   0  0  0  0  0  0  0  0  0  0  0  0
  140.6890   75.0920  221.7160 C   0  0  0  0  0  0  0  0  0  0  0  0
  140.6960   76.3910  222.1530 C   0  0  0  0  0  0  0  0  0  0  0  0
  141.4490   77.3530  221.5120 C   0  0  0  0  0  0  0  0  0  0  0  0
  141.4850   78.7180  221.9460 N   0  0  0  0  0  0  0  0  0  0  0  0
  141.2650   79.1000  223.3260 C   0  0  0  0  0  0  0  0  0  0  0  0
  142.0890   80.3810  223.5150 C   0  0  0  0  0  0  0  0  0  0  0  0
  141.3370   81.4660  222.7610 C   0  0  0  0  0  0  0  0  0  0  0  0
  141.1860   81.0890  221.3270 C   0  0  0  0  0  0  0  0  0  0  0  0
  141.7410   79.7510  220.9620 C   0  0  0  0  0  0  0  0  0  0  0  0
  142.1890   76.9570  220.4190 C   0  0  0  0  0  0  0  0  0  0  0  0
  142.2130   75.6620  219.9410 C   0  0  0  0  0  0  0  0  0  0  0  0
  141.4510   74.7190  220.6010 C   0  0  0  0  0  0  0  0  0  0  0  0
  139.9341   71.8377  220.0675 H   0  0  0  0  0  0  0  0  0  0  0  0
  141.3179   71.4611  221.1379 H   0  0  0  0  0  0  0  0  0  0  0  0
  137.2321   72.9667  222.1696 H   0  0  0  0  0  0  0  0  0  0  0  0
  135.7712   71.4650  223.4822 H   0  0  0  0  0  0  0  0  0  0  0  0
  136.7091   69.6019  224.7704 H   0  0  0  0  0  0  0  0  0  0  0  0
  140.9789   71.1931  225.8642 H   0  0  0  0  0  0  0  0  0  0  0  0
  139.2966   71.2378  226.4411 H   0  0  0  0  0  0  0  0  0  0  0  0
  141.8324   70.5032  227.9616 H   0  0  0  0  0  0  0  0  0  0  0  0
  140.5763   71.6841  228.4109 H   0  0  0  0  0  0  0  0  0  0  0  0
  141.7589   68.5940  228.7331 H   0  0  0  0  0  0  0  0  0  0  0  0
  140.2105   67.7020  228.9283 H   0  0  0  0  0  0  0  0  0  0  0  0
  141.7341   68.0843  226.5798 H   0  0  0  0  0  0  0  0  0  0  0  0
  140.0863   67.3235  226.7753 H   0  0  0  0  0  0  0  0  0  0  0  0
  140.6243   70.7166  223.4362 H   0  0  0  0  0  0  0  0  0  0  0  0
  140.0918   76.6709  223.0285 H   0  0  0  0  0  0  0  0  0  0  0  0
  140.1980   79.2953  223.5085 H   0  0  0  0  0  0  0  0  0  0  0  0
  141.5628   78.3076  224.0285 H   0  0  0  0  0  0  0  0  0  0  0  0
  142.1628   80.6360  224.5825 H   0  0  0  0  0  0  0  0  0  0  0  0
  143.1166   80.2628  223.1406 H   0  0  0  0  0  0  0  0  0  0  0  0
  140.3408   81.5955  223.2091 H   0  0  0  0  0  0  0  0  0  0  0  0
  141.9044   82.4061  222.8262 H   0  0  0  0  0  0  0  0  0  0  0  0
  140.1129   81.0903  221.0854 H   0  0  0  0  0  0  0  0  0  0  0  0
  141.7649   81.8278  220.7533 H   0  0  0  0  0  0  0  0  0  0  0  0
  141.2916   79.4387  220.0078 H   0  0  0  0  0  0  0  0  0  0  0  0
  142.8331   79.8661  220.8984 H   0  0  0  0  0  0  0  0  0  0  0  0
  142.7938   77.7143  219.8988 H   0  0  0  0  0  0  0  0  0  0  0  0
  142.8189   75.3908  219.0638 H   0  0  0  0  0  0  0  0  0  0  0  0
  1  2  2  0
  2  3  1  0
  3  4  1  0
  4  5  1  0
  5  6  2  0
  6  7  1  0
  7  8  2  0
  8  9  1  0
  9 10  1  0
 10 11  2  0
 10 12  1  0
 12 13  1  0
 13 14  1  0
 14 15  1  0
 15 16  1  0
 16 17  1  0
  9 18  2  0
  4 19  2  0
 19 20  1  0
 20 21  2  0
 21 22  1  0
 22 23  1  0
 23 24  1  0
 24 25  1  0
 25 26  1  0
 26 27  1  0
 27 28  1  0
 22 29  2  0
 29 30  1  0
 30 31  2  0
 31  2  1  0
 18  5  1  0
 31 20  1  0
 17 12  1  0
 28 23  1  0
  3 32  1  0
  3 33  1  0
  6 34  1  0
  7 35  1  0
  8 36  1  0
 13 37  1  0
 13 38  1  0
 14 39  1  0
 14 40  1  0
 16 41  1  0
 16 42  1  0
 17 43  1  0
 17 44  1  0
 18 45  1  0
 21 46  1  0
 24 47  1  0
 24 48  1  0
 25 49  1  0
 25 50  1  0
 26 51  1  0
 26 52  1  0
 27 53  1  0
 27 54  1  0
 28 55  1  0
 28 56  1  0
 29 57  1  0
 30 58  1  0
M  END
>  <smiles>  (44) 
O=C1CC(c2cccc(C(=O)N3CCOCC3)c2)=Nc2cc(N3CCCCC3)ccc21

>  <score_type>  (44) 
oracle

>  <origin>  (44) 
autodockgpu

>  <m_score__min__energy>  (44) 
-9.7400000000000002

>  <m_primary>  (44) 
energy

>  <rmsd>  (44) 
6.562992810143706

>  <m_score__min__rmsd>  (44) 
6.562992810143706

>  <meeko>  (44) 
{"free_energy": -9.68, "intermolecular_energy": -10.58, "internal_energy": -0.97, "cluster_size": 48, "cluster_id": 1, "rank_in_cluster": 46}

>  <energy>  (44) 
-9.69

>  <cluster_rmsd>  (44) 
0.17

>  <cluster>  (44) 
1

$$$$

     RDKit          3D

 58 62  0  0  0  0  0  0  0  0999 V2000
  142.0760   73.0540  219.1390 O   0  0  0  0  0  0  0  0  0  0  0  0
  141.3870   73.3310  220.1580 C   0  0  0  0  0  0  0  0  0  0  0  0
  140.6080   72.2470  220.7940 C   0  0  0  0  0  0  0  0  0  0  0  0
  139.8840   72.8060  221.9550 C   0  0  0  0  0  0  0  0  0  0  0  0
  139.0220   71.8950  222.7400 C   0  0  0  0  0  0  0  0  0  0  0  0
  137.6500   72.0890  222.7450 C   0  0  0  0  0  0  0  0  0  0  0  0
  136.8430   71.2440  223.4780 C   0  0  0  0  0  0  0  0  0  0  0  0
  137.3710   70.2140  224.2050 C   0  0  0  0  0  0  0  0  0  0  0  0
  138.7480   69.9910  224.2210 C   0  0  0  0  0  0  0  0  0  0  0  0
  139.3370   68.9170  224.9850 C   0  0  0  0  0  0  0  0  0  0  0  0
  139.2080   67.7060  224.6520 O   0  0  0  0  0  0  0  0  0  0  0  0
  140.0890   69.2900  226.1570 N   0  0  0  0  0  0  0  0  0  0  0  0
  140.2370   70.6980  226.5410 C   0  0  0  0  0  0  0  0  0  0  0  0
  140.7340   70.7200  227.9620 C   0  0  0  0  0  0  0  0  0  0  0  0
  140.0570   69.7130  228.6590 O   0  0  0  0  0  0  0  0  0  0  0  0
  140.7180   68.5340  228.4240 C   0  0  0  0  0  0  0  0  0  0  0  0
  140.7030   68.2350  226.9580 C   0  0  0  0  0  0  0  0  0  0  0  0
  139.5270   70.8620  223.4700 C   0  0  0  0  0  0  0  0  0  0  0  0
  139.9250   74.0200  222.3490 N   0  0  0  0  0  0  0  0  0  0  0  0
  140.6720   75.0680  221.7480 C   0  0  0  0  0  0  0  0  0  0  0  0
  140.6890   76.3610  222.2010 C   0  0  0  0  0  0  0  0  0  0  0  0
  141.4380   77.3280  221.5630 C   0  0  0  0  0  0  0  0  0  0  0  0
  141.4840   78.6870  222.0120 N   0  0  0  0  0  0  0  0  0  0  0  0
  141.4580   79.8090  221.0970 C   0  0  0  0  0  0  0  0  0  0  0  0
  140.7820   80.9420  221.8820 C   0  0  0  0  0  0  0  0  0  0  0  0
  141.8060   81.3940  222.9110 C   0  0  0  0  0  0  0  0  0  0  0  0
  142.2040   80.2520  223.7810 C   0  0  0  0  0  0  0  0  0  0  0  0
  141.5720   78.9430  223.4370 C   0  0  0  0  0  0  0  0  0  0  0  0
  142.1640   76.9430  220.4580 C   0  0  0  0  0  0  0  0  0  0  0  0
  142.1790   75.6530  219.9640 C   0  0  0  0  0  0  0  0  0  0  0  0
  141.4210   74.7040  220.6210 C   0  0  0  0  0  0  0  0  0  0  0  0
  139.8881   71.8349  220.0716 H   0  0  0  0  0  0  0  0  0  0  0  0
  141.2823   71.4426  221.1231 H   0  0  0  0  0  0  0  0  0  0  0  0
  137.2064   72.9131  222.1670 H   0  0  0  0  0  0  0  0  0  0  0  0
  135.7544   71.4020  223.4775 H   0  0  0  0  0  0  0  0  0  0  0  0
  136.7049   69.5557  224.7820 H   0  0  0  0  0  0  0  0  0  0  0  0
  140.9623   71.1951  225.8800 H   0  0  0  0  0  0  0  0  0  0  0  0
  139.2784   71.2303  226.4535 H   0  0  0  0  0  0  0  0  0  0  0  0
  141.8171   70.5294  227.9842 H   0  0  0  0  0  0  0  0  0  0  0  0
  140.5492   71.7018  228.4224 H   0  0  0  0  0  0  0  0  0  0  0  0
  141.7587   68.6224  228.7692 H   0  0  0  0  0  0  0  0  0  0  0  0
  140.2180   67.7195  228.9686 H   0  0  0  0  0  0  0  0  0  0  0  0
  141.7407   68.0993  226.6192 H   0  0  0  0  0  0  0  0  0  0  0  0
  140.0977   67.3273  226.8180 H   0  0  0  0  0  0  0  0  0  0  0  0
  140.6162   70.7084  223.4645 H   0  0  0  0  0  0  0  0  0  0  0  0
  140.0963   76.6322  223.0871 H   0  0  0  0  0  0  0  0  0  0  0  0
  142.4795   80.0953  220.8063 H   0  0  0  0  0  0  0  0  0  0  0  0
  140.9218   79.5724  220.1661 H   0  0  0  0  0  0  0  0  0  0  0  0
  140.5210   81.7725  221.2096 H   0  0  0  0  0  0  0  0  0  0  0  0
  139.8481   80.6072  222.3571 H   0  0  0  0  0  0  0  0  0  0  0  0
  142.6950   81.7818  222.3921 H   0  0  0  0  0  0  0  0  0  0  0  0
  141.3609   82.1819  223.5364 H   0  0  0  0  0  0  0  0  0  0  0  0
  143.2952   80.1329  223.7091 H   0  0  0  0  0  0  0  0  0  0  0  0
  141.8565   80.5031  224.7940 H   0  0  0  0  0  0  0  0  0  0  0  0
  142.1671   78.1401  223.8966 H   0  0  0  0  0  0  0  0  0  0  0  0
  140.5409   78.9773  223.8186 H   0  0  0  0  0  0  0  0  0  0  0  0
  142.7652   77.7048  219.9400 H   0  0  0  0  0  0  0  0  0  0  0  0
  142.7747   75.3906  219.0772 H   0  0  0  0  0  0  0  0  0  0  0  0
  1  2  2  0
  2  3  1  0
  3  4  1  0
  4  5  1  0
  5  6  2  0
  6  7  1  0
  7  8  2  0
  8  9  1  0
  9 10  1  0
 10 11  2  0
 10 12  1  0
 12 13  1  0
 13 14  1  0
 14 15  1  0
 15 16  1  0
 16 17  1  0
  9 18  2  0
  4 19  2  0
 19 20  1  0
 20 21  2  0
 21 22  1  0
 22 23  1  0
 23 24  1  0
 24 25  1  0
 25 26  1  0
 26 27  1  0
 27 28  1  0
 22 29  2  0
 29 30  1  0
 30 31  2  0
 31  2  1  0
 18  5  1  0
 31 20  1  0
 17 12  1  0
 28 23  1  0
  3 32  1  0
  3 33  1  0
  6 34  1  0
  7 35  1  0
  8 36  1  0
 13 37  1  0
 13 38  1  0
 14 39  1  0
 14 40  1  0
 16 41  1  0
 16 42  1  0
 17 43  1  0
 17 44  1  0
 18 45  1  0
 21 46  1  0
 24 47  1  0
 24 48  1  0
 25 49  1  0
 25 50  1  0
 26 51  1  0
 26 52  1  0
 27 53  1  0
 27 54  1  0
 28 55  1  0
 28 56  1  0
 29 57  1  0
 30 58  1  0
M  END
>  <smiles>  (45) 
O=C1CC(c2cccc(C(=O)N3CCOCC3)c2)=Nc2cc(N3CCCCC3)ccc21

>  <score_type>  (45) 
oracle

>  <origin>  (45) 
autodockgpu

>  <m_score__min__energy>  (45) 
-9.7400000000000002

>  <m_primary>  (45) 
energy

>  <rmsd>  (45) 
6.808496565251893

>  <m_score__min__rmsd>  (45) 
6.808496565251893

>  <meeko>  (45) 
{"free_energy": -9.73, "intermolecular_energy": -10.63, "internal_energy": -0.97, "cluster_size": 48, "cluster_id": 1, "rank_in_cluster": 25}

>  <energy>  (45) 
-9.69

>  <cluster_rmsd>  (45) 
0.14

>  <cluster>  (45) 
1

$$$$

     RDKit          3D

 58 62  0  0  0  0  0  0  0  0999 V2000
  142.0340   73.0820  219.1090 O   0  0  0  0  0  0  0  0  0  0  0  0
  141.3520   73.3530  220.1340 C   0  0  0  0  0  0  0  0  0  0  0  0
  140.5680   72.2690  220.7620 C   0  0  0  0  0  0  0  0  0  0  0  0
  139.8530   72.8210  221.9320 C   0  0  0  0  0  0  0  0  0  0  0  0
  138.9870   71.9090  222.7110 C   0  0  0  0  0  0  0  0  0  0  0  0
  137.6140   72.0920  222.6970 C   0  0  0  0  0  0  0  0  0  0  0  0
  136.8030   71.2450  223.4240 C   0  0  0  0  0  0  0  0  0  0  0  0
  137.3300   70.2230  224.1640 C   0  0  0  0  0  0  0  0  0  0  0  0
  138.7070   70.0110  224.1990 C   0  0  0  0  0  0  0  0  0  0  0  0
  139.2940   68.9460  224.9770 C   0  0  0  0  0  0  0  0  0  0  0  0
  139.1530   67.7300  224.6670 O   0  0  0  0  0  0  0  0  0  0  0  0
  140.0580   69.3330  226.1360 N   0  0  0  0  0  0  0  0  0  0  0  0
  140.2200   70.7470  226.4950 C   0  0  0  0  0  0  0  0  0  0  0  0
  140.7290   70.7890  227.9110 C   0  0  0  0  0  0  0  0  0  0  0  0
  140.0500   69.8000  228.6310 O   0  0  0  0  0  0  0  0  0  0  0  0
  140.7000   68.6130  228.4120 C   0  0  0  0  0  0  0  0  0  0  0  0
  140.6710   68.2870  226.9510 C   0  0  0  0  0  0  0  0  0  0  0  0
  139.4900   70.8830  223.4540 C   0  0  0  0  0  0  0  0  0  0  0  0
  139.9040   74.0310  222.3380 N   0  0  0  0  0  0  0  0  0  0  0  0
  140.6560   75.0790  221.7460 C   0  0  0  0  0  0  0  0  0  0  0  0
  140.6850   76.3680  222.2110 C   0  0  0  0  0  0  0  0  0  0  0  0
  141.4380   77.3350  221.5800 C   0  0  0  0  0  0  0  0  0  0  0  0
  141.4960   78.6900  222.0440 N   0  0  0  0  0  0  0  0  0  0  0  0
  141.3010   79.8210  221.1610 C   0  0  0  0  0  0  0  0  0  0  0  0
  140.7000   80.9160  222.0530 C   0  0  0  0  0  0  0  0  0  0  0  0
  141.8400   81.3950  222.9380 C   0  0  0  0  0  0  0  0  0  0  0  0
  142.3970   80.2580  223.7240 C   0  0  0  0  0  0  0  0  0  0  0  0
  141.7720   78.9300  223.4470 C   0  0  0  0  0  0  0  0  0  0  0  0
  142.1570   76.9560  220.4680 C   0  0  0  0  0  0  0  0  0  0  0  0
  142.1600   75.6720  219.9610 C   0  0  0  0  0  0  0  0  0  0  0  0
  141.3980   74.7220  220.6120 C   0  0  0  0  0  0  0  0  0  0  0  0
  139.8419   71.8698  220.0385 H   0  0  0  0  0  0  0  0  0  0  0  0
  141.2378   71.4564  221.0799 H   0  0  0  0  0  0  0  0  0  0  0  0
  137.1720   72.9095  222.1085 H   0  0  0  0  0  0  0  0  0  0  0  0
  135.7133   71.3945  223.4080 H   0  0  0  0  0  0  0  0  0  0  0  0
  136.6617   69.5628  224.7363 H   0  0  0  0  0  0  0  0  0  0  0  0
  140.9434   71.2272  225.8197 H   0  0  0  0  0  0  0  0  0  0  0  0
  139.2648   71.2852  226.4064 H   0  0  0  0  0  0  0  0  0  0  0  0
  141.8107   70.5898  227.9274 H   0  0  0  0  0  0  0  0  0  0  0  0
  140.5560   71.7800  228.3559 H   0  0  0  0  0  0  0  0  0  0  0  0
  141.7441   68.7000  228.7471 H   0  0  0  0  0  0  0  0  0  0  0  0
  140.1983   67.8123  228.9751 H   0  0  0  0  0  0  0  0  0  0  0  0
  141.7049   68.1372  226.6064 H   0  0  0  0  0  0  0  0  0  0  0  0
  140.0582   67.3813  226.8321 H   0  0  0  0  0  0  0  0  0  0  0  0
  140.5802   70.7371  223.4641 H   0  0  0  0  0  0  0  0  0  0  0  0
  140.0979   76.6352  223.1021 H   0  0  0  0  0  0  0  0  0  0  0  0
  142.2605   80.1507  220.7360 H   0  0  0  0  0  0  0  0  0  0  0  0
  140.6496   79.5753  220.3093 H   0  0  0  0  0  0  0  0  0  0  0  0
  140.3169   81.7442  221.4387 H   0  0  0  0  0  0  0  0  0  0  0  0
  139.8549   80.5382  222.6472 H   0  0  0  0  0  0  0  0  0  0  0  0
  142.6332   81.8236  222.3079 H   0  0  0  0  0  0  0  0  0  0  0  0
  141.4577   82.1572  223.6329 H   0  0  0  0  0  0  0  0  0  0  0  0
  143.4712   80.1825  223.4996 H   0  0  0  0  0  0  0  0  0  0  0  0
  142.1847   80.4823  224.7798 H   0  0  0  0  0  0  0  0  0  0  0  0
  142.4546   78.1450  223.8046 H   0  0  0  0  0  0  0  0  0  0  0  0
  140.8036   78.9187  223.9687 H   0  0  0  0  0  0  0  0  0  0  0  0
  142.7622   77.7185  219.9557 H   0  0  0  0  0  0  0  0  0  0  0  0
  142.7494   75.4143  219.0687 H   0  0  0  0  0  0  0  0  0  0  0  0
  1  2  2  0
  2  3  1  0
  3  4  1  0
  4  5  1  0
  5  6  2  0
  6  7  1  0
  7  8  2  0
  8  9  1  0
  9 10  1  0
 10 11  2  0
 10 12  1  0
 12 13  1  0
 13 14  1  0
 14 15  1  0
 15 16  1  0
 16 17  1  0
  9 18  2  0
  4 19  2  0
 19 20  1  0
 20 21  2  0
 21 22  1  0
 22 23  1  0
 23 24  1  0
 24 25  1  0
 25 26  1  0
 26 27  1  0
 27 28  1  0
 22 29  2  0
 29 30  1  0
 30 31  2  0
 31  2  1  0
 18  5  1  0
 31 20  1  0
 17 12  1  0
 28 23  1  0
  3 32  1  0
  3 33  1  0
  6 34  1  0
  7 35  1  0
  8 36  1  0
 13 37  1  0
 13 38  1  0
 14 39  1  0
 14 40  1  0
 16 41  1  0
 16 42  1  0
 17 43  1  0
 17 44  1  0
 18 45  1  0
 21 46  1  0
 24 47  1  0
 24 48  1  0
 25 49  1  0
 25 50  1  0
 26 51  1  0
 26 52  1  0
 27 53  1  0
 27 54  1  0
 28 55  1  0
 28 56  1  0
 29 57  1  0
 30 58  1  0
M  END
>  <smiles>  (46) 
O=C1CC(c2cccc(C(=O)N3CCOCC3)c2)=Nc2cc(N3CCCCC3)ccc21

>  <score_type>  (46) 
oracle

>  <origin>  (46) 
autodockgpu

>  <m_score__min__energy>  (46) 
-9.7400000000000002

>  <m_primary>  (46) 
energy

>  <rmsd>  (46) 
6.81171913604008

>  <m_score__min__rmsd>  (46) 
6.81171913604008

>  <meeko>  (46) 
{"free_energy": -9.71, "intermolecular_energy": -10.6, "internal_energy": -0.96, "cluster_size": 48, "cluster_id": 1, "rank_in_cluster": 37}

>  <energy>  (46) 
-9.68

>  <cluster_rmsd>  (46) 
0.18

>  <cluster>  (46) 
1

$$$$

     RDKit          3D

 58 62  0  0  0  0  0  0  0  0999 V2000
  142.0300   73.0870  219.1100 O   0  0  0  0  0  0  0  0  0  0  0  0
  141.3530   73.3550  220.1390 C   0  0  0  0  0  0  0  0  0  0  0  0
  140.5750   72.2680  220.7700 C   0  0  0  0  0  0  0  0  0  0  0  0
  139.8660   72.8180  221.9450 C   0  0  0  0  0  0  0  0  0  0  0  0
  139.0070   71.9020  222.7290 C   0  0  0  0  0  0  0  0  0  0  0  0
  137.6330   72.0840  222.7240 C   0  0  0  0  0  0  0  0  0  0  0  0
  136.8290   71.2340  223.4560 C   0  0  0  0  0  0  0  0  0  0  0  0
  137.3620   70.2120  224.1900 C   0  0  0  0  0  0  0  0  0  0  0  0
  138.7400   70.0020  224.2150 C   0  0  0  0  0  0  0  0  0  0  0  0
  139.3350   68.9360  224.9870 C   0  0  0  0  0  0  0  0  0  0  0  0
  139.1980   67.7210  224.6730 O   0  0  0  0  0  0  0  0  0  0  0  0
  140.1010   69.3220  226.1450 N   0  0  0  0  0  0  0  0  0  0  0  0
  140.2590   70.7350  226.5080 C   0  0  0  0  0  0  0  0  0  0  0  0
  140.7730   70.7740  227.9220 C   0  0  0  0  0  0  0  0  0  0  0  0
  140.1000   69.7800  228.6420 O   0  0  0  0  0  0  0  0  0  0  0  0
  140.7540   68.5960  228.4150 C   0  0  0  0  0  0  0  0  0  0  0  0
  140.7210   68.2760  226.9540 C   0  0  0  0  0  0  0  0  0  0  0  0
  139.5170   70.8760  223.4660 C   0  0  0  0  0  0  0  0  0  0  0  0
  139.9160   74.0270  222.3530 N   0  0  0  0  0  0  0  0  0  0  0  0
  140.6620   75.0780  221.7560 C   0  0  0  0  0  0  0  0  0  0  0  0
  140.6900   76.3660  222.2230 C   0  0  0  0  0  0  0  0  0  0  0  0
  141.4370   77.3360  221.5880 C   0  0  0  0  0  0  0  0  0  0  0  0
  141.4950   78.6900  222.0530 N   0  0  0  0  0  0  0  0  0  0  0  0
  141.4910   79.8220  221.1490 C   0  0  0  0  0  0  0  0  0  0  0  0
  140.8200   80.9540  221.9400 C   0  0  0  0  0  0  0  0  0  0  0  0
  141.8400   81.3840  222.9830 C   0  0  0  0  0  0  0  0  0  0  0  0
  142.2150   80.2280  223.8450 C   0  0  0  0  0  0  0  0  0  0  0  0
  141.5720   78.9290  223.4810 C   0  0  0  0  0  0  0  0  0  0  0  0
  142.1510   76.9600  220.4720 C   0  0  0  0  0  0  0  0  0  0  0  0
  142.1540   75.6760  219.9630 C   0  0  0  0  0  0  0  0  0  0  0  0
  141.3980   74.7240  220.6180 C   0  0  0  0  0  0  0  0  0  0  0  0
  139.8455   71.8681  220.0504 H   0  0  0  0  0  0  0  0  0  0  0  0
  141.2480   71.4560  221.0826 H   0  0  0  0  0  0  0  0  0  0  0  0
  137.1857   72.9016  222.1397 H   0  0  0  0  0  0  0  0  0  0  0  0
  135.7390   71.3819  223.4484 H   0  0  0  0  0  0  0  0  0  0  0  0
  136.6986   69.5498  224.7657 H   0  0  0  0  0  0  0  0  0  0  0  0
  140.9781   71.2202  225.8316 H   0  0  0  0  0  0  0  0  0  0  0  0
  139.3015   71.2700  226.4246 H   0  0  0  0  0  0  0  0  0  0  0  0
  141.8554   70.5784  227.9337 H   0  0  0  0  0  0  0  0  0  0  0  0
  140.5980   71.7630  228.3706 H   0  0  0  0  0  0  0  0  0  0  0  0
  141.7990   68.6857  228.7465 H   0  0  0  0  0  0  0  0  0  0  0  0
  140.2572   67.7910  228.9764 H   0  0  0  0  0  0  0  0  0  0  0  0
  141.7542   68.1318  226.6052 H   0  0  0  0  0  0  0  0  0  0  0  0
  140.1112   67.3684  226.8341 H   0  0  0  0  0  0  0  0  0  0  0  0
  140.6075   70.7315  223.4679 H   0  0  0  0  0  0  0  0  0  0  0  0
  140.1078   76.6303  223.1181 H   0  0  0  0  0  0  0  0  0  0  0  0
  142.5185   80.0997  220.8713 H   0  0  0  0  0  0  0  0  0  0  0  0
  140.9618   79.6015  220.2102 H   0  0  0  0  0  0  0  0  0  0  0  0
  140.5740   81.7943  221.2742 H   0  0  0  0  0  0  0  0  0  0  0  0
  139.8782   80.6244  222.4031 H   0  0  0  0  0  0  0  0  0  0  0  0
  142.7386   81.7657  222.4763 H   0  0  0  0  0  0  0  0  0  0  0  0
  141.3994   82.1718  223.6117 H   0  0  0  0  0  0  0  0  0  0  0  0
  143.3055   80.0971  223.7836 H   0  0  0  0  0  0  0  0  0  0  0  0
  141.8585   80.4726  224.8565 H   0  0  0  0  0  0  0  0  0  0  0  0
  142.1542   78.1148  223.9373 H   0  0  0  0  0  0  0  0  0  0  0  0
  140.5378   78.9698  223.8536 H   0  0  0  0  0  0  0  0  0  0  0  0
  142.7520   77.7244  219.9577 H   0  0  0  0  0  0  0  0  0  0  0  0
  142.7385   75.4206  219.0668 H   0  0  0  0  0  0  0  0  0  0  0  0
  1  2  2  0
  2  3  1  0
  3  4  1  0
  4  5  1  0
  5  6  2  0
  6  7  1  0
  7  8  2  0
  8  9  1  0
  9 10  1  0
 10 11  2  0
 10 12  1  0
 12 13  1  0
 13 14  1  0
 14 15  1  0
 15 16  1  0
 16 17  1  0
  9 18  2  0
  4 19  2  0
 19 20  1  0
 20 21  2  0
 21 22  1  0
 22 23  1  0
 23 24  1  0
 24 25  1  0
 25 26  1  0
 26 27  1  0
 27 28  1  0
 22 29  2  0
 29 30  1  0
 30 31  2  0
 31  2  1  0
 18  5  1  0
 31 20  1  0
 17 12  1  0
 28 23  1  0
  3 32  1  0
  3 33  1  0
  6 34  1  0
  7 35  1  0
  8 36  1  0
 13 37  1  0
 13 38  1  0
 14 39  1  0
 14 40  1  0
 16 41  1  0
 16 42  1  0
 17 43  1  0
 17 44  1  0
 18 45  1  0
 21 46  1  0
 24 47  1  0
 24 48  1  0
 25 49  1  0
 25 50  1  0
 26 51  1  0
 26 52  1  0
 27 53  1  0
 27 54  1  0
 28 55  1  0
 28 56  1  0
 29 57  1  0
 30 58  1  0
M  END
>  <smiles>  (47) 
O=C1CC(c2cccc(C(=O)N3CCOCC3)c2)=Nc2cc(N3CCCCC3)ccc21

>  <score_type>  (47) 
oracle

>  <origin>  (47) 
autodockgpu

>  <m_score__min__energy>  (47) 
-9.7400000000000002

>  <m_primary>  (47) 
energy

>  <rmsd>  (47) 
6.813525223154147

>  <m_score__min__rmsd>  (47) 
6.813525223154147

>  <meeko>  (47) 
{"free_energy": -9.73, "intermolecular_energy": -10.62, "internal_energy": -0.96, "cluster_size": 48, "cluster_id": 1, "rank_in_cluster": 31}

>  <energy>  (47) 
-9.62

>  <cluster_rmsd>  (47) 
0.37

>  <cluster>  (47) 
1

$$$$

     RDKit          3D

 58 62  0  0  0  0  0  0  0  0999 V2000
  142.1130   73.0460  219.1560 O   0  0  0  0  0  0  0  0  0  0  0  0
  141.4160   73.3270  220.1680 C   0  0  0  0  0  0  0  0  0  0  0  0
  140.6330   72.2450  220.8020 C   0  0  0  0  0  0  0  0  0  0  0  0
  139.8990   72.8080  221.9540 C   0  0  0  0  0  0  0  0  0  0  0  0
  139.0310   71.9000  222.7360 C   0  0  0  0  0  0  0  0  0  0  0  0
  137.6600   72.1000  222.7380 C   0  0  0  0  0  0  0  0  0  0  0  0
  136.8470   71.2570  223.4680 C   0  0  0  0  0  0  0  0  0  0  0  0
  137.3690   70.2240  224.1940 C   0  0  0  0  0  0  0  0  0  0  0  0
  138.7440   69.9950  224.2130 C   0  0  0  0  0  0  0  0  0  0  0  0
  139.3270   68.9170  224.9770 C   0  0  0  0  0  0  0  0  0  0  0  0
  139.1910   67.7070  224.6440 O   0  0  0  0  0  0  0  0  0  0  0  0
  140.0810   69.2850  226.1490 N   0  0  0  0  0  0  0  0  0  0  0  0
  140.2380   70.6920  226.5340 C   0  0  0  0  0  0  0  0  0  0  0  0
  140.7360   70.7100  227.9540 C   0  0  0  0  0  0  0  0  0  0  0  0
  140.0520   69.7080  228.6510 O   0  0  0  0  0  0  0  0  0  0  0  0
  140.7060   68.5250  228.4160 C   0  0  0  0  0  0  0  0  0  0  0  0
  140.6890   68.2260  226.9500 C   0  0  0  0  0  0  0  0  0  0  0  0
  139.5290   70.8630  223.4660 C   0  0  0  0  0  0  0  0  0  0  0  0
  139.9350   74.0240  222.3440 N   0  0  0  0  0  0  0  0  0  0  0  0
  140.6860   75.0700  221.7450 C   0  0  0  0  0  0  0  0  0  0  0  0
  140.6980   76.3650  222.1920 C   0  0  0  0  0  0  0  0  0  0  0  0
  141.4520   77.3300  221.5570 C   0  0  0  0  0  0  0  0  0  0  0  0
  141.4930   78.6910  222.0010 N   0  0  0  0  0  0  0  0  0  0  0  0
  141.4590   79.8090  221.0810 C   0  0  0  0  0  0  0  0  0  0  0  0
  140.7810   80.9420  221.8640 C   0  0  0  0  0  0  0  0  0  0  0  0
  141.8060   81.4030  222.8880 C   0  0  0  0  0  0  0  0  0  0  0  0
  142.2110   80.2660  223.7620 C   0  0  0  0  0  0  0  0  0  0  0  0
  141.5850   78.9520  223.4240 C   0  0  0  0  0  0  0  0  0  0  0  0
  142.1880   76.9410  220.4590 C   0  0  0  0  0  0  0  0  0  0  0  0
  142.2070   75.6490  219.9710 C   0  0  0  0  0  0  0  0  0  0  0  0
  141.4450   74.7030  220.6260 C   0  0  0  0  0  0  0  0  0  0  0  0
  139.9196   71.8290  220.0754 H   0  0  0  0  0  0  0  0  0  0  0  0
  141.3053   71.4427  221.1402 H   0  0  0  0  0  0  0  0  0  0  0  0
  137.2215   72.9270  222.1603 H   0  0  0  0  0  0  0  0  0  0  0  0
  135.7591   71.4197  223.4653 H   0  0  0  0  0  0  0  0  0  0  0  0
  136.6988   69.5675  224.7683 H   0  0  0  0  0  0  0  0  0  0  0  0
  140.9658   71.1850  225.8728 H   0  0  0  0  0  0  0  0  0  0  0  0
  139.2826   71.2302  226.4476 H   0  0  0  0  0  0  0  0  0  0  0  0
  141.8177   70.5113  227.9754 H   0  0  0  0  0  0  0  0  0  0  0  0
  140.5590   71.6930  228.4148 H   0  0  0  0  0  0  0  0  0  0  0  0
  141.7472   68.6073  228.7610 H   0  0  0  0  0  0  0  0  0  0  0  0
  140.2012   67.7135  228.9607 H   0  0  0  0  0  0  0  0  0  0  0  0
  141.7258   68.0841  226.6111 H   0  0  0  0  0  0  0  0  0  0  0  0
  140.0783   67.3218  226.8101 H   0  0  0  0  0  0  0  0  0  0  0  0
  140.6175   70.7040  223.4634 H   0  0  0  0  0  0  0  0  0  0  0  0
  140.0968   76.6396  223.0713 H   0  0  0  0  0  0  0  0  0  0  0  0
  142.4782   80.0984  220.7853 H   0  0  0  0  0  0  0  0  0  0  0  0
  140.9207   79.5663  220.1529 H   0  0  0  0  0  0  0  0  0  0  0  0
  140.5141   81.7686  221.1892 H   0  0  0  0  0  0  0  0  0  0  0  0
  139.8504   80.6045  222.3437 H   0  0  0  0  0  0  0  0  0  0  0  0
  142.6920   81.7921  222.3649 H   0  0  0  0  0  0  0  0  0  0  0  0
  141.3596   82.1920  223.5110 H   0  0  0  0  0  0  0  0  0  0  0  0
  143.3026   80.1522  223.6889 H   0  0  0  0  0  0  0  0  0  0  0  0
  141.8635   80.5192  224.7745 H   0  0  0  0  0  0  0  0  0  0  0  0
  142.1864   78.1540  223.8838 H   0  0  0  0  0  0  0  0  0  0  0  0
  140.5551   78.9819  223.8092 H   0  0  0  0  0  0  0  0  0  0  0  0
  142.7934   77.7008  219.9430 H   0  0  0  0  0  0  0  0  0  0  0  0
  142.8093   75.3830  219.0898 H   0  0  0  0  0  0  0  0  0  0  0  0
  1  2  2  0
  2  3  1  0
  3  4  1  0
  4  5  1  0
  5  6  2  0
  6  7  1  0
  7  8  2  0
  8  9  1  0
  9 10  1  0
 10 11  2  0
 10 12  1  0
 12 13  1  0
 13 14  1  0
 14 15  1  0
 15 16  1  0
 16 17  1  0
  9 18  2  0
  4 19  2  0
 19 20  1  0
 20 21  2  0
 21 22  1  0
 22 23  1  0
 23 24  1  0
 24 25  1  0
 25 26  1  0
 26 27  1  0
 27 28  1  0
 22 29  2  0
 29 30  1  0
 30 31  2  0
 31  2  1  0
 18  5  1  0
 31 20  1  0
 17 12  1  0
 28 23  1  0
  3 32  1  0
  3 33  1  0
  6 34  1  0
  7 35  1  0
  8 36  1  0
 13 37  1  0
 13 38  1  0
 14 39  1  0
 14 40  1  0
 16 41  1  0
 16 42  1  0
 17 43  1  0
 17 44  1  0
 18 45  1  0
 21 46  1  0
 24 47  1  0
 24 48  1  0
 25 49  1  0
 25 50  1  0
 26 51  1  0
 26 52  1  0
 27 53  1  0
 27 54  1  0
 28 55  1  0
 28 56  1  0
 29 57  1  0
 30 58  1  0
M  END
>  <smiles>  (48) 
O=C1CC(c2cccc(C(=O)N3CCOCC3)c2)=Nc2cc(N3CCCCC3)ccc21

>  <score_type>  (48) 
oracle

>  <origin>  (48) 
autodockgpu

>  <m_score__min__energy>  (48) 
-9.7400000000000002

>  <m_primary>  (48) 
energy

>  <rmsd>  (48) 
6.8091954366039555

>  <m_score__min__rmsd>  (48) 
6.8091954366039555

>  <meeko>  (48) 
{"free_energy": -9.74, "intermolecular_energy": -10.64, "internal_energy": -0.97, "cluster_size": 48, "cluster_id": 1, "rank_in_cluster": 5}

>  <energy>  (48) 
-9.48

>  <cluster_rmsd>  (48) 
0.6

>  <cluster>  (48) 
1

$$$$

     RDKit          3D

 58 62  0  0  0  0  0  0  0  0999 V2000
  142.0820   73.0440  219.1360 O   0  0  0  0  0  0  0  0  0  0  0  0
  141.3950   73.3220  220.1550 C   0  0  0  0  0  0  0  0  0  0  0  0
  140.6150   72.2390  220.7910 C   0  0  0  0  0  0  0  0  0  0  0  0
  139.8930   72.7980  221.9540 C   0  0  0  0  0  0  0  0  0  0  0  0
  139.0300   71.8890  222.7400 C   0  0  0  0  0  0  0  0  0  0  0  0
  137.6580   72.0820  222.7430 C   0  0  0  0  0  0  0  0  0  0  0  0
  136.8510   71.2380  223.4760 C   0  0  0  0  0  0  0  0  0  0  0  0
  137.3790   70.2090  224.2050 C   0  0  0  0  0  0  0  0  0  0  0  0
  138.7550   69.9870  224.2230 C   0  0  0  0  0  0  0  0  0  0  0  0
  139.3430   68.9140  224.9890 C   0  0  0  0  0  0  0  0  0  0  0  0
  139.2090   67.7020  224.6620 O   0  0  0  0  0  0  0  0  0  0  0  0
  140.1010   69.2900  226.1560 N   0  0  0  0  0  0  0  0  0  0  0  0
  140.2560   70.6990  226.5340 C   0  0  0  0  0  0  0  0  0  0  0  0
  140.7590   70.7250  227.9520 C   0  0  0  0  0  0  0  0  0  0  0  0
  140.0810   69.7240  228.6570 O   0  0  0  0  0  0  0  0  0  0  0  0
  140.7370   68.5420  228.4240 C   0  0  0  0  0  0  0  0  0  0  0  0
  140.7150   68.2360  226.9600 C   0  0  0  0  0  0  0  0  0  0  0  0
  139.5350   70.8560  223.4720 C   0  0  0  0  0  0  0  0  0  0  0  0
  139.9360   74.0130  222.3480 N   0  0  0  0  0  0  0  0  0  0  0  0
  140.6840   75.0590  221.7470 C   0  0  0  0  0  0  0  0  0  0  0  0
  140.7040   76.3520  222.2000 C   0  0  0  0  0  0  0  0  0  0  0  0
  141.4530   77.3180  221.5620 C   0  0  0  0  0  0  0  0  0  0  0  0
  141.5020   78.6770  222.0120 N   0  0  0  0  0  0  0  0  0  0  0  0
  141.4860   79.8000  221.0970 C   0  0  0  0  0  0  0  0  0  0  0  0
  140.8100   80.9350  221.8780 C   0  0  0  0  0  0  0  0  0  0  0  0
  141.8300   81.3830  222.9130 C   0  0  0  0  0  0  0  0  0  0  0  0
  142.2170   80.2390  223.7860 C   0  0  0  0  0  0  0  0  0  0  0  0
  141.5830   78.9320  223.4370 C   0  0  0  0  0  0  0  0  0  0  0  0
  142.1780   76.9320  220.4560 C   0  0  0  0  0  0  0  0  0  0  0  0
  142.1900   75.6430  219.9620 C   0  0  0  0  0  0  0  0  0  0  0  0
  141.4310   74.6950  220.6200 C   0  0  0  0  0  0  0  0  0  0  0  0
  139.8935   71.8288  220.0691 H   0  0  0  0  0  0  0  0  0  0  0  0
  141.2885   71.4333  221.1186 H   0  0  0  0  0  0  0  0  0  0  0  0
  137.2146   72.9049  222.1632 H   0  0  0  0  0  0  0  0  0  0  0  0
  135.7623   71.3954  223.4742 H   0  0  0  0  0  0  0  0  0  0  0  0
  136.7126   69.5510  224.7820 H   0  0  0  0  0  0  0  0  0  0  0  0
  140.9802   71.1907  225.8679 H   0  0  0  0  0  0  0  0  0  0  0  0
  139.2989   71.2344  226.4487 H   0  0  0  0  0  0  0  0  0  0  0  0
  141.8414   70.5299  227.9702 H   0  0  0  0  0  0  0  0  0  0  0  0
  140.5801   71.7096  228.4087 H   0  0  0  0  0  0  0  0  0  0  0  0
  141.7795   68.6286  228.7642 H   0  0  0  0  0  0  0  0  0  0  0  0
  140.2362   67.7317  228.9741 H   0  0  0  0  0  0  0  0  0  0  0  0
  141.7508   68.0950  226.6177 H   0  0  0  0  0  0  0  0  0  0  0  0
  140.1060   67.3297  226.8269 H   0  0  0  0  0  0  0  0  0  0  0  0
  140.6241   70.7019  223.4674 H   0  0  0  0  0  0  0  0  0  0  0  0
  140.1129   76.6238  223.0870 H   0  0  0  0  0  0  0  0  0  0  0  0
  142.5104   80.0823  220.8126 H   0  0  0  0  0  0  0  0  0  0  0  0
  140.9545   79.5659  220.1628 H   0  0  0  0  0  0  0  0  0  0  0  0
  140.5560   81.7666  221.2042 H   0  0  0  0  0  0  0  0  0  0  0  0
  139.8721   80.6037  222.3476 H   0  0  0  0  0  0  0  0  0  0  0  0
  142.7240   81.7662  222.3993 H   0  0  0  0  0  0  0  0  0  0  0  0
  141.3852   82.1736  223.5351 H   0  0  0  0  0  0  0  0  0  0  0  0
  143.3083   80.1160  223.7226 H   0  0  0  0  0  0  0  0  0  0  0  0
  141.8623   80.4912  224.7962 H   0  0  0  0  0  0  0  0  0  0  0  0
  142.1732   78.1270  223.8993 H   0  0  0  0  0  0  0  0  0  0  0  0
  140.5498   78.9695  223.8125 H   0  0  0  0  0  0  0  0  0  0  0  0
  142.7805   77.6927  219.9380 H   0  0  0  0  0  0  0  0  0  0  0  0
  142.7840   75.3798  219.0744 H   0  0  0  0  0  0  0  0  0  0  0  0
  1  2  2  0
  2  3  1  0
  3  4  1  0
  4  5  1  0
  5  6  2  0
  6  7  1  0
  7  8  2  0
  8  9  1  0
  9 10  1  0
 10 11  2  0
 10 12  1  0
 12 13  1  0
 13 14  1  0
 14 15  1  0
 15 16  1  0
 16 17  1  0
  9 18  2  0
  4 19  2  0
 19 20  1  0
 20 21  2  0
 21 22  1  0
 22 23  1  0
 23 24  1  0
 24 25  1  0
 25 26  1  0
 26 27  1  0
 27 28  1  0
 22 29  2  0
 29 30  1  0
 30 31  2  0
 31  2  1  0
 18  5  1  0
 31 20  1  0
 17 12  1  0
 28 23  1  0
  3 32  1  0
  3 33  1  0
  6 34  1  0
  7 35  1  0
  8 36  1  0
 13 37  1  0
 13 38  1  0
 14 39  1  0
 14 40  1  0
 16 41  1  0
 16 42  1  0
 17 43  1  0
 17 44  1  0
 18 45  1  0
 21 46  1  0
 24 47  1  0
 24 48  1  0
 25 49  1  0
 25 50  1  0
 26 51  1  0
 26 52  1  0
 27 53  1  0
 27 54  1  0
 28 55  1  0
 28 56  1  0
 29 57  1  0
 30 58  1  0
M  END
>  <smiles>  (49) 
O=C1CC(c2cccc(C(=O)N3CCOCC3)c2)=Nc2cc(N3CCCCC3)ccc21

>  <score_type>  (49) 
oracle

>  <origin>  (49) 
autodockgpu

>  <m_score__min__energy>  (49) 
-9.7400000000000002

>  <m_primary>  (49) 
energy

>  <rmsd>  (49) 
6.811868071816258

>  <m_score__min__rmsd>  (49) 
6.811868071816258

>  <meeko>  (49) 
{"free_energy": -9.73, "intermolecular_energy": -10.62, "internal_energy": -0.97, "cluster_size": 48, "cluster_id": 1, "rank_in_cluster": 27}

>  <energy>  (49) 
-9.38

>  <cluster_rmsd>  (49) 
0.0

>  <cluster>  (49) 
2

$$$$

     RDKit          3D

 58 62  0  0  0  0  0  0  0  0999 V2000
  142.1280   73.0260  219.1550 O   0  0  0  0  0  0  0  0  0  0  0  0
  141.4280   73.3090  220.1640 C   0  0  0  0  0  0  0  0  0  0  0  0
  140.6480   72.2280  220.8030 C   0  0  0  0  0  0  0  0  0  0  0  0
  139.9100   72.7950  221.9510 C   0  0  0  0  0  0  0  0  0  0  0  0
  139.0440   71.8880  222.7370 C   0  0  0  0  0  0  0  0  0  0  0  0
  137.6730   72.0880  222.7420 C   0  0  0  0  0  0  0  0  0  0  0  0
  136.8630   71.2460  223.4750 C   0  0  0  0  0  0  0  0  0  0  0  0
  137.3870   70.2140  224.2020 C   0  0  0  0  0  0  0  0  0  0  0  0
  138.7620   69.9860  224.2180 C   0  0  0  0  0  0  0  0  0  0  0  0
  139.3470   68.9100  224.9820 C   0  0  0  0  0  0  0  0  0  0  0  0
  139.2070   67.6980  224.6540 O   0  0  0  0  0  0  0  0  0  0  0  0
  140.1080   69.2810  226.1490 N   0  0  0  0  0  0  0  0  0  0  0  0
  140.2690   70.6890  226.5280 C   0  0  0  0  0  0  0  0  0  0  0  0
  140.7740   70.7120  227.9460 C   0  0  0  0  0  0  0  0  0  0  0  0
  140.0920   69.7120  228.6500 O   0  0  0  0  0  0  0  0  0  0  0  0
  140.7430   68.5280  228.4160 C   0  0  0  0  0  0  0  0  0  0  0  0
  140.7180   68.2230  226.9510 C   0  0  0  0  0  0  0  0  0  0  0  0
  139.5450   70.8530  223.4670 C   0  0  0  0  0  0  0  0  0  0  0  0
  139.9410   74.0140  222.3340 N   0  0  0  0  0  0  0  0  0  0  0  0
  140.6890   75.0590  221.7300 C   0  0  0  0  0  0  0  0  0  0  0  0
  140.6950   76.3570  222.1700 C   0  0  0  0  0  0  0  0  0  0  0  0
  141.4460   77.3200  221.5300 C   0  0  0  0  0  0  0  0  0  0  0  0
  141.4820   78.6850  221.9660 N   0  0  0  0  0  0  0  0  0  0  0  0
  141.4230   79.7980  221.0420 C   0  0  0  0  0  0  0  0  0  0  0  0
  140.7460   80.9280  221.8290 C   0  0  0  0  0  0  0  0  0  0  0  0
  141.7820   81.4040  222.8350 C   0  0  0  0  0  0  0  0  0  0  0  0
  142.2120   80.2750  223.7080 C   0  0  0  0  0  0  0  0  0  0  0  0
  141.5920   78.9540  223.3870 C   0  0  0  0  0  0  0  0  0  0  0  0
  142.1850   76.9280  220.4360 C   0  0  0  0  0  0  0  0  0  0  0  0
  142.2110   75.6340  219.9550 C   0  0  0  0  0  0  0  0  0  0  0  0
  141.4510   74.6880  220.6140 C   0  0  0  0  0  0  0  0  0  0  0  0
  139.9372   71.8053  220.0777 H   0  0  0  0  0  0  0  0  0  0  0  0
  141.3227   71.4302  221.1468 H   0  0  0  0  0  0  0  0  0  0  0  0
  137.2328   72.9141  222.1643 H   0  0  0  0  0  0  0  0  0  0  0  0
  135.7750   71.4081  223.4745 H   0  0  0  0  0  0  0  0  0  0  0  0
  136.7184   69.5582  224.7790 H   0  0  0  0  0  0  0  0  0  0  0  0
  140.9943   71.1784  225.8614 H   0  0  0  0  0  0  0  0  0  0  0  0
  139.3138   71.2282  226.4443 H   0  0  0  0  0  0  0  0  0  0  0  0
  141.8557   70.5127  227.9631 H   0  0  0  0  0  0  0  0  0  0  0  0
  140.6001   71.6968  228.4042 H   0  0  0  0  0  0  0  0  0  0  0  0
  141.7862   68.6104  228.7551 H   0  0  0  0  0  0  0  0  0  0  0  0
  140.2400   67.7193  228.9664 H   0  0  0  0  0  0  0  0  0  0  0  0
  141.7527   68.0774  226.6073 H   0  0  0  0  0  0  0  0  0  0  0  0
  140.1049   67.3195  226.8175 H   0  0  0  0  0  0  0  0  0  0  0  0
  140.6335   70.6945  223.4614 H   0  0  0  0  0  0  0  0  0  0  0  0
  140.0916   76.6346  223.0469 H   0  0  0  0  0  0  0  0  0  0  0  0
  142.4348   80.0959  220.7297 H   0  0  0  0  0  0  0  0  0  0  0  0
  140.8729   79.5454  220.1235 H   0  0  0  0  0  0  0  0  0  0  0  0
  140.4609   81.7485  221.1541 H   0  0  0  0  0  0  0  0  0  0  0  0
  139.8259   80.5843  222.3243 H   0  0  0  0  0  0  0  0  0  0  0  0
  142.6558   81.7995  222.2965 H   0  0  0  0  0  0  0  0  0  0  0  0
  141.3373   82.1914  223.4613 H   0  0  0  0  0  0  0  0  0  0  0  0
  143.3032   80.1704  223.6170 H   0  0  0  0  0  0  0  0  0  0  0  0
  141.8797   80.5304  224.7250 H   0  0  0  0  0  0  0  0  0  0  0  0
  142.2065   78.1634  223.8424 H   0  0  0  0  0  0  0  0  0  0  0  0
  140.5677   78.9769  223.7873 H   0  0  0  0  0  0  0  0  0  0  0  0
  142.7878   77.6877  219.9168 H   0  0  0  0  0  0  0  0  0  0  0  0
  142.8165   75.3658  219.0767 H   0  0  0  0  0  0  0  0  0  0  0  0
  1  2  2  0
  2  3  1  0
  3  4  1  0
  4  5  1  0
  5  6  2  0
  6  7  1  0
  7  8  2  0
  8  9  1  0
  9 10  1  0
 10 11  2  0
 10 12  1  0
 12 13  1  0
 13 14  1  0
 14 15  1  0
 15 16  1  0
 16 17  1  0
  9 18  2  0
  4 19  2  0
 19 20  1  0
 20 21  2  0
 21 22  1  0
 22 23  1  0
 23 24  1  0
 24 25  1  0
 25 26  1  0
 26 27  1  0
 27 28  1  0
 22 29  2  0
 29 30  1  0
 30 31  2  0
 31  2  1  0
 18  5  1  0
 31 20  1  0
 17 12  1  0
 28 23  1  0
  3 32  1  0
  3 33  1  0
  6 34  1  0
  7 35  1  0
  8 36  1  0
 13 37  1  0
 13 38  1  0
 14 39  1  0
 14 40  1  0
 16 41  1  0
 16 42  1  0
 17 43  1  0
 17 44  1  0
 18 45  1  0
 21 46  1  0
 24 47  1  0
 24 48  1  0
 25 49  1  0
 25 50  1  0
 26 51  1  0
 26 52  1  0
 27 53  1  0
 27 54  1  0
 28 55  1  0
 28 56  1  0
 29 57  1  0
 30 58  1  0
M  END
>  <smiles>  (50) 
O=C1CC(c2cccc(C(=O)N3CCOCC3)c2)=Nc2cc(N3CCCCC3)ccc21

>  <score_type>  (50) 
oracle

>  <origin>  (50) 
autodockgpu

>  <m_score__min__energy>  (50) 
-9.7400000000000002

>  <m_primary>  (50) 
energy

>  <rmsd>  (50) 
6.803318067177948

>  <m_score__min__rmsd>  (50) 
6.803318067177948

>  <meeko>  (50) 
{"free_energy": -9.73, "intermolecular_energy": -10.63, "internal_energy": -0.97, "cluster_size": 48, "cluster_id": 1, "rank_in_cluster": 23}

>  <energy>  (50) 
-9.31

>  <cluster_rmsd>  (50) 
0.11

>  <cluster>  (50) 
2

$$$$
