
     RDKit          3D

 58 61  0  0  0  0  0  0  0  0999 V2000
  138.9770   75.1460  222.1300 O   0  0  0  0  0  0  0  0  0  0  0  0
  140.0780   75.7400  222.0420 C   0  0  0  0  0  0  0  0  0  0  0  0
  141.1870   75.0070  221.5210 N   0  0  0  0  0  0  0  0  0  0  0  0
  141.1560   73.6720  221.0960 C   0  0  0  0  0  0  0  0  0  0  0  0
  142.3570   72.9200  220.7590 C   0  0  0  0  0  0  0  0  0  0  0  0
  142.3620   71.7260  221.3190 O   0  0  0  0  0  0  0  0  0  0  0  0
  143.4760   73.1930  219.9850 N   0  0  0  0  0  0  0  0  0  0  0  0
  143.8500   72.7180  218.6890 C   0  0  0  0  0  0  0  0  0  0  0  0
  145.0410   71.7420  218.9110 C   0  0  0  0  0  0  0  0  0  0  0  0
  145.8110   72.2100  220.1070 C   0  0  0  0  0  0  0  0  0  0  0  0
  145.7720   73.7350  220.0510 C   0  0  0  0  0  0  0  0  0  0  0  0
  144.4430   74.1780  220.5840 C   0  0  1  0  0  0  0  0  0  0  0  0
  144.1270   75.5520  220.0640 C   0  0  0  0  0  0  0  0  0  0  0  0
  142.9060   75.8340  219.7110 O   0  0  0  0  0  0  0  0  0  0  0  0
  142.3420   76.5110  218.7430 C   0  0  0  0  0  0  0  0  0  0  0  0
  141.5270   77.7010  219.0610 C   0  0  0  0  0  0  0  0  0  0  0  0
  140.1640   77.7490  219.1340 C   0  0  0  0  0  0  0  0  0  0  0  0
  139.4680   78.9070  219.4610 C   0  0  0  0  0  0  0  0  0  0  0  0
  140.1420   80.0610  219.7250 C   0  0  0  0  0  0  0  0  0  0  0  0
  141.5090   80.0540  219.6620 C   0  0  0  0  0  0  0  0  0  0  0  0
  142.1990   78.9000  219.3370 C   0  0  0  0  0  0  0  0  0  0  0  0
  140.2240   77.1450  222.4600 C   0  0  0  0  0  0  0  0  0  0  0  0
  139.0960   77.8690  222.7170 C   0  0  0  0  0  0  0  0  0  0  0  0
  139.2670   79.1970  223.1110 C   0  0  0  0  0  0  0  0  0  0  0  0
  140.5350   79.7380  223.2300 C   0  0  0  0  0  0  0  0  0  0  0  0
  140.7020   81.0660  223.6250 C   0  0  0  0  0  0  0  0  0  0  0  0
  141.9890   81.5680  223.7320 C   0  0  0  0  0  0  0  0  0  0  0  0
  143.0750   80.7600  223.4510 C   0  0  0  0  0  0  0  0  0  0  0  0
  142.9260   79.4360  223.0570 C   0  0  0  0  0  0  0  0  0  0  0  0
  141.6280   78.9480  222.9540 C   0  0  0  0  0  0  0  0  0  0  0  0
  141.4320   77.6740  222.5780 N   0  0  0  0  0  0  0  0  0  0  0  0
  142.0930   75.5690  221.4730 H   0  0  0  0  0  0  0  0  0  0  0  0
  140.6614   73.1088  221.9011 H   0  0  0  0  0  0  0  0  0  0  0  0
  140.6706   73.7645  220.1132 H   0  0  0  0  0  0  0  0  0  0  0  0
  143.0073   72.1903  218.2185 H   0  0  0  0  0  0  0  0  0  0  0  0
  144.1307   73.5478  218.0237 H   0  0  0  0  0  0  0  0  0  0  0  0
  144.6613   70.7247  219.0870 H   0  0  0  0  0  0  0  0  0  0  0  0
  145.6901   71.7256  218.0231 H   0  0  0  0  0  0  0  0  0  0  0  0
  145.3397   71.8478  221.0326 H   0  0  0  0  0  0  0  0  0  0  0  0
  146.8430   71.8293  220.1005 H   0  0  0  0  0  0  0  0  0  0  0  0
  146.5811   74.1531  220.6679 H   0  0  0  0  0  0  0  0  0  0  0  0
  145.9082   74.0856  219.0173 H   0  0  0  0  0  0  0  0  0  0  0  0
  144.4093   74.2138  221.6829 H   0  0  0  0  0  0  0  0  0  0  0  0
  144.4060   76.2658  220.8530 H   0  0  0  0  0  0  0  0  0  0  0  0
  144.6909   75.6101  219.1213 H   0  0  0  0  0  0  0  0  0  0  0  0
  143.1495   76.8464  218.0756 H   0  0  0  0  0  0  0  0  0  0  0  0
  141.6101   75.8027  218.3275 H   0  0  0  0  0  0  0  0  0  0  0  0
  139.5928   76.8324  218.9252 H   0  0  0  0  0  0  0  0  0  0  0  0
  138.3691   78.8914  219.5067 H   0  0  0  0  0  0  0  0  0  0  0  0
  139.5977   80.9811  219.9840 H   0  0  0  0  0  0  0  0  0  0  0  0
  142.0666   80.9785  219.8726 H   0  0  0  0  0  0  0  0  0  0  0  0
  143.2979   78.9236  219.2942 H   0  0  0  0  0  0  0  0  0  0  0  0
  138.0946   77.4248  222.6178 H   0  0  0  0  0  0  0  0  0  0  0  0
  138.3862   79.8189  223.3288 H   0  0  0  0  0  0  0  0  0  0  0  0
  139.8310   81.7003  223.8465 H   0  0  0  0  0  0  0  0  0  0  0  0
  142.1470   82.6118  224.0412 H   0  0  0  0  0  0  0  0  0  0  0  0
  144.0883   81.1782  223.5422 H   0  0  0  0  0  0  0  0  0  0  0  0
  143.7969   78.8014  222.8362 H   0  0  0  0  0  0  0  0  0  0  0  0
  1  2  2  0
  2  3  1  0
  3  4  1  0
  4  5  1  0
  5  6  2  0
  5  7  1  0
  7  8  1  0
  8  9  1  0
  9 10  1  0
 10 11  1  0
 11 12  1  0
 12 13  1  0
 13 14  1  0
 14 15  1  0
 15 16  1  0
 16 17  2  0
 17 18  1  0
 18 19  2  0
 19 20  1  0
 20 21  2  0
  2 22  1  0
 22 23  2  0
 23 24  1  0
 24 25  2  0
 25 26  1  0
 26 27  2  0
 27 28  1  0
 28 29  2  0
 29 30  1  0
 30 31  2  0
 12  7  1  0
 21 16  1  0
 31 22  1  0
 30 25  1  0
  3 32  1  0
  4 33  1  0
  4 34  1  0
  8 35  1  0
  8 36  1  0
  9 37  1  0
  9 38  1  0
 10 39  1  0
 10 40  1  0
 11 41  1  0
 11 42  1  0
 12 43  1  1
 13 44  1  0
 13 45  1  0
 15 46  1  0
 15 47  1  0
 17 48  1  0
 18 49  1  0
 19 50  1  0
 20 51  1  0
 21 52  1  0
 23 53  1  0
 24 54  1  0
 26 55  1  0
 27 56  1  0
 28 57  1  0
 29 58  1  0
M  END
>  <smiles>  (1) 
O=C(NCC(=O)N1CCCC[C@H]1COCc1ccccc1)c1ccc2ccccc2n1

>  <score_type>  (1) 
oracle

>  <origin>  (1) 
autodockgpu

>  <m_score__min__energy>  (1) 
-9.1799999999999997

>  <m_primary>  (1) 
energy

>  <rmsd>  (1) 
7.6495943738615075

>  <m_score__min__rmsd>  (1) 
7.6495943738615075

>  <meeko>  (1) 
{"free_energy": -6.64, "intermolecular_energy": -9.02, "internal_energy": -4.2, "cluster_size": 11, "cluster_id": 5, "rank_in_cluster": 9}

>  <energy>  (1) 
-9.18

>  <cluster_rmsd>  (1) 
0.0

>  <cluster>  (1) 
1

$$$$

     RDKit          3D

 58 61  0  0  0  0  0  0  0  0999 V2000
  138.9800   75.0620  221.9570 O   0  0  0  0  0  0  0  0  0  0  0  0
  140.0950   75.6380  221.9660 C   0  0  0  0  0  0  0  0  0  0  0  0
  141.2380   74.8780  221.5710 N   0  0  0  0  0  0  0  0  0  0  0  0
  141.2260   73.5350  221.1710 C   0  0  0  0  0  0  0  0  0  0  0  0
  142.1600   72.9930  220.1940 C   0  0  0  0  0  0  0  0  0  0  0  0
  141.6780   71.9190  219.5980 O   0  0  0  0  0  0  0  0  0  0  0  0
  143.4270   73.3630  219.7670 N   0  0  0  0  0  0  0  0  0  0  0  0
  144.2310   72.8640  218.6950 C   0  0  0  0  0  0  0  0  0  0  0  0
  145.3930   72.0680  219.3570 C   0  0  0  0  0  0  0  0  0  0  0  0
  145.7010   72.7060  220.6770 C   0  0  0  0  0  0  0  0  0  0  0  0
  145.5190   74.2050  220.4630 C   0  0  0  0  0  0  0  0  0  0  0  0
  144.0510   74.5010  220.5280 C   0  0  1  0  0  0  0  0  0  0  0  0
  143.7660   75.7870  219.8060 C   0  0  0  0  0  0  0  0  0  0  0  0
  142.5310   76.1450  219.6050 O   0  0  0  0  0  0  0  0  0  0  0  0
  141.8920   76.8500  218.7060 C   0  0  0  0  0  0  0  0  0  0  0  0
  141.8040   78.3170  218.8520 C   0  0  0  0  0  0  0  0  0  0  0  0
  140.9540   78.9960  219.6780 C   0  0  0  0  0  0  0  0  0  0  0  0
  140.9470   80.3830  219.7750 C   0  0  0  0  0  0  0  0  0  0  0  0
  141.8100   81.1270  219.0280 C   0  0  0  0  0  0  0  0  0  0  0  0
  142.6780   80.4830  218.1880 C   0  0  0  0  0  0  0  0  0  0  0  0
  142.6830   79.1040  218.0940 C   0  0  0  0  0  0  0  0  0  0  0  0
  140.2220   77.0480  222.3700 C   0  0  0  0  0  0  0  0  0  0  0  0
  139.0840   77.7640  222.6080 C   0  0  0  0  0  0  0  0  0  0  0  0
  139.2380   79.0980  222.9880 C   0  0  0  0  0  0  0  0  0  0  0  0
  140.4980   79.6530  223.1140 C   0  0  0  0  0  0  0  0  0  0  0  0
  140.6480   80.9870  223.4960 C   0  0  0  0  0  0  0  0  0  0  0  0
  141.9290   81.5040  223.6100 C   0  0  0  0  0  0  0  0  0  0  0  0
  143.0250   80.7040  223.3500 C   0  0  0  0  0  0  0  0  0  0  0  0
  142.8950   79.3740  222.9700 C   0  0  0  0  0  0  0  0  0  0  0  0
  141.6030   78.8710  222.8580 C   0  0  0  0  0  0  0  0  0  0  0  0
  141.4240   77.5920  222.4950 N   0  0  0  0  0  0  0  0  0  0  0  0
  142.1530   75.4260  221.6010 H   0  0  0  0  0  0  0  0  0  0  0  0
  141.3683   72.9438  222.0877 H   0  0  0  0  0  0  0  0  0  0  0  0
  140.2737   73.4754  220.6237 H   0  0  0  0  0  0  0  0  0  0  0  0
  143.6359   72.2026  218.0481 H   0  0  0  0  0  0  0  0  0  0  0  0
  144.6129   73.6819  218.0664 H   0  0  0  0  0  0  0  0  0  0  0  0
  145.0887   71.0221  219.5103 H   0  0  0  0  0  0  0  0  0  0  0  0
  146.2823   72.0826  218.7098 H   0  0  0  0  0  0  0  0  0  0  0  0
  145.0082   72.3420  221.4499 H   0  0  0  0  0  0  0  0  0  0  0  0
  146.7190   72.4650  221.0169 H   0  0  0  0  0  0  0  0  0  0  0  0
  146.0485   74.7625  221.2496 H   0  0  0  0  0  0  0  0  0  0  0  0
  145.9296   74.5071  219.4883 H   0  0  0  0  0  0  0  0  0  0  0  0
  143.6762   74.5987  221.5576 H   0  0  0  0  0  0  0  0  0  0  0  0
  144.2433   76.5920  220.3841 H   0  0  0  0  0  0  0  0  0  0  0  0
  144.1532   75.6076  218.7922 H   0  0  0  0  0  0  0  0  0  0  0  0
  142.3816   76.6546  217.7406 H   0  0  0  0  0  0  0  0  0  0  0  0
  140.8487   76.5191  218.8159 H   0  0  0  0  0  0  0  0  0  0  0  0
  140.2452   78.4213  220.2923 H   0  0  0  0  0  0  0  0  0  0  0  0
  140.2424   80.8813  220.4571 H   0  0  0  0  0  0  0  0  0  0  0  0
  141.8092   82.2247  219.0986 H   0  0  0  0  0  0  0  0  0  0  0  0
  143.3810   81.0709  217.5796 H   0  0  0  0  0  0  0  0  0  0  0  0
  143.3914   78.6135  217.4102 H   0  0  0  0  0  0  0  0  0  0  0  0
  138.0880   77.3087  222.5046 H   0  0  0  0  0  0  0  0  0  0  0  0
  138.3488   79.7135  223.1891 H   0  0  0  0  0  0  0  0  0  0  0  0
  139.7685   81.6146  223.7022 H   0  0  0  0  0  0  0  0  0  0  0  0
  142.0732   82.5530  223.9080 H   0  0  0  0  0  0  0  0  0  0  0  0
  144.0329   81.1339  223.4470 H   0  0  0  0  0  0  0  0  0  0  0  0
  143.7751   78.7463  222.7666 H   0  0  0  0  0  0  0  0  0  0  0  0
  1  2  2  0
  2  3  1  0
  3  4  1  0
  4  5  1  0
  5  6  2  0
  5  7  1  0
  7  8  1  0
  8  9  1  0
  9 10  1  0
 10 11  1  0
 11 12  1  0
 12 13  1  0
 13 14  1  0
 14 15  1  0
 15 16  1  0
 16 17  2  0
 17 18  1  0
 18 19  2  0
 19 20  1  0
 20 21  2  0
  2 22  1  0
 22 23  2  0
 23 24  1  0
 24 25  2  0
 25 26  1  0
 26 27  2  0
 27 28  1  0
 28 29  2  0
 29 30  1  0
 30 31  2  0
 12  7  1  0
 21 16  1  0
 31 22  1  0
 30 25  1  0
  3 32  1  0
  4 33  1  0
  4 34  1  0
  8 35  1  0
  8 36  1  0
  9 37  1  0
  9 38  1  0
 10 39  1  0
 10 40  1  0
 11 41  1  0
 11 42  1  0
 12 43  1  1
 13 44  1  0
 13 45  1  0
 15 46  1  0
 15 47  1  0
 17 48  1  0
 18 49  1  0
 19 50  1  0
 20 51  1  0
 21 52  1  0
 23 53  1  0
 24 54  1  0
 26 55  1  0
 27 56  1  0
 28 57  1  0
 29 58  1  0
M  END
>  <smiles>  (2) 
O=C(NCC(=O)N1CCCC[C@H]1COCc1ccccc1)c1ccc2ccccc2n1

>  <score_type>  (2) 
oracle

>  <origin>  (2) 
autodockgpu

>  <m_score__min__energy>  (2) 
-9.1799999999999997

>  <m_primary>  (2) 
energy

>  <rmsd>  (2) 
7.603700558822458

>  <m_score__min__rmsd>  (2) 
7.603700558822458

>  <meeko>  (2) 
{"free_energy": -7.32, "intermolecular_energy": -9.71, "internal_energy": -3.85, "cluster_size": 11, "cluster_id": 5, "rank_in_cluster": 2}

>  <energy>  (2) 
-9.1

>  <cluster_rmsd>  (2) 
1.03

>  <cluster>  (2) 
1

$$$$

     RDKit          3D

 58 61  0  0  0  0  0  0  0  0999 V2000
  139.4190   70.1560  221.7830 O   0  0  0  0  0  0  0  0  0  0  0  0
  139.2490   71.0460  222.6510 C   0  0  0  0  0  0  0  0  0  0  0  0
  138.5640   72.2350  222.2550 N   0  0  0  0  0  0  0  0  0  0  0  0
  138.0610   72.5000  220.9740 C   0  0  0  0  0  0  0  0  0  0  0  0
  138.3220   73.7430  220.2630 C   0  0  0  0  0  0  0  0  0  0  0  0
  137.6700   73.7990  219.1180 O   0  0  0  0  0  0  0  0  0  0  0  0
  139.0990   74.8610  220.5340 N   0  0  0  0  0  0  0  0  0  0  0  0
  139.6410   75.8530  219.6580 C   0  0  0  0  0  0  0  0  0  0  0  0
  141.1750   75.5990  219.6100 C   0  0  0  0  0  0  0  0  0  0  0  0
  141.5970   75.0410  220.9350 C   0  0  0  0  0  0  0  0  0  0  0  0
  140.7390   75.7560  221.9750 C   0  0  0  0  0  0  0  0  0  0  0  0
  139.3940   75.0960  221.9910 C   0  0  1  0  0  0  0  0  0  0  0  0
  138.3750   76.0480  222.5490 C   0  0  0  0  0  0  0  0  0  0  0  0
  138.7530   77.2310  222.9360 O   0  0  0  0  0  0  0  0  0  0  0  0
  138.9940   78.3780  222.3520 C   0  0  0  0  0  0  0  0  0  0  0  0
  140.2910   79.0510  222.5680 C   0  0  0  0  0  0  0  0  0  0  0  0
  140.9590   79.1530  223.7550 C   0  0  0  0  0  0  0  0  0  0  0  0
  142.1910   79.7870  223.8730 C   0  0  0  0  0  0  0  0  0  0  0  0
  142.7850   80.3410  222.7790 C   0  0  0  0  0  0  0  0  0  0  0  0
  142.1470   80.2590  221.5710 C   0  0  0  0  0  0  0  0  0  0  0  0
  140.9220   79.6280  221.4570 C   0  0  0  0  0  0  0  0  0  0  0  0
  139.7370   70.8720  224.0290 C   0  0  0  0  0  0  0  0  0  0  0  0
  140.4600   71.8800  224.5970 C   0  0  0  0  0  0  0  0  0  0  0  0
  140.9100   71.6840  225.9040 C   0  0  0  0  0  0  0  0  0  0  0  0
  140.6240   70.5100  226.5780 C   0  0  0  0  0  0  0  0  0  0  0  0
  141.0750   70.3180  227.8840 C   0  0  0  0  0  0  0  0  0  0  0  0
  140.7670   69.1280  228.5230 C   0  0  0  0  0  0  0  0  0  0  0  0
  140.0280   68.1600  227.8680 C   0  0  0  0  0  0  0  0  0  0  0  0
  139.5720   68.3350  226.5680 C   0  0  0  0  0  0  0  0  0  0  0  0
  139.8900   69.5350  225.9410 C   0  0  0  0  0  0  0  0  0  0  0  0
  139.4710   69.7520  224.6850 N   0  0  0  0  0  0  0  0  0  0  0  0
  138.4530   72.9510  223.0390 H   0  0  0  0  0  0  0  0  0  0  0  0
  138.4396   71.6951  220.3269 H   0  0  0  0  0  0  0  0  0  0  0  0
  136.9822   72.5818  221.1729 H   0  0  0  0  0  0  0  0  0  0  0  0
  139.2063   75.7523  218.6526 H   0  0  0  0  0  0  0  0  0  0  0  0
  139.4141   76.8688  220.0139 H   0  0  0  0  0  0  0  0  0  0  0  0
  141.4089   74.8798  218.8112 H   0  0  0  0  0  0  0  0  0  0  0  0
  141.7101   76.5378  219.4044 H   0  0  0  0  0  0  0  0  0  0  0  0
  141.4173   73.9563  220.9694 H   0  0  0  0  0  0  0  0  0  0  0  0
  142.6706   75.1957  221.1179 H   0  0  0  0  0  0  0  0  0  0  0  0
  141.2077   75.6745  222.9668 H   0  0  0  0  0  0  0  0  0  0  0  0
  140.6407   76.8226  221.7246 H   0  0  0  0  0  0  0  0  0  0  0  0
  139.3708   74.1787  222.5977 H   0  0  0  0  0  0  0  0  0  0  0  0
  137.6120   76.1939  221.7702 H   0  0  0  0  0  0  0  0  0  0  0  0
  138.0472   75.5621  223.4798 H   0  0  0  0  0  0  0  0  0  0  0  0
  138.8978   78.2110  221.2690 H   0  0  0  0  0  0  0  0  0  0  0  0
  138.2700   79.0610  222.8203 H   0  0  0  0  0  0  0  0  0  0  0  0
  140.5033   78.7153  224.6554 H   0  0  0  0  0  0  0  0  0  0  0  0
  142.6877   79.8415  224.8529 H   0  0  0  0  0  0  0  0  0  0  0  0
  143.7591   80.8447  222.8651 H   0  0  0  0  0  0  0  0  0  0  0  0
  142.6150   80.7009  220.6790 H   0  0  0  0  0  0  0  0  0  0  0  0
  140.4320   79.5776  220.4734 H   0  0  0  0  0  0  0  0  0  0  0  0
  140.6791   72.8079  224.0484 H   0  0  0  0  0  0  0  0  0  0  0  0
  141.4970   72.4697  226.4022 H   0  0  0  0  0  0  0  0  0  0  0  0
  141.6625   71.0947  228.3954 H   0  0  0  0  0  0  0  0  0  0  0  0
  141.1109   68.9529  229.5531 H   0  0  0  0  0  0  0  0  0  0  0  0
  139.7940   67.2221  228.3930 H   0  0  0  0  0  0  0  0  0  0  0  0
  138.9848   67.5582  226.0564 H   0  0  0  0  0  0  0  0  0  0  0  0
  1  2  2  0
  2  3  1  0
  3  4  1  0
  4  5  1  0
  5  6  2  0
  5  7  1  0
  7  8  1  0
  8  9  1  0
  9 10  1  0
 10 11  1  0
 11 12  1  0
 12 13  1  0
 13 14  1  0
 14 15  1  0
 15 16  1  0
 16 17  2  0
 17 18  1  0
 18 19  2  0
 19 20  1  0
 20 21  2  0
  2 22  1  0
 22 23  2  0
 23 24  1  0
 24 25  2  0
 25 26  1  0
 26 27  2  0
 27 28  1  0
 28 29  2  0
 29 30  1  0
 30 31  2  0
 12  7  1  0
 21 16  1  0
 31 22  1  0
 30 25  1  0
  3 32  1  0
  4 33  1  0
  4 34  1  0
  8 35  1  0
  8 36  1  0
  9 37  1  0
  9 38  1  0
 10 39  1  0
 10 40  1  0
 11 41  1  0
 11 42  1  0
 12 43  1  1
 13 44  1  0
 13 45  1  0
 15 46  1  0
 15 47  1  0
 17 48  1  0
 18 49  1  0
 19 50  1  0
 20 51  1  0
 21 52  1  0
 23 53  1  0
 24 54  1  0
 26 55  1  0
 27 56  1  0
 28 57  1  0
 29 58  1  0
M  END
>  <smiles>  (3) 
O=C(NCC(=O)N1CCCC[C@H]1COCc1ccccc1)c1ccc2ccccc2n1

>  <score_type>  (3) 
oracle

>  <origin>  (3) 
autodockgpu

>  <m_score__min__energy>  (3) 
-9.1799999999999997

>  <m_primary>  (3) 
energy

>  <rmsd>  (3) 
3.162989468588627

>  <m_score__min__rmsd>  (3) 
3.162989468588627

>  <meeko>  (3) 
{"free_energy": -8.06, "intermolecular_energy": -10.44, "internal_energy": -1.85, "cluster_size": 23, "cluster_id": 1, "rank_in_cluster": 21}

>  <energy>  (3) 
-9.06

>  <cluster_rmsd>  (3) 
0.58

>  <cluster>  (3) 
1

$$$$

     RDKit          3D

 58 61  0  0  0  0  0  0  0  0999 V2000
  139.8270   70.9640  221.2700 O   0  0  0  0  0  0  0  0  0  0  0  0
  139.8240   71.5730  222.3670 C   0  0  0  0  0  0  0  0  0  0  0  0
  139.7830   73.0000  222.3330 N   0  0  0  0  0  0  0  0  0  0  0  0
  139.7460   73.7880  221.1750 C   0  0  0  0  0  0  0  0  0  0  0  0
  140.0840   75.2040  221.1710 C   0  0  0  0  0  0  0  0  0  0  0  0
  140.1150   75.7060  222.3900 O   0  0  0  0  0  0  0  0  0  0  0  0
  140.3770   76.1190  220.1690 N   0  0  0  0  0  0  0  0  0  0  0  0
  140.5460   75.9350  218.7610 C   0  0  0  0  0  0  0  0  0  0  0  0
  142.0650   76.1160  218.4770 C   0  0  0  0  0  0  0  0  0  0  0  0
  142.6100   77.0980  219.4690 C   0  0  0  0  0  0  0  0  0  0  0  0
  141.5070   78.1310  219.6760 C   0  0  0  0  0  0  0  0  0  0  0  0
  140.5040   77.5470  220.6250 C   0  0  1  0  0  0  0  0  0  0  0  0
  139.1820   78.2370  220.4450 C   0  0  0  0  0  0  0  0  0  0  0  0
  138.6150   78.8030  221.4700 O   0  0  0  0  0  0  0  0  0  0  0  0
  138.9330   79.0110  222.7230 C   0  0  0  0  0  0  0  0  0  0  0  0
  140.2480   79.5930  223.0580 C   0  0  0  0  0  0  0  0  0  0  0  0
  141.3600   78.9030  223.4480 C   0  0  0  0  0  0  0  0  0  0  0  0
  142.5730   79.5240  223.7260 C   0  0  0  0  0  0  0  0  0  0  0  0
  142.6910   80.8770  223.6160 C   0  0  0  0  0  0  0  0  0  0  0  0
  141.5990   81.6040  223.2280 C   0  0  0  0  0  0  0  0  0  0  0  0
  140.3940   80.9830  222.9510 C   0  0  0  0  0  0  0  0  0  0  0  0
  139.8630   70.8420  223.6450 C   0  0  0  0  0  0  0  0  0  0  0  0
  139.3860   69.5640  223.6810 C   0  0  0  0  0  0  0  0  0  0  0  0
  139.4360   68.8990  224.9070 C   0  0  0  0  0  0  0  0  0  0  0  0
  139.9500   69.5260  226.0270 C   0  0  0  0  0  0  0  0  0  0  0  0
  139.9980   68.8580  227.2510 C   0  0  0  0  0  0  0  0  0  0  0  0
  140.5210   69.5230  228.3490 C   0  0  0  0  0  0  0  0  0  0  0  0
  140.9820   70.8200  228.2200 C   0  0  0  0  0  0  0  0  0  0  0  0
  140.9420   71.5000  227.0090 C   0  0  0  0  0  0  0  0  0  0  0  0
  140.4130   70.8190  225.9170 C   0  0  0  0  0  0  0  0  0  0  0  0
  140.3530   71.4320  224.7250 N   0  0  0  0  0  0  0  0  0  0  0  0
  139.7840   73.4550  223.2980 H   0  0  0  0  0  0  0  0  0  0  0  0
  140.4324   73.3101  220.4606 H   0  0  0  0  0  0  0  0  0  0  0  0
  138.6672   73.8176  220.9621 H   0  0  0  0  0  0  0  0  0  0  0  0
  140.2210   74.9261  218.4669 H   0  0  0  0  0  0  0  0  0  0  0  0
  139.9433   76.6551  218.1882 H   0  0  0  0  0  0  0  0  0  0  0  0
  142.5821   75.1511  218.5848 H   0  0  0  0  0  0  0  0  0  0  0  0
  142.2200   76.4838  217.4520 H   0  0  0  0  0  0  0  0  0  0  0  0
  142.8462   76.5938  220.4177 H   0  0  0  0  0  0  0  0  0  0  0  0
  143.5400   77.5634  219.1105 H   0  0  0  0  0  0  0  0  0  0  0  0
  141.9321   79.0522  220.1011 H   0  0  0  0  0  0  0  0  0  0  0  0
  141.0289   78.3798  218.7171 H   0  0  0  0  0  0  0  0  0  0  0  0
  140.7992   77.6472  221.6799 H   0  0  0  0  0  0  0  0  0  0  0  0
  139.3292   79.0201  219.6866 H   0  0  0  0  0  0  0  0  0  0  0  0
  138.4941   77.4189  220.1853 H   0  0  0  0  0  0  0  0  0  0  0  0
  138.1704   79.6867  223.1375 H   0  0  0  0  0  0  0  0  0  0  0  0
  138.9874   77.9965  223.1448 H   0  0  0  0  0  0  0  0  0  0  0  0
  141.2935   77.8094  223.5465 H   0  0  0  0  0  0  0  0  0  0  0  0
  143.4395   78.9212  224.0355 H   0  0  0  0  0  0  0  0  0  0  0  0
  143.6467   81.3755  223.8351 H   0  0  0  0  0  0  0  0  0  0  0  0
  141.6801   82.6971  223.1350 H   0  0  0  0  0  0  0  0  0  0  0  0
  139.5327   81.5927  222.6404 H   0  0  0  0  0  0  0  0  0  0  0  0
  138.9792   69.0784  222.7817 H   0  0  0  0  0  0  0  0  0  0  0  0
  139.0632   67.8669  224.9829 H   0  0  0  0  0  0  0  0  0  0  0  0
  139.6288   67.8259  227.3427 H   0  0  0  0  0  0  0  0  0  0  0  0
  140.5693   69.0178  229.3249 H   0  0  0  0  0  0  0  0  0  0  0  0
  141.3933   71.3296  229.1038 H   0  0  0  0  0  0  0  0  0  0  0  0
  141.3124   72.5317  226.9175 H   0  0  0  0  0  0  0  0  0  0  0  0
  1  2  2  0
  2  3  1  0
  3  4  1  0
  4  5  1  0
  5  6  2  0
  5  7  1  0
  7  8  1  0
  8  9  1  0
  9 10  1  0
 10 11  1  0
 11 12  1  0
 12 13  1  0
 13 14  1  0
 14 15  1  0
 15 16  1  0
 16 17  2  0
 17 18  1  0
 18 19  2  0
 19 20  1  0
 20 21  2  0
  2 22  1  0
 22 23  2  0
 23 24  1  0
 24 25  2  0
 25 26  1  0
 26 27  2  0
 27 28  1  0
 28 29  2  0
 29 30  1  0
 30 31  2  0
 12  7  1  0
 21 16  1  0
 31 22  1  0
 30 25  1  0
  3 32  1  0
  4 33  1  0
  4 34  1  0
  8 35  1  0
  8 36  1  0
  9 37  1  0
  9 38  1  0
 10 39  1  0
 10 40  1  0
 11 41  1  0
 11 42  1  0
 12 43  1  1
 13 44  1  0
 13 45  1  0
 15 46  1  0
 15 47  1  0
 17 48  1  0
 18 49  1  0
 19 50  1  0
 20 51  1  0
 21 52  1  0
 23 53  1  0
 24 54  1  0
 26 55  1  0
 27 56  1  0
 28 57  1  0
 29 58  1  0
M  END
>  <smiles>  (4) 
O=C(NCC(=O)N1CCCC[C@H]1COCc1ccccc1)c1ccc2ccccc2n1

>  <score_type>  (4) 
oracle

>  <origin>  (4) 
autodockgpu

>  <m_score__min__energy>  (4) 
-9.1799999999999997

>  <m_primary>  (4) 
energy

>  <rmsd>  (4) 
1.609662053972198

>  <m_score__min__rmsd>  (4) 
1.609662053972198

>  <meeko>  (4) 
{"free_energy": -8.58, "intermolecular_energy": -10.97, "internal_energy": -2.26, "cluster_size": 23, "cluster_id": 1, "rank_in_cluster": 12}

>  <energy>  (4) 
-9.05

>  <cluster_rmsd>  (4) 
0.95

>  <cluster>  (4) 
1

$$$$

     RDKit          3D

 58 61  0  0  0  0  0  0  0  0999 V2000
  139.6440   73.5630  222.6800 O   0  0  0  0  0  0  0  0  0  0  0  0
  140.3840   72.5510  222.7280 C   0  0  0  0  0  0  0  0  0  0  0  0
  141.3580   72.3920  221.6960 N   0  0  0  0  0  0  0  0  0  0  0  0
  141.5640   73.2710  220.6250 C   0  0  0  0  0  0  0  0  0  0  0  0
  142.0340   74.6370  220.8010 C   0  0  0  0  0  0  0  0  0  0  0  0
  143.3510   74.7100  220.7720 O   0  0  0  0  0  0  0  0  0  0  0  0
  141.3980   75.8560  220.9900 N   0  0  0  0  0  0  0  0  0  0  0  0
  141.0490   76.5480  222.1910 C   0  0  0  0  0  0  0  0  0  0  0  0
  139.5000   76.4560  222.3130 C   0  0  0  0  0  0  0  0  0  0  0  0
  138.9260   76.4210  220.9290 C   0  0  0  0  0  0  0  0  0  0  0  0
  139.8050   77.3500  220.0950 C   0  0  0  0  0  0  0  0  0  0  0  0
  141.0470   76.5950  219.7270 C   0  0  1  0  0  0  0  0  0  0  0  0
  142.1470   77.5670  219.4070 C   0  0  0  0  0  0  0  0  0  0  0  0
  141.8420   78.7820  219.0570 O   0  0  0  0  0  0  0  0  0  0  0  0
  141.8760   79.9600  219.6290 C   0  0  0  0  0  0  0  0  0  0  0  0
  141.5430   80.0880  221.0620 C   0  0  0  0  0  0  0  0  0  0  0  0
  140.3340   80.4570  221.5800 C   0  0  0  0  0  0  0  0  0  0  0  0
  140.0930   80.5350  222.9470 C   0  0  0  0  0  0  0  0  0  0  0  0
  141.0810   80.2360  223.8350 C   0  0  0  0  0  0  0  0  0  0  0  0
  142.3070   79.8610  223.3560 C   0  0  0  0  0  0  0  0  0  0  0  0
  142.5440   79.7850  221.9950 C   0  0  0  0  0  0  0  0  0  0  0  0
  140.2530   71.5610  223.8110 C   0  0  0  0  0  0  0  0  0  0  0  0
  139.6770   70.3570  223.5280 C   0  0  0  0  0  0  0  0  0  0  0  0
  139.5680   69.4410  224.5760 C   0  0  0  0  0  0  0  0  0  0  0  0
  140.0290   69.7600  225.8400 C   0  0  0  0  0  0  0  0  0  0  0  0
  139.9180   68.8410  226.8850 C   0  0  0  0  0  0  0  0  0  0  0  0
  140.3930   69.2010  228.1360 C   0  0  0  0  0  0  0  0  0  0  0  0
  140.9630   70.4450  228.3310 C   0  0  0  0  0  0  0  0  0  0  0  0
  141.0810   71.3710  227.3030 C   0  0  0  0  0  0  0  0  0  0  0  0
  140.5990   70.9950  226.0530 C   0  0  0  0  0  0  0  0  0  0  0  0
  140.6910   71.8550  225.0260 N   0  0  0  0  0  0  0  0  0  0  0  0
  141.9530   71.5110  221.7960 H   0  0  0  0  0  0  0  0  0  0  0  0
  142.2965   72.7807  219.9669 H   0  0  0  0  0  0  0  0  0  0  0  0
  140.5347   73.4356  220.2738 H   0  0  0  0  0  0  0  0  0  0  0  0
  141.5285   76.0711  223.0585 H   0  0  0  0  0  0  0  0  0  0  0  0
  141.3866   77.5945  222.1622 H   0  0  0  0  0  0  0  0  0  0  0  0
  139.2223   75.5401  222.8552 H   0  0  0  0  0  0  0  0  0  0  0  0
  139.1089   77.3225  222.8663 H   0  0  0  0  0  0  0  0  0  0  0  0
  138.9582   75.3980  220.5260 H   0  0  0  0  0  0  0  0  0  0  0  0
  137.8730   76.7388  220.9175 H   0  0  0  0  0  0  0  0  0  0  0  0
  139.2688   77.6554  219.1844 H   0  0  0  0  0  0  0  0  0  0  0  0
  140.0596   78.2547  220.6665 H   0  0  0  0  0  0  0  0  0  0  0  0
  140.9102   75.9365  218.8565 H   0  0  0  0  0  0  0  0  0  0  0  0
  142.7805   77.6409  220.3032 H   0  0  0  0  0  0  0  0  0  0  0  0
  142.6122   77.1452  218.5038 H   0  0  0  0  0  0  0  0  0  0  0  0
  142.8984   80.3460  219.5035 H   0  0  0  0  0  0  0  0  0  0  0  0
  141.0666   80.5112  219.1280 H   0  0  0  0  0  0  0  0  0  0  0  0
  139.5166   80.7028  220.8862 H   0  0  0  0  0  0  0  0  0  0  0  0
  139.1011   80.8392  223.3124 H   0  0  0  0  0  0  0  0  0  0  0  0
  140.8971   80.2948  224.9179 H   0  0  0  0  0  0  0  0  0  0  0  0
  143.1143   79.6169  224.0622 H   0  0  0  0  0  0  0  0  0  0  0  0
  143.5388   79.4804  221.6378 H   0  0  0  0  0  0  0  0  0  0  0  0
  139.3140   70.1182  222.5174 H   0  0  0  0  0  0  0  0  0  0  0  0
  139.1113   68.4569  224.3946 H   0  0  0  0  0  0  0  0  0  0  0  0
  139.4636   67.8531  226.7190 H   0  0  0  0  0  0  0  0  0  0  0  0
  140.3163   68.4949  228.9760 H   0  0  0  0  0  0  0  0  0  0  0  0
  141.3348   70.7098  229.3318 H   0  0  0  0  0  0  0  0  0  0  0  0
  141.5357   72.3587  227.4695 H   0  0  0  0  0  0  0  0  0  0  0  0
  1  2  2  0
  2  3  1  0
  3  4  1  0
  4  5  1  0
  5  6  2  0
  5  7  1  0
  7  8  1  0
  8  9  1  0
  9 10  1  0
 10 11  1  0
 11 12  1  0
 12 13  1  0
 13 14  1  0
 14 15  1  0
 15 16  1  0
 16 17  2  0
 17 18  1  0
 18 19  2  0
 19 20  1  0
 20 21  2  0
  2 22  1  0
 22 23  2  0
 23 24  1  0
 24 25  2  0
 25 26  1  0
 26 27  2  0
 27 28  1  0
 28 29  2  0
 29 30  1  0
 30 31  2  0
 12  7  1  0
 21 16  1  0
 31 22  1  0
 30 25  1  0
  3 32  1  0
  4 33  1  0
  4 34  1  0
  8 35  1  0
  8 36  1  0
  9 37  1  0
  9 38  1  0
 10 39  1  0
 10 40  1  0
 11 41  1  0
 11 42  1  0
 12 43  1  6
 13 44  1  0
 13 45  1  0
 15 46  1  0
 15 47  1  0
 17 48  1  0
 18 49  1  0
 19 50  1  0
 20 51  1  0
 21 52  1  0
 23 53  1  0
 24 54  1  0
 26 55  1  0
 27 56  1  0
 28 57  1  0
 29 58  1  0
M  END
>  <smiles>  (5) 
O=C(NCC(=O)N1CCCC[C@H]1COCc1ccccc1)c1ccc2ccccc2n1

>  <score_type>  (5) 
oracle

>  <origin>  (5) 
autodockgpu

>  <m_score__min__energy>  (5) 
-9.1799999999999997

>  <m_primary>  (5) 
energy

>  <rmsd>  (5) 
2.8094588184270166

>  <m_score__min__rmsd>  (5) 
2.8094588184270166

>  <meeko>  (5) 
{"free_energy": -8.13, "intermolecular_energy": -10.52, "internal_energy": -2.22, "cluster_size": 23, "cluster_id": 1, "rank_in_cluster": 19}

>  <energy>  (5) 
-9.05

>  <cluster_rmsd>  (5) 
0.87

>  <cluster>  (5) 
1

$$$$

     RDKit          3D

 58 61  0  0  0  0  0  0  0  0999 V2000
  138.6660   75.4540  222.3170 O   0  0  0  0  0  0  0  0  0  0  0  0
  139.8210   75.9410  222.2530 C   0  0  0  0  0  0  0  0  0  0  0  0
  140.8660   75.1050  221.7550 N   0  0  0  0  0  0  0  0  0  0  0  0
  140.7180   73.7790  221.3280 C   0  0  0  0  0  0  0  0  0  0  0  0
  141.8420   72.9490  220.9200 C   0  0  0  0  0  0  0  0  0  0  0  0
  141.6850   71.6930  221.2910 O   0  0  0  0  0  0  0  0  0  0  0  0
  143.0210   73.1990  220.2320 N   0  0  0  0  0  0  0  0  0  0  0  0
  143.7810   72.3650  219.3540 C   0  0  0  0  0  0  0  0  0  0  0  0
  145.0740   71.9790  220.1290 C   0  0  0  0  0  0  0  0  0  0  0  0
  145.4220   73.1120  221.0460 C   0  0  0  0  0  0  0  0  0  0  0  0
  145.0610   74.3840  220.2850 C   0  0  0  0  0  0  0  0  0  0  0  0
  143.5810   74.5850  220.4050 C   0  0  1  0  0  0  0  0  0  0  0  0
  143.0990   75.4510  219.2760 C   0  0  0  0  0  0  0  0  0  0  0  0
  142.6380   76.6400  219.5370 O   0  0  0  0  0  0  0  0  0  0  0  0
  142.6360   77.8000  218.9300 C   0  0  0  0  0  0  0  0  0  0  0  0
  141.7690   78.8870  219.4300 C   0  0  0  0  0  0  0  0  0  0  0  0
  142.1730   80.1440  219.7800 C   0  0  0  0  0  0  0  0  0  0  0  0
  141.2900   81.1220  220.2230 C   0  0  0  0  0  0  0  0  0  0  0  0
  139.9590   80.8480  220.3250 C   0  0  0  0  0  0  0  0  0  0  0  0
  139.5150   79.6000  219.9820 C   0  0  0  0  0  0  0  0  0  0  0  0
  140.3960   78.6290  219.5420 C   0  0  0  0  0  0  0  0  0  0  0  0
  140.0890   77.3260  222.6750 C   0  0  0  0  0  0  0  0  0  0  0  0
  139.0340   78.1170  223.0270 C   0  0  0  0  0  0  0  0  0  0  0  0
  139.3220   79.4250  223.4230 C   0  0  0  0  0  0  0  0  0  0  0  0
  140.6270   79.8810  223.4500 C   0  0  0  0  0  0  0  0  0  0  0  0
  140.9110   81.1880  223.8460 C   0  0  0  0  0  0  0  0  0  0  0  0
  142.2330   81.6050  223.8590 C   0  0  0  0  0  0  0  0  0  0  0  0
  143.2390   80.7330  223.4850 C   0  0  0  0  0  0  0  0  0  0  0  0
  142.9740   79.4290  223.0890 C   0  0  0  0  0  0  0  0  0  0  0  0
  141.6430   79.0260  223.0800 C   0  0  0  0  0  0  0  0  0  0  0  0
  141.3350   77.7750  222.7050 N   0  0  0  0  0  0  0  0  0  0  0  0
  141.8220   75.5800  221.7260 H   0  0  0  0  0  0  0  0  0  0  0  0
  140.2324   73.2453  222.1583 H   0  0  0  0  0  0  0  0  0  0  0  0
  140.1845   73.9121  220.3753 H   0  0  0  0  0  0  0  0  0  0  0  0
  143.2081   71.4623  219.0954 H   0  0  0  0  0  0  0  0  0  0  0  0
  144.0183   72.8851  218.4142 H   0  0  0  0  0  0  0  0  0  0  0  0
  144.8986   71.0650  220.7153 H   0  0  0  0  0  0  0  0  0  0  0  0
  145.8984   71.7907  219.4255 H   0  0  0  0  0  0  0  0  0  0  0  0
  144.8407   73.0441  221.9774 H   0  0  0  0  0  0  0  0  0  0  0  0
  146.4852   73.0949  221.3275 H   0  0  0  0  0  0  0  0  0  0  0  0
  145.5919   75.2437  220.7199 H   0  0  0  0  0  0  0  0  0  0  0  0
  145.3523   74.2952  219.2280 H   0  0  0  0  0  0  0  0  0  0  0  0
  143.2865   75.0633  221.3508 H   0  0  0  0  0  0  0  0  0  0  0  0
  143.9460   75.5796  218.5861 H   0  0  0  0  0  0  0  0  0  0  0  0
  142.2222   74.9108  218.8894 H   0  0  0  0  0  0  0  0  0  0  0  0
  143.6690   78.1770  218.9593 H   0  0  0  0  0  0  0  0  0  0  0  0
  142.2136   77.5703  217.9406 H   0  0  0  0  0  0  0  0  0  0  0  0
  143.2421   80.3929  219.7083 H   0  0  0  0  0  0  0  0  0  0  0  0
  141.6667   82.1199  220.4920 H   0  0  0  0  0  0  0  0  0  0  0  0
  139.2544   81.6161  220.6766 H   0  0  0  0  0  0  0  0  0  0  0  0
  138.4428   79.3659  220.0572 H   0  0  0  0  0  0  0  0  0  0  0  0
  140.0112   77.6338  219.2745 H   0  0  0  0  0  0  0  0  0  0  0  0
  138.0008   77.7404  222.9999 H   0  0  0  0  0  0  0  0  0  0  0  0
  138.5032   80.0985  223.7161 H   0  0  0  0  0  0  0  0  0  0  0  0
  140.1030   81.8733  224.1417 H   0  0  0  0  0  0  0  0  0  0  0  0
  142.4822   82.6311  224.1673 H   0  0  0  0  0  0  0  0  0  0  0  0
  144.2816   81.0834  223.5018 H   0  0  0  0  0  0  0  0  0  0  0  0
  143.7825   78.7436  222.7948 H   0  0  0  0  0  0  0  0  0  0  0  0
  1  2  2  0
  2  3  1  0
  3  4  1  0
  4  5  1  0
  5  6  2  0
  5  7  1  0
  7  8  1  0
  8  9  1  0
  9 10  1  0
 10 11  1  0
 11 12  1  0
 12 13  1  0
 13 14  1  0
 14 15  1  0
 15 16  1  0
 16 17  2  0
 17 18  1  0
 18 19  2  0
 19 20  1  0
 20 21  2  0
  2 22  1  0
 22 23  2  0
 23 24  1  0
 24 25  2  0
 25 26  1  0
 26 27  2  0
 27 28  1  0
 28 29  2  0
 29 30  1  0
 30 31  2  0
 12  7  1  0
 21 16  1  0
 31 22  1  0
 30 25  1  0
  3 32  1  0
  4 33  1  0
  4 34  1  0
  8 35  1  0
  8 36  1  0
  9 37  1  0
  9 38  1  0
 10 39  1  0
 10 40  1  0
 11 41  1  0
 11 42  1  0
 12 43  1  1
 13 44  1  0
 13 45  1  0
 15 46  1  0
 15 47  1  0
 17 48  1  0
 18 49  1  0
 19 50  1  0
 20 51  1  0
 21 52  1  0
 23 53  1  0
 24 54  1  0
 26 55  1  0
 27 56  1  0
 28 57  1  0
 29 58  1  0
M  END
>  <smiles>  (6) 
O=C(NCC(=O)N1CCCC[C@H]1COCc1ccccc1)c1ccc2ccccc2n1

>  <score_type>  (6) 
oracle

>  <origin>  (6) 
autodockgpu

>  <m_score__min__energy>  (6) 
-9.1799999999999997

>  <m_primary>  (6) 
energy

>  <rmsd>  (6) 
7.628804074981181

>  <m_score__min__rmsd>  (6) 
7.628804074981181

>  <meeko>  (6) 
{"free_energy": -6.91, "intermolecular_energy": -9.29, "internal_energy": -3.72, "cluster_size": 11, "cluster_id": 5, "rank_in_cluster": 7}

>  <energy>  (6) 
-9.02

>  <cluster_rmsd>  (6) 
0.58

>  <cluster>  (6) 
1

$$$$

     RDKit          3D

 58 61  0  0  0  0  0  0  0  0999 V2000
  138.8300   75.3830  222.2220 O   0  0  0  0  0  0  0  0  0  0  0  0
  139.9580   75.9240  222.1310 C   0  0  0  0  0  0  0  0  0  0  0  0
  141.0320   75.1350  221.6190 N   0  0  0  0  0  0  0  0  0  0  0  0
  140.9400   73.8000  221.2050 C   0  0  0  0  0  0  0  0  0  0  0  0
  142.1060   72.9680  220.9470 C   0  0  0  0  0  0  0  0  0  0  0  0
  142.0340   71.8120  221.5790 O   0  0  0  0  0  0  0  0  0  0  0  0
  143.2570   73.1350  220.1890 N   0  0  0  0  0  0  0  0  0  0  0  0
  143.8830   72.2640  219.2430 C   0  0  0  0  0  0  0  0  0  0  0  0
  145.1830   71.7450  219.9230 C   0  0  0  0  0  0  0  0  0  0  0  0
  145.6870   72.8170  220.8400 C   0  0  0  0  0  0  0  0  0  0  0  0
  145.3920   74.1370  220.1340 C   0  0  0  0  0  0  0  0  0  0  0  0
  143.9460   74.4620  220.3560 C   0  0  1  0  0  0  0  0  0  0  0  0
  143.4710   75.3980  219.2820 C   0  0  0  0  0  0  0  0  0  0  0  0
  142.4460   76.1660  219.5140 O   0  0  0  0  0  0  0  0  0  0  0  0
  141.6500   76.9120  218.7900 C   0  0  0  0  0  0  0  0  0  0  0  0
  141.6740   78.3790  218.9520 C   0  0  0  0  0  0  0  0  0  0  0  0
  140.8930   79.1100  219.8030 C   0  0  0  0  0  0  0  0  0  0  0  0
  140.9900   80.4920  219.9130 C   0  0  0  0  0  0  0  0  0  0  0  0
  141.8900   81.1790  219.1550 C   0  0  0  0  0  0  0  0  0  0  0  0
  142.6910   80.4830  218.2910 C   0  0  0  0  0  0  0  0  0  0  0  0
  142.5920   79.1080  218.1830 C   0  0  0  0  0  0  0  0  0  0  0  0
  140.1680   77.3230  222.5390 C   0  0  0  0  0  0  0  0  0  0  0  0
  139.0750   78.1000  222.7920 C   0  0  0  0  0  0  0  0  0  0  0  0
  139.3080   79.4220  223.1760 C   0  0  0  0  0  0  0  0  0  0  0  0
  140.5990   79.9060  223.2880 C   0  0  0  0  0  0  0  0  0  0  0  0
  140.8270   81.2270  223.6720 C   0  0  0  0  0  0  0  0  0  0  0  0
  142.1360   81.6710  223.7730 C   0  0  0  0  0  0  0  0  0  0  0  0
  143.1830   80.8120  223.4960 C   0  0  0  0  0  0  0  0  0  0  0  0
  142.9740   79.4940  223.1130 C   0  0  0  0  0  0  0  0  0  0  0  0
  141.6540   79.0640  223.0160 C   0  0  0  0  0  0  0  0  0  0  0  0
  141.4000   77.7980  222.6500 N   0  0  0  0  0  0  0  0  0  0  0  0
  141.9640   75.6540  221.5680 H   0  0  0  0  0  0  0  0  0  0  0  0
  140.3632   73.2802  221.9841 H   0  0  0  0  0  0  0  0  0  0  0  0
  140.5212   73.9115  220.1940 H   0  0  0  0  0  0  0  0  0  0  0  0
  143.2173   71.4224  219.0012 H   0  0  0  0  0  0  0  0  0  0  0  0
  144.1053   72.7884  218.3019 H   0  0  0  0  0  0  0  0  0  0  0  0
  144.9645   70.8337  220.4990 H   0  0  0  0  0  0  0  0  0  0  0  0
  145.9414   71.5051  219.1632 H   0  0  0  0  0  0  0  0  0  0  0  0
  145.1625   72.7732  221.8059 H   0  0  0  0  0  0  0  0  0  0  0  0
  146.7604   72.7000  221.0498 H   0  0  0  0  0  0  0  0  0  0  0  0
  146.0234   74.9346  220.5527 H   0  0  0  0  0  0  0  0  0  0  0  0
  145.6064   74.0537  219.0583 H   0  0  0  0  0  0  0  0  0  0  0  0
  143.7555   74.9372  221.3296 H   0  0  0  0  0  0  0  0  0  0  0  0
  144.3161   76.0570  219.0338 H   0  0  0  0  0  0  0  0  0  0  0  0
  143.1174   74.7247  218.4873 H   0  0  0  0  0  0  0  0  0  0  0  0
  141.8882   76.7035  217.7365 H   0  0  0  0  0  0  0  0  0  0  0  0
  140.6462   76.6320  219.1421 H   0  0  0  0  0  0  0  0  0  0  0  0
  140.1568   78.5822  220.4270 H   0  0  0  0  0  0  0  0  0  0  0  0
  140.3379   81.0331  220.6144 H   0  0  0  0  0  0  0  0  0  0  0  0
  141.9712   82.2730  219.2361 H   0  0  0  0  0  0  0  0  0  0  0  0
  143.4233   81.0245  217.6742 H   0  0  0  0  0  0  0  0  0  0  0  0
  143.2475   78.5748  217.4787 H   0  0  0  0  0  0  0  0  0  0  0  0
  138.0540   77.7018  222.6975 H   0  0  0  0  0  0  0  0  0  0  0  0
  138.4570   80.0848  223.3915 H   0  0  0  0  0  0  0  0  0  0  0  0
  139.9862   81.9020  223.8900 H   0  0  0  0  0  0  0  0  0  0  0  0
  142.3421   82.7087  224.0741 H   0  0  0  0  0  0  0  0  0  0  0  0
  144.2144   81.1845  223.5818 H   0  0  0  0  0  0  0  0  0  0  0  0
  143.8150   78.8191  222.8957 H   0  0  0  0  0  0  0  0  0  0  0  0
  1  2  2  0
  2  3  1  0
  3  4  1  0
  4  5  1  0
  5  6  2  0
  5  7  1  0
  7  8  1  0
  8  9  1  0
  9 10  1  0
 10 11  1  0
 11 12  1  0
 12 13  1  0
 13 14  1  0
 14 15  1  0
 15 16  1  0
 16 17  2  0
 17 18  1  0
 18 19  2  0
 19 20  1  0
 20 21  2  0
  2 22  1  0
 22 23  2  0
 23 24  1  0
 24 25  2  0
 25 26  1  0
 26 27  2  0
 27 28  1  0
 28 29  2  0
 29 30  1  0
 30 31  2  0
 12  7  1  0
 21 16  1  0
 31 22  1  0
 30 25  1  0
  3 32  1  0
  4 33  1  0
  4 34  1  0
  8 35  1  0
  8 36  1  0
  9 37  1  0
  9 38  1  0
 10 39  1  0
 10 40  1  0
 11 41  1  0
 11 42  1  0
 12 43  1  1
 13 44  1  0
 13 45  1  0
 15 46  1  0
 15 47  1  0
 17 48  1  0
 18 49  1  0
 19 50  1  0
 20 51  1  0
 21 52  1  0
 23 53  1  0
 24 54  1  0
 26 55  1  0
 27 56  1  0
 28 57  1  0
 29 58  1  0
M  END
>  <smiles>  (7) 
O=C(NCC(=O)N1CCCC[C@H]1COCc1ccccc1)c1ccc2ccccc2n1

>  <score_type>  (7) 
oracle

>  <origin>  (7) 
autodockgpu

>  <m_score__min__energy>  (7) 
-9.1799999999999997

>  <m_primary>  (7) 
energy

>  <rmsd>  (7) 
7.705112426342462

>  <m_score__min__rmsd>  (7) 
7.705112426342462

>  <meeko>  (7) 
{"free_energy": -7.19, "intermolecular_energy": -9.58, "internal_energy": -3.74, "cluster_size": 11, "cluster_id": 5, "rank_in_cluster": 4}

>  <energy>  (7) 
-8.82

>  <cluster_rmsd>  (7) 
1.24

>  <cluster>  (7) 
1

$$$$

     RDKit          3D

 58 61  0  0  0  0  0  0  0  0999 V2000
  140.3150   71.5320  221.2660 O   0  0  0  0  0  0  0  0  0  0  0  0
  139.9910   72.0500  222.3620 C   0  0  0  0  0  0  0  0  0  0  0  0
  139.6000   73.4230  222.3560 N   0  0  0  0  0  0  0  0  0  0  0  0
  139.5470   74.2520  221.2280 C   0  0  0  0  0  0  0  0  0  0  0  0
  139.4200   75.7000  221.3140 C   0  0  0  0  0  0  0  0  0  0  0  0
  138.1670   76.0740  221.4870 O   0  0  0  0  0  0  0  0  0  0  0  0
  140.3270   76.7490  221.2550 N   0  0  0  0  0  0  0  0  0  0  0  0
  141.0940   77.3760  222.2870 C   0  0  0  0  0  0  0  0  0  0  0  0
  140.4670   78.7830  222.5020 C   0  0  0  0  0  0  0  0  0  0  0  0
  139.9110   79.2500  221.1920 C   0  0  0  0  0  0  0  0  0  0  0  0
  140.8820   78.7460  220.1280 C   0  0  0  0  0  0  0  0  0  0  0  0
  140.5780   77.3000  219.8780 C   0  0  1  0  0  0  0  0  0  0  0  0
  141.7870   76.6270  219.2940 C   0  0  0  0  0  0  0  0  0  0  0  0
  142.6030   75.9890  220.0820 O   0  0  0  0  0  0  0  0  0  0  0  0
  142.6150   74.8220  220.6750 C   0  0  0  0  0  0  0  0  0  0  0  0
  143.7140   73.8730  220.4040 C   0  0  0  0  0  0  0  0  0  0  0  0
  143.6020   72.6730  219.7620 C   0  0  0  0  0  0  0  0  0  0  0  0
  144.6910   71.8420  219.5250 C   0  0  0  0  0  0  0  0  0  0  0  0
  145.9370   72.2100  219.9360 C   0  0  0  0  0  0  0  0  0  0  0  0
  146.0900   73.4070  220.5820 C   0  0  0  0  0  0  0  0  0  0  0  0
  145.0040   74.2310  220.8170 C   0  0  0  0  0  0  0  0  0  0  0  0
  140.0110   71.2690  223.6100 C   0  0  0  0  0  0  0  0  0  0  0  0
  139.5600   69.9820  223.5830 C   0  0  0  0  0  0  0  0  0  0  0  0
  139.5920   69.2690  224.7830 C   0  0  0  0  0  0  0  0  0  0  0  0
  140.0640   69.8610  225.9400 C   0  0  0  0  0  0  0  0  0  0  0  0
  140.0950   69.1450  227.1380 C   0  0  0  0  0  0  0  0  0  0  0  0
  140.5760   69.7750  228.2740 C   0  0  0  0  0  0  0  0  0  0  0  0
  141.0130   71.0850  228.2090 C   0  0  0  0  0  0  0  0  0  0  0  0
  140.9900   71.8120  227.0250 C   0  0  0  0  0  0  0  0  0  0  0  0
  140.5040   71.1650  225.8940 C   0  0  0  0  0  0  0  0  0  0  0  0
  140.4610   71.8250  224.7260 N   0  0  0  0  0  0  0  0  0  0  0  0
  139.3370   73.8020  223.3190 H   0  0  0  0  0  0  0  0  0  0  0  0
  140.4745   74.0617  220.6681 H   0  0  0  0  0  0  0  0  0  0  0  0
  138.5762   73.9711  220.7936 H   0  0  0  0  0  0  0  0  0  0  0  0
  141.0372   76.7877  223.2148 H   0  0  0  0  0  0  0  0  0  0  0  0
  142.1555   77.4493  222.0082 H   0  0  0  0  0  0  0  0  0  0  0  0
  139.6613   78.7220  223.2485 H   0  0  0  0  0  0  0  0  0  0  0  0
  141.2289   79.4881  222.8656 H   0  0  0  0  0  0  0  0  0  0  0  0
  138.9089   78.8270  221.0280 H   0  0  0  0  0  0  0  0  0  0  0  0
  139.8081   80.3448  221.1618 H   0  0  0  0  0  0  0  0  0  0  0  0
  140.7517   79.3216  219.1998 H   0  0  0  0  0  0  0  0  0  0  0  0
  141.9211   78.8668  220.4682 H   0  0  0  0  0  0  0  0  0  0  0  0
  139.7373   77.1496  219.1848 H   0  0  0  0  0  0  0  0  0  0  0  0
  141.4232   75.9006  218.5524 H   0  0  0  0  0  0  0  0  0  0  0  0
  142.3923   77.4628  218.9132 H   0  0  0  0  0  0  0  0  0  0  0  0
  142.6203   75.0149  221.7579 H   0  0  0  0  0  0  0  0  0  0  0  0
  141.7316   74.3152  220.2593 H   0  0  0  0  0  0  0  0  0  0  0  0
  142.6083   72.3503  219.4179 H   0  0  0  0  0  0  0  0  0  0  0  0
  144.5464   70.8841  219.0039 H   0  0  0  0  0  0  0  0  0  0  0  0
  146.8033   71.5576  219.7521 H   0  0  0  0  0  0  0  0  0  0  0  0
  147.0899   73.7179  220.9188 H   0  0  0  0  0  0  0  0  0  0  0  0
  145.1564   75.1872  221.3390 H   0  0  0  0  0  0  0  0  0  0  0  0
  139.1867   69.5250  222.6547 H   0  0  0  0  0  0  0  0  0  0  0  0
  139.2387   68.2276  224.8082 H   0  0  0  0  0  0  0  0  0  0  0  0
  139.7450   68.1030  227.1790 H   0  0  0  0  0  0  0  0  0  0  0  0
  140.6103   69.2318  229.2299 H   0  0  0  0  0  0  0  0  0  0  0  0
  141.3906   71.5668  229.1229 H   0  0  0  0  0  0  0  0  0  0  0  0
  141.3409   72.8537  226.9841 H   0  0  0  0  0  0  0  0  0  0  0  0
  1  2  2  0
  2  3  1  0
  3  4  1  0
  4  5  1  0
  5  6  2  0
  5  7  1  0
  7  8  1  0
  8  9  1  0
  9 10  1  0
 10 11  1  0
 11 12  1  0
 12 13  1  0
 13 14  1  0
 14 15  1  0
 15 16  1  0
 16 17  2  0
 17 18  1  0
 18 19  2  0
 19 20  1  0
 20 21  2  0
  2 22  1  0
 22 23  2  0
 23 24  1  0
 24 25  2  0
 25 26  1  0
 26 27  2  0
 27 28  1  0
 28 29  2  0
 29 30  1  0
 30 31  2  0
 12  7  1  0
 21 16  1  0
 31 22  1  0
 30 25  1  0
  3 32  1  0
  4 33  1  0
  4 34  1  0
  8 35  1  0
  8 36  1  0
  9 37  1  0
  9 38  1  0
 10 39  1  0
 10 40  1  0
 11 41  1  0
 11 42  1  0
 12 43  1  6
 13 44  1  0
 13 45  1  0
 15 46  1  0
 15 47  1  0
 17 48  1  0
 18 49  1  0
 19 50  1  0
 20 51  1  0
 21 52  1  0
 23 53  1  0
 24 54  1  0
 26 55  1  0
 27 56  1  0
 28 57  1  0
 29 58  1  0
M  END
>  <smiles>  (8) 
O=C(NCC(=O)N1CCCC[C@H]1COCc1ccccc1)c1ccc2ccccc2n1

>  <score_type>  (8) 
oracle

>  <origin>  (8) 
autodockgpu

>  <m_score__min__energy>  (8) 
-9.1799999999999997

>  <m_primary>  (8) 
energy

>  <rmsd>  (8) 
2.6666572784431604

>  <m_score__min__rmsd>  (8) 
2.6666572784431604

>  <meeko>  (8) 
{"free_energy": -8.25, "intermolecular_energy": -10.64, "internal_energy": -1.89, "cluster_size": 5, "cluster_id": 4, "rank_in_cluster": 4}

>  <energy>  (8) 
-8.64

>  <cluster_rmsd>  (8) 
1.02

>  <cluster>  (8) 
1

$$$$

     RDKit          3D

 58 61  0  0  0  0  0  0  0  0999 V2000
  141.4220   72.1980  221.7790 O   0  0  0  0  0  0  0  0  0  0  0  0
  140.4830   72.4230  222.5810 C   0  0  0  0  0  0  0  0  0  0  0  0
  139.6580   73.5620  222.3330 N   0  0  0  0  0  0  0  0  0  0  0  0
  139.8020   74.4590  221.2670 C   0  0  0  0  0  0  0  0  0  0  0  0
  140.4650   74.1060  220.0200 C   0  0  0  0  0  0  0  0  0  0  0  0
  139.6880   73.3800  219.2390 O   0  0  0  0  0  0  0  0  0  0  0  0
  141.7210   74.3700  219.4910 N   0  0  0  0  0  0  0  0  0  0  0  0
  142.2720   74.0670  218.2070 C   0  0  0  0  0  0  0  0  0  0  0  0
  143.3190   72.9390  218.4370 C   0  0  0  0  0  0  0  0  0  0  0  0
  143.9070   73.1220  219.8030 C   0  0  0  0  0  0  0  0  0  0  0  0
  144.0080   74.6300  220.0100 C   0  0  0  0  0  0  0  0  0  0  0  0
  142.6500   75.1310  220.3970 C   0  0  1  0  0  0  0  0  0  0  0  0
  142.5470   76.5970  220.0830 C   0  0  0  0  0  0  0  0  0  0  0  0
  141.3730   77.1580  220.0390 O   0  0  0  0  0  0  0  0  0  0  0  0
  140.8670   78.3050  220.4150 C   0  0  0  0  0  0  0  0  0  0  0  0
  141.4360   79.0090  221.5820 C   0  0  0  0  0  0  0  0  0  0  0  0
  142.1060   80.1990  221.5580 C   0  0  0  0  0  0  0  0  0  0  0  0
  142.5960   80.8110  222.7070 C   0  0  0  0  0  0  0  0  0  0  0  0
  142.4170   80.2260  223.9240 C   0  0  0  0  0  0  0  0  0  0  0  0
  141.7490   79.0330  223.9900 C   0  0  0  0  0  0  0  0  0  0  0  0
  141.2640   78.4270  222.8460 C   0  0  0  0  0  0  0  0  0  0  0  0
  140.2410   71.5430  223.7370 C   0  0  0  0  0  0  0  0  0  0  0  0
  139.5590   70.3780  223.5390 C   0  0  0  0  0  0  0  0  0  0  0  0
  139.3450   69.5670  224.6540 C   0  0  0  0  0  0  0  0  0  0  0  0
  139.8120   69.9460  225.9000 C   0  0  0  0  0  0  0  0  0  0  0  0
  139.5970   69.1320  227.0130 C   0  0  0  0  0  0  0  0  0  0  0  0
  140.0820   69.5490  228.2420 C   0  0  0  0  0  0  0  0  0  0  0  0
  140.7630   70.7470  228.3490 C   0  0  0  0  0  0  0  0  0  0  0  0
  140.9860   71.5690  227.2520 C   0  0  0  0  0  0  0  0  0  0  0  0
  140.4920   71.1370  226.0260 C   0  0  0  0  0  0  0  0  0  0  0  0
  140.6830   71.8950  224.9350 N   0  0  0  0  0  0  0  0  0  0  0  0
  138.8800   73.6950  223.0520 H   0  0  0  0  0  0  0  0  0  0  0  0
  138.7832   74.7692  220.9917 H   0  0  0  0  0  0  0  0  0  0  0  0
  140.5032   75.1936  221.6897 H   0  0  0  0  0  0  0  0  0  0  0  0
  141.4815   73.7199  217.5254 H   0  0  0  0  0  0  0  0  0  0  0  0
  142.7340   74.9547  217.7503 H   0  0  0  0  0  0  0  0  0  0  0  0
  142.8292   71.9563  218.3704 H   0  0  0  0  0  0  0  0  0  0  0  0
  144.1081   72.9894  217.6723 H   0  0  0  0  0  0  0  0  0  0  0  0
  143.2532   72.6731  220.5653 H   0  0  0  0  0  0  0  0  0  0  0  0
  144.8885   72.6333  219.8914 H   0  0  0  0  0  0  0  0  0  0  0  0
  144.7302   74.8504  220.8099 H   0  0  0  0  0  0  0  0  0  0  0  0
  144.3509   75.1223  219.0880 H   0  0  0  0  0  0  0  0  0  0  0  0
  142.4298   74.9958  221.4662 H   0  0  0  0  0  0  0  0  0  0  0  0
  143.1293   77.1309  220.8484 H   0  0  0  0  0  0  0  0  0  0  0  0
  142.9086   76.6675  219.0465 H   0  0  0  0  0  0  0  0  0  0  0  0
  140.9534   78.9882  219.5572 H   0  0  0  0  0  0  0  0  0  0  0  0
  139.8517   78.0407  220.7456 H   0  0  0  0  0  0  0  0  0  0  0  0
  142.2649   80.6945  220.5888 H   0  0  0  0  0  0  0  0  0  0  0  0
  143.1295   81.7701  222.6326 H   0  0  0  0  0  0  0  0  0  0  0  0
  142.8022   80.7035  224.8370 H   0  0  0  0  0  0  0  0  0  0  0  0
  141.5960   78.5500  224.9664 H   0  0  0  0  0  0  0  0  0  0  0  0
  140.7319   77.4679  222.9291 H   0  0  0  0  0  0  0  0  0  0  0  0
  139.1933   70.0902  222.5423 H   0  0  0  0  0  0  0  0  0  0  0  0
  138.8002   68.6180  224.5414 H   0  0  0  0  0  0  0  0  0  0  0  0
  139.0543   68.1801  226.9166 H   0  0  0  0  0  0  0  0  0  0  0  0
  139.9248   68.9254  229.1344 H   0  0  0  0  0  0  0  0  0  0  0  0
  141.1402   71.0592  229.3340 H   0  0  0  0  0  0  0  0  0  0  0  0
  141.5297   72.5203  227.3487 H   0  0  0  0  0  0  0  0  0  0  0  0
  1  2  2  0
  2  3  1  0
  3  4  1  0
  4  5  1  0
  5  6  2  0
  5  7  1  0
  7  8  1  0
  8  9  1  0
  9 10  1  0
 10 11  1  0
 11 12  1  0
 12 13  1  0
 13 14  1  0
 14 15  1  0
 15 16  1  0
 16 17  2  0
 17 18  1  0
 18 19  2  0
 19 20  1  0
 20 21  2  0
  2 22  1  0
 22 23  2  0
 23 24  1  0
 24 25  2  0
 25 26  1  0
 26 27  2  0
 27 28  1  0
 28 29  2  0
 29 30  1  0
 30 31  2  0
 12  7  1  0
 21 16  1  0
 31 22  1  0
 30 25  1  0
  3 32  1  0
  4 33  1  0
  4 34  1  0
  8 35  1  0
  8 36  1  0
  9 37  1  0
  9 38  1  0
 10 39  1  0
 10 40  1  0
 11 41  1  0
 11 42  1  0
 12 43  1  1
 13 44  1  0
 13 45  1  0
 15 46  1  0
 15 47  1  0
 17 48  1  0
 18 49  1  0
 19 50  1  0
 20 51  1  0
 21 52  1  0
 23 53  1  0
 24 54  1  0
 26 55  1  0
 27 56  1  0
 28 57  1  0
 29 58  1  0
M  END
>  <smiles>  (9) 
O=C(NCC(=O)N1CCCC[C@H]1COCc1ccccc1)c1ccc2ccccc2n1

>  <score_type>  (9) 
oracle

>  <origin>  (9) 
autodockgpu

>  <m_score__min__energy>  (9) 
-9.1799999999999997

>  <m_primary>  (9) 
energy

>  <rmsd>  (9) 
2.4452295168534155

>  <m_score__min__rmsd>  (9) 
2.4452295168534155

>  <meeko>  (9) 
{"free_energy": -8.64, "intermolecular_energy": -11.02, "internal_energy": -1.78, "cluster_size": 23, "cluster_id": 1, "rank_in_cluster": 8}

>  <energy>  (9) 
-8.63

>  <cluster_rmsd>  (9) 
1.46

>  <cluster>  (9) 
1

$$$$

     RDKit          3D

 58 61  0  0  0  0  0  0  0  0999 V2000
  139.5810   70.8450  221.5050 O   0  0  0  0  0  0  0  0  0  0  0  0
  139.6800   71.3360  222.6560 C   0  0  0  0  0  0  0  0  0  0  0  0
  139.7320   72.7590  222.7660 N   0  0  0  0  0  0  0  0  0  0  0  0
  139.6830   73.6640  221.6980 C   0  0  0  0  0  0  0  0  0  0  0  0
  140.8180   74.4850  221.3030 C   0  0  0  0  0  0  0  0  0  0  0  0
  140.9320   75.5610  222.0570 O   0  0  0  0  0  0  0  0  0  0  0  0
  141.7890   74.3730  220.3170 N   0  0  0  0  0  0  0  0  0  0  0  0
  141.9590   73.3990  219.2840 C   0  0  0  0  0  0  0  0  0  0  0  0
  143.1950   72.5450  219.6900 C   0  0  0  0  0  0  0  0  0  0  0  0
  144.1370   73.4240  220.4540 C   0  0  0  0  0  0  0  0  0  0  0  0
  144.0500   74.7960  219.7910 C   0  0  0  0  0  0  0  0  0  0  0  0
  142.8150   75.4740  220.3020 C   0  0  1  0  0  0  0  0  0  0  0  0
  142.3830   76.5310  219.3270 C   0  0  0  0  0  0  0  0  0  0  0  0
  141.1580   76.9690  219.3630 O   0  0  0  0  0  0  0  0  0  0  0  0
  140.5430   77.9930  219.8980 C   0  0  0  0  0  0  0  0  0  0  0  0
  140.9610   78.4870  221.2260 C   0  0  0  0  0  0  0  0  0  0  0  0
  142.2020   78.9510  221.5600 C   0  0  0  0  0  0  0  0  0  0  0  0
  142.5130   79.4200  222.8310 C   0  0  0  0  0  0  0  0  0  0  0  0
  141.5650   79.4320  223.8090 C   0  0  0  0  0  0  0  0  0  0  0  0
  140.3090   78.9760  223.5130 C   0  0  0  0  0  0  0  0  0  0  0  0
  140.0020   78.5090  222.2480 C   0  0  0  0  0  0  0  0  0  0  0  0
  139.7400   70.4770  223.8500 C   0  0  0  0  0  0  0  0  0  0  0  0
  139.2170   69.2180  223.7750 C   0  0  0  0  0  0  0  0  0  0  0  0
  139.2890   68.4290  224.9240 C   0  0  0  0  0  0  0  0  0  0  0  0
  139.8700   68.9190  226.0800 C   0  0  0  0  0  0  0  0  0  0  0  0
  139.9410   68.1270  227.2260 C   0  0  0  0  0  0  0  0  0  0  0  0
  140.5310   68.6570  228.3620 C   0  0  0  0  0  0  0  0  0  0  0  0
  141.0350   69.9440  228.3460 C   0  0  0  0  0  0  0  0  0  0  0  0
  140.9740   70.7460  227.2140 C   0  0  0  0  0  0  0  0  0  0  0  0
  140.3780   70.2000  226.0820 C   0  0  0  0  0  0  0  0  0  0  0  0
  140.2940   70.9350  224.9630 N   0  0  0  0  0  0  0  0  0  0  0  0
  139.8170   73.1110  223.7700 H   0  0  0  0  0  0  0  0  0  0  0  0
  139.4138   73.0719  220.8109 H   0  0  0  0  0  0  0  0  0  0  0  0
  138.9859   74.4225  222.0836 H   0  0  0  0  0  0  0  0  0  0  0  0
  141.0645   72.7632  219.2087 H   0  0  0  0  0  0  0  0  0  0  0  0
  142.1066   73.8763  218.3040 H   0  0  0  0  0  0  0  0  0  0  0  0
  142.8753   71.7031  220.3217 H   0  0  0  0  0  0  0  0  0  0  0  0
  143.6909   72.1423  218.7945 H   0  0  0  0  0  0  0  0  0  0  0  0
  143.8320   73.4877  221.5090 H   0  0  0  0  0  0  0  0  0  0  0  0
  145.1637   73.0296  220.4384 H   0  0  0  0  0  0  0  0  0  0  0  0
  144.9378   75.3926  220.0476 H   0  0  0  0  0  0  0  0  0  0  0  0
  144.0066   74.6920  218.6968 H   0  0  0  0  0  0  0  0  0  0  0  0
  142.9602   75.9535  221.2813 H   0  0  0  0  0  0  0  0  0  0  0  0
  143.0391   77.3998  219.4842 H   0  0  0  0  0  0  0  0  0  0  0  0
  142.4510   76.0282  218.3510 H   0  0  0  0  0  0  0  0  0  0  0  0
  140.6529   78.8330  219.1963 H   0  0  0  0  0  0  0  0  0  0  0  0
  139.5248   77.6161  220.0743 H   0  0  0  0  0  0  0  0  0  0  0  0
  142.9881   78.9535  220.7906 H   0  0  0  0  0  0  0  0  0  0  0  0
  143.5285   79.7828  223.0478 H   0  0  0  0  0  0  0  0  0  0  0  0
  141.8043   79.8011  224.8172 H   0  0  0  0  0  0  0  0  0  0  0  0
  139.5327   78.9810  224.2923 H   0  0  0  0  0  0  0  0  0  0  0  0
  138.9843   78.1474  222.0396 H   0  0  0  0  0  0  0  0  0  0  0  0
  138.7585   68.8417  222.8486 H   0  0  0  0  0  0  0  0  0  0  0  0
  138.8800   67.4080  224.9103 H   0  0  0  0  0  0  0  0  0  0  0  0
  139.5373   67.1038  227.2278 H   0  0  0  0  0  0  0  0  0  0  0  0
  140.5985   68.0524  229.2785 H   0  0  0  0  0  0  0  0  0  0  0  0
  141.4991   70.3456  229.2589 H   0  0  0  0  0  0  0  0  0  0  0  0
  141.3794   71.7686  227.2126 H   0  0  0  0  0  0  0  0  0  0  0  0
  1  2  2  0
  2  3  1  0
  3  4  1  0
  4  5  1  0
  5  6  2  0
  5  7  1  0
  7  8  1  0
  8  9  1  0
  9 10  1  0
 10 11  1  0
 11 12  1  0
 12 13  1  0
 13 14  1  0
 14 15  1  0
 15 16  1  0
 16 17  2  0
 17 18  1  0
 18 19  2  0
 19 20  1  0
 20 21  2  0
  2 22  1  0
 22 23  2  0
 23 24  1  0
 24 25  2  0
 25 26  1  0
 26 27  2  0
 27 28  1  0
 28 29  2  0
 29 30  1  0
 30 31  2  0
 12  7  1  0
 21 16  1  0
 31 22  1  0
 30 25  1  0
  3 32  1  0
  4 33  1  0
  4 34  1  0
  8 35  1  0
  8 36  1  0
  9 37  1  0
  9 38  1  0
 10 39  1  0
 10 40  1  0
 11 41  1  0
 11 42  1  0
 12 43  1  1
 13 44  1  0
 13 45  1  0
 15 46  1  0
 15 47  1  0
 17 48  1  0
 18 49  1  0
 19 50  1  0
 20 51  1  0
 21 52  1  0
 23 53  1  0
 24 54  1  0
 26 55  1  0
 27 56  1  0
 28 57  1  0
 29 58  1  0
M  END
>  <smiles>  (10) 
O=C(NCC(=O)N1CCCC[C@H]1COCc1ccccc1)c1ccc2ccccc2n1

>  <score_type>  (10) 
oracle

>  <origin>  (10) 
autodockgpu

>  <m_score__min__energy>  (10) 
-9.1799999999999997

>  <m_primary>  (10) 
energy

>  <rmsd>  (10) 
2.278790687690012

>  <m_score__min__rmsd>  (10) 
2.278790687690012

>  <meeko>  (10) 
{"free_energy": -8.32, "intermolecular_energy": -10.71, "internal_energy": -2.18, "cluster_size": 23, "cluster_id": 1, "rank_in_cluster": 16}

>  <energy>  (10) 
-8.62

>  <cluster_rmsd>  (10) 
1.12

>  <cluster>  (10) 
1

$$$$

     RDKit          3D

 58 61  0  0  0  0  0  0  0  0999 V2000
  139.4520   74.5140  221.9370 O   0  0  0  0  0  0  0  0  0  0  0  0
  140.6020   74.9430  221.6780 C   0  0  0  0  0  0  0  0  0  0  0  0
  140.8520   76.3350  221.8780 N   0  0  0  0  0  0  0  0  0  0  0  0
  139.9200   77.2730  222.3400 C   0  0  0  0  0  0  0  0  0  0  0  0
  140.3000   78.5910  222.8270 C   0  0  0  0  0  0  0  0  0  0  0  0
  139.5110   79.0010  223.8010 O   0  0  0  0  0  0  0  0  0  0  0  0
  141.3010   79.4900  222.4860 N   0  0  0  0  0  0  0  0  0  0  0  0
  142.7110   79.4450  222.7200 C   0  0  0  0  0  0  0  0  0  0  0  0
  143.0070   80.5220  223.8040 C   0  0  0  0  0  0  0  0  0  0  0  0
  142.0160   81.6330  223.6390 C   0  0  0  0  0  0  0  0  0  0  0  0
  141.7980   81.7700  222.1350 C   0  0  0  0  0  0  0  0  0  0  0  0
  140.8420   80.6960  221.7120 C   0  0  1  0  0  0  0  0  0  0  0  0
  141.0080   80.4260  220.2430 C   0  0  0  0  0  0  0  0  0  0  0  0
  140.0900   79.7540  219.6110 O   0  0  0  0  0  0  0  0  0  0  0  0
  139.8770   78.4940  219.3280 C   0  0  0  0  0  0  0  0  0  0  0  0
  141.0130   77.6250  218.9570 C   0  0  0  0  0  0  0  0  0  0  0  0
  142.2960   77.7380  219.4100 C   0  0  0  0  0  0  0  0  0  0  0  0
  143.3090   76.8640  219.0290 C   0  0  0  0  0  0  0  0  0  0  0  0
  143.0440   75.8410  218.1690 C   0  0  0  0  0  0  0  0  0  0  0  0
  141.7690   75.6940  217.6930 C   0  0  0  0  0  0  0  0  0  0  0  0
  140.7640   76.5650  218.0740 C   0  0  0  0  0  0  0  0  0  0  0  0
  141.6590   74.0420  221.1860 C   0  0  0  0  0  0  0  0  0  0  0  0
  141.3200   72.7670  220.8370 C   0  0  0  0  0  0  0  0  0  0  0  0
  142.3440   71.9390  220.3750 C   0  0  0  0  0  0  0  0  0  0  0  0
  143.6410   72.4090  220.2820 C   0  0  0  0  0  0  0  0  0  0  0  0
  144.6620   71.5780  219.8190 C   0  0  0  0  0  0  0  0  0  0  0  0
  145.9480   72.0890  219.7420 C   0  0  0  0  0  0  0  0  0  0  0  0
  146.2000   73.3950  220.1180 C   0  0  0  0  0  0  0  0  0  0  0  0
  145.1960   74.2350  220.5810 C   0  0  0  0  0  0  0  0  0  0  0  0
  143.9110   73.7080  220.6530 C   0  0  0  0  0  0  0  0  0  0  0  0
  142.9060   74.4810  221.0930 N   0  0  0  0  0  0  0  0  0  0  0  0
  141.8490   76.6330  221.6390 H   0  0  0  0  0  0  0  0  0  0  0  0
  139.2248   77.4466  221.5054 H   0  0  0  0  0  0  0  0  0  0  0  0
  139.5602   76.7920  223.2615 H   0  0  0  0  0  0  0  0  0  0  0  0
  143.0057   78.4489  223.0819 H   0  0  0  0  0  0  0  0  0  0  0  0
  143.2765   79.6401  221.7969 H   0  0  0  0  0  0  0  0  0  0  0  0
  142.9076   80.0795  224.8061 H   0  0  0  0  0  0  0  0  0  0  0  0
  144.0317   80.9054  223.6904 H   0  0  0  0  0  0  0  0  0  0  0  0
  141.0708   81.3820  224.1425 H   0  0  0  0  0  0  0  0  0  0  0  0
  142.3790   82.5711  224.0843 H   0  0  0  0  0  0  0  0  0  0  0  0
  141.3746   82.7592  221.9066 H   0  0  0  0  0  0  0  0  0  0  0  0
  142.7523   81.6692  221.5972 H   0  0  0  0  0  0  0  0  0  0  0  0
  139.7896   80.9603  221.8927 H   0  0  0  0  0  0  0  0  0  0  0  0
  141.0908   81.4031  219.7445 H   0  0  0  0  0  0  0  0  0  0  0  0
  141.8894   79.7695  220.1969 H   0  0  0  0  0  0  0  0  0  0  0  0
  139.4066   78.0431  220.2142 H   0  0  0  0  0  0  0  0  0  0  0  0
  139.2755   78.5362  218.4080 H   0  0  0  0  0  0  0  0  0  0  0  0
  142.5390   78.5547  220.1057 H   0  0  0  0  0  0  0  0  0  0  0  0
  144.3270   76.9992  219.4232 H   0  0  0  0  0  0  0  0  0  0  0  0
  143.8399   75.1461  217.8629 H   0  0  0  0  0  0  0  0  0  0  0  0
  141.5405   74.8723  216.9983 H   0  0  0  0  0  0  0  0  0  0  0  0
  139.7485   76.4229  217.6759 H   0  0  0  0  0  0  0  0  0  0  0  0
  140.2836   72.4072  220.9165 H   0  0  0  0  0  0  0  0  0  0  0  0
  142.1172   70.9032  220.0822 H   0  0  0  0  0  0  0  0  0  0  0  0
  144.4508   70.5402  219.5217 H   0  0  0  0  0  0  0  0  0  0  0  0
  146.7701   71.4537  219.3808 H   0  0  0  0  0  0  0  0  0  0  0  0
  147.2277   73.7808  220.0483 H   0  0  0  0  0  0  0  0  0  0  0  0
  145.4079   75.2727  220.8781 H   0  0  0  0  0  0  0  0  0  0  0  0
  1  2  2  0
  2  3  1  0
  3  4  1  0
  4  5  1  0
  5  6  2  0
  5  7  1  0
  7  8  1  0
  8  9  1  0
  9 10  1  0
 10 11  1  0
 11 12  1  0
 12 13  1  0
 13 14  1  0
 14 15  1  0
 15 16  1  0
 16 17  2  0
 17 18  1  0
 18 19  2  0
 19 20  1  0
 20 21  2  0
  2 22  1  0
 22 23  2  0
 23 24  1  0
 24 25  2  0
 25 26  1  0
 26 27  2  0
 27 28  1  0
 28 29  2  0
 29 30  1  0
 30 31  2  0
 12  7  1  0
 21 16  1  0
 31 22  1  0
 30 25  1  0
  3 32  1  0
  4 33  1  0
  4 34  1  0
  8 35  1  0
  8 36  1  0
  9 37  1  0
  9 38  1  0
 10 39  1  0
 10 40  1  0
 11 41  1  0
 11 42  1  0
 12 43  1  6
 13 44  1  0
 13 45  1  0
 15 46  1  0
 15 47  1  0
 17 48  1  0
 18 49  1  0
 19 50  1  0
 20 51  1  0
 21 52  1  0
 23 53  1  0
 24 54  1  0
 26 55  1  0
 27 56  1  0
 28 57  1  0
 29 58  1  0
M  END
>  <smiles>  (11) 
O=C(NCC(=O)N1CCCC[C@H]1COCc1ccccc1)c1ccc2ccccc2n1

>  <score_type>  (11) 
oracle

>  <origin>  (11) 
autodockgpu

>  <m_score__min__energy>  (11) 
-9.1799999999999997

>  <m_primary>  (11) 
energy

>  <rmsd>  (11) 
6.541712695493875

>  <m_score__min__rmsd>  (11) 
6.541712695493875

>  <meeko>  (11) 
{"free_energy": -6.9, "intermolecular_energy": -9.28, "internal_energy": -3.33, "cluster_size": 4, "cluster_id": 6, "rank_in_cluster": 3}

>  <energy>  (11) 
-8.6

>  <cluster_rmsd>  (11) 
1.09

>  <cluster>  (11) 
1

$$$$

     RDKit          3D

 58 61  0  0  0  0  0  0  0  0999 V2000
  141.4240   72.4620  221.9760 O   0  0  0  0  0  0  0  0  0  0  0  0
  140.3800   72.4780  222.6720 C   0  0  0  0  0  0  0  0  0  0  0  0
  139.3770   73.4400  222.3430 N   0  0  0  0  0  0  0  0  0  0  0  0
  139.4550   74.3770  221.3040 C   0  0  0  0  0  0  0  0  0  0  0  0
  140.6130   75.2350  221.0980 C   0  0  0  0  0  0  0  0  0  0  0  0
  140.9010   75.9390  222.1750 O   0  0  0  0  0  0  0  0  0  0  0  0
  141.4610   75.4620  220.0230 N   0  0  0  0  0  0  0  0  0  0  0  0
  141.6620   74.7140  218.8210 C   0  0  0  0  0  0  0  0  0  0  0  0
  143.0610   74.0460  218.9520 C   0  0  0  0  0  0  0  0  0  0  0  0
  143.9320   74.9480  219.7720 C   0  0  0  0  0  0  0  0  0  0  0  0
  143.5420   76.3690  219.3760 C   0  0  0  0  0  0  0  0  0  0  0  0
  142.2830   76.7190  220.1120 C   0  0  1  0  0  0  0  0  0  0  0  0
  141.5690   77.8230  219.3860 C   0  0  0  0  0  0  0  0  0  0  0  0
  140.3940   78.2010  219.8000 O   0  0  0  0  0  0  0  0  0  0  0  0
  139.9370   78.9400  220.7790 C   0  0  0  0  0  0  0  0  0  0  0  0
  140.8430   79.3480  221.8730 C   0  0  0  0  0  0  0  0  0  0  0  0
  140.9670   78.7360  223.0880 C   0  0  0  0  0  0  0  0  0  0  0  0
  141.8610   79.1700  224.0610 C   0  0  0  0  0  0  0  0  0  0  0  0
  142.6610   80.2470  223.8250 C   0  0  0  0  0  0  0  0  0  0  0  0
  142.5670   80.8860  222.6190 C   0  0  0  0  0  0  0  0  0  0  0  0
  141.6760   80.4530  221.6530 C   0  0  0  0  0  0  0  0  0  0  0  0
  140.1940   71.5370  223.7890 C   0  0  0  0  0  0  0  0  0  0  0  0
  139.5250   70.3700  223.5560 C   0  0  0  0  0  0  0  0  0  0  0  0
  139.3650   69.5000  224.6360 C   0  0  0  0  0  0  0  0  0  0  0  0
  139.8700   69.8240  225.8820 C   0  0  0  0  0  0  0  0  0  0  0  0
  139.7090   68.9510  226.9580 C   0  0  0  0  0  0  0  0  0  0  0  0
  140.2310   69.3140  228.1900 C   0  0  0  0  0  0  0  0  0  0  0  0
  140.8950   70.5180  228.3340 C   0  0  0  0  0  0  0  0  0  0  0  0
  141.0640   71.3980  227.2730 C   0  0  0  0  0  0  0  0  0  0  0  0
  140.5350   71.0200  226.0440 C   0  0  0  0  0  0  0  0  0  0  0  0
  140.6730   71.8360  224.9880 N   0  0  0  0  0  0  0  0  0  0  0  0
  138.5170   73.4000  222.9730 H   0  0  0  0  0  0  0  0  0  0  0  0
  139.3297   73.8072  220.3714 H   0  0  0  0  0  0  0  0  0  0  0  0
  138.6900   75.1071  221.6069 H   0  0  0  0  0  0  0  0  0  0  0  0
  140.8816   73.9461  218.7151 H   0  0  0  0  0  0  0  0  0  0  0  0
  141.6094   75.3615  217.9333 H   0  0  0  0  0  0  0  0  0  0  0  0
  142.9630   73.0695  219.4489 H   0  0  0  0  0  0  0  0  0  0  0  0
  143.5036   73.8897  217.9572 H   0  0  0  0  0  0  0  0  0  0  0  0
  143.7507   74.7852  220.8447 H   0  0  0  0  0  0  0  0  0  0  0  0
  144.9999   74.7548  219.5926 H   0  0  0  0  0  0  0  0  0  0  0  0
  144.3445   77.0685  219.6529 H   0  0  0  0  0  0  0  0  0  0  0  0
  143.3841   76.4362  218.2895 H   0  0  0  0  0  0  0  0  0  0  0  0
  142.4651   77.0525  221.1443 H   0  0  0  0  0  0  0  0  0  0  0  0
  142.2224   78.7071  219.4236 H   0  0  0  0  0  0  0  0  0  0  0  0
  141.3705   77.3959  218.3919 H   0  0  0  0  0  0  0  0  0  0  0  0
  139.5473   79.8637  220.3263 H   0  0  0  0  0  0  0  0  0  0  0  0
  139.2113   78.2820  221.2794 H   0  0  0  0  0  0  0  0  0  0  0  0
  140.3334   77.8636  223.3059 H   0  0  0  0  0  0  0  0  0  0  0  0
  141.9222   78.6420  225.0240 H   0  0  0  0  0  0  0  0  0  0  0  0
  143.3697   80.5965  224.5902 H   0  0  0  0  0  0  0  0  0  0  0  0
  143.2085   81.7559  222.4145 H   0  0  0  0  0  0  0  0  0  0  0  0
  141.6205   80.9870  220.6929 H   0  0  0  0  0  0  0  0  0  0  0  0
  139.1288   70.1255  222.5594 H   0  0  0  0  0  0  0  0  0  0  0  0
  138.8324   68.5480  224.4946 H   0  0  0  0  0  0  0  0  0  0  0  0
  139.1793   67.9952  226.8317 H   0  0  0  0  0  0  0  0  0  0  0  0
  140.1167   68.6431  229.0542 H   0  0  0  0  0  0  0  0  0  0  0  0
  141.3022   70.7874  229.3197 H   0  0  0  0  0  0  0  0  0  0  0  0
  141.5939   72.3536  227.3996 H   0  0  0  0  0  0  0  0  0  0  0  0
  1  2  2  0
  2  3  1  0
  3  4  1  0
  4  5  1  0
  5  6  2  0
  5  7  1  0
  7  8  1  0
  8  9  1  0
  9 10  1  0
 10 11  1  0
 11 12  1  0
 12 13  1  0
 13 14  1  0
 14 15  1  0
 15 16  1  0
 16 17  2  0
 17 18  1  0
 18 19  2  0
 19 20  1  0
 20 21  2  0
  2 22  1  0
 22 23  2  0
 23 24  1  0
 24 25  2  0
 25 26  1  0
 26 27  2  0
 27 28  1  0
 28 29  2  0
 29 30  1  0
 30 31  2  0
 12  7  1  0
 21 16  1  0
 31 22  1  0
 30 25  1  0
  3 32  1  0
  4 33  1  0
  4 34  1  0
  8 35  1  0
  8 36  1  0
  9 37  1  0
  9 38  1  0
 10 39  1  0
 10 40  1  0
 11 41  1  0
 11 42  1  0
 12 43  1  1
 13 44  1  0
 13 45  1  0
 15 46  1  0
 15 47  1  0
 17 48  1  0
 18 49  1  0
 19 50  1  0
 20 51  1  0
 21 52  1  0
 23 53  1  0
 24 54  1  0
 26 55  1  0
 27 56  1  0
 28 57  1  0
 29 58  1  0
M  END
>  <smiles>  (12) 
O=C(NCC(=O)N1CCCC[C@H]1COCc1ccccc1)c1ccc2ccccc2n1

>  <score_type>  (12) 
oracle

>  <origin>  (12) 
autodockgpu

>  <m_score__min__energy>  (12) 
-9.1799999999999997

>  <m_primary>  (12) 
energy

>  <rmsd>  (12) 
1.9432328624071018

>  <m_score__min__rmsd>  (12) 
1.9432328624071018

>  <meeko>  (12) 
{"free_energy": -9.06, "intermolecular_energy": -11.44, "internal_energy": -2.0, "cluster_size": 23, "cluster_id": 1, "rank_in_cluster": 3}

>  <energy>  (12) 
-8.58

>  <cluster_rmsd>  (12) 
1.47

>  <cluster>  (12) 
1

$$$$

     RDKit          3D

 58 61  0  0  0  0  0  0  0  0999 V2000
  140.6540   71.6060  221.2680 O   0  0  0  0  0  0  0  0  0  0  0  0
  140.2560   72.1320  222.3360 C   0  0  0  0  0  0  0  0  0  0  0  0
  139.8740   73.5080  222.2950 N   0  0  0  0  0  0  0  0  0  0  0  0
  139.9040   74.3300  221.1610 C   0  0  0  0  0  0  0  0  0  0  0  0
  141.1410   74.7360  220.5100 C   0  0  0  0  0  0  0  0  0  0  0  0
  142.1950   74.4990  221.2660 O   0  0  0  0  0  0  0  0  0  0  0  0
  141.4370   75.3080  219.2800 N   0  0  0  0  0  0  0  0  0  0  0  0
  141.2870   74.7950  217.9540 C   0  0  0  0  0  0  0  0  0  0  0  0
  142.7240   74.5020  217.4350 C   0  0  0  0  0  0  0  0  0  0  0  0
  143.6580   75.4880  218.0680 C   0  0  0  0  0  0  0  0  0  0  0  0
  142.8790   76.7980  218.1530 C   0  0  0  0  0  0  0  0  0  0  0  0
  141.9700   76.7140  219.3420 C   0  0  1  0  0  0  0  0  0  0  0  0
  140.8300   77.6770  219.1710 C   0  0  0  0  0  0  0  0  0  0  0  0
  141.0620   78.9560  219.2340 O   0  0  0  0  0  0  0  0  0  0  0  0
  141.8480   79.7340  219.9360 C   0  0  0  0  0  0  0  0  0  0  0  0
  141.9000   79.5890  221.4050 C   0  0  0  0  0  0  0  0  0  0  0  0
  142.5310   80.4310  222.2760 C   0  0  0  0  0  0  0  0  0  0  0  0
  142.5170   80.2370  223.6530 C   0  0  0  0  0  0  0  0  0  0  0  0
  141.8560   79.1740  224.1890 C   0  0  0  0  0  0  0  0  0  0  0  0
  141.2100   78.3080  223.3480 C   0  0  0  0  0  0  0  0  0  0  0  0
  141.2260   78.5030  221.9790 C   0  0  0  0  0  0  0  0  0  0  0  0
  140.1860   71.3590  223.5870 C   0  0  0  0  0  0  0  0  0  0  0  0
  139.6350   70.1110  223.5530 C   0  0  0  0  0  0  0  0  0  0  0  0
  139.5820   69.4040  224.7560 C   0  0  0  0  0  0  0  0  0  0  0  0
  140.0730   69.9630  225.9220 C   0  0  0  0  0  0  0  0  0  0  0  0
  140.0190   69.2530  227.1220 C   0  0  0  0  0  0  0  0  0  0  0  0
  140.5210   69.8500  228.2680 C   0  0  0  0  0  0  0  0  0  0  0  0
  141.0620   71.1200  228.2080 C   0  0  0  0  0  0  0  0  0  0  0  0
  141.1240   71.8410  227.0220 C   0  0  0  0  0  0  0  0  0  0  0  0
  140.6150   71.2280  225.8820 C   0  0  0  0  0  0  0  0  0  0  0  0
  140.6520   71.8830  224.7110 N   0  0  0  0  0  0  0  0  0  0  0  0
  139.5470   73.8930  223.2340 H   0  0  0  0  0  0  0  0  0  0  0  0
  139.3140   73.8087  220.3928 H   0  0  0  0  0  0  0  0  0  0  0  0
  139.5470   75.2859  221.5719 H   0  0  0  0  0  0  0  0  0  0  0  0
  140.6911   73.8705  217.9683 H   0  0  0  0  0  0  0  0  0  0  0  0
  140.7653   75.5128  217.3039 H   0  0  0  0  0  0  0  0  0  0  0  0
  143.0188   73.4789  217.7113 H   0  0  0  0  0  0  0  0  0  0  0  0
  142.7593   74.5931  216.3393 H   0  0  0  0  0  0  0  0  0  0  0  0
  143.9499   75.1493  219.0730 H   0  0  0  0  0  0  0  0  0  0  0  0
  144.5837   75.6029  217.4849 H   0  0  0  0  0  0  0  0  0  0  0  0
  143.5758   77.6406  218.2734 H   0  0  0  0  0  0  0  0  0  0  0  0
  142.2960   76.9588  217.2341 H   0  0  0  0  0  0  0  0  0  0  0  0
  142.4763   76.9509  220.2894 H   0  0  0  0  0  0  0  0  0  0  0  0
  140.3882   77.4792  218.1832 H   0  0  0  0  0  0  0  0  0  0  0  0
  140.1926   77.4844  220.0466 H   0  0  0  0  0  0  0  0  0  0  0  0
  142.8705   79.5740  219.5634 H   0  0  0  0  0  0  0  0  0  0  0  0
  141.4125   80.7339  219.7928 H   0  0  0  0  0  0  0  0  0  0  0  0
  143.0728   81.2986  221.8714 H   0  0  0  0  0  0  0  0  0  0  0  0
  143.0418   80.9448  224.3115 H   0  0  0  0  0  0  0  0  0  0  0  0
  141.8413   79.0141  225.2772 H   0  0  0  0  0  0  0  0  0  0  0  0
  140.6710   77.4455  223.7669 H   0  0  0  0  0  0  0  0  0  0  0  0
  140.6987   77.7908  221.3273 H   0  0  0  0  0  0  0  0  0  0  0  0
  139.2489   69.6802  222.6174 H   0  0  0  0  0  0  0  0  0  0  0  0
  139.1462   68.3942  224.7765 H   0  0  0  0  0  0  0  0  0  0  0  0
  139.5876   68.2418  227.1578 H   0  0  0  0  0  0  0  0  0  0  0  0
  140.4886   69.3117  229.2268 H   0  0  0  0  0  0  0  0  0  0  0  0
  141.4562   71.5748  229.1287 H   0  0  0  0  0  0  0  0  0  0  0  0
  141.5564   72.8518  226.9862 H   0  0  0  0  0  0  0  0  0  0  0  0
  1  2  2  0
  2  3  1  0
  3  4  1  0
  4  5  1  0
  5  6  2  0
  5  7  1  0
  7  8  1  0
  8  9  1  0
  9 10  1  0
 10 11  1  0
 11 12  1  0
 12 13  1  0
 13 14  1  0
 14 15  1  0
 15 16  1  0
 16 17  2  0
 17 18  1  0
 18 19  2  0
 19 20  1  0
 20 21  2  0
  2 22  1  0
 22 23  2  0
 23 24  1  0
 24 25  2  0
 25 26  1  0
 26 27  2  0
 27 28  1  0
 28 29  2  0
 29 30  1  0
 30 31  2  0
 12  7  1  0
 21 16  1  0
 31 22  1  0
 30 25  1  0
  3 32  1  0
  4 33  1  0
  4 34  1  0
  8 35  1  0
  8 36  1  0
  9 37  1  0
  9 38  1  0
 10 39  1  0
 10 40  1  0
 11 41  1  0
 11 42  1  0
 12 43  1  1
 13 44  1  0
 13 45  1  0
 15 46  1  0
 15 47  1  0
 17 48  1  0
 18 49  1  0
 19 50  1  0
 20 51  1  0
 21 52  1  0
 23 53  1  0
 24 54  1  0
 26 55  1  0
 27 56  1  0
 28 57  1  0
 29 58  1  0
M  END
>  <smiles>  (13) 
O=C(NCC(=O)N1CCCC[C@H]1COCc1ccccc1)c1ccc2ccccc2n1

>  <score_type>  (13) 
oracle

>  <origin>  (13) 
autodockgpu

>  <m_score__min__energy>  (13) 
-9.1799999999999997

>  <m_primary>  (13) 
energy

>  <rmsd>  (13) 
1.7581123122826205

>  <m_score__min__rmsd>  (13) 
1.7581123122826205

>  <meeko>  (13) 
{"free_energy": -8.34, "intermolecular_energy": -10.73, "internal_energy": -1.63, "cluster_size": 23, "cluster_id": 1, "rank_in_cluster": 15}

>  <energy>  (13) 
-8.42

>  <cluster_rmsd>  (13) 
1.91

>  <cluster>  (13) 
1

$$$$

     RDKit          3D

 58 61  0  0  0  0  0  0  0  0999 V2000
  139.0220   75.0390  221.9340 O   0  0  0  0  0  0  0  0  0  0  0  0
  140.1350   75.6180  221.9470 C   0  0  0  0  0  0  0  0  0  0  0  0
  141.2800   74.8640  221.5480 N   0  0  0  0  0  0  0  0  0  0  0  0
  141.2740   73.5240  221.1400 C   0  0  0  0  0  0  0  0  0  0  0  0
  142.2460   72.9770  220.2040 C   0  0  0  0  0  0  0  0  0  0  0  0
  141.8190   71.8590  219.6500 O   0  0  0  0  0  0  0  0  0  0  0  0
  143.5050   73.3800  219.7820 N   0  0  0  0  0  0  0  0  0  0  0  0
  144.3330   72.8890  218.7240 C   0  0  0  0  0  0  0  0  0  0  0  0
  145.5130   72.1400  219.4080 C   0  0  0  0  0  0  0  0  0  0  0  0
  145.7900   72.8080  220.7200 C   0  0  0  0  0  0  0  0  0  0  0  0
  145.5640   74.2970  220.4810 C   0  0  0  0  0  0  0  0  0  0  0  0
  144.0870   74.5490  220.5290 C   0  0  1  0  0  0  0  0  0  0  0  0
  143.7680   75.8140  219.7840 C   0  0  0  0  0  0  0  0  0  0  0  0
  143.1330   75.7420  218.6510 O   0  0  0  0  0  0  0  0  0  0  0  0
  142.5300   76.5920  217.8570 C   0  0  0  0  0  0  0  0  0  0  0  0
  142.2850   77.9740  218.3160 C   0  0  0  0  0  0  0  0  0  0  0  0
  142.9300   79.0960  217.8780 C   0  0  0  0  0  0  0  0  0  0  0  0
  142.6250   80.3700  218.3460 C   0  0  0  0  0  0  0  0  0  0  0  0
  141.6490   80.5420  219.2800 C   0  0  0  0  0  0  0  0  0  0  0  0
  140.9790   79.4420  219.7430 C   0  0  0  0  0  0  0  0  0  0  0  0
  141.2840   78.1770  219.2760 C   0  0  0  0  0  0  0  0  0  0  0  0
  140.2570   77.0260  222.3600 C   0  0  0  0  0  0  0  0  0  0  0  0
  139.1170   77.7330  222.6150 C   0  0  0  0  0  0  0  0  0  0  0  0
  139.2660   79.0650  223.0040 C   0  0  0  0  0  0  0  0  0  0  0  0
  140.5240   79.6280  223.1200 C   0  0  0  0  0  0  0  0  0  0  0  0
  140.6690   80.9600  223.5100 C   0  0  0  0  0  0  0  0  0  0  0  0
  141.9480   81.4840  223.6140 C   0  0  0  0  0  0  0  0  0  0  0  0
  143.0470   80.6930  223.3360 C   0  0  0  0  0  0  0  0  0  0  0  0
  142.9210   79.3660  222.9470 C   0  0  0  0  0  0  0  0  0  0  0  0
  141.6310   78.8550  222.8470 C   0  0  0  0  0  0  0  0  0  0  0  0
  141.4560   77.5770  222.4760 N   0  0  0  0  0  0  0  0  0  0  0  0
  142.1940   75.4150  221.5830 H   0  0  0  0  0  0  0  0  0  0  0  0
  141.3683   72.9267  222.0589 H   0  0  0  0  0  0  0  0  0  0  0  0
  140.3477   73.4776  220.5485 H   0  0  0  0  0  0  0  0  0  0  0  0
  143.7639   72.1994  218.0832 H   0  0  0  0  0  0  0  0  0  0  0  0
  144.6947   73.7081  218.0851 H   0  0  0  0  0  0  0  0  0  0  0  0
  145.2396   71.0878  219.5757 H   0  0  0  0  0  0  0  0  0  0  0  0
  146.4069   72.1719  218.7678 H   0  0  0  0  0  0  0  0  0  0  0  0
  145.1021   72.4349  221.4931 H   0  0  0  0  0  0  0  0  0  0  0  0
  146.8121   72.6039  221.0716 H   0  0  0  0  0  0  0  0  0  0  0  0
  146.0693   74.8826  221.2632 H   0  0  0  0  0  0  0  0  0  0  0  0
  145.9737   74.5964  219.5050 H   0  0  0  0  0  0  0  0  0  0  0  0
  143.7008   74.6522  221.5538 H   0  0  0  0  0  0  0  0  0  0  0  0
  143.1579   76.4366  220.4550 H   0  0  0  0  0  0  0  0  0  0  0  0
  144.7561   76.2083  219.5045 H   0  0  0  0  0  0  0  0  0  0  0  0
  143.1388   76.6624  216.9435 H   0  0  0  0  0  0  0  0  0  0  0  0
  141.5182   76.1730  217.7539 H   0  0  0  0  0  0  0  0  0  0  0  0
  143.7235   78.9874  217.1239 H   0  0  0  0  0  0  0  0  0  0  0  0
  143.1741   81.2416  217.9602 H   0  0  0  0  0  0  0  0  0  0  0  0
  141.4037   81.5464  219.6554 H   0  0  0  0  0  0  0  0  0  0  0  0
  140.1874   79.5661  220.4966 H   0  0  0  0  0  0  0  0  0  0  0  0
  140.7291   77.3111  219.6662 H   0  0  0  0  0  0  0  0  0  0  0  0
  138.1230   77.2721  222.5179 H   0  0  0  0  0  0  0  0  0  0  0  0
  138.3749   79.6726  223.2203 H   0  0  0  0  0  0  0  0  0  0  0  0
  139.7877   81.5804  223.7300 H   0  0  0  0  0  0  0  0  0  0  0  0
  142.0888   82.5316  223.9184 H   0  0  0  0  0  0  0  0  0  0  0  0
  144.0531   81.1285  223.4258 H   0  0  0  0  0  0  0  0  0  0  0  0
  143.8027   78.7459  222.7275 H   0  0  0  0  0  0  0  0  0  0  0  0
  1  2  2  0
  2  3  1  0
  3  4  1  0
  4  5  1  0
  5  6  2  0
  5  7  1  0
  7  8  1  0
  8  9  1  0
  9 10  1  0
 10 11  1  0
 11 12  1  0
 12 13  1  0
 13 14  1  0
 14 15  1  0
 15 16  1  0
 16 17  2  0
 17 18  1  0
 18 19  2  0
 19 20  1  0
 20 21  2  0
  2 22  1  0
 22 23  2  0
 23 24  1  0
 24 25  2  0
 25 26  1  0
 26 27  2  0
 27 28  1  0
 28 29  2  0
 29 30  1  0
 30 31  2  0
 12  7  1  0
 21 16  1  0
 31 22  1  0
 30 25  1  0
  3 32  1  0
  4 33  1  0
  4 34  1  0
  8 35  1  0
  8 36  1  0
  9 37  1  0
  9 38  1  0
 10 39  1  0
 10 40  1  0
 11 41  1  0
 11 42  1  0
 12 43  1  1
 13 44  1  0
 13 45  1  0
 15 46  1  0
 15 47  1  0
 17 48  1  0
 18 49  1  0
 19 50  1  0
 20 51  1  0
 21 52  1  0
 23 53  1  0
 24 54  1  0
 26 55  1  0
 27 56  1  0
 28 57  1  0
 29 58  1  0
M  END
>  <smiles>  (14) 
O=C(NCC(=O)N1CCCC[C@H]1COCc1ccccc1)c1ccc2ccccc2n1

>  <score_type>  (14) 
oracle

>  <origin>  (14) 
autodockgpu

>  <m_score__min__energy>  (14) 
-9.1799999999999997

>  <m_primary>  (14) 
energy

>  <rmsd>  (14) 
7.600275474971232

>  <m_score__min__rmsd>  (14) 
7.600275474971232

>  <meeko>  (14) 
{"free_energy": -7.3, "intermolecular_energy": -9.69, "internal_energy": -3.23, "cluster_size": 11, "cluster_id": 5, "rank_in_cluster": 3}

>  <energy>  (14) 
-8.36

>  <cluster_rmsd>  (14) 
1.23

>  <cluster>  (14) 
1

$$$$

     RDKit          3D

 58 61  0  0  0  0  0  0  0  0999 V2000
  139.4820   70.9450  221.3720 O   0  0  0  0  0  0  0  0  0  0  0  0
  139.6120   71.5290  222.4750 C   0  0  0  0  0  0  0  0  0  0  0  0
  139.6730   72.9550  222.4670 N   0  0  0  0  0  0  0  0  0  0  0  0
  139.6010   73.7700  221.3300 C   0  0  0  0  0  0  0  0  0  0  0  0
  140.4010   74.9740  221.1670 C   0  0  0  0  0  0  0  0  0  0  0  0
  140.6120   75.5840  222.3170 O   0  0  0  0  0  0  0  0  0  0  0  0
  140.9790   75.6030  220.0730 N   0  0  0  0  0  0  0  0  0  0  0  0
  141.4400   75.0700  218.8280 C   0  0  0  0  0  0  0  0  0  0  0  0
  142.9940   75.1420  218.8730 C   0  0  0  0  0  0  0  0  0  0  0  0
  143.3810   76.3290  219.7020 C   0  0  0  0  0  0  0  0  0  0  0  0
  142.3440   77.4040  219.3920 C   0  0  0  0  0  0  0  0  0  0  0  0
  141.1140   77.0970  220.1920 C   0  0  1  0  0  0  0  0  0  0  0  0
  139.9220   77.7480  219.5490 C   0  0  0  0  0  0  0  0  0  0  0  0
  139.3680   78.7740  220.1260 O   0  0  0  0  0  0  0  0  0  0  0  0
  139.2020   79.1810  221.3600 C   0  0  0  0  0  0  0  0  0  0  0  0
  140.3780   79.5500  222.1740 C   0  0  0  0  0  0  0  0  0  0  0  0
  141.1290   80.6830  222.0380 C   0  0  0  0  0  0  0  0  0  0  0  0
  142.2130   80.9700  222.8600 C   0  0  0  0  0  0  0  0  0  0  0  0
  142.5690   80.1070  223.8520 C   0  0  0  0  0  0  0  0  0  0  0  0
  141.8410   78.9610  224.0200 C   0  0  0  0  0  0  0  0  0  0  0  0
  140.7630   78.6770  223.2010 C   0  0  0  0  0  0  0  0  0  0  0  0
  139.6990   70.7700  223.7340 C   0  0  0  0  0  0  0  0  0  0  0  0
  139.2390   69.4850  223.7540 C   0  0  0  0  0  0  0  0  0  0  0  0
  139.3340   68.7920  224.9630 C   0  0  0  0  0  0  0  0  0  0  0  0
  139.8750   69.4000  226.0810 C   0  0  0  0  0  0  0  0  0  0  0  0
  139.9700   68.7050  227.2870 C   0  0  0  0  0  0  0  0  0  0  0  0
  140.5190   69.3510  228.3830 C   0  0  0  0  0  0  0  0  0  0  0  0
  140.9590   70.6570  228.2710 C   0  0  0  0  0  0  0  0  0  0  0  0
  140.8730   71.3630  227.0780 C   0  0  0  0  0  0  0  0  0  0  0  0
  140.3190   70.7010  225.9870 C   0  0  0  0  0  0  0  0  0  0  0  0
  140.2150   71.3410  224.8120 N   0  0  0  0  0  0  0  0  0  0  0  0
  139.7840   73.3880  223.4370 H   0  0  0  0  0  0  0  0  0  0  0  0
  139.8504   73.1224  220.4765 H   0  0  0  0  0  0  0  0  0  0  0  0
  138.5883   74.1893  221.4232 H   0  0  0  0  0  0  0  0  0  0  0  0
  141.1098   74.0269  218.7143 H   0  0  0  0  0  0  0  0  0  0  0  0
  141.0372   75.6370  217.9758 H   0  0  0  0  0  0  0  0  0  0  0  0
  143.3969   74.2239  219.3254 H   0  0  0  0  0  0  0  0  0  0  0  0
  143.4008   75.2387  217.8556 H   0  0  0  0  0  0  0  0  0  0  0  0
  143.3603   76.0731  220.7716 H   0  0  0  0  0  0  0  0  0  0  0  0
  144.4011   76.6702  219.4717 H   0  0  0  0  0  0  0  0  0  0  0  0
  142.7352   78.3933  219.6717 H   0  0  0  0  0  0  0  0  0  0  0  0
  142.1109   77.4150  218.3170 H   0  0  0  0  0  0  0  0  0  0  0  0
  141.1764   77.4514  221.2315 H   0  0  0  0  0  0  0  0  0  0  0  0
  140.2366   78.0747  218.5468 H   0  0  0  0  0  0  0  0  0  0  0  0
  139.1443   76.9715  219.5962 H   0  0  0  0  0  0  0  0  0  0  0  0
  138.5520   80.0674  221.3187 H   0  0  0  0  0  0  0  0  0  0  0  0
  138.8056   78.2915  221.8716 H   0  0  0  0  0  0  0  0  0  0  0  0
  140.8651   81.3982  221.2450 H   0  0  0  0  0  0  0  0  0  0  0  0
  142.7852   81.8972  222.7087 H   0  0  0  0  0  0  0  0  0  0  0  0
  143.4258   80.3274  224.5057 H   0  0  0  0  0  0  0  0  0  0  0  0
  142.1168   78.2554  224.8176 H   0  0  0  0  0  0  0  0  0  0  0  0
  140.1965   77.7474  223.3588 H   0  0  0  0  0  0  0  0  0  0  0  0
  138.8116   69.0151  222.8560 H   0  0  0  0  0  0  0  0  0  0  0  0
  138.9755   67.7540  225.0263 H   0  0  0  0  0  0  0  0  0  0  0  0
  139.6166   67.6663  227.3661 H   0  0  0  0  0  0  0  0  0  0  0  0
  140.6050   68.8236  229.3445 H   0  0  0  0  0  0  0  0  0  0  0  0
  141.3903   71.1519  229.1536 H   0  0  0  0  0  0  0  0  0  0  0  0
  141.2278   72.4012  226.9992 H   0  0  0  0  0  0  0  0  0  0  0  0
  1  2  2  0
  2  3  1  0
  3  4  1  0
  4  5  1  0
  5  6  2  0
  5  7  1  0
  7  8  1  0
  8  9  1  0
  9 10  1  0
 10 11  1  0
 11 12  1  0
 12 13  1  0
 13 14  1  0
 14 15  1  0
 15 16  1  0
 16 17  2  0
 17 18  1  0
 18 19  2  0
 19 20  1  0
 20 21  2  0
  2 22  1  0
 22 23  2  0
 23 24  1  0
 24 25  2  0
 25 26  1  0
 26 27  2  0
 27 28  1  0
 28 29  2  0
 29 30  1  0
 30 31  2  0
 12  7  1  0
 21 16  1  0
 31 22  1  0
 30 25  1  0
  3 32  1  0
  4 33  1  0
  4 34  1  0
  8 35  1  0
  8 36  1  0
  9 37  1  0
  9 38  1  0
 10 39  1  0
 10 40  1  0
 11 41  1  0
 11 42  1  0
 12 43  1  1
 13 44  1  0
 13 45  1  0
 15 46  1  0
 15 47  1  0
 17 48  1  0
 18 49  1  0
 19 50  1  0
 20 51  1  0
 21 52  1  0
 23 53  1  0
 24 54  1  0
 26 55  1  0
 27 56  1  0
 28 57  1  0
 29 58  1  0
M  END
>  <smiles>  (15) 
O=C(NCC(=O)N1CCCC[C@H]1COCc1ccccc1)c1ccc2ccccc2n1

>  <score_type>  (15) 
oracle

>  <origin>  (15) 
autodockgpu

>  <m_score__min__energy>  (15) 
-9.1799999999999997

>  <m_primary>  (15) 
energy

>  <rmsd>  (15) 
1.644549794931029

>  <m_score__min__rmsd>  (15) 
1.644549794931029

>  <meeko>  (15) 
{"free_energy": -8.6, "intermolecular_energy": -10.99, "internal_energy": -2.23, "cluster_size": 23, "cluster_id": 1, "rank_in_cluster": 11}

>  <energy>  (15) 
-8.34

>  <cluster_rmsd>  (15) 
0.87

>  <cluster>  (15) 
1

$$$$

     RDKit          3D

 58 61  0  0  0  0  0  0  0  0999 V2000
  138.6020   70.5540  221.5270 O   0  0  0  0  0  0  0  0  0  0  0  0
  138.8920   71.2810  222.5080 C   0  0  0  0  0  0  0  0  0  0  0  0
  138.7840   72.6950  222.3410 N   0  0  0  0  0  0  0  0  0  0  0  0
  138.3790   73.3500  221.1710 C   0  0  0  0  0  0  0  0  0  0  0  0
  139.3170   73.8200  220.1620 C   0  0  0  0  0  0  0  0  0  0  0  0
  138.7730   74.7210  219.3660 O   0  0  0  0  0  0  0  0  0  0  0  0
  140.6410   73.5240  219.8680 N   0  0  0  0  0  0  0  0  0  0  0  0
  141.2070   72.7080  218.8390 C   0  0  0  0  0  0  0  0  0  0  0  0
  141.7540   71.4340  219.5440 C   0  0  0  0  0  0  0  0  0  0  0  0
  142.1940   71.8190  220.9240 C   0  0  0  0  0  0  0  0  0  0  0  0
  142.7910   73.2170  220.7920 C   0  0  0  0  0  0  0  0  0  0  0  0
  141.6570   74.1960  220.7510 C   0  0  1  0  0  0  0  0  0  0  0  0
  142.1150   75.4660  220.0910 C   0  0  0  0  0  0  0  0  0  0  0  0
  142.1430   76.5690  220.7810 O   0  0  0  0  0  0  0  0  0  0  0  0
  141.5080   77.7130  220.7460 C   0  0  0  0  0  0  0  0  0  0  0  0
  141.6700   78.6740  221.8570 C   0  0  0  0  0  0  0  0  0  0  0  0
  141.5120   78.4030  223.1860 C   0  0  0  0  0  0  0  0  0  0  0  0
  141.7020   79.3610  224.1770 C   0  0  0  0  0  0  0  0  0  0  0  0
  142.0620   80.6310  223.8420 C   0  0  0  0  0  0  0  0  0  0  0  0
  142.2310   80.9410  222.5200 C   0  0  0  0  0  0  0  0  0  0  0  0
  142.0410   79.9870  221.5370 C   0  0  0  0  0  0  0  0  0  0  0  0
  139.3300   70.6960  223.7860 C   0  0  0  0  0  0  0  0  0  0  0  0
  139.1990   69.3500  223.9680 C   0  0  0  0  0  0  0  0  0  0  0  0
  139.6230   68.8270  225.1910 C   0  0  0  0  0  0  0  0  0  0  0  0
  140.1500   69.6540  226.1650 C   0  0  0  0  0  0  0  0  0  0  0  0
  140.5730   69.1280  227.3860 C   0  0  0  0  0  0  0  0  0  0  0  0
  141.0950   69.9920  228.3350 C   0  0  0  0  0  0  0  0  0  0  0  0
  141.1900   71.3440  228.0640 C   0  0  0  0  0  0  0  0  0  0  0  0
  140.7750   71.8850  226.8550 C   0  0  0  0  0  0  0  0  0  0  0  0
  140.2520   71.0050  225.9130 C   0  0  0  0  0  0  0  0  0  0  0  0
  139.8370   71.4780  224.7280 N   0  0  0  0  0  0  0  0  0  0  0  0
  139.0450   73.2540  223.2120 H   0  0  0  0  0  0  0  0  0  0  0  0
  137.7001   72.6557  220.6542 H   0  0  0  0  0  0  0  0  0  0  0  0
  137.9922   74.2986  221.5717 H   0  0  0  0  0  0  0  0  0  0  0  0
  140.4369   72.4349  218.1026 H   0  0  0  0  0  0  0  0  0  0  0  0
  142.0044   73.2402  218.2997 H   0  0  0  0  0  0  0  0  0  0  0  0
  140.9629   70.6720  219.6038 H   0  0  0  0  0  0  0  0  0  0  0  0
  142.5992   71.0172  218.9766 H   0  0  0  0  0  0  0  0  0  0  0  0
  141.3349   71.8321  221.6108 H   0  0  0  0  0  0  0  0  0  0  0  0
  142.9227   71.1032  221.3323 H   0  0  0  0  0  0  0  0  0  0  0  0
  143.4389   73.4305  221.6549 H   0  0  0  0  0  0  0  0  0  0  0  0
  143.3971   73.2917  219.8771 H   0  0  0  0  0  0  0  0  0  0  0  0
  141.2711   74.4506  221.7491 H   0  0  0  0  0  0  0  0  0  0  0  0
  143.1383   75.2882  219.7288 H   0  0  0  0  0  0  0  0  0  0  0  0
  141.3447   75.6555  219.3289 H   0  0  0  0  0  0  0  0  0  0  0  0
  141.8293   78.2284  219.8289 H   0  0  0  0  0  0  0  0  0  0  0  0
  140.4496   77.4209  220.8120 H   0  0  0  0  0  0  0  0  0  0  0  0
  141.2225   77.3850  223.4856 H   0  0  0  0  0  0  0  0  0  0  0  0
  141.5610   79.0918  225.2342 H   0  0  0  0  0  0  0  0  0  0  0  0
  142.2141   81.3936  224.6200 H   0  0  0  0  0  0  0  0  0  0  0  0
  142.5219   81.9629  222.2353 H   0  0  0  0  0  0  0  0  0  0  0  0
  142.1840   80.2645  220.4822 H   0  0  0  0  0  0  0  0  0  0  0  0
  138.7770   68.7041  223.1839 H   0  0  0  0  0  0  0  0  0  0  0  0
  139.5369   67.7470  225.3812 H   0  0  0  0  0  0  0  0  0  0  0  0
  140.4938   68.0502  227.5909 H   0  0  0  0  0  0  0  0  0  0  0  0
  141.4344   69.6013  229.3057 H   0  0  0  0  0  0  0  0  0  0  0  0
  141.6079   72.0127  228.8310 H   0  0  0  0  0  0  0  0  0  0  0  0
  140.8561   72.9628  226.6506 H   0  0  0  0  0  0  0  0  0  0  0  0
  1  2  2  0
  2  3  1  0
  3  4  1  0
  4  5  1  0
  5  6  2  0
  5  7  1  0
  7  8  1  0
  8  9  1  0
  9 10  1  0
 10 11  1  0
 11 12  1  0
 12 13  1  0
 13 14  1  0
 14 15  1  0
 15 16  1  0
 16 17  2  0
 17 18  1  0
 18 19  2  0
 19 20  1  0
 20 21  2  0
  2 22  1  0
 22 23  2  0
 23 24  1  0
 24 25  2  0
 25 26  1  0
 26 27  2  0
 27 28  1  0
 28 29  2  0
 29 30  1  0
 30 31  2  0
 12  7  1  0
 21 16  1  0
 31 22  1  0
 30 25  1  0
  3 32  1  0
  4 33  1  0
  4 34  1  0
  8 35  1  0
  8 36  1  0
  9 37  1  0
  9 38  1  0
 10 39  1  0
 10 40  1  0
 11 41  1  0
 11 42  1  0
 12 43  1  1
 13 44  1  0
 13 45  1  0
 15 46  1  0
 15 47  1  0
 17 48  1  0
 18 49  1  0
 19 50  1  0
 20 51  1  0
 21 52  1  0
 23 53  1  0
 24 54  1  0
 26 55  1  0
 27 56  1  0
 28 57  1  0
 29 58  1  0
M  END
>  <smiles>  (16) 
O=C(NCC(=O)N1CCCC[C@H]1COCc1ccccc1)c1ccc2ccccc2n1

>  <score_type>  (16) 
oracle

>  <origin>  (16) 
autodockgpu

>  <m_score__min__energy>  (16) 
-9.1799999999999997

>  <m_primary>  (16) 
energy

>  <rmsd>  (16) 
2.4313407555592312

>  <m_score__min__rmsd>  (16) 
2.4313407555592312

>  <meeko>  (16) 
{"free_energy": -7.81, "intermolecular_energy": -10.19, "internal_energy": -2.06, "cluster_size": 23, "cluster_id": 1, "rank_in_cluster": 22}

>  <energy>  (16) 
-8.32

>  <cluster_rmsd>  (16) 
1.01

>  <cluster>  (16) 
1

$$$$

     RDKit          3D

 58 61  0  0  0  0  0  0  0  0999 V2000
  139.8710   71.6050  221.0880 O   0  0  0  0  0  0  0  0  0  0  0  0
  139.7990   72.1430  222.2200 C   0  0  0  0  0  0  0  0  0  0  0  0
  139.6190   73.5590  222.2710 N   0  0  0  0  0  0  0  0  0  0  0  0
  139.5130   74.4090  221.1620 C   0  0  0  0  0  0  0  0  0  0  0  0
  140.2480   74.1900  219.9240 C   0  0  0  0  0  0  0  0  0  0  0  0
  139.4380   74.0120  218.8980 O   0  0  0  0  0  0  0  0  0  0  0  0
  141.5970   74.1310  219.6050 N   0  0  0  0  0  0  0  0  0  0  0  0
  142.2810   73.3990  218.5840 C   0  0  0  0  0  0  0  0  0  0  0  0
  143.0680   72.2710  219.3110 C   0  0  0  0  0  0  0  0  0  0  0  0
  143.4580   72.7740  220.6670 C   0  0  0  0  0  0  0  0  0  0  0  0
  143.7850   74.2530  220.4790 C   0  0  0  0  0  0  0  0  0  0  0  0
  142.4910   75.0070  220.4410 C   0  0  1  0  0  0  0  0  0  0  0  0
  142.6940   76.3160  219.7320 C   0  0  0  0  0  0  0  0  0  0  0  0
  141.6700   77.0910  219.5190 O   0  0  0  0  0  0  0  0  0  0  0  0
  141.3270   78.3070  219.8600 C   0  0  0  0  0  0  0  0  0  0  0  0
  141.5950   78.7870  221.2310 C   0  0  0  0  0  0  0  0  0  0  0  0
  141.3660   78.0960  222.3860 C   0  0  0  0  0  0  0  0  0  0  0  0
  141.6660   78.6110  223.6430 C   0  0  0  0  0  0  0  0  0  0  0  0
  142.2120   79.8530  223.7630 C   0  0  0  0  0  0  0  0  0  0  0  0
  142.4570   80.5770  222.6270 C   0  0  0  0  0  0  0  0  0  0  0  0
  142.1580   80.0620  221.3790 C   0  0  0  0  0  0  0  0  0  0  0  0
  139.8990   71.3430  223.4520 C   0  0  0  0  0  0  0  0  0  0  0  0
  139.5180   70.0330  223.4130 C   0  0  0  0  0  0  0  0  0  0  0  0
  139.6240   69.3020  224.5970 C   0  0  0  0  0  0  0  0  0  0  0  0
  140.0960   69.8990  225.7520 C   0  0  0  0  0  0  0  0  0  0  0  0
  140.2000   69.1650  226.9340 C   0  0  0  0  0  0  0  0  0  0  0  0
  140.6780   69.8020  228.0690 C   0  0  0  0  0  0  0  0  0  0  0  0
  141.0400   71.1350  228.0170 C   0  0  0  0  0  0  0  0  0  0  0  0
  140.9430   71.8790  226.8480 C   0  0  0  0  0  0  0  0  0  0  0  0
  140.4610   71.2270  225.7190 C   0  0  0  0  0  0  0  0  0  0  0  0
  140.3490   71.9030  224.5650 N   0  0  0  0  0  0  0  0  0  0  0  0
  139.5670   73.9520  223.2610 H   0  0  0  0  0  0  0  0  0  0  0  0
  138.4483   74.4159  220.8856 H   0  0  0  0  0  0  0  0  0  0  0  0
  139.9868   75.3266  221.5409 H   0  0  0  0  0  0  0  0  0  0  0  0
  141.5586   72.9651  217.8770 H   0  0  0  0  0  0  0  0  0  0  0  0
  142.9547   74.0499  218.0074 H   0  0  0  0  0  0  0  0  0  0  0  0
  142.4322   71.3792  219.4130 H   0  0  0  0  0  0  0  0  0  0  0  0
  143.9639   71.9989  218.7337 H   0  0  0  0  0  0  0  0  0  0  0  0
  142.6255   72.6521  221.3756 H   0  0  0  0  0  0  0  0  0  0  0  0
  144.3138   72.2173  221.0765 H   0  0  0  0  0  0  0  0  0  0  0  0
  144.4013   74.6095  221.3175 H   0  0  0  0  0  0  0  0  0  0  0  0
  144.3467   74.4067  219.5458 H   0  0  0  0  0  0  0  0  0  0  0  0
  142.0867   75.2207  221.4414 H   0  0  0  0  0  0  0  0  0  0  0  0
  143.4160   76.8946  220.3270 H   0  0  0  0  0  0  0  0  0  0  0  0
  143.0099   76.0184  218.7212 H   0  0  0  0  0  0  0  0  0  0  0  0
  141.8510   78.9899  219.1751 H   0  0  0  0  0  0  0  0  0  0  0  0
  140.2285   78.2872  219.8063 H   0  0  0  0  0  0  0  0  0  0  0  0
  140.9259   77.0900  222.3199 H   0  0  0  0  0  0  0  0  0  0  0  0
  141.4615   78.0130  224.5433 H   0  0  0  0  0  0  0  0  0  0  0  0
  142.4516   80.2666  224.7537 H   0  0  0  0  0  0  0  0  0  0  0  0
  142.8975   81.5817  222.7082 H   0  0  0  0  0  0  0  0  0  0  0  0
  142.3664   80.6657  220.4834 H   0  0  0  0  0  0  0  0  0  0  0  0
  139.1431   69.5726  222.4870 H   0  0  0  0  0  0  0  0  0  0  0  0
  139.3297   68.2422  224.6119 H   0  0  0  0  0  0  0  0  0  0  0  0
  139.9092   68.1046  226.9648 H   0  0  0  0  0  0  0  0  0  0  0  0
  140.7694   69.2451  229.0132 H   0  0  0  0  0  0  0  0  0  0  0  0
  141.4163   71.6214  228.9290 H   0  0  0  0  0  0  0  0  0  0  0  0
  141.2352   72.9390  226.8171 H   0  0  0  0  0  0  0  0  0  0  0  0
  1  2  2  0
  2  3  1  0
  3  4  1  0
  4  5  1  0
  5  6  2  0
  5  7  1  0
  7  8  1  0
  8  9  1  0
  9 10  1  0
 10 11  1  0
 11 12  1  0
 12 13  1  0
 13 14  1  0
 14 15  1  0
 15 16  1  0
 16 17  2  0
 17 18  1  0
 18 19  2  0
 19 20  1  0
 20 21  2  0
  2 22  1  0
 22 23  2  0
 23 24  1  0
 24 25  2  0
 25 26  1  0
 26 27  2  0
 27 28  1  0
 28 29  2  0
 29 30  1  0
 30 31  2  0
 12  7  1  0
 21 16  1  0
 31 22  1  0
 30 25  1  0
  3 32  1  0
  4 33  1  0
  4 34  1  0
  8 35  1  0
  8 36  1  0
  9 37  1  0
  9 38  1  0
 10 39  1  0
 10 40  1  0
 11 41  1  0
 11 42  1  0
 12 43  1  1
 13 44  1  0
 13 45  1  0
 15 46  1  0
 15 47  1  0
 17 48  1  0
 18 49  1  0
 19 50  1  0
 20 51  1  0
 21 52  1  0
 23 53  1  0
 24 54  1  0
 26 55  1  0
 27 56  1  0
 28 57  1  0
 29 58  1  0
M  END
>  <smiles>  (17) 
O=C(NCC(=O)N1CCCC[C@H]1COCc1ccccc1)c1ccc2ccccc2n1

>  <score_type>  (17) 
oracle

>  <origin>  (17) 
autodockgpu

>  <m_score__min__energy>  (17) 
-9.1799999999999997

>  <m_primary>  (17) 
energy

>  <rmsd>  (17) 
2.4680203728629255

>  <m_score__min__rmsd>  (17) 
2.4680203728629255

>  <meeko>  (17) 
{"free_energy": -8.36, "intermolecular_energy": -10.75, "internal_energy": -2.2, "cluster_size": 23, "cluster_id": 1, "rank_in_cluster": 14}

>  <energy>  (17) 
-8.3

>  <cluster_rmsd>  (17) 
1.82

>  <cluster>  (17) 
1

$$$$

     RDKit          3D

 58 61  0  0  0  0  0  0  0  0999 V2000
  138.7690   75.4010  222.3960 O   0  0  0  0  0  0  0  0  0  0  0  0
  139.8870   75.9440  222.2240 C   0  0  0  0  0  0  0  0  0  0  0  0
  140.9120   75.1680  221.6020 N   0  0  0  0  0  0  0  0  0  0  0  0
  140.7810   73.8440  221.1630 C   0  0  0  0  0  0  0  0  0  0  0  0
  141.9230   72.9730  220.9220 C   0  0  0  0  0  0  0  0  0  0  0  0
  141.8610   71.8710  221.6430 O   0  0  0  0  0  0  0  0  0  0  0  0
  143.0410   73.0600  220.1050 N   0  0  0  0  0  0  0  0  0  0  0  0
  143.5740   72.1340  219.1550 C   0  0  0  0  0  0  0  0  0  0  0  0
  144.8780   71.5660  219.7850 C   0  0  0  0  0  0  0  0  0  0  0  0
  145.4820   72.6330  220.6460 C   0  0  0  0  0  0  0  0  0  0  0  0
  145.2200   73.9480  219.9180 C   0  0  0  0  0  0  0  0  0  0  0  0
  143.8050   74.3530  220.2010 C   0  0  1  0  0  0  0  0  0  0  0  0
  143.3250   75.2850  219.1250 C   0  0  0  0  0  0  0  0  0  0  0  0
  142.7780   76.4170  219.4600 O   0  0  0  0  0  0  0  0  0  0  0  0
  142.7420   77.6270  218.9610 C   0  0  0  0  0  0  0  0  0  0  0  0
  141.6490   78.5450  219.3410 C   0  0  0  0  0  0  0  0  0  0  0  0
  140.3210   78.2320  219.4110 C   0  0  0  0  0  0  0  0  0  0  0  0
  139.3520   79.1490  219.7990 C   0  0  0  0  0  0  0  0  0  0  0  0
  139.7060   80.4230  220.1300 C   0  0  0  0  0  0  0  0  0  0  0  0
  141.0270   80.7750  220.0730 C   0  0  0  0  0  0  0  0  0  0  0  0
  141.9890   79.8600  219.6860 C   0  0  0  0  0  0  0  0  0  0  0  0
  140.1340   77.3320  222.6480 C   0  0  0  0  0  0  0  0  0  0  0  0
  139.0670   78.1100  222.9910 C   0  0  0  0  0  0  0  0  0  0  0  0
  139.3340   79.4210  223.3880 C   0  0  0  0  0  0  0  0  0  0  0  0
  140.6340   79.8930  223.4260 C   0  0  0  0  0  0  0  0  0  0  0  0
  140.8980   81.2040  223.8250 C   0  0  0  0  0  0  0  0  0  0  0  0
  142.2140   81.6370  223.8490 C   0  0  0  0  0  0  0  0  0  0  0  0
  143.2340   80.7780  223.4840 C   0  0  0  0  0  0  0  0  0  0  0  0
  142.9890   79.4700  223.0860 C   0  0  0  0  0  0  0  0  0  0  0  0
  141.6630   79.0510  223.0660 C   0  0  0  0  0  0  0  0  0  0  0  0
  141.3750   77.7960  222.6890 N   0  0  0  0  0  0  0  0  0  0  0  0
  141.8370   75.6870  221.4860 H   0  0  0  0  0  0  0  0  0  0  0  0
  140.1643   73.3338  221.9176 H   0  0  0  0  0  0  0  0  0  0  0  0
  140.3934   73.9869  220.1435 H   0  0  0  0  0  0  0  0  0  0  0  0
  142.8553   71.3221  218.9696 H   0  0  0  0  0  0  0  0  0  0  0  0
  143.7753   72.6219  218.1899 H   0  0  0  0  0  0  0  0  0  0  0  0
  144.6425   70.6824  220.3964 H   0  0  0  0  0  0  0  0  0  0  0  0
  145.5841   71.2679  218.9959 H   0  0  0  0  0  0  0  0  0  0  0  0
  145.0051   72.6417  221.6372 H   0  0  0  0  0  0  0  0  0  0  0  0
  146.5571   72.4650  220.8067 H   0  0  0  0  0  0  0  0  0  0  0  0
  145.9111   74.7221  220.2829 H   0  0  0  0  0  0  0  0  0  0  0  0
  145.3763   73.8265  218.8360 H   0  0  0  0  0  0  0  0  0  0  0  0
  143.6881   74.8617  221.1693 H   0  0  0  0  0  0  0  0  0  0  0  0
  144.1949   75.5230  218.4952 H   0  0  0  0  0  0  0  0  0  0  0  0
  142.5038   74.7303  218.6475 H   0  0  0  0  0  0  0  0  0  0  0  0
  143.6841   78.1177  219.2469 H   0  0  0  0  0  0  0  0  0  0  0  0
  142.5701   77.4557  217.8881 H   0  0  0  0  0  0  0  0  0  0  0  0
  140.0057   77.2112  219.1492 H   0  0  0  0  0  0  0  0  0  0  0  0
  138.2954   78.8458  219.8392 H   0  0  0  0  0  0  0  0  0  0  0  0
  138.9440   81.1544  220.4372 H   0  0  0  0  0  0  0  0  0  0  0  0
  141.3277   81.7992  220.3385 H   0  0  0  0  0  0  0  0  0  0  0  0
  143.0434   80.1710  219.6482 H   0  0  0  0  0  0  0  0  0  0  0  0
  138.0390   77.7201  222.9561 H   0  0  0  0  0  0  0  0  0  0  0  0
  138.5042   80.0844  223.6730 H   0  0  0  0  0  0  0  0  0  0  0  0
  140.0790   81.8790  224.1142 H   0  0  0  0  0  0  0  0  0  0  0  0
  142.4477   82.6662  224.1591 H   0  0  0  0  0  0  0  0  0  0  0  0
  144.2718   81.1417  223.5096 H   0  0  0  0  0  0  0  0  0  0  0  0
  143.8085   78.7946  222.7990 H   0  0  0  0  0  0  0  0  0  0  0  0
  1  2  2  0
  2  3  1  0
  3  4  1  0
  4  5  1  0
  5  6  2  0
  5  7  1  0
  7  8  1  0
  8  9  1  0
  9 10  1  0
 10 11  1  0
 11 12  1  0
 12 13  1  0
 13 14  1  0
 14 15  1  0
 15 16  1  0
 16 17  2  0
 17 18  1  0
 18 19  2  0
 19 20  1  0
 20 21  2  0
  2 22  1  0
 22 23  2  0
 23 24  1  0
 24 25  2  0
 25 26  1  0
 26 27  2  0
 27 28  1  0
 28 29  2  0
 29 30  1  0
 30 31  2  0
 12  7  1  0
 21 16  1  0
 31 22  1  0
 30 25  1  0
  3 32  1  0
  4 33  1  0
  4 34  1  0
  8 35  1  0
  8 36  1  0
  9 37  1  0
  9 38  1  0
 10 39  1  0
 10 40  1  0
 11 41  1  0
 11 42  1  0
 12 43  1  1
 13 44  1  0
 13 45  1  0
 15 46  1  0
 15 47  1  0
 17 48  1  0
 18 49  1  0
 19 50  1  0
 20 51  1  0
 21 52  1  0
 23 53  1  0
 24 54  1  0
 26 55  1  0
 27 56  1  0
 28 57  1  0
 29 58  1  0
M  END
>  <smiles>  (18) 
O=C(NCC(=O)N1CCCC[C@H]1COCc1ccccc1)c1ccc2ccccc2n1

>  <score_type>  (18) 
oracle

>  <origin>  (18) 
autodockgpu

>  <m_score__min__energy>  (18) 
-9.1799999999999997

>  <m_primary>  (18) 
energy

>  <rmsd>  (18) 
7.6566665575863695

>  <m_score__min__rmsd>  (18) 
7.6566665575863695

>  <meeko>  (18) 
{"free_energy": -6.63, "intermolecular_energy": -9.02, "internal_energy": -3.9, "cluster_size": 11, "cluster_id": 5, "rank_in_cluster": 10}

>  <energy>  (18) 
-8.15

>  <cluster_rmsd>  (18) 
0.67

>  <cluster>  (18) 
1

$$$$

     RDKit          3D

 58 61  0  0  0  0  0  0  0  0999 V2000
  141.8530   72.9330  221.0240 O   0  0  0  0  0  0  0  0  0  0  0  0
  141.0670   73.7280  221.5930 C   0  0  0  0  0  0  0  0  0  0  0  0
  140.0260   73.1700  222.3970 N   0  0  0  0  0  0  0  0  0  0  0  0
  139.8010   71.8040  222.6080 C   0  0  0  0  0  0  0  0  0  0  0  0
  138.4830   71.2520  222.8830 C   0  0  0  0  0  0  0  0  0  0  0  0
  137.5920   72.1980  223.1100 O   0  0  0  0  0  0  0  0  0  0  0  0
  137.9760   69.9610  222.9520 N   0  0  0  0  0  0  0  0  0  0  0  0
  138.3720   68.7680  222.2710 C   0  0  0  0  0  0  0  0  0  0  0  0
  137.2460   68.4610  221.2420 C   0  0  0  0  0  0  0  0  0  0  0  0
  135.9490   68.9510  221.8110 C   0  0  0  0  0  0  0  0  0  0  0  0
  136.0280   68.6790  223.3110 C   0  0  0  0  0  0  0  0  0  0  0  0
  136.8490   69.7690  223.9310 C   0  0  1  0  0  0  0  0  0  0  0  0
  137.4130   69.2900  225.2380 C   0  0  0  0  0  0  0  0  0  0  0  0
  138.4560   68.5120  225.2350 O   0  0  0  0  0  0  0  0  0  0  0  0
  139.6720   68.5700  225.7180 C   0  0  0  0  0  0  0  0  0  0  0  0
  140.1230   69.7880  226.4210 C   0  0  0  0  0  0  0  0  0  0  0  0
  139.8950   70.0920  227.7330 C   0  0  0  0  0  0  0  0  0  0  0  0
  140.3720   71.2540  228.3300 C   0  0  0  0  0  0  0  0  0  0  0  0
  141.1020   72.1470  227.6050 C   0  0  0  0  0  0  0  0  0  0  0  0
  141.3530   71.8770  226.2870 C   0  0  0  0  0  0  0  0  0  0  0  0
  140.8760   70.7210  225.6960 C   0  0  0  0  0  0  0  0  0  0  0  0
  141.2120   75.1850  221.4390 C   0  0  0  0  0  0  0  0  0  0  0  0
  142.0000   75.6600  220.4310 C   0  0  0  0  0  0  0  0  0  0  0  0
  142.1170   77.0460  220.3120 C   0  0  0  0  0  0  0  0  0  0  0  0
  141.4550   77.8860  221.1890 C   0  0  0  0  0  0  0  0  0  0  0  0
  141.5740   79.2710  221.0660 C   0  0  0  0  0  0  0  0  0  0  0  0
  140.8930   80.0760  221.9650 C   0  0  0  0  0  0  0  0  0  0  0  0
  140.1160   79.5070  222.9570 C   0  0  0  0  0  0  0  0  0  0  0  0
  139.9860   78.1310  223.0930 C   0  0  0  0  0  0  0  0  0  0  0  0
  140.6760   77.3360  222.1830 C   0  0  0  0  0  0  0  0  0  0  0  0
  140.5820   76.0010  222.2720 N   0  0  0  0  0  0  0  0  0  0  0  0
  139.3940   73.9000  222.8520 H   0  0  0  0  0  0  0  0  0  0  0  0
  140.1604   71.2940  221.7021 H   0  0  0  0  0  0  0  0  0  0  0  0
  140.3126   71.6420  223.5682 H   0  0  0  0  0  0  0  0  0  0  0  0
  139.3296   68.9247  221.7529 H   0  0  0  0  0  0  0  0  0  0  0  0
  138.5113   67.9331  222.9735 H   0  0  0  0  0  0  0  0  0  0  0  0
  137.4562   68.9779  220.2940 H   0  0  0  0  0  0  0  0  0  0  0  0
  137.1923   67.3797  221.0471 H   0  0  0  0  0  0  0  0  0  0  0  0
  135.8297   70.0281  221.6221 H   0  0  0  0  0  0  0  0  0  0  0  0
  135.0869   68.4457  221.3513 H   0  0  0  0  0  0  0  0  0  0  0  0
  135.0173   68.6787  223.7451 H   0  0  0  0  0  0  0  0  0  0  0  0
  136.4867   67.6972  223.5001 H   0  0  0  0  0  0  0  0  0  0  0  0
  136.2734   70.6862  224.1246 H   0  0  0  0  0  0  0  0  0  0  0  0
  137.6819   70.1848  225.8186 H   0  0  0  0  0  0  0  0  0  0  0  0
  136.6149   68.6538  225.6484 H   0  0  0  0  0  0  0  0  0  0  0  0
  139.7733   67.7360  226.4280 H   0  0  0  0  0  0  0  0  0  0  0  0
  140.3059   68.5435  224.8194 H   0  0  0  0  0  0  0  0  0  0  0  0
  139.3096   69.3883  228.3429 H   0  0  0  0  0  0  0  0  0  0  0  0
  140.1592   71.4526  229.3908 H   0  0  0  0  0  0  0  0  0  0  0  0
  141.4827   73.0681  228.0704 H   0  0  0  0  0  0  0  0  0  0  0  0
  141.9419   72.5887  225.6898 H   0  0  0  0  0  0  0  0  0  0  0  0
  141.0924   70.5301  224.6345 H   0  0  0  0  0  0  0  0  0  0  0  0
  142.5209   74.9795  219.7414 H   0  0  0  0  0  0  0  0  0  0  0  0
  142.7412   77.4738  219.5137 H   0  0  0  0  0  0  0  0  0  0  0  0
  142.1946   79.7138  220.2730 H   0  0  0  0  0  0  0  0  0  0  0  0
  140.9708   81.1706  221.8892 H   0  0  0  0  0  0  0  0  0  0  0  0
  139.5842   80.1646  223.6604 H   0  0  0  0  0  0  0  0  0  0  0  0
  139.3646   77.6888  223.8857 H   0  0  0  0  0  0  0  0  0  0  0  0
  1  2  2  0
  2  3  1  0
  3  4  1  0
  4  5  1  0
  5  6  2  0
  5  7  1  0
  7  8  1  0
  8  9  1  0
  9 10  1  0
 10 11  1  0
 11 12  1  0
 12 13  1  0
 13 14  1  0
 14 15  1  0
 15 16  1  0
 16 17  2  0
 17 18  1  0
 18 19  2  0
 19 20  1  0
 20 21  2  0
  2 22  1  0
 22 23  2  0
 23 24  1  0
 24 25  2  0
 25 26  1  0
 26 27  2  0
 27 28  1  0
 28 29  2  0
 29 30  1  0
 30 31  2  0
 12  7  1  0
 21 16  1  0
 31 22  1  0
 30 25  1  0
  3 32  1  0
  4 33  1  0
  4 34  1  0
  8 35  1  0
  8 36  1  0
  9 37  1  0
  9 38  1  0
 10 39  1  0
 10 40  1  0
 11 41  1  0
 11 42  1  0
 12 43  1  1
 13 44  1  0
 13 45  1  0
 15 46  1  0
 15 47  1  0
 17 48  1  0
 18 49  1  0
 19 50  1  0
 20 51  1  0
 21 52  1  0
 23 53  1  0
 24 54  1  0
 26 55  1  0
 27 56  1  0
 28 57  1  0
 29 58  1  0
M  END
>  <smiles>  (19) 
O=C(NCC(=O)N1CCCC[C@H]1COCc1ccccc1)c1ccc2ccccc2n1

>  <score_type>  (19) 
oracle

>  <origin>  (19) 
autodockgpu

>  <m_score__min__energy>  (19) 
-9.1799999999999997

>  <m_primary>  (19) 
energy

>  <rmsd>  (19) 
8.346103007171125

>  <m_score__min__rmsd>  (19) 
8.346103007171125

>  <meeko>  (19) 
{"free_energy": -7.84, "intermolecular_energy": -10.22, "internal_energy": -2.48, "cluster_size": 5, "cluster_id": 2, "rank_in_cluster": 5}

>  <energy>  (19) 
-8.13

>  <cluster_rmsd>  (19) 
1.51

>  <cluster>  (19) 
1

$$$$

     RDKit          3D

 58 61  0  0  0  0  0  0  0  0999 V2000
  139.2180   70.8840  221.3730 O   0  0  0  0  0  0  0  0  0  0  0  0
  139.4470   71.4950  222.4440 C   0  0  0  0  0  0  0  0  0  0  0  0
  139.5100   72.9210  222.3940 N   0  0  0  0  0  0  0  0  0  0  0  0
  139.3380   73.7060  221.2460 C   0  0  0  0  0  0  0  0  0  0  0  0
  139.8740   75.0530  221.1210 C   0  0  0  0  0  0  0  0  0  0  0  0
  140.2900   75.5260  222.2800 O   0  0  0  0  0  0  0  0  0  0  0  0
  140.0380   75.9270  220.0550 N   0  0  0  0  0  0  0  0  0  0  0  0
  139.2090   76.9950  219.5910 C   0  0  0  0  0  0  0  0  0  0  0  0
  138.5780   76.5080  218.2550 C   0  0  0  0  0  0  0  0  0  0  0  0
  139.5540   75.5860  217.5890 C   0  0  0  0  0  0  0  0  0  0  0  0
  140.9350   76.1640  217.8850 C   0  0  0  0  0  0  0  0  0  0  0  0
  141.3140   75.7530  219.2760 C   0  0  1  0  0  0  0  0  0  0  0  0
  142.3490   76.7000  219.8140 C   0  0  0  0  0  0  0  0  0  0  0  0
  142.2770   77.9630  219.5080 O   0  0  0  0  0  0  0  0  0  0  0  0
  141.6970   79.0200  220.0180 C   0  0  0  0  0  0  0  0  0  0  0  0
  141.8980   79.3500  221.4440 C   0  0  0  0  0  0  0  0  0  0  0  0
  142.4850   80.4810  221.9350 C   0  0  0  0  0  0  0  0  0  0  0  0
  142.6190   80.7280  223.2970 C   0  0  0  0  0  0  0  0  0  0  0  0
  142.1570   79.8260  224.2070 C   0  0  0  0  0  0  0  0  0  0  0  0
  141.5620   78.6800  223.7540 C   0  0  0  0  0  0  0  0  0  0  0  0
  141.4300   78.4360  222.3990 C   0  0  0  0  0  0  0  0  0  0  0  0
  139.6440   70.7690  223.7100 C   0  0  0  0  0  0  0  0  0  0  0  0
  139.3100   69.4470  223.7620 C   0  0  0  0  0  0  0  0  0  0  0  0
  139.5080   68.7860  224.9760 C   0  0  0  0  0  0  0  0  0  0  0  0
  140.0230   69.4620  226.0680 C   0  0  0  0  0  0  0  0  0  0  0  0
  140.2200   68.7980  227.2800 C   0  0  0  0  0  0  0  0  0  0  0  0
  140.7380   69.5120  228.3490 C   0  0  0  0  0  0  0  0  0  0  0  0
  141.0480   70.8510  228.2040 C   0  0  0  0  0  0  0  0  0  0  0  0
  140.8590   71.5260  227.0060 C   0  0  0  0  0  0  0  0  0  0  0  0
  140.3370   70.7960  225.9430 C   0  0  0  0  0  0  0  0  0  0  0  0
  140.1360   71.4040  224.7630 N   0  0  0  0  0  0  0  0  0  0  0  0
  139.7080   73.3790  223.3380 H   0  0  0  0  0  0  0  0  0  0  0  0
  139.7716   73.1288  220.4161 H   0  0  0  0  0  0  0  0  0  0  0  0
  138.2557   73.9007  221.2719 H   0  0  0  0  0  0  0  0  0  0  0  0
  138.4213   77.2133  220.3271 H   0  0  0  0  0  0  0  0  0  0  0  0
  139.7894   77.9182  219.4463 H   0  0  0  0  0  0  0  0  0  0  0  0
  137.6390   75.9728  218.4593 H   0  0  0  0  0  0  0  0  0  0  0  0
  138.3571   77.3656  217.6025 H   0  0  0  0  0  0  0  0  0  0  0  0
  139.4663   74.5706  218.0029 H   0  0  0  0  0  0  0  0  0  0  0  0
  139.3685   75.5105  216.5074 H   0  0  0  0  0  0  0  0  0  0  0  0
  141.6678   75.7701  217.1654 H   0  0  0  0  0  0  0  0  0  0  0  0
  140.9197   77.2605  217.7985 H   0  0  0  0  0  0  0  0  0  0  0  0
  141.7253   74.7341  219.3282 H   0  0  0  0  0  0  0  0  0  0  0  0
  142.3062   76.6327  220.9111 H   0  0  0  0  0  0  0  0  0  0  0  0
  143.2809   76.3681  219.3330 H   0  0  0  0  0  0  0  0  0  0  0  0
  142.0468   79.8867  219.4379 H   0  0  0  0  0  0  0  0  0  0  0  0
  140.6258   78.7766  219.9604 H   0  0  0  0  0  0  0  0  0  0  0  0
  142.8677   81.2277  221.2237 H   0  0  0  0  0  0  0  0  0  0  0  0
  143.1001   81.6556  223.6408 H   0  0  0  0  0  0  0  0  0  0  0  0
  142.2602   80.0152  225.2857 H   0  0  0  0  0  0  0  0  0  0  0  0
  141.1835   77.9428  224.4774 H   0  0  0  0  0  0  0  0  0  0  0  0
  140.9480   77.5059  222.0636 H   0  0  0  0  0  0  0  0  0  0  0  0
  138.9020   68.9240  222.8845 H   0  0  0  0  0  0  0  0  0  0  0  0
  139.2526   67.7198  225.0649 H   0  0  0  0  0  0  0  0  0  0  0  0
  139.9697   67.7319  227.3843 H   0  0  0  0  0  0  0  0  0  0  0  0
  140.9027   69.0119  229.3148 H   0  0  0  0  0  0  0  0  0  0  0  0
  141.4575   71.3992  229.0653 H   0  0  0  0  0  0  0  0  0  0  0  0
  141.1109   72.5917  226.9016 H   0  0  0  0  0  0  0  0  0  0  0  0
  1  2  2  0
  2  3  1  0
  3  4  1  0
  4  5  1  0
  5  6  2  0
  5  7  1  0
  7  8  1  0
  8  9  1  0
  9 10  1  0
 10 11  1  0
 11 12  1  0
 12 13  1  0
 13 14  1  0
 14 15  1  0
 15 16  1  0
 16 17  2  0
 17 18  1  0
 18 19  2  0
 19 20  1  0
 20 21  2  0
  2 22  1  0
 22 23  2  0
 23 24  1  0
 24 25  2  0
 25 26  1  0
 26 27  2  0
 27 28  1  0
 28 29  2  0
 29 30  1  0
 30 31  2  0
 12  7  1  0
 21 16  1  0
 31 22  1  0
 30 25  1  0
  3 32  1  0
  4 33  1  0
  4 34  1  0
  8 35  1  0
  8 36  1  0
  9 37  1  0
  9 38  1  0
 10 39  1  0
 10 40  1  0
 11 41  1  0
 11 42  1  0
 12 43  1  6
 13 44  1  0
 13 45  1  0
 15 46  1  0
 15 47  1  0
 17 48  1  0
 18 49  1  0
 19 50  1  0
 20 51  1  0
 21 52  1  0
 23 53  1  0
 24 54  1  0
 26 55  1  0
 27 56  1  0
 28 57  1  0
 29 58  1  0
M  END
>  <smiles>  (20) 
O=C(NCC(=O)N1CCCC[C@H]1COCc1ccccc1)c1ccc2ccccc2n1

>  <score_type>  (20) 
oracle

>  <origin>  (20) 
autodockgpu

>  <m_score__min__energy>  (20) 
-9.1799999999999997

>  <m_primary>  (20) 
energy

>  <rmsd>  (20) 
1.6389083467509453

>  <m_score__min__rmsd>  (20) 
1.6389083467509453

>  <meeko>  (20) 
{"free_energy": -8.06, "intermolecular_energy": -10.45, "internal_energy": -2.3, "cluster_size": 23, "cluster_id": 1, "rank_in_cluster": 20}

>  <energy>  (20) 
-8.06

>  <cluster_rmsd>  (20) 
1.23

>  <cluster>  (20) 
1

$$$$

     RDKit          3D

 58 61  0  0  0  0  0  0  0  0999 V2000
  138.9750   74.9740  221.9890 O   0  0  0  0  0  0  0  0  0  0  0  0
  140.0960   75.5370  221.9820 C   0  0  0  0  0  0  0  0  0  0  0  0
  141.2250   74.7620  221.5790 N   0  0  0  0  0  0  0  0  0  0  0  0
  141.1950   73.4170  221.1880 C   0  0  0  0  0  0  0  0  0  0  0  0
  142.3220   72.7530  220.5500 C   0  0  0  0  0  0  0  0  0  0  0  0
  142.1550   71.4450  220.4970 O   0  0  0  0  0  0  0  0  0  0  0  0
  143.5130   73.2000  219.9950 N   0  0  0  0  0  0  0  0  0  0  0  0
  144.2180   72.7650  218.8300 C   0  0  0  0  0  0  0  0  0  0  0  0
  145.4860   72.0230  219.3400 C   0  0  0  0  0  0  0  0  0  0  0  0
  145.9050   72.6520  220.6330 C   0  0  0  0  0  0  0  0  0  0  0  0
  145.6210   74.1430  220.4770 C   0  0  0  0  0  0  0  0  0  0  0  0
  144.1560   74.3570  220.7100 C   0  0  1  0  0  0  0  0  0  0  0  0
  143.7250   75.6380  220.0550 C   0  0  0  0  0  0  0  0  0  0  0  0
  142.5500   75.7060  219.4990 O   0  0  0  0  0  0  0  0  0  0  0  0
  141.9950   76.4350  218.5650 C   0  0  0  0  0  0  0  0  0  0  0  0
  141.7940   77.8810  218.7870 C   0  0  0  0  0  0  0  0  0  0  0  0
  140.7930   78.4540  219.5200 C   0  0  0  0  0  0  0  0  0  0  0  0
  140.6840   79.8280  219.7000 C   0  0  0  0  0  0  0  0  0  0  0  0
  141.5960   80.6680  219.1360 C   0  0  0  0  0  0  0  0  0  0  0  0
  142.6150   80.1330  218.3950 C   0  0  0  0  0  0  0  0  0  0  0  0
  142.7210   78.7650  218.2170 C   0  0  0  0  0  0  0  0  0  0  0  0
  140.2420   76.9490  222.3760 C   0  0  0  0  0  0  0  0  0  0  0  0
  139.1160   77.6740  222.6350 C   0  0  0  0  0  0  0  0  0  0  0  0
  139.2880   79.0090  223.0050 C   0  0  0  0  0  0  0  0  0  0  0  0
  140.5560   79.5550  223.0980 C   0  0  0  0  0  0  0  0  0  0  0  0
  140.7240   80.8900  223.4690 C   0  0  0  0  0  0  0  0  0  0  0  0
  142.0110   81.3970  223.5510 C   0  0  0  0  0  0  0  0  0  0  0  0
  143.0960   80.5870  223.2690 C   0  0  0  0  0  0  0  0  0  0  0  0
  142.9460   79.2570  222.9000 C   0  0  0  0  0  0  0  0  0  0  0  0
  141.6480   78.7630  222.8210 C   0  0  0  0  0  0  0  0  0  0  0  0
  141.4510   77.4840  222.4690 N   0  0  0  0  0  0  0  0  0  0  0  0
  142.1470   75.3000  221.5960 H   0  0  0  0  0  0  0  0  0  0  0  0
  140.9801   72.8407  222.1000 H   0  0  0  0  0  0  0  0  0  0  0  0
  140.4610   73.4416  220.3691 H   0  0  0  0  0  0  0  0  0  0  0  0
  143.5903   72.0835  218.2371 H   0  0  0  0  0  0  0  0  0  0  0  0
  144.4842   73.6139  218.1830 H   0  0  0  0  0  0  0  0  0  0  0  0
  145.2563   70.9592  219.5001 H   0  0  0  0  0  0  0  0  0  0  0  0
  146.2957   72.0991  218.5993 H   0  0  0  0  0  0  0  0  0  0  0  0
  145.3229   72.2359  221.4685 H   0  0  0  0  0  0  0  0  0  0  0  0
  146.9658   72.4612  220.8527 H   0  0  0  0  0  0  0  0  0  0  0  0
  146.2045   74.7142  221.2140 H   0  0  0  0  0  0  0  0  0  0  0  0
  145.9040   74.4849  219.4705 H   0  0  0  0  0  0  0  0  0  0  0  0
  143.8930   74.4159  221.7765 H   0  0  0  0  0  0  0  0  0  0  0  0
  143.7603   76.4207  220.8271 H   0  0  0  0  0  0  0  0  0  0  0  0
  144.4198   75.7441  219.2088 H   0  0  0  0  0  0  0  0  0  0  0  0
  142.6224   76.3345  217.6671 H   0  0  0  0  0  0  0  0  0  0  0  0
  140.9699   76.0402  218.5078 H   0  0  0  0  0  0  0  0  0  0  0  0
  140.0418   77.8003  219.9873 H   0  0  0  0  0  0  0  0  0  0  0  0
  139.8584   80.2384  220.3000 H   0  0  0  0  0  0  0  0  0  0  0  0
  141.5151   81.7564  219.2735 H   0  0  0  0  0  0  0  0  0  0  0  0
  143.3595   80.7995  217.9350 H   0  0  0  0  0  0  0  0  0  0  0  0
  143.5497   78.3627  217.6158 H   0  0  0  0  0  0  0  0  0  0  0  0
  138.1147   77.2256  222.5556 H   0  0  0  0  0  0  0  0  0  0  0  0
  138.4084   79.6320  223.2244 H   0  0  0  0  0  0  0  0  0  0  0  0
  139.8541   81.5255  223.6913 H   0  0  0  0  0  0  0  0  0  0  0  0
  142.1701   82.4461  223.8410 H   0  0  0  0  0  0  0  0  0  0  0  0
  144.1091   81.0096  223.3392 H   0  0  0  0  0  0  0  0  0  0  0  0
  143.8162   78.6212  222.6796 H   0  0  0  0  0  0  0  0  0  0  0  0
  1  2  2  0
  2  3  1  0
  3  4  1  0
  4  5  1  0
  5  6  2  0
  5  7  1  0
  7  8  1  0
  8  9  1  0
  9 10  1  0
 10 11  1  0
 11 12  1  0
 12 13  1  0
 13 14  1  0
 14 15  1  0
 15 16  1  0
 16 17  2  0
 17 18  1  0
 18 19  2  0
 19 20  1  0
 20 21  2  0
  2 22  1  0
 22 23  2  0
 23 24  1  0
 24 25  2  0
 25 26  1  0
 26 27  2  0
 27 28  1  0
 28 29  2  0
 29 30  1  0
 30 31  2  0
 12  7  1  0
 21 16  1  0
 31 22  1  0
 30 25  1  0
  3 32  1  0
  4 33  1  0
  4 34  1  0
  8 35  1  0
  8 36  1  0
  9 37  1  0
  9 38  1  0
 10 39  1  0
 10 40  1  0
 11 41  1  0
 11 42  1  0
 12 43  1  1
 13 44  1  0
 13 45  1  0
 15 46  1  0
 15 47  1  0
 17 48  1  0
 18 49  1  0
 19 50  1  0
 20 51  1  0
 21 52  1  0
 23 53  1  0
 24 54  1  0
 26 55  1  0
 27 56  1  0
 28 57  1  0
 29 58  1  0
M  END
>  <smiles>  (21) 
O=C(NCC(=O)N1CCCC[C@H]1COCc1ccccc1)c1ccc2ccccc2n1

>  <score_type>  (21) 
oracle

>  <origin>  (21) 
autodockgpu

>  <m_score__min__energy>  (21) 
-9.1799999999999997

>  <m_primary>  (21) 
energy

>  <rmsd>  (21) 
7.580892509541291

>  <m_score__min__rmsd>  (21) 
7.580892509541291

>  <meeko>  (21) 
{"free_energy": -7.03, "intermolecular_energy": -9.42, "internal_energy": -3.89, "cluster_size": 11, "cluster_id": 5, "rank_in_cluster": 6}

>  <energy>  (21) 
-8.06

>  <cluster_rmsd>  (21) 
1.79

>  <cluster>  (21) 
1

$$$$

     RDKit          3D

 58 61  0  0  0  0  0  0  0  0999 V2000
  138.9520   75.3480  221.8130 O   0  0  0  0  0  0  0  0  0  0  0  0
  140.0870   75.8660  221.9470 C   0  0  0  0  0  0  0  0  0  0  0  0
  141.2230   75.0660  221.6170 N   0  0  0  0  0  0  0  0  0  0  0  0
  141.1850   73.7440  221.1560 C   0  0  0  0  0  0  0  0  0  0  0  0
  142.3830   72.9900  220.8130 C   0  0  0  0  0  0  0  0  0  0  0  0
  142.3100   71.7390  221.2260 O   0  0  0  0  0  0  0  0  0  0  0  0
  143.5630   73.3080  220.1550 N   0  0  0  0  0  0  0  0  0  0  0  0
  144.1700   72.7240  218.9990 C   0  0  0  0  0  0  0  0  0  0  0  0
  145.4200   71.9510  219.5080 C   0  0  0  0  0  0  0  0  0  0  0  0
  145.9530   72.6670  220.7120 C   0  0  0  0  0  0  0  0  0  0  0  0
  145.7490   74.1530  220.4310 C   0  0  0  0  0  0  0  0  0  0  0  0
  144.3160   74.4810  220.7220 C   0  0  1  0  0  0  0  0  0  0  0  0
  143.9230   75.7220  219.9730 C   0  0  0  0  0  0  0  0  0  0  0  0
  143.3110   75.6100  218.8300 O   0  0  0  0  0  0  0  0  0  0  0  0
  142.4720   76.3390  218.1390 C   0  0  0  0  0  0  0  0  0  0  0  0
  142.3220   77.7750  218.4490 C   0  0  0  0  0  0  0  0  0  0  0  0
  142.9500   78.8070  217.8130 C   0  0  0  0  0  0  0  0  0  0  0  0
  142.7400   80.1400  218.1510 C   0  0  0  0  0  0  0  0  0  0  0  0
  141.8780   80.4650  219.1550 C   0  0  0  0  0  0  0  0  0  0  0  0
  141.2290   79.4580  219.8160 C   0  0  0  0  0  0  0  0  0  0  0  0
  141.4400   78.1340  219.4780 C   0  0  0  0  0  0  0  0  0  0  0  0
  140.2420   77.2490  222.4260 C   0  0  0  0  0  0  0  0  0  0  0  0
  139.1210   77.9650  222.7290 C   0  0  0  0  0  0  0  0  0  0  0  0
  139.3020   79.2740  223.1800 C   0  0  0  0  0  0  0  0  0  0  0  0
  140.5720   79.8050  223.3060 C   0  0  0  0  0  0  0  0  0  0  0  0
  140.7500   81.1130  223.7580 C   0  0  0  0  0  0  0  0  0  0  0  0
  142.0400   81.6060  223.8710 C   0  0  0  0  0  0  0  0  0  0  0  0
  143.1190   80.8080  223.5400 C   0  0  0  0  0  0  0  0  0  0  0  0
  142.9610   79.5040  223.0890 C   0  0  0  0  0  0  0  0  0  0  0  0
  141.6600   79.0240  222.9810 C   0  0  0  0  0  0  0  0  0  0  0  0
  141.4540   77.7700  222.5510 N   0  0  0  0  0  0  0  0  0  0  0  0
  142.1570   75.5650  221.7530 H   0  0  0  0  0  0  0  0  0  0  0  0
  140.6756   73.1640  221.9397 H   0  0  0  0  0  0  0  0  0  0  0  0
  140.7124   73.8675  220.1704 H   0  0  0  0  0  0  0  0  0  0  0  0
  143.4686   72.0334  218.5079 H   0  0  0  0  0  0  0  0  0  0  0  0
  144.4467   73.4914  218.2610 H   0  0  0  0  0  0  0  0  0  0  0  0
  145.1374   70.9234  219.7803 H   0  0  0  0  0  0  0  0  0  0  0  0
  146.1870   71.9069  218.7208 H   0  0  0  0  0  0  0  0  0  0  0  0
  145.3985   72.3672  221.6135 H   0  0  0  0  0  0  0  0  0  0  0  0
  147.0119   72.4287  220.8910 H   0  0  0  0  0  0  0  0  0  0  0  0
  146.4085   74.7503  221.0778 H   0  0  0  0  0  0  0  0  0  0  0  0
  145.9909   74.3829  219.3828 H   0  0  0  0  0  0  0  0  0  0  0  0
  144.1219   74.6530  221.7910 H   0  0  0  0  0  0  0  0  0  0  0  0
  143.2622   76.3006  220.6353 H   0  0  0  0  0  0  0  0  0  0  0  0
  144.8865   76.1820  219.7082 H   0  0  0  0  0  0  0  0  0  0  0  0
  142.7827   76.2709  217.0860 H   0  0  0  0  0  0  0  0  0  0  0  0
  141.4906   75.9169  218.4009 H   0  0  0  0  0  0  0  0  0  0  0  0
  143.6519   78.5746  216.9986 H   0  0  0  0  0  0  0  0  0  0  0  0
  143.2715   80.9341  217.6061 H   0  0  0  0  0  0  0  0  0  0  0  0
  141.7072   81.5166  219.4288 H   0  0  0  0  0  0  0  0  0  0  0  0
  140.5293   79.7053  220.6280 H   0  0  0  0  0  0  0  0  0  0  0  0
  140.9047   77.3459  220.0279 H   0  0  0  0  0  0  0  0  0  0  0  0
  138.1166   77.5293  222.6225 H   0  0  0  0  0  0  0  0  0  0  0  0
  138.4263   79.8880  223.4372 H   0  0  0  0  0  0  0  0  0  0  0  0
  139.8844   81.7396  224.0191 H   0  0  0  0  0  0  0  0  0  0  0  0
  142.2057   82.6343  224.2248 H   0  0  0  0  0  0  0  0  0  0  0  0
  144.1348   81.2187  223.6368 H   0  0  0  0  0  0  0  0  0  0  0  0
  143.8271   78.8779  222.8285 H   0  0  0  0  0  0  0  0  0  0  0  0
  1  2  2  0
  2  3  1  0
  3  4  1  0
  4  5  1  0
  5  6  2  0
  5  7  1  0
  7  8  1  0
  8  9  1  0
  9 10  1  0
 10 11  1  0
 11 12  1  0
 12 13  1  0
 13 14  1  0
 14 15  1  0
 15 16  1  0
 16 17  2  0
 17 18  1  0
 18 19  2  0
 19 20  1  0
 20 21  2  0
  2 22  1  0
 22 23  2  0
 23 24  1  0
 24 25  2  0
 25 26  1  0
 26 27  2  0
 27 28  1  0
 28 29  2  0
 29 30  1  0
 30 31  2  0
 12  7  1  0
 21 16  1  0
 31 22  1  0
 30 25  1  0
  3 32  1  0
  4 33  1  0
  4 34  1  0
  8 35  1  0
  8 36  1  0
  9 37  1  0
  9 38  1  0
 10 39  1  0
 10 40  1  0
 11 41  1  0
 11 42  1  0
 12 43  1  1
 13 44  1  0
 13 45  1  0
 15 46  1  0
 15 47  1  0
 17 48  1  0
 18 49  1  0
 19 50  1  0
 20 51  1  0
 21 52  1  0
 23 53  1  0
 24 54  1  0
 26 55  1  0
 27 56  1  0
 28 57  1  0
 29 58  1  0
M  END
>  <smiles>  (22) 
O=C(NCC(=O)N1CCCC[C@H]1COCc1ccccc1)c1ccc2ccccc2n1

>  <score_type>  (22) 
oracle

>  <origin>  (22) 
autodockgpu

>  <m_score__min__energy>  (22) 
-9.1799999999999997

>  <m_primary>  (22) 
energy

>  <rmsd>  (22) 
7.689620973108099

>  <m_score__min__rmsd>  (22) 
7.689620973108099

>  <meeko>  (22) 
{"free_energy": -7.39, "intermolecular_energy": -9.78, "internal_energy": -3.15, "cluster_size": 11, "cluster_id": 5, "rank_in_cluster": 1}

>  <energy>  (22) 
-7.81

>  <cluster_rmsd>  (22) 
1.53

>  <cluster>  (22) 
1

$$$$

     RDKit          3D

 58 61  0  0  0  0  0  0  0  0999 V2000
  140.4910   71.7330  221.2030 O   0  0  0  0  0  0  0  0  0  0  0  0
  140.1470   72.2330  222.3010 C   0  0  0  0  0  0  0  0  0  0  0  0
  139.8100   73.6210  222.3210 N   0  0  0  0  0  0  0  0  0  0  0  0
  139.8310   74.4820  221.2160 C   0  0  0  0  0  0  0  0  0  0  0  0
  139.5380   75.9040  221.3150 C   0  0  0  0  0  0  0  0  0  0  0  0
  138.2480   76.1500  221.1850 O   0  0  0  0  0  0  0  0  0  0  0  0
  140.3180   77.0340  221.5170 N   0  0  0  0  0  0  0  0  0  0  0  0
  141.0800   77.4490  222.6530 C   0  0  0  0  0  0  0  0  0  0  0  0
  140.3180   78.6570  223.2710 C   0  0  0  0  0  0  0  0  0  0  0  0
  139.6260   79.3880  222.1610 C   0  0  0  0  0  0  0  0  0  0  0  0
  140.5730   79.3150  220.9670 C   0  0  0  0  0  0  0  0  0  0  0  0
  140.4130   77.9640  220.3370 C   0  0  1  0  0  0  0  0  0  0  0  0
  141.6460   77.6280  219.5480 C   0  0  0  0  0  0  0  0  0  0  0  0
  142.5300   76.8210  220.0600 O   0  0  0  0  0  0  0  0  0  0  0  0
  143.6520   76.2820  219.6570 C   0  0  0  0  0  0  0  0  0  0  0  0
  143.9970   74.9080  220.0770 C   0  0  0  0  0  0  0  0  0  0  0  0
  145.2130   74.4860  220.5340 C   0  0  0  0  0  0  0  0  0  0  0  0
  145.4540   73.1760  220.9320 C   0  0  0  0  0  0  0  0  0  0  0  0
  144.4580   72.2480  220.8760 C   0  0  0  0  0  0  0  0  0  0  0  0
  143.2250   72.6330  220.4240 C   0  0  0  0  0  0  0  0  0  0  0  0
  142.9880   73.9370  220.0290 C   0  0  0  0  0  0  0  0  0  0  0  0
  140.0910   71.4180  223.5260 C   0  0  0  0  0  0  0  0  0  0  0  0
  139.5280   70.1770  223.4600 C   0  0  0  0  0  0  0  0  0  0  0  0
  139.4900   69.4300  224.6390 C   0  0  0  0  0  0  0  0  0  0  0  0
  140.0070   69.9440  225.8140 C   0  0  0  0  0  0  0  0  0  0  0  0
  139.9680   69.1940  226.9900 C   0  0  0  0  0  0  0  0  0  0  0  0
  140.4960   69.7460  228.1460 C   0  0  0  0  0  0  0  0  0  0  0  0
  141.0480   71.0140  228.1200 C   0  0  0  0  0  0  0  0  0  0  0  0
  141.0950   71.7730  226.9580 C   0  0  0  0  0  0  0  0  0  0  0  0
  140.5600   71.2050  225.8070 C   0  0  0  0  0  0  0  0  0  0  0  0
  140.5830   71.8990  224.6590 N   0  0  0  0  0  0  0  0  0  0  0  0
  139.5270   73.9830  223.2840 H   0  0  0  0  0  0  0  0  0  0  0  0
  140.8444   74.4098  220.7944 H   0  0  0  0  0  0  0  0  0  0  0  0
  138.9690   74.1189  220.6370 H   0  0  0  0  0  0  0  0  0  0  0  0
  141.1520   76.6298  223.3835 H   0  0  0  0  0  0  0  0  0  0  0  0
  142.1055   77.7263  222.3675 H   0  0  0  0  0  0  0  0  0  0  0  0
  139.5766   78.2970  223.9995 H   0  0  0  0  0  0  0  0  0  0  0  0
  141.0208   79.3266  223.7883 H   0  0  0  0  0  0  0  0  0  0  0  0
  138.6680   78.9036  221.9212 H   0  0  0  0  0  0  0  0  0  0  0  0
  139.4005   80.4284  222.4380 H   0  0  0  0  0  0  0  0  0  0  0  0
  140.3188   80.0997  220.2393 H   0  0  0  0  0  0  0  0  0  0  0  0
  141.6130   79.4668  221.2916 H   0  0  0  0  0  0  0  0  0  0  0  0
  139.5490   77.9044  219.6588 H   0  0  0  0  0  0  0  0  0  0  0  0
  141.3092   77.1770  218.6029 H   0  0  0  0  0  0  0  0  0  0  0  0
  142.1794   78.5874  219.4773 H   0  0  0  0  0  0  0  0  0  0  0  0
  143.6293   76.2831  218.5572 H   0  0  0  0  0  0  0  0  0  0  0  0
  144.4216   76.8992  220.1435 H   0  0  0  0  0  0  0  0  0  0  0  0
  146.0363   75.2134  220.5894 H   0  0  0  0  0  0  0  0  0  0  0  0
  146.4521   72.8877  221.2934 H   0  0  0  0  0  0  0  0  0  0  0  0
  144.6414   71.2093  221.1881 H   0  0  0  0  0  0  0  0  0  0  0  0
  142.4110   71.8949  220.3741 H   0  0  0  0  0  0  0  0  0  0  0  0
  141.9869   74.2176  219.6698 H   0  0  0  0  0  0  0  0  0  0  0  0
  139.1211   69.7816  222.5176 H   0  0  0  0  0  0  0  0  0  0  0  0
  139.0450   68.4240  224.6331 H   0  0  0  0  0  0  0  0  0  0  0  0
  139.5275   68.1861  226.9992 H   0  0  0  0  0  0  0  0  0  0  0  0
  140.4762   69.1749  229.0859 H   0  0  0  0  0  0  0  0  0  0  0  0
  141.4625   71.4341  229.0483 H   0  0  0  0  0  0  0  0  0  0  0  0
  141.5366   72.7804  226.9485 H   0  0  0  0  0  0  0  0  0  0  0  0
  1  2  2  0
  2  3  1  0
  3  4  1  0
  4  5  1  0
  5  6  2  0
  5  7  1  0
  7  8  1  0
  8  9  1  0
  9 10  1  0
 10 11  1  0
 11 12  1  0
 12 13  1  0
 13 14  1  0
 14 15  1  0
 15 16  1  0
 16 17  2  0
 17 18  1  0
 18 19  2  0
 19 20  1  0
 20 21  2  0
  2 22  1  0
 22 23  2  0
 23 24  1  0
 24 25  2  0
 25 26  1  0
 26 27  2  0
 27 28  1  0
 28 29  2  0
 29 30  1  0
 30 31  2  0
 12  7  1  0
 21 16  1  0
 31 22  1  0
 30 25  1  0
  3 32  1  0
  4 33  1  0
  4 34  1  0
  8 35  1  0
  8 36  1  0
  9 37  1  0
  9 38  1  0
 10 39  1  0
 10 40  1  0
 11 41  1  0
 11 42  1  0
 12 43  1  6
 13 44  1  0
 13 45  1  0
 15 46  1  0
 15 47  1  0
 17 48  1  0
 18 49  1  0
 19 50  1  0
 20 51  1  0
 21 52  1  0
 23 53  1  0
 24 54  1  0
 26 55  1  0
 27 56  1  0
 28 57  1  0
 29 58  1  0
M  END
>  <smiles>  (23) 
O=C(NCC(=O)N1CCCC[C@H]1COCc1ccccc1)c1ccc2ccccc2n1

>  <score_type>  (23) 
oracle

>  <origin>  (23) 
autodockgpu

>  <m_score__min__energy>  (23) 
-9.1799999999999997

>  <m_primary>  (23) 
energy

>  <rmsd>  (23) 
2.907550474354273

>  <m_score__min__rmsd>  (23) 
2.907550474354273

>  <meeko>  (23) 
{"free_energy": -8.44, "intermolecular_energy": -10.83, "internal_energy": -2.15, "cluster_size": 5, "cluster_id": 4, "rank_in_cluster": 1}

>  <energy>  (23) 
-7.08

>  <cluster_rmsd>  (23) 
1.98

>  <cluster>  (23) 
1

$$$$

     RDKit          3D

 58 61  0  0  0  0  0  0  0  0999 V2000
  140.0320   70.6370  221.4600 O   0  0  0  0  0  0  0  0  0  0  0  0
  139.8200   71.1750  222.5730 C   0  0  0  0  0  0  0  0  0  0  0  0
  139.5970   72.5850  222.5960 N   0  0  0  0  0  0  0  0  0  0  0  0
  139.5930   73.4300  221.4780 C   0  0  0  0  0  0  0  0  0  0  0  0
  140.6830   74.3450  221.1750 C   0  0  0  0  0  0  0  0  0  0  0  0
  140.7120   75.3680  222.0080 O   0  0  0  0  0  0  0  0  0  0  0  0
  141.6810   74.3660  220.2100 N   0  0  0  0  0  0  0  0  0  0  0  0
  141.9290   73.4890  219.1080 C   0  0  0  0  0  0  0  0  0  0  0  0
  143.2000   72.6720  219.4780 C   0  0  0  0  0  0  0  0  0  0  0  0
  144.0740   73.5350  220.3360 C   0  0  0  0  0  0  0  0  0  0  0  0
  143.9270   74.9490  219.7820 C   0  0  0  0  0  0  0  0  0  0  0  0
  142.6450   75.5170  220.3120 C   0  0  1  0  0  0  0  0  0  0  0  0
  142.1780   76.6260  219.4130 C   0  0  0  0  0  0  0  0  0  0  0  0
  141.3780   77.5360  219.8870 O   0  0  0  0  0  0  0  0  0  0  0  0
  141.4560   78.8200  220.1310 C   0  0  0  0  0  0  0  0  0  0  0  0
  141.7640   79.2890  221.4970 C   0  0  0  0  0  0  0  0  0  0  0  0
  142.3240   80.4890  221.8300 C   0  0  0  0  0  0  0  0  0  0  0  0
  142.5650   80.8670  223.1460 C   0  0  0  0  0  0  0  0  0  0  0  0
  142.2420   80.0290  224.1710 C   0  0  0  0  0  0  0  0  0  0  0  0
  141.6790   78.8170  223.8770 C   0  0  0  0  0  0  0  0  0  0  0  0
  141.4400   78.4440  222.5670 C   0  0  0  0  0  0  0  0  0  0  0  0
  139.8020   70.3810  223.8130 C   0  0  0  0  0  0  0  0  0  0  0  0
  139.1860   69.1630  223.7990 C   0  0  0  0  0  0  0  0  0  0  0  0
  139.1860   68.4350  224.9900 C   0  0  0  0  0  0  0  0  0  0  0  0
  139.7890   68.9440  226.1260 C   0  0  0  0  0  0  0  0  0  0  0  0
  139.7870   68.2130  227.3150 C   0  0  0  0  0  0  0  0  0  0  0  0
  140.4030   68.7600  228.4300 C   0  0  0  0  0  0  0  0  0  0  0  0
  141.0030   70.0030  228.3510 C   0  0  0  0  0  0  0  0  0  0  0  0
  141.0140   70.7430  227.1760 C   0  0  0  0  0  0  0  0  0  0  0  0
  140.3910   70.1810  226.0670 C   0  0  0  0  0  0  0  0  0  0  0  0
  140.3760   70.8570  224.9080 N   0  0  0  0  0  0  0  0  0  0  0  0
  139.4240   72.9790  223.5730 H   0  0  0  0  0  0  0  0  0  0  0  0
  139.4957   72.7729  220.6012 H   0  0  0  0  0  0  0  0  0  0  0  0
  138.7820   74.1285  221.7317 H   0  0  0  0  0  0  0  0  0  0  0  0
  141.0731   72.8146  218.9577 H   0  0  0  0  0  0  0  0  0  0  0  0
  142.0731   74.0516  218.1738 H   0  0  0  0  0  0  0  0  0  0  0  0
  142.9128   71.7656  220.0310 H   0  0  0  0  0  0  0  0  0  0  0  0
  143.7381   72.3706  218.5672 H   0  0  0  0  0  0  0  0  0  0  0  0
  143.7411   73.4968  221.3837 H   0  0  0  0  0  0  0  0  0  0  0  0
  145.1210   73.1982  220.3182 H   0  0  0  0  0  0  0  0  0  0  0  0
  144.7746   75.5691  220.1090 H   0  0  0  0  0  0  0  0  0  0  0  0
  143.9143   74.9317  218.6822 H   0  0  0  0  0  0  0  0  0  0  0  0
  142.7411   75.9218  221.3303 H   0  0  0  0  0  0  0  0  0  0  0  0
  143.0773   77.1462  219.0514 H   0  0  0  0  0  0  0  0  0  0  0  0
  141.5668   76.1095  218.6583 H   0  0  0  0  0  0  0  0  0  0  0  0
  142.2389   79.2228  219.4716 H   0  0  0  0  0  0  0  0  0  0  0  0
  140.4281   79.1746  219.9648 H   0  0  0  0  0  0  0  0  0  0  0  0
  142.5958   81.1857  221.0233 H   0  0  0  0  0  0  0  0  0  0  0  0
  143.0181   81.8461  223.3607 H   0  0  0  0  0  0  0  0  0  0  0  0
  142.4303   80.3213  225.2146 H   0  0  0  0  0  0  0  0  0  0  0  0
  141.4129   78.1300  224.6938 H   0  0  0  0  0  0  0  0  0  0  0  0
  140.9861   77.4635  222.3605 H   0  0  0  0  0  0  0  0  0  0  0  0
  138.7098   68.7718  222.8879 H   0  0  0  0  0  0  0  0  0  0  0  0
  138.7022   67.4478  225.0254 H   0  0  0  0  0  0  0  0  0  0  0  0
  139.3072   67.2245  227.3662 H   0  0  0  0  0  0  0  0  0  0  0  0
  140.4144   68.2041  229.3791 H   0  0  0  0  0  0  0  0  0  0  0  0
  141.4869   70.4189  229.2470 H   0  0  0  0  0  0  0  0  0  0  0  0
  141.4948   71.7310  227.1247 H   0  0  0  0  0  0  0  0  0  0  0  0
  1  2  2  0
  2  3  1  0
  3  4  1  0
  4  5  1  0
  5  6  2  0
  5  7  1  0
  7  8  1  0
  8  9  1  0
  9 10  1  0
 10 11  1  0
 11 12  1  0
 12 13  1  0
 13 14  1  0
 14 15  1  0
 15 16  1  0
 16 17  2  0
 17 18  1  0
 18 19  2  0
 19 20  1  0
 20 21  2  0
  2 22  1  0
 22 23  2  0
 23 24  1  0
 24 25  2  0
 25 26  1  0
 26 27  2  0
 27 28  1  0
 28 29  2  0
 29 30  1  0
 30 31  2  0
 12  7  1  0
 21 16  1  0
 31 22  1  0
 30 25  1  0
  3 32  1  0
  4 33  1  0
  4 34  1  0
  8 35  1  0
  8 36  1  0
  9 37  1  0
  9 38  1  0
 10 39  1  0
 10 40  1  0
 11 41  1  0
 11 42  1  0
 12 43  1  1
 13 44  1  0
 13 45  1  0
 15 46  1  0
 15 47  1  0
 17 48  1  0
 18 49  1  0
 19 50  1  0
 20 51  1  0
 21 52  1  0
 23 53  1  0
 24 54  1  0
 26 55  1  0
 27 56  1  0
 28 57  1  0
 29 58  1  0
M  END
>  <smiles>  (24) 
O=C(NCC(=O)N1CCCC[C@H]1COCc1ccccc1)c1ccc2ccccc2n1

>  <score_type>  (24) 
oracle

>  <origin>  (24) 
autodockgpu

>  <m_score__min__energy>  (24) 
-9.1799999999999997

>  <m_primary>  (24) 
energy

>  <rmsd>  (24) 
2.194047846289016

>  <m_score__min__rmsd>  (24) 
2.194047846289016

>  <meeko>  (24) 
{"free_energy": -9.05, "intermolecular_energy": -11.43, "internal_energy": -1.83, "cluster_size": 23, "cluster_id": 1, "rank_in_cluster": 5}

>  <energy>  (24) 
-9.08

>  <cluster_rmsd>  (24) 
0.0

>  <cluster>  (24) 
2

$$$$

     RDKit          3D

 58 61  0  0  0  0  0  0  0  0999 V2000
  139.3530   70.7110  221.5480 O   0  0  0  0  0  0  0  0  0  0  0  0
  139.6040   71.1870  222.6820 C   0  0  0  0  0  0  0  0  0  0  0  0
  139.8110   72.5970  222.7780 N   0  0  0  0  0  0  0  0  0  0  0  0
  139.7600   73.5040  221.7110 C   0  0  0  0  0  0  0  0  0  0  0  0
  140.8980   74.3150  221.3060 C   0  0  0  0  0  0  0  0  0  0  0  0
  140.9400   75.4620  221.9550 O   0  0  0  0  0  0  0  0  0  0  0  0
  141.9310   74.1340  220.3960 N   0  0  0  0  0  0  0  0  0  0  0  0
  142.1650   73.0900  219.4480 C   0  0  0  0  0  0  0  0  0  0  0  0
  143.3680   72.2680  219.9930 C   0  0  0  0  0  0  0  0  0  0  0  0
  144.2620   73.2000  220.7530 C   0  0  0  0  0  0  0  0  0  0  0  0
  144.2240   74.5210  219.9910 C   0  0  0  0  0  0  0  0  0  0  0  0
  142.9600   75.2320  220.3710 C   0  0  1  0  0  0  0  0  0  0  0  0
  142.5970   76.2180  219.2980 C   0  0  0  0  0  0  0  0  0  0  0  0
  142.5700   77.4880  219.5820 O   0  0  0  0  0  0  0  0  0  0  0  0
  141.6550   78.3470  219.9560 C   0  0  0  0  0  0  0  0  0  0  0  0
  141.6110   78.8060  221.3590 C   0  0  0  0  0  0  0  0  0  0  0  0
  142.5660   79.5460  221.9960 C   0  0  0  0  0  0  0  0  0  0  0  0
  142.4410   79.9580  223.3180 C   0  0  0  0  0  0  0  0  0  0  0  0
  141.3330   79.6280  224.0380 C   0  0  0  0  0  0  0  0  0  0  0  0
  140.3520   78.8870  223.4340 C   0  0  0  0  0  0  0  0  0  0  0  0
  140.4790   78.4790  222.1190 C   0  0  0  0  0  0  0  0  0  0  0  0
  139.6830   70.3230  223.8710 C   0  0  0  0  0  0  0  0  0  0  0  0
  139.1470   69.0700  223.8050 C   0  0  0  0  0  0  0  0  0  0  0  0
  139.2370   68.2760  224.9490 C   0  0  0  0  0  0  0  0  0  0  0  0
  139.8480   68.7570  226.0930 C   0  0  0  0  0  0  0  0  0  0  0  0
  139.9370   67.9600  227.2350 C   0  0  0  0  0  0  0  0  0  0  0  0
  140.5560   68.4810  228.3600 C   0  0  0  0  0  0  0  0  0  0  0  0
  141.0710   69.7640  228.3370 C   0  0  0  0  0  0  0  0  0  0  0  0
  140.9920   70.5700  227.2090 C   0  0  0  0  0  0  0  0  0  0  0  0
  140.3660   70.0330  226.0890 C   0  0  0  0  0  0  0  0  0  0  0  0
  140.2650   70.7730  224.9730 N   0  0  0  0  0  0  0  0  0  0  0  0
  140.0210   72.9360  223.7680 H   0  0  0  0  0  0  0  0  0  0  0  0
  139.4770   72.9153  220.8259 H   0  0  0  0  0  0  0  0  0  0  0  0
  139.0736   74.2683  222.1042 H   0  0  0  0  0  0  0  0  0  0  0  0
  141.2750   72.4496  219.3590 H   0  0  0  0  0  0  0  0  0  0  0  0
  142.3786   73.4974  218.4488 H   0  0  0  0  0  0  0  0  0  0  0  0
  143.0045   71.4728  220.6605 H   0  0  0  0  0  0  0  0  0  0  0  0
  143.9196   71.8031  219.1625 H   0  0  0  0  0  0  0  0  0  0  0  0
  143.8892   73.3379  221.7787 H   0  0  0  0  0  0  0  0  0  0  0  0
  145.2860   72.8061  220.8322 H   0  0  0  0  0  0  0  0  0  0  0  0
  145.0952   75.1351  220.2628 H   0  0  0  0  0  0  0  0  0  0  0  0
  144.2524   74.3403  218.9063 H   0  0  0  0  0  0  0  0  0  0  0  0
  143.0423   75.7789  221.3218 H   0  0  0  0  0  0  0  0  0  0  0  0
  143.3238   76.0870  218.4827 H   0  0  0  0  0  0  0  0  0  0  0  0
  141.5475   75.9799  219.0700 H   0  0  0  0  0  0  0  0  0  0  0  0
  141.7846   79.2431  219.3313 H   0  0  0  0  0  0  0  0  0  0  0  0
  140.7156   77.7864  219.8407 H   0  0  0  0  0  0  0  0  0  0  0  0
  143.4721   79.8279  221.4397 H   0  0  0  0  0  0  0  0  0  0  0  0
  143.2402   80.5529  223.7843 H   0  0  0  0  0  0  0  0  0  0  0  0
  141.2279   79.9503  225.0844 H   0  0  0  0  0  0  0  0  0  0  0  0
  139.4512   78.6129  224.0027 H   0  0  0  0  0  0  0  0  0  0  0  0
  139.6750   77.8854  221.6594 H   0  0  0  0  0  0  0  0  0  0  0  0
  138.6640   68.7011  222.8881 H   0  0  0  0  0  0  0  0  0  0  0  0
  138.8184   67.2588  224.9410 H   0  0  0  0  0  0  0  0  0  0  0  0
  139.5247   66.9402  227.2420 H   0  0  0  0  0  0  0  0  0  0  0  0
  140.6378   67.8728  229.2729 H   0  0  0  0  0  0  0  0  0  0  0  0
  141.5586   70.1586  229.2406 H   0  0  0  0  0  0  0  0  0  0  0  0
  141.4065   71.5889  227.2015 H   0  0  0  0  0  0  0  0  0  0  0  0
  1  2  2  0
  2  3  1  0
  3  4  1  0
  4  5  1  0
  5  6  2  0
  5  7  1  0
  7  8  1  0
  8  9  1  0
  9 10  1  0
 10 11  1  0
 11 12  1  0
 12 13  1  0
 13 14  1  0
 14 15  1  0
 15 16  1  0
 16 17  2  0
 17 18  1  0
 18 19  2  0
 19 20  1  0
 20 21  2  0
  2 22  1  0
 22 23  2  0
 23 24  1  0
 24 25  2  0
 25 26  1  0
 26 27  2  0
 27 28  1  0
 28 29  2  0
 29 30  1  0
 30 31  2  0
 12  7  1  0
 21 16  1  0
 31 22  1  0
 30 25  1  0
  3 32  1  0
  4 33  1  0
  4 34  1  0
  8 35  1  0
  8 36  1  0
  9 37  1  0
  9 38  1  0
 10 39  1  0
 10 40  1  0
 11 41  1  0
 11 42  1  0
 12 43  1  1
 13 44  1  0
 13 45  1  0
 15 46  1  0
 15 47  1  0
 17 48  1  0
 18 49  1  0
 19 50  1  0
 20 51  1  0
 21 52  1  0
 23 53  1  0
 24 54  1  0
 26 55  1  0
 27 56  1  0
 28 57  1  0
 29 58  1  0
M  END
>  <smiles>  (25) 
O=C(NCC(=O)N1CCCC[C@H]1COCc1ccccc1)c1ccc2ccccc2n1

>  <score_type>  (25) 
oracle

>  <origin>  (25) 
autodockgpu

>  <m_score__min__energy>  (25) 
-9.1799999999999997

>  <m_primary>  (25) 
energy

>  <rmsd>  (25) 
2.475226965393889

>  <m_score__min__rmsd>  (25) 
2.475226965393889

>  <meeko>  (25) 
{"free_energy": -8.62, "intermolecular_energy": -11.01, "internal_energy": -2.02, "cluster_size": 23, "cluster_id": 1, "rank_in_cluster": 10}

>  <energy>  (25) 
-9.04

>  <cluster_rmsd>  (25) 
0.82

>  <cluster>  (25) 
2

$$$$

     RDKit          3D

 58 61  0  0  0  0  0  0  0  0999 V2000
  141.0750   72.5170  222.3340 O   0  0  0  0  0  0  0  0  0  0  0  0
  140.0090   72.2210  222.9270 C   0  0  0  0  0  0  0  0  0  0  0  0
  138.8300   72.9450  222.5710 N   0  0  0  0  0  0  0  0  0  0  0  0
  138.7560   73.9640  221.6130 C   0  0  0  0  0  0  0  0  0  0  0  0
  139.3420   75.2820  221.8120 C   0  0  0  0  0  0  0  0  0  0  0  0
  140.5750   75.2060  222.2730 O   0  0  0  0  0  0  0  0  0  0  0  0
  138.8820   76.5770  221.6190 N   0  0  0  0  0  0  0  0  0  0  0  0
  138.6950   77.6460  222.5500 C   0  0  0  0  0  0  0  0  0  0  0  0
  137.1570   77.8160  222.7150 C   0  0  0  0  0  0  0  0  0  0  0  0
  136.5060   77.4410  221.4190 C   0  0  0  0  0  0  0  0  0  0  0  0
  137.4500   77.9350  220.3260 C   0  0  0  0  0  0  0  0  0  0  0  0
  138.5600   76.9360  220.1940 C   0  0  1  0  0  0  0  0  0  0  0  0
  139.7580   77.5960  219.5730 C   0  0  0  0  0  0  0  0  0  0  0  0
  140.9490   77.2620  219.9760 O   0  0  0  0  0  0  0  0  0  0  0  0
  142.0040   77.9000  220.4180 C   0  0  0  0  0  0  0  0  0  0  0  0
  141.8620   78.8750  221.5180 C   0  0  0  0  0  0  0  0  0  0  0  0
  141.8010   78.5830  222.8510 C   0  0  0  0  0  0  0  0  0  0  0  0
  141.6880   79.5620  223.8320 C   0  0  0  0  0  0  0  0  0  0  0  0
  141.6340   80.8780  223.4830 C   0  0  0  0  0  0  0  0  0  0  0  0
  141.6930   81.2110  222.1570 C   0  0  0  0  0  0  0  0  0  0  0  0
  141.8050   80.2350  221.1840 C   0  0  0  0  0  0  0  0  0  0  0  0
  139.9750   71.1660  223.9520 C   0  0  0  0  0  0  0  0  0  0  0  0
  139.4070   69.9660  223.6350 C   0  0  0  0  0  0  0  0  0  0  0  0
  139.3890   68.9860  224.6290 C   0  0  0  0  0  0  0  0  0  0  0  0
  139.9290   69.2400  225.8770 C   0  0  0  0  0  0  0  0  0  0  0  0
  139.9100   68.2570  226.8680 C   0  0  0  0  0  0  0  0  0  0  0  0
  140.4620   68.5530  228.1040 C   0  0  0  0  0  0  0  0  0  0  0  0
  141.0160   69.7970  228.3370 C   0  0  0  0  0  0  0  0  0  0  0  0
  141.0440   70.7860  227.3620 C   0  0  0  0  0  0  0  0  0  0  0  0
  140.4850   70.4740  226.1270 C   0  0  0  0  0  0  0  0  0  0  0  0
  140.4890   71.3960  225.1510 N   0  0  0  0  0  0  0  0  0  0  0  0
  137.9600   72.6450  223.1110 H   0  0  0  0  0  0  0  0  0  0  0  0
  139.2223   73.5590  220.7028 H   0  0  0  0  0  0  0  0  0  0  0  0
  137.6810   74.1970  221.6213 H   0  0  0  0  0  0  0  0  0  0  0  0
  139.1565   77.3948  223.5164 H   0  0  0  0  0  0  0  0  0  0  0  0
  139.1643   78.5745  222.1928 H   0  0  0  0  0  0  0  0  0  0  0  0
  136.7933   77.1590  223.5188 H   0  0  0  0  0  0  0  0  0  0  0  0
  136.9143   78.8566  222.9765 H   0  0  0  0  0  0  0  0  0  0  0  0
  136.3810   76.3501  221.3539 H   0  0  0  0  0  0  0  0  0  0  0  0
  135.5047   77.8863  221.3232 H   0  0  0  0  0  0  0  0  0  0  0  0
  136.9074   78.0197  219.3729 H   0  0  0  0  0  0  0  0  0  0  0  0
  137.8528   78.9254  220.5846 H   0  0  0  0  0  0  0  0  0  0  0  0
  138.2891   76.0696  219.5727 H   0  0  0  0  0  0  0  0  0  0  0  0
  139.7147   77.3892  218.4935 H   0  0  0  0  0  0  0  0  0  0  0  0
  139.6644   78.6481  219.8803 H   0  0  0  0  0  0  0  0  0  0  0  0
  142.7189   77.1366  220.7588 H   0  0  0  0  0  0  0  0  0  0  0  0
  142.3045   78.5218  219.5619 H   0  0  0  0  0  0  0  0  0  0  0  0
  141.8430   77.5286  223.1616 H   0  0  0  0  0  0  0  0  0  0  0  0
  141.6421   79.2733  224.8925 H   0  0  0  0  0  0  0  0  0  0  0  0
  141.5446   81.6584  224.2530 H   0  0  0  0  0  0  0  0  0  0  0  0
  141.6507   82.2696  221.8611 H   0  0  0  0  0  0  0  0  0  0  0  0
  141.8503   80.5321  220.1259 H   0  0  0  0  0  0  0  0  0  0  0  0
  138.9813   69.7790  222.6381 H   0  0  0  0  0  0  0  0  0  0  0  0
  138.9416   68.0035  224.4181 H   0  0  0  0  0  0  0  0  0  0  0  0
  139.4667   67.2695  226.6721 H   0  0  0  0  0  0  0  0  0  0  0  0
  140.4591   67.7956  228.9017 H   0  0  0  0  0  0  0  0  0  0  0  0
  141.4485   70.0110  229.3255 H   0  0  0  0  0  0  0  0  0  0  0  0
  141.4888   71.7728  227.5579 H   0  0  0  0  0  0  0  0  0  0  0  0
  1  2  2  0
  2  3  1  0
  3  4  1  0
  4  5  1  0
  5  6  2  0
  5  7  1  0
  7  8  1  0
  8  9  1  0
  9 10  1  0
 10 11  1  0
 11 12  1  0
 12 13  1  0
 13 14  1  0
 14 15  1  0
 15 16  1  0
 16 17  2  0
 17 18  1  0
 18 19  2  0
 19 20  1  0
 20 21  2  0
  2 22  1  0
 22 23  2  0
 23 24  1  0
 24 25  2  0
 25 26  1  0
 26 27  2  0
 27 28  1  0
 28 29  2  0
 29 30  1  0
 30 31  2  0
 12  7  1  0
 21 16  1  0
 31 22  1  0
 30 25  1  0
  3 32  1  0
  4 33  1  0
  4 34  1  0
  8 35  1  0
  8 36  1  0
  9 37  1  0
  9 38  1  0
 10 39  1  0
 10 40  1  0
 11 41  1  0
 11 42  1  0
 12 43  1  6
 13 44  1  0
 13 45  1  0
 15 46  1  0
 15 47  1  0
 17 48  1  0
 18 49  1  0
 19 50  1  0
 20 51  1  0
 21 52  1  0
 23 53  1  0
 24 54  1  0
 26 55  1  0
 27 56  1  0
 28 57  1  0
 29 58  1  0
M  END
>  <smiles>  (26) 
O=C(NCC(=O)N1CCCC[C@H]1COCc1ccccc1)c1ccc2ccccc2n1

>  <score_type>  (26) 
oracle

>  <origin>  (26) 
autodockgpu

>  <m_score__min__energy>  (26) 
-9.1799999999999997

>  <m_primary>  (26) 
energy

>  <rmsd>  (26) 
2.8732454035636135

>  <m_score__min__rmsd>  (26) 
2.8732454035636135

>  <meeko>  (26) 
{"free_energy": -8.3, "intermolecular_energy": -10.69, "internal_energy": -1.9, "cluster_size": 23, "cluster_id": 1, "rank_in_cluster": 17}

>  <energy>  (26) 
-8.6

>  <cluster_rmsd>  (26) 
1.09

>  <cluster>  (26) 
2

$$$$

     RDKit          3D

 58 61  0  0  0  0  0  0  0  0999 V2000
  140.1610   71.3020  221.2700 O   0  0  0  0  0  0  0  0  0  0  0  0
  139.9820   71.8850  222.3660 C   0  0  0  0  0  0  0  0  0  0  0  0
  139.7580   73.2950  222.3390 N   0  0  0  0  0  0  0  0  0  0  0  0
  139.7200   74.0940  221.1880 C   0  0  0  0  0  0  0  0  0  0  0  0
  140.1820   75.4740  221.1670 C   0  0  0  0  0  0  0  0  0  0  0  0
  140.4750   75.9120  222.3760 O   0  0  0  0  0  0  0  0  0  0  0  0
  140.3760   76.4070  220.1580 N   0  0  0  0  0  0  0  0  0  0  0  0
  140.4900   76.2380  218.7430 C   0  0  0  0  0  0  0  0  0  0  0  0
  141.9810   76.5050  218.3900 C   0  0  0  0  0  0  0  0  0  0  0  0
  142.5150   77.5130  219.3620 C   0  0  0  0  0  0  0  0  0  0  0  0
  141.3670   78.4820  219.6250 C   0  0  0  0  0  0  0  0  0  0  0  0
  140.4440   77.8390  220.6160 C   0  0  1  0  0  0  0  0  0  0  0  0
  139.0780   78.4540  220.5010 C   0  0  0  0  0  0  0  0  0  0  0  0
  138.4580   78.8340  221.5810 O   0  0  0  0  0  0  0  0  0  0  0  0
  138.7180   79.6440  222.5760 C   0  0  0  0  0  0  0  0  0  0  0  0
  140.1200   79.9810  222.8980 C   0  0  0  0  0  0  0  0  0  0  0  0
  140.7350   81.1780  222.6640 C   0  0  0  0  0  0  0  0  0  0  0  0
  142.0570   81.4260  223.0170 C   0  0  0  0  0  0  0  0  0  0  0  0
  142.7980   80.4570  223.6240 C   0  0  0  0  0  0  0  0  0  0  0  0
  142.2160   79.2440  223.8770 C   0  0  0  0  0  0  0  0  0  0  0  0
  140.9010   79.0000  223.5240 C   0  0  0  0  0  0  0  0  0  0  0  0
  140.0030   71.1420  223.6370 C   0  0  0  0  0  0  0  0  0  0  0  0
  139.5400   69.8580  223.6500 C   0  0  0  0  0  0  0  0  0  0  0  0
  139.5730   69.1810  224.8710 C   0  0  0  0  0  0  0  0  0  0  0  0
  140.0570   69.8020  226.0070 C   0  0  0  0  0  0  0  0  0  0  0  0
  140.0880   69.1220  227.2250 C   0  0  0  0  0  0  0  0  0  0  0  0
  140.5820   69.7810  228.3400 C   0  0  0  0  0  0  0  0  0  0  0  0
  141.0300   71.0850  228.2330 C   0  0  0  0  0  0  0  0  0  0  0  0
  141.0060   71.7760  227.0290 C   0  0  0  0  0  0  0  0  0  0  0  0
  140.5080   71.1010  225.9200 C   0  0  0  0  0  0  0  0  0  0  0  0
  140.4650   71.7260  224.7330 N   0  0  0  0  0  0  0  0  0  0  0  0
  139.6140   73.7290  223.3040 H   0  0  0  0  0  0  0  0  0  0  0  0
  140.3154   73.5632  220.4305 H   0  0  0  0  0  0  0  0  0  0  0  0
  138.6370   74.2216  221.0436 H   0  0  0  0  0  0  0  0  0  0  0  0
  140.2087   75.2135  218.4579 H   0  0  0  0  0  0  0  0  0  0  0  0
  139.8221   76.9255  218.2032 H   0  0  0  0  0  0  0  0  0  0  0  0
  142.5560   75.5705  218.4680 H   0  0  0  0  0  0  0  0  0  0  0  0
  142.0676   76.8840  217.3610 H   0  0  0  0  0  0  0  0  0  0  0  0
  142.8220   77.0197  220.2960 H   0  0  0  0  0  0  0  0  0  0  0  0
  143.4001   78.0310  218.9642 H   0  0  0  0  0  0  0  0  0  0  0  0
  141.7590   79.4244  220.0352 H   0  0  0  0  0  0  0  0  0  0  0  0
  140.8319   78.7071  218.6907 H   0  0  0  0  0  0  0  0  0  0  0  0
  140.7822   77.9521  221.6566 H   0  0  0  0  0  0  0  0  0  0  0  0
  139.1786   79.3418  219.8594 H   0  0  0  0  0  0  0  0  0  0  0  0
  138.4540   77.6335  220.1170 H   0  0  0  0  0  0  0  0  0  0  0  0
  138.2039   80.5918  222.3585 H   0  0  0  0  0  0  0  0  0  0  0  0
  138.3803   79.0818  223.4591 H   0  0  0  0  0  0  0  0  0  0  0  0
  140.1606   81.9792  222.1760 H   0  0  0  0  0  0  0  0  0  0  0  0
  142.5060   82.4077  222.8055 H   0  0  0  0  0  0  0  0  0  0  0  0
  143.8445   80.6459  223.9055 H   0  0  0  0  0  0  0  0  0  0  0  0
  142.8019   78.4528  224.3676 H   0  0  0  0  0  0  0  0  0  0  0  0
  140.4592   78.0158  223.7390 H   0  0  0  0  0  0  0  0  0  0  0  0
  139.1572   69.3771  222.7377 H   0  0  0  0  0  0  0  0  0  0  0  0
  139.2105   68.1441  224.9292 H   0  0  0  0  0  0  0  0  0  0  0  0
  139.7281   68.0852  227.2989 H   0  0  0  0  0  0  0  0  0  0  0  0
  140.6177   69.2660  229.3113 H   0  0  0  0  0  0  0  0  0  0  0  0
  141.4175   71.5905  229.1298 H   0  0  0  0  0  0  0  0  0  0  0  0
  141.3655   72.8130  226.9556 H   0  0  0  0  0  0  0  0  0  0  0  0
  1  2  2  0
  2  3  1  0
  3  4  1  0
  4  5  1  0
  5  6  2  0
  5  7  1  0
  7  8  1  0
  8  9  1  0
  9 10  1  0
 10 11  1  0
 11 12  1  0
 12 13  1  0
 13 14  1  0
 14 15  1  0
 15 16  1  0
 16 17  2  0
 17 18  1  0
 18 19  2  0
 19 20  1  0
 20 21  2  0
  2 22  1  0
 22 23  2  0
 23 24  1  0
 24 25  2  0
 25 26  1  0
 26 27  2  0
 27 28  1  0
 28 29  2  0
 29 30  1  0
 30 31  2  0
 12  7  1  0
 21 16  1  0
 31 22  1  0
 30 25  1  0
  3 32  1  0
  4 33  1  0
  4 34  1  0
  8 35  1  0
  8 36  1  0
  9 37  1  0
  9 38  1  0
 10 39  1  0
 10 40  1  0
 11 41  1  0
 11 42  1  0
 12 43  1  1
 13 44  1  0
 13 45  1  0
 15 46  1  0
 15 47  1  0
 17 48  1  0
 18 49  1  0
 19 50  1  0
 20 51  1  0
 21 52  1  0
 23 53  1  0
 24 54  1  0
 26 55  1  0
 27 56  1  0
 28 57  1  0
 29 58  1  0
M  END
>  <smiles>  (27) 
O=C(NCC(=O)N1CCCC[C@H]1COCc1ccccc1)c1ccc2ccccc2n1

>  <score_type>  (27) 
oracle

>  <origin>  (27) 
autodockgpu

>  <m_score__min__energy>  (27) 
-9.1799999999999997

>  <m_primary>  (27) 
energy

>  <rmsd>  (27) 
1.718762403122574

>  <m_score__min__rmsd>  (27) 
1.718762403122574

>  <meeko>  (27) 
{"free_energy": -8.63, "intermolecular_energy": -11.02, "internal_energy": -2.19, "cluster_size": 23, "cluster_id": 1, "rank_in_cluster": 9}

>  <energy>  (27) 
-8.05

>  <cluster_rmsd>  (27) 
0.96

>  <cluster>  (27) 
2

$$$$

     RDKit          3D

 58 61  0  0  0  0  0  0  0  0999 V2000
  141.3240   72.1690  221.4820 O   0  0  0  0  0  0  0  0  0  0  0  0
  140.5100   72.4600  222.3920 C   0  0  0  0  0  0  0  0  0  0  0  0
  139.8180   73.7050  222.2890 N   0  0  0  0  0  0  0  0  0  0  0  0
  139.9680   74.6390  221.2560 C   0  0  0  0  0  0  0  0  0  0  0  0
  139.7200   76.0630  221.4340 C   0  0  0  0  0  0  0  0  0  0  0  0
  138.4400   76.3580  221.3100 O   0  0  0  0  0  0  0  0  0  0  0  0
  140.5350   77.1540  221.7020 N   0  0  0  0  0  0  0  0  0  0  0  0
  141.0760   77.6300  222.9370 C   0  0  0  0  0  0  0  0  0  0  0  0
  140.3080   78.9400  223.2730 C   0  0  0  0  0  0  0  0  0  0  0  0
  139.9280   79.6000  221.9830 C   0  0  0  0  0  0  0  0  0  0  0  0
  141.0920   79.3460  221.0310 C   0  0  0  0  0  0  0  0  0  0  0  0
  140.9510   77.9530  220.4970 C   0  0  1  0  0  0  0  0  0  0  0  0
  142.2890   77.4600  220.0220 C   0  0  0  0  0  0  0  0  0  0  0  0
  142.3410   76.4550  219.1970 O   0  0  0  0  0  0  0  0  0  0  0  0
  143.2880   75.7130  218.6800 C   0  0  0  0  0  0  0  0  0  0  0  0
  143.7540   74.5120  219.4020 C   0  0  0  0  0  0  0  0  0  0  0  0
  143.3350   73.2290  219.1870 C   0  0  0  0  0  0  0  0  0  0  0  0
  143.8390   72.1450  219.8970 C   0  0  0  0  0  0  0  0  0  0  0  0
  144.7910   72.3340  220.8540 C   0  0  0  0  0  0  0  0  0  0  0  0
  145.2360   73.6050  221.0970 C   0  0  0  0  0  0  0  0  0  0  0  0
  144.7330   74.6810  220.3900 C   0  0  0  0  0  0  0  0  0  0  0  0
  140.2750   71.5500  223.5250 C   0  0  0  0  0  0  0  0  0  0  0  0
  139.6170   70.3770  223.2960 C   0  0  0  0  0  0  0  0  0  0  0  0
  139.4100   69.5370  224.3910 C   0  0  0  0  0  0  0  0  0  0  0  0
  139.8600   69.8960  225.6480 C   0  0  0  0  0  0  0  0  0  0  0  0
  139.6520   69.0530  226.7410 C   0  0  0  0  0  0  0  0  0  0  0  0
  140.1200   69.4510  227.9830 C   0  0  0  0  0  0  0  0  0  0  0  0
  140.7770   70.6590  228.1230 C   0  0  0  0  0  0  0  0  0  0  0  0
  140.9930   71.5090  227.0460 C   0  0  0  0  0  0  0  0  0  0  0  0
  140.5170   71.0960  225.8060 C   0  0  0  0  0  0  0  0  0  0  0  0
  140.7020   71.8830  224.7350 N   0  0  0  0  0  0  0  0  0  0  0  0
  139.1420   73.8910  223.0930 H   0  0  0  0  0  0  0  0  0  0  0  0
  141.0112   74.5527  220.9181 H   0  0  0  0  0  0  0  0  0  0  0  0
  139.1477   74.3548  220.5805 H   0  0  0  0  0  0  0  0  0  0  0  0
  140.9243   76.8848  223.7318 H   0  0  0  0  0  0  0  0  0  0  0  0
  142.1582   77.8100  222.8568 H   0  0  0  0  0  0  0  0  0  0  0  0
  139.4029   78.7037  223.8518 H   0  0  0  0  0  0  0  0  0  0  0  0
  140.9416   79.6105  223.8722 H   0  0  0  0  0  0  0  0  0  0  0  0
  139.0029   79.1583  221.5841 H   0  0  0  0  0  0  0  0  0  0  0  0
  139.7404   80.6756  222.1171 H   0  0  0  0  0  0  0  0  0  0  0  0
  141.0626   80.0691  220.2026 H   0  0  0  0  0  0  0  0  0  0  0  0
  142.0511   79.4606  221.5574 H   0  0  0  0  0  0  0  0  0  0  0  0
  140.2443   77.8826  219.6570 H   0  0  0  0  0  0  0  0  0  0  0  0
  142.7861   78.3074  219.5272 H   0  0  0  0  0  0  0  0  0  0  0  0
  142.7631   77.0720  220.9356 H   0  0  0  0  0  0  0  0  0  0  0  0
  142.9272   75.3744  217.6976 H   0  0  0  0  0  0  0  0  0  0  0  0
  144.1664   76.3750  218.6912 H   0  0  0  0  0  0  0  0  0  0  0  0
  142.5673   73.0464  218.4206 H   0  0  0  0  0  0  0  0  0  0  0  0
  143.4681   71.1312  219.6856 H   0  0  0  0  0  0  0  0  0  0  0  0
  145.1938   71.4812  221.4201 H   0  0  0  0  0  0  0  0  0  0  0  0
  146.0047   73.7728  221.8657 H   0  0  0  0  0  0  0  0  0  0  0  0
  145.1093   75.6914  220.6077 H   0  0  0  0  0  0  0  0  0  0  0  0
  139.2644   70.1047  222.2903 H   0  0  0  0  0  0  0  0  0  0  0  0
  138.8841   68.5808  224.2528 H   0  0  0  0  0  0  0  0  0  0  0  0
  139.1279   68.0936  226.6190 H   0  0  0  0  0  0  0  0  0  0  0  0
  139.9683   68.8041  228.8596 H   0  0  0  0  0  0  0  0  0  0  0  0
  141.1399   70.9563  229.1179 H   0  0  0  0  0  0  0  0  0  0  0  0
  141.5181   72.4678  227.1684 H   0  0  0  0  0  0  0  0  0  0  0  0
  1  2  2  0
  2  3  1  0
  3  4  1  0
  4  5  1  0
  5  6  2  0
  5  7  1  0
  7  8  1  0
  8  9  1  0
  9 10  1  0
 10 11  1  0
 11 12  1  0
 12 13  1  0
 13 14  1  0
 14 15  1  0
 15 16  1  0
 16 17  2  0
 17 18  1  0
 18 19  2  0
 19 20  1  0
 20 21  2  0
  2 22  1  0
 22 23  2  0
 23 24  1  0
 24 25  2  0
 25 26  1  0
 26 27  2  0
 27 28  1  0
 28 29  2  0
 29 30  1  0
 30 31  2  0
 12  7  1  0
 21 16  1  0
 31 22  1  0
 30 25  1  0
  3 32  1  0
  4 33  1  0
  4 34  1  0
  8 35  1  0
  8 36  1  0
  9 37  1  0
  9 38  1  0
 10 39  1  0
 10 40  1  0
 11 41  1  0
 11 42  1  0
 12 43  1  6
 13 44  1  0
 13 45  1  0
 15 46  1  0
 15 47  1  0
 17 48  1  0
 18 49  1  0
 19 50  1  0
 20 51  1  0
 21 52  1  0
 23 53  1  0
 24 54  1  0
 26 55  1  0
 27 56  1  0
 28 57  1  0
 29 58  1  0
M  END
>  <smiles>  (28) 
O=C(NCC(=O)N1CCCC[C@H]1COCc1ccccc1)c1ccc2ccccc2n1

>  <score_type>  (28) 
oracle

>  <origin>  (28) 
autodockgpu

>  <m_score__min__energy>  (28) 
-9.1799999999999997

>  <m_primary>  (28) 
energy

>  <rmsd>  (28) 
3.0757419330354936

>  <m_score__min__rmsd>  (28) 
3.0757419330354936

>  <meeko>  (28) 
{"free_energy": -8.34, "intermolecular_energy": -10.72, "internal_energy": -1.97, "cluster_size": 5, "cluster_id": 4, "rank_in_cluster": 3}

>  <energy>  (28) 
-7.84

>  <cluster_rmsd>  (28) 
1.46

>  <cluster>  (28) 
2

$$$$

     RDKit          3D

 58 61  0  0  0  0  0  0  0  0999 V2000
  139.9400   70.6540  221.4460 O   0  0  0  0  0  0  0  0  0  0  0  0
  139.8150   71.1570  222.5890 C   0  0  0  0  0  0  0  0  0  0  0  0
  139.6910   72.5770  222.6780 N   0  0  0  0  0  0  0  0  0  0  0  0
  139.6950   73.4670  221.5960 C   0  0  0  0  0  0  0  0  0  0  0  0
  140.8520   74.2770  221.2420 C   0  0  0  0  0  0  0  0  0  0  0  0
  140.9320   75.3670  221.9800 O   0  0  0  0  0  0  0  0  0  0  0  0
  141.8700   74.1430  220.3080 N   0  0  0  0  0  0  0  0  0  0  0  0
  142.1300   73.1070  219.3570 C   0  0  0  0  0  0  0  0  0  0  0  0
  143.3840   72.3450  219.8750 C   0  0  0  0  0  0  0  0  0  0  0  0
  144.2500   73.3210  220.6110 C   0  0  0  0  0  0  0  0  0  0  0  0
  144.1310   74.6360  219.8470 C   0  0  0  0  0  0  0  0  0  0  0  0
  142.8440   75.2880  220.2560 C   0  0  1  0  0  0  0  0  0  0  0  0
  142.4090   76.2520  219.1890 C   0  0  0  0  0  0  0  0  0  0  0  0
  142.3300   77.5200  219.4700 O   0  0  0  0  0  0  0  0  0  0  0  0
  141.4310   78.3090  220.0020 C   0  0  0  0  0  0  0  0  0  0  0  0
  141.7080   78.9710  221.2930 C   0  0  0  0  0  0  0  0  0  0  0  0
  142.1850   80.2400  221.4630 C   0  0  0  0  0  0  0  0  0  0  0  0
  142.4010   80.8010  222.7160 C   0  0  0  0  0  0  0  0  0  0  0  0
  142.1370   80.0830  223.8440 C   0  0  0  0  0  0  0  0  0  0  0  0
  141.6570   78.8080  223.7150 C   0  0  0  0  0  0  0  0  0  0  0  0
  141.4430   78.2520  222.4670 C   0  0  0  0  0  0  0  0  0  0  0  0
  139.7980   70.3140  223.7950 C   0  0  0  0  0  0  0  0  0  0  0  0
  139.1740   69.1020  223.7360 C   0  0  0  0  0  0  0  0  0  0  0  0
  139.1740   68.3260  224.8970 C   0  0  0  0  0  0  0  0  0  0  0  0
  139.7870   68.7850  226.0490 C   0  0  0  0  0  0  0  0  0  0  0  0
  139.7860   68.0070  227.2070 C   0  0  0  0  0  0  0  0  0  0  0  0
  140.4120   68.5040  228.3390 C   0  0  0  0  0  0  0  0  0  0  0  0
  141.0200   69.7450  228.3080 C   0  0  0  0  0  0  0  0  0  0  0  0
  141.0310   70.5320  227.1640 C   0  0  0  0  0  0  0  0  0  0  0  0
  140.3980   70.0190  226.0360 C   0  0  0  0  0  0  0  0  0  0  0  0
  140.3820   70.7420  224.9050 N   0  0  0  0  0  0  0  0  0  0  0  0
  139.5890   72.9400  223.6770 H   0  0  0  0  0  0  0  0  0  0  0  0
  139.4632   72.8636  220.7059 H   0  0  0  0  0  0  0  0  0  0  0  0
  138.9847   74.2340  221.9382 H   0  0  0  0  0  0  0  0  0  0  0  0
  141.2695   72.4248  219.2918 H   0  0  0  0  0  0  0  0  0  0  0  0
  142.2995   73.5199  218.3516 H   0  0  0  0  0  0  0  0  0  0  0  0
  143.0750   71.5356  220.5528 H   0  0  0  0  0  0  0  0  0  0  0  0
  143.9372   71.9041  219.0326 H   0  0  0  0  0  0  0  0  0  0  0  0
  143.8955   73.4446  221.6449 H   0  0  0  0  0  0  0  0  0  0  0  0
  145.2932   72.9767  220.6666 H   0  0  0  0  0  0  0  0  0  0  0  0
  144.9784   75.2916  220.0960 H   0  0  0  0  0  0  0  0  0  0  0  0
  144.1417   74.4529  218.7624 H   0  0  0  0  0  0  0  0  0  0  0  0
  142.9228   75.8417  221.2032 H   0  0  0  0  0  0  0  0  0  0  0  0
  143.1208   76.1516  218.3564 H   0  0  0  0  0  0  0  0  0  0  0  0
  141.3665   75.9645  218.9876 H   0  0  0  0  0  0  0  0  0  0  0  0
  141.2343   79.1067  219.2706 H   0  0  0  0  0  0  0  0  0  0  0  0
  140.6004   77.6274  220.2376 H   0  0  0  0  0  0  0  0  0  0  0  0
  142.4075   80.8431  220.5704 H   0  0  0  0  0  0  0  0  0  0  0  0
  142.7864   81.8280  222.7977 H   0  0  0  0  0  0  0  0  0  0  0  0
  142.3065   80.5201  224.8391 H   0  0  0  0  0  0  0  0  0  0  0  0
  141.4383   78.2171  224.6167 H   0  0  0  0  0  0  0  0  0  0  0  0
  141.0569   77.2246  222.3940 H   0  0  0  0  0  0  0  0  0  0  0  0
  138.6910   68.7508  222.8122 H   0  0  0  0  0  0  0  0  0  0  0  0
  138.6826   67.3419  224.8955 H   0  0  0  0  0  0  0  0  0  0  0  0
  139.2990   67.0208  227.2212 H   0  0  0  0  0  0  0  0  0  0  0  0
  140.4251   67.9095  229.2644 H   0  0  0  0  0  0  0  0  0  0  0  0
  141.5105   70.1209  229.2180 H   0  0  0  0  0  0  0  0  0  0  0  0
  141.5188   71.5178  227.1501 H   0  0  0  0  0  0  0  0  0  0  0  0
  1  2  2  0
  2  3  1  0
  3  4  1  0
  4  5  1  0
  5  6  2  0
  5  7  1  0
  7  8  1  0
  8  9  1  0
  9 10  1  0
 10 11  1  0
 11 12  1  0
 12 13  1  0
 13 14  1  0
 14 15  1  0
 15 16  1  0
 16 17  2  0
 17 18  1  0
 18 19  2  0
 19 20  1  0
 20 21  2  0
  2 22  1  0
 22 23  2  0
 23 24  1  0
 24 25  2  0
 25 26  1  0
 26 27  2  0
 27 28  1  0
 28 29  2  0
 29 30  1  0
 30 31  2  0
 12  7  1  0
 21 16  1  0
 31 22  1  0
 30 25  1  0
  3 32  1  0
  4 33  1  0
  4 34  1  0
  8 35  1  0
  8 36  1  0
  9 37  1  0
  9 38  1  0
 10 39  1  0
 10 40  1  0
 11 41  1  0
 11 42  1  0
 12 43  1  1
 13 44  1  0
 13 45  1  0
 15 46  1  0
 15 47  1  0
 17 48  1  0
 18 49  1  0
 19 50  1  0
 20 51  1  0
 21 52  1  0
 23 53  1  0
 24 54  1  0
 26 55  1  0
 27 56  1  0
 28 57  1  0
 29 58  1  0
M  END
>  <smiles>  (29) 
O=C(NCC(=O)N1CCCC[C@H]1COCc1ccccc1)c1ccc2ccccc2n1

>  <score_type>  (29) 
oracle

>  <origin>  (29) 
autodockgpu

>  <m_score__min__energy>  (29) 
-9.1799999999999997

>  <m_primary>  (29) 
energy

>  <rmsd>  (29) 
2.40816302246322

>  <m_score__min__rmsd>  (29) 
2.40816302246322

>  <meeko>  (29) 
{"free_energy": -9.1, "intermolecular_energy": -11.49, "internal_energy": -1.89, "cluster_size": 23, "cluster_id": 1, "rank_in_cluster": 2}

>  <energy>  (29) 
-8.6

>  <cluster_rmsd>  (29) 
0.0

>  <cluster>  (29) 
3

$$$$

     RDKit          3D

 58 61  0  0  0  0  0  0  0  0999 V2000
  140.3760   72.1140  221.1270 O   0  0  0  0  0  0  0  0  0  0  0  0
  139.9890   72.4520  222.2710 C   0  0  0  0  0  0  0  0  0  0  0  0
  139.5520   73.8000  222.4520 N   0  0  0  0  0  0  0  0  0  0  0  0
  139.5180   74.7870  221.4600 C   0  0  0  0  0  0  0  0  0  0  0  0
  140.6910   75.5530  221.0640 C   0  0  0  0  0  0  0  0  0  0  0  0
  140.9560   76.5220  221.9180 O   0  0  0  0  0  0  0  0  0  0  0  0
  141.5730   75.4770  219.9950 N   0  0  0  0  0  0  0  0  0  0  0  0
  141.7670   74.4490  219.0190 C   0  0  0  0  0  0  0  0  0  0  0  0
  143.1310   73.7820  219.3560 C   0  0  0  0  0  0  0  0  0  0  0  0
  144.0230   74.8250  219.9580 C   0  0  0  0  0  0  0  0  0  0  0  0
  143.7050   76.1180  219.2140 C   0  0  0  0  0  0  0  0  0  0  0  0
  142.4470   76.6850  219.8000 C   0  0  1  0  0  0  0  0  0  0  0  0
  141.7990   77.6030  218.8030 C   0  0  0  0  0  0  0  0  0  0  0  0
  140.9160   78.4670  219.2120 O   0  0  0  0  0  0  0  0  0  0  0  0
  140.9410   79.5780  219.9040 C   0  0  0  0  0  0  0  0  0  0  0  0
  141.1960   79.5300  221.3580 C   0  0  0  0  0  0  0  0  0  0  0  0
  142.4040   79.7100  221.9710 C   0  0  0  0  0  0  0  0  0  0  0  0
  142.5600   79.6700  223.3520 C   0  0  0  0  0  0  0  0  0  0  0  0
  141.4840   79.4460  224.1570 C   0  0  0  0  0  0  0  0  0  0  0  0
  140.2570   79.2620  223.5810 C   0  0  0  0  0  0  0  0  0  0  0  0
  140.1050   79.3020  222.2070 C   0  0  0  0  0  0  0  0  0  0  0  0
  139.9840   71.4930  223.3890 C   0  0  0  0  0  0  0  0  0  0  0  0
  139.5560   70.2190  223.1530 C   0  0  0  0  0  0  0  0  0  0  0  0
  139.5630   69.3340  224.2330 C   0  0  0  0  0  0  0  0  0  0  0  0
  139.9890   69.7510  225.4810 C   0  0  0  0  0  0  0  0  0  0  0  0
  139.9950   68.8640  226.5580 C   0  0  0  0  0  0  0  0  0  0  0  0
  140.4290   69.3220  227.7920 C   0  0  0  0  0  0  0  0  0  0  0  0
  140.8450   70.6320  227.9380 C   0  0  0  0  0  0  0  0  0  0  0  0
  140.8460   71.5280  226.8770 C   0  0  0  0  0  0  0  0  0  0  0  0
  140.4070   71.0530  225.6460 C   0  0  0  0  0  0  0  0  0  0  0  0
  140.3890   71.8800  224.5890 N   0  0  0  0  0  0  0  0  0  0  0  0
  139.2370   74.0210  223.4480 H   0  0  0  0  0  0  0  0  0  0  0  0
  139.1598   74.2877  220.5477 H   0  0  0  0  0  0  0  0  0  0  0  0
  138.9013   75.5609  221.9403 H   0  0  0  0  0  0  0  0  0  0  0  0
  140.9556   73.7087  219.0785 H   0  0  0  0  0  0  0  0  0  0  0  0
  141.7630   74.8595  217.9985 H   0  0  0  0  0  0  0  0  0  0  0  0
  142.9781   72.9626  220.0738 H   0  0  0  0  0  0  0  0  0  0  0  0
  143.5886   73.3688  218.4450 H   0  0  0  0  0  0  0  0  0  0  0  0
  143.8111   74.9379  221.0315 H   0  0  0  0  0  0  0  0  0  0  0  0
  145.0850   74.5538  219.8659 H   0  0  0  0  0  0  0  0  0  0  0  0
  144.5312   76.8337  219.3372 H   0  0  0  0  0  0  0  0  0  0  0  0
  143.5744   75.9215  218.1396 H   0  0  0  0  0  0  0  0  0  0  0  0
  142.6204   77.2552  220.7245 H   0  0  0  0  0  0  0  0  0  0  0  0
  142.6062   78.1734  218.3202 H   0  0  0  0  0  0  0  0  0  0  0  0
  141.2197   76.9229  218.1613 H   0  0  0  0  0  0  0  0  0  0  0  0
  141.7258   80.2104  219.4634 H   0  0  0  0  0  0  0  0  0  0  0  0
  139.9057   79.9437  219.8380 H   0  0  0  0  0  0  0  0  0  0  0  0
  143.2900   79.8942  221.3457 H   0  0  0  0  0  0  0  0  0  0  0  0
  143.5552   79.8197  223.7960 H   0  0  0  0  0  0  0  0  0  0  0  0
  141.5998   79.4137  225.2504 H   0  0  0  0  0  0  0  0  0  0  0  0
  139.3797   79.0798  224.2191 H   0  0  0  0  0  0  0  0  0  0  0  0
  139.1062   79.1516  221.7714 H   0  0  0  0  0  0  0  0  0  0  0  0
  139.2198   69.9027  222.1545 H   0  0  0  0  0  0  0  0  0  0  0  0
  139.2269   68.2964  224.0900 H   0  0  0  0  0  0  0  0  0  0  0  0
  139.6623   67.8233  226.4304 H   0  0  0  0  0  0  0  0  0  0  0  0
  140.4424   68.6419  228.6565 H   0  0  0  0  0  0  0  0  0  0  0  0
  141.1860   70.9757  228.9257 H   0  0  0  0  0  0  0  0  0  0  0  0
  141.1796   72.5684  227.0048 H   0  0  0  0  0  0  0  0  0  0  0  0
  1  2  2  0
  2  3  1  0
  3  4  1  0
  4  5  1  0
  5  6  2  0
  5  7  1  0
  7  8  1  0
  8  9  1  0
  9 10  1  0
 10 11  1  0
 11 12  1  0
 12 13  1  0
 13 14  1  0
 14 15  1  0
 15 16  1  0
 16 17  2  0
 17 18  1  0
 18 19  2  0
 19 20  1  0
 20 21  2  0
  2 22  1  0
 22 23  2  0
 23 24  1  0
 24 25  2  0
 25 26  1  0
 26 27  2  0
 27 28  1  0
 28 29  2  0
 29 30  1  0
 30 31  2  0
 12  7  1  0
 21 16  1  0
 31 22  1  0
 30 25  1  0
  3 32  1  0
  4 33  1  0
  4 34  1  0
  8 35  1  0
  8 36  1  0
  9 37  1  0
  9 38  1  0
 10 39  1  0
 10 40  1  0
 11 41  1  0
 11 42  1  0
 12 43  1  1
 13 44  1  0
 13 45  1  0
 15 46  1  0
 15 47  1  0
 17 48  1  0
 18 49  1  0
 19 50  1  0
 20 51  1  0
 21 52  1  0
 23 53  1  0
 24 54  1  0
 26 55  1  0
 27 56  1  0
 28 57  1  0
 29 58  1  0
M  END
>  <smiles>  (30) 
O=C(NCC(=O)N1CCCC[C@H]1COCc1ccccc1)c1ccc2ccccc2n1

>  <score_type>  (30) 
oracle

>  <origin>  (30) 
autodockgpu

>  <m_score__min__energy>  (30) 
-9.1799999999999997

>  <m_primary>  (30) 
energy

>  <rmsd>  (30) 
2.0002564650987

>  <m_score__min__rmsd>  (30) 
2.0002564650987

>  <meeko>  (30) 
{"free_energy": -8.15, "intermolecular_energy": -10.54, "internal_energy": -2.21, "cluster_size": 23, "cluster_id": 1, "rank_in_cluster": 18}

>  <energy>  (30) 
-8.44

>  <cluster_rmsd>  (30) 
0.0

>  <cluster>  (30) 
4

$$$$

     RDKit          3D

 58 61  0  0  0  0  0  0  0  0999 V2000
  141.0220   72.5720  222.3720 O   0  0  0  0  0  0  0  0  0  0  0  0
  139.9660   72.2460  222.9640 C   0  0  0  0  0  0  0  0  0  0  0  0
  138.7670   72.9400  222.6140 N   0  0  0  0  0  0  0  0  0  0  0  0
  138.6640   73.9600  221.6600 C   0  0  0  0  0  0  0  0  0  0  0  0
  139.1930   75.3000  221.8730 C   0  0  0  0  0  0  0  0  0  0  0  0
  140.4320   75.2720  222.3260 O   0  0  0  0  0  0  0  0  0  0  0  0
  138.6750   76.5760  221.7020 N   0  0  0  0  0  0  0  0  0  0  0  0
  138.3200   77.5730  222.6640 C   0  0  0  0  0  0  0  0  0  0  0  0
  136.7660   77.6440  222.6630 C   0  0  0  0  0  0  0  0  0  0  0  0
  136.2860   77.3140  221.2830 C   0  0  0  0  0  0  0  0  0  0  0  0
  137.3090   77.9270  220.3330 C   0  0  0  0  0  0  0  0  0  0  0  0
  138.4880   77.0040  220.2720 C   0  0  1  0  0  0  0  0  0  0  0  0
  139.7020   77.7680  219.8270 C   0  0  0  0  0  0  0  0  0  0  0  0
  140.7710   77.7560  220.5700 O   0  0  0  0  0  0  0  0  0  0  0  0
  141.8220   78.5230  220.7160 C   0  0  0  0  0  0  0  0  0  0  0  0
  141.8890   79.4640  221.8520 C   0  0  0  0  0  0  0  0  0  0  0  0
  142.9310   79.6000  222.7260 C   0  0  0  0  0  0  0  0  0  0  0  0
  142.9280   80.5280  223.7610 C   0  0  0  0  0  0  0  0  0  0  0  0
  141.8570   81.3510  223.9410 C   0  0  0  0  0  0  0  0  0  0  0  0
  140.7940   81.2460  223.0860 C   0  0  0  0  0  0  0  0  0  0  0  0
  140.8000   80.3220  222.0570 C   0  0  0  0  0  0  0  0  0  0  0  0
  139.9600   71.1850  223.9860 C   0  0  0  0  0  0  0  0  0  0  0  0
  139.4050   69.9790  223.6710 C   0  0  0  0  0  0  0  0  0  0  0  0
  139.4150   68.9950  224.6610 C   0  0  0  0  0  0  0  0  0  0  0  0
  139.9690   69.2510  225.9020 C   0  0  0  0  0  0  0  0  0  0  0  0
  139.9780   68.2650  226.8890 C   0  0  0  0  0  0  0  0  0  0  0  0
  140.5430   68.5630  228.1190 C   0  0  0  0  0  0  0  0  0  0  0  0
  141.0830   69.8140  228.3490 C   0  0  0  0  0  0  0  0  0  0  0  0
  141.0830   70.8070  227.3780 C   0  0  0  0  0  0  0  0  0  0  0  0
  140.5120   70.4920  226.1500 C   0  0  0  0  0  0  0  0  0  0  0  0
  140.4880   71.4180  225.1790 N   0  0  0  0  0  0  0  0  0  0  0  0
  137.9060   72.6150  223.1540 H   0  0  0  0  0  0  0  0  0  0  0  0
  139.1585   73.5792  220.7542 H   0  0  0  0  0  0  0  0  0  0  0  0
  137.5803   74.1488  221.6551 H   0  0  0  0  0  0  0  0  0  0  0  0
  138.6880   77.2890  223.6609 H   0  0  0  0  0  0  0  0  0  0  0  0
  138.7657   78.5472  222.4144 H   0  0  0  0  0  0  0  0  0  0  0  0
  136.3592   76.9184  223.3827 H   0  0  0  0  0  0  0  0  0  0  0  0
  136.4303   78.6507  222.9527 H   0  0  0  0  0  0  0  0  0  0  0  0
  136.2384   76.2239  221.1439 H   0  0  0  0  0  0  0  0  0  0  0  0
  135.2751   77.7071  221.0998 H   0  0  0  0  0  0  0  0  0  0  0  0
  136.8692   78.0390  219.3310 H   0  0  0  0  0  0  0  0  0  0  0  0
  137.6172   78.9210  220.6894 H   0  0  0  0  0  0  0  0  0  0  0  0
  138.3421   76.1639  219.5771 H   0  0  0  0  0  0  0  0  0  0  0  0
  139.9903   77.3677  218.8438 H   0  0  0  0  0  0  0  0  0  0  0  0
  139.3748   78.8177  219.8589 H   0  0  0  0  0  0  0  0  0  0  0  0
  142.6934   77.8571  220.8016 H   0  0  0  0  0  0  0  0  0  0  0  0
  141.7805   79.1842  219.8379 H   0  0  0  0  0  0  0  0  0  0  0  0
  143.8086   78.9479  222.6054 H   0  0  0  0  0  0  0  0  0  0  0  0
  143.7930   80.5982  224.4369 H   0  0  0  0  0  0  0  0  0  0  0  0
  141.8472   82.0865  224.7589 H   0  0  0  0  0  0  0  0  0  0  0  0
  139.9234   81.9051  223.2188 H   0  0  0  0  0  0  0  0  0  0  0  0
  139.9314   80.2591  221.3850 H   0  0  0  0  0  0  0  0  0  0  0  0
  138.9683   69.7902  222.6792 H   0  0  0  0  0  0  0  0  0  0  0  0
  138.9783   68.0072  224.4522 H   0  0  0  0  0  0  0  0  0  0  0  0
  139.5459   67.2722  226.6951 H   0  0  0  0  0  0  0  0  0  0  0  0
  140.5616   67.8024  228.9134 H   0  0  0  0  0  0  0  0  0  0  0  0
  141.5268   70.0302  229.3320 H   0  0  0  0  0  0  0  0  0  0  0  0
  141.5159   71.7995  227.5720 H   0  0  0  0  0  0  0  0  0  0  0  0
  1  2  2  0
  2  3  1  0
  3  4  1  0
  4  5  1  0
  5  6  2  0
  5  7  1  0
  7  8  1  0
  8  9  1  0
  9 10  1  0
 10 11  1  0
 11 12  1  0
 12 13  1  0
 13 14  1  0
 14 15  1  0
 15 16  1  0
 16 17  2  0
 17 18  1  0
 18 19  2  0
 19 20  1  0
 20 21  2  0
  2 22  1  0
 22 23  2  0
 23 24  1  0
 24 25  2  0
 25 26  1  0
 26 27  2  0
 27 28  1  0
 28 29  2  0
 29 30  1  0
 30 31  2  0
 12  7  1  0
 21 16  1  0
 31 22  1  0
 30 25  1  0
  3 32  1  0
  4 33  1  0
  4 34  1  0
  8 35  1  0
  8 36  1  0
  9 37  1  0
  9 38  1  0
 10 39  1  0
 10 40  1  0
 11 41  1  0
 11 42  1  0
 12 43  1  6
 13 44  1  0
 13 45  1  0
 15 46  1  0
 15 47  1  0
 17 48  1  0
 18 49  1  0
 19 50  1  0
 20 51  1  0
 21 52  1  0
 23 53  1  0
 24 54  1  0
 26 55  1  0
 27 56  1  0
 28 57  1  0
 29 58  1  0
M  END
>  <smiles>  (31) 
O=C(NCC(=O)N1CCCC[C@H]1COCc1ccccc1)c1ccc2ccccc2n1

>  <score_type>  (31) 
oracle

>  <origin>  (31) 
autodockgpu

>  <m_score__min__energy>  (31) 
-9.1799999999999997

>  <m_primary>  (31) 
energy

>  <rmsd>  (31) 
2.9257984552125356

>  <m_score__min__rmsd>  (31) 
2.9257984552125356

>  <meeko>  (31) 
{"free_energy": -8.42, "intermolecular_energy": -10.81, "internal_energy": -1.67, "cluster_size": 23, "cluster_id": 1, "rank_in_cluster": 13}

>  <energy>  (31) 
-8.44

>  <cluster_rmsd>  (31) 
0.27

>  <cluster>  (31) 
4

$$$$

     RDKit          3D

 58 61  0  0  0  0  0  0  0  0999 V2000
  141.2190   74.4700  220.9650 O   0  0  0  0  0  0  0  0  0  0  0  0
  140.3290   74.7410  221.8060 C   0  0  0  0  0  0  0  0  0  0  0  0
  139.5810   73.6540  222.3540 N   0  0  0  0  0  0  0  0  0  0  0  0
  139.7530   72.3020  222.0320 C   0  0  0  0  0  0  0  0  0  0  0  0
  139.0790   71.2270  222.7470 C   0  0  0  0  0  0  0  0  0  0  0  0
  138.9310   71.5070  224.0280 O   0  0  0  0  0  0  0  0  0  0  0  0
  138.5700   69.9930  222.3690 N   0  0  0  0  0  0  0  0  0  0  0  0
  138.5990   69.3210  221.1070 C   0  0  0  0  0  0  0  0  0  0  0  0
  137.1440   69.3650  220.5570 C   0  0  0  0  0  0  0  0  0  0  0  0
  136.2050   69.3430  221.7250 C   0  0  0  0  0  0  0  0  0  0  0  0
  136.8510   68.4240  222.7570 C   0  0  0  0  0  0  0  0  0  0  0  0
  137.9090   69.2090  223.4710 C   0  0  1  0  0  0  0  0  0  0  0  0
  138.9130   68.2670  224.0710 C   0  0  0  0  0  0  0  0  0  0  0  0
  138.9260   68.0870  225.3600 O   0  0  0  0  0  0  0  0  0  0  0  0
  139.8020   68.2400  226.3200 C   0  0  0  0  0  0  0  0  0  0  0  0
  140.2910   69.5920  226.6570 C   0  0  0  0  0  0  0  0  0  0  0  0
  141.0220   70.4110  225.8450 C   0  0  0  0  0  0  0  0  0  0  0  0
  141.4280   71.6850  226.2290 C   0  0  0  0  0  0  0  0  0  0  0  0
  141.1000   72.1670  227.4600 C   0  0  0  0  0  0  0  0  0  0  0  0
  140.3680   71.3760  228.3030 C   0  0  0  0  0  0  0  0  0  0  0  0
  139.9650   70.1100  227.9190 C   0  0  0  0  0  0  0  0  0  0  0  0
  140.0640   76.1300  222.2160 C   0  0  0  0  0  0  0  0  0  0  0  0
  138.7670   76.5430  222.3270 C   0  0  0  0  0  0  0  0  0  0  0  0
  138.5500   77.8650  222.7170 C   0  0  0  0  0  0  0  0  0  0  0  0
  139.6160   78.7070  222.9760 C   0  0  0  0  0  0  0  0  0  0  0  0
  139.3950   80.0280  223.3660 C   0  0  0  0  0  0  0  0  0  0  0  0
  140.4910   80.8380  223.6160 C   0  0  0  0  0  0  0  0  0  0  0  0
  141.7710   80.3350  223.4780 C   0  0  0  0  0  0  0  0  0  0  0  0
  142.0100   79.0220  223.0910 C   0  0  0  0  0  0  0  0  0  0  0  0
  140.8990   78.2230  222.8430 C   0  0  0  0  0  0  0  0  0  0  0  0
  141.0770   76.9470  222.4680 N   0  0  0  0  0  0  0  0  0  0  0  0
  138.8410   73.9530  223.0620 H   0  0  0  0  0  0  0  0  0  0  0  0
  139.4536   72.2003  220.9784 H   0  0  0  0  0  0  0  0  0  0  0  0
  140.8013   72.1372  222.3215 H   0  0  0  0  0  0  0  0  0  0  0  0
  139.2832   69.8360  220.4166 H   0  0  0  0  0  0  0  0  0  0  0  0
  138.9560   68.2859  221.2126 H   0  0  0  0  0  0  0  0  0  0  0  0
  136.9931   70.2857  219.9744 H   0  0  0  0  0  0  0  0  0  0  0  0
  136.9577   68.5016  219.9014 H   0  0  0  0  0  0  0  0  0  0  0  0
  136.0816   70.3554  222.1370 H   0  0  0  0  0  0  0  0  0  0  0  0
  135.2049   68.9883  221.4352 H   0  0  0  0  0  0  0  0  0  0  0  0
  136.0936   68.0772  223.4754 H   0  0  0  0  0  0  0  0  0  0  0  0
  137.2915   67.5440  222.2655 H   0  0  0  0  0  0  0  0  0  0  0  0
  137.5079   69.8385  224.2790 H   0  0  0  0  0  0  0  0  0  0  0  0
  138.7440   67.2822  223.6111 H   0  0  0  0  0  0  0  0  0  0  0  0
  139.8794   68.7505  223.8655 H   0  0  0  0  0  0  0  0  0  0  0  0
  139.3488   67.8280  227.2337 H   0  0  0  0  0  0  0  0  0  0  0  0
  140.6979   67.7336  225.9316 H   0  0  0  0  0  0  0  0  0  0  0  0
  141.3017   70.0481  224.8450 H   0  0  0  0  0  0  0  0  0  0  0  0
  142.0158   72.3051  225.5362 H   0  0  0  0  0  0  0  0  0  0  0  0
  141.4177   73.1733  227.7706 H   0  0  0  0  0  0  0  0  0  0  0  0
  140.0962   71.7524  229.3002 H   0  0  0  0  0  0  0  0  0  0  0  0
  139.3768   69.4968  228.6176 H   0  0  0  0  0  0  0  0  0  0  0  0
  137.9287   75.8622  222.1178 H   0  0  0  0  0  0  0  0  0  0  0  0
  137.5213   78.2410  222.8194 H   0  0  0  0  0  0  0  0  0  0  0  0
  138.3722   80.4184  223.4728 H   0  0  0  0  0  0  0  0  0  0  0  0
  140.3422   81.8832  223.9248 H   0  0  0  0  0  0  0  0  0  0  0  0
  142.6274   80.9948  223.6809 H   0  0  0  0  0  0  0  0  0  0  0  0
  143.0330   78.6317  222.9854 H   0  0  0  0  0  0  0  0  0  0  0  0
  1  2  2  0
  2  3  1  0
  3  4  1  0
  4  5  1  0
  5  6  2  0
  5  7  1  0
  7  8  1  0
  8  9  1  0
  9 10  1  0
 10 11  1  0
 11 12  1  0
 12 13  1  0
 13 14  1  0
 14 15  1  0
 15 16  1  0
 16 17  2  0
 17 18  1  0
 18 19  2  0
 19 20  1  0
 20 21  2  0
  2 22  1  0
 22 23  2  0
 23 24  1  0
 24 25  2  0
 25 26  1  0
 26 27  2  0
 27 28  1  0
 28 29  2  0
 29 30  1  0
 30 31  2  0
 12  7  1  0
 21 16  1  0
 31 22  1  0
 30 25  1  0
  3 32  1  0
  4 33  1  0
  4 34  1  0
  8 35  1  0
  8 36  1  0
  9 37  1  0
  9 38  1  0
 10 39  1  0
 10 40  1  0
 11 41  1  0
 11 42  1  0
 12 43  1  1
 13 44  1  0
 13 45  1  0
 15 46  1  0
 15 47  1  0
 17 48  1  0
 18 49  1  0
 19 50  1  0
 20 51  1  0
 21 52  1  0
 23 53  1  0
 24 54  1  0
 26 55  1  0
 27 56  1  0
 28 57  1  0
 29 58  1  0
M  END
>  <smiles>  (32) 
O=C(NCC(=O)N1CCCC[C@H]1COCc1ccccc1)c1ccc2ccccc2n1

>  <score_type>  (32) 
oracle

>  <origin>  (32) 
autodockgpu

>  <m_score__min__energy>  (32) 
-9.1799999999999997

>  <m_primary>  (32) 
energy

>  <rmsd>  (32) 
8.144410611878381

>  <m_score__min__rmsd>  (32) 
8.144410611878381

>  <meeko>  (32) 
{"free_energy": -9.04, "intermolecular_energy": -11.42, "internal_energy": -1.84, "cluster_size": 5, "cluster_id": 2, "rank_in_cluster": 2}

>  <energy>  (32) 
-8.34

>  <cluster_rmsd>  (32) 
0.56

>  <cluster>  (32) 
4

$$$$

     RDKit          3D

 58 61  0  0  0  0  0  0  0  0999 V2000
  140.7550   77.0080  218.3520 O   0  0  0  0  0  0  0  0  0  0  0  0
  141.9550   77.0210  218.7180 C   0  0  0  0  0  0  0  0  0  0  0  0
  142.5360   78.2850  219.0400 N   0  0  0  0  0  0  0  0  0  0  0  0
  141.8810   79.5230  218.9850 C   0  0  0  0  0  0  0  0  0  0  0  0
  141.6710   80.3600  220.1570 C   0  0  0  0  0  0  0  0  0  0  0  0
  141.8500   81.6380  219.8870 O   0  0  0  0  0  0  0  0  0  0  0  0
  141.3270   80.0980  221.4760 N   0  0  0  0  0  0  0  0  0  0  0  0
  140.7000   80.9280  222.4570 C   0  0  0  0  0  0  0  0  0  0  0  0
  141.8030   81.2850  223.4950 C   0  0  0  0  0  0  0  0  0  0  0  0
  142.7640   80.1390  223.5660 C   0  0  0  0  0  0  0  0  0  0  0  0
  141.9160   78.8790  223.4100 C   0  0  0  0  0  0  0  0  0  0  0  0
  141.6270   78.7010  221.9500 C   0  0  1  0  0  0  0  0  0  0  0  0
  140.3980   77.8540  221.7820 C   0  0  0  0  0  0  0  0  0  0  0  0
  140.5080   76.5570  221.8140 O   0  0  0  0  0  0  0  0  0  0  0  0
  140.1300   75.5640  221.0500 C   0  0  0  0  0  0  0  0  0  0  0  0
  140.4270   74.1750  221.4550 C   0  0  0  0  0  0  0  0  0  0  0  0
  141.5390   73.4560  221.1180 C   0  0  0  0  0  0  0  0  0  0  0  0
  141.7550   72.1550  221.5580 C   0  0  0  0  0  0  0  0  0  0  0  0
  140.8410   71.5410  222.3590 C   0  0  0  0  0  0  0  0  0  0  0  0
  139.7140   72.2280  222.7190 C   0  0  0  0  0  0  0  0  0  0  0  0
  139.5000   73.5220  222.2800 C   0  0  0  0  0  0  0  0  0  0  0  0
  142.7380   75.7780  218.8100 C   0  0  0  0  0  0  0  0  0  0  0  0
  142.4560   74.7620  217.9430 C   0  0  0  0  0  0  0  0  0  0  0  0
  143.2160   73.5970  218.0570 C   0  0  0  0  0  0  0  0  0  0  0  0
  144.2070   73.4940  219.0150 C   0  0  0  0  0  0  0  0  0  0  0  0
  144.9650   72.3270  219.1260 C   0  0  0  0  0  0  0  0  0  0  0  0
  145.9490   72.2660  220.1000 C   0  0  0  0  0  0  0  0  0  0  0  0
  146.1650   73.3450  220.9370 C   0  0  0  0  0  0  0  0  0  0  0  0
  145.4200   74.5130  220.8400 C   0  0  0  0  0  0  0  0  0  0  0  0
  144.4360   74.5590  219.8580 C   0  0  0  0  0  0  0  0  0  0  0  0
  143.6910   75.6670  219.7240 N   0  0  0  0  0  0  0  0  0  0  0  0
  143.5580   78.2260  219.3430 H   0  0  0  0  0  0  0  0  0  0  0  0
  142.4515   80.1366  218.2723 H   0  0  0  0  0  0  0  0  0  0  0  0
  140.8519   79.2177  218.7446 H   0  0  0  0  0  0  0  0  0  0  0  0
  140.3078   81.8425  221.9880 H   0  0  0  0  0  0  0  0  0  0  0  0
  139.8529   80.4135  222.9342 H   0  0  0  0  0  0  0  0  0  0  0  0
  142.3320   82.1960  223.1784 H   0  0  0  0  0  0  0  0  0  0  0  0
  141.3527   81.4662  224.4821 H   0  0  0  0  0  0  0  0  0  0  0  0
  143.5029   80.2071  222.7539 H   0  0  0  0  0  0  0  0  0  0  0  0
  143.3243   80.1369  224.5126 H   0  0  0  0  0  0  0  0  0  0  0  0
  142.4673   78.0070  223.7917 H   0  0  0  0  0  0  0  0  0  0  0  0
  140.9794   78.9725  223.9792 H   0  0  0  0  0  0  0  0  0  0  0  0
  142.4507   78.2187  221.4033 H   0  0  0  0  0  0  0  0  0  0  0  0
  139.7014   78.1367  222.5850 H   0  0  0  0  0  0  0  0  0  0  0  0
  140.0773   78.0625  220.7507 H   0  0  0  0  0  0  0  0  0  0  0  0
  139.0375   75.6393  220.9462 H   0  0  0  0  0  0  0  0  0  0  0  0
  140.7307   75.6991  220.1385 H   0  0  0  0  0  0  0  0  0  0  0  0
  142.2948   73.9261  220.4716 H   0  0  0  0  0  0  0  0  0  0  0  0
  142.6678   71.6196  221.2579 H   0  0  0  0  0  0  0  0  0  0  0  0
  141.0057   70.5116  222.7101 H   0  0  0  0  0  0  0  0  0  0  0  0
  138.9677   71.7445  223.3666 H   0  0  0  0  0  0  0  0  0  0  0  0
  138.5840   74.0496  222.5842 H   0  0  0  0  0  0  0  0  0  0  0  0
  141.6632   74.8575  217.1864 H   0  0  0  0  0  0  0  0  0  0  0  0
  143.0246   72.7529  217.3781 H   0  0  0  0  0  0  0  0  0  0  0  0
  144.7851   71.4742  218.4549 H   0  0  0  0  0  0  0  0  0  0  0  0
  146.5594   71.3572  220.2074 H   0  0  0  0  0  0  0  0  0  0  0  0
  146.9511   73.2762  221.7033 H   0  0  0  0  0  0  0  0  0  0  0  0
  145.6004   75.3656  221.5113 H   0  0  0  0  0  0  0  0  0  0  0  0
  1  2  2  0
  2  3  1  0
  3  4  1  0
  4  5  1  0
  5  6  2  0
  5  7  1  0
  7  8  1  0
  8  9  1  0
  9 10  1  0
 10 11  1  0
 11 12  1  0
 12 13  1  0
 13 14  1  0
 14 15  1  0
 15 16  1  0
 16 17  2  0
 17 18  1  0
 18 19  2  0
 19 20  1  0
 20 21  2  0
  2 22  1  0
 22 23  2  0
 23 24  1  0
 24 25  2  0
 25 26  1  0
 26 27  2  0
 27 28  1  0
 28 29  2  0
 29 30  1  0
 30 31  2  0
 12  7  1  0
 21 16  1  0
 31 22  1  0
 30 25  1  0
  3 32  1  0
  4 33  1  0
  4 34  1  0
  8 35  1  0
  8 36  1  0
  9 37  1  0
  9 38  1  0
 10 39  1  0
 10 40  1  0
 11 41  1  0
 11 42  1  0
 12 43  1  6
 13 44  1  0
 13 45  1  0
 15 46  1  0
 15 47  1  0
 17 48  1  0
 18 49  1  0
 19 50  1  0
 20 51  1  0
 21 52  1  0
 23 53  1  0
 24 54  1  0
 26 55  1  0
 27 56  1  0
 28 57  1  0
 29 58  1  0
M  END
>  <smiles>  (33) 
O=C(NCC(=O)N1CCCC[C@H]1COCc1ccccc1)c1ccc2ccccc2n1

>  <score_type>  (33) 
oracle

>  <origin>  (33) 
autodockgpu

>  <m_score__min__energy>  (33) 
-9.1799999999999997

>  <m_primary>  (33) 
energy

>  <rmsd>  (33) 
7.610648697133068

>  <m_score__min__rmsd>  (33) 
7.610648697133068

>  <meeko>  (33) 
{"free_energy": -6.99, "intermolecular_energy": -9.38, "internal_energy": -2.98, "cluster_size": 4, "cluster_id": 6, "rank_in_cluster": 2}

>  <energy>  (33) 
-8.25

>  <cluster_rmsd>  (33) 
0.71

>  <cluster>  (33) 
4

$$$$

     RDKit          3D

 58 61  0  0  0  0  0  0  0  0999 V2000
  133.6090   70.1770  226.1600 O   0  0  0  0  0  0  0  0  0  0  0  0
  133.4630   71.2650  225.5530 C   0  0  0  0  0  0  0  0  0  0  0  0
  133.7790   71.2940  224.1600 N   0  0  0  0  0  0  0  0  0  0  0  0
  134.2410   70.2090  223.4050 C   0  0  0  0  0  0  0  0  0  0  0  0
  135.4900   69.5180  223.6920 C   0  0  0  0  0  0  0  0  0  0  0  0
  135.3100   68.2210  223.8460 O   0  0  0  0  0  0  0  0  0  0  0  0
  136.8060   69.9330  223.8350 N   0  0  0  0  0  0  0  0  0  0  0  0
  137.3630   71.2470  223.9390 C   0  0  0  0  0  0  0  0  0  0  0  0
  138.1040   71.5130  222.5970 C   0  0  0  0  0  0  0  0  0  0  0  0
  138.6200   70.2040  222.0830 C   0  0  0  0  0  0  0  0  0  0  0  0
  139.0500   69.4170  223.3180 C   0  0  0  0  0  0  0  0  0  0  0  0
  137.8190   68.8250  223.9350 C   0  0  1  0  0  0  0  0  0  0  0  0
  138.0770   68.5270  225.3840 C   0  0  0  0  0  0  0  0  0  0  0  0
  139.1620   67.8910  225.7200 O   0  0  0  0  0  0  0  0  0  0  0  0
  140.3300   68.2220  226.2100 C   0  0  0  0  0  0  0  0  0  0  0  0
  140.5530   69.5940  226.7090 C   0  0  0  0  0  0  0  0  0  0  0  0
  140.2640   70.0530  227.9620 C   0  0  0  0  0  0  0  0  0  0  0  0
  140.5240   71.3590  228.3640 C   0  0  0  0  0  0  0  0  0  0  0  0
  141.0900   72.2430  227.4960 C   0  0  0  0  0  0  0  0  0  0  0  0
  141.3950   71.8200  226.2300 C   0  0  0  0  0  0  0  0  0  0  0  0
  141.1350   70.5210  225.8340 C   0  0  0  0  0  0  0  0  0  0  0  0
  132.9840   72.4700  226.2500 C   0  0  0  0  0  0  0  0  0  0  0  0
  131.8990   72.3600  227.0720 C   0  0  0  0  0  0  0  0  0  0  0  0
  131.4690   73.5210  227.7180 C   0  0  0  0  0  0  0  0  0  0  0  0
  132.1280   74.7210  227.5210 C   0  0  0  0  0  0  0  0  0  0  0  0
  131.6960   75.8780  228.1700 C   0  0  0  0  0  0  0  0  0  0  0  0
  132.3840   77.0600  227.9450 C   0  0  0  0  0  0  0  0  0  0  0  0
  133.4740   77.0770  227.0950 C   0  0  0  0  0  0  0  0  0  0  0  0
  133.9180   75.9340  226.4420 C   0  0  0  0  0  0  0  0  0  0  0  0
  133.2160   74.7570  226.6770 C   0  0  0  0  0  0  0  0  0  0  0  0
  133.6060   73.6250  226.0700 N   0  0  0  0  0  0  0  0  0  0  0  0
  133.6340   72.2480  223.7050 H   0  0  0  0  0  0  0  0  0  0  0  0
  133.4522   69.4443  223.4592 H   0  0  0  0  0  0  0  0  0  0  0  0
  134.4724   70.6920  222.4442 H   0  0  0  0  0  0  0  0  0  0  0  0
  136.5644   71.9889  224.0870 H   0  0  0  0  0  0  0  0  0  0  0  0
  138.0474   71.3251  224.7966 H   0  0  0  0  0  0  0  0  0  0  0  0
  137.4077   71.9518  221.8672 H   0  0  0  0  0  0  0  0  0  0  0  0
  138.9358   72.2155  222.7537 H   0  0  0  0  0  0  0  0  0  0  0  0
  137.8284   69.6656  221.5413 H   0  0  0  0  0  0  0  0  0  0  0  0
  139.4540   70.3439  221.3796 H   0  0  0  0  0  0  0  0  0  0  0  0
  139.7456   68.6158  223.0278 H   0  0  0  0  0  0  0  0  0  0  0  0
  139.5606   70.0762  224.0354 H   0  0  0  0  0  0  0  0  0  0  0  0
  137.4991   67.8919  223.4481 H   0  0  0  0  0  0  0  0  0  0  0  0
  138.0940   69.4918  225.9120 H   0  0  0  0  0  0  0  0  0  0  0  0
  137.2713   67.8285  225.6539 H   0  0  0  0  0  0  0  0  0  0  0  0
  140.5276   67.5409  227.0509 H   0  0  0  0  0  0  0  0  0  0  0  0
  141.0006   68.1539  225.3407 H   0  0  0  0  0  0  0  0  0  0  0  0
  139.8063   69.3608  228.6840 H   0  0  0  0  0  0  0  0  0  0  0  0
  140.2718   71.6788  229.3858 H   0  0  0  0  0  0  0  0  0  0  0  0
  141.2982   73.2776  227.8063 H   0  0  0  0  0  0  0  0  0  0  0  0
  141.8530   72.5229  225.5185 H   0  0  0  0  0  0  0  0  0  0  0  0
  141.3904   70.2087  224.8106 H   0  0  0  0  0  0  0  0  0  0  0  0
  131.3858   71.3982  227.2190 H   0  0  0  0  0  0  0  0  0  0  0  0
  130.5986   73.4808  228.3894 H   0  0  0  0  0  0  0  0  0  0  0  0
  130.8283   75.8527  228.8456 H   0  0  0  0  0  0  0  0  0  0  0  0
  132.0621   77.9861  228.4437 H   0  0  0  0  0  0  0  0  0  0  0  0
  134.0065   78.0253  226.9305 H   0  0  0  0  0  0  0  0  0  0  0  0
  134.7872   75.9590  225.7683 H   0  0  0  0  0  0  0  0  0  0  0  0
  1  2  2  0
  2  3  1  0
  3  4  1  0
  4  5  1  0
  5  6  2  0
  5  7  1  0
  7  8  1  0
  8  9  1  0
  9 10  1  0
 10 11  1  0
 11 12  1  0
 12 13  1  0
 13 14  1  0
 14 15  1  0
 15 16  1  0
 16 17  2  0
 17 18  1  0
 18 19  2  0
 19 20  1  0
 20 21  2  0
  2 22  1  0
 22 23  2  0
 23 24  1  0
 24 25  2  0
 25 26  1  0
 26 27  2  0
 27 28  1  0
 28 29  2  0
 29 30  1  0
 30 31  2  0
 12  7  1  0
 21 16  1  0
 31 22  1  0
 30 25  1  0
  3 32  1  0
  4 33  1  0
  4 34  1  0
  8 35  1  0
  8 36  1  0
  9 37  1  0
  9 38  1  0
 10 39  1  0
 10 40  1  0
 11 41  1  0
 11 42  1  0
 12 43  1  6
 13 44  1  0
 13 45  1  0
 15 46  1  0
 15 47  1  0
 17 48  1  0
 18 49  1  0
 19 50  1  0
 20 51  1  0
 21 52  1  0
 23 53  1  0
 24 54  1  0
 26 55  1  0
 27 56  1  0
 28 57  1  0
 29 58  1  0
M  END
>  <smiles>  (34) 
O=C(NCC(=O)N1CCCC[C@H]1COCc1ccccc1)c1ccc2ccccc2n1

>  <score_type>  (34) 
oracle

>  <origin>  (34) 
autodockgpu

>  <m_score__min__energy>  (34) 
-9.1799999999999997

>  <m_primary>  (34) 
energy

>  <rmsd>  (34) 
8.67962058028861

>  <m_score__min__rmsd>  (34) 
8.67962058028861

>  <meeko>  (34) 
{"free_energy": -8.6, "intermolecular_energy": -10.98, "internal_energy": -1.97, "cluster_size": 1, "cluster_id": 3, "rank_in_cluster": 1}

>  <energy>  (34) 
-7.96

>  <cluster_rmsd>  (34) 
1.28

>  <cluster>  (34) 
4

$$$$

     RDKit          3D

 58 61  0  0  0  0  0  0  0  0999 V2000
  139.5310   74.5880  221.9680 O   0  0  0  0  0  0  0  0  0  0  0  0
  140.6710   74.9940  221.6350 C   0  0  0  0  0  0  0  0  0  0  0  0
  140.9290   76.3950  221.7290 N   0  0  0  0  0  0  0  0  0  0  0  0
  140.0180   77.3660  222.1640 C   0  0  0  0  0  0  0  0  0  0  0  0
  140.1630   78.7810  221.8570 C   0  0  0  0  0  0  0  0  0  0  0  0
  139.0580   79.2900  221.3480 O   0  0  0  0  0  0  0  0  0  0  0  0
  141.2030   79.6910  221.9870 N   0  0  0  0  0  0  0  0  0  0  0  0
  142.5700   79.4960  222.3590 C   0  0  0  0  0  0  0  0  0  0  0  0
  142.7240   80.1000  223.7840 C   0  0  0  0  0  0  0  0  0  0  0  0
  141.7670   81.2460  223.9100 C   0  0  0  0  0  0  0  0  0  0  0  0
  141.7480   81.9190  222.5410 C   0  0  0  0  0  0  0  0  0  0  0  0
  140.8540   81.1150  221.6470 C   0  0  1  0  0  0  0  0  0  0  0  0
  141.2120   81.3770  220.2120 C   0  0  0  0  0  0  0  0  0  0  0  0
  141.8430   80.4620  219.5350 O   0  0  0  0  0  0  0  0  0  0  0  0
  141.7330   79.9330  218.3420 C   0  0  0  0  0  0  0  0  0  0  0  0
  142.2880   78.5890  218.0830 C   0  0  0  0  0  0  0  0  0  0  0  0
  142.6200   78.0760  216.8620 C   0  0  0  0  0  0  0  0  0  0  0  0
  143.1590   76.8040  216.7010 C   0  0  0  0  0  0  0  0  0  0  0  0
  143.3780   76.0100  217.7860 C   0  0  0  0  0  0  0  0  0  0  0  0
  143.0590   76.4900  219.0280 C   0  0  0  0  0  0  0  0  0  0  0  0
  142.5230   77.7550  219.1840 C   0  0  0  0  0  0  0  0  0  0  0  0
  141.7060   74.0580  221.1620 C   0  0  0  0  0  0  0  0  0  0  0  0
  141.3390   72.7810  220.8530 C   0  0  0  0  0  0  0  0  0  0  0  0
  142.3430   71.9190  220.4090 C   0  0  0  0  0  0  0  0  0  0  0  0
  143.6490   72.3600  220.2940 C   0  0  0  0  0  0  0  0  0  0  0  0
  144.6500   71.4950  219.8490 C   0  0  0  0  0  0  0  0  0  0  0  0
  145.9450   71.9780  219.7490 C   0  0  0  0  0  0  0  0  0  0  0  0
  146.2250   73.2890  220.0840 C   0  0  0  0  0  0  0  0  0  0  0  0
  145.2410   74.1630  220.5280 C   0  0  0  0  0  0  0  0  0  0  0  0
  143.9470   73.6630  220.6250 C   0  0  0  0  0  0  0  0  0  0  0  0
  142.9600   74.4690  221.0480 N   0  0  0  0  0  0  0  0  0  0  0  0
  141.9160   76.6730  221.4310 H   0  0  0  0  0  0  0  0  0  0  0  0
  139.0397   77.0667  221.7600 H   0  0  0  0  0  0  0  0  0  0  0  0
  140.1884   77.3574  223.2507 H   0  0  0  0  0  0  0  0  0  0  0  0
  142.8121   78.4231  222.3717 H   0  0  0  0  0  0  0  0  0  0  0  0
  143.2522   79.9788  221.6438 H   0  0  0  0  0  0  0  0  0  0  0  0
  142.4918   79.3355  224.5400 H   0  0  0  0  0  0  0  0  0  0  0  0
  143.7561   80.4464  223.9415 H   0  0  0  0  0  0  0  0  0  0  0  0
  140.7631   80.8806  224.1719 H   0  0  0  0  0  0  0  0  0  0  0  0
  142.0723   81.9452  224.7024 H   0  0  0  0  0  0  0  0  0  0  0  0
  141.3603   82.9443  222.6335 H   0  0  0  0  0  0  0  0  0  0  0  0
  142.7644   81.9686  222.1234 H   0  0  0  0  0  0  0  0  0  0  0  0
  139.7876   81.3500  221.7797 H   0  0  0  0  0  0  0  0  0  0  0  0
  140.2715   81.5793  219.6786 H   0  0  0  0  0  0  0  0  0  0  0  0
  141.9364   82.2027  220.2712 H   0  0  0  0  0  0  0  0  0  0  0  0
  140.6583   79.8838  218.1128 H   0  0  0  0  0  0  0  0  0  0  0  0
  142.3506   80.5906  217.7125 H   0  0  0  0  0  0  0  0  0  0  0  0
  142.4542   78.6949  215.9679 H   0  0  0  0  0  0  0  0  0  0  0  0
  143.4092   76.4380  215.6943 H   0  0  0  0  0  0  0  0  0  0  0  0
  143.8030   75.0025  217.6666 H   0  0  0  0  0  0  0  0  0  0  0  0
  143.2315   75.8608  219.9136 H   0  0  0  0  0  0  0  0  0  0  0  0
  142.2758   78.1142  220.1939 H   0  0  0  0  0  0  0  0  0  0  0  0
  140.2961   72.4449  220.9496 H   0  0  0  0  0  0  0  0  0  0  0  0
  142.0935   70.8799  220.1483 H   0  0  0  0  0  0  0  0  0  0  0  0
  144.4162   70.4534  219.5837 H   0  0  0  0  0  0  0  0  0  0  0  0
  146.7521   71.3161  219.4020 H   0  0  0  0  0  0  0  0  0  0  0  0
  147.2597   73.6519  219.9963 H   0  0  0  0  0  0  0  0  0  0  0  0
  145.4750   75.2050  220.7914 H   0  0  0  0  0  0  0  0  0  0  0  0
  1  2  2  0
  2  3  1  0
  3  4  1  0
  4  5  1  0
  5  6  2  0
  5  7  1  0
  7  8  1  0
  8  9  1  0
  9 10  1  0
 10 11  1  0
 11 12  1  0
 12 13  1  0
 13 14  1  0
 14 15  1  0
 15 16  1  0
 16 17  2  0
 17 18  1  0
 18 19  2  0
 19 20  1  0
 20 21  2  0
  2 22  1  0
 22 23  2  0
 23 24  1  0
 24 25  2  0
 25 26  1  0
 26 27  2  0
 27 28  1  0
 28 29  2  0
 29 30  1  0
 30 31  2  0
 12  7  1  0
 21 16  1  0
 31 22  1  0
 30 25  1  0
  3 32  1  0
  4 33  1  0
  4 34  1  0
  8 35  1  0
  8 36  1  0
  9 37  1  0
  9 38  1  0
 10 39  1  0
 10 40  1  0
 11 41  1  0
 11 42  1  0
 12 43  1  6
 13 44  1  0
 13 45  1  0
 15 46  1  0
 15 47  1  0
 17 48  1  0
 18 49  1  0
 19 50  1  0
 20 51  1  0
 21 52  1  0
 23 53  1  0
 24 54  1  0
 26 55  1  0
 27 56  1  0
 28 57  1  0
 29 58  1  0
M  END
>  <smiles>  (35) 
O=C(NCC(=O)N1CCCC[C@H]1COCc1ccccc1)c1ccc2ccccc2n1

>  <score_type>  (35) 
oracle

>  <origin>  (35) 
autodockgpu

>  <m_score__min__energy>  (35) 
-9.1799999999999997

>  <m_primary>  (35) 
energy

>  <rmsd>  (35) 
6.5663804439349605

>  <m_score__min__rmsd>  (35) 
6.5663804439349605

>  <meeko>  (35) 
{"free_energy": -7.21, "intermolecular_energy": -9.6, "internal_energy": -2.88, "cluster_size": 4, "cluster_id": 6, "rank_in_cluster": 1}

>  <energy>  (35) 
-7.39

>  <cluster_rmsd>  (35) 
0.0

>  <cluster>  (35) 
5

$$$$

     RDKit          3D

 58 61  0  0  0  0  0  0  0  0999 V2000
  141.4220   72.2500  222.0100 O   0  0  0  0  0  0  0  0  0  0  0  0
  140.3800   72.2690  222.7080 C   0  0  0  0  0  0  0  0  0  0  0  0
  139.3950   73.2570  222.4010 N   0  0  0  0  0  0  0  0  0  0  0  0
  139.4880   74.2150  221.3830 C   0  0  0  0  0  0  0  0  0  0  0  0
  140.6670   75.0450  221.1840 C   0  0  0  0  0  0  0  0  0  0  0  0
  140.9440   75.7680  222.2520 O   0  0  0  0  0  0  0  0  0  0  0  0
  141.5440   75.2320  220.1240 N   0  0  0  0  0  0  0  0  0  0  0  0
  141.9690   74.3310  219.0990 C   0  0  0  0  0  0  0  0  0  0  0  0
  143.4500   73.9760  219.4180 C   0  0  0  0  0  0  0  0  0  0  0  0
  144.0780   75.1600  220.0860 C   0  0  0  0  0  0  0  0  0  0  0  0
  143.4730   76.3860  219.4080 C   0  0  0  0  0  0  0  0  0  0  0  0
  142.1180   76.6170  220.0060 C   0  0  1  0  0  0  0  0  0  0  0  0
  141.2780   77.4150  219.0510 C   0  0  0  0  0  0  0  0  0  0  0  0
  141.1450   78.6970  219.2360 O   0  0  0  0  0  0  0  0  0  0  0  0
  141.7840   79.6180  219.9120 C   0  0  0  0  0  0  0  0  0  0  0  0
  141.7820   79.5760  221.3890 C   0  0  0  0  0  0  0  0  0  0  0  0
  141.0800   78.7020  222.1700 C   0  0  0  0  0  0  0  0  0  0  0  0
  141.1470   78.7130  223.5580 C   0  0  0  0  0  0  0  0  0  0  0  0
  141.9360   79.6200  224.2000 C   0  0  0  0  0  0  0  0  0  0  0  0
  142.6560   80.5120  223.4520 C   0  0  0  0  0  0  0  0  0  0  0  0
  142.5870   80.4990  222.0710 C   0  0  0  0  0  0  0  0  0  0  0  0
  140.1780   71.3080  223.8040 C   0  0  0  0  0  0  0  0  0  0  0  0
  139.4910   70.1570  223.5460 C   0  0  0  0  0  0  0  0  0  0  0  0
  139.3170   69.2660  224.6060 C   0  0  0  0  0  0  0  0  0  0  0  0
  139.8250   69.5560  225.8590 C   0  0  0  0  0  0  0  0  0  0  0  0
  139.6490   68.6630  226.9170 C   0  0  0  0  0  0  0  0  0  0  0  0
  140.1750   68.9920  228.1560 C   0  0  0  0  0  0  0  0  0  0  0  0
  140.8580   70.1820  228.3270 C   0  0  0  0  0  0  0  0  0  0  0  0
  141.0430   71.0810  227.2850 C   0  0  0  0  0  0  0  0  0  0  0  0
  140.5080   70.7370  226.0480 C   0  0  0  0  0  0  0  0  0  0  0  0
  140.6610   71.5730  225.0090 N   0  0  0  0  0  0  0  0  0  0  0  0
  138.5340   73.2190  223.0310 H   0  0  0  0  0  0  0  0  0  0  0  0
  139.3372   73.6706  220.4391 H   0  0  0  0  0  0  0  0  0  0  0  0
  138.7467   74.9587  221.7107 H   0  0  0  0  0  0  0  0  0  0  0  0
  141.3487   73.4226  219.1089 H   0  0  0  0  0  0  0  0  0  0  0  0
  141.8720   74.7847  218.1016 H   0  0  0  0  0  0  0  0  0  0  0  0
  143.4886   73.1052  220.0890 H   0  0  0  0  0  0  0  0  0  0  0  0
  143.9908   73.7289  218.4925 H   0  0  0  0  0  0  0  0  0  0  0  0
  143.8449   75.1621  221.1610 H   0  0  0  0  0  0  0  0  0  0  0  0
  145.1740   75.1443  219.9933 H   0  0  0  0  0  0  0  0  0  0  0  0
  144.1132   77.2636  219.5811 H   0  0  0  0  0  0  0  0  0  0  0  0
  143.3922   76.2249  218.3229 H   0  0  0  0  0  0  0  0  0  0  0  0
  142.1552   77.1602  220.9618 H   0  0  0  0  0  0  0  0  0  0  0  0
  141.7135   77.2789  218.0501 H   0  0  0  0  0  0  0  0  0  0  0  0
  140.2623   77.0229  219.2079 H   0  0  0  0  0  0  0  0  0  0  0  0
  142.8359   79.5755  219.5931 H   0  0  0  0  0  0  0  0  0  0  0  0
  141.2268   80.5379  219.6813 H   0  0  0  0  0  0  0  0  0  0  0  0
  140.4347   77.9584  221.6795 H   0  0  0  0  0  0  0  0  0  0  0  0
  140.5610   77.9869  224.1407 H   0  0  0  0  0  0  0  0  0  0  0  0
  141.9931   79.6350  225.2984 H   0  0  0  0  0  0  0  0  0  0  0  0
  143.2982   81.2491  223.9563 H   0  0  0  0  0  0  0  0  0  0  0  0
  143.1761   81.2282  221.4955 H   0  0  0  0  0  0  0  0  0  0  0  0
  139.0912   69.9407  222.5443 H   0  0  0  0  0  0  0  0  0  0  0  0
  138.7711   68.3250  224.4433 H   0  0  0  0  0  0  0  0  0  0  0  0
  139.1045   67.7185  226.7705 H   0  0  0  0  0  0  0  0  0  0  0  0
  140.0489   68.3048  229.0056 H   0  0  0  0  0  0  0  0  0  0  0  0
  141.2674   70.4240  229.3189 H   0  0  0  0  0  0  0  0  0  0  0  0
  141.5891   72.0246  227.4315 H   0  0  0  0  0  0  0  0  0  0  0  0
  1  2  2  0
  2  3  1  0
  3  4  1  0
  4  5  1  0
  5  6  2  0
  5  7  1  0
  7  8  1  0
  8  9  1  0
  9 10  1  0
 10 11  1  0
 11 12  1  0
 12 13  1  0
 13 14  1  0
 14 15  1  0
 15 16  1  0
 16 17  2  0
 17 18  1  0
 18 19  2  0
 19 20  1  0
 20 21  2  0
  2 22  1  0
 22 23  2  0
 23 24  1  0
 24 25  2  0
 25 26  1  0
 26 27  2  0
 27 28  1  0
 28 29  2  0
 29 30  1  0
 30 31  2  0
 12  7  1  0
 21 16  1  0
 31 22  1  0
 30 25  1  0
  3 32  1  0
  4 33  1  0
  4 34  1  0
  8 35  1  0
  8 36  1  0
  9 37  1  0
  9 38  1  0
 10 39  1  0
 10 40  1  0
 11 41  1  0
 11 42  1  0
 12 43  1  1
 13 44  1  0
 13 45  1  0
 15 46  1  0
 15 47  1  0
 17 48  1  0
 18 49  1  0
 19 50  1  0
 20 51  1  0
 21 52  1  0
 23 53  1  0
 24 54  1  0
 26 55  1  0
 27 56  1  0
 28 57  1  0
 29 58  1  0
M  END
>  <smiles>  (36) 
O=C(NCC(=O)N1CCCC[C@H]1COCc1ccccc1)c1ccc2ccccc2n1

>  <score_type>  (36) 
oracle

>  <origin>  (36) 
autodockgpu

>  <m_score__min__energy>  (36) 
-9.1799999999999997

>  <m_primary>  (36) 
energy

>  <rmsd>  (36) 
2.0273279320992232

>  <m_score__min__rmsd>  (36) 
2.0273279320992232

>  <meeko>  (36) 
{"free_energy": -9.18, "intermolecular_energy": -11.57, "internal_energy": -1.84, "cluster_size": 23, "cluster_id": 1, "rank_in_cluster": 1}

>  <energy>  (36) 
-7.32

>  <cluster_rmsd>  (36) 
0.56

>  <cluster>  (36) 
5

$$$$

     RDKit          3D

 58 61  0  0  0  0  0  0  0  0999 V2000
  140.6990   71.4740  221.3020 O   0  0  0  0  0  0  0  0  0  0  0  0
  140.2940   72.0480  222.3420 C   0  0  0  0  0  0  0  0  0  0  0  0
  139.9530   73.4320  222.2440 N   0  0  0  0  0  0  0  0  0  0  0  0
  140.0310   74.2120  221.0840 C   0  0  0  0  0  0  0  0  0  0  0  0
  140.7480   73.7870  219.8910 C   0  0  0  0  0  0  0  0  0  0  0  0
  139.9320   73.2980  218.9760 O   0  0  0  0  0  0  0  0  0  0  0  0
  142.0850   73.7890  219.5210 N   0  0  0  0  0  0  0  0  0  0  0  0
  142.7670   73.0700  218.4900 C   0  0  0  0  0  0  0  0  0  0  0  0
  143.6370   71.9980  219.2080 C   0  0  0  0  0  0  0  0  0  0  0  0
  144.0510   72.5500  220.5380 C   0  0  0  0  0  0  0  0  0  0  0  0
  144.2960   74.0380  220.3090 C   0  0  0  0  0  0  0  0  0  0  0  0
  142.9640   74.7260  220.3050 C   0  0  1  0  0  0  0  0  0  0  0  0
  143.0740   76.0280  219.5640 C   0  0  0  0  0  0  0  0  0  0  0  0
  142.7790   77.1370  220.1780 O   0  0  0  0  0  0  0  0  0  0  0  0
  141.6870   77.6960  220.6330 C   0  0  0  0  0  0  0  0  0  0  0  0
  141.7740   78.7120  221.7020 C   0  0  0  0  0  0  0  0  0  0  0  0
  142.1170   80.0250  221.5410 C   0  0  0  0  0  0  0  0  0  0  0  0
  142.1570   80.9270  222.5980 C   0  0  0  0  0  0  0  0  0  0  0  0
  141.8470   80.5190  223.8600 C   0  0  0  0  0  0  0  0  0  0  0  0
  141.4970   79.2110  224.0620 C   0  0  0  0  0  0  0  0  0  0  0  0
  141.4590   78.3160  223.0090 C   0  0  0  0  0  0  0  0  0  0  0  0
  140.1740   71.3220  223.6170 C   0  0  0  0  0  0  0  0  0  0  0  0
  139.5880   70.0890  223.6140 C   0  0  0  0  0  0  0  0  0  0  0  0
  139.4880   69.4270  224.8380 C   0  0  0  0  0  0  0  0  0  0  0  0
  139.9690   70.0120  225.9960 C   0  0  0  0  0  0  0  0  0  0  0  0
  139.8690   69.3470  227.2180 C   0  0  0  0  0  0  0  0  0  0  0  0
  140.3630   69.9690  228.3530 C   0  0  0  0  0  0  0  0  0  0  0  0
  140.9420   71.2210  228.2620 C   0  0  0  0  0  0  0  0  0  0  0  0
  141.0500   71.8970  227.0540 C   0  0  0  0  0  0  0  0  0  0  0  0
  140.5480   71.2600  225.9240 C   0  0  0  0  0  0  0  0  0  0  0  0
  140.6300   71.8720  224.7330 N   0  0  0  0  0  0  0  0  0  0  0  0
  139.6160   73.8590  223.1630 H   0  0  0  0  0  0  0  0  0  0  0  0
  138.9926   74.3886  220.7669 H   0  0  0  0  0  0  0  0  0  0  0  0
  140.6510   75.0539  221.4257 H   0  0  0  0  0  0  0  0  0  0  0  0
  142.0417   72.5855  217.8197 H   0  0  0  0  0  0  0  0  0  0  0  0
  143.3854   73.7413  217.8761 H   0  0  0  0  0  0  0  0  0  0  0  0
  143.0516   71.0779  219.3519 H   0  0  0  0  0  0  0  0  0  0  0  0
  144.5232   71.7579  218.6022 H   0  0  0  0  0  0  0  0  0  0  0  0
  143.2524   72.4025  221.2799 H   0  0  0  0  0  0  0  0  0  0  0  0
  144.9485   72.0456  220.9254 H   0  0  0  0  0  0  0  0  0  0  0  0
  144.9238   74.4426  221.1166 H   0  0  0  0  0  0  0  0  0  0  0  0
  144.8150   74.1994  219.3526 H   0  0  0  0  0  0  0  0  0  0  0  0
  142.5866   74.9405  221.3157 H   0  0  0  0  0  0  0  0  0  0  0  0
  144.1164   76.1168  219.2242 H   0  0  0  0  0  0  0  0  0  0  0  0
  142.3032   75.9494  218.7832 H   0  0  0  0  0  0  0  0  0  0  0  0
  141.1941   78.1771  219.7754 H   0  0  0  0  0  0  0  0  0  0  0  0
  141.1551   76.8626  221.1152 H   0  0  0  0  0  0  0  0  0  0  0  0
  142.3722   80.3832  220.5327 H   0  0  0  0  0  0  0  0  0  0  0  0
  142.4400   81.9740  222.4146 H   0  0  0  0  0  0  0  0  0  0  0  0
  141.8773   81.2272  224.7011 H   0  0  0  0  0  0  0  0  0  0  0  0
  141.2426   78.8676  225.0756 H   0  0  0  0  0  0  0  0  0  0  0  0
  141.1755   77.2707  223.2011 H   0  0  0  0  0  0  0  0  0  0  0  0
  139.2104   69.6363  222.6853 H   0  0  0  0  0  0  0  0  0  0  0  0
  139.0227   68.4313  224.8829 H   0  0  0  0  0  0  0  0  0  0  0  0
  139.4079   68.3502  227.2792 H   0  0  0  0  0  0  0  0  0  0  0  0
  140.2944   69.4656  229.3286 H   0  0  0  0  0  0  0  0  0  0  0  0
  141.3293   71.6966  229.1752 H   0  0  0  0  0  0  0  0  0  0  0  0
  141.5125   72.8932  226.9933 H   0  0  0  0  0  0  0  0  0  0  0  0
  1  2  2  0
  2  3  1  0
  3  4  1  0
  4  5  1  0
  5  6  2  0
  5  7  1  0
  7  8  1  0
  8  9  1  0
  9 10  1  0
 10 11  1  0
 11 12  1  0
 12 13  1  0
 13 14  1  0
 14 15  1  0
 15 16  1  0
 16 17  2  0
 17 18  1  0
 18 19  2  0
 19 20  1  0
 20 21  2  0
  2 22  1  0
 22 23  2  0
 23 24  1  0
 24 25  2  0
 25 26  1  0
 26 27  2  0
 27 28  1  0
 28 29  2  0
 29 30  1  0
 30 31  2  0
 12  7  1  0
 21 16  1  0
 31 22  1  0
 30 25  1  0
  3 32  1  0
  4 33  1  0
  4 34  1  0
  8 35  1  0
  8 36  1  0
  9 37  1  0
  9 38  1  0
 10 39  1  0
 10 40  1  0
 11 41  1  0
 11 42  1  0
 12 43  1  1
 13 44  1  0
 13 45  1  0
 15 46  1  0
 15 47  1  0
 17 48  1  0
 18 49  1  0
 19 50  1  0
 20 51  1  0
 21 52  1  0
 23 53  1  0
 24 54  1  0
 26 55  1  0
 27 56  1  0
 28 57  1  0
 29 58  1  0
M  END
>  <smiles>  (37) 
O=C(NCC(=O)N1CCCC[C@H]1COCc1ccccc1)c1ccc2ccccc2n1

>  <score_type>  (37) 
oracle

>  <origin>  (37) 
autodockgpu

>  <m_score__min__energy>  (37) 
-9.1799999999999997

>  <m_primary>  (37) 
energy

>  <rmsd>  (37) 
2.7713211240019096

>  <m_score__min__rmsd>  (37) 
2.7713211240019096

>  <meeko>  (37) 
{"free_energy": -8.82, "intermolecular_energy": -11.2, "internal_energy": -1.74, "cluster_size": 23, "cluster_id": 1, "rank_in_cluster": 7}

>  <energy>  (37) 
-7.3

>  <cluster_rmsd>  (37) 
0.41

>  <cluster>  (37) 
5

$$$$

     RDKit          3D

 58 61  0  0  0  0  0  0  0  0999 V2000
  139.0460   74.9580  222.0270 O   0  0  0  0  0  0  0  0  0  0  0  0
  140.1480   75.5570  222.0030 C   0  0  0  0  0  0  0  0  0  0  0  0
  141.2970   74.8120  221.5950 N   0  0  0  0  0  0  0  0  0  0  0  0
  141.3040   73.4630  221.2180 C   0  0  0  0  0  0  0  0  0  0  0  0
  142.2980   72.8990  220.3170 C   0  0  0  0  0  0  0  0  0  0  0  0
  141.9050   71.7460  219.8110 O   0  0  0  0  0  0  0  0  0  0  0  0
  143.5510   73.3140  219.8850 N   0  0  0  0  0  0  0  0  0  0  0  0
  144.4540   72.7250  218.9460 C   0  0  0  0  0  0  0  0  0  0  0  0
  145.6420   72.1630  219.7790 C   0  0  0  0  0  0  0  0  0  0  0  0
  145.8190   73.0350  220.9850 C   0  0  0  0  0  0  0  0  0  0  0  0
  145.5180   74.4550  220.5150 C   0  0  0  0  0  0  0  0  0  0  0  0
  144.0290   74.6160  220.4690 C   0  0  1  0  0  0  0  0  0  0  0  0
  143.6730   75.7330  219.5300 C   0  0  0  0  0  0  0  0  0  0  0  0
  142.6240   76.4630  219.7760 O   0  0  0  0  0  0  0  0  0  0  0  0
  141.6570   76.9850  219.0650 C   0  0  0  0  0  0  0  0  0  0  0  0
  141.3860   78.4350  219.1510 C   0  0  0  0  0  0  0  0  0  0  0  0
  140.2430   79.0140  219.6250 C   0  0  0  0  0  0  0  0  0  0  0  0
  140.0710   80.3930  219.6940 C   0  0  0  0  0  0  0  0  0  0  0  0
  141.0640   81.2290  219.2790 C   0  0  0  0  0  0  0  0  0  0  0  0
  142.2240   80.6860  218.7980 C   0  0  0  0  0  0  0  0  0  0  0  0
  142.3920   79.3150  218.7310 C   0  0  0  0  0  0  0  0  0  0  0  0
  140.2550   76.9760  222.3800 C   0  0  0  0  0  0  0  0  0  0  0  0
  139.1090   77.6700  222.6400 C   0  0  0  0  0  0  0  0  0  0  0  0
  139.2440   79.0130  222.9950 C   0  0  0  0  0  0  0  0  0  0  0  0
  140.4950   79.5980  223.0730 C   0  0  0  0  0  0  0  0  0  0  0  0
  140.6260   80.9410  223.4290 C   0  0  0  0  0  0  0  0  0  0  0  0
  141.8970   81.4880  223.4960 C   0  0  0  0  0  0  0  0  0  0  0  0
  143.0040   80.7080  223.2150 C   0  0  0  0  0  0  0  0  0  0  0  0
  142.8910   79.3700  222.8600 C   0  0  0  0  0  0  0  0  0  0  0  0
  141.6080   78.8370  222.7960 C   0  0  0  0  0  0  0  0  0  0  0  0
  141.4480   77.5480  222.4590 N   0  0  0  0  0  0  0  0  0  0  0  0
  142.2020   75.3790  221.5970 H   0  0  0  0  0  0  0  0  0  0  0  0
  141.3797   72.8872  222.1522 H   0  0  0  0  0  0  0  0  0  0  0  0
  140.3911   73.3993  220.6077 H   0  0  0  0  0  0  0  0  0  0  0  0
  143.9560   71.9128  218.3962 H   0  0  0  0  0  0  0  0  0  0  0  0
  144.7976   73.4614  218.2046 H   0  0  0  0  0  0  0  0  0  0  0  0
  145.4221   71.1321  220.0934 H   0  0  0  0  0  0  0  0  0  0  0  0
  146.5614   72.1567  219.1752 H   0  0  0  0  0  0  0  0  0  0  0  0
  145.1190   72.7374  221.7796 H   0  0  0  0  0  0  0  0  0  0  0  0
  146.8338   72.9515  221.4012 H   0  0  0  0  0  0  0  0  0  0  0  0
  145.9515   75.1817  221.2179 H   0  0  0  0  0  0  0  0  0  0  0  0
  145.9546   74.6315  219.5209 H   0  0  0  0  0  0  0  0  0  0  0  0
  143.5900   74.8449  221.4513 H   0  0  0  0  0  0  0  0  0  0  0  0
  144.5369   76.4132  219.4986 H   0  0  0  0  0  0  0  0  0  0  0  0
  143.4154   75.2144  218.5947 H   0  0  0  0  0  0  0  0  0  0  0  0
  141.8810   76.7643  218.0109 H   0  0  0  0  0  0  0  0  0  0  0  0
  140.7510   76.5293  219.4909 H   0  0  0  0  0  0  0  0  0  0  0  0
  139.4247   78.3630  219.9663 H   0  0  0  0  0  0  0  0  0  0  0  0
  139.1309   80.8096  220.0846 H   0  0  0  0  0  0  0  0  0  0  0  0
  140.9352   82.3203  219.3298 H   0  0  0  0  0  0  0  0  0  0  0  0
  143.0340   81.3490  218.4600 H   0  0  0  0  0  0  0  0  0  0  0  0
  143.3355   78.9067  218.3397 H   0  0  0  0  0  0  0  0  0  0  0  0
  138.1209   77.1912  222.5726 H   0  0  0  0  0  0  0  0  0  0  0  0
  138.3476   79.6116  223.2147 H   0  0  0  0  0  0  0  0  0  0  0  0
  139.7390   81.5522  223.6517 H   0  0  0  0  0  0  0  0  0  0  0  0
  142.0260   82.5447  223.7732 H   0  0  0  0  0  0  0  0  0  0  0  0
  144.0045   81.1612  223.2745 H   0  0  0  0  0  0  0  0  0  0  0  0
  143.7781   78.7582  222.6390 H   0  0  0  0  0  0  0  0  0  0  0  0
  1  2  2  0
  2  3  1  0
  3  4  1  0
  4  5  1  0
  5  6  2  0
  5  7  1  0
  7  8  1  0
  8  9  1  0
  9 10  1  0
 10 11  1  0
 11 12  1  0
 12 13  1  0
 13 14  1  0
 14 15  1  0
 15 16  1  0
 16 17  2  0
 17 18  1  0
 18 19  2  0
 19 20  1  0
 20 21  2  0
  2 22  1  0
 22 23  2  0
 23 24  1  0
 24 25  2  0
 25 26  1  0
 26 27  2  0
 27 28  1  0
 28 29  2  0
 29 30  1  0
 30 31  2  0
 12  7  1  0
 21 16  1  0
 31 22  1  0
 30 25  1  0
  3 32  1  0
  4 33  1  0
  4 34  1  0
  8 35  1  0
  8 36  1  0
  9 37  1  0
  9 38  1  0
 10 39  1  0
 10 40  1  0
 11 41  1  0
 11 42  1  0
 12 43  1  1
 13 44  1  0
 13 45  1  0
 15 46  1  0
 15 47  1  0
 17 48  1  0
 18 49  1  0
 19 50  1  0
 20 51  1  0
 21 52  1  0
 23 53  1  0
 24 54  1  0
 26 55  1  0
 27 56  1  0
 28 57  1  0
 29 58  1  0
M  END
>  <smiles>  (38) 
O=C(NCC(=O)N1CCCC[C@H]1COCc1ccccc1)c1ccc2ccccc2n1

>  <score_type>  (38) 
oracle

>  <origin>  (38) 
autodockgpu

>  <m_score__min__energy>  (38) 
-9.1799999999999997

>  <m_primary>  (38) 
energy

>  <rmsd>  (38) 
7.623382142967491

>  <m_score__min__rmsd>  (38) 
7.623382142967491

>  <meeko>  (38) 
{"free_energy": -7.09, "intermolecular_energy": -9.48, "internal_energy": -4.09, "cluster_size": 11, "cluster_id": 5, "rank_in_cluster": 5}

>  <energy>  (38) 
-7.19

>  <cluster_rmsd>  (38) 
0.52

>  <cluster>  (38) 
5

$$$$

     RDKit          3D

 58 61  0  0  0  0  0  0  0  0999 V2000
  139.4680   74.2050  222.0610 O   0  0  0  0  0  0  0  0  0  0  0  0
  140.5980   74.6770  221.7900 C   0  0  0  0  0  0  0  0  0  0  0  0
  140.8160   76.0650  222.0500 N   0  0  0  0  0  0  0  0  0  0  0  0
  139.8740   76.9530  222.5850 C   0  0  0  0  0  0  0  0  0  0  0  0
  140.0340   78.3990  222.5360 C   0  0  0  0  0  0  0  0  0  0  0  0
  138.9040   79.0270  222.7980 O   0  0  0  0  0  0  0  0  0  0  0  0
  141.1070   79.2400  222.2760 N   0  0  0  0  0  0  0  0  0  0  0  0
  142.2050   79.6310  223.1040 C   0  0  0  0  0  0  0  0  0  0  0  0
  141.9610   81.1230  223.4740 C   0  0  0  0  0  0  0  0  0  0  0  0
  141.2360   81.7720  222.3350 C   0  0  0  0  0  0  0  0  0  0  0  0
  141.8090   81.1420  221.0690 C   0  0  0  0  0  0  0  0  0  0  0  0
  141.1520   79.8080  220.8830 C   0  0  1  0  0  0  0  0  0  0  0  0
  142.0230   78.9350  220.0260 C   0  0  0  0  0  0  0  0  0  0  0  0
  141.8050   77.6520  219.9950 O   0  0  0  0  0  0  0  0  0  0  0  0
  141.2260   76.8180  219.1680 C   0  0  0  0  0  0  0  0  0  0  0  0
  142.0530   75.9280  218.3280 C   0  0  0  0  0  0  0  0  0  0  0  0
  143.3190   76.1850  217.8840 C   0  0  0  0  0  0  0  0  0  0  0  0
  144.0430   75.2830  217.1120 C   0  0  0  0  0  0  0  0  0  0  0  0
  143.4970   74.0840  216.7640 C   0  0  0  0  0  0  0  0  0  0  0  0
  142.2300   73.7900  217.1910 C   0  0  0  0  0  0  0  0  0  0  0  0
  141.5130   74.6880  217.9600 C   0  0  0  0  0  0  0  0  0  0  0  0
  141.6620   73.8320  221.2240 C   0  0  0  0  0  0  0  0  0  0  0  0
  141.3540   72.5560  220.8520 C   0  0  0  0  0  0  0  0  0  0  0  0
  142.3850   71.7800  220.3190 C   0  0  0  0  0  0  0  0  0  0  0  0
  143.6580   72.3010  220.1820 C   0  0  0  0  0  0  0  0  0  0  0  0
  144.6860   71.5220  219.6490 C   0  0  0  0  0  0  0  0  0  0  0  0
  145.9480   72.0830  219.5280 C   0  0  0  0  0  0  0  0  0  0  0  0
  146.1690   73.3870  219.9310 C   0  0  0  0  0  0  0  0  0  0  0  0
  145.1580   74.1750  220.4640 C   0  0  0  0  0  0  0  0  0  0  0  0
  143.8980   73.5980  220.5790 C   0  0  0  0  0  0  0  0  0  0  0  0
  142.8870   74.3190  221.0870 N   0  0  0  0  0  0  0  0  0  0  0  0
  141.7970   76.4020  221.7980 H   0  0  0  0  0  0  0  0  0  0  0  0
  138.9257   76.7349  222.0721 H   0  0  0  0  0  0  0  0  0  0  0  0
  139.9714   76.7560  223.6628 H   0  0  0  0  0  0  0  0  0  0  0  0
  142.2357   79.0128  224.0134 H   0  0  0  0  0  0  0  0  0  0  0  0
  143.1655   79.4991  222.5843 H   0  0  0  0  0  0  0  0  0  0  0  0
  141.3520   81.1858  224.3879 H   0  0  0  0  0  0  0  0  0  0  0  0
  142.9189   81.6323  223.6559 H   0  0  0  0  0  0  0  0  0  0  0  0
  140.1560   81.5758  222.4061 H   0  0  0  0  0  0  0  0  0  0  0  0
  141.3664   82.8642  222.3401 H   0  0  0  0  0  0  0  0  0  0  0  0
  141.5993   81.7864  220.2025 H   0  0  0  0  0  0  0  0  0  0  0  0
  142.8990   81.0242  221.1581 H   0  0  0  0  0  0  0  0  0  0  0  0
  140.1640   79.8765  220.4042 H   0  0  0  0  0  0  0  0  0  0  0  0
  141.9277   79.3017  218.9933 H   0  0  0  0  0  0  0  0  0  0  0  0
  143.0156   79.0194  220.4925 H   0  0  0  0  0  0  0  0  0  0  0  0
  140.5736   76.1707  219.7724 H   0  0  0  0  0  0  0  0  0  0  0  0
  140.7379   77.4794  218.4371 H   0  0  0  0  0  0  0  0  0  0  0  0
  143.7853   77.1456  218.1482 H   0  0  0  0  0  0  0  0  0  0  0  0
  145.0604   75.5384  216.7809 H   0  0  0  0  0  0  0  0  0  0  0  0
  144.0632   73.3664  216.1520 H   0  0  0  0  0  0  0  0  0  0  0  0
  141.7760   72.8258  216.9185 H   0  0  0  0  0  0  0  0  0  0  0  0
  140.4975   74.4237  218.2899 H   0  0  0  0  0  0  0  0  0  0  0  0
  140.3360   72.1554  220.9672 H   0  0  0  0  0  0  0  0  0  0  0  0
  142.1826   70.7453  220.0054 H   0  0  0  0  0  0  0  0  0  0  0  0
  144.4990   70.4855  219.3318 H   0  0  0  0  0  0  0  0  0  0  0  0
  146.7749   71.4897  219.1107 H   0  0  0  0  0  0  0  0  0  0  0  0
  147.1775   73.8134  219.8260 H   0  0  0  0  0  0  0  0  0  0  0  0
  145.3455   75.2113  220.7817 H   0  0  0  0  0  0  0  0  0  0  0  0
  1  2  2  0
  2  3  1  0
  3  4  1  0
  4  5  1  0
  5  6  2  0
  5  7  1  0
  7  8  1  0
  8  9  1  0
  9 10  1  0
 10 11  1  0
 11 12  1  0
 12 13  1  0
 13 14  1  0
 14 15  1  0
 15 16  1  0
 16 17  2  0
 17 18  1  0
 18 19  2  0
 19 20  1  0
 20 21  2  0
  2 22  1  0
 22 23  2  0
 23 24  1  0
 24 25  2  0
 25 26  1  0
 26 27  2  0
 27 28  1  0
 28 29  2  0
 29 30  1  0
 30 31  2  0
 12  7  1  0
 21 16  1  0
 31 22  1  0
 30 25  1  0
  3 32  1  0
  4 33  1  0
  4 34  1  0
  8 35  1  0
  8 36  1  0
  9 37  1  0
  9 38  1  0
 10 39  1  0
 10 40  1  0
 11 41  1  0
 11 42  1  0
 12 43  1  6
 13 44  1  0
 13 45  1  0
 15 46  1  0
 15 47  1  0
 17 48  1  0
 18 49  1  0
 19 50  1  0
 20 51  1  0
 21 52  1  0
 23 53  1  0
 24 54  1  0
 26 55  1  0
 27 56  1  0
 28 57  1  0
 29 58  1  0
M  END
>  <smiles>  (39) 
O=C(NCC(=O)N1CCCC[C@H]1COCc1ccccc1)c1ccc2ccccc2n1

>  <score_type>  (39) 
oracle

>  <origin>  (39) 
autodockgpu

>  <m_score__min__energy>  (39) 
-9.1799999999999997

>  <m_primary>  (39) 
energy

>  <rmsd>  (39) 
6.419087332803581

>  <m_score__min__rmsd>  (39) 
6.419087332803581

>  <meeko>  (39) 
{"free_energy": -5.92, "intermolecular_energy": -8.31, "internal_energy": -4.13, "cluster_size": 4, "cluster_id": 6, "rank_in_cluster": 4}

>  <energy>  (39) 
-7.09

>  <cluster_rmsd>  (39) 
0.7

>  <cluster>  (39) 
5

$$$$

     RDKit          3D

 58 61  0  0  0  0  0  0  0  0999 V2000
  139.6780   74.5680  222.3500 O   0  0  0  0  0  0  0  0  0  0  0  0
  140.2000   75.5070  221.7000 C   0  0  0  0  0  0  0  0  0  0  0  0
  140.7120   75.2090  220.4010 N   0  0  0  0  0  0  0  0  0  0  0  0
  140.6850   73.9530  219.7810 C   0  0  0  0  0  0  0  0  0  0  0  0
  141.8680   73.3310  219.2030 C   0  0  0  0  0  0  0  0  0  0  0  0
  141.5630   72.2570  218.5000 O   0  0  0  0  0  0  0  0  0  0  0  0
  143.2230   73.6270  219.2370 N   0  0  0  0  0  0  0  0  0  0  0  0
  144.3330   72.9800  218.6080 C   0  0  0  0  0  0  0  0  0  0  0  0
  145.1210   72.2660  219.7440 C   0  0  0  0  0  0  0  0  0  0  0  0
  144.9610   73.0710  220.9980 C   0  0  0  0  0  0  0  0  0  0  0  0
  144.9600   74.5310  220.5540 C   0  0  0  0  0  0  0  0  0  0  0  0
  143.5910   74.8490  220.0330 C   0  0  1  0  0  0  0  0  0  0  0  0
  143.6690   76.0300  219.1080 C   0  0  0  0  0  0  0  0  0  0  0  0
  142.8530   77.0290  219.2810 O   0  0  0  0  0  0  0  0  0  0  0  0
  142.4920   78.0780  218.5840 C   0  0  0  0  0  0  0  0  0  0  0  0
  141.6140   79.0960  219.1950 C   0  0  0  0  0  0  0  0  0  0  0  0
  140.2800   78.9600  219.4570 C   0  0  0  0  0  0  0  0  0  0  0  0
  139.5240   79.9610  220.0560 C   0  0  0  0  0  0  0  0  0  0  0  0
  140.1070   81.1410  220.4100 C   0  0  0  0  0  0  0  0  0  0  0  0
  141.4420   81.3160  220.1650 C   0  0  0  0  0  0  0  0  0  0  0  0
  142.1910   80.3180  219.5690 C   0  0  0  0  0  0  0  0  0  0  0  0
  140.2800   76.8670  222.2570 C   0  0  0  0  0  0  0  0  0  0  0  0
  139.1360   77.4550  222.7150 C   0  0  0  0  0  0  0  0  0  0  0  0
  139.2460   78.7450  223.2360 C   0  0  0  0  0  0  0  0  0  0  0  0
  140.4720   79.3850  223.2790 C   0  0  0  0  0  0  0  0  0  0  0  0
  140.5780   80.6740  223.8010 C   0  0  0  0  0  0  0  0  0  0  0  0
  141.8250   81.2790  223.8250 C   0  0  0  0  0  0  0  0  0  0  0  0
  142.9310   80.6070  223.3390 C   0  0  0  0  0  0  0  0  0  0  0  0
  142.8430   79.3240  222.8160 C   0  0  0  0  0  0  0  0  0  0  0  0
  141.5850   78.7310  222.7990 C   0  0  0  0  0  0  0  0  0  0  0  0
  141.4490   77.4910  222.3040 N   0  0  0  0  0  0  0  0  0  0  0  0
  141.1420   76.0500  219.9030 H   0  0  0  0  0  0  0  0  0  0  0  0
  140.3110   73.2485  220.5385 H   0  0  0  0  0  0  0  0  0  0  0  0
  140.0841   74.1621  218.8837 H   0  0  0  0  0  0  0  0  0  0  0  0
  143.9780   72.2453  217.8703 H   0  0  0  0  0  0  0  0  0  0  0  0
  144.9673   73.7024  218.0734 H   0  0  0  0  0  0  0  0  0  0  0  0
  144.7194   71.2534  219.8970 H   0  0  0  0  0  0  0  0  0  0  0  0
  146.1849   72.1839  219.4767 H   0  0  0  0  0  0  0  0  0  0  0  0
  144.0126   72.8209  221.4960 H   0  0  0  0  0  0  0  0  0  0  0  0
  145.7672   72.8660  221.7177 H   0  0  0  0  0  0  0  0  0  0  0  0
  145.1962   75.1824  221.4084 H   0  0  0  0  0  0  0  0  0  0  0  0
  145.7169   74.6963  219.7731 H   0  0  0  0  0  0  0  0  0  0  0  0
  142.8710   75.0872  220.8298 H   0  0  0  0  0  0  0  0  0  0  0  0
  144.6899   76.4321  219.1862 H   0  0  0  0  0  0  0  0  0  0  0  0
  143.3726   75.6171  218.1325 H   0  0  0  0  0  0  0  0  0  0  0  0
  143.4156   78.5934  218.2818 H   0  0  0  0  0  0  0  0  0  0  0  0
  141.8705   77.6515  217.7829 H   0  0  0  0  0  0  0  0  0  0  0  0
  139.7829   78.0180  219.1822 H   0  0  0  0  0  0  0  0  0  0  0  0
  138.4523   79.8003  220.2448 H   0  0  0  0  0  0  0  0  0  0  0  0
  139.5153   81.9381  220.8839 H   0  0  0  0  0  0  0  0  0  0  0  0
  141.9257   82.2632  220.4459 H   0  0  0  0  0  0  0  0  0  0  0  0
  143.2622   80.4864  219.3844 H   0  0  0  0  0  0  0  0  0  0  0  0
  138.1682   76.9338  222.6750 H   0  0  0  0  0  0  0  0  0  0  0  0
  138.3500   79.2576  223.6159 H   0  0  0  0  0  0  0  0  0  0  0  0
  139.6912   81.1992  224.1853 H   0  0  0  0  0  0  0  0  0  0  0  0
  141.9346   82.2953  224.2314 H   0  0  0  0  0  0  0  0  0  0  0  0
  143.9117   81.1045  223.3676 H   0  0  0  0  0  0  0  0  0  0  0  0
  143.7300   78.7991  222.4316 H   0  0  0  0  0  0  0  0  0  0  0  0
  1  2  2  0
  2  3  1  0
  3  4  1  0
  4  5  1  0
  5  6  2  0
  5  7  1  0
  7  8  1  0
  8  9  1  0
  9 10  1  0
 10 11  1  0
 11 12  1  0
 12 13  1  0
 13 14  1  0
 14 15  1  0
 15 16  1  0
 16 17  2  0
 17 18  1  0
 18 19  2  0
 19 20  1  0
 20 21  2  0
  2 22  1  0
 22 23  2  0
 23 24  1  0
 24 25  2  0
 25 26  1  0
 26 27  2  0
 27 28  1  0
 28 29  2  0
 29 30  1  0
 30 31  2  0
 12  7  1  0
 21 16  1  0
 31 22  1  0
 30 25  1  0
  3 32  1  0
  4 33  1  0
  4 34  1  0
  8 35  1  0
  8 36  1  0
  9 37  1  0
  9 38  1  0
 10 39  1  0
 10 40  1  0
 11 41  1  0
 11 42  1  0
 12 43  1  1
 13 44  1  0
 13 45  1  0
 15 46  1  0
 15 47  1  0
 17 48  1  0
 18 49  1  0
 19 50  1  0
 20 51  1  0
 21 52  1  0
 23 53  1  0
 24 54  1  0
 26 55  1  0
 27 56  1  0
 28 57  1  0
 29 58  1  0
M  END
>  <smiles>  (40) 
O=C(NCC(=O)N1CCCC[C@H]1COCc1ccccc1)c1ccc2ccccc2n1

>  <score_type>  (40) 
oracle

>  <origin>  (40) 
autodockgpu

>  <m_score__min__energy>  (40) 
-9.1799999999999997

>  <m_primary>  (40) 
energy

>  <rmsd>  (40) 
7.42369097402431

>  <m_score__min__rmsd>  (40) 
7.42369097402431

>  <meeko>  (40) 
{"free_energy": -6.65, "intermolecular_energy": -9.03, "internal_energy": -4.06, "cluster_size": 11, "cluster_id": 5, "rank_in_cluster": 8}

>  <energy>  (40) 
-7.03

>  <cluster_rmsd>  (40) 
0.43

>  <cluster>  (40) 
5

$$$$

     RDKit          3D

 58 61  0  0  0  0  0  0  0  0999 V2000
  135.1050   68.5560  224.5710 O   0  0  0  0  0  0  0  0  0  0  0  0
  135.6030   69.6320  224.9830 C   0  0  0  0  0  0  0  0  0  0  0  0
  137.0170   69.7960  224.8670 N   0  0  0  0  0  0  0  0  0  0  0  0
  137.9060   68.8560  224.3290 C   0  0  0  0  0  0  0  0  0  0  0  0
  139.1290   68.4470  225.0040 C   0  0  0  0  0  0  0  0  0  0  0  0
  139.4880   67.2220  224.6720 O   0  0  0  0  0  0  0  0  0  0  0  0
  139.9820   69.0670  225.9070 N   0  0  0  0  0  0  0  0  0  0  0  0
  141.0560   68.5370  226.6880 C   0  0  0  0  0  0  0  0  0  0  0  0
  140.5570   68.5210  228.1620 C   0  0  0  0  0  0  0  0  0  0  0  0
  139.6070   69.6650  228.3430 C   0  0  0  0  0  0  0  0  0  0  0  0
  140.1650   70.8040  227.4950 C   0  0  0  0  0  0  0  0  0  0  0  0
  139.7730   70.5480  226.0710 C   0  0  1  0  0  0  0  0  0  0  0  0
  140.7110   71.2790  225.1530 C   0  0  0  0  0  0  0  0  0  0  0  0
  140.6820   71.0220  223.8770 O   0  0  0  0  0  0  0  0  0  0  0  0
  140.2260   71.6250  222.8090 C   0  0  0  0  0  0  0  0  0  0  0  0
  138.8260   71.4120  222.3890 C   0  0  0  0  0  0  0  0  0  0  0  0
  137.7540   72.1850  222.7320 C   0  0  0  0  0  0  0  0  0  0  0  0
  136.4650   71.9300  222.2770 C   0  0  0  0  0  0  0  0  0  0  0  0
  136.2260   70.8710  221.4530 C   0  0  0  0  0  0  0  0  0  0  0  0
  137.2750   70.0730  221.0860 C   0  0  0  0  0  0  0  0  0  0  0  0
  138.5560   70.3290  221.5400 C   0  0  0  0  0  0  0  0  0  0  0  0
  134.7600   70.6880  225.5670 C   0  0  0  0  0  0  0  0  0  0  0  0
  133.7640   70.3270  226.4280 C   0  0  0  0  0  0  0  0  0  0  0  0
  132.9820   71.3520  226.9640 C   0  0  0  0  0  0  0  0  0  0  0  0
  133.2220   72.6710  226.6240 C   0  0  0  0  0  0  0  0  0  0  0  0
  132.4380   73.6930  227.1620 C   0  0  0  0  0  0  0  0  0  0  0  0
  132.7120   75.0010  226.7960 C   0  0  0  0  0  0  0  0  0  0  0  0
  133.7430   75.2740  225.9160 C   0  0  0  0  0  0  0  0  0  0  0  0
  134.5320   74.2690  225.3710 C   0  0  0  0  0  0  0  0  0  0  0  0
  134.2440   72.9620  225.7480 C   0  0  0  0  0  0  0  0  0  0  0  0
  134.9790   71.9560  225.2500 N   0  0  0  0  0  0  0  0  0  0  0  0
  137.3750   70.7310  225.2350 H   0  0  0  0  0  0  0  0  0  0  0  0
  137.3209   67.9369  224.1779 H   0  0  0  0  0  0  0  0  0  0  0  0
  138.3047   69.4009  223.4606 H   0  0  0  0  0  0  0  0  0  0  0  0
  141.3001   67.5167  226.3573 H   0  0  0  0  0  0  0  0  0  0  0  0
  141.9666   69.1447  226.5805 H   0  0  0  0  0  0  0  0  0  0  0  0
  140.0420   67.5718  228.3712 H   0  0  0  0  0  0  0  0  0  0  0  0
  141.4069   68.6177  228.8536 H   0  0  0  0  0  0  0  0  0  0  0  0
  138.6009   69.3864  227.9965 H   0  0  0  0  0  0  0  0  0  0  0  0
  139.5161   69.9535  229.4006 H   0  0  0  0  0  0  0  0  0  0  0  0
  139.7445   71.7628  227.8325 H   0  0  0  0  0  0  0  0  0  0  0  0
  141.2598   70.8535  227.5897 H   0  0  0  0  0  0  0  0  0  0  0  0
  138.7482   70.8749  225.8411 H   0  0  0  0  0  0  0  0  0  0  0  0
  140.5020   72.3527  225.2691 H   0  0  0  0  0  0  0  0  0  0  0  0
  141.7064   70.9314  225.4665 H   0  0  0  0  0  0  0  0  0  0  0  0
  140.3478   72.7054  222.9763 H   0  0  0  0  0  0  0  0  0  0  0  0
  140.8094   71.1747  221.9923 H   0  0  0  0  0  0  0  0  0  0  0  0
  137.9170   73.0462  223.3966 H   0  0  0  0  0  0  0  0  0  0  0  0
  135.6358   72.5849  222.5830 H   0  0  0  0  0  0  0  0  0  0  0  0
  135.2089   70.6618  221.0899 H   0  0  0  0  0  0  0  0  0  0  0  0
  137.0969   69.2156  220.4203 H   0  0  0  0  0  0  0  0  0  0  0  0
  139.3798   69.6698  221.2288 H   0  0  0  0  0  0  0  0  0  0  0  0
  133.5852   69.2733  226.6884 H   0  0  0  0  0  0  0  0  0  0  0  0
  132.1680   71.1084  227.6627 H   0  0  0  0  0  0  0  0  0  0  0  0
  131.6203   73.4649  227.8615 H   0  0  0  0  0  0  0  0  0  0  0  0
  132.1082   75.8238  227.2063 H   0  0  0  0  0  0  0  0  0  0  0  0
  133.9446   76.3193  225.6390 H   0  0  0  0  0  0  0  0  0  0  0  0
  135.3495   74.4973  224.6713 H   0  0  0  0  0  0  0  0  0  0  0  0
  1  2  2  0
  2  3  1  0
  3  4  1  0
  4  5  1  0
  5  6  2  0
  5  7  1  0
  7  8  1  0
  8  9  1  0
  9 10  1  0
 10 11  1  0
 11 12  1  0
 12 13  1  0
 13 14  1  0
 14 15  1  0
 15 16  1  0
 16 17  2  0
 17 18  1  0
 18 19  2  0
 19 20  1  0
 20 21  2  0
  2 22  1  0
 22 23  2  0
 23 24  1  0
 24 25  2  0
 25 26  1  0
 26 27  2  0
 27 28  1  0
 28 29  2  0
 29 30  1  0
 30 31  2  0
 12  7  1  0
 21 16  1  0
 31 22  1  0
 30 25  1  0
  3 32  1  0
  4 33  1  0
  4 34  1  0
  8 35  1  0
  8 36  1  0
  9 37  1  0
  9 38  1  0
 10 39  1  0
 10 40  1  0
 11 41  1  0
 11 42  1  0
 12 43  1  1
 13 44  1  0
 13 45  1  0
 15 46  1  0
 15 47  1  0
 17 48  1  0
 18 49  1  0
 19 50  1  0
 20 51  1  0
 21 52  1  0
 23 53  1  0
 24 54  1  0
 26 55  1  0
 27 56  1  0
 28 57  1  0
 29 58  1  0
M  END
>  <smiles>  (41) 
O=C(NCC(=O)N1CCCC[C@H]1COCc1ccccc1)c1ccc2ccccc2n1

>  <score_type>  (41) 
oracle

>  <origin>  (41) 
autodockgpu

>  <m_score__min__energy>  (41) 
-9.1799999999999997

>  <m_primary>  (41) 
energy

>  <rmsd>  (41) 
8.439000553706432

>  <m_score__min__rmsd>  (41) 
8.439000553706432

>  <meeko>  (41) 
{"free_energy": -7.11, "intermolecular_energy": -9.49, "internal_energy": -2.88, "cluster_size": 1, "cluster_id": 7, "rank_in_cluster": 1}

>  <energy>  (41) 
-6.91

>  <cluster_rmsd>  (41) 
0.84

>  <cluster>  (41) 
5

$$$$

     RDKit          3D

 58 61  0  0  0  0  0  0  0  0999 V2000
  141.2560   72.1060  221.6930 O   0  0  0  0  0  0  0  0  0  0  0  0
  140.3450   72.2870  222.5370 C   0  0  0  0  0  0  0  0  0  0  0  0
  139.4210   73.3490  222.2980 N   0  0  0  0  0  0  0  0  0  0  0  0
  139.4400   74.2160  221.1970 C   0  0  0  0  0  0  0  0  0  0  0  0
  140.4990   75.1890  220.9740 C   0  0  0  0  0  0  0  0  0  0  0  0
  140.4680   76.1610  221.8660 O   0  0  0  0  0  0  0  0  0  0  0  0
  141.5170   75.3060  220.0380 N   0  0  0  0  0  0  0  0  0  0  0  0
  141.8900   74.4470  218.9570 C   0  0  0  0  0  0  0  0  0  0  0  0
  143.2310   73.7780  219.3760 C   0  0  0  0  0  0  0  0  0  0  0  0
  143.9810   74.7420  220.2430 C   0  0  0  0  0  0  0  0  0  0  0  0
  143.6980   76.1240  219.6630 C   0  0  0  0  0  0  0  0  0  0  0  0
  142.3470   76.5560  220.1470 C   0  0  1  0  0  0  0  0  0  0  0  0
  141.7890   77.5960  219.2180 C   0  0  0  0  0  0  0  0  0  0  0  0
  140.6490   78.1560  219.5000 O   0  0  0  0  0  0  0  0  0  0  0  0
  140.1810   78.8910  220.4770 C   0  0  0  0  0  0  0  0  0  0  0  0
  141.0750   79.3020  221.5780 C   0  0  0  0  0  0  0  0  0  0  0  0
  142.1550   80.1320  221.4720 C   0  0  0  0  0  0  0  0  0  0  0  0
  142.9390   80.4900  222.5640 C   0  0  0  0  0  0  0  0  0  0  0  0
  142.6450   80.0100  223.8050 C   0  0  0  0  0  0  0  0  0  0  0  0
  141.5700   79.1760  223.9520 C   0  0  0  0  0  0  0  0  0  0  0  0
  140.7930   78.8220  222.8640 C   0  0  0  0  0  0  0  0  0  0  0  0
  140.2320   71.4340  223.7310 C   0  0  0  0  0  0  0  0  0  0  0  0
  139.6440   70.2090  223.6060 C   0  0  0  0  0  0  0  0  0  0  0  0
  139.5520   69.4240  224.7570 C   0  0  0  0  0  0  0  0  0  0  0  0
  140.0410   69.8880  225.9650 C   0  0  0  0  0  0  0  0  0  0  0  0
  139.9480   69.1000  227.1130 C   0  0  0  0  0  0  0  0  0  0  0  0
  140.4510   69.6020  228.3030 C   0  0  0  0  0  0  0  0  0  0  0  0
  141.0310   70.8570  228.3370 C   0  0  0  0  0  0  0  0  0  0  0  0
  141.1320   71.6530  227.2040 C   0  0  0  0  0  0  0  0  0  0  0  0
  140.6220   71.1350  226.0180 C   0  0  0  0  0  0  0  0  0  0  0  0
  140.6970   71.8660  224.8950 N   0  0  0  0  0  0  0  0  0  0  0  0
  138.6730   73.4490  223.0520 H   0  0  0  0  0  0  0  0  0  0  0  0
  139.4258   73.5732  220.3045 H   0  0  0  0  0  0  0  0  0  0  0  0
  138.5826   74.8694  221.4159 H   0  0  0  0  0  0  0  0  0  0  0  0
  141.1168   73.6817  218.7940 H   0  0  0  0  0  0  0  0  0  0  0  0
  141.9991   75.0093  218.0179 H   0  0  0  0  0  0  0  0  0  0  0  0
  143.0274   72.8534  219.9361 H   0  0  0  0  0  0  0  0  0  0  0  0
  143.8250   73.5246  218.4855 H   0  0  0  0  0  0  0  0  0  0  0  0
  143.6242   74.6815  221.2818 H   0  0  0  0  0  0  0  0  0  0  0  0
  145.0584   74.5208  220.2587 H   0  0  0  0  0  0  0  0  0  0  0  0
  144.4632   76.8368  220.0040 H   0  0  0  0  0  0  0  0  0  0  0  0
  143.7200   76.0912  218.5637 H   0  0  0  0  0  0  0  0  0  0  0  0
  142.3688   76.9826  221.1607 H   0  0  0  0  0  0  0  0  0  0  0  0
  142.5350   78.4018  219.1532 H   0  0  0  0  0  0  0  0  0  0  0  0
  141.5826   77.0360  218.2940 H   0  0  0  0  0  0  0  0  0  0  0  0
  139.7899   79.8134  220.0228 H   0  0  0  0  0  0  0  0  0  0  0  0
  139.4557   78.2277  220.9709 H   0  0  0  0  0  0  0  0  0  0  0  0
  142.4155   80.5340  220.4818 H   0  0  0  0  0  0  0  0  0  0  0  0
  143.7985   81.1623  222.4253 H   0  0  0  0  0  0  0  0  0  0  0  0
  143.2608   80.2879  224.6731 H   0  0  0  0  0  0  0  0  0  0  0  0
  141.3207   78.7821  224.9483 H   0  0  0  0  0  0  0  0  0  0  0  0
  139.9353   78.1492  223.0113 H   0  0  0  0  0  0  0  0  0  0  0  0
  139.2585   69.8547  222.6386 H   0  0  0  0  0  0  0  0  0  0  0  0
  139.0870   68.4286  224.7028 H   0  0  0  0  0  0  0  0  0  0  0  0
  139.4857   68.1026  227.0743 H   0  0  0  0  0  0  0  0  0  0  0  0
  140.3888   69.0010  229.2222 H   0  0  0  0  0  0  0  0  0  0  0  0
  141.4246   71.2364  229.2915 H   0  0  0  0  0  0  0  0  0  0  0  0
  141.5952   72.6500  227.2425 H   0  0  0  0  0  0  0  0  0  0  0  0
  1  2  2  0
  2  3  1  0
  3  4  1  0
  4  5  1  0
  5  6  2  0
  5  7  1  0
  7  8  1  0
  8  9  1  0
  9 10  1  0
 10 11  1  0
 11 12  1  0
 12 13  1  0
 13 14  1  0
 14 15  1  0
 15 16  1  0
 16 17  2  0
 17 18  1  0
 18 19  2  0
 19 20  1  0
 20 21  2  0
  2 22  1  0
 22 23  2  0
 23 24  1  0
 24 25  2  0
 25 26  1  0
 26 27  2  0
 27 28  1  0
 28 29  2  0
 29 30  1  0
 30 31  2  0
 12  7  1  0
 21 16  1  0
 31 22  1  0
 30 25  1  0
  3 32  1  0
  4 33  1  0
  4 34  1  0
  8 35  1  0
  8 36  1  0
  9 37  1  0
  9 38  1  0
 10 39  1  0
 10 40  1  0
 11 41  1  0
 11 42  1  0
 12 43  1  1
 13 44  1  0
 13 45  1  0
 15 46  1  0
 15 47  1  0
 17 48  1  0
 18 49  1  0
 19 50  1  0
 20 51  1  0
 21 52  1  0
 23 53  1  0
 24 54  1  0
 26 55  1  0
 27 56  1  0
 28 57  1  0
 29 58  1  0
M  END
>  <smiles>  (42) 
O=C(NCC(=O)N1CCCC[C@H]1COCc1ccccc1)c1ccc2ccccc2n1

>  <score_type>  (42) 
oracle

>  <origin>  (42) 
autodockgpu

>  <m_score__min__energy>  (42) 
-9.1799999999999997

>  <m_primary>  (42) 
energy

>  <rmsd>  (42) 
2.032119799091977

>  <m_score__min__rmsd>  (42) 
2.032119799091977

>  <meeko>  (42) 
{"free_energy": -9.02, "intermolecular_energy": -11.4, "internal_energy": -2.01, "cluster_size": 23, "cluster_id": 1, "rank_in_cluster": 6}

>  <energy>  (42) 
-6.65

>  <cluster_rmsd>  (42) 
1.2

>  <cluster>  (42) 
5

$$$$

     RDKit          3D

 58 61  0  0  0  0  0  0  0  0999 V2000
  139.5730   74.6880  222.5370 O   0  0  0  0  0  0  0  0  0  0  0  0
  140.1240   75.5750  221.8420 C   0  0  0  0  0  0  0  0  0  0  0  0
  140.6500   75.1900  220.5710 N   0  0  0  0  0  0  0  0  0  0  0  0
  140.6060   73.9000  220.0260 C   0  0  0  0  0  0  0  0  0  0  0  0
  141.7580   73.0100  220.0060 C   0  0  0  0  0  0  0  0  0  0  0  0
  141.4530   71.8020  220.4400 O   0  0  0  0  0  0  0  0  0  0  0  0
  143.0860   73.1650  219.6330 N   0  0  0  0  0  0  0  0  0  0  0  0
  143.9810   72.2600  218.9810 C   0  0  0  0  0  0  0  0  0  0  0  0
  145.0100   71.8140  220.0590 C   0  0  0  0  0  0  0  0  0  0  0  0
  145.1970   72.9470  221.0210 C   0  0  0  0  0  0  0  0  0  0  0  0
  145.1250   74.2180  220.1790 C   0  0  0  0  0  0  0  0  0  0  0  0
  143.6790   74.5170  219.9240 C   0  0  1  0  0  0  0  0  0  0  0  0
  143.5530   75.3800  218.7010 C   0  0  0  0  0  0  0  0  0  0  0  0
  142.7790   76.4250  218.7360 O   0  0  0  0  0  0  0  0  0  0  0  0
  142.9500   77.7150  218.8850 C   0  0  0  0  0  0  0  0  0  0  0  0
  141.7900   78.5760  219.1920 C   0  0  0  0  0  0  0  0  0  0  0  0
  140.4830   78.1820  219.2400 C   0  0  0  0  0  0  0  0  0  0  0  0
  139.4460   79.0520  219.5580 C   0  0  0  0  0  0  0  0  0  0  0  0
  139.7090   80.3590  219.8380 C   0  0  0  0  0  0  0  0  0  0  0  0
  141.0060   80.7920  219.8010 C   0  0  0  0  0  0  0  0  0  0  0  0
  142.0360   79.9250  219.4840 C   0  0  0  0  0  0  0  0  0  0  0  0
  140.2250   76.9650  222.3180 C   0  0  0  0  0  0  0  0  0  0  0  0
  139.0810   77.6170  222.6780 C   0  0  0  0  0  0  0  0  0  0  0  0
  139.2100   78.9330  223.1250 C   0  0  0  0  0  0  0  0  0  0  0  0
  140.4540   79.5330  223.1930 C   0  0  0  0  0  0  0  0  0  0  0  0
  140.5800   80.8490  223.6410 C   0  0  0  0  0  0  0  0  0  0  0  0
  141.8450   81.4130  223.6940 C   0  0  0  0  0  0  0  0  0  0  0  0
  142.9490   80.6770  223.3100 C   0  0  0  0  0  0  0  0  0  0  0  0
  142.8430   79.3660  222.8620 C   0  0  0  0  0  0  0  0  0  0  0  0
  141.5660   78.8150  222.8130 C   0  0  0  0  0  0  0  0  0  0  0  0
  141.4110   77.5520  222.3890 N   0  0  0  0  0  0  0  0  0  0  0  0
  141.1050   75.9910  220.0310 H   0  0  0  0  0  0  0  0  0  0  0  0
  139.8184   73.3646  220.5766 H   0  0  0  0  0  0  0  0  0  0  0  0
  140.4756   74.1167  218.9555 H   0  0  0  0  0  0  0  0  0  0  0  0
  143.4296   71.3891  218.5969 H   0  0  0  0  0  0  0  0  0  0  0  0
  144.4796   72.7373  218.1245 H   0  0  0  0  0  0  0  0  0  0  0  0
  144.6310   70.9302  220.5931 H   0  0  0  0  0  0  0  0  0  0  0  0
  145.9684   71.5535  219.5862 H   0  0  0  0  0  0  0  0  0  0  0  0
  144.3995   72.9428  221.7786 H   0  0  0  0  0  0  0  0  0  0  0  0
  146.1531   72.8696  221.5594 H   0  0  0  0  0  0  0  0  0  0  0  0
  145.5898   75.0538  220.7225 H   0  0  0  0  0  0  0  0  0  0  0  0
  145.6624   74.0806  219.2291 H   0  0  0  0  0  0  0  0  0  0  0  0
  143.1925   75.0400  220.7605 H   0  0  0  0  0  0  0  0  0  0  0  0
  144.5638   75.7375  218.4550 H   0  0  0  0  0  0  0  0  0  0  0  0
  143.0676   74.7209  217.9661 H   0  0  0  0  0  0  0  0  0  0  0  0
  143.6721   77.8486  219.7040 H   0  0  0  0  0  0  0  0  0  0  0  0
  143.2598   78.0497  217.8840 H   0  0  0  0  0  0  0  0  0  0  0  0
  140.2406   77.1323  219.0178 H   0  0  0  0  0  0  0  0  0  0  0  0
  138.4098   78.6837  219.5836 H   0  0  0  0  0  0  0  0  0  0  0  0
  138.8935   81.0532  220.0892 H   0  0  0  0  0  0  0  0  0  0  0  0
  141.2330   81.8444  220.0265 H   0  0  0  0  0  0  0  0  0  0  0  0
  143.0693   80.3016  219.4605 H   0  0  0  0  0  0  0  0  0  0  0  0
  138.0986   77.1258  222.6183 H   0  0  0  0  0  0  0  0  0  0  0  0
  138.3149   79.4973  223.4256 H   0  0  0  0  0  0  0  0  0  0  0  0
  139.6944   81.4261  223.9455 H   0  0  0  0  0  0  0  0  0  0  0  0
  141.9700   82.4488  224.0426 H   0  0  0  0  0  0  0  0  0  0  0  0
  143.9438   81.1436  223.3605 H   0  0  0  0  0  0  0  0  0  0  0  0
  143.7294   78.7891  222.5594 H   0  0  0  0  0  0  0  0  0  0  0  0
  1  2  2  0
  2  3  1  0
  3  4  1  0
  4  5  1  0
  5  6  2  0
  5  7  1  0
  7  8  1  0
  8  9  1  0
  9 10  1  0
 10 11  1  0
 11 12  1  0
 12 13  1  0
 13 14  1  0
 14 15  1  0
 15 16  1  0
 16 17  2  0
 17 18  1  0
 18 19  2  0
 19 20  1  0
 20 21  2  0
  2 22  1  0
 22 23  2  0
 23 24  1  0
 24 25  2  0
 25 26  1  0
 26 27  2  0
 27 28  1  0
 28 29  2  0
 29 30  1  0
 30 31  2  0
 12  7  1  0
 21 16  1  0
 31 22  1  0
 30 25  1  0
  3 32  1  0
  4 33  1  0
  4 34  1  0
  8 35  1  0
  8 36  1  0
  9 37  1  0
  9 38  1  0
 10 39  1  0
 10 40  1  0
 11 41  1  0
 11 42  1  0
 12 43  1  1
 13 44  1  0
 13 45  1  0
 15 46  1  0
 15 47  1  0
 17 48  1  0
 18 49  1  0
 19 50  1  0
 20 51  1  0
 21 52  1  0
 23 53  1  0
 24 54  1  0
 26 55  1  0
 27 56  1  0
 28 57  1  0
 29 58  1  0
M  END
>  <smiles>  (43) 
O=C(NCC(=O)N1CCCC[C@H]1COCc1ccccc1)c1ccc2ccccc2n1

>  <score_type>  (43) 
oracle

>  <origin>  (43) 
autodockgpu

>  <m_score__min__energy>  (43) 
-9.1799999999999997

>  <m_primary>  (43) 
energy

>  <rmsd>  (43) 
7.517067956638926

>  <m_score__min__rmsd>  (43) 
7.517067956638926

>  <meeko>  (43) 
{"free_energy": -6.25, "intermolecular_energy": -8.63, "internal_energy": -4.02, "cluster_size": 11, "cluster_id": 5, "rank_in_cluster": 11}

>  <energy>  (43) 
-6.64

>  <cluster_rmsd>  (43) 
0.63

>  <cluster>  (43) 
5

$$$$

     RDKit          3D

 58 61  0  0  0  0  0  0  0  0999 V2000
  137.6820   69.9960  221.9830 O   0  0  0  0  0  0  0  0  0  0  0  0
  138.1820   70.8190  222.7870 C   0  0  0  0  0  0  0  0  0  0  0  0
  138.1080   72.2050  222.4480 N   0  0  0  0  0  0  0  0  0  0  0  0
  137.5220   72.7320  221.2900 C   0  0  0  0  0  0  0  0  0  0  0  0
  138.2540   72.9120  220.0450 C   0  0  0  0  0  0  0  0  0  0  0  0
  137.6220   72.3700  219.0210 O   0  0  0  0  0  0  0  0  0  0  0  0
  139.4550   73.5240  219.7160 N   0  0  0  0  0  0  0  0  0  0  0  0
  139.7290   74.6390  218.8620 C   0  0  0  0  0  0  0  0  0  0  0  0
  140.4240   74.0570  217.5970 C   0  0  0  0  0  0  0  0  0  0  0  0
  141.2060   72.8480  218.0100 C   0  0  0  0  0  0  0  0  0  0  0  0
  141.7660   73.1710  219.3920 C   0  0  0  0  0  0  0  0  0  0  0  0
  140.6710   72.9520  220.3920 C   0  0  1  0  0  0  0  0  0  0  0  0
  140.9590   73.7460  221.6340 C   0  0  0  0  0  0  0  0  0  0  0  0
  139.9730   74.2980  222.2810 O   0  0  0  0  0  0  0  0  0  0  0  0
  139.2170   75.3530  222.1150 C   0  0  0  0  0  0  0  0  0  0  0  0
  139.7300   76.6870  222.4890 C   0  0  0  0  0  0  0  0  0  0  0  0
  141.0420   77.0300  222.6530 C   0  0  0  0  0  0  0  0  0  0  0  0
  141.4470   78.3180  222.9860 C   0  0  0  0  0  0  0  0  0  0  0  0
  140.5230   79.3030  223.1650 C   0  0  0  0  0  0  0  0  0  0  0  0
  139.1980   78.9990  223.0090 C   0  0  0  0  0  0  0  0  0  0  0  0
  138.7980   77.7170  222.6780 C   0  0  0  0  0  0  0  0  0  0  0  0
  138.8240   70.3740  224.0350 C   0  0  0  0  0  0  0  0  0  0  0  0
  138.7830   69.0470  224.3520 C   0  0  0  0  0  0  0  0  0  0  0  0
  139.4000   68.6570  225.5420 C   0  0  0  0  0  0  0  0  0  0  0  0
  140.0200   69.5910  226.3520 C   0  0  0  0  0  0  0  0  0  0  0  0
  140.6370   69.1970  227.5410 C   0  0  0  0  0  0  0  0  0  0  0  0
  141.2470   70.1640  228.3230 C   0  0  0  0  0  0  0  0  0  0  0  0
  141.2390   71.4870  227.9220 C   0  0  0  0  0  0  0  0  0  0  0  0
  140.6310   71.8960  226.7420 C   0  0  0  0  0  0  0  0  0  0  0  0
  140.0220   70.9130  225.9690 C   0  0  0  0  0  0  0  0  0  0  0  0
  139.4220   71.2580  224.8190 N   0  0  0  0  0  0  0  0  0  0  0  0
  138.5520   72.8510  223.1730 H   0  0  0  0  0  0  0  0  0  0  0  0
  136.6749   72.0722  221.0513 H   0  0  0  0  0  0  0  0  0  0  0  0
  137.3372   73.7739  221.5903 H   0  0  0  0  0  0  0  0  0  0  0  0
  138.7929   75.1453  218.5838 H   0  0  0  0  0  0  0  0  0  0  0  0
  140.3671   75.3810  219.3642 H   0  0  0  0  0  0  0  0  0  0  0  0
  139.6658   73.7740  216.8520 H   0  0  0  0  0  0  0  0  0  0  0  0
  141.0917   74.8080  217.1496 H   0  0  0  0  0  0  0  0  0  0  0  0
  140.5510   71.9656  218.0582 H   0  0  0  0  0  0  0  0  0  0  0  0
  142.0062   72.6170  217.2914 H   0  0  0  0  0  0  0  0  0  0  0  0
  142.6153   72.5088  219.6159 H   0  0  0  0  0  0  0  0  0  0  0  0
  142.1190   74.2121  219.4301 H   0  0  0  0  0  0  0  0  0  0  0  0
  140.5571   71.8969  220.6816 H   0  0  0  0  0  0  0  0  0  0  0  0
  141.4651   73.0686  222.3376 H   0  0  0  0  0  0  0  0  0  0  0  0
  141.5409   74.6036  221.2655 H   0  0  0  0  0  0  0  0  0  0  0  0
  138.9617   75.3976  221.0460 H   0  0  0  0  0  0  0  0  0  0  0  0
  138.3899   75.1892  222.8214 H   0  0  0  0  0  0  0  0  0  0  0  0
  141.8104   76.2549  222.5159 H   0  0  0  0  0  0  0  0  0  0  0  0
  142.5173   78.5423  223.1053 H   0  0  0  0  0  0  0  0  0  0  0  0
  140.8362   80.3236  223.4300 H   0  0  0  0  0  0  0  0  0  0  0  0
  138.4409   79.7846  223.1487 H   0  0  0  0  0  0  0  0  0  0  0  0
  137.7258   77.5011  222.5605 H   0  0  0  0  0  0  0  0  0  0  0  0
  138.2851   68.3162  223.6978 H   0  0  0  0  0  0  0  0  0  0  0  0
  139.3930   67.5976  225.8380 H   0  0  0  0  0  0  0  0  0  0  0  0
  140.6386   68.1413  227.8501 H   0  0  0  0  0  0  0  0  0  0  0  0
  141.7386   69.8787  229.2647 H   0  0  0  0  0  0  0  0  0  0  0  0
  141.7295   72.2393  228.5572 H   0  0  0  0  0  0  0  0  0  0  0  0
  140.6311   72.9515  226.4323 H   0  0  0  0  0  0  0  0  0  0  0  0
  1  2  2  0
  2  3  1  0
  3  4  1  0
  4  5  1  0
  5  6  2  0
  5  7  1  0
  7  8  1  0
  8  9  1  0
  9 10  1  0
 10 11  1  0
 11 12  1  0
 12 13  1  0
 13 14  1  0
 14 15  1  0
 15 16  1  0
 16 17  2  0
 17 18  1  0
 18 19  2  0
 19 20  1  0
 20 21  2  0
  2 22  1  0
 22 23  2  0
 23 24  1  0
 24 25  2  0
 25 26  1  0
 26 27  2  0
 27 28  1  0
 28 29  2  0
 29 30  1  0
 30 31  2  0
 12  7  1  0
 21 16  1  0
 31 22  1  0
 30 25  1  0
  3 32  1  0
  4 33  1  0
  4 34  1  0
  8 35  1  0
  8 36  1  0
  9 37  1  0
  9 38  1  0
 10 39  1  0
 10 40  1  0
 11 41  1  0
 11 42  1  0
 12 43  1  1
 13 44  1  0
 13 45  1  0
 15 46  1  0
 15 47  1  0
 17 48  1  0
 18 49  1  0
 19 50  1  0
 20 51  1  0
 21 52  1  0
 23 53  1  0
 24 54  1  0
 26 55  1  0
 27 56  1  0
 28 57  1  0
 29 58  1  0
M  END
>  <smiles>  (44) 
O=C(NCC(=O)N1CCCC[C@H]1COCc1ccccc1)c1ccc2ccccc2n1

>  <score_type>  (44) 
oracle

>  <origin>  (44) 
autodockgpu

>  <m_score__min__energy>  (44) 
-9.1799999999999997

>  <m_primary>  (44) 
energy

>  <rmsd>  (44) 
2.4614582413550687

>  <m_score__min__rmsd>  (44) 
2.4614582413550687

>  <meeko>  (44) 
{"free_energy": -7.08, "intermolecular_energy": -9.46, "internal_energy": -2.86, "cluster_size": 23, "cluster_id": 1, "rank_in_cluster": 23}

>  <energy>  (44) 
-6.63

>  <cluster_rmsd>  (44) 
0.8

>  <cluster>  (44) 
5

$$$$

     RDKit          3D

 58 61  0  0  0  0  0  0  0  0999 V2000
  140.4420   73.5120  220.5900 O   0  0  0  0  0  0  0  0  0  0  0  0
  140.0610   73.8330  221.7410 C   0  0  0  0  0  0  0  0  0  0  0  0
  139.9890   72.8020  222.7270 N   0  0  0  0  0  0  0  0  0  0  0  0
  140.3070   71.4530  222.5230 C   0  0  0  0  0  0  0  0  0  0  0  0
  139.3030   70.4350  222.2510 C   0  0  0  0  0  0  0  0  0  0  0  0
  139.7650   69.4880  221.4580 O   0  0  0  0  0  0  0  0  0  0  0  0
  137.9840   70.2560  222.6460 N   0  0  0  0  0  0  0  0  0  0  0  0
  136.8100   69.9870  221.8760 C   0  0  0  0  0  0  0  0  0  0  0  0
  135.9620   71.2910  221.9030 C   0  0  0  0  0  0  0  0  0  0  0  0
  136.2120   71.9810  223.2090 C   0  0  0  0  0  0  0  0  0  0  0  0
  136.3570   70.8680  224.2420 C   0  0  0  0  0  0  0  0  0  0  0  0
  137.7470   70.3190  224.1310 C   0  0  1  0  0  0  0  0  0  0  0  0
  137.7820   68.9250  224.6900 C   0  0  0  0  0  0  0  0  0  0  0  0
  138.9310   68.3450  224.8830 O   0  0  0  0  0  0  0  0  0  0  0  0
  139.8470   68.3640  225.8190 C   0  0  0  0  0  0  0  0  0  0  0  0
  140.3000   69.6560  226.3730 C   0  0  0  0  0  0  0  0  0  0  0  0
  141.0190   70.6100  225.7110 C   0  0  0  0  0  0  0  0  0  0  0  0
  141.3910   71.8150  226.2980 C   0  0  0  0  0  0  0  0  0  0  0  0
  141.0410   72.0870  227.5860 C   0  0  0  0  0  0  0  0  0  0  0  0
  140.3190   71.1560  228.2830 C   0  0  0  0  0  0  0  0  0  0  0  0
  139.9510   69.9590  227.6970 C   0  0  0  0  0  0  0  0  0  0  0  0
  139.7010   75.2230  222.0650 C   0  0  0  0  0  0  0  0  0  0  0  0
  138.3820   75.5730  222.0660 C   0  0  0  0  0  0  0  0  0  0  0  0
  138.0730   76.8980  222.3770 C   0  0  0  0  0  0  0  0  0  0  0  0
  139.0760   77.8040  222.6680 C   0  0  0  0  0  0  0  0  0  0  0  0
  138.7640   79.1280  222.9790 C   0  0  0  0  0  0  0  0  0  0  0  0
  139.8000   80.0040  223.2650 C   0  0  0  0  0  0  0  0  0  0  0  0
  141.1090   79.5610  223.2400 C   0  0  0  0  0  0  0  0  0  0  0  0
  141.4370   78.2470  222.9340 C   0  0  0  0  0  0  0  0  0  0  0  0
  140.3870   77.3810  222.6480 C   0  0  0  0  0  0  0  0  0  0  0  0
  140.6530   76.1010  222.3460 N   0  0  0  0  0  0  0  0  0  0  0  0
  139.6570   73.1420  223.6830 H   0  0  0  0  0  0  0  0  0  0  0  0
  141.0004   71.4307  221.6694 H   0  0  0  0  0  0  0  0  0  0  0  0
  140.6573   71.1556  223.5224 H   0  0  0  0  0  0  0  0  0  0  0  0
  137.0832   69.7316  220.8415 H   0  0  0  0  0  0  0  0  0  0  0  0
  136.2479   69.1359  222.2880 H   0  0  0  0  0  0  0  0  0  0  0  0
  136.2599   71.9469  221.0717 H   0  0  0  0  0  0  0  0  0  0  0  0
  134.8934   71.0533  221.7957 H   0  0  0  0  0  0  0  0  0  0  0  0
  137.1341   72.5785  223.1569 H   0  0  0  0  0  0  0  0  0  0  0  0
  135.3949   72.6708  223.4670 H   0  0  0  0  0  0  0  0  0  0  0  0
  136.1934   71.2713  225.2522 H   0  0  0  0  0  0  0  0  0  0  0  0
  135.6153   70.0762  224.0607 H   0  0  0  0  0  0  0  0  0  0  0  0
  138.4926   70.9215  224.6706 H   0  0  0  0  0  0  0  0  0  0  0  0
  137.2710   68.9567  225.6636 H   0  0  0  0  0  0  0  0  0  0  0  0
  137.3120   68.3168  223.9031 H   0  0  0  0  0  0  0  0  0  0  0  0
  139.4545   67.7756  226.6615 H   0  0  0  0  0  0  0  0  0  0  0  0
  140.7415   67.9756  225.3101 H   0  0  0  0  0  0  0  0  0  0  0  0
  141.3165   70.4173  224.6697 H   0  0  0  0  0  0  0  0  0  0  0  0
  141.9697   72.5507  225.7202 H   0  0  0  0  0  0  0  0  0  0  0  0
  141.3331   73.0371  228.0572 H   0  0  0  0  0  0  0  0  0  0  0  0
  140.0277   71.3630  229.3233 H   0  0  0  0  0  0  0  0  0  0  0  0
  139.3722   69.2289  228.2817 H   0  0  0  0  0  0  0  0  0  0  0  0
  137.5950   74.8412  221.8314 H   0  0  0  0  0  0  0  0  0  0  0  0
  137.0226   77.2243  222.3907 H   0  0  0  0  0  0  0  0  0  0  0  0
  137.7185   79.4695  222.9969 H   0  0  0  0  0  0  0  0  0  0  0  0
  139.5798   81.0530  223.5121 H   0  0  0  0  0  0  0  0  0  0  0  0
  141.9164   80.2719  223.4698 H   0  0  0  0  0  0  0  0  0  0  0  0
  142.4825   77.9056  222.9185 H   0  0  0  0  0  0  0  0  0  0  0  0
  1  2  2  0
  2  3  1  0
  3  4  1  0
  4  5  1  0
  5  6  2  0
  5  7  1  0
  7  8  1  0
  8  9  1  0
  9 10  1  0
 10 11  1  0
 11 12  1  0
 12 13  1  0
 13 14  1  0
 14 15  1  0
 15 16  1  0
 16 17  2  0
 17 18  1  0
 18 19  2  0
 19 20  1  0
 20 21  2  0
  2 22  1  0
 22 23  2  0
 23 24  1  0
 24 25  2  0
 25 26  1  0
 26 27  2  0
 27 28  1  0
 28 29  2  0
 29 30  1  0
 30 31  2  0
 12  7  1  0
 21 16  1  0
 31 22  1  0
 30 25  1  0
  3 32  1  0
  4 33  1  0
  4 34  1  0
  8 35  1  0
  8 36  1  0
  9 37  1  0
  9 38  1  0
 10 39  1  0
 10 40  1  0
 11 41  1  0
 11 42  1  0
 12 43  1  1
 13 44  1  0
 13 45  1  0
 15 46  1  0
 15 47  1  0
 17 48  1  0
 18 49  1  0
 19 50  1  0
 20 51  1  0
 21 52  1  0
 23 53  1  0
 24 54  1  0
 26 55  1  0
 27 56  1  0
 28 57  1  0
 29 58  1  0
M  END
>  <smiles>  (45) 
O=C(NCC(=O)N1CCCC[C@H]1COCc1ccccc1)c1ccc2ccccc2n1

>  <score_type>  (45) 
oracle

>  <origin>  (45) 
autodockgpu

>  <m_score__min__energy>  (45) 
-9.1799999999999997

>  <m_primary>  (45) 
energy

>  <rmsd>  (45) 
7.804560048787763

>  <m_score__min__rmsd>  (45) 
7.804560048787763

>  <meeko>  (45) 
{"free_energy": -8.05, "intermolecular_energy": -10.44, "internal_energy": -2.21, "cluster_size": 5, "cluster_id": 2, "rank_in_cluster": 4}

>  <energy>  (45) 
-6.25

>  <cluster_rmsd>  (45) 
0.98

>  <cluster>  (45) 
5

$$$$

     RDKit          3D

 58 61  0  0  0  0  0  0  0  0999 V2000
  139.8460   70.6930  221.4690 O   0  0  0  0  0  0  0  0  0  0  0  0
  139.7550   71.1920  222.6170 C   0  0  0  0  0  0  0  0  0  0  0  0
  139.6410   72.6120  222.7150 N   0  0  0  0  0  0  0  0  0  0  0  0
  139.6230   73.5070  221.6370 C   0  0  0  0  0  0  0  0  0  0  0  0
  140.7510   74.3620  221.2990 C   0  0  0  0  0  0  0  0  0  0  0  0
  140.7900   75.4450  222.0510 O   0  0  0  0  0  0  0  0  0  0  0  0
  141.7770   74.2760  220.3670 N   0  0  0  0  0  0  0  0  0  0  0  0
  142.1280   73.2260  219.4630 C   0  0  0  0  0  0  0  0  0  0  0  0
  143.4450   72.6040  220.0100 C   0  0  0  0  0  0  0  0  0  0  0  0
  144.2210   73.6860  220.6970 C   0  0  0  0  0  0  0  0  0  0  0  0
  143.9840   74.9490  219.8740 C   0  0  0  0  0  0  0  0  0  0  0  0
  142.6440   75.5010  220.2580 C   0  0  1  0  0  0  0  0  0  0  0  0
  142.1240   76.3720  219.1500 C   0  0  0  0  0  0  0  0  0  0  0  0
  141.4580   77.4500  219.4470 O   0  0  0  0  0  0  0  0  0  0  0  0
  141.7590   78.6960  219.7090 C   0  0  0  0  0  0  0  0  0  0  0  0
  141.8240   79.1550  221.1120 C   0  0  0  0  0  0  0  0  0  0  0  0
  142.2050   80.3950  221.5380 C   0  0  0  0  0  0  0  0  0  0  0  0
  142.2200   80.7580  222.8800 C   0  0  0  0  0  0  0  0  0  0  0  0
  141.8440   79.8640  223.8360 C   0  0  0  0  0  0  0  0  0  0  0  0
  141.4540   78.6100  223.4490 C   0  0  0  0  0  0  0  0  0  0  0  0
  141.4410   78.2520  222.1130 C   0  0  0  0  0  0  0  0  0  0  0  0
  139.7640   70.3440  223.8200 C   0  0  0  0  0  0  0  0  0  0  0  0
  139.1820   69.1110  223.7550 C   0  0  0  0  0  0  0  0  0  0  0  0
  139.2070   68.3320  224.9130 C   0  0  0  0  0  0  0  0  0  0  0  0
  139.8020   68.8070  226.0680 C   0  0  0  0  0  0  0  0  0  0  0  0
  139.8260   68.0240  227.2230 C   0  0  0  0  0  0  0  0  0  0  0  0
  140.4320   68.5380  228.3580 C   0  0  0  0  0  0  0  0  0  0  0  0
  140.9970   69.7990  228.3330 C   0  0  0  0  0  0  0  0  0  0  0  0
  140.9830   70.5900  227.1920 C   0  0  0  0  0  0  0  0  0  0  0  0
  140.3700   70.0610  226.0610 C   0  0  0  0  0  0  0  0  0  0  0  0
  140.3310   70.7870  224.9330 N   0  0  0  0  0  0  0  0  0  0  0  0
  139.5680   72.9710  223.7180 H   0  0  0  0  0  0  0  0  0  0  0  0
  139.4240   72.8995  220.7418 H   0  0  0  0  0  0  0  0  0  0  0  0
  138.8807   74.2449  221.9754 H   0  0  0  0  0  0  0  0  0  0  0  0
  141.3321   72.4674  219.4323 H   0  0  0  0  0  0  0  0  0  0  0  0
  142.2594   73.6060  218.4391 H   0  0  0  0  0  0  0  0  0  0  0  0
  143.2096   71.8023  220.7255 H   0  0  0  0  0  0  0  0  0  0  0  0
  144.0352   72.1763  219.1861 H   0  0  0  0  0  0  0  0  0  0  0  0
  143.8575   73.8247  221.7259 H   0  0  0  0  0  0  0  0  0  0  0  0
  145.2909   73.4392  220.7636 H   0  0  0  0  0  0  0  0  0  0  0  0
  144.7691   75.6888  220.0892 H   0  0  0  0  0  0  0  0  0  0  0  0
  144.0108   74.7179  218.7989 H   0  0  0  0  0  0  0  0  0  0  0  0
  142.6725   76.1029  221.1783 H   0  0  0  0  0  0  0  0  0  0  0  0
  142.9933   76.6859  218.5535 H   0  0  0  0  0  0  0  0  0  0  0  0
  141.3806   75.7368  218.6460 H   0  0  0  0  0  0  0  0  0  0  0  0
  142.7478   78.8851  219.2656 H   0  0  0  0  0  0  0  0  0  0  0  0
  140.9079   79.2570  219.2956 H   0  0  0  0  0  0  0  0  0  0  0  0
  142.5131   81.1381  220.7878 H   0  0  0  0  0  0  0  0  0  0  0  0
  142.5366   81.7706  223.1705 H   0  0  0  0  0  0  0  0  0  0  0  0
  141.8535   80.1443  224.8997 H   0  0  0  0  0  0  0  0  0  0  0  0
  141.1470   77.8778  224.2103 H   0  0  0  0  0  0  0  0  0  0  0  0
  141.1234   77.2375  221.8304 H   0  0  0  0  0  0  0  0  0  0  0  0
  138.7131   68.7466  222.8291 H   0  0  0  0  0  0  0  0  0  0  0  0
  138.7496   67.3316  224.9071 H   0  0  0  0  0  0  0  0  0  0  0  0
  139.3739   67.0212  227.2321 H   0  0  0  0  0  0  0  0  0  0  0  0
  140.4635   67.9409  229.2813 H   0  0  0  0  0  0  0  0  0  0  0  0
  141.4725   70.1881  229.2454 H   0  0  0  0  0  0  0  0  0  0  0  0
  141.4371   71.5918  227.1828 H   0  0  0  0  0  0  0  0  0  0  0  0
  1  2  2  0
  2  3  1  0
  3  4  1  0
  4  5  1  0
  5  6  2  0
  5  7  1  0
  7  8  1  0
  8  9  1  0
  9 10  1  0
 10 11  1  0
 11 12  1  0
 12 13  1  0
 13 14  1  0
 14 15  1  0
 15 16  1  0
 16 17  2  0
 17 18  1  0
 18 19  2  0
 19 20  1  0
 20 21  2  0
  2 22  1  0
 22 23  2  0
 23 24  1  0
 24 25  2  0
 25 26  1  0
 26 27  2  0
 27 28  1  0
 28 29  2  0
 29 30  1  0
 30 31  2  0
 12  7  1  0
 21 16  1  0
 31 22  1  0
 30 25  1  0
  3 32  1  0
  4 33  1  0
  4 34  1  0
  8 35  1  0
  8 36  1  0
  9 37  1  0
  9 38  1  0
 10 39  1  0
 10 40  1  0
 11 41  1  0
 11 42  1  0
 12 43  1  1
 13 44  1  0
 13 45  1  0
 15 46  1  0
 15 47  1  0
 17 48  1  0
 18 49  1  0
 19 50  1  0
 20 51  1  0
 21 52  1  0
 23 53  1  0
 24 54  1  0
 26 55  1  0
 27 56  1  0
 28 57  1  0
 29 58  1  0
M  END
>  <smiles>  (46) 
O=C(NCC(=O)N1CCCC[C@H]1COCc1ccccc1)c1ccc2ccccc2n1

>  <score_type>  (46) 
oracle

>  <origin>  (46) 
autodockgpu

>  <m_score__min__energy>  (46) 
-9.1799999999999997

>  <m_primary>  (46) 
energy

>  <rmsd>  (46) 
2.3391407950858034

>  <m_score__min__rmsd>  (46) 
2.3391407950858034

>  <meeko>  (46) 
{"free_energy": -9.05, "intermolecular_energy": -11.44, "internal_energy": -1.91, "cluster_size": 23, "cluster_id": 1, "rank_in_cluster": 4}

>  <energy>  (46) 
-7.21

>  <cluster_rmsd>  (46) 
0.0

>  <cluster>  (46) 
6

$$$$

     RDKit          3D

 58 61  0  0  0  0  0  0  0  0999 V2000
  141.1580   74.4130  221.0630 O   0  0  0  0  0  0  0  0  0  0  0  0
  140.2290   74.7490  221.8360 C   0  0  0  0  0  0  0  0  0  0  0  0
  139.3830   73.7160  222.3440 N   0  0  0  0  0  0  0  0  0  0  0  0
  139.4980   72.3500  222.0540 C   0  0  0  0  0  0  0  0  0  0  0  0
  138.7080   71.3290  222.7260 C   0  0  0  0  0  0  0  0  0  0  0  0
  137.9200   71.8470  223.6490 O   0  0  0  0  0  0  0  0  0  0  0  0
  138.6120   69.9500  222.6010 N   0  0  0  0  0  0  0  0  0  0  0  0
  139.5070   69.0050  222.0090 C   0  0  0  0  0  0  0  0  0  0  0  0
  138.8240   68.5230  220.6970 C   0  0  0  0  0  0  0  0  0  0  0  0
  137.3400   68.5610  220.9030 C   0  0  0  0  0  0  0  0  0  0  0  0
  137.1150   68.1430  222.3530 C   0  0  0  0  0  0  0  0  0  0  0  0
  137.3860   69.3360  223.2200 C   0  0  1  0  0  0  0  0  0  0  0  0
  137.7180   68.8790  224.6120 C   0  0  0  0  0  0  0  0  0  0  0  0
  138.8140   68.2090  224.8190 O   0  0  0  0  0  0  0  0  0  0  0  0
  139.7760   68.2350  225.7060 C   0  0  0  0  0  0  0  0  0  0  0  0
  140.2340   69.5290  226.2530 C   0  0  0  0  0  0  0  0  0  0  0  0
  140.8550   70.5250  225.5540 C   0  0  0  0  0  0  0  0  0  0  0  0
  141.2380   71.7270  226.1370 C   0  0  0  0  0  0  0  0  0  0  0  0
  141.0010   71.9540  227.4600 C   0  0  0  0  0  0  0  0  0  0  0  0
  140.3800   70.9800  228.1940 C   0  0  0  0  0  0  0  0  0  0  0  0
  140.0000   69.7850  227.6110 C   0  0  0  0  0  0  0  0  0  0  0  0
  140.0170   76.1580  222.2080 C   0  0  0  0  0  0  0  0  0  0  0  0
  138.7370   76.6210  222.3080 C   0  0  0  0  0  0  0  0  0  0  0  0
  138.5700   77.9610  222.6610 C   0  0  0  0  0  0  0  0  0  0  0  0
  139.6680   78.7690  222.8950 C   0  0  0  0  0  0  0  0  0  0  0  0
  139.4970   80.1080  223.2490 C   0  0  0  0  0  0  0  0  0  0  0  0
  140.6240   80.8830  223.4750 C   0  0  0  0  0  0  0  0  0  0  0  0
  141.8840   80.3280  223.3500 C   0  0  0  0  0  0  0  0  0  0  0  0
  142.0720   78.9980  223.0000 C   0  0  0  0  0  0  0  0  0  0  0  0
  140.9310   78.2340  222.7750 C   0  0  0  0  0  0  0  0  0  0  0  0
  141.0610   76.9420  222.4350 N   0  0  0  0  0  0  0  0  0  0  0  0
  138.6130   74.0690  222.9940 H   0  0  0  0  0  0  0  0  0  0  0  0
  139.2763   72.2479  220.9814 H   0  0  0  0  0  0  0  0  0  0  0  0
  140.5084   72.1292  222.4286 H   0  0  0  0  0  0  0  0  0  0  0  0
  140.4716   69.4831  221.7833 H   0  0  0  0  0  0  0  0  0  0  0  0
  139.7084   68.1637  222.6884 H   0  0  0  0  0  0  0  0  0  0  0  0
  139.1021   69.1878  219.8660 H   0  0  0  0  0  0  0  0  0  0  0  0
  139.1485   67.5009  220.4519 H   0  0  0  0  0  0  0  0  0  0  0  0
  136.9547   69.5771  220.7323 H   0  0  0  0  0  0  0  0  0  0  0  0
  136.8151   67.8955  220.2019 H   0  0  0  0  0  0  0  0  0  0  0  0
  136.0758   67.8093  222.4895 H   0  0  0  0  0  0  0  0  0  0  0  0
  137.7837   67.3120  222.6220 H   0  0  0  0  0  0  0  0  0  0  0  0
  136.5321   70.0266  223.2830 H   0  0  0  0  0  0  0  0  0  0  0  0
  137.7690   69.7796  225.2415 H   0  0  0  0  0  0  0  0  0  0  0  0
  136.9230   68.1551  224.8444 H   0  0  0  0  0  0  0  0  0  0  0  0
  139.4386   67.6294  226.5600 H   0  0  0  0  0  0  0  0  0  0  0  0
  140.6499   67.8705  225.1461 H   0  0  0  0  0  0  0  0  0  0  0  0
  141.0605   70.3690  224.4847 H   0  0  0  0  0  0  0  0  0  0  0  0
  141.7340   72.4977  225.5288 H   0  0  0  0  0  0  0  0  0  0  0  0
  141.3032   72.9021  227.9288 H   0  0  0  0  0  0  0  0  0  0  0  0
  140.1804   71.1500  229.2623 H   0  0  0  0  0  0  0  0  0  0  0  0
  139.5038   69.0196  228.2257 H   0  0  0  0  0  0  0  0  0  0  0  0
  137.8738   75.9660  222.1185 H   0  0  0  0  0  0  0  0  0  0  0  0
  137.5564   78.3781  222.7539 H   0  0  0  0  0  0  0  0  0  0  0  0
  138.4897   80.5392  223.3466 H   0  0  0  0  0  0  0  0  0  0  0  0
  140.5155   81.9414  223.7543 H   0  0  0  0  0  0  0  0  0  0  0  0
  142.7652   80.9602  223.5337 H   0  0  0  0  0  0  0  0  0  0  0  0
  143.0794   78.5666  222.9046 H   0  0  0  0  0  0  0  0  0  0  0  0
  1  2  2  0
  2  3  1  0
  3  4  1  0
  4  5  1  0
  5  6  2  0
  5  7  1  0
  7  8  1  0
  8  9  1  0
  9 10  1  0
 10 11  1  0
 11 12  1  0
 12 13  1  0
 13 14  1  0
 14 15  1  0
 15 16  1  0
 16 17  2  0
 17 18  1  0
 18 19  2  0
 19 20  1  0
 20 21  2  0
  2 22  1  0
 22 23  2  0
 23 24  1  0
 24 25  2  0
 25 26  1  0
 26 27  2  0
 27 28  1  0
 28 29  2  0
 29 30  1  0
 30 31  2  0
 12  7  1  0
 21 16  1  0
 31 22  1  0
 30 25  1  0
  3 32  1  0
  4 33  1  0
  4 34  1  0
  8 35  1  0
  8 36  1  0
  9 37  1  0
  9 38  1  0
 10 39  1  0
 10 40  1  0
 11 41  1  0
 11 42  1  0
 12 43  1  1
 13 44  1  0
 13 45  1  0
 15 46  1  0
 15 47  1  0
 17 48  1  0
 18 49  1  0
 19 50  1  0
 20 51  1  0
 21 52  1  0
 23 53  1  0
 24 54  1  0
 26 55  1  0
 27 56  1  0
 28 57  1  0
 29 58  1  0
M  END
>  <smiles>  (47) 
O=C(NCC(=O)N1CCCC[C@H]1COCc1ccccc1)c1ccc2ccccc2n1

>  <score_type>  (47) 
oracle

>  <origin>  (47) 
autodockgpu

>  <m_score__min__energy>  (47) 
-9.1799999999999997

>  <m_primary>  (47) 
energy

>  <rmsd>  (47) 
8.273112665015407

>  <m_score__min__rmsd>  (47) 
8.273112665015407

>  <meeko>  (47) 
{"free_energy": -8.6, "intermolecular_energy": -10.99, "internal_energy": -2.21, "cluster_size": 5, "cluster_id": 2, "rank_in_cluster": 3}

>  <energy>  (47) 
-6.99

>  <cluster_rmsd>  (47) 
1.76

>  <cluster>  (47) 
6

$$$$

     RDKit          3D

 58 61  0  0  0  0  0  0  0  0999 V2000
  141.0060   71.7070  221.3890 O   0  0  0  0  0  0  0  0  0  0  0  0
  140.3870   72.1670  222.3800 C   0  0  0  0  0  0  0  0  0  0  0  0
  139.8280   73.4760  222.2630 N   0  0  0  0  0  0  0  0  0  0  0  0
  139.9090   74.3000  221.1340 C   0  0  0  0  0  0  0  0  0  0  0  0
  140.5720   75.5960  221.1460 C   0  0  0  0  0  0  0  0  0  0  0  0
  140.7250   76.0580  222.3720 O   0  0  0  0  0  0  0  0  0  0  0  0
  141.0680   76.4310  220.1540 N   0  0  0  0  0  0  0  0  0  0  0  0
  142.1820   77.3280  220.1640 C   0  0  0  0  0  0  0  0  0  0  0  0
  141.5840   78.7640  220.1710 C   0  0  0  0  0  0  0  0  0  0  0  0
  140.2830   78.7310  219.4280 C   0  0  0  0  0  0  0  0  0  0  0  0
  140.4890   77.7450  218.2810 C   0  0  0  0  0  0  0  0  0  0  0  0
  140.3440   76.3600  218.8370 C   0  0  1  0  0  0  0  0  0  0  0  0
  141.0520   75.3840  217.9420 C   0  0  0  0  0  0  0  0  0  0  0  0
  142.1460   74.8150  218.3580 O   0  0  0  0  0  0  0  0  0  0  0  0
  142.4590   73.6620  218.8930 C   0  0  0  0  0  0  0  0  0  0  0  0
  143.7820   73.4820  219.5250 C   0  0  0  0  0  0  0  0  0  0  0  0
  144.5550   72.3570  219.4740 C   0  0  0  0  0  0  0  0  0  0  0  0
  145.8030   72.2730  220.0800 C   0  0  0  0  0  0  0  0  0  0  0  0
  146.3070   73.3390  220.7620 C   0  0  0  0  0  0  0  0  0  0  0  0
  145.5630   74.4860  220.8360 C   0  0  0  0  0  0  0  0  0  0  0  0
  144.3210   74.5660  220.2320 C   0  0  0  0  0  0  0  0  0  0  0  0
  140.2430   71.3840  223.6190 C   0  0  0  0  0  0  0  0  0  0  0  0
  139.6400   70.1610  223.5520 C   0  0  0  0  0  0  0  0  0  0  0  0
  139.5180   69.4450  224.7440 C   0  0  0  0  0  0  0  0  0  0  0  0
  139.9930   69.9700  225.9320 C   0  0  0  0  0  0  0  0  0  0  0  0
  139.8690   69.2500  227.1210 C   0  0  0  0  0  0  0  0  0  0  0  0
  140.3590   69.8120  228.2890 C   0  0  0  0  0  0  0  0  0  0  0  0
  140.9560   71.0590  228.2630 C   0  0  0  0  0  0  0  0  0  0  0  0
  141.0870   71.7880  227.0880 C   0  0  0  0  0  0  0  0  0  0  0  0
  140.5900   71.2110  225.9250 C   0  0  0  0  0  0  0  0  0  0  0  0
  140.6940   71.8760  224.7630 N   0  0  0  0  0  0  0  0  0  0  0  0
  139.3160   73.8060  223.1400 H   0  0  0  0  0  0  0  0  0  0  0  0
  140.4181   73.7059  220.3607 H   0  0  0  0  0  0  0  0  0  0  0  0
  138.8571   74.5914  220.9975 H   0  0  0  0  0  0  0  0  0  0  0  0
  142.7941   77.1656  221.0634 H   0  0  0  0  0  0  0  0  0  0  0  0
  142.8320   77.1691  219.2909 H   0  0  0  0  0  0  0  0  0  0  0  0
  141.4133   79.0916  221.2071 H   0  0  0  0  0  0  0  0  0  0  0  0
  142.2791   79.4683  219.6906 H   0  0  0  0  0  0  0  0  0  0  0  0
  139.4727   78.3880  220.0881 H   0  0  0  0  0  0  0  0  0  0  0  0
  139.9991   79.7283  219.0608 H   0  0  0  0  0  0  0  0  0  0  0  0
  139.7334   77.9159  217.5001 H   0  0  0  0  0  0  0  0  0  0  0  0
  141.4852   77.8777  217.8339 H   0  0  0  0  0  0  0  0  0  0  0  0
  139.2957   76.0394  218.9284 H   0  0  0  0  0  0  0  0  0  0  0  0
  140.3373   74.5787  217.7167 H   0  0  0  0  0  0  0  0  0  0  0  0
  141.3860   76.0023  217.0957 H   0  0  0  0  0  0  0  0  0  0  0  0
  141.7053   73.4546  219.6669 H   0  0  0  0  0  0  0  0  0  0  0  0
  142.4933   72.9808  218.0300 H   0  0  0  0  0  0  0  0  0  0  0  0
  144.1736   71.4802  218.9302 H   0  0  0  0  0  0  0  0  0  0  0  0
  146.3856   71.3427  220.0086 H   0  0  0  0  0  0  0  0  0  0  0  0
  147.2938   73.2794  221.2445 H   0  0  0  0  0  0  0  0  0  0  0  0
  145.9579   75.3550  221.3827 H   0  0  0  0  0  0  0  0  0  0  0  0
  143.7443   75.4996  220.3080 H   0  0  0  0  0  0  0  0  0  0  0  0
  139.2663   69.7572  222.5995 H   0  0  0  0  0  0  0  0  0  0  0  0
  139.0398   68.4544  224.7384 H   0  0  0  0  0  0  0  0  0  0  0  0
  139.3929   68.2584  227.1308 H   0  0  0  0  0  0  0  0  0  0  0  0
  140.2728   69.2647  229.2393 H   0  0  0  0  0  0  0  0  0  0  0  0
  141.3388   71.4866  229.2014 H   0  0  0  0  0  0  0  0  0  0  0  0
  141.5636   72.7794  227.0781 H   0  0  0  0  0  0  0  0  0  0  0  0
  1  2  2  0
  2  3  1  0
  3  4  1  0
  4  5  1  0
  5  6  2  0
  5  7  1  0
  7  8  1  0
  8  9  1  0
  9 10  1  0
 10 11  1  0
 11 12  1  0
 12 13  1  0
 13 14  1  0
 14 15  1  0
 15 16  1  0
 16 17  2  0
 17 18  1  0
 18 19  2  0
 19 20  1  0
 20 21  2  0
  2 22  1  0
 22 23  2  0
 23 24  1  0
 24 25  2  0
 25 26  1  0
 26 27  2  0
 27 28  1  0
 28 29  2  0
 29 30  1  0
 30 31  2  0
 12  7  1  0
 21 16  1  0
 31 22  1  0
 30 25  1  0
  3 32  1  0
  4 33  1  0
  4 34  1  0
  8 35  1  0
  8 36  1  0
  9 37  1  0
  9 38  1  0
 10 39  1  0
 10 40  1  0
 11 41  1  0
 11 42  1  0
 12 43  1  1
 13 44  1  0
 13 45  1  0
 15 46  1  0
 15 47  1  0
 17 48  1  0
 18 49  1  0
 19 50  1  0
 20 51  1  0
 21 52  1  0
 23 53  1  0
 24 54  1  0
 26 55  1  0
 27 56  1  0
 28 57  1  0
 29 58  1  0
M  END
>  <smiles>  (48) 
O=C(NCC(=O)N1CCCC[C@H]1COCc1ccccc1)c1ccc2ccccc2n1

>  <score_type>  (48) 
oracle

>  <origin>  (48) 
autodockgpu

>  <m_score__min__energy>  (48) 
-9.1799999999999997

>  <m_primary>  (48) 
energy

>  <rmsd>  (48) 
2.3934918250256882

>  <m_score__min__rmsd>  (48) 
2.3934918250256882

>  <meeko>  (48) 
{"free_energy": -7.96, "intermolecular_energy": -10.35, "internal_energy": -2.22, "cluster_size": 5, "cluster_id": 4, "rank_in_cluster": 5}

>  <energy>  (48) 
-6.9

>  <cluster_rmsd>  (48) 
0.99

>  <cluster>  (48) 
6

$$$$

     RDKit          3D

 58 61  0  0  0  0  0  0  0  0999 V2000
  140.9060   71.7800  221.3040 O   0  0  0  0  0  0  0  0  0  0  0  0
  140.3500   72.2400  222.3300 C   0  0  0  0  0  0  0  0  0  0  0  0
  139.8440   73.5750  222.2680 N   0  0  0  0  0  0  0  0  0  0  0  0
  139.9140   74.4230  221.1550 C   0  0  0  0  0  0  0  0  0  0  0  0
  139.6020   75.8430  221.2220 C   0  0  0  0  0  0  0  0  0  0  0  0
  138.3110   76.0700  221.0670 O   0  0  0  0  0  0  0  0  0  0  0  0
  140.3640   76.9870  221.4120 N   0  0  0  0  0  0  0  0  0  0  0  0
  141.0740   77.4520  222.5630 C   0  0  0  0  0  0  0  0  0  0  0  0
  140.2780   78.6760  223.1010 C   0  0  0  0  0  0  0  0  0  0  0  0
  139.6280   79.3570  221.9350 C   0  0  0  0  0  0  0  0  0  0  0  0
  140.6250   79.2470  220.7860 C   0  0  0  0  0  0  0  0  0  0  0  0
  140.5010   77.8720  220.2030 C   0  0  1  0  0  0  0  0  0  0  0  0
  141.7690   77.5180  219.4790 C   0  0  0  0  0  0  0  0  0  0  0  0
  142.4390   76.4640  219.8460 O   0  0  0  0  0  0  0  0  0  0  0  0
  143.6750   76.0500  219.7290 C   0  0  0  0  0  0  0  0  0  0  0  0
  143.9950   74.6260  219.9560 C   0  0  0  0  0  0  0  0  0  0  0  0
  143.1790   73.5640  219.6900 C   0  0  0  0  0  0  0  0  0  0  0  0
  143.5620   72.2460  219.9130 C   0  0  0  0  0  0  0  0  0  0  0  0
  144.7970   71.9660  220.4160 C   0  0  0  0  0  0  0  0  0  0  0  0
  145.6450   73.0040  220.6940 C   0  0  0  0  0  0  0  0  0  0  0  0
  145.2610   74.3140  220.4720 C   0  0  0  0  0  0  0  0  0  0  0  0
  140.2220   71.4340  223.5560 C   0  0  0  0  0  0  0  0  0  0  0  0
  139.6290   70.2080  223.4720 C   0  0  0  0  0  0  0  0  0  0  0  0
  139.5220   69.4690  224.6510 C   0  0  0  0  0  0  0  0  0  0  0  0
  140.0030   69.9750  225.8450 C   0  0  0  0  0  0  0  0  0  0  0  0
  139.8960   69.2330  227.0210 C   0  0  0  0  0  0  0  0  0  0  0  0
  140.3910   69.7780  228.1960 C   0  0  0  0  0  0  0  0  0  0  0  0
  140.9770   71.0300  228.1870 C   0  0  0  0  0  0  0  0  0  0  0  0
  141.0930   71.7810  227.0250 C   0  0  0  0  0  0  0  0  0  0  0  0
  140.5900   71.2210  225.8550 C   0  0  0  0  0  0  0  0  0  0  0  0
  140.6790   71.9080  224.7060 N   0  0  0  0  0  0  0  0  0  0  0  0
  139.3840   73.9050  223.1720 H   0  0  0  0  0  0  0  0  0  0  0  0
  140.9487   74.3566  220.7875 H   0  0  0  0  0  0  0  0  0  0  0  0
  139.0874   74.0440  220.5361 H   0  0  0  0  0  0  0  0  0  0  0  0
  141.1204   76.6620  223.3270 H   0  0  0  0  0  0  0  0  0  0  0  0
  142.1088   77.7271  222.3108 H   0  0  0  0  0  0  0  0  0  0  0  0
  139.5092   78.3379  223.8114 H   0  0  0  0  0  0  0  0  0  0  0  0
  140.9534   79.3715  223.6208 H   0  0  0  0  0  0  0  0  0  0  0  0
  138.6849   78.8546  221.6741 H   0  0  0  0  0  0  0  0  0  0  0  0
  139.3828   80.4051  222.1614 H   0  0  0  0  0  0  0  0  0  0  0  0
  140.3963   80.0011  220.0185 H   0  0  0  0  0  0  0  0  0  0  0  0
  141.6493   79.4204  221.1477 H   0  0  0  0  0  0  0  0  0  0  0  0
  139.6661   77.7784  219.4929 H   0  0  0  0  0  0  0  0  0  0  0  0
  141.5057   77.3783  218.4202 H   0  0  0  0  0  0  0  0  0  0  0  0
  142.4457   78.3523  219.7155 H   0  0  0  0  0  0  0  0  0  0  0  0
  143.9959   76.2895  218.7045 H   0  0  0  0  0  0  0  0  0  0  0  0
  144.1956   76.5634  220.5508 H   0  0  0  0  0  0  0  0  0  0  0  0
  142.1763   73.7593  219.2821 H   0  0  0  0  0  0  0  0  0  0  0  0
  142.8654   71.4264  219.6825 H   0  0  0  0  0  0  0  0  0  0  0  0
  145.1066   70.9258  220.5952 H   0  0  0  0  0  0  0  0  0  0  0  0
  146.6456   72.7933  221.0995 H   0  0  0  0  0  0  0  0  0  0  0  0
  145.9632   75.1280  220.7050 H   0  0  0  0  0  0  0  0  0  0  0  0
  139.2511   69.8185  222.5152 H   0  0  0  0  0  0  0  0  0  0  0  0
  139.0509   68.4752  224.6305 H   0  0  0  0  0  0  0  0  0  0  0  0
  139.4290   68.2370  227.0165 H   0  0  0  0  0  0  0  0  0  0  0  0
  140.3173   69.2131  229.1370 H   0  0  0  0  0  0  0  0  0  0  0  0
  141.3635   71.4442  229.1299 H   0  0  0  0  0  0  0  0  0  0  0  0
  141.5624   72.7758  227.0293 H   0  0  0  0  0  0  0  0  0  0  0  0
  1  2  2  0
  2  3  1  0
  3  4  1  0
  4  5  1  0
  5  6  2  0
  5  7  1  0
  7  8  1  0
  8  9  1  0
  9 10  1  0
 10 11  1  0
 11 12  1  0
 12 13  1  0
 13 14  1  0
 14 15  1  0
 15 16  1  0
 16 17  2  0
 17 18  1  0
 18 19  2  0
 19 20  1  0
 20 21  2  0
  2 22  1  0
 22 23  2  0
 23 24  1  0
 24 25  2  0
 25 26  1  0
 26 27  2  0
 27 28  1  0
 28 29  2  0
 29 30  1  0
 30 31  2  0
 12  7  1  0
 21 16  1  0
 31 22  1  0
 30 25  1  0
  3 32  1  0
  4 33  1  0
  4 34  1  0
  8 35  1  0
  8 36  1  0
  9 37  1  0
  9 38  1  0
 10 39  1  0
 10 40  1  0
 11 41  1  0
 11 42  1  0
 12 43  1  6
 13 44  1  0
 13 45  1  0
 15 46  1  0
 15 47  1  0
 17 48  1  0
 18 49  1  0
 19 50  1  0
 20 51  1  0
 21 52  1  0
 23 53  1  0
 24 54  1  0
 26 55  1  0
 27 56  1  0
 28 57  1  0
 29 58  1  0
M  END
>  <smiles>  (49) 
O=C(NCC(=O)N1CCCC[C@H]1COCc1ccccc1)c1ccc2ccccc2n1

>  <score_type>  (49) 
oracle

>  <origin>  (49) 
autodockgpu

>  <m_score__min__energy>  (49) 
-9.1799999999999997

>  <m_primary>  (49) 
energy

>  <rmsd>  (49) 
2.882265789577038

>  <m_score__min__rmsd>  (49) 
2.882265789577038

>  <meeko>  (49) 
{"free_energy": -8.44, "intermolecular_energy": -10.82, "internal_energy": -2.03, "cluster_size": 5, "cluster_id": 4, "rank_in_cluster": 2}

>  <energy>  (49) 
-5.92

>  <cluster_rmsd>  (49) 
1.26

>  <cluster>  (49) 
6

$$$$

     RDKit          3D

 58 61  0  0  0  0  0  0  0  0999 V2000
  140.8830   74.6540  220.6490 O   0  0  0  0  0  0  0  0  0  0  0  0
  140.1370   74.9230  221.6220 C   0  0  0  0  0  0  0  0  0  0  0  0
  139.4290   73.8440  222.2330 N   0  0  0  0  0  0  0  0  0  0  0  0
  139.4930   72.5000  221.8420 C   0  0  0  0  0  0  0  0  0  0  0  0
  139.1550   71.4000  222.7330 C   0  0  0  0  0  0  0  0  0  0  0  0
  140.1760   71.0510  223.4920 O   0  0  0  0  0  0  0  0  0  0  0  0
  138.0030   70.6550  222.9470 N   0  0  0  0  0  0  0  0  0  0  0  0
  136.9040   70.3700  222.0780 C   0  0  0  0  0  0  0  0  0  0  0  0
  135.6970   71.1900  222.6180 C   0  0  0  0  0  0  0  0  0  0  0  0
  135.8430   71.3080  224.1040 C   0  0  0  0  0  0  0  0  0  0  0  0
  136.4280   69.9770  224.5680 C   0  0  0  0  0  0  0  0  0  0  0  0
  137.9030   70.0090  224.3020 C   0  0  1  0  0  0  0  0  0  0  0  0
  138.4260   68.6030  224.2130 C   0  0  0  0  0  0  0  0  0  0  0  0
  139.4440   68.2550  224.9460 O   0  0  0  0  0  0  0  0  0  0  0  0
  139.8030   68.4210  226.1940 C   0  0  0  0  0  0  0  0  0  0  0  0
  140.2580   69.7490  226.6540 C   0  0  0  0  0  0  0  0  0  0  0  0
  141.1220   70.5770  225.9980 C   0  0  0  0  0  0  0  0  0  0  0  0
  141.4870   71.8260  226.4890 C   0  0  0  0  0  0  0  0  0  0  0  0
  140.9800   72.2730  227.6710 C   0  0  0  0  0  0  0  0  0  0  0  0
  140.1090   71.4720  228.3590 C   0  0  0  0  0  0  0  0  0  0  0  0
  139.7480   70.2300  227.8680 C   0  0  0  0  0  0  0  0  0  0  0  0
  139.9960   76.3030  222.1160 C   0  0  0  0  0  0  0  0  0  0  0  0
  138.7480   76.7620  222.4220 C   0  0  0  0  0  0  0  0  0  0  0  0
  138.6470   78.0750  222.8870 C   0  0  0  0  0  0  0  0  0  0  0  0
  139.7770   78.8610  223.0240 C   0  0  0  0  0  0  0  0  0  0  0  0
  139.6730   80.1720  223.4900 C   0  0  0  0  0  0  0  0  0  0  0  0
  140.8290   80.9250  223.6130 C   0  0  0  0  0  0  0  0  0  0  0  0
  142.0540   80.3770  223.2780 C   0  0  0  0  0  0  0  0  0  0  0  0
  142.1750   79.0740  222.8140 C   0  0  0  0  0  0  0  0  0  0  0  0
  141.0050   78.3310  222.6950 C   0  0  0  0  0  0  0  0  0  0  0  0
  141.0700   77.0660  222.2520 N   0  0  0  0  0  0  0  0  0  0  0  0
  138.8140   74.1400  223.0530 H   0  0  0  0  0  0  0  0  0  0  0  0
  138.8237   72.4042  220.9743 H   0  0  0  0  0  0  0  0  0  0  0  0
  140.5765   72.3578  221.7167 H   0  0  0  0  0  0  0  0  0  0  0  0
  137.1427   70.6763  221.0488 H   0  0  0  0  0  0  0  0  0  0  0  0
  136.6791   69.2934  222.0574 H   0  0  0  0  0  0  0  0  0  0  0  0
  135.6930   72.1915  222.1629 H   0  0  0  0  0  0  0  0  0  0  0  0
  134.7514   70.6874  222.3664 H   0  0  0  0  0  0  0  0  0  0  0  0
  136.5223   72.1350  224.3583 H   0  0  0  0  0  0  0  0  0  0  0  0
  134.8799   71.5203  224.5912 H   0  0  0  0  0  0  0  0  0  0  0  0
  136.2444   69.8420  225.6441 H   0  0  0  0  0  0  0  0  0  0  0  0
  135.9578   69.1412  224.0292 H   0  0  0  0  0  0  0  0  0  0  0  0
  138.4713   70.5355  225.0829 H   0  0  0  0  0  0  0  0  0  0  0  0
  137.5947   67.9338  224.4796 H   0  0  0  0  0  0  0  0  0  0  0  0
  138.8088   68.5317  223.1842 H   0  0  0  0  0  0  0  0  0  0  0  0
  138.9365   68.1482  226.8142 H   0  0  0  0  0  0  0  0  0  0  0  0
  140.7029   67.7954  226.2871 H   0  0  0  0  0  0  0  0  0  0  0  0
  141.5477   70.2424  225.0405 H   0  0  0  0  0  0  0  0  0  0  0  0
  142.1878   72.4550  225.9204 H   0  0  0  0  0  0  0  0  0  0  0  0
  141.2650   73.2594  228.0656 H   0  0  0  0  0  0  0  0  0  0  0  0
  139.6906   71.8204  229.3148 H   0  0  0  0  0  0  0  0  0  0  0  0
  139.0463   69.6070  228.4420 H   0  0  0  0  0  0  0  0  0  0  0  0
  137.8588   76.1246  222.3073 H   0  0  0  0  0  0  0  0  0  0  0  0
  137.6608   78.4875  223.1464 H   0  0  0  0  0  0  0  0  0  0  0  0
  138.6940   80.5984  223.7540 H   0  0  0  0  0  0  0  0  0  0  0  0
  140.7727   81.9612  223.9779 H   0  0  0  0  0  0  0  0  0  0  0  0
  142.9599   80.9922  223.3824 H   0  0  0  0  0  0  0  0  0  0  0  0
  143.1544   78.6474  222.5516 H   0  0  0  0  0  0  0  0  0  0  0  0
  1  2  2  0
  2  3  1  0
  3  4  1  0
  4  5  1  0
  5  6  2  0
  5  7  1  0
  7  8  1  0
  8  9  1  0
  9 10  1  0
 10 11  1  0
 11 12  1  0
 12 13  1  0
 13 14  1  0
 14 15  1  0
 15 16  1  0
 16 17  2  0
 17 18  1  0
 18 19  2  0
 19 20  1  0
 20 21  2  0
  2 22  1  0
 22 23  2  0
 23 24  1  0
 24 25  2  0
 25 26  1  0
 26 27  2  0
 27 28  1  0
 28 29  2  0
 29 30  1  0
 30 31  2  0
 12  7  1  0
 21 16  1  0
 31 22  1  0
 30 25  1  0
  3 32  1  0
  4 33  1  0
  4 34  1  0
  8 35  1  0
  8 36  1  0
  9 37  1  0
  9 38  1  0
 10 39  1  0
 10 40  1  0
 11 41  1  0
 11 42  1  0
 12 43  1  1
 13 44  1  0
 13 45  1  0
 15 46  1  0
 15 47  1  0
 17 48  1  0
 18 49  1  0
 19 50  1  0
 20 51  1  0
 21 52  1  0
 23 53  1  0
 24 54  1  0
 26 55  1  0
 27 56  1  0
 28 57  1  0
 29 58  1  0
M  END
>  <smiles>  (50) 
O=C(NCC(=O)N1CCCC[C@H]1COCc1ccccc1)c1ccc2ccccc2n1

>  <score_type>  (50) 
oracle

>  <origin>  (50) 
autodockgpu

>  <m_score__min__energy>  (50) 
-9.1799999999999997

>  <m_primary>  (50) 
energy

>  <rmsd>  (50) 
8.210462486475496

>  <m_score__min__rmsd>  (50) 
8.210462486475496

>  <meeko>  (50) 
{"free_energy": -9.08, "intermolecular_energy": -11.46, "internal_energy": -1.67, "cluster_size": 5, "cluster_id": 2, "rank_in_cluster": 1}

>  <energy>  (50) 
-7.11

>  <cluster_rmsd>  (50) 
0.0

>  <cluster>  (50) 
7

$$$$
