
     RDKit          3D

 65 70  0  0  0  0  0  0  0  0999 V2000
  140.1220   69.6840  227.6260 C   0  0  0  0  0  0  0  0  0  0  0  0
  140.7900   70.8970  227.5740 C   0  0  0  0  0  0  0  0  0  0  0  0
  141.0170   71.5340  226.3690 C   0  0  0  0  0  0  0  0  0  0  0  0
  140.5560   70.9190  225.2240 C   0  0  0  0  0  0  0  0  0  0  0  0
  139.8850   69.7120  225.2310 C   0  0  0  0  0  0  0  0  0  0  0  0
  139.6730   69.1020  226.4390 C   0  0  0  0  0  0  0  0  0  0  0  0
  139.4330   69.1400  223.9350 C   0  0  0  0  0  0  0  0  0  0  0  0
  138.6800   70.2240  223.1960 C   0  0  0  0  0  0  0  0  0  0  0  0
  139.4170   71.4560  223.2470 N   0  0  0  0  0  0  0  0  0  0  0  0
  138.8590   72.6440  222.6980 C   0  0  0  0  0  0  0  0  0  0  0  0
  137.5360   72.6650  222.3140 C   0  0  0  0  0  0  0  0  0  0  0  0
  136.9410   73.8120  221.7700 C   0  0  0  0  0  0  0  0  0  0  0  0
  135.5860   73.7870  221.3990 N   0  0  0  0  0  0  0  0  0  0  0  0
  134.4690   74.0030  222.2910 C   0  0  2  0  0  0  0  0  0  0  0  0
  134.2210   75.4800  222.5120 C   0  0  0  0  0  0  0  0  0  0  0  0
  133.9190   75.6800  223.9790 C   0  0  0  0  0  0  0  0  0  0  0  0
  135.1550   75.2680  224.7500 C   0  0  0  0  0  0  0  0  0  0  0  0
  135.4230   73.8630  224.5730 N   0  0  0  0  0  0  0  0  0  0  0  0
  134.5710   73.2490  223.5860 C   0  0  0  0  0  0  0  0  0  0  0  0
  137.7520   74.8750  221.6520 N   0  0  0  0  0  0  0  0  0  0  0  0
  139.0450   74.8950  222.0140 C   0  0  0  0  0  0  0  0  0  0  0  0
  139.8000   76.0880  221.8390 N   0  0  0  0  0  0  0  0  0  0  0  0
  141.1240   75.9930  221.2720 C   0  0  0  0  0  0  0  0  0  0  0  0
  141.6110   77.3210  220.7390 C   0  0  0  0  0  0  0  0  0  0  0  0
  141.5130   78.3650  221.8170 C   0  0  0  0  0  0  0  0  0  0  0  0
  142.5480   79.2470  222.0520 C   0  0  0  0  0  0  0  0  0  0  0  0
  142.3580   80.1750  223.0710 C   0  0  0  0  0  0  0  0  0  0  0  0
  141.1930   80.2030  223.8020 C   0  0  0  0  0  0  0  0  0  0  0  0
  140.1770   79.3080  223.5450 C   0  0  0  0  0  0  0  0  0  0  0  0
  140.3350   78.3710  222.5350 C   0  0  0  0  0  0  0  0  0  0  0  0
  139.2590   77.3780  222.2180 C   0  0  0  0  0  0  0  0  0  0  0  0
  139.5740   73.7710  222.5320 N   0  0  0  0  0  0  0  0  0  0  0  0
  140.7520   71.5360  223.8610 C   0  0  0  0  0  0  0  0  0  0  0  0
  139.9476   69.1856  228.5910 H   0  0  0  0  0  0  0  0  0  0  0  0
  141.1451   71.3600  228.5065 H   0  0  0  0  0  0  0  0  0  0  0  0
  141.5465   72.4972  226.3246 H   0  0  0  0  0  0  0  0  0  0  0  0
  139.1413   68.1397  226.4744 H   0  0  0  0  0  0  0  0  0  0  0  0
  140.3025   68.8171  223.3436 H   0  0  0  0  0  0  0  0  0  0  0  0
  138.7871   68.2655  224.1023 H   0  0  0  0  0  0  0  0  0  0  0  0
  138.5452   69.9233  222.1465 H   0  0  0  0  0  0  0  0  0  0  0  0
  137.6987   70.3702  223.6711 H   0  0  0  0  0  0  0  0  0  0  0  0
  136.9292   71.7559  222.4378 H   0  0  0  0  0  0  0  0  0  0  0  0
  135.3490   73.5960  220.3890 H   0  0  0  0  0  0  0  0  0  0  0  0
  133.5893   73.5816  221.7825 H   0  0  0  0  0  0  0  0  0  0  0  0
  135.1150   76.0562  222.2315 H   0  0  0  0  0  0  0  0  0  0  0  0
  133.3792   75.8262  221.8944 H   0  0  0  0  0  0  0  0  0  0  0  0
  133.6871   76.7372  224.1755 H   0  0  0  0  0  0  0  0  0  0  0  0
  133.0496   75.0793  224.2844 H   0  0  0  0  0  0  0  0  0  0  0  0
  136.0164   75.8481  224.3874 H   0  0  0  0  0  0  0  0  0  0  0  0
  134.9853   75.4630  225.8192 H   0  0  0  0  0  0  0  0  0  0  0  0
  136.4290   73.6410  224.4430 H   0  0  0  0  0  0  0  0  0  0  0  0
  134.9659   72.2456  223.3685 H   0  0  0  0  0  0  0  0  0  0  0  0
  133.5588   73.2308  224.0163 H   0  0  0  0  0  0  0  0  0  0  0  0
  141.8194   75.6469  222.0509 H   0  0  0  0  0  0  0  0  0  0  0  0
  141.0823   75.2852  220.4310 H   0  0  0  0  0  0  0  0  0  0  0  0
  142.6585   77.2243  220.4174 H   0  0  0  0  0  0  0  0  0  0  0  0
  140.9887   77.6209  219.8830 H   0  0  0  0  0  0  0  0  0  0  0  0
  143.4767   79.2178  221.4632 H   0  0  0  0  0  0  0  0  0  0  0  0
  143.1542   80.8998  223.2963 H   0  0  0  0  0  0  0  0  0  0  0  0
  141.0709   80.9488  224.6013 H   0  0  0  0  0  0  0  0  0  0  0  0
  139.2494   79.3366  224.1355 H   0  0  0  0  0  0  0  0  0  0  0  0
  138.6233   77.2486  223.1063 H   0  0  0  0  0  0  0  0  0  0  0  0
  138.6814   77.7659  221.3660 H   0  0  0  0  0  0  0  0  0  0  0  0
  141.4882   70.9665  223.2747 H   0  0  0  0  0  0  0  0  0  0  0  0
  141.1378   72.5650  223.9102 H   0  0  0  0  0  0  0  0  0  0  0  0
  1  2  2  0
  2  3  1  0
  3  4  2  0
  4  5  1  0
  5  6  2  0
  5  7  1  0
  7  8  1  0
  8  9  1  0
  9 10  1  0
 10 11  2  0
 11 12  1  0
 12 13  1  0
 13 14  1  0
 14 15  1  0
 15 16  1  0
 16 17  1  0
 17 18  1  0
 18 19  1  0
 12 20  2  0
 20 21  1  0
 21 22  1  0
 22 23  1  0
 23 24  1  0
 24 25  1  0
 25 26  2  0
 26 27  1  0
 27 28  2  0
 28 29  1  0
 29 30  2  0
 30 31  1  0
 21 32  2  0
  9 33  1  0
  6  1  1  0
 32 10  1  0
 33  4  1  0
 19 14  1  0
 31 22  1  0
 30 25  1  0
  1 34  1  0
  2 35  1  0
  3 36  1  0
  6 37  1  0
  7 38  1  0
  7 39  1  0
  8 40  1  0
  8 41  1  0
 11 42  1  0
 13 43  1  0
 14 44  1  6
 15 45  1  0
 15 46  1  0
 16 47  1  0
 16 48  1  0
 17 49  1  0
 17 50  1  0
 18 51  1  0
 19 52  1  0
 19 53  1  0
 23 54  1  0
 23 55  1  0
 24 56  1  0
 24 57  1  0
 26 58  1  0
 27 59  1  0
 28 60  1  0
 29 61  1  0
 31 62  1  0
 31 63  1  0
 33 64  1  0
 33 65  1  0
M  END
>  <smiles>  (1) 
c1ccc2c(c1)CCN(c1cc(NC3CCCNC3)nc(N3CCc4ccccc4C3)n1)C2

>  <score_type>  (1) 
oracle

>  <origin>  (1) 
autodockgpu

>  <m_score__min__energy>  (1) 
-9.3200000000000003

>  <m_primary>  (1) 
energy

>  <rmsd>  (1) 
7.785540646322447

>  <m_score__min__rmsd>  (1) 
7.785540646322447

>  <meeko>  (1) 
{"free_energy": -9.21, "intermolecular_energy": -10.41, "internal_energy": -1.34, "cluster_size": 26, "cluster_id": 2, "rank_in_cluster": 1}

>  <energy>  (1) 
-9.32

>  <cluster_rmsd>  (1) 
0.0

>  <cluster>  (1) 
1

$$$$

     RDKit          3D

 65 70  0  0  0  0  0  0  0  0999 V2000
  141.9410   80.5140  222.2590 C   0  0  0  0  0  0  0  0  0  0  0  0
  142.1190   79.7670  223.4140 C   0  0  0  0  0  0  0  0  0  0  0  0
  141.4620   78.5650  223.5920 C   0  0  0  0  0  0  0  0  0  0  0  0
  140.6270   78.1360  222.5820 C   0  0  0  0  0  0  0  0  0  0  0  0
  140.4220   78.8480  221.4160 C   0  0  0  0  0  0  0  0  0  0  0  0
  141.0850   80.0370  221.2640 C   0  0  0  0  0  0  0  0  0  0  0  0
  139.4980   78.2900  220.3930 C   0  0  0  0  0  0  0  0  0  0  0  0
  139.9080   76.8570  220.1400 C   0  0  0  0  0  0  0  0  0  0  0  0
  140.1280   76.1820  221.3880 N   0  0  0  0  0  0  0  0  0  0  0  0
  140.6140   74.8440  221.4000 C   0  0  0  0  0  0  0  0  0  0  0  0
  141.5320   74.4410  220.4550 C   0  0  0  0  0  0  0  0  0  0  0  0
  142.0410   73.1350  220.4270 C   0  0  0  0  0  0  0  0  0  0  0  0
  142.9810   72.7720  219.4480 N   0  0  0  0  0  0  0  0  0  0  0  0
  144.2230   72.0750  219.6950 C   0  0  2  0  0  0  0  0  0  0  0  0
  144.8260   72.4860  221.0220 C   0  0  0  0  0  0  0  0  0  0  0  0
  146.3150   72.6440  220.8190 C   0  0  0  0  0  0  0  0  0  0  0  0
  146.5150   73.7640  219.8210 C   0  0  0  0  0  0  0  0  0  0  0  0
  145.9600   73.4100  218.5380 N   0  0  0  0  0  0  0  0  0  0  0  0
  145.2120   72.1780  218.5700 C   0  0  0  0  0  0  0  0  0  0  0  0
  141.5680   72.3170  221.3800 N   0  0  0  0  0  0  0  0  0  0  0  0
  140.6740   72.6710  222.3180 C   0  0  0  0  0  0  0  0  0  0  0  0
  140.2510   71.7090  223.2770 N   0  0  0  0  0  0  0  0  0  0  0  0
  138.8660   71.3020  223.2860 C   0  0  0  0  0  0  0  0  0  0  0  0
  138.6630   69.9950  224.0180 C   0  0  0  0  0  0  0  0  0  0  0  0
  139.2490   70.0920  225.3990 C   0  0  0  0  0  0  0  0  0  0  0  0
  138.5590   69.6310  226.5010 C   0  0  0  0  0  0  0  0  0  0  0  0
  139.1900   69.7670  227.7340 C   0  0  0  0  0  0  0  0  0  0  0  0
  140.4390   70.3340  227.8380 C   0  0  0  0  0  0  0  0  0  0  0  0
  141.1040   70.7870  226.7180 C   0  0  0  0  0  0  0  0  0  0  0  0
  140.5020   70.6650  225.4750 C   0  0  0  0  0  0  0  0  0  0  0  0
  141.1850   71.1420  224.2290 C   0  0  0  0  0  0  0  0  0  0  0  0
  140.2120   73.9350  222.3070 N   0  0  0  0  0  0  0  0  0  0  0  0
  139.8680   76.8360  222.6810 C   0  0  0  0  0  0  0  0  0  0  0  0
  142.4678   81.4708  222.1283 H   0  0  0  0  0  0  0  0  0  0  0  0
  142.7935   80.1373  224.2001 H   0  0  0  0  0  0  0  0  0  0  0  0
  141.6001   77.9709  224.5074 H   0  0  0  0  0  0  0  0  0  0  0  0
  140.9411   80.6244  220.3452 H   0  0  0  0  0  0  0  0  0  0  0  0
  138.4630   78.3241  220.7639 H   0  0  0  0  0  0  0  0  0  0  0  0
  139.5504   78.8767  219.4640 H   0  0  0  0  0  0  0  0  0  0  0  0
  139.1108   76.3428  219.5832 H   0  0  0  0  0  0  0  0  0  0  0  0
  140.8389   76.8456  219.5541 H   0  0  0  0  0  0  0  0  0  0  0  0
  141.8754   75.1646  219.7010 H   0  0  0  0  0  0  0  0  0  0  0  0
  142.7770   73.0240  218.4440 H   0  0  0  0  0  0  0  0  0  0  0  0
  143.9663   71.0069  219.7521 H   0  0  0  0  0  0  0  0  0  0  0  0
  144.3894   73.4399  221.3528 H   0  0  0  0  0  0  0  0  0  0  0  0
  144.6198   71.7271  221.7912 H   0  0  0  0  0  0  0  0  0  0  0  0
  146.8004   72.8982  221.7728 H   0  0  0  0  0  0  0  0  0  0  0  0
  146.7599   71.7082  220.4497 H   0  0  0  0  0  0  0  0  0  0  0  0
  146.0161   74.6714  220.1921 H   0  0  0  0  0  0  0  0  0  0  0  0
  147.5939   73.9425  219.7020 H   0  0  0  0  0  0  0  0  0  0  0  0
  145.4520   74.1870  218.0720 H   0  0  0  0  0  0  0  0  0  0  0  0
  144.6630   72.0854  217.6213 H   0  0  0  0  0  0  0  0  0  0  0  0
  145.9451   71.3727  218.7254 H   0  0  0  0  0  0  0  0  0  0  0  0
  138.2700   72.0825  223.7815 H   0  0  0  0  0  0  0  0  0  0  0  0
  138.5477   71.1594  222.2428 H   0  0  0  0  0  0  0  0  0  0  0  0
  137.5866   69.7804  224.0917 H   0  0  0  0  0  0  0  0  0  0  0  0
  139.1637   69.1862  223.4656 H   0  0  0  0  0  0  0  0  0  0  0  0
  137.5604   69.1787  226.4098 H   0  0  0  0  0  0  0  0  0  0  0  0
  138.6802   69.4144  228.6427 H   0  0  0  0  0  0  0  0  0  0  0  0
  140.9130   70.4272  228.8263 H   0  0  0  0  0  0  0  0  0  0  0  0
  142.1019   71.2405  226.8099 H   0  0  0  0  0  0  0  0  0  0  0  0
  141.9236   71.9103  224.5016 H   0  0  0  0  0  0  0  0  0  0  0  0
  141.6671   70.2746  223.7543 H   0  0  0  0  0  0  0  0  0  0  0  0
  138.7921   77.0192  222.8188 H   0  0  0  0  0  0  0  0  0  0  0  0
  140.1808   76.2235  223.5395 H   0  0  0  0  0  0  0  0  0  0  0  0
  1  2  2  0
  2  3  1  0
  3  4  2  0
  4  5  1  0
  5  6  2  0
  5  7  1  0
  7  8  1  0
  8  9  1  0
  9 10  1  0
 10 11  2  0
 11 12  1  0
 12 13  1  0
 13 14  1  0
 14 15  1  0
 15 16  1  0
 16 17  1  0
 17 18  1  0
 18 19  1  0
 12 20  2  0
 20 21  1  0
 21 22  1  0
 22 23  1  0
 23 24  1  0
 24 25  1  0
 25 26  2  0
 26 27  1  0
 27 28  2  0
 28 29  1  0
 29 30  2  0
 30 31  1  0
 21 32  2  0
  9 33  1  0
  6  1  1  0
 32 10  1  0
 33  4  1  0
 19 14  1  0
 31 22  1  0
 30 25  1  0
  1 34  1  0
  2 35  1  0
  3 36  1  0
  6 37  1  0
  7 38  1  0
  7 39  1  0
  8 40  1  0
  8 41  1  0
 11 42  1  0
 13 43  1  0
 14 44  1  1
 15 45  1  0
 15 46  1  0
 16 47  1  0
 16 48  1  0
 17 49  1  0
 17 50  1  0
 18 51  1  0
 19 52  1  0
 19 53  1  0
 23 54  1  0
 23 55  1  0
 24 56  1  0
 24 57  1  0
 26 58  1  0
 27 59  1  0
 28 60  1  0
 29 61  1  0
 31 62  1  0
 31 63  1  0
 33 64  1  0
 33 65  1  0
M  END
>  <smiles>  (2) 
c1ccc2c(c1)CCN(c1cc(NC3CCCNC3)nc(N3CCc4ccccc4C3)n1)C2

>  <score_type>  (2) 
oracle

>  <origin>  (2) 
autodockgpu

>  <m_score__min__energy>  (2) 
-9.3200000000000003

>  <m_primary>  (2) 
energy

>  <rmsd>  (2) 
6.615026930128994

>  <m_score__min__rmsd>  (2) 
6.615026930128994

>  <meeko>  (2) 
{"free_energy": -9.3, "intermolecular_energy": -10.5, "internal_energy": -1.11, "cluster_size": 12, "cluster_id": 1, "rank_in_cluster": 2}

>  <energy>  (2) 
-9.3

>  <cluster_rmsd>  (2) 
1.09

>  <cluster>  (2) 
1

$$$$

     RDKit          3D

 65 70  0  0  0  0  0  0  0  0999 V2000
  138.8150   67.3590  223.4260 C   0  0  0  0  0  0  0  0  0  0  0  0
  138.2750   67.7930  222.2240 C   0  0  0  0  0  0  0  0  0  0  0  0
  138.1360   69.1400  221.9520 C   0  0  0  0  0  0  0  0  0  0  0  0
  138.5550   70.0340  222.9150 C   0  0  0  0  0  0  0  0  0  0  0  0
  139.0980   69.6450  224.1240 C   0  0  0  0  0  0  0  0  0  0  0  0
  139.2240   68.3030  224.3690 C   0  0  0  0  0  0  0  0  0  0  0  0
  139.5140   70.6950  225.0890 C   0  0  0  0  0  0  0  0  0  0  0  0
  140.3870   71.6800  224.3440 C   0  0  0  0  0  0  0  0  0  0  0  0
  139.7790   72.0250  223.0900 N   0  0  0  0  0  0  0  0  0  0  0  0
  140.4650   72.8680  222.1720 C   0  0  0  0  0  0  0  0  0  0  0  0
  141.1920   72.3110  221.1420 C   0  0  0  0  0  0  0  0  0  0  0  0
  141.8830   73.1000  220.2130 C   0  0  0  0  0  0  0  0  0  0  0  0
  142.6060   72.4870  219.1750 N   0  0  0  0  0  0  0  0  0  0  0  0
  144.0050   72.7060  218.8840 C   0  0  2  0  0  0  0  0  0  0  0  0
  144.8880   71.8310  219.7500 C   0  0  0  0  0  0  0  0  0  0  0  0
  146.0580   72.6710  220.2060 C   0  0  0  0  0  0  0  0  0  0  0  0
  145.4990   73.7950  221.0530 C   0  0  0  0  0  0  0  0  0  0  0  0
  144.6560   74.6590  220.2640 N   0  0  0  0  0  0  0  0  0  0  0  0
  144.4170   74.1490  218.9370 C   0  0  0  0  0  0  0  0  0  0  0  0
  141.7830   74.4250  220.4020 N   0  0  0  0  0  0  0  0  0  0  0  0
  141.0860   75.0070  221.3920 C   0  0  0  0  0  0  0  0  0  0  0  0
  141.0580   76.4260  221.4840 N   0  0  0  0  0  0  0  0  0  0  0  0
  141.3900   77.2030  220.3140 C   0  0  0  0  0  0  0  0  0  0  0  0
  140.8950   78.6280  220.4190 C   0  0  0  0  0  0  0  0  0  0  0  0
  141.4010   79.2480  221.6920 C   0  0  0  0  0  0  0  0  0  0  0  0
  141.9340   80.5200  221.7030 C   0  0  0  0  0  0  0  0  0  0  0  0
  142.3730   81.0020  222.9320 C   0  0  0  0  0  0  0  0  0  0  0  0
  142.2780   80.2400  224.0730 C   0  0  0  0  0  0  0  0  0  0  0  0
  141.7410   78.9700  224.0300 C   0  0  0  0  0  0  0  0  0  0  0  0
  141.2940   78.4620  222.8210 C   0  0  0  0  0  0  0  0  0  0  0  0
  140.7020   77.0880  222.7240 C   0  0  0  0  0  0  0  0  0  0  0  0
  140.4380   74.2100  222.2620 N   0  0  0  0  0  0  0  0  0  0  0  0
  138.4470   71.5250  222.7100 C   0  0  0  0  0  0  0  0  0  0  0  0
  138.9195   66.2838  223.6333 H   0  0  0  0  0  0  0  0  0  0  0  0
  137.9527   67.0533  221.4764 H   0  0  0  0  0  0  0  0  0  0  0  0
  137.7063   69.4875  221.0009 H   0  0  0  0  0  0  0  0  0  0  0  0
  139.6539   67.9645  225.3232 H   0  0  0  0  0  0  0  0  0  0  0  0
  138.6276   71.2081  225.4904 H   0  0  0  0  0  0  0  0  0  0  0  0
  140.0648   70.2500  225.9308 H   0  0  0  0  0  0  0  0  0  0  0  0
  140.5105   72.5889  224.9511 H   0  0  0  0  0  0  0  0  0  0  0  0
  141.3687   71.2211  224.1550 H   0  0  0  0  0  0  0  0  0  0  0  0
  141.2308   71.2158  221.0466 H   0  0  0  0  0  0  0  0  0  0  0  0
  142.0970   71.8080  218.5480 H   0  0  0  0  0  0  0  0  0  0  0  0
  144.1484   72.4052  217.8357 H   0  0  0  0  0  0  0  0  0  0  0  0
  144.3212   71.4727  220.6220 H   0  0  0  0  0  0  0  0  0  0  0  0
  145.2387   70.9558  219.1835 H   0  0  0  0  0  0  0  0  0  0  0  0
  146.7517   72.0594  220.8016 H   0  0  0  0  0  0  0  0  0  0  0  0
  146.6118   73.0702  219.3435 H   0  0  0  0  0  0  0  0  0  0  0  0
  144.9075   73.3670  221.8757 H   0  0  0  0  0  0  0  0  0  0  0  0
  146.3363   74.3867  221.4515 H   0  0  0  0  0  0  0  0  0  0  0  0
  143.7900   74.9580  220.7520 H   0  0  0  0  0  0  0  0  0  0  0  0
  143.6187   74.7503  218.4775 H   0  0  0  0  0  0  0  0  0  0  0  0
  145.3747   74.2185  218.4004 H   0  0  0  0  0  0  0  0  0  0  0  0
  142.4834   77.2151  220.1946 H   0  0  0  0  0  0  0  0  0  0  0  0
  140.8993   76.7367  219.4469 H   0  0  0  0  0  0  0  0  0  0  0  0
  141.2626   79.2070  219.5590 H   0  0  0  0  0  0  0  0  0  0  0  0
  139.7950   78.6320  220.4241 H   0  0  0  0  0  0  0  0  0  0  0  0
  142.0083   81.1231  220.7861 H   0  0  0  0  0  0  0  0  0  0  0  0
  142.8044   82.0121  222.9923 H   0  0  0  0  0  0  0  0  0  0  0  0
  142.6342   80.6477  225.0305 H   0  0  0  0  0  0  0  0  0  0  0  0
  141.6684   78.3665  224.9468 H   0  0  0  0  0  0  0  0  0  0  0  0
  141.0690   76.4836  223.5666 H   0  0  0  0  0  0  0  0  0  0  0  0
  139.6070   77.1887  222.7515 H   0  0  0  0  0  0  0  0  0  0  0  0
  137.6673   71.9547  223.3562 H   0  0  0  0  0  0  0  0  0  0  0  0
  138.1668   71.7955  221.6813 H   0  0  0  0  0  0  0  0  0  0  0  0
  1  2  2  0
  2  3  1  0
  3  4  2  0
  4  5  1  0
  5  6  2  0
  5  7  1  0
  7  8  1  0
  8  9  1  0
  9 10  1  0
 10 11  2  0
 11 12  1  0
 12 13  1  0
 13 14  1  0
 14 15  1  0
 15 16  1  0
 16 17  1  0
 17 18  1  0
 18 19  1  0
 12 20  2  0
 20 21  1  0
 21 22  1  0
 22 23  1  0
 23 24  1  0
 24 25  1  0
 25 26  2  0
 26 27  1  0
 27 28  2  0
 28 29  1  0
 29 30  2  0
 30 31  1  0
 21 32  2  0
  9 33  1  0
  6  1  1  0
 32 10  1  0
 33  4  1  0
 19 14  1  0
 31 22  1  0
 30 25  1  0
  1 34  1  0
  2 35  1  0
  3 36  1  0
  6 37  1  0
  7 38  1  0
  7 39  1  0
  8 40  1  0
  8 41  1  0
 11 42  1  0
 13 43  1  0
 14 44  1  6
 15 45  1  0
 15 46  1  0
 16 47  1  0
 16 48  1  0
 17 49  1  0
 17 50  1  0
 18 51  1  0
 19 52  1  0
 19 53  1  0
 23 54  1  0
 23 55  1  0
 24 56  1  0
 24 57  1  0
 26 58  1  0
 27 59  1  0
 28 60  1  0
 29 61  1  0
 31 62  1  0
 31 63  1  0
 33 64  1  0
 33 65  1  0
M  END
>  <smiles>  (3) 
c1ccc2c(c1)CCN(c1cc(NC3CCCNC3)nc(N3CCc4ccccc4C3)n1)C2

>  <score_type>  (3) 
oracle

>  <origin>  (3) 
autodockgpu

>  <m_score__min__energy>  (3) 
-9.3200000000000003

>  <m_primary>  (3) 
energy

>  <rmsd>  (3) 
6.4995602474865635

>  <m_score__min__rmsd>  (3) 
6.4995602474865635

>  <meeko>  (3) 
{"free_energy": -8.78, "intermolecular_energy": -9.97, "internal_energy": -1.92, "cluster_size": 12, "cluster_id": 1, "rank_in_cluster": 5}

>  <energy>  (3) 
-9.12

>  <cluster_rmsd>  (3) 
1.97

>  <cluster>  (3) 
1

$$$$

     RDKit          3D

 65 70  0  0  0  0  0  0  0  0999 V2000
  143.2330   76.6110  217.0120 C   0  0  0  0  0  0  0  0  0  0  0  0
  143.4500   75.2530  217.1840 C   0  0  0  0  0  0  0  0  0  0  0  0
  143.2060   74.6410  218.3980 C   0  0  0  0  0  0  0  0  0  0  0  0
  142.7370   75.4280  219.4290 C   0  0  0  0  0  0  0  0  0  0  0  0
  142.5070   76.7840  219.3000 C   0  0  0  0  0  0  0  0  0  0  0  0
  142.7580   77.3660  218.0860 C   0  0  0  0  0  0  0  0  0  0  0  0
  142.0020   77.5360  220.4790 C   0  0  0  0  0  0  0  0  0  0  0  0
  140.8050   76.7870  221.0210 C   0  0  0  0  0  0  0  0  0  0  0  0
  141.1020   75.3840  221.1060 N   0  0  0  0  0  0  0  0  0  0  0  0
  140.0910   74.4640  221.5020 C   0  0  0  0  0  0  0  0  0  0  0  0
  138.8160   74.5870  220.9940 C   0  0  0  0  0  0  0  0  0  0  0  0
  137.7880   73.7050  221.3530 C   0  0  0  0  0  0  0  0  0  0  0  0
  136.5040   73.8670  220.8030 N   0  0  0  0  0  0  0  0  0  0  0  0
  135.3270   74.2840  221.5310 C   0  0  2  0  0  0  0  0  0  0  0  0
  135.3820   75.7610  221.8610 C   0  0  0  0  0  0  0  0  0  0  0  0
  134.8840   75.9330  223.2770 C   0  0  0  0  0  0  0  0  0  0  0  0
  135.8450   75.1910  224.1820 C   0  0  0  0  0  0  0  0  0  0  0  0
  135.8180   73.7760  223.9060 N   0  0  0  0  0  0  0  0  0  0  0  0
  135.0340   73.4460  222.7420 C   0  0  0  0  0  0  0  0  0  0  0  0
  138.1380   72.7420  222.2200 N   0  0  0  0  0  0  0  0  0  0  0  0
  139.3670   72.5890  222.7380 C   0  0  0  0  0  0  0  0  0  0  0  0
  139.6120   71.5240  223.6500 N   0  0  0  0  0  0  0  0  0  0  0  0
  138.6890   70.4160  223.6840 C   0  0  0  0  0  0  0  0  0  0  0  0
  139.2920   69.1940  224.3410 C   0  0  0  0  0  0  0  0  0  0  0  0
  139.8140   69.5580  225.7030 C   0  0  0  0  0  0  0  0  0  0  0  0
  139.5680   68.7570  226.7990 C   0  0  0  0  0  0  0  0  0  0  0  0
  140.0960   69.1820  228.0140 C   0  0  0  0  0  0  0  0  0  0  0  0
  140.8250   70.3450  228.1080 C   0  0  0  0  0  0  0  0  0  0  0  0
  141.0530   71.1260  226.9940 C   0  0  0  0  0  0  0  0  0  0  0  0
  140.5410   70.7290  225.7690 C   0  0  0  0  0  0  0  0  0  0  0  0
  140.7630   71.5440  224.5310 C   0  0  0  0  0  0  0  0  0  0  0  0
  140.3230   73.4590  222.3660 N   0  0  0  0  0  0  0  0  0  0  0  0
  142.4380   74.8530  220.7900 C   0  0  0  0  0  0  0  0  0  0  0  0
  143.4326   77.0881  216.0412 H   0  0  0  0  0  0  0  0  0  0  0  0
  143.8224   74.6531  216.3405 H   0  0  0  0  0  0  0  0  0  0  0  0
  143.3796   73.5638  218.5376 H   0  0  0  0  0  0  0  0  0  0  0  0
  142.5828   78.4440  217.9552 H   0  0  0  0  0  0  0  0  0  0  0  0
  142.7857   77.5976  221.2484 H   0  0  0  0  0  0  0  0  0  0  0  0
  141.7196   78.5597  220.1921 H   0  0  0  0  0  0  0  0  0  0  0  0
  140.5591   77.1689  222.0229 H   0  0  0  0  0  0  0  0  0  0  0  0
  139.9495   76.9352  220.3456 H   0  0  0  0  0  0  0  0  0  0  0  0
  138.5990   75.4008  220.2865 H   0  0  0  0  0  0  0  0  0  0  0  0
  136.3750   73.6690  219.7750 H   0  0  0  0  0  0  0  0  0  0  0  0
  134.4757   74.1168  220.8547 H   0  0  0  0  0  0  0  0  0  0  0  0
  136.4170   76.1247  221.7809 H   0  0  0  0  0  0  0  0  0  0  0  0
  134.7589   76.3362  221.1604 H   0  0  0  0  0  0  0  0  0  0  0  0
  134.8639   77.0003  223.5425 H   0  0  0  0  0  0  0  0  0  0  0  0
  133.8630   75.5375  223.3829 H   0  0  0  0  0  0  0  0  0  0  0  0
  136.8636   75.5716  224.0161 H   0  0  0  0  0  0  0  0  0  0  0  0
  135.5418   75.3526  225.2270 H   0  0  0  0  0  0  0  0  0  0  0  0
  136.7560   73.3310  223.9090 H   0  0  0  0  0  0  0  0  0  0  0  0
  135.2271   72.3938  222.4857 H   0  0  0  0  0  0  0  0  0  0  0  0
  133.9846   73.6405  223.0084 H   0  0  0  0  0  0  0  0  0  0  0  0
  137.7940   70.7170  224.2482 H   0  0  0  0  0  0  0  0  0  0  0  0
  138.4364   70.1531  222.6462 H   0  0  0  0  0  0  0  0  0  0  0  0
  138.5221   68.4147  224.4405 H   0  0  0  0  0  0  0  0  0  0  0  0
  140.1197   68.8179  223.7217 H   0  0  0  0  0  0  0  0  0  0  0  0
  138.9836   67.8287  226.7164 H   0  0  0  0  0  0  0  0  0  0  0  0
  139.9274   68.5766  228.9168 H   0  0  0  0  0  0  0  0  0  0  0  0
  141.2305   70.6555  229.0822 H   0  0  0  0  0  0  0  0  0  0  0  0
  141.6358   72.0552  227.0773 H   0  0  0  0  0  0  0  0  0  0  0  0
  140.9675   72.5845  224.8235 H   0  0  0  0  0  0  0  0  0  0  0  0
  141.6133   71.1074  223.9866 H   0  0  0  0  0  0  0  0  0  0  0  0
  143.1792   75.1897  221.5298 H   0  0  0  0  0  0  0  0  0  0  0  0
  142.4752   73.7537  220.8064 H   0  0  0  0  0  0  0  0  0  0  0  0
  1  2  2  0
  2  3  1  0
  3  4  2  0
  4  5  1  0
  5  6  2  0
  5  7  1  0
  7  8  1  0
  8  9  1  0
  9 10  1  0
 10 11  2  0
 11 12  1  0
 12 13  1  0
 13 14  1  0
 14 15  1  0
 15 16  1  0
 16 17  1  0
 17 18  1  0
 18 19  1  0
 12 20  2  0
 20 21  1  0
 21 22  1  0
 22 23  1  0
 23 24  1  0
 24 25  1  0
 25 26  2  0
 26 27  1  0
 27 28  2  0
 28 29  1  0
 29 30  2  0
 30 31  1  0
 21 32  2  0
  9 33  1  0
  6  1  1  0
 32 10  1  0
 33  4  1  0
 19 14  1  0
 31 22  1  0
 30 25  1  0
  1 34  1  0
  2 35  1  0
  3 36  1  0
  6 37  1  0
  7 38  1  0
  7 39  1  0
  8 40  1  0
  8 41  1  0
 11 42  1  0
 13 43  1  0
 14 44  1  6
 15 45  1  0
 15 46  1  0
 16 47  1  0
 16 48  1  0
 17 49  1  0
 17 50  1  0
 18 51  1  0
 19 52  1  0
 19 53  1  0
 23 54  1  0
 23 55  1  0
 24 56  1  0
 24 57  1  0
 26 58  1  0
 27 59  1  0
 28 60  1  0
 29 61  1  0
 31 62  1  0
 31 63  1  0
 33 64  1  0
 33 65  1  0
M  END
>  <smiles>  (4) 
c1ccc2c(c1)CCN(c1cc(NC3CCCNC3)nc(N3CCc4ccccc4C3)n1)C2

>  <score_type>  (4) 
oracle

>  <origin>  (4) 
autodockgpu

>  <m_score__min__energy>  (4) 
-9.3200000000000003

>  <m_primary>  (4) 
energy

>  <rmsd>  (4) 
6.6320073149753505

>  <m_score__min__rmsd>  (4) 
6.6320073149753505

>  <meeko>  (4) 
{"free_energy": -8.48, "intermolecular_energy": -9.67, "internal_energy": -1.87, "cluster_size": 5, "cluster_id": 3, "rank_in_cluster": 3}

>  <energy>  (4) 
-8.87

>  <cluster_rmsd>  (4) 
1.66

>  <cluster>  (4) 
1

$$$$

     RDKit          3D

 65 70  0  0  0  0  0  0  0  0999 V2000
  138.7750   67.4330  223.3610 C   0  0  0  0  0  0  0  0  0  0  0  0
  138.2100   67.8890  222.1800 C   0  0  0  0  0  0  0  0  0  0  0  0
  138.0850   69.2420  221.9270 C   0  0  0  0  0  0  0  0  0  0  0  0
  138.5430   70.1180  222.8890 C   0  0  0  0  0  0  0  0  0  0  0  0
  139.1120   69.7060  224.0780 C   0  0  0  0  0  0  0  0  0  0  0  0
  139.2240   68.3590  224.3040 C   0  0  0  0  0  0  0  0  0  0  0  0
  139.5700   70.7380  225.0440 C   0  0  0  0  0  0  0  0  0  0  0  0
  140.4380   71.7190  224.2880 C   0  0  0  0  0  0  0  0  0  0  0  0
  139.8020   72.0870  223.0540 N   0  0  0  0  0  0  0  0  0  0  0  0
  140.4770   72.9310  222.1280 C   0  0  0  0  0  0  0  0  0  0  0  0
  141.1600   72.3760  221.0680 C   0  0  0  0  0  0  0  0  0  0  0  0
  141.8380   73.1660  220.1290 C   0  0  0  0  0  0  0  0  0  0  0  0
  142.5160   72.5540  219.0610 N   0  0  0  0  0  0  0  0  0  0  0  0
  143.9330   72.6630  218.7950 C   0  0  2  0  0  0  0  0  0  0  0  0
  144.7310   71.7460  219.6980 C   0  0  0  0  0  0  0  0  0  0  0  0
  145.9520   72.5080  220.1610 C   0  0  0  0  0  0  0  0  0  0  0  0
  145.4620   73.6900  220.9700 C   0  0  0  0  0  0  0  0  0  0  0  0
  144.7010   74.5940  220.1440 N   0  0  0  0  0  0  0  0  0  0  0  0
  144.4500   74.0730  218.8240 C   0  0  0  0  0  0  0  0  0  0  0  0
  141.7710   74.4890  220.3420 N   0  0  0  0  0  0  0  0  0  0  0  0
  141.1170   75.0690  221.3610 C   0  0  0  0  0  0  0  0  0  0  0  0
  141.1200   76.4870  221.4760 N   0  0  0  0  0  0  0  0  0  0  0  0
  141.5200   77.2730  220.3330 C   0  0  0  0  0  0  0  0  0  0  0  0
  141.0560   78.7090  220.4410 C   0  0  0  0  0  0  0  0  0  0  0  0
  141.5250   79.2950  221.7430 C   0  0  0  0  0  0  0  0  0  0  0  0
  142.0880   80.5530  221.7970 C   0  0  0  0  0  0  0  0  0  0  0  0
  142.4890   81.0050  223.0500 C   0  0  0  0  0  0  0  0  0  0  0  0
  142.3270   80.2280  224.1740 C   0  0  0  0  0  0  0  0  0  0  0  0
  141.7610   78.9730  224.0890 C   0  0  0  0  0  0  0  0  0  0  0  0
  141.3520   78.4950  222.8540 C   0  0  0  0  0  0  0  0  0  0  0  0
  140.7310   77.1380  222.7110 C   0  0  0  0  0  0  0  0  0  0  0  0
  140.4800   74.2720  222.2390 N   0  0  0  0  0  0  0  0  0  0  0  0
  138.4530   71.6120  222.7040 C   0  0  0  0  0  0  0  0  0  0  0  0
  138.8684   66.3539  223.5527 H   0  0  0  0  0  0  0  0  0  0  0  0
  137.8559   67.1632  221.4331 H   0  0  0  0  0  0  0  0  0  0  0  0
  137.6362   69.6073  220.9915 H   0  0  0  0  0  0  0  0  0  0  0  0
  139.6743   68.0024  225.2421 H   0  0  0  0  0  0  0  0  0  0  0  0
  138.7027   71.2594  225.4751 H   0  0  0  0  0  0  0  0  0  0  0  0
  140.1363   70.2742  225.8651 H   0  0  0  0  0  0  0  0  0  0  0  0
  140.5905   72.6189  224.9019 H   0  0  0  0  0  0  0  0  0  0  0  0
  141.4079   71.2488  224.0685 H   0  0  0  0  0  0  0  0  0  0  0  0
  141.1737   71.2819  220.9552 H   0  0  0  0  0  0  0  0  0  0  0  0
  141.9560   71.9650  218.3880 H   0  0  0  0  0  0  0  0  0  0  0  0
  144.0744   72.3283  217.7567 H   0  0  0  0  0  0  0  0  0  0  0  0
  144.1220   71.4509  220.5652 H   0  0  0  0  0  0  0  0  0  0  0  0
  145.0268   70.8344  219.1581 H   0  0  0  0  0  0  0  0  0  0  0  0
  146.5858   71.8609  220.7851 H   0  0  0  0  0  0  0  0  0  0  0  0
  146.5513   72.8443  219.3021 H   0  0  0  0  0  0  0  0  0  0  0  0
  144.8246   73.3269  221.7897 H   0  0  0  0  0  0  0  0  0  0  0  0
  146.3330   74.2278  221.3725 H   0  0  0  0  0  0  0  0  0  0  0  0
  143.8490   74.9690  220.6060 H   0  0  0  0  0  0  0  0  0  0  0  0
  143.7073   74.7207  218.3353 H   0  0  0  0  0  0  0  0  0  0  0  0
  145.4198   74.0597  218.3050 H   0  0  0  0  0  0  0  0  0  0  0  0
  142.6174   77.2592  220.2592 H   0  0  0  0  0  0  0  0  0  0  0  0
  141.0550   76.8325  219.4387 H   0  0  0  0  0  0  0  0  0  0  0  0
  141.4726   79.2919  219.6063 H   0  0  0  0  0  0  0  0  0  0  0  0
  139.9572   78.7413  220.4012 H   0  0  0  0  0  0  0  0  0  0  0  0
  142.2137   81.1684  220.8939 H   0  0  0  0  0  0  0  0  0  0  0  0
  142.9440   82.0020  223.1440 H   0  0  0  0  0  0  0  0  0  0  0  0
  142.6527   80.6122  225.1519 H   0  0  0  0  0  0  0  0  0  0  0  0
  141.6355   78.3578  224.9922 H   0  0  0  0  0  0  0  0  0  0  0  0
  141.0490   76.5116  223.5574 H   0  0  0  0  0  0  0  0  0  0  0  0
  139.6385   77.2656  222.6967 H   0  0  0  0  0  0  0  0  0  0  0  0
  137.6975   72.0459  223.3755 H   0  0  0  0  0  0  0  0  0  0  0  0
  138.1500   71.8988  221.6862 H   0  0  0  0  0  0  0  0  0  0  0  0
  1  2  2  0
  2  3  1  0
  3  4  2  0
  4  5  1  0
  5  6  2  0
  5  7  1  0
  7  8  1  0
  8  9  1  0
  9 10  1  0
 10 11  2  0
 11 12  1  0
 12 13  1  0
 13 14  1  0
 14 15  1  0
 15 16  1  0
 16 17  1  0
 17 18  1  0
 18 19  1  0
 12 20  2  0
 20 21  1  0
 21 22  1  0
 22 23  1  0
 23 24  1  0
 24 25  1  0
 25 26  2  0
 26 27  1  0
 27 28  2  0
 28 29  1  0
 29 30  2  0
 30 31  1  0
 21 32  2  0
  9 33  1  0
  6  1  1  0
 32 10  1  0
 33  4  1  0
 19 14  1  0
 31 22  1  0
 30 25  1  0
  1 34  1  0
  2 35  1  0
  3 36  1  0
  6 37  1  0
  7 38  1  0
  7 39  1  0
  8 40  1  0
  8 41  1  0
 11 42  1  0
 13 43  1  0
 14 44  1  6
 15 45  1  0
 15 46  1  0
 16 47  1  0
 16 48  1  0
 17 49  1  0
 17 50  1  0
 18 51  1  0
 19 52  1  0
 19 53  1  0
 23 54  1  0
 23 55  1  0
 24 56  1  0
 24 57  1  0
 26 58  1  0
 27 59  1  0
 28 60  1  0
 29 61  1  0
 31 62  1  0
 31 63  1  0
 33 64  1  0
 33 65  1  0
M  END
>  <smiles>  (5) 
c1ccc2c(c1)CCN(c1cc(NC3CCCNC3)nc(N3CCc4ccccc4C3)n1)C2

>  <score_type>  (5) 
oracle

>  <origin>  (5) 
autodockgpu

>  <m_score__min__energy>  (5) 
-9.3200000000000003

>  <m_primary>  (5) 
energy

>  <rmsd>  (5) 
6.517110831900335

>  <m_score__min__rmsd>  (5) 
6.517110831900335

>  <meeko>  (5) 
{"free_energy": -8.67, "intermolecular_energy": -9.87, "internal_energy": -1.94, "cluster_size": 12, "cluster_id": 1, "rank_in_cluster": 9}

>  <energy>  (5) 
-8.78

>  <cluster_rmsd>  (5) 
1.64

>  <cluster>  (5) 
1

$$$$

     RDKit          3D

 65 70  0  0  0  0  0  0  0  0999 V2000
  141.6350   79.7370  223.4030 C   0  0  0  0  0  0  0  0  0  0  0  0
  140.2630   79.7930  223.5890 C   0  0  0  0  0  0  0  0  0  0  0  0
  139.4120   78.9790  222.8650 C   0  0  0  0  0  0  0  0  0  0  0  0
  139.9790   78.1110  221.9550 C   0  0  0  0  0  0  0  0  0  0  0  0
  141.3400   78.0230  221.7400 C   0  0  0  0  0  0  0  0  0  0  0  0
  142.1600   78.8410  222.4700 C   0  0  0  0  0  0  0  0  0  0  0  0
  141.8410   77.0510  220.7330 C   0  0  0  0  0  0  0  0  0  0  0  0
  141.2070   75.7110  221.0360 C   0  0  0  0  0  0  0  0  0  0  0  0
  139.8010   75.8760  221.2730 N   0  0  0  0  0  0  0  0  0  0  0  0
  139.0090   74.7620  221.6710 C   0  0  0  0  0  0  0  0  0  0  0  0
  137.6670   74.7310  221.3620 C   0  0  0  0  0  0  0  0  0  0  0  0
  136.8470   73.6550  221.7310 C   0  0  0  0  0  0  0  0  0  0  0  0
  135.4840   73.6660  221.3880 N   0  0  0  0  0  0  0  0  0  0  0  0
  134.3840   73.5780  222.3220 C   0  0  2  0  0  0  0  0  0  0  0  0
  133.9790   74.9490  222.8220 C   0  0  0  0  0  0  0  0  0  0  0  0
  133.7120   74.8360  224.3050 C   0  0  0  0  0  0  0  0  0  0  0  0
  135.0150   74.4370  224.9660 C   0  0  0  0  0  0  0  0  0  0  0  0
  135.4340   73.1300  224.5220 N   0  0  0  0  0  0  0  0  0  0  0  0
  134.6200   72.6140  223.4500 C   0  0  0  0  0  0  0  0  0  0  0  0
  137.4650   72.6700  222.4010 N   0  0  0  0  0  0  0  0  0  0  0  0
  138.7690   72.6630  222.7210 C   0  0  0  0  0  0  0  0  0  0  0  0
  139.3060   71.5550  223.4350 N   0  0  0  0  0  0  0  0  0  0  0  0
  138.6440   70.2770  223.3300 C   0  0  0  0  0  0  0  0  0  0  0  0
  139.5420   69.1350  223.7500 C   0  0  0  0  0  0  0  0  0  0  0  0
  140.0840   69.3990  225.1280 C   0  0  0  0  0  0  0  0  0  0  0  0
  140.1020   68.4080  226.0880 C   0  0  0  0  0  0  0  0  0  0  0  0
  140.6240   68.7530  227.3300 C   0  0  0  0  0  0  0  0  0  0  0  0
  141.0950   70.0210  227.5800 C   0  0  0  0  0  0  0  0  0  0  0  0
  141.0630   70.9910  226.6000 C   0  0  0  0  0  0  0  0  0  0  0  0
  140.5490   70.6780  225.3510 C   0  0  0  0  0  0  0  0  0  0  0  0
  140.4930   71.6980  224.2530 C   0  0  0  0  0  0  0  0  0  0  0  0
  139.5180   73.7160  222.3470 N   0  0  0  0  0  0  0  0  0  0  0  0
  139.1350   77.1800  221.1200 C   0  0  0  0  0  0  0  0  0  0  0  0
  142.3025   80.3907  223.9836 H   0  0  0  0  0  0  0  0  0  0  0  0
  139.8445   80.4961  224.3242 H   0  0  0  0  0  0  0  0  0  0  0  0
  138.3223   79.0218  223.0093 H   0  0  0  0  0  0  0  0  0  0  0  0
  143.2485   78.7915  222.3192 H   0  0  0  0  0  0  0  0  0  0  0  0
  141.5588   77.3794  219.7218 H   0  0  0  0  0  0  0  0  0  0  0  0
  142.9377   76.9786  220.7781 H   0  0  0  0  0  0  0  0  0  0  0  0
  141.3555   75.0358  220.1804 H   0  0  0  0  0  0  0  0  0  0  0  0
  141.6771   75.2837  221.9340 H   0  0  0  0  0  0  0  0  0  0  0  0
  137.2261   75.5742  220.8101 H   0  0  0  0  0  0  0  0  0  0  0  0
  135.2280   73.7420  220.3680 H   0  0  0  0  0  0  0  0  0  0  0  0
  133.5393   73.1566  221.7573 H   0  0  0  0  0  0  0  0  0  0  0  0
  134.7909   75.6688  222.6412 H   0  0  0  0  0  0  0  0  0  0  0  0
  133.0807   75.3020  222.2943 H   0  0  0  0  0  0  0  0  0  0  0  0
  133.3694   75.8034  224.7009 H   0  0  0  0  0  0  0  0  0  0  0  0
  132.9286   74.0901  224.5048 H   0  0  0  0  0  0  0  0  0  0  0  0
  135.7911   75.1722  224.7068 H   0  0  0  0  0  0  0  0  0  0  0  0
  134.8642   74.4084  226.0552 H   0  0  0  0  0  0  0  0  0  0  0  0
  136.4530   73.0580  224.3360 H   0  0  0  0  0  0  0  0  0  0  0  0
  135.1174   71.7224  223.0405 H   0  0  0  0  0  0  0  0  0  0  0  0
  133.6334   72.3971  223.8853 H   0  0  0  0  0  0  0  0  0  0  0  0
  137.7539   70.2845  223.9763 H   0  0  0  0  0  0  0  0  0  0  0  0
  138.3705   70.1228  222.2758 H   0  0  0  0  0  0  0  0  0  0  0  0
  138.9645   68.1988  223.7570 H   0  0  0  0  0  0  0  0  0  0  0  0
  140.3774   69.0473  223.0398 H   0  0  0  0  0  0  0  0  0  0  0  0
  139.7227   67.3963  225.8814 H   0  0  0  0  0  0  0  0  0  0  0  0
  140.6609   67.9970  228.1282 H   0  0  0  0  0  0  0  0  0  0  0  0
  141.5018   70.2641  228.5727 H   0  0  0  0  0  0  0  0  0  0  0  0
  141.4415   72.0028  226.8073 H   0  0  0  0  0  0  0  0  0  0  0  0
  140.4954   72.7023  224.7017 H   0  0  0  0  0  0  0  0  0  0  0  0
  141.3698   71.5471  223.6061 H   0  0  0  0  0  0  0  0  0  0  0  0
  139.1275   77.4957  220.0663 H   0  0  0  0  0  0  0  0  0  0  0  0
  138.0813   77.1608  221.4351 H   0  0  0  0  0  0  0  0  0  0  0  0
  1  2  2  0
  2  3  1  0
  3  4  2  0
  4  5  1  0
  5  6  2  0
  5  7  1  0
  7  8  1  0
  8  9  1  0
  9 10  1  0
 10 11  2  0
 11 12  1  0
 12 13  1  0
 13 14  1  0
 14 15  1  0
 15 16  1  0
 16 17  1  0
 17 18  1  0
 18 19  1  0
 12 20  2  0
 20 21  1  0
 21 22  1  0
 22 23  1  0
 23 24  1  0
 24 25  1  0
 25 26  2  0
 26 27  1  0
 27 28  2  0
 28 29  1  0
 29 30  2  0
 30 31  1  0
 21 32  2  0
  9 33  1  0
  6  1  1  0
 32 10  1  0
 33  4  1  0
 19 14  1  0
 31 22  1  0
 30 25  1  0
  1 34  1  0
  2 35  1  0
  3 36  1  0
  6 37  1  0
  7 38  1  0
  7 39  1  0
  8 40  1  0
  8 41  1  0
 11 42  1  0
 13 43  1  0
 14 44  1  6
 15 45  1  0
 15 46  1  0
 16 47  1  0
 16 48  1  0
 17 49  1  0
 17 50  1  0
 18 51  1  0
 19 52  1  0
 19 53  1  0
 23 54  1  0
 23 55  1  0
 24 56  1  0
 24 57  1  0
 26 58  1  0
 27 59  1  0
 28 60  1  0
 29 61  1  0
 31 62  1  0
 31 63  1  0
 33 64  1  0
 33 65  1  0
M  END
>  <smiles>  (6) 
c1ccc2c(c1)CCN(c1cc(NC3CCCNC3)nc(N3CCc4ccccc4C3)n1)C2

>  <score_type>  (6) 
oracle

>  <origin>  (6) 
autodockgpu

>  <m_score__min__energy>  (6) 
-9.3200000000000003

>  <m_primary>  (6) 
energy

>  <rmsd>  (6) 
7.914969736266933

>  <m_score__min__rmsd>  (6) 
7.914969736266933

>  <meeko>  (6) 
{"free_energy": -8.46, "intermolecular_energy": -9.66, "internal_energy": -1.88, "cluster_size": 26, "cluster_id": 2, "rank_in_cluster": 22}

>  <energy>  (6) 
-8.76

>  <cluster_rmsd>  (6) 
1.62

>  <cluster>  (6) 
1

$$$$

     RDKit          3D

 65 70  0  0  0  0  0  0  0  0999 V2000
  143.0060   76.8230  217.0600 C   0  0  0  0  0  0  0  0  0  0  0  0
  143.2340   75.4590  217.1550 C   0  0  0  0  0  0  0  0  0  0  0  0
  143.0260   74.7840  218.3430 C   0  0  0  0  0  0  0  0  0  0  0  0
  142.5840   75.5150  219.4250 C   0  0  0  0  0  0  0  0  0  0  0  0
  142.3450   76.8740  219.3740 C   0  0  0  0  0  0  0  0  0  0  0  0
  142.5590   77.5190  218.1850 C   0  0  0  0  0  0  0  0  0  0  0  0
  141.8700   77.5620  220.6030 C   0  0  0  0  0  0  0  0  0  0  0  0
  140.6920   76.7790  221.1390 C   0  0  0  0  0  0  0  0  0  0  0  0
  140.9970   75.3760  221.1440 N   0  0  0  0  0  0  0  0  0  0  0  0
  140.0010   74.4310  221.5200 C   0  0  0  0  0  0  0  0  0  0  0  0
  138.7260   74.5410  221.0110 C   0  0  0  0  0  0  0  0  0  0  0  0
  137.7120   73.6350  221.3510 C   0  0  0  0  0  0  0  0  0  0  0  0
  136.4270   73.7850  220.8010 N   0  0  0  0  0  0  0  0  0  0  0  0
  135.2190   74.0420  221.5520 C   0  0  2  0  0  0  0  0  0  0  0  0
  135.1080   75.5050  221.9270 C   0  0  0  0  0  0  0  0  0  0  0  0
  134.6110   75.5770  223.3530 C   0  0  0  0  0  0  0  0  0  0  0  0
  135.6620   74.9240  224.2260 C   0  0  0  0  0  0  0  0  0  0  0  0
  135.7940   73.5240  223.9060 N   0  0  0  0  0  0  0  0  0  0  0  0
  135.0390   73.1410  222.7400 C   0  0  0  0  0  0  0  0  0  0  0  0
  138.0760   72.6620  222.2010 N   0  0  0  0  0  0  0  0  0  0  0  0
  139.3070   72.5200  222.7180 C   0  0  0  0  0  0  0  0  0  0  0  0
  139.5690   71.4430  223.6110 N   0  0  0  0  0  0  0  0  0  0  0  0
  138.6790   70.3070  223.6040 C   0  0  0  0  0  0  0  0  0  0  0  0
  139.3070   69.0890  224.2430 C   0  0  0  0  0  0  0  0  0  0  0  0
  139.7960   69.4370  225.6220 C   0  0  0  0  0  0  0  0  0  0  0  0
  139.5560   68.6040  226.6950 C   0  0  0  0  0  0  0  0  0  0  0  0
  140.0510   69.0160  227.9280 C   0  0  0  0  0  0  0  0  0  0  0  0
  140.7420   70.1980  228.0610 C   0  0  0  0  0  0  0  0  0  0  0  0
  140.9660   71.0110  226.9690 C   0  0  0  0  0  0  0  0  0  0  0  0
  140.4860   70.6280  225.7270 C   0  0  0  0  0  0  0  0  0  0  0  0
  140.7040   71.4770  224.5110 C   0  0  0  0  0  0  0  0  0  0  0  0
  140.2490   73.4140  222.3650 N   0  0  0  0  0  0  0  0  0  0  0  0
  142.3250   74.8680  220.7640 C   0  0  0  0  0  0  0  0  0  0  0  0
  143.1752   77.3508  216.1098 H   0  0  0  0  0  0  0  0  0  0  0  0
  143.5857   74.9056  216.2718 H   0  0  0  0  0  0  0  0  0  0  0  0
  143.2067   73.7019  218.4223 H   0  0  0  0  0  0  0  0  0  0  0  0
  142.3761   78.6014  218.1152 H   0  0  0  0  0  0  0  0  0  0  0  0
  142.6747   77.5891  221.3525 H   0  0  0  0  0  0  0  0  0  0  0  0
  141.5750   78.5973  220.3767 H   0  0  0  0  0  0  0  0  0  0  0  0
  140.4726   77.1079  222.1655 H   0  0  0  0  0  0  0  0  0  0  0  0
  139.8175   76.9564  220.4958 H   0  0  0  0  0  0  0  0  0  0  0  0
  138.4968   75.3636  220.3176 H   0  0  0  0  0  0  0  0  0  0  0  0
  136.3200   73.7050  219.7550 H   0  0  0  0  0  0  0  0  0  0  0  0
  134.3847   73.7975  220.8781 H   0  0  0  0  0  0  0  0  0  0  0  0
  136.0933   75.9877  221.8488 H   0  0  0  0  0  0  0  0  0  0  0  0
  134.4140   76.0249  221.2502 H   0  0  0  0  0  0  0  0  0  0  0  0
  134.4721   76.6266  223.6513 H   0  0  0  0  0  0  0  0  0  0  0  0
  133.6434   75.0640  223.4561 H   0  0  0  0  0  0  0  0  0  0  0  0
  136.6281   75.4241  224.0630 H   0  0  0  0  0  0  0  0  0  0  0  0
  135.3555   75.0184  225.2782 H   0  0  0  0  0  0  0  0  0  0  0  0
  136.7780   73.1900  223.8870 H   0  0  0  0  0  0  0  0  0  0  0  0
  135.3478   72.1258  222.4500 H   0  0  0  0  0  0  0  0  0  0  0  0
  133.9777   73.2066  223.0217 H   0  0  0  0  0  0  0  0  0  0  0  0
  137.7661   70.5681  224.1594 H   0  0  0  0  0  0  0  0  0  0  0  0
  138.4518   70.0609  222.5562 H   0  0  0  0  0  0  0  0  0  0  0  0
  138.5591   68.2853  224.3120 H   0  0  0  0  0  0  0  0  0  0  0  0
  140.1553   68.7516  223.6294 H   0  0  0  0  0  0  0  0  0  0  0  0
  139.0010   67.6611  226.5813 H   0  0  0  0  0  0  0  0  0  0  0  0
  139.8867   68.3845  228.8136 H   0  0  0  0  0  0  0  0  0  0  0  0
  141.1203   70.4984  229.0493 H   0  0  0  0  0  0  0  0  0  0  0  0
  141.5204   71.9542  227.0833 H   0  0  0  0  0  0  0  0  0  0  0  0
  140.8727   72.5162  224.8297 H   0  0  0  0  0  0  0  0  0  0  0  0
  141.5757   71.0780  223.9716 H   0  0  0  0  0  0  0  0  0  0  0  0
  143.0857   75.1693  221.4993 H   0  0  0  0  0  0  0  0  0  0  0  0
  142.3661   73.7695  220.7225 H   0  0  0  0  0  0  0  0  0  0  0  0
  1  2  2  0
  2  3  1  0
  3  4  2  0
  4  5  1  0
  5  6  2  0
  5  7  1  0
  7  8  1  0
  8  9  1  0
  9 10  1  0
 10 11  2  0
 11 12  1  0
 12 13  1  0
 13 14  1  0
 14 15  1  0
 15 16  1  0
 16 17  1  0
 17 18  1  0
 18 19  1  0
 12 20  2  0
 20 21  1  0
 21 22  1  0
 22 23  1  0
 23 24  1  0
 24 25  1  0
 25 26  2  0
 26 27  1  0
 27 28  2  0
 28 29  1  0
 29 30  2  0
 30 31  1  0
 21 32  2  0
  9 33  1  0
  6  1  1  0
 32 10  1  0
 33  4  1  0
 19 14  1  0
 31 22  1  0
 30 25  1  0
  1 34  1  0
  2 35  1  0
  3 36  1  0
  6 37  1  0
  7 38  1  0
  7 39  1  0
  8 40  1  0
  8 41  1  0
 11 42  1  0
 13 43  1  0
 14 44  1  6
 15 45  1  0
 15 46  1  0
 16 47  1  0
 16 48  1  0
 17 49  1  0
 17 50  1  0
 18 51  1  0
 19 52  1  0
 19 53  1  0
 23 54  1  0
 23 55  1  0
 24 56  1  0
 24 57  1  0
 26 58  1  0
 27 59  1  0
 28 60  1  0
 29 61  1  0
 31 62  1  0
 31 63  1  0
 33 64  1  0
 33 65  1  0
M  END
>  <smiles>  (7) 
c1ccc2c(c1)CCN(c1cc(NC3CCCNC3)nc(N3CCc4ccccc4C3)n1)C2

>  <score_type>  (7) 
oracle

>  <origin>  (7) 
autodockgpu

>  <m_score__min__energy>  (7) 
-9.3200000000000003

>  <m_primary>  (7) 
energy

>  <rmsd>  (7) 
6.8754674207729805

>  <m_score__min__rmsd>  (7) 
6.8754674207729805

>  <meeko>  (7) 
{"free_energy": -8.47, "intermolecular_energy": -9.66, "internal_energy": -1.91, "cluster_size": 5, "cluster_id": 3, "rank_in_cluster": 4}

>  <energy>  (7) 
-8.75

>  <cluster_rmsd>  (7) 
1.64

>  <cluster>  (7) 
1

$$$$

     RDKit          3D

 65 70  0  0  0  0  0  0  0  0999 V2000
  140.0990   69.5590  226.9750 C   0  0  0  0  0  0  0  0  0  0  0  0
  140.8090   70.7500  227.0060 C   0  0  0  0  0  0  0  0  0  0  0  0
  141.0170   71.4850  225.8550 C   0  0  0  0  0  0  0  0  0  0  0  0
  140.4930   70.9920  224.6780 C   0  0  0  0  0  0  0  0  0  0  0  0
  139.7800   69.8120  224.6030 C   0  0  0  0  0  0  0  0  0  0  0  0
  139.5890   69.1020  225.7590 C   0  0  0  0  0  0  0  0  0  0  0  0
  139.2610   69.3750  223.2800 C   0  0  0  0  0  0  0  0  0  0  0  0
  138.5230   70.5460  222.6700 C   0  0  0  0  0  0  0  0  0  0  0  0
  139.3060   71.7420  222.8020 N   0  0  0  0  0  0  0  0  0  0  0  0
  138.7720   72.9930  222.3820 C   0  0  0  0  0  0  0  0  0  0  0  0
  137.4340   73.0970  222.0700 C   0  0  0  0  0  0  0  0  0  0  0  0
  136.8630   74.3080  221.6540 C   0  0  0  0  0  0  0  0  0  0  0  0
  135.4910   74.3660  221.3520 N   0  0  0  0  0  0  0  0  0  0  0  0
  134.4160   74.2060  222.3040 C   0  0  2  0  0  0  0  0  0  0  0  0
  133.9700   75.5440  222.8570 C   0  0  0  0  0  0  0  0  0  0  0  0
  133.7390   75.3730  224.3400 C   0  0  0  0  0  0  0  0  0  0  0  0
  135.0700   75.0030  224.9610 C   0  0  0  0  0  0  0  0  0  0  0  0
  135.5280   73.7280  224.4660 N   0  0  0  0  0  0  0  0  0  0  0  0
  134.7120   73.2160  223.3950 C   0  0  0  0  0  0  0  0  0  0  0  0
  137.7110   75.3450  221.5840 N   0  0  0  0  0  0  0  0  0  0  0  0
  139.0190   75.2860  221.8800 C   0  0  0  0  0  0  0  0  0  0  0  0
  139.8140   76.4600  221.7670 N   0  0  0  0  0  0  0  0  0  0  0  0
  141.1760   76.3330  221.3060 C   0  0  0  0  0  0  0  0  0  0  0  0
  141.7350   77.6490  220.8140 C   0  0  0  0  0  0  0  0  0  0  0  0
  141.5780   78.6950  221.8830 C   0  0  0  0  0  0  0  0  0  0  0  0
  142.6130   79.5520  222.2000 C   0  0  0  0  0  0  0  0  0  0  0  0
  142.3660   80.4840  223.2030 C   0  0  0  0  0  0  0  0  0  0  0  0
  141.1490   80.5410  223.8410 C   0  0  0  0  0  0  0  0  0  0  0  0
  140.1340   79.6700  223.5030 C   0  0  0  0  0  0  0  0  0  0  0  0
  140.3480   78.7300  222.5080 C   0  0  0  0  0  0  0  0  0  0  0  0
  139.2760   77.7630  222.1050 C   0  0  0  0  0  0  0  0  0  0  0  0
  139.5250   74.1030  222.2750 N   0  0  0  0  0  0  0  0  0  0  0  0
  140.6640   71.7230  223.3690 C   0  0  0  0  0  0  0  0  0  0  0  0
  139.9398   68.9816  227.8977 H   0  0  0  0  0  0  0  0  0  0  0  0
  141.2128   71.1150  227.9619 H   0  0  0  0  0  0  0  0  0  0  0  0
  141.5803   72.4296  225.8762 H   0  0  0  0  0  0  0  0  0  0  0  0
  139.0254   68.1579  225.7283 H   0  0  0  0  0  0  0  0  0  0  0  0
  140.0962   69.0774  222.6289 H   0  0  0  0  0  0  0  0  0  0  0  0
  138.5892   68.5114  223.3941 H   0  0  0  0  0  0  0  0  0  0  0  0
  138.3402   70.3460  221.6039 H   0  0  0  0  0  0  0  0  0  0  0  0
  137.5651   70.6817  223.1936 H   0  0  0  0  0  0  0  0  0  0  0  0
  136.7957   72.2046  222.1496 H   0  0  0  0  0  0  0  0  0  0  0  0
  135.2090   74.5390  220.3500 H   0  0  0  0  0  0  0  0  0  0  0  0
  133.5761   73.7707  221.7426 H   0  0  0  0  0  0  0  0  0  0  0  0
  134.7501   76.2999  222.6839 H   0  0  0  0  0  0  0  0  0  0  0  0
  133.0481   75.8791  222.3592 H   0  0  0  0  0  0  0  0  0  0  0  0
  133.3688   76.3132  224.7746 H   0  0  0  0  0  0  0  0  0  0  0  0
  132.9885   74.5917  224.5307 H   0  0  0  0  0  0  0  0  0  0  0  0
  135.8123   75.7752  224.7103 H   0  0  0  0  0  0  0  0  0  0  0  0
  134.9438   74.9338  226.0515 H   0  0  0  0  0  0  0  0  0  0  0  0
  136.5450   73.7010  224.2580 H   0  0  0  0  0  0  0  0  0  0  0  0
  135.2338   72.3576  222.9467 H   0  0  0  0  0  0  0  0  0  0  0  0
  133.7437   72.9476  223.8426 H   0  0  0  0  0  0  0  0  0  0  0  0
  141.7994   75.9713  222.1370 H   0  0  0  0  0  0  0  0  0  0  0  0
  141.1840   75.6255  220.4637 H   0  0  0  0  0  0  0  0  0  0  0  0
  142.8018   77.5271  220.5749 H   0  0  0  0  0  0  0  0  0  0  0  0
  141.1891   77.9635  219.9122 H   0  0  0  0  0  0  0  0  0  0  0  0
  143.5839   79.5005  221.6855 H   0  0  0  0  0  0  0  0  0  0  0  0
  143.1596   81.1890  223.4913 H   0  0  0  0  0  0  0  0  0  0  0  0
  140.9831   81.2896  224.6297 H   0  0  0  0  0  0  0  0  0  0  0  0
  139.1637   79.7213  224.0187 H   0  0  0  0  0  0  0  0  0  0  0  0
  138.5694   77.6489  222.9403 H   0  0  0  0  0  0  0  0  0  0  0  0
  138.7768   78.1649  221.2110 H   0  0  0  0  0  0  0  0  0  0  0  0
  141.3584   71.1851  222.7068 H   0  0  0  0  0  0  0  0  0  0  0  0
  141.0884   72.7300  223.4946 H   0  0  0  0  0  0  0  0  0  0  0  0
  1  2  2  0
  2  3  1  0
  3  4  2  0
  4  5  1  0
  5  6  2  0
  5  7  1  0
  7  8  1  0
  8  9  1  0
  9 10  1  0
 10 11  2  0
 11 12  1  0
 12 13  1  0
 13 14  1  0
 14 15  1  0
 15 16  1  0
 16 17  1  0
 17 18  1  0
 18 19  1  0
 12 20  2  0
 20 21  1  0
 21 22  1  0
 22 23  1  0
 23 24  1  0
 24 25  1  0
 25 26  2  0
 26 27  1  0
 27 28  2  0
 28 29  1  0
 29 30  2  0
 30 31  1  0
 21 32  2  0
  9 33  1  0
  6  1  1  0
 32 10  1  0
 33  4  1  0
 19 14  1  0
 31 22  1  0
 30 25  1  0
  1 34  1  0
  2 35  1  0
  3 36  1  0
  6 37  1  0
  7 38  1  0
  7 39  1  0
  8 40  1  0
  8 41  1  0
 11 42  1  0
 13 43  1  0
 14 44  1  6
 15 45  1  0
 15 46  1  0
 16 47  1  0
 16 48  1  0
 17 49  1  0
 17 50  1  0
 18 51  1  0
 19 52  1  0
 19 53  1  0
 23 54  1  0
 23 55  1  0
 24 56  1  0
 24 57  1  0
 26 58  1  0
 27 59  1  0
 28 60  1  0
 29 61  1  0
 31 62  1  0
 31 63  1  0
 33 64  1  0
 33 65  1  0
M  END
>  <smiles>  (8) 
c1ccc2c(c1)CCN(c1cc(NC3CCCNC3)nc(N3CCc4ccccc4C3)n1)C2

>  <score_type>  (8) 
oracle

>  <origin>  (8) 
autodockgpu

>  <m_score__min__energy>  (8) 
-9.3200000000000003

>  <m_primary>  (8) 
energy

>  <rmsd>  (8) 
7.885374377419298

>  <m_score__min__rmsd>  (8) 
7.885374377419298

>  <meeko>  (8) 
{"free_energy": -9.13, "intermolecular_energy": -10.32, "internal_energy": -1.21, "cluster_size": 26, "cluster_id": 2, "rank_in_cluster": 12}

>  <energy>  (8) 
-8.69

>  <cluster_rmsd>  (8) 
1.59

>  <cluster>  (8) 
1

$$$$

     RDKit          3D

 65 70  0  0  0  0  0  0  0  0999 V2000
  139.1790   67.3750  223.9550 C   0  0  0  0  0  0  0  0  0  0  0  0
  138.5670   67.7150  222.7580 C   0  0  0  0  0  0  0  0  0  0  0  0
  138.3650   69.0370  222.4120 C   0  0  0  0  0  0  0  0  0  0  0  0
  138.7940   70.0030  223.2980 C   0  0  0  0  0  0  0  0  0  0  0  0
  139.4080   69.7090  224.4990 C   0  0  0  0  0  0  0  0  0  0  0  0
  139.5960   68.3900  224.8190 C   0  0  0  0  0  0  0  0  0  0  0  0
  139.8290   70.8310  225.3790 C   0  0  0  0  0  0  0  0  0  0  0  0
  140.6280   71.7980  224.5340 C   0  0  0  0  0  0  0  0  0  0  0  0
  139.9490   72.0420  223.2920 N   0  0  0  0  0  0  0  0  0  0  0  0
  140.5590   72.8510  222.2930 C   0  0  0  0  0  0  0  0  0  0  0  0
  141.2090   72.2560  221.2340 C   0  0  0  0  0  0  0  0  0  0  0  0
  141.8230   73.0090  220.2240 C   0  0  0  0  0  0  0  0  0  0  0  0
  142.4700   72.3570  219.1600 N   0  0  0  0  0  0  0  0  0  0  0  0
  143.8740   72.4680  218.8370 C   0  0  2  0  0  0  0  0  0  0  0  0
  144.7140   71.5810  219.7330 C   0  0  0  0  0  0  0  0  0  0  0  0
  145.9450   72.3630  220.1280 C   0  0  0  0  0  0  0  0  0  0  0  0
  145.4760   73.5620  220.9250 C   0  0  0  0  0  0  0  0  0  0  0  0
  144.6780   74.4400  220.1060 N   0  0  0  0  0  0  0  0  0  0  0  0
  144.3810   73.8820  218.8100 C   0  0  0  0  0  0  0  0  0  0  0  0
  141.7310   74.3400  220.3680 N   0  0  0  0  0  0  0  0  0  0  0  0
  141.1060   74.9580  221.3840 C   0  0  0  0  0  0  0  0  0  0  0  0
  141.0770   76.3810  221.4220 N   0  0  0  0  0  0  0  0  0  0  0  0
  141.4380   77.1130  220.2330 C   0  0  0  0  0  0  0  0  0  0  0  0
  140.9410   78.5410  220.2710 C   0  0  0  0  0  0  0  0  0  0  0  0
  141.4160   79.2080  221.5320 C   0  0  0  0  0  0  0  0  0  0  0  0
  141.9500   80.4800  221.5090 C   0  0  0  0  0  0  0  0  0  0  0  0
  142.3590   81.0080  222.7290 C   0  0  0  0  0  0  0  0  0  0  0  0
  142.2340   80.2890  223.8960 C   0  0  0  0  0  0  0  0  0  0  0  0
  141.6980   79.0180  223.8870 C   0  0  0  0  0  0  0  0  0  0  0  0
  141.2810   78.4650  222.6870 C   0  0  0  0  0  0  0  0  0  0  0  0
  140.6910   77.0880  222.6270 C   0  0  0  0  0  0  0  0  0  0  0  0
  140.5310   74.1950  222.3310 N   0  0  0  0  0  0  0  0  0  0  0  0
  138.6210   71.4740  223.0090 C   0  0  0  0  0  0  0  0  0  0  0  0
  139.3341   66.3189  224.2208 H   0  0  0  0  0  0  0  0  0  0  0  0
  138.2373   66.9196  222.0734 H   0  0  0  0  0  0  0  0  0  0  0  0
  137.8792   69.3096  221.4635 H   0  0  0  0  0  0  0  0  0  0  0  0
  140.0823   68.1268  225.7699 H   0  0  0  0  0  0  0  0  0  0  0  0
  138.9437   71.3365  225.7922 H   0  0  0  0  0  0  0  0  0  0  0  0
  140.4349   70.4583  226.2180 H   0  0  0  0  0  0  0  0  0  0  0  0
  140.7445   72.7469  225.0780 H   0  0  0  0  0  0  0  0  0  0  0  0
  141.6169   71.3636  224.3256 H   0  0  0  0  0  0  0  0  0  0  0  0
  141.2472   71.1580  221.1796 H   0  0  0  0  0  0  0  0  0  0  0  0
  141.8930   71.7320  218.5360 H   0  0  0  0  0  0  0  0  0  0  0  0
  143.9774   72.1063  217.8033 H   0  0  0  0  0  0  0  0  0  0  0  0
  144.1412   71.3051  220.6306 H   0  0  0  0  0  0  0  0  0  0  0  0
  144.9963   70.6575  219.2063 H   0  0  0  0  0  0  0  0  0  0  0  0
  146.6079   71.7371  220.7434 H   0  0  0  0  0  0  0  0  0  0  0  0
  146.5082   72.6811  219.2383 H   0  0  0  0  0  0  0  0  0  0  0  0
  144.8722   73.2153  221.7766 H   0  0  0  0  0  0  0  0  0  0  0  0
  146.3573   74.1157  221.2810 H   0  0  0  0  0  0  0  0  0  0  0  0
  143.8420   74.8200  220.5910 H   0  0  0  0  0  0  0  0  0  0  0  0
  143.6154   74.5116  218.3331 H   0  0  0  0  0  0  0  0  0  0  0  0
  145.3307   73.8612  218.2554 H   0  0  0  0  0  0  0  0  0  0  0  0
  142.5341   77.1213  220.1407 H   0  0  0  0  0  0  0  0  0  0  0  0
  140.9687   76.6138  219.3724 H   0  0  0  0  0  0  0  0  0  0  0  0
  141.3302   79.0872  219.3992 H   0  0  0  0  0  0  0  0  0  0  0  0
  139.8412   78.5453  220.2479 H   0  0  0  0  0  0  0  0  0  0  0  0
  142.0474   81.0483  220.5723 H   0  0  0  0  0  0  0  0  0  0  0  0
  142.7905   82.0193  222.7619 H   0  0  0  0  0  0  0  0  0  0  0  0
  142.5652   80.7329  224.8464 H   0  0  0  0  0  0  0  0  0  0  0  0
  141.6026   78.4490  224.8235 H   0  0  0  0  0  0  0  0  0  0  0  0
  141.0371   76.5156  223.5003 H   0  0  0  0  0  0  0  0  0  0  0  0
  139.5956   77.1889  222.6242 H   0  0  0  0  0  0  0  0  0  0  0  0
  137.8570   71.9159  223.6656 H   0  0  0  0  0  0  0  0  0  0  0  0
  138.2830   71.6702  221.9808 H   0  0  0  0  0  0  0  0  0  0  0  0
  1  2  2  0
  2  3  1  0
  3  4  2  0
  4  5  1  0
  5  6  2  0
  5  7  1  0
  7  8  1  0
  8  9  1  0
  9 10  1  0
 10 11  2  0
 11 12  1  0
 12 13  1  0
 13 14  1  0
 14 15  1  0
 15 16  1  0
 16 17  1  0
 17 18  1  0
 18 19  1  0
 12 20  2  0
 20 21  1  0
 21 22  1  0
 22 23  1  0
 23 24  1  0
 24 25  1  0
 25 26  2  0
 26 27  1  0
 27 28  2  0
 28 29  1  0
 29 30  2  0
 30 31  1  0
 21 32  2  0
  9 33  1  0
  6  1  1  0
 32 10  1  0
 33  4  1  0
 19 14  1  0
 31 22  1  0
 30 25  1  0
  1 34  1  0
  2 35  1  0
  3 36  1  0
  6 37  1  0
  7 38  1  0
  7 39  1  0
  8 40  1  0
  8 41  1  0
 11 42  1  0
 13 43  1  0
 14 44  1  6
 15 45  1  0
 15 46  1  0
 16 47  1  0
 16 48  1  0
 17 49  1  0
 17 50  1  0
 18 51  1  0
 19 52  1  0
 19 53  1  0
 23 54  1  0
 23 55  1  0
 24 56  1  0
 24 57  1  0
 26 58  1  0
 27 59  1  0
 28 60  1  0
 29 61  1  0
 31 62  1  0
 31 63  1  0
 33 64  1  0
 33 65  1  0
M  END
>  <smiles>  (9) 
c1ccc2c(c1)CCN(c1cc(NC3CCCNC3)nc(N3CCc4ccccc4C3)n1)C2

>  <score_type>  (9) 
oracle

>  <origin>  (9) 
autodockgpu

>  <m_score__min__energy>  (9) 
-9.3200000000000003

>  <m_primary>  (9) 
energy

>  <rmsd>  (9) 
6.64860021594239

>  <m_score__min__rmsd>  (9) 
6.64860021594239

>  <meeko>  (9) 
{"free_energy": -8.69, "intermolecular_energy": -9.89, "internal_energy": -1.93, "cluster_size": 12, "cluster_id": 1, "rank_in_cluster": 8}

>  <energy>  (9) 
-8.67

>  <cluster_rmsd>  (9) 
1.61

>  <cluster>  (9) 
1

$$$$

     RDKit          3D

 65 70  0  0  0  0  0  0  0  0999 V2000
  140.2440   70.0770  228.2330 C   0  0  0  0  0  0  0  0  0  0  0  0
  140.8850   71.2860  228.0100 C   0  0  0  0  0  0  0  0  0  0  0  0
  141.1040   71.7490  226.7260 C   0  0  0  0  0  0  0  0  0  0  0  0
  140.6620   70.9660  225.6800 C   0  0  0  0  0  0  0  0  0  0  0  0
  140.0190   69.7570  225.8590 C   0  0  0  0  0  0  0  0  0  0  0  0
  139.8150   69.3210  227.1410 C   0  0  0  0  0  0  0  0  0  0  0  0
  139.5860   68.9960  224.6570 C   0  0  0  0  0  0  0  0  0  0  0  0
  138.8130   69.9450  223.7690 C   0  0  0  0  0  0  0  0  0  0  0  0
  139.5220   71.1880  223.6450 N   0  0  0  0  0  0  0  0  0  0  0  0
  138.9400   72.2720  222.9300 C   0  0  0  0  0  0  0  0  0  0  0  0
  137.6640   72.1530  222.4240 C   0  0  0  0  0  0  0  0  0  0  0  0
  137.0480   73.1930  221.7150 C   0  0  0  0  0  0  0  0  0  0  0  0
  135.7420   73.0270  221.2230 N   0  0  0  0  0  0  0  0  0  0  0  0
  134.5290   73.3700  221.9310 C   0  0  2  0  0  0  0  0  0  0  0  0
  134.1650   74.8250  221.7200 C   0  0  0  0  0  0  0  0  0  0  0  0
  133.7050   75.3800  223.0480 C   0  0  0  0  0  0  0  0  0  0  0  0
  134.8820   75.3010  223.9980 C   0  0  0  0  0  0  0  0  0  0  0  0
  135.2570   73.9290  224.2330 N   0  0  0  0  0  0  0  0  0  0  0  0
  134.5510   73.0000  223.3870 C   0  0  0  0  0  0  0  0  0  0  0  0
  137.7900   74.3020  221.5680 N   0  0  0  0  0  0  0  0  0  0  0  0
  139.0350   74.4580  222.0450 C   0  0  0  0  0  0  0  0  0  0  0  0
  139.7190   75.6860  221.8240 N   0  0  0  0  0  0  0  0  0  0  0  0
  141.0720   75.6450  221.3250 C   0  0  0  0  0  0  0  0  0  0  0  0
  141.4970   76.9660  220.7250 C   0  0  0  0  0  0  0  0  0  0  0  0
  141.2780   78.0690  221.7240 C   0  0  0  0  0  0  0  0  0  0  0  0
  142.2410   79.0330  221.9440 C   0  0  0  0  0  0  0  0  0  0  0  0
  141.9400   80.0100  222.8880 C   0  0  0  0  0  0  0  0  0  0  0  0
  140.7420   80.0060  223.5630 C   0  0  0  0  0  0  0  0  0  0  0  0
  139.8000   79.0280  223.3220 C   0  0  0  0  0  0  0  0  0  0  0  0
  140.0690   78.0410  222.3870 C   0  0  0  0  0  0  0  0  0  0  0  0
  139.0760   76.9580  222.0890 C   0  0  0  0  0  0  0  0  0  0  0  0
  139.5870   73.4320  222.7200 N   0  0  0  0  0  0  0  0  0  0  0  0
  140.8520   71.3860  224.2430 C   0  0  0  0  0  0  0  0  0  0  0  0
  140.0755   69.7177  229.2589 H   0  0  0  0  0  0  0  0  0  0  0  0
  141.2243   71.8857  228.8675 H   0  0  0  0  0  0  0  0  0  0  0  0
  141.6125   72.7075  226.5450 H   0  0  0  0  0  0  0  0  0  0  0  0
  139.3057   68.3612  227.3126 H   0  0  0  0  0  0  0  0  0  0  0  0
  140.4654   68.6117  224.1195 H   0  0  0  0  0  0  0  0  0  0  0  0
  138.9584   68.1404  224.9468 H   0  0  0  0  0  0  0  0  0  0  0  0
  138.6908   69.4942  222.7731 H   0  0  0  0  0  0  0  0  0  0  0  0
  137.8259   70.1349  224.2157 H   0  0  0  0  0  0  0  0  0  0  0  0
  137.1127   71.2142  222.5812 H   0  0  0  0  0  0  0  0  0  0  0  0
  135.6220   72.6170  220.2590 H   0  0  0  0  0  0  0  0  0  0  0  0
  133.7336   72.7512  221.4900 H   0  0  0  0  0  0  0  0  0  0  0  0
  135.0436   75.3834  221.3645 H   0  0  0  0  0  0  0  0  0  0  0  0
  133.3688   74.9179  220.9667 H   0  0  0  0  0  0  0  0  0  0  0  0
  133.3860   76.4260  222.9292 H   0  0  0  0  0  0  0  0  0  0  0  0
  132.8505   74.8063  223.4362 H   0  0  0  0  0  0  0  0  0  0  0  0
  135.7359   75.8387  223.5602 H   0  0  0  0  0  0  0  0  0  0  0  0
  134.5937   75.7576  224.9564 H   0  0  0  0  0  0  0  0  0  0  0  0
  136.2840   73.7720  224.2480 H   0  0  0  0  0  0  0  0  0  0  0  0
  135.0316   72.0153  223.4832 H   0  0  0  0  0  0  0  0  0  0  0  0
  133.5042   73.0050  223.7251 H   0  0  0  0  0  0  0  0  0  0  0  0
  141.7493   75.3986  222.1560 H   0  0  0  0  0  0  0  0  0  0  0  0
  141.1181   74.8828  220.5332 H   0  0  0  0  0  0  0  0  0  0  0  0
  142.5631   76.9205  220.4581 H   0  0  0  0  0  0  0  0  0  0  0  0
  140.8993   77.1663  219.8235 H   0  0  0  0  0  0  0  0  0  0  0  0
  143.1975   79.0291  221.4008 H   0  0  0  0  0  0  0  0  0  0  0  0
  142.6748   80.8011  223.0984 H   0  0  0  0  0  0  0  0  0  0  0  0
  140.5326   80.7919  224.3037 H   0  0  0  0  0  0  0  0  0  0  0  0
  138.8443   79.0313  223.8667 H   0  0  0  0  0  0  0  0  0  0  0  0
  138.4061   76.8433  222.9539 H   0  0  0  0  0  0  0  0  0  0  0  0
  138.5175   77.2495  221.1872 H   0  0  0  0  0  0  0  0  0  0  0  0
  141.6038   70.7555  223.7458 H   0  0  0  0  0  0  0  0  0  0  0  0
  141.2149   72.4197  224.1446 H   0  0  0  0  0  0  0  0  0  0  0  0
  1  2  2  0
  2  3  1  0
  3  4  2  0
  4  5  1  0
  5  6  2  0
  5  7  1  0
  7  8  1  0
  8  9  1  0
  9 10  1  0
 10 11  2  0
 11 12  1  0
 12 13  1  0
 13 14  1  0
 14 15  1  0
 15 16  1  0
 16 17  1  0
 17 18  1  0
 18 19  1  0
 12 20  2  0
 20 21  1  0
 21 22  1  0
 22 23  1  0
 23 24  1  0
 24 25  1  0
 25 26  2  0
 26 27  1  0
 27 28  2  0
 28 29  1  0
 29 30  2  0
 30 31  1  0
 21 32  2  0
  9 33  1  0
  6  1  1  0
 32 10  1  0
 33  4  1  0
 19 14  1  0
 31 22  1  0
 30 25  1  0
  1 34  1  0
  2 35  1  0
  3 36  1  0
  6 37  1  0
  7 38  1  0
  7 39  1  0
  8 40  1  0
  8 41  1  0
 11 42  1  0
 13 43  1  0
 14 44  1  6
 15 45  1  0
 15 46  1  0
 16 47  1  0
 16 48  1  0
 17 49  1  0
 17 50  1  0
 18 51  1  0
 19 52  1  0
 19 53  1  0
 23 54  1  0
 23 55  1  0
 24 56  1  0
 24 57  1  0
 26 58  1  0
 27 59  1  0
 28 60  1  0
 29 61  1  0
 31 62  1  0
 31 63  1  0
 33 64  1  0
 33 65  1  0
M  END
>  <smiles>  (10) 
c1ccc2c(c1)CCN(c1cc(NC3CCCNC3)nc(N3CCc4ccccc4C3)n1)C2

>  <score_type>  (10) 
oracle

>  <origin>  (10) 
autodockgpu

>  <m_score__min__energy>  (10) 
-9.3200000000000003

>  <m_primary>  (10) 
energy

>  <rmsd>  (10) 
7.896955918409612

>  <m_score__min__rmsd>  (10) 
7.896955918409612

>  <meeko>  (10) 
{"free_energy": -9.11, "intermolecular_energy": -10.3, "internal_energy": -1.37, "cluster_size": 26, "cluster_id": 2, "rank_in_cluster": 13}

>  <energy>  (10) 
-8.62

>  <cluster_rmsd>  (10) 
1.6

>  <cluster>  (10) 
1

$$$$

     RDKit          3D

 65 70  0  0  0  0  0  0  0  0999 V2000
  140.2180   69.5910  226.9920 C   0  0  0  0  0  0  0  0  0  0  0  0
  140.9390   70.7750  226.9780 C   0  0  0  0  0  0  0  0  0  0  0  0
  141.1090   71.4900  225.8080 C   0  0  0  0  0  0  0  0  0  0  0  0
  140.5360   70.9850  224.6600 C   0  0  0  0  0  0  0  0  0  0  0  0
  139.8090   69.8100  224.6310 C   0  0  0  0  0  0  0  0  0  0  0  0
  139.6560   69.1210  225.8040 C   0  0  0  0  0  0  0  0  0  0  0  0
  139.2360   69.3590  223.3360 C   0  0  0  0  0  0  0  0  0  0  0  0
  138.4860   70.5270  222.7360 C   0  0  0  0  0  0  0  0  0  0  0  0
  139.2840   71.7180  222.8190 N   0  0  0  0  0  0  0  0  0  0  0  0
  138.7460   72.9680  222.4010 C   0  0  0  0  0  0  0  0  0  0  0  0
  137.4070   73.0690  222.0950 C   0  0  0  0  0  0  0  0  0  0  0  0
  136.8310   74.2780  221.6800 C   0  0  0  0  0  0  0  0  0  0  0  0
  135.4590   74.3330  221.3840 N   0  0  0  0  0  0  0  0  0  0  0  0
  134.3920   74.3870  222.3580 C   0  0  2  0  0  0  0  0  0  0  0  0
  134.1420   75.8080  222.8190 C   0  0  0  0  0  0  0  0  0  0  0  0
  133.9230   75.7740  224.3130 C   0  0  0  0  0  0  0  0  0  0  0  0
  135.2050   75.2710  224.9430 C   0  0  0  0  0  0  0  0  0  0  0  0
  135.4770   73.9150  224.5350 N   0  0  0  0  0  0  0  0  0  0  0  0
  134.5760   73.4450  223.5130 C   0  0  0  0  0  0  0  0  0  0  0  0
  137.6770   75.3170  221.6060 N   0  0  0  0  0  0  0  0  0  0  0  0
  138.9870   75.2600  221.8960 C   0  0  0  0  0  0  0  0  0  0  0  0
  139.7790   76.4360  221.7790 N   0  0  0  0  0  0  0  0  0  0  0  0
  141.1440   76.3090  221.3270 C   0  0  0  0  0  0  0  0  0  0  0  0
  141.7030   77.6230  220.8290 C   0  0  0  0  0  0  0  0  0  0  0  0
  141.5360   78.6770  221.8890 C   0  0  0  0  0  0  0  0  0  0  0  0
  142.5660   79.5390  222.2050 C   0  0  0  0  0  0  0  0  0  0  0  0
  142.3110   80.4780  223.1990 C   0  0  0  0  0  0  0  0  0  0  0  0
  141.0890   80.5370  223.8290 C   0  0  0  0  0  0  0  0  0  0  0  0
  140.0790   79.6600  223.4920 C   0  0  0  0  0  0  0  0  0  0  0  0
  140.3020   78.7130  222.5050 C   0  0  0  0  0  0  0  0  0  0  0  0
  139.2350   77.7400  222.1030 C   0  0  0  0  0  0  0  0  0  0  0  0
  139.4970   74.0780  222.2900 N   0  0  0  0  0  0  0  0  0  0  0  0
  140.6630   71.6940  223.3340 C   0  0  0  0  0  0  0  0  0  0  0  0
  140.0903   69.0284  227.9286 H   0  0  0  0  0  0  0  0  0  0  0  0
  141.3822   71.1507  227.9120 H   0  0  0  0  0  0  0  0  0  0  0  0
  141.6814   72.4292  225.7929 H   0  0  0  0  0  0  0  0  0  0  0  0
  139.0816   68.1829  225.8104 H   0  0  0  0  0  0  0  0  0  0  0  0
  140.0430   69.0436  222.6584 H   0  0  0  0  0  0  0  0  0  0  0  0
  138.5608   68.5042  223.4892 H   0  0  0  0  0  0  0  0  0  0  0  0
  138.2610   70.3121  221.6809 H   0  0  0  0  0  0  0  0  0  0  0  0
  137.5501   70.6799  223.2935 H   0  0  0  0  0  0  0  0  0  0  0  0
  136.7711   72.1753  222.1786 H   0  0  0  0  0  0  0  0  0  0  0  0
  135.1680   74.3350  220.3700 H   0  0  0  0  0  0  0  0  0  0  0  0
  133.4893   74.0320  221.8392 H   0  0  0  0  0  0  0  0  0  0  0  0
  135.0125   76.4374  222.5821 H   0  0  0  0  0  0  0  0  0  0  0  0
  133.2624   76.2291  222.3101 H   0  0  0  0  0  0  0  0  0  0  0  0
  133.6924   76.7839  224.6830 H   0  0  0  0  0  0  0  0  0  0  0  0
  133.0787   75.1169  224.5687 H   0  0  0  0  0  0  0  0  0  0  0  0
  136.0387   75.9164  224.6292 H   0  0  0  0  0  0  0  0  0  0  0  0
  135.0938   75.2950  226.0371 H   0  0  0  0  0  0  0  0  0  0  0  0
  136.4760   73.7350  224.3170 H   0  0  0  0  0  0  0  0  0  0  0  0
  134.9678   72.4947  223.1212 H   0  0  0  0  0  0  0  0  0  0  0  0
  133.5904   73.3423  223.9906 H   0  0  0  0  0  0  0  0  0  0  0  0
  141.7633   75.9546  222.1642 H   0  0  0  0  0  0  0  0  0  0  0  0
  141.1586   75.5957  220.4898 H   0  0  0  0  0  0  0  0  0  0  0  0
  142.7717   77.5021  220.5982 H   0  0  0  0  0  0  0  0  0  0  0  0
  141.1624   77.9292  219.9213 H   0  0  0  0  0  0  0  0  0  0  0  0
  143.5399   79.4863  221.6964 H   0  0  0  0  0  0  0  0  0  0  0  0
  143.1012   81.1869  223.4870 H   0  0  0  0  0  0  0  0  0  0  0  0
  140.9157   81.2919  224.6100 H   0  0  0  0  0  0  0  0  0  0  0  0
  139.1057   79.7118  224.0019 H   0  0  0  0  0  0  0  0  0  0  0  0
  138.5234   77.6306  222.9346 H   0  0  0  0  0  0  0  0  0  0  0  0
  138.7401   78.1334  221.2028 H   0  0  0  0  0  0  0  0  0  0  0  0
  141.3262   71.1391  222.6542 H   0  0  0  0  0  0  0  0  0  0  0  0
  141.1012   72.6986  223.4274 H   0  0  0  0  0  0  0  0  0  0  0  0
  1  2  2  0
  2  3  1  0
  3  4  2  0
  4  5  1  0
  5  6  2  0
  5  7  1  0
  7  8  1  0
  8  9  1  0
  9 10  1  0
 10 11  2  0
 11 12  1  0
 12 13  1  0
 13 14  1  0
 14 15  1  0
 15 16  1  0
 16 17  1  0
 17 18  1  0
 18 19  1  0
 12 20  2  0
 20 21  1  0
 21 22  1  0
 22 23  1  0
 23 24  1  0
 24 25  1  0
 25 26  2  0
 26 27  1  0
 27 28  2  0
 28 29  1  0
 29 30  2  0
 30 31  1  0
 21 32  2  0
  9 33  1  0
  6  1  1  0
 32 10  1  0
 33  4  1  0
 19 14  1  0
 31 22  1  0
 30 25  1  0
  1 34  1  0
  2 35  1  0
  3 36  1  0
  6 37  1  0
  7 38  1  0
  7 39  1  0
  8 40  1  0
  8 41  1  0
 11 42  1  0
 13 43  1  0
 14 44  1  6
 15 45  1  0
 15 46  1  0
 16 47  1  0
 16 48  1  0
 17 49  1  0
 17 50  1  0
 18 51  1  0
 19 52  1  0
 19 53  1  0
 23 54  1  0
 23 55  1  0
 24 56  1  0
 24 57  1  0
 26 58  1  0
 27 59  1  0
 28 60  1  0
 29 61  1  0
 31 62  1  0
 31 63  1  0
 33 64  1  0
 33 65  1  0
M  END
>  <smiles>  (11) 
c1ccc2c(c1)CCN(c1cc(NC3CCCNC3)nc(N3CCc4ccccc4C3)n1)C2

>  <score_type>  (11) 
oracle

>  <origin>  (11) 
autodockgpu

>  <m_score__min__energy>  (11) 
-9.3200000000000003

>  <m_primary>  (11) 
energy

>  <rmsd>  (11) 
7.746508070593997

>  <m_score__min__rmsd>  (11) 
7.746508070593997

>  <meeko>  (11) 
{"free_energy": -9.16, "intermolecular_energy": -10.35, "internal_energy": -1.31, "cluster_size": 26, "cluster_id": 2, "rank_in_cluster": 10}

>  <energy>  (11) 
-8.57

>  <cluster_rmsd>  (11) 
1.59

>  <cluster>  (11) 
1

$$$$

     RDKit          3D

 65 70  0  0  0  0  0  0  0  0999 V2000
  139.9980   69.8590  228.4320 C   0  0  0  0  0  0  0  0  0  0  0  0
  140.6860   71.0490  228.2520 C   0  0  0  0  0  0  0  0  0  0  0  0
  141.0110   71.5000  226.9870 C   0  0  0  0  0  0  0  0  0  0  0  0
  140.6260   70.7240  225.9140 C   0  0  0  0  0  0  0  0  0  0  0  0
  139.9390   69.5340  226.0480 C   0  0  0  0  0  0  0  0  0  0  0  0
  139.6290   69.1100  227.3130 C   0  0  0  0  0  0  0  0  0  0  0  0
  139.5740   68.7790  224.8200 C   0  0  0  0  0  0  0  0  0  0  0  0
  138.8940   69.7450  223.8750 C   0  0  0  0  0  0  0  0  0  0  0  0
  139.6440   70.9670  223.7990 N   0  0  0  0  0  0  0  0  0  0  0  0
  139.1460   72.0630  223.0410 C   0  0  0  0  0  0  0  0  0  0  0  0
  137.8270   72.0780  222.6430 C   0  0  0  0  0  0  0  0  0  0  0  0
  137.2900   73.1360  221.8960 C   0  0  0  0  0  0  0  0  0  0  0  0
  135.9370   73.1080  221.5180 N   0  0  0  0  0  0  0  0  0  0  0  0
  134.8490   73.7130  222.2530 C   0  0  2  0  0  0  0  0  0  0  0  0
  134.9230   75.2240  222.1970 C   0  0  0  0  0  0  0  0  0  0  0  0
  134.5940   75.7510  223.5740 C   0  0  0  0  0  0  0  0  0  0  0  0
  135.6650   75.2420  224.5160 C   0  0  0  0  0  0  0  0  0  0  0  0
  135.6250   73.8030  224.6050 N   0  0  0  0  0  0  0  0  0  0  0  0
  134.7130   73.2080  223.6610 C   0  0  0  0  0  0  0  0  0  0  0  0
  138.1520   74.1220  221.6020 N   0  0  0  0  0  0  0  0  0  0  0  0
  139.4430   74.1460  221.9710 C   0  0  0  0  0  0  0  0  0  0  0  0
  140.2550   75.2530  221.5970 N   0  0  0  0  0  0  0  0  0  0  0  0
  139.8110   76.5830  221.9360 C   0  0  0  0  0  0  0  0  0  0  0  0
  140.9400   77.5880  221.8900 C   0  0  0  0  0  0  0  0  0  0  0  0
  141.6180   77.5250  220.5490 C   0  0  0  0  0  0  0  0  0  0  0  0
  141.9400   78.6750  219.8580 C   0  0  0  0  0  0  0  0  0  0  0  0
  142.5670   78.5080  218.6270 C   0  0  0  0  0  0  0  0  0  0  0  0
  142.8470   77.2560  218.1330 C   0  0  0  0  0  0  0  0  0  0  0  0
  142.5120   76.1240  218.8470 C   0  0  0  0  0  0  0  0  0  0  0  0
  141.8870   76.2570  220.0770 C   0  0  0  0  0  0  0  0  0  0  0  0
  141.5050   75.0570  220.8900 C   0  0  0  0  0  0  0  0  0  0  0  0
  139.9150   73.1080  222.6870 N   0  0  0  0  0  0  0  0  0  0  0  0
  140.9320   71.1320  224.4940 C   0  0  0  0  0  0  0  0  0  0  0  0
  139.7459   69.5092  229.4440 H   0  0  0  0  0  0  0  0  0  0  0  0
  140.9778   71.6437  229.1302 H   0  0  0  0  0  0  0  0  0  0  0  0
  141.5570   72.4437  226.8411 H   0  0  0  0  0  0  0  0  0  0  0  0
  139.0814   68.1658  227.4493 H   0  0  0  0  0  0  0  0  0  0  0  0
  140.4793   68.3681  224.3492 H   0  0  0  0  0  0  0  0  0  0  0  0
  138.9037   67.9421  225.0657 H   0  0  0  0  0  0  0  0  0  0  0  0
  138.8319   69.2928  222.8742 H   0  0  0  0  0  0  0  0  0  0  0  0
  137.8829   69.9643  224.2485 H   0  0  0  0  0  0  0  0  0  0  0  0
  137.1763   71.2353  222.9194 H   0  0  0  0  0  0  0  0  0  0  0  0
  135.6790   72.6070  220.6260 H   0  0  0  0  0  0  0  0  0  0  0  0
  133.9263   73.3971  221.7442 H   0  0  0  0  0  0  0  0  0  0  0  0
  135.9364   75.5390  221.9075 H   0  0  0  0  0  0  0  0  0  0  0  0
  134.2135   75.6173  221.4541 H   0  0  0  0  0  0  0  0  0  0  0  0
  134.5911   76.8510  223.5658 H   0  0  0  0  0  0  0  0  0  0  0  0
  133.5982   75.4109  223.8946 H   0  0  0  0  0  0  0  0  0  0  0  0
  136.6517   75.5532  224.1425 H   0  0  0  0  0  0  0  0  0  0  0  0
  135.4848   75.6629  225.5162 H   0  0  0  0  0  0  0  0  0  0  0  0
  136.5630   73.3570  224.6070 H   0  0  0  0  0  0  0  0  0  0  0  0
  134.8876   72.1220  223.6538 H   0  0  0  0  0  0  0  0  0  0  0  0
  133.7005   73.4815  223.9926 H   0  0  0  0  0  0  0  0  0  0  0  0
  139.0331   76.8903  221.2215 H   0  0  0  0  0  0  0  0  0  0  0  0
  139.4208   76.5583  222.9642 H   0  0  0  0  0  0  0  0  0  0  0  0
  140.5367   78.5990  222.0491 H   0  0  0  0  0  0  0  0  0  0  0  0
  141.6696   77.3538  222.6793 H   0  0  0  0  0  0  0  0  0  0  0  0
  141.7126   79.6734  220.2599 H   0  0  0  0  0  0  0  0  0  0  0  0
  142.8439   79.3947  218.0379 H   0  0  0  0  0  0  0  0  0  0  0  0
  143.3440   77.1556  217.1569 H   0  0  0  0  0  0  0  0  0  0  0  0
  142.7386   75.1258  218.4441 H   0  0  0  0  0  0  0  0  0  0  0  0
  141.4008   74.1921  220.2184 H   0  0  0  0  0  0  0  0  0  0  0  0
  142.2943   74.8890  221.6375 H   0  0  0  0  0  0  0  0  0  0  0  0
  141.7011   70.4793  224.0552 H   0  0  0  0  0  0  0  0  0  0  0  0
  141.3286   72.1554  224.4202 H   0  0  0  0  0  0  0  0  0  0  0  0
  1  2  2  0
  2  3  1  0
  3  4  2  0
  4  5  1  0
  5  6  2  0
  5  7  1  0
  7  8  1  0
  8  9  1  0
  9 10  1  0
 10 11  2  0
 11 12  1  0
 12 13  1  0
 13 14  1  0
 14 15  1  0
 15 16  1  0
 16 17  1  0
 17 18  1  0
 18 19  1  0
 12 20  2  0
 20 21  1  0
 21 22  1  0
 22 23  1  0
 23 24  1  0
 24 25  1  0
 25 26  2  0
 26 27  1  0
 27 28  2  0
 28 29  1  0
 29 30  2  0
 30 31  1  0
 21 32  2  0
  9 33  1  0
  6  1  1  0
 32 10  1  0
 33  4  1  0
 19 14  1  0
 31 22  1  0
 30 25  1  0
  1 34  1  0
  2 35  1  0
  3 36  1  0
  6 37  1  0
  7 38  1  0
  7 39  1  0
  8 40  1  0
  8 41  1  0
 11 42  1  0
 13 43  1  0
 14 44  1  6
 15 45  1  0
 15 46  1  0
 16 47  1  0
 16 48  1  0
 17 49  1  0
 17 50  1  0
 18 51  1  0
 19 52  1  0
 19 53  1  0
 23 54  1  0
 23 55  1  0
 24 56  1  0
 24 57  1  0
 26 58  1  0
 27 59  1  0
 28 60  1  0
 29 61  1  0
 31 62  1  0
 31 63  1  0
 33 64  1  0
 33 65  1  0
M  END
>  <smiles>  (12) 
c1ccc2c(c1)CCN(c1cc(NC3CCCNC3)nc(N3CCc4ccccc4C3)n1)C2

>  <score_type>  (12) 
oracle

>  <origin>  (12) 
autodockgpu

>  <m_score__min__energy>  (12) 
-9.3200000000000003

>  <m_primary>  (12) 
energy

>  <rmsd>  (12) 
7.521149480837491

>  <m_score__min__rmsd>  (12) 
7.521149480837491

>  <meeko>  (12) 
{"free_energy": -8.97, "intermolecular_energy": -10.16, "internal_energy": -1.36, "cluster_size": 26, "cluster_id": 2, "rank_in_cluster": 20}

>  <energy>  (12) 
-8.17

>  <cluster_rmsd>  (12) 
1.08

>  <cluster>  (12) 
1

$$$$

     RDKit          3D

 65 70  0  0  0  0  0  0  0  0999 V2000
  140.1430   69.6730  227.6250 C   0  0  0  0  0  0  0  0  0  0  0  0
  140.8160   70.8840  227.5690 C   0  0  0  0  0  0  0  0  0  0  0  0
  141.0360   71.5200  226.3620 C   0  0  0  0  0  0  0  0  0  0  0  0
  140.5620   70.9080  225.2200 C   0  0  0  0  0  0  0  0  0  0  0  0
  139.8870   69.7030  225.2320 C   0  0  0  0  0  0  0  0  0  0  0  0
  139.6830   69.0930  226.4420 C   0  0  0  0  0  0  0  0  0  0  0  0
  139.4220   69.1340  223.9400 C   0  0  0  0  0  0  0  0  0  0  0  0
  138.6670   70.2210  223.2080 C   0  0  0  0  0  0  0  0  0  0  0  0
  139.4090   71.4500  223.2530 N   0  0  0  0  0  0  0  0  0  0  0  0
  138.8520   72.6400  222.7090 C   0  0  0  0  0  0  0  0  0  0  0  0
  137.5280   72.6640  222.3260 C   0  0  0  0  0  0  0  0  0  0  0  0
  136.9340   73.8130  221.7860 C   0  0  0  0  0  0  0  0  0  0  0  0
  135.5780   73.7900  221.4150 N   0  0  0  0  0  0  0  0  0  0  0  0
  134.4790   74.2620  222.2270 C   0  0  2  0  0  0  0  0  0  0  0  0
  134.4710   75.7740  222.3120 C   0  0  0  0  0  0  0  0  0  0  0  0
  134.1510   76.1510  223.7400 C   0  0  0  0  0  0  0  0  0  0  0  0
  135.2720   75.6170  224.6060 C   0  0  0  0  0  0  0  0  0  0  0  0
  135.3110   74.1760  224.5600 N   0  0  0  0  0  0  0  0  0  0  0  0
  134.4070   73.6210  223.5840 C   0  0  0  0  0  0  0  0  0  0  0  0
  137.7450   74.8760  221.6730 N   0  0  0  0  0  0  0  0  0  0  0  0
  139.0380   74.8940  222.0340 C   0  0  0  0  0  0  0  0  0  0  0  0
  139.7940   76.0880  221.8640 N   0  0  0  0  0  0  0  0  0  0  0  0
  141.1160   75.9950  221.2950 C   0  0  0  0  0  0  0  0  0  0  0  0
  141.6030   77.3260  220.7670 C   0  0  0  0  0  0  0  0  0  0  0  0
  141.5080   78.3640  221.8510 C   0  0  0  0  0  0  0  0  0  0  0  0
  142.5440   79.2440  222.0880 C   0  0  0  0  0  0  0  0  0  0  0  0
  142.3560   80.1670  223.1120 C   0  0  0  0  0  0  0  0  0  0  0  0
  141.1930   80.1920  223.8460 C   0  0  0  0  0  0  0  0  0  0  0  0
  140.1750   79.2990  223.5860 C   0  0  0  0  0  0  0  0  0  0  0  0
  140.3310   78.3670  222.5710 C   0  0  0  0  0  0  0  0  0  0  0  0
  139.2540   77.3760  222.2510 C   0  0  0  0  0  0  0  0  0  0  0  0
  139.5670   73.7680  222.5470 N   0  0  0  0  0  0  0  0  0  0  0  0
  140.7500   71.5250  223.8560 C   0  0  0  0  0  0  0  0  0  0  0  0
  139.9736   69.1750  228.5911 H   0  0  0  0  0  0  0  0  0  0  0  0
  141.1801   71.3452  228.4989 H   0  0  0  0  0  0  0  0  0  0  0  0
  141.5702   72.4803  226.3135 H   0  0  0  0  0  0  0  0  0  0  0  0
  139.1489   68.1322  226.4814 H   0  0  0  0  0  0  0  0  0  0  0  0
  140.2852   68.8082  223.3411 H   0  0  0  0  0  0  0  0  0  0  0  0
  138.7740   68.2620  224.1124 H   0  0  0  0  0  0  0  0  0  0  0  0
  138.5220   69.9212  222.1596 H   0  0  0  0  0  0  0  0  0  0  0  0
  137.6904   70.3708  223.6916 H   0  0  0  0  0  0  0  0  0  0  0  0
  136.9202   71.7553  222.4477 H   0  0  0  0  0  0  0  0  0  0  0  0
  135.3280   73.3980  220.4690 H   0  0  0  0  0  0  0  0  0  0  0  0
  133.5613   73.9436  221.7109 H   0  0  0  0  0  0  0  0  0  0  0  0
  135.4581   76.1704  222.0318 H   0  0  0  0  0  0  0  0  0  0  0  0
  133.7223   76.1950  221.6248 H   0  0  0  0  0  0  0  0  0  0  0  0
  134.0890   77.2450  223.8361 H   0  0  0  0  0  0  0  0  0  0  0  0
  133.1838   75.7274  224.0483 H   0  0  0  0  0  0  0  0  0  0  0  0
  136.2304   76.0158  224.2421 H   0  0  0  0  0  0  0  0  0  0  0  0
  135.0966   75.9325  225.6451 H   0  0  0  0  0  0  0  0  0  0  0  0
  136.2710   73.7840  224.5000 H   0  0  0  0  0  0  0  0  0  0  0  0
  134.6390   72.5517  223.4708 H   0  0  0  0  0  0  0  0  0  0  0  0
  133.3903   73.8051  223.9615 H   0  0  0  0  0  0  0  0  0  0  0  0
  141.8124   75.6450  222.0712 H   0  0  0  0  0  0  0  0  0  0  0  0
  141.0727   75.2910  220.4509 H   0  0  0  0  0  0  0  0  0  0  0  0
  142.6497   77.2303  220.4425 H   0  0  0  0  0  0  0  0  0  0  0  0
  140.9793   77.6308  219.9137 H   0  0  0  0  0  0  0  0  0  0  0  0
  143.4716   79.2172  221.4973 H   0  0  0  0  0  0  0  0  0  0  0  0
  143.1528   80.8906  223.3390 H   0  0  0  0  0  0  0  0  0  0  0  0
  141.0736   80.9332  224.6500 H   0  0  0  0  0  0  0  0  0  0  0  0
  139.2482   79.3256  224.1779 H   0  0  0  0  0  0  0  0  0  0  0  0
  138.6202   77.2420  223.1400 H   0  0  0  0  0  0  0  0  0  0  0  0
  138.6746   77.7685  221.4024 H   0  0  0  0  0  0  0  0  0  0  0  0
  141.4793   70.9531  223.2636 H   0  0  0  0  0  0  0  0  0  0  0  0
  141.1405   72.5523  223.9023 H   0  0  0  0  0  0  0  0  0  0  0  0
  1  2  2  0
  2  3  1  0
  3  4  2  0
  4  5  1  0
  5  6  2  0
  5  7  1  0
  7  8  1  0
  8  9  1  0
  9 10  1  0
 10 11  2  0
 11 12  1  0
 12 13  1  0
 13 14  1  0
 14 15  1  0
 15 16  1  0
 16 17  1  0
 17 18  1  0
 18 19  1  0
 12 20  2  0
 20 21  1  0
 21 22  1  0
 22 23  1  0
 23 24  1  0
 24 25  1  0
 25 26  2  0
 26 27  1  0
 27 28  2  0
 28 29  1  0
 29 30  2  0
 30 31  1  0
 21 32  2  0
  9 33  1  0
  6  1  1  0
 32 10  1  0
 33  4  1  0
 19 14  1  0
 31 22  1  0
 30 25  1  0
  1 34  1  0
  2 35  1  0
  3 36  1  0
  6 37  1  0
  7 38  1  0
  7 39  1  0
  8 40  1  0
  8 41  1  0
 11 42  1  0
 13 43  1  0
 14 44  1  6
 15 45  1  0
 15 46  1  0
 16 47  1  0
 16 48  1  0
 17 49  1  0
 17 50  1  0
 18 51  1  0
 19 52  1  0
 19 53  1  0
 23 54  1  0
 23 55  1  0
 24 56  1  0
 24 57  1  0
 26 58  1  0
 27 59  1  0
 28 60  1  0
 29 61  1  0
 31 62  1  0
 31 63  1  0
 33 64  1  0
 33 65  1  0
M  END
>  <smiles>  (13) 
c1ccc2c(c1)CCN(c1cc(NC3CCCNC3)nc(N3CCc4ccccc4C3)n1)C2

>  <score_type>  (13) 
oracle

>  <origin>  (13) 
autodockgpu

>  <m_score__min__energy>  (13) 
-9.3200000000000003

>  <m_primary>  (13) 
energy

>  <rmsd>  (13) 
7.574372233514845

>  <m_score__min__rmsd>  (13) 
7.574372233514845

>  <meeko>  (13) 
{"free_energy": -9.17, "intermolecular_energy": -10.36, "internal_energy": -1.38, "cluster_size": 26, "cluster_id": 2, "rank_in_cluster": 9}

>  <energy>  (13) 
-9.21

>  <cluster_rmsd>  (13) 
0.0

>  <cluster>  (13) 
2

$$$$

     RDKit          3D

 65 70  0  0  0  0  0  0  0  0999 V2000
  139.9130   69.8260  228.4950 C   0  0  0  0  0  0  0  0  0  0  0  0
  140.5860   71.0260  228.3210 C   0  0  0  0  0  0  0  0  0  0  0  0
  140.9290   71.4730  227.0590 C   0  0  0  0  0  0  0  0  0  0  0  0
  140.5770   70.6850  225.9830 C   0  0  0  0  0  0  0  0  0  0  0  0
  139.9060   69.4850  226.1120 C   0  0  0  0  0  0  0  0  0  0  0  0
  139.5780   69.0640  227.3740 C   0  0  0  0  0  0  0  0  0  0  0  0
  139.5770   68.7170  224.8830 C   0  0  0  0  0  0  0  0  0  0  0  0
  138.9010   69.6660  223.9180 C   0  0  0  0  0  0  0  0  0  0  0  0
  139.6330   70.8990  223.8490 N   0  0  0  0  0  0  0  0  0  0  0  0
  139.1340   71.9820  223.0730 C   0  0  0  0  0  0  0  0  0  0  0  0
  137.8160   71.9850  222.6690 C   0  0  0  0  0  0  0  0  0  0  0  0
  137.2780   73.0300  221.9060 C   0  0  0  0  0  0  0  0  0  0  0  0
  135.9270   72.9910  221.5220 N   0  0  0  0  0  0  0  0  0  0  0  0
  134.8400   73.6520  222.2090 C   0  0  2  0  0  0  0  0  0  0  0  0
  134.9490   75.1580  222.0840 C   0  0  0  0  0  0  0  0  0  0  0  0
  134.6100   75.7550  223.4290 C   0  0  0  0  0  0  0  0  0  0  0  0
  135.6540   75.2680  224.4120 C   0  0  0  0  0  0  0  0  0  0  0  0
  135.5800   73.8360  224.5670 N   0  0  0  0  0  0  0  0  0  0  0  0
  134.6700   73.2170  223.6370 C   0  0  0  0  0  0  0  0  0  0  0  0
  138.1360   74.0160  221.6020 N   0  0  0  0  0  0  0  0  0  0  0  0
  139.4250   74.0520  221.9770 C   0  0  0  0  0  0  0  0  0  0  0  0
  140.2330   75.1570  221.5920 N   0  0  0  0  0  0  0  0  0  0  0  0
  139.7680   76.4910  221.8870 C   0  0  0  0  0  0  0  0  0  0  0  0
  140.8880   77.5070  221.8390 C   0  0  0  0  0  0  0  0  0  0  0  0
  141.5950   77.4170  220.5150 C   0  0  0  0  0  0  0  0  0  0  0  0
  141.9200   78.5520  219.8010 C   0  0  0  0  0  0  0  0  0  0  0  0
  142.5750   78.3610  218.5890 C   0  0  0  0  0  0  0  0  0  0  0  0
  142.8790   77.0990  218.1330 C   0  0  0  0  0  0  0  0  0  0  0  0
  142.5410   75.9830  218.8690 C   0  0  0  0  0  0  0  0  0  0  0  0
  141.8880   76.1400  220.0810 C   0  0  0  0  0  0  0  0  0  0  0  0
  141.5010   74.9580  220.9170 C   0  0  0  0  0  0  0  0  0  0  0  0
  139.8990   73.0260  222.7090 N   0  0  0  0  0  0  0  0  0  0  0  0
  140.9040   71.0890  224.5670 C   0  0  0  0  0  0  0  0  0  0  0  0
  139.6463   69.4786  229.5041 H   0  0  0  0  0  0  0  0  0  0  0  0
  140.8508   71.6311  229.2006 H   0  0  0  0  0  0  0  0  0  0  0  0
  141.4639   72.4237  226.9176 H   0  0  0  0  0  0  0  0  0  0  0  0
  139.0430   68.1119  227.5059 H   0  0  0  0  0  0  0  0  0  0  0  0
  140.4976   68.3171  224.4329 H   0  0  0  0  0  0  0  0  0  0  0  0
  138.9147   67.8717  225.1213 H   0  0  0  0  0  0  0  0  0  0  0  0
  138.8662   69.2065  222.9192 H   0  0  0  0  0  0  0  0  0  0  0  0
  137.8791   69.8716  224.2695 H   0  0  0  0  0  0  0  0  0  0  0  0
  137.1680   71.1429  222.9538 H   0  0  0  0  0  0  0  0  0  0  0  0
  135.6690   72.4350  220.6630 H   0  0  0  0  0  0  0  0  0  0  0  0
  133.9191   73.3315  221.6999 H   0  0  0  0  0  0  0  0  0  0  0  0
  135.9737   75.4371  221.7975 H   0  0  0  0  0  0  0  0  0  0  0  0
  134.2607   75.5317  221.3116 H   0  0  0  0  0  0  0  0  0  0  0  0
  134.6314   76.8532  223.3699 H   0  0  0  0  0  0  0  0  0  0  0  0
  133.6021   75.4511  223.7479 H   0  0  0  0  0  0  0  0  0  0  0  0
  136.6534   75.5399  224.0415 H   0  0  0  0  0  0  0  0  0  0  0  0
  135.4675   75.7394  225.3882 H   0  0  0  0  0  0  0  0  0  0  0  0
  136.5080   73.3710  224.6060 H   0  0  0  0  0  0  0  0  0  0  0  0
  134.8201   72.1283  223.6838 H   0  0  0  0  0  0  0  0  0  0  0  0
  133.6587   73.5276  223.9383 H   0  0  0  0  0  0  0  0  0  0  0  0
  139.0027   76.7714  221.1483 H   0  0  0  0  0  0  0  0  0  0  0  0
  139.3559   76.4886  222.9069 H   0  0  0  0  0  0  0  0  0  0  0  0
  140.4712   78.5173  221.9634 H   0  0  0  0  0  0  0  0  0  0  0  0
  141.6028   77.3010  222.6493 H   0  0  0  0  0  0  0  0  0  0  0  0
  141.6734   79.5578  220.1718 H   0  0  0  0  0  0  0  0  0  0  0  0
  142.8553   79.2355  217.9835 H   0  0  0  0  0  0  0  0  0  0  0  0
  143.3976   76.9789  217.1704 H   0  0  0  0  0  0  0  0  0  0  0  0
  142.7875   74.9774  218.4974 H   0  0  0  0  0  0  0  0  0  0  0  0
  141.4214   74.0746  220.2664 H   0  0  0  0  0  0  0  0  0  0  0  0
  142.2753   74.8198  221.6860 H   0  0  0  0  0  0  0  0  0  0  0  0
  141.6918   70.4460  224.1474 H   0  0  0  0  0  0  0  0  0  0  0  0
  141.2857   72.1181  224.4941 H   0  0  0  0  0  0  0  0  0  0  0  0
  1  2  2  0
  2  3  1  0
  3  4  2  0
  4  5  1  0
  5  6  2  0
  5  7  1  0
  7  8  1  0
  8  9  1  0
  9 10  1  0
 10 11  2  0
 11 12  1  0
 12 13  1  0
 13 14  1  0
 14 15  1  0
 15 16  1  0
 16 17  1  0
 17 18  1  0
 18 19  1  0
 12 20  2  0
 20 21  1  0
 21 22  1  0
 22 23  1  0
 23 24  1  0
 24 25  1  0
 25 26  2  0
 26 27  1  0
 27 28  2  0
 28 29  1  0
 29 30  2  0
 30 31  1  0
 21 32  2  0
  9 33  1  0
  6  1  1  0
 32 10  1  0
 33  4  1  0
 19 14  1  0
 31 22  1  0
 30 25  1  0
  1 34  1  0
  2 35  1  0
  3 36  1  0
  6 37  1  0
  7 38  1  0
  7 39  1  0
  8 40  1  0
  8 41  1  0
 11 42  1  0
 13 43  1  0
 14 44  1  6
 15 45  1  0
 15 46  1  0
 16 47  1  0
 16 48  1  0
 17 49  1  0
 17 50  1  0
 18 51  1  0
 19 52  1  0
 19 53  1  0
 23 54  1  0
 23 55  1  0
 24 56  1  0
 24 57  1  0
 26 58  1  0
 27 59  1  0
 28 60  1  0
 29 61  1  0
 31 62  1  0
 31 63  1  0
 33 64  1  0
 33 65  1  0
M  END
>  <smiles>  (14) 
c1ccc2c(c1)CCN(c1cc(NC3CCCNC3)nc(N3CCc4ccccc4C3)n1)C2

>  <score_type>  (14) 
oracle

>  <origin>  (14) 
autodockgpu

>  <m_score__min__energy>  (14) 
-9.3200000000000003

>  <m_primary>  (14) 
energy

>  <rmsd>  (14) 
7.52407521737937

>  <m_score__min__rmsd>  (14) 
7.52407521737937

>  <meeko>  (14) 
{"free_energy": -8.97, "intermolecular_energy": -10.16, "internal_energy": -1.36, "cluster_size": 26, "cluster_id": 2, "rank_in_cluster": 21}

>  <energy>  (14) 
-9.21

>  <cluster_rmsd>  (14) 
0.15

>  <cluster>  (14) 
2

$$$$

     RDKit          3D

 65 70  0  0  0  0  0  0  0  0999 V2000
  138.8290   67.3840  223.4950 C   0  0  0  0  0  0  0  0  0  0  0  0
  138.2460   67.8320  222.3190 C   0  0  0  0  0  0  0  0  0  0  0  0
  138.1120   69.1820  222.0600 C   0  0  0  0  0  0  0  0  0  0  0  0
  138.5790   70.0650  223.0110 C   0  0  0  0  0  0  0  0  0  0  0  0
  139.1660   69.6620  224.1950 C   0  0  0  0  0  0  0  0  0  0  0  0
  139.2860   68.3180  224.4270 C   0  0  0  0  0  0  0  0  0  0  0  0
  139.6330   70.7020  225.1490 C   0  0  0  0  0  0  0  0  0  0  0  0
  140.4860   71.6820  224.3750 C   0  0  0  0  0  0  0  0  0  0  0  0
  139.8320   72.0410  223.1480 N   0  0  0  0  0  0  0  0  0  0  0  0
  140.4910   72.8820  222.2090 C   0  0  0  0  0  0  0  0  0  0  0  0
  141.2080   72.3230  221.1740 C   0  0  0  0  0  0  0  0  0  0  0  0
  141.8720   73.1100  220.2230 C   0  0  0  0  0  0  0  0  0  0  0  0
  142.5870   72.4930  219.1810 N   0  0  0  0  0  0  0  0  0  0  0  0
  143.9930   72.6810  218.9040 C   0  0  2  0  0  0  0  0  0  0  0  0
  144.8480   71.7860  219.7780 C   0  0  0  0  0  0  0  0  0  0  0  0
  146.0320   72.5990  220.2450 C   0  0  0  0  0  0  0  0  0  0  0  0
  145.4910   73.7360  221.0870 C   0  0  0  0  0  0  0  0  0  0  0  0
  144.6760   74.6180  220.2890 N   0  0  0  0  0  0  0  0  0  0  0  0
  144.4380   74.1140  218.9600 C   0  0  0  0  0  0  0  0  0  0  0  0
  141.7570   74.4360  220.3970 N   0  0  0  0  0  0  0  0  0  0  0  0
  141.0680   75.0200  221.3910 C   0  0  0  0  0  0  0  0  0  0  0  0
  141.0200   76.4400  221.4660 N   0  0  0  0  0  0  0  0  0  0  0  0
  141.2900   77.2050  220.2730 C   0  0  0  0  0  0  0  0  0  0  0  0
  140.7760   78.6240  220.3800 C   0  0  0  0  0  0  0  0  0  0  0  0
  141.3260   79.2680  221.6220 C   0  0  0  0  0  0  0  0  0  0  0  0
  141.8380   80.5490  221.5940 C   0  0  0  0  0  0  0  0  0  0  0  0
  142.3200   81.0550  222.7970 C   0  0  0  0  0  0  0  0  0  0  0  0
  142.2850   80.3070  223.9510 C   0  0  0  0  0  0  0  0  0  0  0  0
  141.7680   79.0290  223.9470 C   0  0  0  0  0  0  0  0  0  0  0  0
  141.2790   78.4970  222.7650 C   0  0  0  0  0  0  0  0  0  0  0  0
  140.7060   77.1120  222.7110 C   0  0  0  0  0  0  0  0  0  0  0  0
  140.4460   74.2250  222.2810 N   0  0  0  0  0  0  0  0  0  0  0  0
  138.4810   71.5590  222.8190 C   0  0  0  0  0  0  0  0  0  0  0  0
  138.9301   66.3064  223.6911 H   0  0  0  0  0  0  0  0  0  0  0  0
  137.8847   67.1007  221.5810 H   0  0  0  0  0  0  0  0  0  0  0  0
  137.6493   69.5402  221.1285 H   0  0  0  0  0  0  0  0  0  0  0  0
  139.7493   67.9688  225.3615 H   0  0  0  0  0  0  0  0  0  0  0  0
  138.7695   71.2223  225.5891 H   0  0  0  0  0  0  0  0  0  0  0  0
  140.2125   70.2457  225.9650 H   0  0  0  0  0  0  0  0  0  0  0  0
  140.6436   72.5859  224.9817 H   0  0  0  0  0  0  0  0  0  0  0  0
  141.4542   71.2137  224.1442 H   0  0  0  0  0  0  0  0  0  0  0  0
  141.2609   71.2274  221.0915 H   0  0  0  0  0  0  0  0  0  0  0  0
  142.0660   71.8380  218.5400 H   0  0  0  0  0  0  0  0  0  0  0  0
  144.1388   72.3774  217.8568 H   0  0  0  0  0  0  0  0  0  0  0  0
  144.2651   71.4405  220.6445 H   0  0  0  0  0  0  0  0  0  0  0  0
  145.1841   70.9031  219.2144 H   0  0  0  0  0  0  0  0  0  0  0  0
  146.7059   71.9718  220.8471 H   0  0  0  0  0  0  0  0  0  0  0  0
  146.6027   72.9854  219.3877 H   0  0  0  0  0  0  0  0  0  0  0  0
  144.8819   73.3221  221.9041 H   0  0  0  0  0  0  0  0  0  0  0  0
  146.3375   74.3084  221.4942 H   0  0  0  0  0  0  0  0  0  0  0  0
  143.8120   74.9380  220.7690 H   0  0  0  0  0  0  0  0  0  0  0  0
  143.6584   74.7336  218.4928 H   0  0  0  0  0  0  0  0  0  0  0  0
  145.4018   74.1614  218.4320 H   0  0  0  0  0  0  0  0  0  0  0  0
  142.3771   77.2328  220.1076 H   0  0  0  0  0  0  0  0  0  0  0  0
  140.7716   76.7187  219.4335 H   0  0  0  0  0  0  0  0  0  0  0  0
  141.0972   79.1971  219.4977 H   0  0  0  0  0  0  0  0  0  0  0  0
  139.6773   78.6113  220.4314 H   0  0  0  0  0  0  0  0  0  0  0  0
  141.8638   81.1405  220.6669 H   0  0  0  0  0  0  0  0  0  0  0  0
  142.7370   82.0725  222.8259 H   0  0  0  0  0  0  0  0  0  0  0  0
  142.6739   80.7334  224.8875 H   0  0  0  0  0  0  0  0  0  0  0  0
  141.7440   78.4371  224.8739 H   0  0  0  0  0  0  0  0  0  0  0  0
  141.1184   76.5248  223.5448 H   0  0  0  0  0  0  0  0  0  0  0  0
  139.6116   77.1952  222.7842 H   0  0  0  0  0  0  0  0  0  0  0  0
  137.7329   71.9938  223.4982 H   0  0  0  0  0  0  0  0  0  0  0  0
  138.1634   71.8389  221.8037 H   0  0  0  0  0  0  0  0  0  0  0  0
  1  2  2  0
  2  3  1  0
  3  4  2  0
  4  5  1  0
  5  6  2  0
  5  7  1  0
  7  8  1  0
  8  9  1  0
  9 10  1  0
 10 11  2  0
 11 12  1  0
 12 13  1  0
 13 14  1  0
 14 15  1  0
 15 16  1  0
 16 17  1  0
 17 18  1  0
 18 19  1  0
 12 20  2  0
 20 21  1  0
 21 22  1  0
 22 23  1  0
 23 24  1  0
 24 25  1  0
 25 26  2  0
 26 27  1  0
 27 28  2  0
 28 29  1  0
 29 30  2  0
 30 31  1  0
 21 32  2  0
  9 33  1  0
  6  1  1  0
 32 10  1  0
 33  4  1  0
 19 14  1  0
 31 22  1  0
 30 25  1  0
  1 34  1  0
  2 35  1  0
  3 36  1  0
  6 37  1  0
  7 38  1  0
  7 39  1  0
  8 40  1  0
  8 41  1  0
 11 42  1  0
 13 43  1  0
 14 44  1  6
 15 45  1  0
 15 46  1  0
 16 47  1  0
 16 48  1  0
 17 49  1  0
 17 50  1  0
 18 51  1  0
 19 52  1  0
 19 53  1  0
 23 54  1  0
 23 55  1  0
 24 56  1  0
 24 57  1  0
 26 58  1  0
 27 59  1  0
 28 60  1  0
 29 61  1  0
 31 62  1  0
 31 63  1  0
 33 64  1  0
 33 65  1  0
M  END
>  <smiles>  (15) 
c1ccc2c(c1)CCN(c1cc(NC3CCCNC3)nc(N3CCc4ccccc4C3)n1)C2

>  <score_type>  (15) 
oracle

>  <origin>  (15) 
autodockgpu

>  <m_score__min__energy>  (15) 
-9.3200000000000003

>  <m_primary>  (15) 
energy

>  <rmsd>  (15) 
6.521425493102166

>  <m_score__min__rmsd>  (15) 
6.521425493102166

>  <meeko>  (15) 
{"free_energy": -8.76, "intermolecular_energy": -9.96, "internal_energy": -1.92, "cluster_size": 12, "cluster_id": 1, "rank_in_cluster": 6}

>  <energy>  (15) 
-9.21

>  <cluster_rmsd>  (15) 
0.08

>  <cluster>  (15) 
2

$$$$

     RDKit          3D

 65 70  0  0  0  0  0  0  0  0999 V2000
  139.1920   67.3850  224.0350 C   0  0  0  0  0  0  0  0  0  0  0  0
  138.6670   67.6660  222.7830 C   0  0  0  0  0  0  0  0  0  0  0  0
  138.4660   68.9700  222.3710 C   0  0  0  0  0  0  0  0  0  0  0  0
  138.8070   69.9770  223.2500 C   0  0  0  0  0  0  0  0  0  0  0  0
  139.3330   69.7410  224.5050 C   0  0  0  0  0  0  0  0  0  0  0  0
  139.5210   68.4390  224.8880 C   0  0  0  0  0  0  0  0  0  0  0  0
  139.6640   70.9040  225.3690 C   0  0  0  0  0  0  0  0  0  0  0  0
  140.5060   71.8570  224.5510 C   0  0  0  0  0  0  0  0  0  0  0  0
  139.9200   72.0400  223.2530 N   0  0  0  0  0  0  0  0  0  0  0  0
  140.5890   72.8240  222.2720 C   0  0  0  0  0  0  0  0  0  0  0  0
  141.2800   72.2040  221.2550 C   0  0  0  0  0  0  0  0  0  0  0  0
  141.9540   72.9330  220.2650 C   0  0  0  0  0  0  0  0  0  0  0  0
  142.6410   72.2560  219.2440 N   0  0  0  0  0  0  0  0  0  0  0  0
  144.0190   72.4790  218.8690 C   0  0  2  0  0  0  0  0  0  0  0  0
  144.9600   71.6580  219.7260 C   0  0  0  0  0  0  0  0  0  0  0  0
  146.1390   72.5320  220.0810 C   0  0  0  0  0  0  0  0  0  0  0  0
  145.6080   73.6880  220.9040 C   0  0  0  0  0  0  0  0  0  0  0  0
  144.7120   74.5030  220.1210 N   0  0  0  0  0  0  0  0  0  0  0  0
  144.4110   73.9290  218.8340 C   0  0  0  0  0  0  0  0  0  0  0  0
  141.8730   74.2680  220.3850 N   0  0  0  0  0  0  0  0  0  0  0  0
  141.2090   74.9100  221.3590 C   0  0  0  0  0  0  0  0  0  0  0  0
  141.1980   76.3330  221.3750 N   0  0  0  0  0  0  0  0  0  0  0  0
  141.6890   77.0420  220.2180 C   0  0  0  0  0  0  0  0  0  0  0  0
  141.2130   78.4770  220.1860 C   0  0  0  0  0  0  0  0  0  0  0  0
  141.5690   79.1560  221.4800 C   0  0  0  0  0  0  0  0  0  0  0  0
  142.1210   80.4200  221.4930 C   0  0  0  0  0  0  0  0  0  0  0  0
  142.4140   80.9610  222.7410 C   0  0  0  0  0  0  0  0  0  0  0  0
  142.1610   80.2620  223.8980 C   0  0  0  0  0  0  0  0  0  0  0  0
  141.6090   78.9990  223.8530 C   0  0  0  0  0  0  0  0  0  0  0  0
  141.3060   78.4330  222.6250 C   0  0  0  0  0  0  0  0  0  0  0  0
  140.7040   77.0640  222.5250 C   0  0  0  0  0  0  0  0  0  0  0  0
  140.5780   74.1690  222.2890 N   0  0  0  0  0  0  0  0  0  0  0  0
  138.6280   71.4320  222.8920 C   0  0  0  0  0  0  0  0  0  0  0  0
  139.3474   66.3432  224.3522 H   0  0  0  0  0  0  0  0  0  0  0  0
  138.4064   66.8383  222.1070 H   0  0  0  0  0  0  0  0  0  0  0  0
  138.0493   69.1965  221.3785 H   0  0  0  0  0  0  0  0  0  0  0  0
  139.9374   68.2214  225.8826 H   0  0  0  0  0  0  0  0  0  0  0  0
  138.7400   71.4045  225.6942 H   0  0  0  0  0  0  0  0  0  0  0  0
  140.2120   70.5760  226.2646 H   0  0  0  0  0  0  0  0  0  0  0  0
  140.5616   72.8276  225.0657 H   0  0  0  0  0  0  0  0  0  0  0  0
  141.5163   71.4377  224.4351 H   0  0  0  0  0  0  0  0  0  0  0  0
  141.3039   71.1049  221.2182 H   0  0  0  0  0  0  0  0  0  0  0  0
  142.1200   71.5210  218.6950 H   0  0  0  0  0  0  0  0  0  0  0  0
  144.1112   72.1307  217.8297 H   0  0  0  0  0  0  0  0  0  0  0  0
  144.4451   71.3333  220.6422 H   0  0  0  0  0  0  0  0  0  0  0  0
  145.2945   70.7627  219.1815 H   0  0  0  0  0  0  0  0  0  0  0  0
  146.8713   71.9572  220.6670 H   0  0  0  0  0  0  0  0  0  0  0  0
  146.6416   72.8973  219.1733 H   0  0  0  0  0  0  0  0  0  0  0  0
  145.0667   73.2918  221.7758 H   0  0  0  0  0  0  0  0  0  0  0  0
  146.4558   74.3083  221.2303 H   0  0  0  0  0  0  0  0  0  0  0  0
  143.8680   74.8130  220.6400 H   0  0  0  0  0  0  0  0  0  0  0  0
  143.5802   74.4979  218.3911 H   0  0  0  0  0  0  0  0  0  0  0  0
  145.3378   73.9860  218.2442 H   0  0  0  0  0  0  0  0  0  0  0  0
  142.7888   77.0334  220.2371 H   0  0  0  0  0  0  0  0  0  0  0  0
  141.3015   76.5364  219.3212 H   0  0  0  0  0  0  0  0  0  0  0  0
  141.6967   79.0045  219.3507 H   0  0  0  0  0  0  0  0  0  0  0  0
  140.1214   78.4967  220.0515 H   0  0  0  0  0  0  0  0  0  0  0  0
  142.3197   80.9728  220.5630 H   0  0  0  0  0  0  0  0  0  0  0  0
  142.8561   81.9663  222.8033 H   0  0  0  0  0  0  0  0  0  0  0  0
  142.4017   80.7156  224.8708 H   0  0  0  0  0  0  0  0  0  0  0  0
  141.4111   78.4461  224.7831 H   0  0  0  0  0  0  0  0  0  0  0  0
  140.9517   76.5003  223.4366 H   0  0  0  0  0  0  0  0  0  0  0  0
  139.6162   77.1802  222.4103 H   0  0  0  0  0  0  0  0  0  0  0  0
  137.8075   71.8807  223.4712 H   0  0  0  0  0  0  0  0  0  0  0  0
  138.3660   71.5824  221.8343 H   0  0  0  0  0  0  0  0  0  0  0  0
  1  2  2  0
  2  3  1  0
  3  4  2  0
  4  5  1  0
  5  6  2  0
  5  7  1  0
  7  8  1  0
  8  9  1  0
  9 10  1  0
 10 11  2  0
 11 12  1  0
 12 13  1  0
 13 14  1  0
 14 15  1  0
 15 16  1  0
 16 17  1  0
 17 18  1  0
 18 19  1  0
 12 20  2  0
 20 21  1  0
 21 22  1  0
 22 23  1  0
 23 24  1  0
 24 25  1  0
 25 26  2  0
 26 27  1  0
 27 28  2  0
 28 29  1  0
 29 30  2  0
 30 31  1  0
 21 32  2  0
  9 33  1  0
  6  1  1  0
 32 10  1  0
 33  4  1  0
 19 14  1  0
 31 22  1  0
 30 25  1  0
  1 34  1  0
  2 35  1  0
  3 36  1  0
  6 37  1  0
  7 38  1  0
  7 39  1  0
  8 40  1  0
  8 41  1  0
 11 42  1  0
 13 43  1  0
 14 44  1  6
 15 45  1  0
 15 46  1  0
 16 47  1  0
 16 48  1  0
 17 49  1  0
 17 50  1  0
 18 51  1  0
 19 52  1  0
 19 53  1  0
 23 54  1  0
 23 55  1  0
 24 56  1  0
 24 57  1  0
 26 58  1  0
 27 59  1  0
 28 60  1  0
 29 61  1  0
 31 62  1  0
 31 63  1  0
 33 64  1  0
 33 65  1  0
M  END
>  <smiles>  (16) 
c1ccc2c(c1)CCN(c1cc(NC3CCCNC3)nc(N3CCc4ccccc4C3)n1)C2

>  <score_type>  (16) 
oracle

>  <origin>  (16) 
autodockgpu

>  <m_score__min__energy>  (16) 
-9.3200000000000003

>  <m_primary>  (16) 
energy

>  <rmsd>  (16) 
6.673484337202039

>  <m_score__min__rmsd>  (16) 
6.673484337202039

>  <meeko>  (16) 
{"free_energy": -8.75, "intermolecular_energy": -9.94, "internal_energy": -1.91, "cluster_size": 12, "cluster_id": 1, "rank_in_cluster": 7}

>  <energy>  (16) 
-9.21

>  <cluster_rmsd>  (16) 
0.05

>  <cluster>  (16) 
2

$$$$

     RDKit          3D

 65 70  0  0  0  0  0  0  0  0999 V2000
  140.2700   69.7590  228.0980 C   0  0  0  0  0  0  0  0  0  0  0  0
  140.8990   70.9840  227.9340 C   0  0  0  0  0  0  0  0  0  0  0  0
  141.0930   71.5230  226.6770 C   0  0  0  0  0  0  0  0  0  0  0  0
  140.6370   70.7990  225.5940 C   0  0  0  0  0  0  0  0  0  0  0  0
  140.0050   69.5770  225.7130 C   0  0  0  0  0  0  0  0  0  0  0  0
  139.8260   69.0660  226.9710 C   0  0  0  0  0  0  0  0  0  0  0  0
  139.5550   68.8840  224.4770 C   0  0  0  0  0  0  0  0  0  0  0  0
  138.7610   69.8780  223.6590 C   0  0  0  0  0  0  0  0  0  0  0  0
  139.4590   71.1310  223.5950 N   0  0  0  0  0  0  0  0  0  0  0  0
  138.8580   72.2510  222.9550 C   0  0  0  0  0  0  0  0  0  0  0  0
  137.5430   72.1840  222.5500 C   0  0  0  0  0  0  0  0  0  0  0  0
  136.9070   73.2610  221.9170 C   0  0  0  0  0  0  0  0  0  0  0  0
  135.5620   73.1470  221.5270 N   0  0  0  0  0  0  0  0  0  0  0  0
  134.4260   73.6140  222.2880 C   0  0  2  0  0  0  0  0  0  0  0  0
  134.2450   75.1110  222.1390 C   0  0  0  0  0  0  0  0  0  0  0  0
  133.9000   75.6690  223.5010 C   0  0  0  0  0  0  0  0  0  0  0  0
  135.0860   75.4040  224.4060 C   0  0  0  0  0  0  0  0  0  0  0  0
  135.2890   73.9880  224.5810 N   0  0  0  0  0  0  0  0  0  0  0  0
  134.4440   73.1900  223.7290 C   0  0  0  0  0  0  0  0  0  0  0  0
  137.6710   74.3500  221.7390 N   0  0  0  0  0  0  0  0  0  0  0  0
  138.9540   74.4560  222.1190 C   0  0  0  0  0  0  0  0  0  0  0  0
  139.6570   75.6680  221.8740 N   0  0  0  0  0  0  0  0  0  0  0  0
  141.0240   75.5960  221.4170 C   0  0  0  0  0  0  0  0  0  0  0  0
  141.4810   76.8900  220.7830 C   0  0  0  0  0  0  0  0  0  0  0  0
  141.2450   78.0310  221.7350 C   0  0  0  0  0  0  0  0  0  0  0  0
  142.2100   78.9920  221.9490 C   0  0  0  0  0  0  0  0  0  0  0  0
  141.8930   80.0060  222.8470 C   0  0  0  0  0  0  0  0  0  0  0  0
  140.6750   80.0380  223.4860 C   0  0  0  0  0  0  0  0  0  0  0  0
  139.7300   79.0620  223.2520 C   0  0  0  0  0  0  0  0  0  0  0  0
  140.0160   78.0390  222.3620 C   0  0  0  0  0  0  0  0  0  0  0  0
  139.0200   76.9550  222.0750 C   0  0  0  0  0  0  0  0  0  0  0  0
  139.5240   73.3960  222.7230 N   0  0  0  0  0  0  0  0  0  0  0  0
  140.7990   71.3040  224.1820 C   0  0  0  0  0  0  0  0  0  0  0  0
  140.1229   69.3388  229.1039 H   0  0  0  0  0  0  0  0  0  0  0  0
  141.2491   71.5354  228.8191 H   0  0  0  0  0  0  0  0  0  0  0  0
  141.5927   72.4939  226.5440 H   0  0  0  0  0  0  0  0  0  0  0  0
  139.3247   68.0947  227.0949 H   0  0  0  0  0  0  0  0  0  0  0  0
  140.4268   68.5371  223.9029 H   0  0  0  0  0  0  0  0  0  0  0  0
  138.9374   68.0090  224.7277 H   0  0  0  0  0  0  0  0  0  0  0  0
  138.6243   69.4849  222.6408 H   0  0  0  0  0  0  0  0  0  0  0  0
  137.7811   70.0347  224.1335 H   0  0  0  0  0  0  0  0  0  0  0  0
  136.9756   71.2587  222.7285 H   0  0  0  0  0  0  0  0  0  0  0  0
  135.3490   72.6820  220.6040 H   0  0  0  0  0  0  0  0  0  0  0  0
  133.5453   73.1177  221.8543 H   0  0  0  0  0  0  0  0  0  0  0  0
  135.1767   75.5665  221.7723 H   0  0  0  0  0  0  0  0  0  0  0  0
  133.4450   75.3329  221.4174 H   0  0  0  0  0  0  0  0  0  0  0  0
  133.7147   76.7509  223.4294 H   0  0  0  0  0  0  0  0  0  0  0  0
  132.9908   75.1946  223.8990 H   0  0  0  0  0  0  0  0  0  0  0  0
  135.9881   75.8450  223.9569 H   0  0  0  0  0  0  0  0  0  0  0  0
  134.8878   75.8562  225.3890 H   0  0  0  0  0  0  0  0  0  0  0  0
  136.2870   73.7010  224.5540 H   0  0  0  0  0  0  0  0  0  0  0  0
  134.7960   72.1489  223.7755 H   0  0  0  0  0  0  0  0  0  0  0  0
  133.4173   73.3168  224.1030 H   0  0  0  0  0  0  0  0  0  0  0  0
  141.6738   75.3732  222.2761 H   0  0  0  0  0  0  0  0  0  0  0  0
  141.0849   74.8054  220.6546 H   0  0  0  0  0  0  0  0  0  0  0  0
  142.5540   76.8242  220.5497 H   0  0  0  0  0  0  0  0  0  0  0  0
  140.9123   77.0635  219.8576 H   0  0  0  0  0  0  0  0  0  0  0  0
  143.1821   78.9586  221.4353 H   0  0  0  0  0  0  0  0  0  0  0  0
  142.6299   80.7970  223.0500 H   0  0  0  0  0  0  0  0  0  0  0  0
  140.4527   80.8519  224.1918 H   0  0  0  0  0  0  0  0  0  0  0  0
  138.7584   79.0949  223.7667 H   0  0  0  0  0  0  0  0  0  0  0  0
  138.3251   76.8780  222.9242 H   0  0  0  0  0  0  0  0  0  0  0  0
  138.4899   77.2190  221.1480 H   0  0  0  0  0  0  0  0  0  0  0  0
  141.5464   70.7098  223.6359 H   0  0  0  0  0  0  0  0  0  0  0  0
  141.1529   72.3446  224.1388 H   0  0  0  0  0  0  0  0  0  0  0  0
  1  2  2  0
  2  3  1  0
  3  4  2  0
  4  5  1  0
  5  6  2  0
  5  7  1  0
  7  8  1  0
  8  9  1  0
  9 10  1  0
 10 11  2  0
 11 12  1  0
 12 13  1  0
 13 14  1  0
 14 15  1  0
 15 16  1  0
 16 17  1  0
 17 18  1  0
 18 19  1  0
 12 20  2  0
 20 21  1  0
 21 22  1  0
 22 23  1  0
 23 24  1  0
 24 25  1  0
 25 26  2  0
 26 27  1  0
 27 28  2  0
 28 29  1  0
 29 30  2  0
 30 31  1  0
 21 32  2  0
  9 33  1  0
  6  1  1  0
 32 10  1  0
 33  4  1  0
 19 14  1  0
 31 22  1  0
 30 25  1  0
  1 34  1  0
  2 35  1  0
  3 36  1  0
  6 37  1  0
  7 38  1  0
  7 39  1  0
  8 40  1  0
  8 41  1  0
 11 42  1  0
 13 43  1  0
 14 44  1  6
 15 45  1  0
 15 46  1  0
 16 47  1  0
 16 48  1  0
 17 49  1  0
 17 50  1  0
 18 51  1  0
 19 52  1  0
 19 53  1  0
 23 54  1  0
 23 55  1  0
 24 56  1  0
 24 57  1  0
 26 58  1  0
 27 59  1  0
 28 60  1  0
 29 61  1  0
 31 62  1  0
 31 63  1  0
 33 64  1  0
 33 65  1  0
M  END
>  <smiles>  (17) 
c1ccc2c(c1)CCN(c1cc(NC3CCCNC3)nc(N3CCc4ccccc4C3)n1)C2

>  <score_type>  (17) 
oracle

>  <origin>  (17) 
autodockgpu

>  <m_score__min__energy>  (17) 
-9.3200000000000003

>  <m_primary>  (17) 
energy

>  <rmsd>  (17) 
7.874064419799254

>  <m_score__min__rmsd>  (17) 
7.874064419799254

>  <meeko>  (17) 
{"free_energy": -9.07, "intermolecular_energy": -10.26, "internal_energy": -1.39, "cluster_size": 26, "cluster_id": 2, "rank_in_cluster": 16}

>  <energy>  (17) 
-9.21

>  <cluster_rmsd>  (17) 
0.18

>  <cluster>  (17) 
2

$$$$

     RDKit          3D

 65 70  0  0  0  0  0  0  0  0999 V2000
  143.3230   76.5200  217.0340 C   0  0  0  0  0  0  0  0  0  0  0  0
  143.5320   75.1660  217.2490 C   0  0  0  0  0  0  0  0  0  0  0  0
  143.2540   74.5890  218.4730 C   0  0  0  0  0  0  0  0  0  0  0  0
  142.7620   75.4060  219.4690 C   0  0  0  0  0  0  0  0  0  0  0  0
  142.5390   76.7580  219.2970 C   0  0  0  0  0  0  0  0  0  0  0  0
  142.8230   77.3060  218.0740 C   0  0  0  0  0  0  0  0  0  0  0  0
  142.0070   77.5440  220.4410 C   0  0  0  0  0  0  0  0  0  0  0  0
  140.7940   76.8130  220.9720 C   0  0  0  0  0  0  0  0  0  0  0  0
  141.0830   75.4130  221.1050 N   0  0  0  0  0  0  0  0  0  0  0  0
  140.0600   74.5080  221.5000 C   0  0  0  0  0  0  0  0  0  0  0  0
  138.7810   74.6630  221.0100 C   0  0  0  0  0  0  0  0  0  0  0  0
  137.7400   73.7960  221.3690 C   0  0  0  0  0  0  0  0  0  0  0  0
  136.4530   73.9910  220.8390 N   0  0  0  0  0  0  0  0  0  0  0  0
  135.2650   74.2830  221.6080 C   0  0  2  0  0  0  0  0  0  0  0  0
  135.2280   75.7370  222.0290 C   0  0  0  0  0  0  0  0  0  0  0  0
  134.7460   75.7890  223.4600 C   0  0  0  0  0  0  0  0  0  0  0  0
  135.7710   75.0590  224.3040 C   0  0  0  0  0  0  0  0  0  0  0  0
  135.8330   73.6650  223.9400 N   0  0  0  0  0  0  0  0  0  0  0  0
  135.0510   73.3550  222.7700 C   0  0  0  0  0  0  0  0  0  0  0  0
  138.0820   72.8130  222.2180 N   0  0  0  0  0  0  0  0  0  0  0  0
  139.3150   72.6280  222.7170 C   0  0  0  0  0  0  0  0  0  0  0  0
  139.5500   71.5450  223.6100 N   0  0  0  0  0  0  0  0  0  0  0  0
  138.6180   70.4430  223.6220 C   0  0  0  0  0  0  0  0  0  0  0  0
  139.2110   69.2050  224.2570 C   0  0  0  0  0  0  0  0  0  0  0  0
  139.7340   69.5400  225.6260 C   0  0  0  0  0  0  0  0  0  0  0  0
  139.4810   68.7200  226.7070 C   0  0  0  0  0  0  0  0  0  0  0  0
  140.0110   69.1190  227.9300 C   0  0  0  0  0  0  0  0  0  0  0  0
  140.7480   70.2740  228.0460 C   0  0  0  0  0  0  0  0  0  0  0  0
  140.9840   71.0740  226.9470 C   0  0  0  0  0  0  0  0  0  0  0  0
  140.4700   70.7040  225.7140 C   0  0  0  0  0  0  0  0  0  0  0  0
  140.7000   71.5400  224.4920 C   0  0  0  0  0  0  0  0  0  0  0  0
  140.2830   73.4850  222.3450 N   0  0  0  0  0  0  0  0  0  0  0  0
  142.4250   74.8700  220.8380 C   0  0  0  0  0  0  0  0  0  0  0  0
  143.5485   76.9694  216.0556 H   0  0  0  0  0  0  0  0  0  0  0  0
  143.9250   74.5421  216.4327 H   0  0  0  0  0  0  0  0  0  0  0  0
  143.4193   73.5155  218.6470 H   0  0  0  0  0  0  0  0  0  0  0  0
  142.6547   78.3805  217.9090 H   0  0  0  0  0  0  0  0  0  0  0  0
  142.7709   77.6248  221.2283 H   0  0  0  0  0  0  0  0  0  0  0  0
  141.7359   78.5603  220.1192 H   0  0  0  0  0  0  0  0  0  0  0  0
  140.5229   77.2239  221.9557 H   0  0  0  0  0  0  0  0  0  0  0  0
  139.9578   76.9437  220.2694 H   0  0  0  0  0  0  0  0  0  0  0  0
  138.5713   75.4912  220.3171 H   0  0  0  0  0  0  0  0  0  0  0  0
  136.3300   73.9210  219.7940 H   0  0  0  0  0  0  0  0  0  0  0  0
  134.4148   74.1007  220.9343 H   0  0  0  0  0  0  0  0  0  0  0  0
  136.2350   76.1736  221.9568 H   0  0  0  0  0  0  0  0  0  0  0  0
  134.5548   76.3104  221.3748 H   0  0  0  0  0  0  0  0  0  0  0  0
  134.6605   76.8344  223.7913 H   0  0  0  0  0  0  0  0  0  0  0  0
  133.7555   75.3204  223.5560 H   0  0  0  0  0  0  0  0  0  0  0  0
  136.7589   75.5169  224.1482 H   0  0  0  0  0  0  0  0  0  0  0  0
  135.4768   75.1352  225.3612 H   0  0  0  0  0  0  0  0  0  0  0  0
  136.7990   73.2850  223.9010 H   0  0  0  0  0  0  0  0  0  0  0  0
  135.3080   72.3356  222.4463 H   0  0  0  0  0  0  0  0  0  0  0  0
  133.9964   73.4628  223.0636 H   0  0  0  0  0  0  0  0  0  0  0  0
  137.7243   70.7401  224.1904 H   0  0  0  0  0  0  0  0  0  0  0  0
  138.3648   70.2014  222.5792 H   0  0  0  0  0  0  0  0  0  0  0  0
  138.4352   68.4297  224.3414 H   0  0  0  0  0  0  0  0  0  0  0  0
  140.0366   68.8342  223.6318 H   0  0  0  0  0  0  0  0  0  0  0  0
  138.8902   67.7976  226.6067 H   0  0  0  0  0  0  0  0  0  0  0  0
  139.8370   68.4984  228.8214 H   0  0  0  0  0  0  0  0  0  0  0  0
  141.1542   70.5635  229.0264 H   0  0  0  0  0  0  0  0  0  0  0  0
  141.5744   71.9966  227.0483 H   0  0  0  0  0  0  0  0  0  0  0  0
  140.9121   72.5733  224.8040 H   0  0  0  0  0  0  0  0  0  0  0  0
  141.5478   71.1074  223.9405 H   0  0  0  0  0  0  0  0  0  0  0  0
  143.1480   75.2251  221.5871 H   0  0  0  0  0  0  0  0  0  0  0  0
  142.4575   73.7715  220.8855 H   0  0  0  0  0  0  0  0  0  0  0  0
  1  2  2  0
  2  3  1  0
  3  4  2  0
  4  5  1  0
  5  6  2  0
  5  7  1  0
  7  8  1  0
  8  9  1  0
  9 10  1  0
 10 11  2  0
 11 12  1  0
 12 13  1  0
 13 14  1  0
 14 15  1  0
 15 16  1  0
 16 17  1  0
 17 18  1  0
 18 19  1  0
 12 20  2  0
 20 21  1  0
 21 22  1  0
 22 23  1  0
 23 24  1  0
 24 25  1  0
 25 26  2  0
 26 27  1  0
 27 28  2  0
 28 29  1  0
 29 30  2  0
 30 31  1  0
 21 32  2  0
  9 33  1  0
  6  1  1  0
 32 10  1  0
 33  4  1  0
 19 14  1  0
 31 22  1  0
 30 25  1  0
  1 34  1  0
  2 35  1  0
  3 36  1  0
  6 37  1  0
  7 38  1  0
  7 39  1  0
  8 40  1  0
  8 41  1  0
 11 42  1  0
 13 43  1  0
 14 44  1  6
 15 45  1  0
 15 46  1  0
 16 47  1  0
 16 48  1  0
 17 49  1  0
 17 50  1  0
 18 51  1  0
 19 52  1  0
 19 53  1  0
 23 54  1  0
 23 55  1  0
 24 56  1  0
 24 57  1  0
 26 58  1  0
 27 59  1  0
 28 60  1  0
 29 61  1  0
 31 62  1  0
 31 63  1  0
 33 64  1  0
 33 65  1  0
M  END
>  <smiles>  (18) 
c1ccc2c(c1)CCN(c1cc(NC3CCCNC3)nc(N3CCc4ccccc4C3)n1)C2

>  <score_type>  (18) 
oracle

>  <origin>  (18) 
autodockgpu

>  <m_score__min__energy>  (18) 
-9.3200000000000003

>  <m_primary>  (18) 
energy

>  <rmsd>  (18) 
6.7519158420341885

>  <m_score__min__rmsd>  (18) 
6.7519158420341885

>  <meeko>  (18) 
{"free_energy": -8.51, "intermolecular_energy": -9.7, "internal_energy": -1.93, "cluster_size": 5, "cluster_id": 3, "rank_in_cluster": 2}

>  <energy>  (18) 
-9.2

>  <cluster_rmsd>  (18) 
0.05

>  <cluster>  (18) 
2

$$$$

     RDKit          3D

 65 70  0  0  0  0  0  0  0  0999 V2000
  131.4660   72.2990  227.7780 C   0  0  0  0  0  0  0  0  0  0  0  0
  131.4750   71.2900  226.8270 C   0  0  0  0  0  0  0  0  0  0  0  0
  132.0100   71.5010  225.5710 C   0  0  0  0  0  0  0  0  0  0  0  0
  132.5340   72.7480  225.3000 C   0  0  0  0  0  0  0  0  0  0  0  0
  132.5460   73.7800  226.2180 C   0  0  0  0  0  0  0  0  0  0  0  0
  132.0090   73.5440  227.4560 C   0  0  0  0  0  0  0  0  0  0  0  0
  133.1360   75.0840  225.8170 C   0  0  0  0  0  0  0  0  0  0  0  0
  134.5020   74.8060  225.2300 C   0  0  0  0  0  0  0  0  0  0  0  0
  134.4250   73.7110  224.3050 N   0  0  0  0  0  0  0  0  0  0  0  0
  135.6090   73.2070  223.6960 C   0  0  0  0  0  0  0  0  0  0  0  0
  136.0250   73.7140  222.4850 C   0  0  0  0  0  0  0  0  0  0  0  0
  137.1840   73.2510  221.8470 C   0  0  0  0  0  0  0  0  0  0  0  0
  137.5720   73.8030  220.6140 N   0  0  0  0  0  0  0  0  0  0  0  0
  138.9000   74.2700  220.2860 C   0  0  2  0  0  0  0  0  0  0  0  0
  139.7070   73.1870  219.6000 C   0  0  0  0  0  0  0  0  0  0  0  0
  141.1060   73.2270  220.1700 C   0  0  0  0  0  0  0  0  0  0  0  0
  140.9980   72.9000  221.6450 C   0  0  0  0  0  0  0  0  0  0  0  0
  140.2410   73.9130  222.3390 N   0  0  0  0  0  0  0  0  0  0  0  0
  139.6370   74.8720  221.4480 C   0  0  0  0  0  0  0  0  0  0  0  0
  137.8490   72.2860  222.5010 N   0  0  0  0  0  0  0  0  0  0  0  0
  137.4780   71.7660  223.6820 C   0  0  0  0  0  0  0  0  0  0  0  0
  138.2710   70.7440  224.2760 N   0  0  0  0  0  0  0  0  0  0  0  0
  137.7530   69.3980  224.3110 C   0  0  0  0  0  0  0  0  0  0  0  0
  138.8430   68.3750  224.5430 C   0  0  0  0  0  0  0  0  0  0  0  0
  139.6170   68.7340  225.7810 C   0  0  0  0  0  0  0  0  0  0  0  0
  139.9420   67.7770  226.7210 C   0  0  0  0  0  0  0  0  0  0  0  0
  140.6610   68.2110  227.8300 C   0  0  0  0  0  0  0  0  0  0  0  0
  141.0240   69.5300  227.9740 C   0  0  0  0  0  0  0  0  0  0  0  0
  140.6830   70.4640  227.0180 C   0  0  0  0  0  0  0  0  0  0  0  0
  139.9680   70.0630  225.9010 C   0  0  0  0  0  0  0  0  0  0  0  0
  139.5750   71.0410  224.8350 C   0  0  0  0  0  0  0  0  0  0  0  0
  136.3570   72.2400  224.2580 N   0  0  0  0  0  0  0  0  0  0  0  0
  133.1430   73.0750  223.9590 C   0  0  0  0  0  0  0  0  0  0  0  0
  131.0360   72.1205  228.7746 H   0  0  0  0  0  0  0  0  0  0  0  0
  131.0497   70.3067  227.0764 H   0  0  0  0  0  0  0  0  0  0  0  0
  132.0179   70.7031  224.8139 H   0  0  0  0  0  0  0  0  0  0  0  0
  132.0057   74.3474  228.2074 H   0  0  0  0  0  0  0  0  0  0  0  0
  132.4965   75.5699  225.0654 H   0  0  0  0  0  0  0  0  0  0  0  0
  133.2175   75.7547  226.6850 H   0  0  0  0  0  0  0  0  0  0  0  0
  134.8619   75.7026  224.7040 H   0  0  0  0  0  0  0  0  0  0  0  0
  135.1975   74.5452  226.0413 H   0  0  0  0  0  0  0  0  0  0  0  0
  135.4306   74.5051  222.0046 H   0  0  0  0  0  0  0  0  0  0  0  0
  136.8430   73.8910  219.8570 H   0  0  0  0  0  0  0  0  0  0  0  0
  138.7640   75.0978  219.5744 H   0  0  0  0  0  0  0  0  0  0  0  0
  139.2526   72.2035  219.7905 H   0  0  0  0  0  0  0  0  0  0  0  0
  139.7287   73.3525  218.5127 H   0  0  0  0  0  0  0  0  0  0  0  0
  141.7403   72.4838  219.6646 H   0  0  0  0  0  0  0  0  0  0  0  0
  141.5599   74.2180  220.0219 H   0  0  0  0  0  0  0  0  0  0  0  0
  140.4949   71.9290  221.7635 H   0  0  0  0  0  0  0  0  0  0  0  0
  142.0106   72.8606  222.0730 H   0  0  0  0  0  0  0  0  0  0  0  0
  139.5790   73.5320  223.0420 H   0  0  0  0  0  0  0  0  0  0  0  0
  138.9258   75.4784  222.0281 H   0  0  0  0  0  0  0  0  0  0  0  0
  140.4612   75.4626  221.0215 H   0  0  0  0  0  0  0  0  0  0  0  0
  137.0165   69.3224  225.1245 H   0  0  0  0  0  0  0  0  0  0  0  0
  137.2922   69.1867  223.3348 H   0  0  0  0  0  0  0  0  0  0  0  0
  138.3905   67.3804  224.6698 H   0  0  0  0  0  0  0  0  0  0  0  0
  139.5226   68.3630  223.6781 H   0  0  0  0  0  0  0  0  0  0  0  0
  139.6473   66.7242  226.5993 H   0  0  0  0  0  0  0  0  0  0  0  0
  140.9447   67.4855  228.6067 H   0  0  0  0  0  0  0  0  0  0  0  0
  141.5928   69.8435  228.8618 H   0  0  0  0  0  0  0  0  0  0  0  0
  140.9759   71.5171  227.1412 H   0  0  0  0  0  0  0  0  0  0  0  0
  139.5523   72.0507  225.2710 H   0  0  0  0  0  0  0  0  0  0  0  0
  140.3147   70.9729  224.0237 H   0  0  0  0  0  0  0  0  0  0  0  0
  132.5010   73.7675  223.3948 H   0  0  0  0  0  0  0  0  0  0  0  0
  133.2652   72.1892  223.3184 H   0  0  0  0  0  0  0  0  0  0  0  0
  1  2  2  0
  2  3  1  0
  3  4  2  0
  4  5  1  0
  5  6  2  0
  5  7  1  0
  7  8  1  0
  8  9  1  0
  9 10  1  0
 10 11  2  0
 11 12  1  0
 12 13  1  0
 13 14  1  0
 14 15  1  0
 15 16  1  0
 16 17  1  0
 17 18  1  0
 18 19  1  0
 12 20  2  0
 20 21  1  0
 21 22  1  0
 22 23  1  0
 23 24  1  0
 24 25  1  0
 25 26  2  0
 26 27  1  0
 27 28  2  0
 28 29  1  0
 29 30  2  0
 30 31  1  0
 21 32  2  0
  9 33  1  0
  6  1  1  0
 32 10  1  0
 33  4  1  0
 19 14  1  0
 31 22  1  0
 30 25  1  0
  1 34  1  0
  2 35  1  0
  3 36  1  0
  6 37  1  0
  7 38  1  0
  7 39  1  0
  8 40  1  0
  8 41  1  0
 11 42  1  0
 13 43  1  0
 14 44  1  6
 15 45  1  0
 15 46  1  0
 16 47  1  0
 16 48  1  0
 17 49  1  0
 17 50  1  0
 18 51  1  0
 19 52  1  0
 19 53  1  0
 23 54  1  0
 23 55  1  0
 24 56  1  0
 24 57  1  0
 26 58  1  0
 27 59  1  0
 28 60  1  0
 29 61  1  0
 31 62  1  0
 31 63  1  0
 33 64  1  0
 33 65  1  0
M  END
>  <smiles>  (19) 
c1ccc2c(c1)CCN(c1cc(NC3CCCNC3)nc(N3CCc4ccccc4C3)n1)C2

>  <score_type>  (19) 
oracle

>  <origin>  (19) 
autodockgpu

>  <m_score__min__energy>  (19) 
-9.3200000000000003

>  <m_primary>  (19) 
energy

>  <rmsd>  (19) 
5.912522443247985

>  <m_score__min__rmsd>  (19) 
5.912522443247985

>  <meeko>  (19) 
{"free_energy": -8.33, "intermolecular_energy": -9.52, "internal_energy": -1.97, "cluster_size": 2, "cluster_id": 4, "rank_in_cluster": 2}

>  <energy>  (19) 
-9.2

>  <cluster_rmsd>  (19) 
0.39

>  <cluster>  (19) 
2

$$$$

     RDKit          3D

 65 70  0  0  0  0  0  0  0  0999 V2000
  140.1320   69.6500  227.5940 C   0  0  0  0  0  0  0  0  0  0  0  0
  140.7940   70.8680  227.5560 C   0  0  0  0  0  0  0  0  0  0  0  0
  141.0190   71.5190  226.3590 C   0  0  0  0  0  0  0  0  0  0  0  0
  140.5620   70.9140  225.2060 C   0  0  0  0  0  0  0  0  0  0  0  0
  139.8980   69.7030  225.1990 C   0  0  0  0  0  0  0  0  0  0  0  0
  139.6880   69.0790  226.4000 C   0  0  0  0  0  0  0  0  0  0  0  0
  139.4500   69.1440  223.8970 C   0  0  0  0  0  0  0  0  0  0  0  0
  138.6920   70.2320  223.1690 C   0  0  0  0  0  0  0  0  0  0  0  0
  139.4220   71.4670  223.2340 N   0  0  0  0  0  0  0  0  0  0  0  0
  138.8590   72.6580  222.6970 C   0  0  0  0  0  0  0  0  0  0  0  0
  137.5340   72.6790  222.3200 C   0  0  0  0  0  0  0  0  0  0  0  0
  136.9340   73.8290  221.7880 C   0  0  0  0  0  0  0  0  0  0  0  0
  135.5770   73.8040  221.4230 N   0  0  0  0  0  0  0  0  0  0  0  0
  134.4650   74.0490  222.3130 C   0  0  2  0  0  0  0  0  0  0  0  0
  134.2460   75.5330  222.5210 C   0  0  0  0  0  0  0  0  0  0  0  0
  133.9490   75.7520  223.9860 C   0  0  0  0  0  0  0  0  0  0  0  0
  135.1770   75.3240  224.7610 C   0  0  0  0  0  0  0  0  0  0  0  0
  135.4180   73.9110  224.5970 N   0  0  0  0  0  0  0  0  0  0  0  0
  134.5540   73.3050  223.6150 C   0  0  0  0  0  0  0  0  0  0  0  0
  137.7410   74.8950  221.6760 N   0  0  0  0  0  0  0  0  0  0  0  0
  139.0360   74.9150  222.0320 C   0  0  0  0  0  0  0  0  0  0  0  0
  139.7870   76.1120  221.8630 N   0  0  0  0  0  0  0  0  0  0  0  0
  141.1160   76.0220  221.3080 C   0  0  0  0  0  0  0  0  0  0  0  0
  141.6020   77.3530  220.7790 C   0  0  0  0  0  0  0  0  0  0  0  0
  141.4900   78.3970  221.8570 C   0  0  0  0  0  0  0  0  0  0  0  0
  142.5190   79.2830  222.1000 C   0  0  0  0  0  0  0  0  0  0  0  0
  142.3160   80.2100  223.1180 C   0  0  0  0  0  0  0  0  0  0  0  0
  141.1450   80.2330  223.8390 C   0  0  0  0  0  0  0  0  0  0  0  0
  140.1350   79.3330  223.5730 C   0  0  0  0  0  0  0  0  0  0  0  0
  140.3060   78.3970  222.5650 C   0  0  0  0  0  0  0  0  0  0  0  0
  139.2370   77.3990  222.2380 C   0  0  0  0  0  0  0  0  0  0  0  0
  139.5710   73.7880  222.5380 N   0  0  0  0  0  0  0  0  0  0  0  0
  140.7570   71.5470  223.8510 C   0  0  0  0  0  0  0  0  0  0  0  0
  139.9589   69.1401  228.5532 H   0  0  0  0  0  0  0  0  0  0  0  0
  141.1454   71.3227  228.4940 H   0  0  0  0  0  0  0  0  0  0  0  0
  141.5437   72.4852  226.3258 H   0  0  0  0  0  0  0  0  0  0  0  0
  139.1616   68.1134  226.4241 H   0  0  0  0  0  0  0  0  0  0  0  0
  140.3216   68.8321  223.3028 H   0  0  0  0  0  0  0  0  0  0  0  0
  138.8080   68.2647  224.0543 H   0  0  0  0  0  0  0  0  0  0  0  0
  138.5598   69.9419  222.1162 H   0  0  0  0  0  0  0  0  0  0  0  0
  137.7095   70.3678  223.6447 H   0  0  0  0  0  0  0  0  0  0  0  0
  136.9298   71.7677  222.4398 H   0  0  0  0  0  0  0  0  0  0  0  0
  135.3350   73.5880  220.4190 H   0  0  0  0  0  0  0  0  0  0  0  0
  133.5769   73.6399  221.8090 H   0  0  0  0  0  0  0  0  0  0  0  0
  135.1510   76.0891  222.2349 H   0  0  0  0  0  0  0  0  0  0  0  0
  133.4107   75.8901  221.9007 H   0  0  0  0  0  0  0  0  0  0  0  0
  133.7372   76.8151  224.1727 H   0  0  0  0  0  0  0  0  0  0  0  0
  133.0688   75.1702  224.2970 H   0  0  0  0  0  0  0  0  0  0  0  0
  136.0493   75.8840  224.3930 H   0  0  0  0  0  0  0  0  0  0  0  0
  135.0115   75.5325  225.8283 H   0  0  0  0  0  0  0  0  0  0  0  0
  136.4190   73.6690  224.4680 H   0  0  0  0  0  0  0  0  0  0  0  0
  134.9298   72.2925  223.4061 H   0  0  0  0  0  0  0  0  0  0  0  0
  133.5419   73.3105  224.0459 H   0  0  0  0  0  0  0  0  0  0  0  0
  141.8059   75.6788  222.0930 H   0  0  0  0  0  0  0  0  0  0  0  0
  141.0850   75.3137  220.4670 H   0  0  0  0  0  0  0  0  0  0  0  0
  142.6527   77.2610  220.4665 H   0  0  0  0  0  0  0  0  0  0  0  0
  140.9858   77.6503  219.9176 H   0  0  0  0  0  0  0  0  0  0  0  0
  143.4525   79.2581  221.5187 H   0  0  0  0  0  0  0  0  0  0  0  0
  143.1071   80.9381  223.3504 H   0  0  0  0  0  0  0  0  0  0  0  0
  141.0127   80.9782  224.6373 H   0  0  0  0  0  0  0  0  0  0  0  0
  139.2021   79.3575  224.1553 H   0  0  0  0  0  0  0  0  0  0  0  0
  138.5943   77.2661  223.1207 H   0  0  0  0  0  0  0  0  0  0  0  0
  138.6650   77.7848  221.3812 H   0  0  0  0  0  0  0  0  0  0  0  0
  141.4969   70.9878  223.2594 H   0  0  0  0  0  0  0  0  0  0  0  0
  141.1378   72.5772  223.9121 H   0  0  0  0  0  0  0  0  0  0  0  0
  1  2  2  0
  2  3  1  0
  3  4  2  0
  4  5  1  0
  5  6  2  0
  5  7  1  0
  7  8  1  0
  8  9  1  0
  9 10  1  0
 10 11  2  0
 11 12  1  0
 12 13  1  0
 13 14  1  0
 14 15  1  0
 15 16  1  0
 16 17  1  0
 17 18  1  0
 18 19  1  0
 12 20  2  0
 20 21  1  0
 21 22  1  0
 22 23  1  0
 23 24  1  0
 24 25  1  0
 25 26  2  0
 26 27  1  0
 27 28  2  0
 28 29  1  0
 29 30  2  0
 30 31  1  0
 21 32  2  0
  9 33  1  0
  6  1  1  0
 32 10  1  0
 33  4  1  0
 19 14  1  0
 31 22  1  0
 30 25  1  0
  1 34  1  0
  2 35  1  0
  3 36  1  0
  6 37  1  0
  7 38  1  0
  7 39  1  0
  8 40  1  0
  8 41  1  0
 11 42  1  0
 13 43  1  0
 14 44  1  6
 15 45  1  0
 15 46  1  0
 16 47  1  0
 16 48  1  0
 17 49  1  0
 17 50  1  0
 18 51  1  0
 19 52  1  0
 19 53  1  0
 23 54  1  0
 23 55  1  0
 24 56  1  0
 24 57  1  0
 26 58  1  0
 27 59  1  0
 28 60  1  0
 29 61  1  0
 31 62  1  0
 31 63  1  0
 33 64  1  0
 33 65  1  0
M  END
>  <smiles>  (20) 
c1ccc2c(c1)CCN(c1cc(NC3CCCNC3)nc(N3CCc4ccccc4C3)n1)C2

>  <score_type>  (20) 
oracle

>  <origin>  (20) 
autodockgpu

>  <m_score__min__energy>  (20) 
-9.3200000000000003

>  <m_primary>  (20) 
energy

>  <rmsd>  (20) 
7.761472675021036

>  <m_score__min__rmsd>  (20) 
7.761472675021036

>  <meeko>  (20) 
{"free_energy": -9.2, "intermolecular_energy": -10.39, "internal_energy": -1.35, "cluster_size": 26, "cluster_id": 2, "rank_in_cluster": 6}

>  <energy>  (20) 
-9.18

>  <cluster_rmsd>  (20) 
0.41

>  <cluster>  (20) 
2

$$$$

     RDKit          3D

 65 70  0  0  0  0  0  0  0  0999 V2000
  138.8240   67.3550  223.4820 C   0  0  0  0  0  0  0  0  0  0  0  0
  138.2670   67.7960  222.2920 C   0  0  0  0  0  0  0  0  0  0  0  0
  138.1310   69.1450  222.0260 C   0  0  0  0  0  0  0  0  0  0  0  0
  138.5700   70.0330  222.9850 C   0  0  0  0  0  0  0  0  0  0  0  0
  139.1320   69.6370  224.1830 C   0  0  0  0  0  0  0  0  0  0  0  0
  139.2540   68.2940  224.4220 C   0  0  0  0  0  0  0  0  0  0  0  0
  139.5700   70.6820  225.1450 C   0  0  0  0  0  0  0  0  0  0  0  0
  140.4360   71.6650  224.3890 C   0  0  0  0  0  0  0  0  0  0  0  0
  139.8090   72.0170  223.1460 N   0  0  0  0  0  0  0  0  0  0  0  0
  140.4840   72.8590  222.2200 C   0  0  0  0  0  0  0  0  0  0  0  0
  141.2420   72.3010  221.2140 C   0  0  0  0  0  0  0  0  0  0  0  0
  141.9250   73.0900  220.2770 C   0  0  0  0  0  0  0  0  0  0  0  0
  142.6810   72.4750  219.2640 N   0  0  0  0  0  0  0  0  0  0  0  0
  144.0660   72.7600  218.9620 C   0  0  2  0  0  0  0  0  0  0  0  0
  144.9950   71.8560  219.7450 C   0  0  0  0  0  0  0  0  0  0  0  0
  146.1480   72.6990  220.2360 C   0  0  0  0  0  0  0  0  0  0  0  0
  145.5740   73.7420  221.1710 C   0  0  0  0  0  0  0  0  0  0  0  0
  144.6870   74.6310  220.4620 N   0  0  0  0  0  0  0  0  0  0  0  0
  144.4330   74.2090  219.1080 C   0  0  0  0  0  0  0  0  0  0  0  0
  141.7840   74.4150  220.4350 N   0  0  0  0  0  0  0  0  0  0  0  0
  141.0550   74.9980  221.4000 C   0  0  0  0  0  0  0  0  0  0  0  0
  140.9840   76.4170  221.4600 N   0  0  0  0  0  0  0  0  0  0  0  0
  141.2090   77.1730  220.2520 C   0  0  0  0  0  0  0  0  0  0  0  0
  140.6730   78.5840  220.3560 C   0  0  0  0  0  0  0  0  0  0  0  0
  141.2430   79.2530  221.5760 C   0  0  0  0  0  0  0  0  0  0  0  0
  141.7310   80.5420  221.5190 C   0  0  0  0  0  0  0  0  0  0  0  0
  142.2360   81.0700  222.7030 C   0  0  0  0  0  0  0  0  0  0  0  0
  142.2440   80.3360  223.8660 C   0  0  0  0  0  0  0  0  0  0  0  0
  141.7500   79.0490  223.8910 C   0  0  0  0  0  0  0  0  0  0  0  0
  141.2400   78.4940  222.7280 C   0  0  0  0  0  0  0  0  0  0  0  0
  140.6910   77.0990  222.7050 C   0  0  0  0  0  0  0  0  0  0  0  0
  140.4170   74.2010  222.2780 N   0  0  0  0  0  0  0  0  0  0  0  0
  138.4680   71.5260  222.7870 C   0  0  0  0  0  0  0  0  0  0  0  0
  138.9262   66.2785  223.6836 H   0  0  0  0  0  0  0  0  0  0  0  0
  137.9279   67.0605  221.5476 H   0  0  0  0  0  0  0  0  0  0  0  0
  137.6883   69.4979  221.0829 H   0  0  0  0  0  0  0  0  0  0  0  0
  139.6971   67.9499  225.3682 H   0  0  0  0  0  0  0  0  0  0  0  0
  138.6933   71.1985  225.5628 H   0  0  0  0  0  0  0  0  0  0  0  0
  140.1323   70.2310  225.9759 H   0  0  0  0  0  0  0  0  0  0  0  0
  140.5741   72.5713  224.9969 H   0  0  0  0  0  0  0  0  0  0  0  0
  141.4122   71.2019  224.1826 H   0  0  0  0  0  0  0  0  0  0  0  0
  141.3136   71.2056  221.1437 H   0  0  0  0  0  0  0  0  0  0  0  0
  142.2120   71.7430  218.6670 H   0  0  0  0  0  0  0  0  0  0  0  0
  144.1960   72.5381  217.8925 H   0  0  0  0  0  0  0  0  0  0  0  0
  144.4594   71.4186  220.6005 H   0  0  0  0  0  0  0  0  0  0  0  0
  145.3601   71.0352  219.1102 H   0  0  0  0  0  0  0  0  0  0  0  0
  146.8730   72.0697  220.7730 H   0  0  0  0  0  0  0  0  0  0  0  0
  146.6700   73.1754  219.3930 H   0  0  0  0  0  0  0  0  0  0  0  0
  145.0148   73.2386  221.9735 H   0  0  0  0  0  0  0  0  0  0  0  0
  146.4013   74.3313  221.5932 H   0  0  0  0  0  0  0  0  0  0  0  0
  143.8220   74.8670  220.9880 H   0  0  0  0  0  0  0  0  0  0  0  0
  143.6052   74.8142  218.7098 H   0  0  0  0  0  0  0  0  0  0  0  0
  145.3745   74.3487  218.5566 H   0  0  0  0  0  0  0  0  0  0  0  0
  142.2908   77.2178  220.0579 H   0  0  0  0  0  0  0  0  0  0  0  0
  140.6772   76.6680  219.4321 H   0  0  0  0  0  0  0  0  0  0  0  0
  140.9612   79.1519  219.4591 H   0  0  0  0  0  0  0  0  0  0  0  0
  139.5764   78.5526  220.4361 H   0  0  0  0  0  0  0  0  0  0  0  0
  141.7214   81.1229  220.5849 H   0  0  0  0  0  0  0  0  0  0  0  0
  142.6366   82.0944  222.7090 H   0  0  0  0  0  0  0  0  0  0  0  0
  142.6492   80.7808  224.7868 H   0  0  0  0  0  0  0  0  0  0  0  0
  141.7606   78.4683  224.8252 H   0  0  0  0  0  0  0  0  0  0  0  0
  141.1356   76.5294  223.5344 H   0  0  0  0  0  0  0  0  0  0  0  0
  139.5976   77.1641  222.8058 H   0  0  0  0  0  0  0  0  0  0  0  0
  137.7020   71.9581  223.4477 H   0  0  0  0  0  0  0  0  0  0  0  0
  138.1724   71.8016  221.7639 H   0  0  0  0  0  0  0  0  0  0  0  0
  1  2  2  0
  2  3  1  0
  3  4  2  0
  4  5  1  0
  5  6  2  0
  5  7  1  0
  7  8  1  0
  8  9  1  0
  9 10  1  0
 10 11  2  0
 11 12  1  0
 12 13  1  0
 13 14  1  0
 14 15  1  0
 15 16  1  0
 16 17  1  0
 17 18  1  0
 18 19  1  0
 12 20  2  0
 20 21  1  0
 21 22  1  0
 22 23  1  0
 23 24  1  0
 24 25  1  0
 25 26  2  0
 26 27  1  0
 27 28  2  0
 28 29  1  0
 29 30  2  0
 30 31  1  0
 21 32  2  0
  9 33  1  0
  6  1  1  0
 32 10  1  0
 33  4  1  0
 19 14  1  0
 31 22  1  0
 30 25  1  0
  1 34  1  0
  2 35  1  0
  3 36  1  0
  6 37  1  0
  7 38  1  0
  7 39  1  0
  8 40  1  0
  8 41  1  0
 11 42  1  0
 13 43  1  0
 14 44  1  6
 15 45  1  0
 15 46  1  0
 16 47  1  0
 16 48  1  0
 17 49  1  0
 17 50  1  0
 18 51  1  0
 19 52  1  0
 19 53  1  0
 23 54  1  0
 23 55  1  0
 24 56  1  0
 24 57  1  0
 26 58  1  0
 27 59  1  0
 28 60  1  0
 29 61  1  0
 31 62  1  0
 31 63  1  0
 33 64  1  0
 33 65  1  0
M  END
>  <smiles>  (21) 
c1ccc2c(c1)CCN(c1cc(NC3CCCNC3)nc(N3CCc4ccccc4C3)n1)C2

>  <score_type>  (21) 
oracle

>  <origin>  (21) 
autodockgpu

>  <m_score__min__energy>  (21) 
-9.3200000000000003

>  <m_primary>  (21) 
energy

>  <rmsd>  (21) 
6.528799660504997

>  <m_score__min__rmsd>  (21) 
6.528799660504997

>  <meeko>  (21) 
{"free_energy": -8.87, "intermolecular_energy": -10.06, "internal_energy": -1.88, "cluster_size": 12, "cluster_id": 1, "rank_in_cluster": 4}

>  <energy>  (21) 
-9.17

>  <cluster_rmsd>  (21) 
0.18

>  <cluster>  (21) 
2

$$$$

     RDKit          3D

 65 70  0  0  0  0  0  0  0  0999 V2000
  140.7110   79.1380  223.2880 C   0  0  0  0  0  0  0  0  0  0  0  0
  139.3990   78.7260  223.4660 C   0  0  0  0  0  0  0  0  0  0  0  0
  138.8730   77.6870  222.7240 C   0  0  0  0  0  0  0  0  0  0  0  0
  139.6990   77.0750  221.8040 C   0  0  0  0  0  0  0  0  0  0  0  0
  141.0110   77.4540  221.5960 C   0  0  0  0  0  0  0  0  0  0  0  0
  141.5080   78.4870  222.3450 C   0  0  0  0  0  0  0  0  0  0  0  0
  141.8110   76.7240  220.5770 C   0  0  0  0  0  0  0  0  0  0  0  0
  141.6640   75.2450  220.8540 C   0  0  0  0  0  0  0  0  0  0  0  0
  140.2840   74.9230  221.0850 N   0  0  0  0  0  0  0  0  0  0  0  0
  139.9130   73.6010  221.4590 C   0  0  0  0  0  0  0  0  0  0  0  0
  139.3850   72.7450  220.5180 C   0  0  0  0  0  0  0  0  0  0  0  0
  139.0060   71.4340  220.8380 C   0  0  0  0  0  0  0  0  0  0  0  0
  138.4770   70.5960  219.8420 N   0  0  0  0  0  0  0  0  0  0  0  0
  138.0750   69.2200  220.0300 C   0  0  2  0  0  0  0  0  0  0  0  0
  136.8940   69.1190  220.9730 C   0  0  0  0  0  0  0  0  0  0  0  0
  137.1400   67.9450  221.8920 C   0  0  0  0  0  0  0  0  0  0  0  0
  138.3850   68.2590  222.6950 C   0  0  0  0  0  0  0  0  0  0  0  0
  139.5380   68.3570  221.8340 N   0  0  0  0  0  0  0  0  0  0  0  0
  139.1980   68.3090  220.4350 C   0  0  0  0  0  0  0  0  0  0  0  0
  139.1950   71.0820  222.1190 N   0  0  0  0  0  0  0  0  0  0  0  0
  139.7070   71.8850  223.0660 C   0  0  0  0  0  0  0  0  0  0  0  0
  139.8590   71.3920  224.3920 N   0  0  0  0  0  0  0  0  0  0  0  0
  140.9630   71.8710  225.1870 C   0  0  0  0  0  0  0  0  0  0  0  0
  140.7500   71.6270  226.6640 C   0  0  0  0  0  0  0  0  0  0  0  0
  140.4540   70.1710  226.8970 C   0  0  0  0  0  0  0  0  0  0  0  0
  141.0640   69.4740  227.9200 C   0  0  0  0  0  0  0  0  0  0  0  0
  140.7210   68.1320  228.0520 C   0  0  0  0  0  0  0  0  0  0  0  0
  139.8180   67.5390  227.2010 C   0  0  0  0  0  0  0  0  0  0  0  0
  139.2250   68.2610  226.1870 C   0  0  0  0  0  0  0  0  0  0  0  0
  139.5460   69.6010  226.0290 C   0  0  0  0  0  0  0  0  0  0  0  0
  138.9270   70.4270  224.9420 C   0  0  0  0  0  0  0  0  0  0  0  0
  140.0560   73.1360  222.7130 N   0  0  0  0  0  0  0  0  0  0  0  0
  139.2190   75.9290  220.9480 C   0  0  0  0  0  0  0  0  0  0  0  0
  141.1190   79.9683  223.8831 H   0  0  0  0  0  0  0  0  0  0  0  0
  138.7677   79.2345  224.2095 H   0  0  0  0  0  0  0  0  0  0  0  0
  137.8321   77.3589  222.8616 H   0  0  0  0  0  0  0  0  0  0  0  0
  142.5502   78.8083  222.2015 H   0  0  0  0  0  0  0  0  0  0  0  0
  141.4361   76.9559  219.5692 H   0  0  0  0  0  0  0  0  0  0  0  0
  142.8682   77.0235  220.6287 H   0  0  0  0  0  0  0  0  0  0  0  0
  142.0312   74.6741  219.9884 H   0  0  0  0  0  0  0  0  0  0  0  0
  142.2497   74.9854  221.7482 H   0  0  0  0  0  0  0  0  0  0  0  0
  139.2570   73.1006  219.4850 H   0  0  0  0  0  0  0  0  0  0  0  0
  138.3600   70.9900  218.8700 H   0  0  0  0  0  0  0  0  0  0  0  0
  137.7557   68.8589  219.0412 H   0  0  0  0  0  0  0  0  0  0  0  0
  136.8046   70.0437  221.5620 H   0  0  0  0  0  0  0  0  0  0  0  0
  135.9606   68.9777  220.4083 H   0  0  0  0  0  0  0  0  0  0  0  0
  136.2815   67.8073  222.5658 H   0  0  0  0  0  0  0  0  0  0  0  0
  137.2707   67.0177  221.3149 H   0  0  0  0  0  0  0  0  0  0  0  0
  138.2442   69.2155  223.2196 H   0  0  0  0  0  0  0  0  0  0  0  0
  138.5526   67.4471  223.4180 H   0  0  0  0  0  0  0  0  0  0  0  0
  140.1760   69.1400  222.0760 H   0  0  0  0  0  0  0  0  0  0  0  0
  140.0908   68.5874  219.8558 H   0  0  0  0  0  0  0  0  0  0  0  0
  138.8538   67.2837  220.2342 H   0  0  0  0  0  0  0  0  0  0  0  0
  141.8794   71.3515  224.8704 H   0  0  0  0  0  0  0  0  0  0  0  0
  141.0453   72.9569  225.0320 H   0  0  0  0  0  0  0  0  0  0  0  0
  141.6585   71.9089  227.2164 H   0  0  0  0  0  0  0  0  0  0  0  0
  139.9022   72.2331  227.0160 H   0  0  0  0  0  0  0  0  0  0  0  0
  141.7852   69.9552  228.5970 H   0  0  0  0  0  0  0  0  0  0  0  0
  141.1810   67.5339  228.8524 H   0  0  0  0  0  0  0  0  0  0  0  0
  139.5658   66.4762  227.3308 H   0  0  0  0  0  0  0  0  0  0  0  0
  138.5044   67.7790  225.5100 H   0  0  0  0  0  0  0  0  0  0  0  0
  138.5919   69.7582  224.1356 H   0  0  0  0  0  0  0  0  0  0  0  0
  138.0828   70.9817  225.3774 H   0  0  0  0  0  0  0  0  0  0  0  0
  139.1075   76.2422  219.8994 H   0  0  0  0  0  0  0  0  0  0  0  0
  138.2327   75.5509  221.2550 H   0  0  0  0  0  0  0  0  0  0  0  0
  1  2  2  0
  2  3  1  0
  3  4  2  0
  4  5  1  0
  5  6  2  0
  5  7  1  0
  7  8  1  0
  8  9  1  0
  9 10  1  0
 10 11  2  0
 11 12  1  0
 12 13  1  0
 13 14  1  0
 14 15  1  0
 15 16  1  0
 16 17  1  0
 17 18  1  0
 18 19  1  0
 12 20  2  0
 20 21  1  0
 21 22  1  0
 22 23  1  0
 23 24  1  0
 24 25  1  0
 25 26  2  0
 26 27  1  0
 27 28  2  0
 28 29  1  0
 29 30  2  0
 30 31  1  0
 21 32  2  0
  9 33  1  0
  6  1  1  0
 32 10  1  0
 33  4  1  0
 19 14  1  0
 31 22  1  0
 30 25  1  0
  1 34  1  0
  2 35  1  0
  3 36  1  0
  6 37  1  0
  7 38  1  0
  7 39  1  0
  8 40  1  0
  8 41  1  0
 11 42  1  0
 13 43  1  0
 14 44  1  6
 15 45  1  0
 15 46  1  0
 16 47  1  0
 16 48  1  0
 17 49  1  0
 17 50  1  0
 18 51  1  0
 19 52  1  0
 19 53  1  0
 23 54  1  0
 23 55  1  0
 24 56  1  0
 24 57  1  0
 26 58  1  0
 27 59  1  0
 28 60  1  0
 29 61  1  0
 31 62  1  0
 31 63  1  0
 33 64  1  0
 33 65  1  0
M  END
>  <smiles>  (22) 
c1ccc2c(c1)CCN(c1cc(NC3CCCNC3)nc(N3CCc4ccccc4C3)n1)C2

>  <score_type>  (22) 
oracle

>  <origin>  (22) 
autodockgpu

>  <m_score__min__energy>  (22) 
-9.3200000000000003

>  <m_primary>  (22) 
energy

>  <rmsd>  (22) 
9.376938648716608

>  <m_score__min__rmsd>  (22) 
9.376938648716608

>  <meeko>  (22) 
{"free_energy": -8.19, "intermolecular_energy": -9.39, "internal_energy": -2.09, "cluster_size": 2, "cluster_id": 6, "rank_in_cluster": 1}

>  <energy>  (22) 
-9.16

>  <cluster_rmsd>  (22) 
0.46

>  <cluster>  (22) 
2

$$$$

     RDKit          3D

 65 70  0  0  0  0  0  0  0  0999 V2000
  142.9910   77.0500  217.2300 C   0  0  0  0  0  0  0  0  0  0  0  0
  143.2560   75.6900  217.2640 C   0  0  0  0  0  0  0  0  0  0  0  0
  143.0720   74.9580  218.4210 C   0  0  0  0  0  0  0  0  0  0  0  0
  142.6160   75.6290  219.5370 C   0  0  0  0  0  0  0  0  0  0  0  0
  142.3400   76.9820  219.5460 C   0  0  0  0  0  0  0  0  0  0  0  0
  142.5310   77.6840  218.3860 C   0  0  0  0  0  0  0  0  0  0  0  0
  141.8540   77.6020  220.8070 C   0  0  0  0  0  0  0  0  0  0  0  0
  140.7000   76.7650  221.3120 C   0  0  0  0  0  0  0  0  0  0  0  0
  141.0420   75.3710  221.2540 N   0  0  0  0  0  0  0  0  0  0  0  0
  140.0730   74.3850  221.5920 C   0  0  0  0  0  0  0  0  0  0  0  0
  138.8290   74.4170  221.0020 C   0  0  0  0  0  0  0  0  0  0  0  0
  137.8420   73.4670  221.3020 C   0  0  0  0  0  0  0  0  0  0  0  0
  136.5890   73.5370  220.6700 N   0  0  0  0  0  0  0  0  0  0  0  0
  135.3090   73.5230  221.3430 C   0  0  2  0  0  0  0  0  0  0  0  0
  134.8410   74.9290  221.6580 C   0  0  0  0  0  0  0  0  0  0  0  0
  134.2530   74.9150  223.0500 C   0  0  0  0  0  0  0  0  0  0  0  0
  135.3690   74.5440  224.0030 C   0  0  0  0  0  0  0  0  0  0  0  0
  135.8410   73.2070  223.7430 N   0  0  0  0  0  0  0  0  0  0  0  0
  135.2680   72.6320  222.5510 C   0  0  0  0  0  0  0  0  0  0  0  0
  138.2020   72.5340  222.1970 N   0  0  0  0  0  0  0  0  0  0  0  0
  139.4030   72.4680  222.7930 C   0  0  0  0  0  0  0  0  0  0  0  0
  139.6620   71.4260  223.7280 N   0  0  0  0  0  0  0  0  0  0  0  0
  138.7780   70.2860  223.7560 C   0  0  0  0  0  0  0  0  0  0  0  0
  139.4070   69.0960  224.4460 C   0  0  0  0  0  0  0  0  0  0  0  0
  139.8820   69.4980  225.8150 C   0  0  0  0  0  0  0  0  0  0  0  0
  139.6370   68.7040  226.9160 C   0  0  0  0  0  0  0  0  0  0  0  0
  140.1190   69.1650  228.1370 C   0  0  0  0  0  0  0  0  0  0  0  0
  140.8040   70.3540  228.2310 C   0  0  0  0  0  0  0  0  0  0  0  0
  141.0330   71.1270  227.1120 C   0  0  0  0  0  0  0  0  0  0  0  0
  140.5650   70.6950  225.8800 C   0  0  0  0  0  0  0  0  0  0  0  0
  140.7890   71.4990  224.6360 C   0  0  0  0  0  0  0  0  0  0  0  0
  140.3190   73.4010  222.4760 N   0  0  0  0  0  0  0  0  0  0  0  0
  142.3810   74.9170  220.8470 C   0  0  0  0  0  0  0  0  0  0  0  0
  143.1413   77.6232  216.3033 H   0  0  0  0  0  0  0  0  0  0  0  0
  143.6183   75.1859  216.3559 H   0  0  0  0  0  0  0  0  0  0  0  0
  143.2816   73.8786  218.4515 H   0  0  0  0  0  0  0  0  0  0  0  0
  142.3190   78.7632  218.3644 H   0  0  0  0  0  0  0  0  0  0  0  0
  142.6618   77.6167  221.5535 H   0  0  0  0  0  0  0  0  0  0  0  0
  141.5311   78.6384  220.6289 H   0  0  0  0  0  0  0  0  0  0  0  0
  140.4768   77.0424  222.3528 H   0  0  0  0  0  0  0  0  0  0  0  0
  139.8181   76.9471  220.6802 H   0  0  0  0  0  0  0  0  0  0  0  0
  138.6031   75.2105  220.2745 H   0  0  0  0  0  0  0  0  0  0  0  0
  136.5650   73.6050  219.6180 H   0  0  0  0  0  0  0  0  0  0  0  0
  134.5971   73.0763  220.6334 H   0  0  0  0  0  0  0  0  0  0  0  0
  135.6917   75.6252  221.6174 H   0  0  0  0  0  0  0  0  0  0  0  0
  134.0899   75.2589  220.9252 H   0  0  0  0  0  0  0  0  0  0  0  0
  133.8572   75.9099  223.3021 H   0  0  0  0  0  0  0  0  0  0  0  0
  133.4256   74.1933  223.1174 H   0  0  0  0  0  0  0  0  0  0  0  0
  136.2017   75.2515  223.8761 H   0  0  0  0  0  0  0  0  0  0  0  0
  134.9829   74.5877  225.0321 H   0  0  0  0  0  0  0  0  0  0  0  0
  136.8740   73.1100  223.7900 H   0  0  0  0  0  0  0  0  0  0  0  0
  135.8199   71.7100  222.3157 H   0  0  0  0  0  0  0  0  0  0  0  0
  134.2048   72.4554  222.7711 H   0  0  0  0  0  0  0  0  0  0  0  0
  137.8589   70.5628  224.2933 H   0  0  0  0  0  0  0  0  0  0  0  0
  138.5611   69.9995  222.7163 H   0  0  0  0  0  0  0  0  0  0  0  0
  138.6627   68.2913  224.5387 H   0  0  0  0  0  0  0  0  0  0  0  0
  140.2625   68.7407  223.8528 H   0  0  0  0  0  0  0  0  0  0  0  0
  139.0882   67.7543  226.8328 H   0  0  0  0  0  0  0  0  0  0  0  0
  139.9490   68.5671  229.0445 H   0  0  0  0  0  0  0  0  0  0  0  0
  141.1736   70.6924  229.2103 H   0  0  0  0  0  0  0  0  0  0  0  0
  141.5815   72.0768  227.1958 H   0  0  0  0  0  0  0  0  0  0  0  0
  140.9499   72.5501  224.9175 H   0  0  0  0  0  0  0  0  0  0  0  0
  141.6671   71.0847  224.1191 H   0  0  0  0  0  0  0  0  0  0  0  0
  143.1368   75.2063  221.5920 H   0  0  0  0  0  0  0  0  0  0  0  0
  142.4516   73.8230  220.7568 H   0  0  0  0  0  0  0  0  0  0  0  0
  1  2  2  0
  2  3  1  0
  3  4  2  0
  4  5  1  0
  5  6  2  0
  5  7  1  0
  7  8  1  0
  8  9  1  0
  9 10  1  0
 10 11  2  0
 11 12  1  0
 12 13  1  0
 13 14  1  0
 14 15  1  0
 15 16  1  0
 16 17  1  0
 17 18  1  0
 18 19  1  0
 12 20  2  0
 20 21  1  0
 21 22  1  0
 22 23  1  0
 23 24  1  0
 24 25  1  0
 25 26  2  0
 26 27  1  0
 27 28  2  0
 28 29  1  0
 29 30  2  0
 30 31  1  0
 21 32  2  0
  9 33  1  0
  6  1  1  0
 32 10  1  0
 33  4  1  0
 19 14  1  0
 31 22  1  0
 30 25  1  0
  1 34  1  0
  2 35  1  0
  3 36  1  0
  6 37  1  0
  7 38  1  0
  7 39  1  0
  8 40  1  0
  8 41  1  0
 11 42  1  0
 13 43  1  0
 14 44  1  6
 15 45  1  0
 15 46  1  0
 16 47  1  0
 16 48  1  0
 17 49  1  0
 17 50  1  0
 18 51  1  0
 19 52  1  0
 19 53  1  0
 23 54  1  0
 23 55  1  0
 24 56  1  0
 24 57  1  0
 26 58  1  0
 27 59  1  0
 28 60  1  0
 29 61  1  0
 31 62  1  0
 31 63  1  0
 33 64  1  0
 33 65  1  0
M  END
>  <smiles>  (23) 
c1ccc2c(c1)CCN(c1cc(NC3CCCNC3)nc(N3CCc4ccccc4C3)n1)C2

>  <score_type>  (23) 
oracle

>  <origin>  (23) 
autodockgpu

>  <m_score__min__energy>  (23) 
-9.3200000000000003

>  <m_primary>  (23) 
energy

>  <rmsd>  (23) 
7.140711036726313

>  <m_score__min__rmsd>  (23) 
7.140711036726313

>  <meeko>  (23) 
{"free_energy": -8.41, "intermolecular_energy": -9.6, "internal_energy": -1.87, "cluster_size": 5, "cluster_id": 3, "rank_in_cluster": 5}

>  <energy>  (23) 
-9.16

>  <cluster_rmsd>  (23) 
0.17

>  <cluster>  (23) 
2

$$$$

     RDKit          3D

 65 70  0  0  0  0  0  0  0  0999 V2000
  142.1430   81.6070  222.9360 C   0  0  0  0  0  0  0  0  0  0  0  0
  142.5500   80.6480  223.8510 C   0  0  0  0  0  0  0  0  0  0  0  0
  141.9080   79.4270  223.9350 C   0  0  0  0  0  0  0  0  0  0  0  0
  140.8520   79.2000  223.0770 C   0  0  0  0  0  0  0  0  0  0  0  0
  140.4150   80.1270  222.1510 C   0  0  0  0  0  0  0  0  0  0  0  0
  141.0690   81.3290  222.0890 C   0  0  0  0  0  0  0  0  0  0  0  0
  139.2660   79.7750  221.2770 C   0  0  0  0  0  0  0  0  0  0  0  0
  139.5570   78.4250  220.6610 C   0  0  0  0  0  0  0  0  0  0  0  0
  140.0280   77.5170  221.6690 N   0  0  0  0  0  0  0  0  0  0  0  0
  140.4550   76.2090  221.3070 C   0  0  0  0  0  0  0  0  0  0  0  0
  141.3140   76.0390  220.2430 C   0  0  0  0  0  0  0  0  0  0  0  0
  141.7640   74.7710  219.8490 C   0  0  0  0  0  0  0  0  0  0  0  0
  142.6440   74.6490  218.7610 N   0  0  0  0  0  0  0  0  0  0  0  0
  144.0720   74.4440  218.8560 C   0  0  2  0  0  0  0  0  0  0  0  0
  144.5090   73.2450  218.0410 C   0  0  0  0  0  0  0  0  0  0  0  0
  145.5280   72.4830  218.8560 C   0  0  0  0  0  0  0  0  0  0  0  0
  144.8270   71.9980  220.1080 C   0  0  0  0  0  0  0  0  0  0  0  0
  144.4000   73.1110  220.9190 N   0  0  0  0  0  0  0  0  0  0  0  0
  144.5840   74.3830  220.2670 C   0  0  0  0  0  0  0  0  0  0  0  0
  141.2980   73.7470  220.5810 N   0  0  0  0  0  0  0  0  0  0  0  0
  140.4620   73.8710  221.6250 C   0  0  0  0  0  0  0  0  0  0  0  0
  140.0400   72.7040  222.3220 N   0  0  0  0  0  0  0  0  0  0  0  0
  138.6330   72.3840  222.3490 C   0  0  0  0  0  0  0  0  0  0  0  0
  138.3860   70.9380  222.7160 C   0  0  0  0  0  0  0  0  0  0  0  0
  139.0800   70.6190  224.0110 C   0  0  0  0  0  0  0  0  0  0  0  0
  138.4420   69.9090  225.0070 C   0  0  0  0  0  0  0  0  0  0  0  0
  139.1710   69.6650  226.1660 C   0  0  0  0  0  0  0  0  0  0  0  0
  140.4640   70.1150  226.3040 C   0  0  0  0  0  0  0  0  0  0  0  0
  141.0750   70.8240  225.2910 C   0  0  0  0  0  0  0  0  0  0  0  0
  140.3750   71.0830  224.1230 C   0  0  0  0  0  0  0  0  0  0  0  0
  140.9970   71.8480  222.9950 C   0  0  0  0  0  0  0  0  0  0  0  0
  140.0550   75.1070  221.9670 N   0  0  0  0  0  0  0  0  0  0  0  0
  140.0890   77.8980  223.0900 C   0  0  0  0  0  0  0  0  0  0  0  0
  142.6606   82.5759  222.8783 H   0  0  0  0  0  0  0  0  0  0  0  0
  143.3965   80.8622  224.5200 H   0  0  0  0  0  0  0  0  0  0  0  0
  142.2276   78.6638  224.6598 H   0  0  0  0  0  0  0  0  0  0  0  0
  140.7429   82.0864  221.3609 H   0  0  0  0  0  0  0  0  0  0  0  0
  138.3430   79.7242  221.8732 H   0  0  0  0  0  0  0  0  0  0  0  0
  139.1289   80.5354  220.4941 H   0  0  0  0  0  0  0  0  0  0  0  0
  138.6370   78.0241  220.2106 H   0  0  0  0  0  0  0  0  0  0  0  0
  140.3311   78.5399  219.8880 H   0  0  0  0  0  0  0  0  0  0  0  0
  141.6566   76.9239  219.6866 H   0  0  0  0  0  0  0  0  0  0  0  0
  142.2430   74.7110  217.7870 H   0  0  0  0  0  0  0  0  0  0  0  0
  144.5372   75.3407  218.4207 H   0  0  0  0  0  0  0  0  0  0  0  0
  143.6429   72.6014  217.8273 H   0  0  0  0  0  0  0  0  0  0  0  0
  144.9442   73.5675  217.0836 H   0  0  0  0  0  0  0  0  0  0  0  0
  145.9068   71.6259  218.2800 H   0  0  0  0  0  0  0  0  0  0  0  0
  146.3837   73.1254  219.1112 H   0  0  0  0  0  0  0  0  0  0  0  0
  143.9478   71.4023  219.8213 H   0  0  0  0  0  0  0  0  0  0  0  0
  145.5304   71.3858  220.6914 H   0  0  0  0  0  0  0  0  0  0  0  0
  143.4540   72.9920  221.3290 H   0  0  0  0  0  0  0  0  0  0  0  0
  144.0585   75.1492  220.8558 H   0  0  0  0  0  0  0  0  0  0  0  0
  145.6698   74.5499  220.2114 H   0  0  0  0  0  0  0  0  0  0  0  0
  138.1369   73.0279  223.0901 H   0  0  0  0  0  0  0  0  0  0  0  0
  138.2278   72.5516  221.3402 H   0  0  0  0  0  0  0  0  0  0  0  0
  137.3050   70.7688  222.8290 H   0  0  0  0  0  0  0  0  0  0  0  0
  138.7802   70.2877  221.9212 H   0  0  0  0  0  0  0  0  0  0  0  0
  137.4076   69.5534  224.8902 H   0  0  0  0  0  0  0  0  0  0  0  0
  138.7051   69.1016  226.9879 H   0  0  0  0  0  0  0  0  0  0  0  0
  141.0163   69.9070  227.2323 H   0  0  0  0  0  0  0  0  0  0  0  0
  142.1088   71.1808  225.4089 H   0  0  0  0  0  0  0  0  0  0  0  0
  141.8100   72.4714  223.3953 H   0  0  0  0  0  0  0  0  0  0  0  0
  141.3750   71.1209  222.2612 H   0  0  0  0  0  0  0  0  0  0  0  0
  139.0790   78.0390  223.5023 H   0  0  0  0  0  0  0  0  0  0  0  0
  140.5650   77.1304  223.7178 H   0  0  0  0  0  0  0  0  0  0  0  0
  1  2  2  0
  2  3  1  0
  3  4  2  0
  4  5  1  0
  5  6  2  0
  5  7  1  0
  7  8  1  0
  8  9  1  0
  9 10  1  0
 10 11  2  0
 11 12  1  0
 12 13  1  0
 13 14  1  0
 14 15  1  0
 15 16  1  0
 16 17  1  0
 17 18  1  0
 18 19  1  0
 12 20  2  0
 20 21  1  0
 21 22  1  0
 22 23  1  0
 23 24  1  0
 24 25  1  0
 25 26  2  0
 26 27  1  0
 27 28  2  0
 28 29  1  0
 29 30  2  0
 30 31  1  0
 21 32  2  0
  9 33  1  0
  6  1  1  0
 32 10  1  0
 33  4  1  0
 19 14  1  0
 31 22  1  0
 30 25  1  0
  1 34  1  0
  2 35  1  0
  3 36  1  0
  6 37  1  0
  7 38  1  0
  7 39  1  0
  8 40  1  0
  8 41  1  0
 11 42  1  0
 13 43  1  0
 14 44  1  6
 15 45  1  0
 15 46  1  0
 16 47  1  0
 16 48  1  0
 17 49  1  0
 17 50  1  0
 18 51  1  0
 19 52  1  0
 19 53  1  0
 23 54  1  0
 23 55  1  0
 24 56  1  0
 24 57  1  0
 26 58  1  0
 27 59  1  0
 28 60  1  0
 29 61  1  0
 31 62  1  0
 31 63  1  0
 33 64  1  0
 33 65  1  0
M  END
>  <smiles>  (24) 
c1ccc2c(c1)CCN(c1cc(NC3CCCNC3)nc(N3CCc4ccccc4C3)n1)C2

>  <score_type>  (24) 
oracle

>  <origin>  (24) 
autodockgpu

>  <m_score__min__energy>  (24) 
-9.3200000000000003

>  <m_primary>  (24) 
energy

>  <rmsd>  (24) 
6.2210132836302225

>  <m_score__min__rmsd>  (24) 
6.2210132836302225

>  <meeko>  (24) 
{"free_energy": -8.17, "intermolecular_energy": -9.37, "internal_energy": -1.63, "cluster_size": 12, "cluster_id": 1, "rank_in_cluster": 12}

>  <energy>  (24) 
-9.13

>  <cluster_rmsd>  (24) 
0.49

>  <cluster>  (24) 
2

$$$$

     RDKit          3D

 65 70  0  0  0  0  0  0  0  0999 V2000
  140.1450   69.6240  227.5600 C   0  0  0  0  0  0  0  0  0  0  0  0
  140.8210   70.8340  227.5140 C   0  0  0  0  0  0  0  0  0  0  0  0
  141.0430   71.4800  226.3140 C   0  0  0  0  0  0  0  0  0  0  0  0
  140.5680   70.8790  225.1660 C   0  0  0  0  0  0  0  0  0  0  0  0
  139.8900   69.6760  225.1680 C   0  0  0  0  0  0  0  0  0  0  0  0
  139.6840   69.0560  226.3720 C   0  0  0  0  0  0  0  0  0  0  0  0
  139.4240   69.1190  223.8710 C   0  0  0  0  0  0  0  0  0  0  0  0
  138.6720   70.2140  223.1480 C   0  0  0  0  0  0  0  0  0  0  0  0
  139.4170   71.4410  223.2040 N   0  0  0  0  0  0  0  0  0  0  0  0
  138.8630   72.6370  222.6700 C   0  0  0  0  0  0  0  0  0  0  0  0
  137.5380   72.6690  222.2910 C   0  0  0  0  0  0  0  0  0  0  0  0
  136.9470   73.8240  221.7610 C   0  0  0  0  0  0  0  0  0  0  0  0
  135.5900   73.8090  221.3940 N   0  0  0  0  0  0  0  0  0  0  0  0
  134.4740   73.7900  222.3120 C   0  0  2  0  0  0  0  0  0  0  0  0
  134.0540   75.1940  222.6940 C   0  0  0  0  0  0  0  0  0  0  0  0
  133.7600   75.1980  224.1760 C   0  0  0  0  0  0  0  0  0  0  0  0
  135.0520   74.8600  224.8900 C   0  0  0  0  0  0  0  0  0  0  0  0
  135.4840   73.5240  224.5590 N   0  0  0  0  0  0  0  0  0  0  0  0
  134.6930   72.9200  223.5170 C   0  0  0  0  0  0  0  0  0  0  0  0
  137.7620   74.8850  221.6530 N   0  0  0  0  0  0  0  0  0  0  0  0
  139.0560   74.8950  222.0110 C   0  0  0  0  0  0  0  0  0  0  0  0
  139.8160   76.0870  221.8470 N   0  0  0  0  0  0  0  0  0  0  0  0
  141.1440   75.9910  221.2920 C   0  0  0  0  0  0  0  0  0  0  0  0
  141.6390   77.3200  220.7680 C   0  0  0  0  0  0  0  0  0  0  0  0
  141.5350   78.3600  221.8490 C   0  0  0  0  0  0  0  0  0  0  0  0
  142.5700   79.2380  222.0970 C   0  0  0  0  0  0  0  0  0  0  0  0
  142.3730   80.1620  223.1180 C   0  0  0  0  0  0  0  0  0  0  0  0
  141.2030   80.1910  223.8400 C   0  0  0  0  0  0  0  0  0  0  0  0
  140.1860   79.2990  223.5700 C   0  0  0  0  0  0  0  0  0  0  0  0
  140.3510   78.3660  222.5580 C   0  0  0  0  0  0  0  0  0  0  0  0
  139.2740   77.3770  222.2270 C   0  0  0  0  0  0  0  0  0  0  0  0
  139.5820   73.7630  222.5150 N   0  0  0  0  0  0  0  0  0  0  0  0
  140.7580   71.5070  223.8080 C   0  0  0  0  0  0  0  0  0  0  0  0
  139.9743   69.1181  228.5217 H   0  0  0  0  0  0  0  0  0  0  0  0
  141.1860   71.2862  228.4480 H   0  0  0  0  0  0  0  0  0  0  0  0
  141.5794   72.4395  226.2744 H   0  0  0  0  0  0  0  0  0  0  0  0
  139.1473   68.0963  226.4026 H   0  0  0  0  0  0  0  0  0  0  0  0
  140.2866   68.7961  223.2697 H   0  0  0  0  0  0  0  0  0  0  0  0
  138.7738   68.2472  224.0358 H   0  0  0  0  0  0  0  0  0  0  0  0
  138.5269   69.9235  222.0970 H   0  0  0  0  0  0  0  0  0  0  0  0
  137.6955   70.3620  223.6323 H   0  0  0  0  0  0  0  0  0  0  0  0
  136.9269   71.7618  222.4079 H   0  0  0  0  0  0  0  0  0  0  0  0
  135.3520   73.8110  220.3670 H   0  0  0  0  0  0  0  0  0  0  0  0
  133.6414   73.3207  221.7673 H   0  0  0  0  0  0  0  0  0  0  0  0
  134.8661   75.9017  222.4712 H   0  0  0  0  0  0  0  0  0  0  0  0
  133.1641   75.4986  222.1237 H   0  0  0  0  0  0  0  0  0  0  0  0
  133.4063   76.1920  224.4873 H   0  0  0  0  0  0  0  0  0  0  0  0
  132.9759   74.4662  224.4204 H   0  0  0  0  0  0  0  0  0  0  0  0
  135.8299   75.5763  224.5870 H   0  0  0  0  0  0  0  0  0  0  0  0
  134.8814   74.9175  225.9752 H   0  0  0  0  0  0  0  0  0  0  0  0
  136.5070   73.4430  224.3980 H   0  0  0  0  0  0  0  0  0  0  0  0
  135.2020   72.0017  223.1889 H   0  0  0  0  0  0  0  0  0  0  0  0
  133.6993   72.7324  223.9499 H   0  0  0  0  0  0  0  0  0  0  0  0
  141.8315   75.6405  222.0759 H   0  0  0  0  0  0  0  0  0  0  0  0
  141.1083   75.2863  220.4481 H   0  0  0  0  0  0  0  0  0  0  0  0
  142.6888   77.2217  220.4547 H   0  0  0  0  0  0  0  0  0  0  0  0
  141.0245   77.6249  219.9081 H   0  0  0  0  0  0  0  0  0  0  0  0
  143.5040   79.2088  221.5166 H   0  0  0  0  0  0  0  0  0  0  0  0
  143.1691   80.8840  223.3525 H   0  0  0  0  0  0  0  0  0  0  0  0
  141.0767   80.9336  224.6416 H   0  0  0  0  0  0  0  0  0  0  0  0
  139.2531   79.3277  224.1521 H   0  0  0  0  0  0  0  0  0  0  0  0
  138.6302   77.2453  223.1091 H   0  0  0  0  0  0  0  0  0  0  0  0
  138.7043   77.7701  221.3721 H   0  0  0  0  0  0  0  0  0  0  0  0
  141.4859   70.9382  223.2108 H   0  0  0  0  0  0  0  0  0  0  0  0
  141.1513   72.5328  223.8633 H   0  0  0  0  0  0  0  0  0  0  0  0
  1  2  2  0
  2  3  1  0
  3  4  2  0
  4  5  1  0
  5  6  2  0
  5  7  1  0
  7  8  1  0
  8  9  1  0
  9 10  1  0
 10 11  2  0
 11 12  1  0
 12 13  1  0
 13 14  1  0
 14 15  1  0
 15 16  1  0
 16 17  1  0
 17 18  1  0
 18 19  1  0
 12 20  2  0
 20 21  1  0
 21 22  1  0
 22 23  1  0
 23 24  1  0
 24 25  1  0
 25 26  2  0
 26 27  1  0
 27 28  2  0
 28 29  1  0
 29 30  2  0
 30 31  1  0
 21 32  2  0
  9 33  1  0
  6  1  1  0
 32 10  1  0
 33  4  1  0
 19 14  1  0
 31 22  1  0
 30 25  1  0
  1 34  1  0
  2 35  1  0
  3 36  1  0
  6 37  1  0
  7 38  1  0
  7 39  1  0
  8 40  1  0
  8 41  1  0
 11 42  1  0
 13 43  1  0
 14 44  1  6
 15 45  1  0
 15 46  1  0
 16 47  1  0
 16 48  1  0
 17 49  1  0
 17 50  1  0
 18 51  1  0
 19 52  1  0
 19 53  1  0
 23 54  1  0
 23 55  1  0
 24 56  1  0
 24 57  1  0
 26 58  1  0
 27 59  1  0
 28 60  1  0
 29 61  1  0
 31 62  1  0
 31 63  1  0
 33 64  1  0
 33 65  1  0
M  END
>  <smiles>  (25) 
c1ccc2c(c1)CCN(c1cc(NC3CCCNC3)nc(N3CCc4ccccc4C3)n1)C2

>  <score_type>  (25) 
oracle

>  <origin>  (25) 
autodockgpu

>  <m_score__min__energy>  (25) 
-9.3200000000000003

>  <m_primary>  (25) 
energy

>  <rmsd>  (25) 
7.9796037661863455

>  <m_score__min__rmsd>  (25) 
7.9796037661863455

>  <meeko>  (25) 
{"free_energy": -9.21, "intermolecular_energy": -10.4, "internal_energy": -1.27, "cluster_size": 26, "cluster_id": 2, "rank_in_cluster": 5}

>  <energy>  (25) 
-9.11

>  <cluster_rmsd>  (25) 
0.58

>  <cluster>  (25) 
2

$$$$

     RDKit          3D

 65 70  0  0  0  0  0  0  0  0999 V2000
  140.1310   70.3670  228.3460 C   0  0  0  0  0  0  0  0  0  0  0  0
  140.8160   71.5370  228.0540 C   0  0  0  0  0  0  0  0  0  0  0  0
  141.0820   71.8980  226.7470 C   0  0  0  0  0  0  0  0  0  0  0  0
  140.6420   71.0550  225.7480 C   0  0  0  0  0  0  0  0  0  0  0  0
  139.9560   69.8820  225.9950 C   0  0  0  0  0  0  0  0  0  0  0  0
  139.7060   69.5470  227.3000 C   0  0  0  0  0  0  0  0  0  0  0  0
  139.5290   69.0490  224.8410 C   0  0  0  0  0  0  0  0  0  0  0  0
  138.8100   69.9530  223.8660 C   0  0  0  0  0  0  0  0  0  0  0  0
  139.5610   71.1620  223.6710 N   0  0  0  0  0  0  0  0  0  0  0  0
  139.0320   72.2080  222.8640 C   0  0  0  0  0  0  0  0  0  0  0  0
  137.8400   72.0240  222.1990 C   0  0  0  0  0  0  0  0  0  0  0  0
  137.2790   73.0250  221.3940 C   0  0  0  0  0  0  0  0  0  0  0  0
  136.0580   72.7920  220.7380 N   0  0  0  0  0  0  0  0  0  0  0  0
  135.0890   73.8060  220.3860 C   0  0  2  0  0  0  0  0  0  0  0  0
  135.4830   74.5190  219.1090 C   0  0  0  0  0  0  0  0  0  0  0  0
  135.2100   75.9930  219.3040 C   0  0  0  0  0  0  0  0  0  0  0  0
  136.1060   76.4680  220.4290 C   0  0  0  0  0  0  0  0  0  0  0  0
  135.7580   75.8180  221.6690 N   0  0  0  0  0  0  0  0  0  0  0  0
  134.7850   74.7680  221.4980 C   0  0  0  0  0  0  0  0  0  0  0  0
  137.9860   74.1640  221.3230 N   0  0  0  0  0  0  0  0  0  0  0  0
  139.1500   74.3830  221.9560 C   0  0  0  0  0  0  0  0  0  0  0  0
  139.8030   75.6370  221.8010 N   0  0  0  0  0  0  0  0  0  0  0  0
  141.1620   75.6550  221.3170 C   0  0  0  0  0  0  0  0  0  0  0  0
  141.5590   77.0140  220.7850 C   0  0  0  0  0  0  0  0  0  0  0  0
  141.3000   78.0610  221.8320 C   0  0  0  0  0  0  0  0  0  0  0  0
  142.2350   79.0380  222.1100 C   0  0  0  0  0  0  0  0  0  0  0  0
  141.8990   79.9610  223.0950 C   0  0  0  0  0  0  0  0  0  0  0  0
  140.6940   79.8940  223.7550 C   0  0  0  0  0  0  0  0  0  0  0  0
  139.7800   78.9050  223.4570 C   0  0  0  0  0  0  0  0  0  0  0  0
  140.0850   77.9710  222.4790 C   0  0  0  0  0  0  0  0  0  0  0  0
  139.1240   76.8780  222.1190 C   0  0  0  0  0  0  0  0  0  0  0  0
  139.6510   73.3930  222.7180 N   0  0  0  0  0  0  0  0  0  0  0  0
  140.8810   71.3630  224.2910 C   0  0  0  0  0  0  0  0  0  0  0  0
  139.9251   70.0886  229.3901 H   0  0  0  0  0  0  0  0  0  0  0  0
  141.1525   72.1872  228.8750 H   0  0  0  0  0  0  0  0  0  0  0  0
  141.6255   72.8249  226.5116 H   0  0  0  0  0  0  0  0  0  0  0  0
  139.1623   68.6180  227.5264 H   0  0  0  0  0  0  0  0  0  0  0  0
  140.4086   68.5995  224.3571 H   0  0  0  0  0  0  0  0  0  0  0  0
  138.8668   68.2366  225.1750 H   0  0  0  0  0  0  0  0  0  0  0  0
  138.6985   69.4341  222.9025 H   0  0  0  0  0  0  0  0  0  0  0  0
  137.8189   70.2051  224.2711 H   0  0  0  0  0  0  0  0  0  0  0  0
  137.3131   71.0640  222.3026 H   0  0  0  0  0  0  0  0  0  0  0  0
  135.8140   71.8000  220.4770 H   0  0  0  0  0  0  0  0  0  0  0  0
  134.1441   73.2734  220.2030 H   0  0  0  0  0  0  0  0  0  0  0  0
  136.5521   74.3595  218.9052 H   0  0  0  0  0  0  0  0  0  0  0  0
  134.9073   74.1296  218.2564 H   0  0  0  0  0  0  0  0  0  0  0  0
  135.4398   76.5445  218.3804 H   0  0  0  0  0  0  0  0  0  0  0  0
  134.1514   76.1657  219.5477 H   0  0  0  0  0  0  0  0  0  0  0  0
  137.1518   76.2346  220.1804 H   0  0  0  0  0  0  0  0  0  0  0  0
  135.9749   77.5534  220.5504 H   0  0  0  0  0  0  0  0  0  0  0  0
  136.5800   75.5280  222.2340 H   0  0  0  0  0  0  0  0  0  0  0  0
  134.7267   74.1986  222.4373 H   0  0  0  0  0  0  0  0  0  0  0  0
  133.8387   75.2616  221.2318 H   0  0  0  0  0  0  0  0  0  0  0  0
  141.8364   75.3869  222.1436 H   0  0  0  0  0  0  0  0  0  0  0  0
  141.2366   74.9329  220.4906 H   0  0  0  0  0  0  0  0  0  0  0  0
  142.6289   77.0088  220.5294 H   0  0  0  0  0  0  0  0  0  0  0  0
  140.9667   77.2417  219.8865 H   0  0  0  0  0  0  0  0  0  0  0  0
  143.1974   79.0842  221.5792 H   0  0  0  0  0  0  0  0  0  0  0  0
  142.6106   80.7598  223.3510 H   0  0  0  0  0  0  0  0  0  0  0  0
  140.4565   80.6380  224.5296 H   0  0  0  0  0  0  0  0  0  0  0  0
  138.8189   78.8578  223.9899 H   0  0  0  0  0  0  0  0  0  0  0  0
  138.4489   76.7048  222.9700 H   0  0  0  0  0  0  0  0  0  0  0  0
  138.5669   77.1976  221.2260 H   0  0  0  0  0  0  0  0  0  0  0  0
  141.6248   70.6757  223.8616 H   0  0  0  0  0  0  0  0  0  0  0  0
  141.2784   72.3758  224.1289 H   0  0  0  0  0  0  0  0  0  0  0  0
  1  2  2  0
  2  3  1  0
  3  4  2  0
  4  5  1  0
  5  6  2  0
  5  7  1  0
  7  8  1  0
  8  9  1  0
  9 10  1  0
 10 11  2  0
 11 12  1  0
 12 13  1  0
 13 14  1  0
 14 15  1  0
 15 16  1  0
 16 17  1  0
 17 18  1  0
 18 19  1  0
 12 20  2  0
 20 21  1  0
 21 22  1  0
 22 23  1  0
 23 24  1  0
 24 25  1  0
 25 26  2  0
 26 27  1  0
 27 28  2  0
 28 29  1  0
 29 30  2  0
 30 31  1  0
 21 32  2  0
  9 33  1  0
  6  1  1  0
 32 10  1  0
 33  4  1  0
 19 14  1  0
 31 22  1  0
 30 25  1  0
  1 34  1  0
  2 35  1  0
  3 36  1  0
  6 37  1  0
  7 38  1  0
  7 39  1  0
  8 40  1  0
  8 41  1  0
 11 42  1  0
 13 43  1  0
 14 44  1  6
 15 45  1  0
 15 46  1  0
 16 47  1  0
 16 48  1  0
 17 49  1  0
 17 50  1  0
 18 51  1  0
 19 52  1  0
 19 53  1  0
 23 54  1  0
 23 55  1  0
 24 56  1  0
 24 57  1  0
 26 58  1  0
 27 59  1  0
 28 60  1  0
 29 61  1  0
 31 62  1  0
 31 63  1  0
 33 64  1  0
 33 65  1  0
M  END
>  <smiles>  (26) 
c1ccc2c(c1)CCN(c1cc(NC3CCCNC3)nc(N3CCc4ccccc4C3)n1)C2

>  <score_type>  (26) 
oracle

>  <origin>  (26) 
autodockgpu

>  <m_score__min__energy>  (26) 
-9.3200000000000003

>  <m_primary>  (26) 
energy

>  <rmsd>  (26) 
6.979200322258997

>  <m_score__min__rmsd>  (26) 
6.979200322258997

>  <meeko>  (26) 
{"free_energy": -8.36, "intermolecular_energy": -9.55, "internal_energy": -2.01, "cluster_size": 26, "cluster_id": 2, "rank_in_cluster": 24}

>  <energy>  (26) 
-9.1

>  <cluster_rmsd>  (26) 
0.57

>  <cluster>  (26) 
2

$$$$

     RDKit          3D

 65 70  0  0  0  0  0  0  0  0999 V2000
  140.1240   69.5750  227.5140 C   0  0  0  0  0  0  0  0  0  0  0  0
  140.7980   70.7860  227.4870 C   0  0  0  0  0  0  0  0  0  0  0  0
  141.0230   71.4490  226.2960 C   0  0  0  0  0  0  0  0  0  0  0  0
  140.5530   70.8630  225.1390 C   0  0  0  0  0  0  0  0  0  0  0  0
  139.8770   69.6590  225.1210 C   0  0  0  0  0  0  0  0  0  0  0  0
  139.6670   69.0220  226.3160 C   0  0  0  0  0  0  0  0  0  0  0  0
  139.4150   69.1190  223.8150 C   0  0  0  0  0  0  0  0  0  0  0  0
  138.6650   70.2230  223.1040 C   0  0  0  0  0  0  0  0  0  0  0  0
  139.4080   71.4490  223.1800 N   0  0  0  0  0  0  0  0  0  0  0  0
  138.8530   72.6520  222.6600 C   0  0  0  0  0  0  0  0  0  0  0  0
  137.5250   72.6920  222.2950 C   0  0  0  0  0  0  0  0  0  0  0  0
  136.9330   73.8540  221.7790 C   0  0  0  0  0  0  0  0  0  0  0  0
  135.5730   73.8480  221.4260 N   0  0  0  0  0  0  0  0  0  0  0  0
  134.4690   74.0450  222.3380 C   0  0  2  0  0  0  0  0  0  0  0  0
  134.2360   75.5170  222.6050 C   0  0  0  0  0  0  0  0  0  0  0  0
  133.9540   75.6760  224.0810 C   0  0  0  0  0  0  0  0  0  0  0  0
  135.1960   75.2330  224.8240 C   0  0  0  0  0  0  0  0  0  0  0  0
  135.4510   73.8310  224.6030 N   0  0  0  0  0  0  0  0  0  0  0  0
  134.5820   73.2530  223.6090 C   0  0  0  0  0  0  0  0  0  0  0  0
  137.7520   74.9120  221.6710 N   0  0  0  0  0  0  0  0  0  0  0  0
  139.0500   74.9140  222.0170 C   0  0  0  0  0  0  0  0  0  0  0  0
  139.8130   76.1040  221.8540 N   0  0  0  0  0  0  0  0  0  0  0  0
  141.1460   76.0030  221.3100 C   0  0  0  0  0  0  0  0  0  0  0  0
  141.6470   77.3290  220.7850 C   0  0  0  0  0  0  0  0  0  0  0  0
  141.5360   78.3740  221.8610 C   0  0  0  0  0  0  0  0  0  0  0  0
  142.5700   79.2510  222.1130 C   0  0  0  0  0  0  0  0  0  0  0  0
  142.3670   80.1800  223.1290 C   0  0  0  0  0  0  0  0  0  0  0  0
  141.1900   80.2140  223.8400 C   0  0  0  0  0  0  0  0  0  0  0  0
  140.1740   79.3230  223.5660 C   0  0  0  0  0  0  0  0  0  0  0  0
  140.3460   78.3850  222.5590 C   0  0  0  0  0  0  0  0  0  0  0  0
  139.2700   77.3970  222.2240 C   0  0  0  0  0  0  0  0  0  0  0  0
  139.5760   73.7760  222.5060 N   0  0  0  0  0  0  0  0  0  0  0  0
  140.7460   71.5100  223.7890 C   0  0  0  0  0  0  0  0  0  0  0  0
  139.9511   69.0556  228.4682 H   0  0  0  0  0  0  0  0  0  0  0  0
  141.1593   71.2258  228.4283 H   0  0  0  0  0  0  0  0  0  0  0  0
  141.5578   72.4099  226.2712 H   0  0  0  0  0  0  0  0  0  0  0  0
  139.1309   68.0616  226.3317 H   0  0  0  0  0  0  0  0  0  0  0  0
  140.2796   68.8042  223.2122 H   0  0  0  0  0  0  0  0  0  0  0  0
  138.7644   68.2450  223.9664 H   0  0  0  0  0  0  0  0  0  0  0  0
  138.5246   69.9469  222.0485 H   0  0  0  0  0  0  0  0  0  0  0  0
  137.6863   70.3633  223.5861 H   0  0  0  0  0  0  0  0  0  0  0  0
  136.9114   71.7865  222.4117 H   0  0  0  0  0  0  0  0  0  0  0  0
  135.3230   73.6860  220.4140 H   0  0  0  0  0  0  0  0  0  0  0  0
  133.5796   73.6444  221.8295 H   0  0  0  0  0  0  0  0  0  0  0  0
  135.1312   76.0941  222.3301 H   0  0  0  0  0  0  0  0  0  0  0  0
  133.3896   75.8880  222.0084 H   0  0  0  0  0  0  0  0  0  0  0  0
  133.7324   76.7286  224.3111 H   0  0  0  0  0  0  0  0  0  0  0  0
  133.0841   75.0726  224.3797 H   0  0  0  0  0  0  0  0  0  0  0  0
  136.0573   75.8170  224.4675 H   0  0  0  0  0  0  0  0  0  0  0  0
  135.0412   75.3983  225.9004 H   0  0  0  0  0  0  0  0  0  0  0  0
  136.4540   73.6060  224.4530 H   0  0  0  0  0  0  0  0  0  0  0  0
  134.9665   72.2536  223.3570 H   0  0  0  0  0  0  0  0  0  0  0  0
  133.5752   73.2302  224.0516 H   0  0  0  0  0  0  0  0  0  0  0  0
  141.8265   75.6545  222.1008 H   0  0  0  0  0  0  0  0  0  0  0  0
  141.1162   75.2947  220.4689 H   0  0  0  0  0  0  0  0  0  0  0  0
  142.6992   77.2279  220.4805 H   0  0  0  0  0  0  0  0  0  0  0  0
  141.0396   77.6313  219.9191 H   0  0  0  0  0  0  0  0  0  0  0  0
  143.5082   79.2178  221.5397 H   0  0  0  0  0  0  0  0  0  0  0  0
  143.1628   80.9008  223.3680 H   0  0  0  0  0  0  0  0  0  0  0  0
  141.0577   80.9609  224.6367 H   0  0  0  0  0  0  0  0  0  0  0  0
  139.2364   79.3558  224.1403 H   0  0  0  0  0  0  0  0  0  0  0  0
  138.6189   77.2704  223.1015 H   0  0  0  0  0  0  0  0  0  0  0  0
  138.7076   77.7874  221.3630 H   0  0  0  0  0  0  0  0  0  0  0  0
  141.4772   70.9509  223.1867 H   0  0  0  0  0  0  0  0  0  0  0  0
  141.1366   72.5359  223.8593 H   0  0  0  0  0  0  0  0  0  0  0  0
  1  2  2  0
  2  3  1  0
  3  4  2  0
  4  5  1  0
  5  6  2  0
  5  7  1  0
  7  8  1  0
  8  9  1  0
  9 10  1  0
 10 11  2  0
 11 12  1  0
 12 13  1  0
 13 14  1  0
 14 15  1  0
 15 16  1  0
 16 17  1  0
 17 18  1  0
 18 19  1  0
 12 20  2  0
 20 21  1  0
 21 22  1  0
 22 23  1  0
 23 24  1  0
 24 25  1  0
 25 26  2  0
 26 27  1  0
 27 28  2  0
 28 29  1  0
 29 30  2  0
 30 31  1  0
 21 32  2  0
  9 33  1  0
  6  1  1  0
 32 10  1  0
 33  4  1  0
 19 14  1  0
 31 22  1  0
 30 25  1  0
  1 34  1  0
  2 35  1  0
  3 36  1  0
  6 37  1  0
  7 38  1  0
  7 39  1  0
  8 40  1  0
  8 41  1  0
 11 42  1  0
 13 43  1  0
 14 44  1  6
 15 45  1  0
 15 46  1  0
 16 47  1  0
 16 48  1  0
 17 49  1  0
 17 50  1  0
 18 51  1  0
 19 52  1  0
 19 53  1  0
 23 54  1  0
 23 55  1  0
 24 56  1  0
 24 57  1  0
 26 58  1  0
 27 59  1  0
 28 60  1  0
 29 61  1  0
 31 62  1  0
 31 63  1  0
 33 64  1  0
 33 65  1  0
M  END
>  <smiles>  (27) 
c1ccc2c(c1)CCN(c1cc(NC3CCCNC3)nc(N3CCc4ccccc4C3)n1)C2

>  <score_type>  (27) 
oracle

>  <origin>  (27) 
autodockgpu

>  <m_score__min__energy>  (27) 
-9.3200000000000003

>  <m_primary>  (27) 
energy

>  <rmsd>  (27) 
7.783293148016834

>  <m_score__min__rmsd>  (27) 
7.783293148016834

>  <meeko>  (27) 
{"free_energy": -9.21, "intermolecular_energy": -10.4, "internal_energy": -1.34, "cluster_size": 26, "cluster_id": 2, "rank_in_cluster": 3}

>  <energy>  (27) 
-9.08

>  <cluster_rmsd>  (27) 
0.35

>  <cluster>  (27) 
2

$$$$

     RDKit          3D

 65 70  0  0  0  0  0  0  0  0999 V2000
  140.8190   79.1320  223.2650 C   0  0  0  0  0  0  0  0  0  0  0  0
  139.4890   78.7840  223.4420 C   0  0  0  0  0  0  0  0  0  0  0  0
  138.9170   77.7610  222.7110 C   0  0  0  0  0  0  0  0  0  0  0  0
  139.7170   77.1000  221.8020 C   0  0  0  0  0  0  0  0  0  0  0  0
  141.0460   77.4130  221.5960 C   0  0  0  0  0  0  0  0  0  0  0  0
  141.5880   78.4320  222.3330 C   0  0  0  0  0  0  0  0  0  0  0  0
  141.8140   76.6340  220.5890 C   0  0  0  0  0  0  0  0  0  0  0  0
  141.5970   75.1670  220.8840 C   0  0  0  0  0  0  0  0  0  0  0  0
  140.2020   74.9130  221.1130 N   0  0  0  0  0  0  0  0  0  0  0  0
  139.7680   73.6150  221.5020 C   0  0  0  0  0  0  0  0  0  0  0  0
  139.1330   72.8030  220.5890 C   0  0  0  0  0  0  0  0  0  0  0  0
  138.6880   71.5160  220.9250 C   0  0  0  0  0  0  0  0  0  0  0  0
  138.0500   70.7220  219.9570 N   0  0  0  0  0  0  0  0  0  0  0  0
  137.8630   69.2910  220.0380 C   0  0  2  0  0  0  0  0  0  0  0  0
  136.7860   68.9350  221.0420 C   0  0  0  0  0  0  0  0  0  0  0  0
  137.2680   67.7360  221.8250 C   0  0  0  0  0  0  0  0  0  0  0  0
  138.5150   68.1610  222.5720 C   0  0  0  0  0  0  0  0  0  0  0  0
  139.5710   68.5020  221.6510 N   0  0  0  0  0  0  0  0  0  0  0  0
  139.1320   68.5250  220.2780 C   0  0  0  0  0  0  0  0  0  0  0  0
  138.9270   71.1420  222.1920 N   0  0  0  0  0  0  0  0  0  0  0  0
  139.5430   71.9030  223.1110 C   0  0  0  0  0  0  0  0  0  0  0  0
  139.7380   71.3900  224.4240 N   0  0  0  0  0  0  0  0  0  0  0  0
  140.8430   71.8910  225.2060 C   0  0  0  0  0  0  0  0  0  0  0  0
  140.6680   71.6120  226.6820 C   0  0  0  0  0  0  0  0  0  0  0  0
  140.4240   70.1430  226.8930 C   0  0  0  0  0  0  0  0  0  0  0  0
  141.0770   69.4480  227.8890 C   0  0  0  0  0  0  0  0  0  0  0  0
  140.7810   68.0930  228.0020 C   0  0  0  0  0  0  0  0  0  0  0  0
  139.8810   67.4860  227.1570 C   0  0  0  0  0  0  0  0  0  0  0  0
  139.2440   68.2080  226.1700 C   0  0  0  0  0  0  0  0  0  0  0  0
  139.5170   69.5600  226.0310 C   0  0  0  0  0  0  0  0  0  0  0  0
  138.8500   70.3860  224.9740 C   0  0  0  0  0  0  0  0  0  0  0  0
  139.9520   73.1320  222.7440 N   0  0  0  0  0  0  0  0  0  0  0  0
  139.1860   75.9670  220.9590 C   0  0  0  0  0  0  0  0  0  0  0  0
  141.2633   79.9496  223.8516 H   0  0  0  0  0  0  0  0  0  0  0  0
  138.8794   79.3311  224.1762 H   0  0  0  0  0  0  0  0  0  0  0  0
  137.8616   77.4834  222.8487 H   0  0  0  0  0  0  0  0  0  0  0  0
  142.6443   78.7030  222.1888 H   0  0  0  0  0  0  0  0  0  0  0  0
  141.4534   76.8705  219.5771 H   0  0  0  0  0  0  0  0  0  0  0  0
  142.8839   76.8845  220.6405 H   0  0  0  0  0  0  0  0  0  0  0  0
  141.9404   74.5685  220.0273 H   0  0  0  0  0  0  0  0  0  0  0  0
  142.1666   74.8916  221.7838 H   0  0  0  0  0  0  0  0  0  0  0  0
  138.9700   73.1745  219.5665 H   0  0  0  0  0  0  0  0  0  0  0  0
  137.6730   71.1960  219.0940 H   0  0  0  0  0  0  0  0  0  0  0  0
  137.5207   68.9729  219.0422 H   0  0  0  0  0  0  0  0  0  0  0  0
  136.6128   69.7820  221.7222 H   0  0  0  0  0  0  0  0  0  0  0  0
  135.8405   68.7059  220.5286 H   0  0  0  0  0  0  0  0  0  0  0  0
  136.4934   67.4145  222.5368 H   0  0  0  0  0  0  0  0  0  0  0  0
  137.4837   66.8919  221.1534 H   0  0  0  0  0  0  0  0  0  0  0  0
  138.2818   69.0376  223.1942 H   0  0  0  0  0  0  0  0  0  0  0  0
  138.8520   67.3242  223.2015 H   0  0  0  0  0  0  0  0  0  0  0  0
  140.1090   69.3480  221.9240 H   0  0  0  0  0  0  0  0  0  0  0  0
  139.9279   68.9817  219.6714 H   0  0  0  0  0  0  0  0  0  0  0  0
  138.9220   67.4813  220.0013 H   0  0  0  0  0  0  0  0  0  0  0  0
  141.7693   71.4082  224.8611 H   0  0  0  0  0  0  0  0  0  0  0  0
  140.8870   72.9817  225.0703 H   0  0  0  0  0  0  0  0  0  0  0  0
  141.5780   71.9131  227.2218 H   0  0  0  0  0  0  0  0  0  0  0  0
  139.8081   72.1831  227.0620 H   0  0  0  0  0  0  0  0  0  0  0  0
  141.7959   69.9401  228.5606 H   0  0  0  0  0  0  0  0  0  0  0  0
  141.2761   67.4958  228.7819 H   0  0  0  0  0  0  0  0  0  0  0  0
  139.6672   66.4129  227.2700 H   0  0  0  0  0  0  0  0  0  0  0  0
  138.5253   67.7154  225.4986 H   0  0  0  0  0  0  0  0  0  0  0  0
  138.5191   69.7222  224.1617 H   0  0  0  0  0  0  0  0  0  0  0  0
  137.9985   70.9053  225.4379 H   0  0  0  0  0  0  0  0  0  0  0  0
  139.0929   76.2715  219.9061 H   0  0  0  0  0  0  0  0  0  0  0  0
  138.1819   75.6401  221.2671 H   0  0  0  0  0  0  0  0  0  0  0  0
  1  2  2  0
  2  3  1  0
  3  4  2  0
  4  5  1  0
  5  6  2  0
  5  7  1  0
  7  8  1  0
  8  9  1  0
  9 10  1  0
 10 11  2  0
 11 12  1  0
 12 13  1  0
 13 14  1  0
 14 15  1  0
 15 16  1  0
 16 17  1  0
 17 18  1  0
 18 19  1  0
 12 20  2  0
 20 21  1  0
 21 22  1  0
 22 23  1  0
 23 24  1  0
 24 25  1  0
 25 26  2  0
 26 27  1  0
 27 28  2  0
 28 29  1  0
 29 30  2  0
 30 31  1  0
 21 32  2  0
  9 33  1  0
  6  1  1  0
 32 10  1  0
 33  4  1  0
 19 14  1  0
 31 22  1  0
 30 25  1  0
  1 34  1  0
  2 35  1  0
  3 36  1  0
  6 37  1  0
  7 38  1  0
  7 39  1  0
  8 40  1  0
  8 41  1  0
 11 42  1  0
 13 43  1  0
 14 44  1  6
 15 45  1  0
 15 46  1  0
 16 47  1  0
 16 48  1  0
 17 49  1  0
 17 50  1  0
 18 51  1  0
 19 52  1  0
 19 53  1  0
 23 54  1  0
 23 55  1  0
 24 56  1  0
 24 57  1  0
 26 58  1  0
 27 59  1  0
 28 60  1  0
 29 61  1  0
 31 62  1  0
 31 63  1  0
 33 64  1  0
 33 65  1  0
M  END
>  <smiles>  (28) 
c1ccc2c(c1)CCN(c1cc(NC3CCCNC3)nc(N3CCc4ccccc4C3)n1)C2

>  <score_type>  (28) 
oracle

>  <origin>  (28) 
autodockgpu

>  <m_score__min__energy>  (28) 
-9.3200000000000003

>  <m_primary>  (28) 
energy

>  <rmsd>  (28) 
9.457064256314158

>  <m_score__min__rmsd>  (28) 
9.457064256314158

>  <meeko>  (28) 
{"free_energy": -8.14, "intermolecular_energy": -9.33, "internal_energy": -2.13, "cluster_size": 2, "cluster_id": 6, "rank_in_cluster": 2}

>  <energy>  (28) 
-9.07

>  <cluster_rmsd>  (28) 
0.49

>  <cluster>  (28) 
2

$$$$

     RDKit          3D

 65 70  0  0  0  0  0  0  0  0999 V2000
  143.3160   76.6360  217.0580 C   0  0  0  0  0  0  0  0  0  0  0  0
  143.5120   75.2730  217.2260 C   0  0  0  0  0  0  0  0  0  0  0  0
  143.2450   74.6590  218.4340 C   0  0  0  0  0  0  0  0  0  0  0  0
  142.7780   75.4490  219.4640 C   0  0  0  0  0  0  0  0  0  0  0  0
  142.5680   76.8080  219.3390 C   0  0  0  0  0  0  0  0  0  0  0  0
  142.8400   77.3920  218.1310 C   0  0  0  0  0  0  0  0  0  0  0  0
  142.0620   77.5620  220.5170 C   0  0  0  0  0  0  0  0  0  0  0  0
  140.8490   76.8280  221.0420 C   0  0  0  0  0  0  0  0  0  0  0  0
  141.1240   75.4210  221.1240 N   0  0  0  0  0  0  0  0  0  0  0  0
  140.0960   74.5140  221.5050 C   0  0  0  0  0  0  0  0  0  0  0  0
  138.8250   74.6670  220.9970 C   0  0  0  0  0  0  0  0  0  0  0  0
  137.7790   73.7990  221.3410 C   0  0  0  0  0  0  0  0  0  0  0  0
  136.5000   73.9920  220.7930 N   0  0  0  0  0  0  0  0  0  0  0  0
  135.3210   74.3810  221.5330 C   0  0  2  0  0  0  0  0  0  0  0  0
  135.3650   75.8500  221.9010 C   0  0  0  0  0  0  0  0  0  0  0  0
  134.8670   75.9810  223.3220 C   0  0  0  0  0  0  0  0  0  0  0  0
  135.8350   75.2230  224.2070 C   0  0  0  0  0  0  0  0  0  0  0  0
  135.8190   73.8150  223.8930 N   0  0  0  0  0  0  0  0  0  0  0  0
  135.0350   73.5100  222.7220 C   0  0  0  0  0  0  0  0  0  0  0  0
  138.1100   72.8170  222.1950 N   0  0  0  0  0  0  0  0  0  0  0  0
  139.3360   72.6330  222.7120 C   0  0  0  0  0  0  0  0  0  0  0  0
  139.5600   71.5510  223.6080 N   0  0  0  0  0  0  0  0  0  0  0  0
  138.6180   70.4580  223.6230 C   0  0  0  0  0  0  0  0  0  0  0  0
  139.1980   69.2170  224.2630 C   0  0  0  0  0  0  0  0  0  0  0  0
  139.7230   69.5510  225.6310 C   0  0  0  0  0  0  0  0  0  0  0  0
  139.4600   68.7370  226.7140 C   0  0  0  0  0  0  0  0  0  0  0  0
  139.9920   69.1340  227.9370 C   0  0  0  0  0  0  0  0  0  0  0  0
  140.7410   70.2830  228.0500 C   0  0  0  0  0  0  0  0  0  0  0  0
  140.9850   71.0770  226.9500 C   0  0  0  0  0  0  0  0  0  0  0  0
  140.4690   70.7080  225.7170 C   0  0  0  0  0  0  0  0  0  0  0  0
  140.7090   71.5380  224.4920 C   0  0  0  0  0  0  0  0  0  0  0  0
  140.3090   73.4920  222.3540 N   0  0  0  0  0  0  0  0  0  0  0  0
  142.4550   74.8710  220.8200 C   0  0  0  0  0  0  0  0  0  0  0  0
  143.5328   77.1150  216.0918 H   0  0  0  0  0  0  0  0  0  0  0  0
  143.8859   74.6719  216.3840 H   0  0  0  0  0  0  0  0  0  0  0  0
  143.3992   73.5784  218.5700 H   0  0  0  0  0  0  0  0  0  0  0  0
  142.6812   78.4730  218.0038 H   0  0  0  0  0  0  0  0  0  0  0  0
  142.8385   77.6080  221.2948 H   0  0  0  0  0  0  0  0  0  0  0  0
  141.7980   78.5914  220.2329 H   0  0  0  0  0  0  0  0  0  0  0  0
  140.5976   77.2090  222.0428 H   0  0  0  0  0  0  0  0  0  0  0  0
  140.0036   76.9915  220.3575 H   0  0  0  0  0  0  0  0  0  0  0  0
  138.6246   75.4947  220.3007 H   0  0  0  0  0  0  0  0  0  0  0  0
  136.3750   73.8440  219.7560 H   0  0  0  0  0  0  0  0  0  0  0  0
  134.4704   74.2245  220.8533 H   0  0  0  0  0  0  0  0  0  0  0  0
  136.3971   76.2237  221.8294 H   0  0  0  0  0  0  0  0  0  0  0  0
  134.7369   76.4385  221.2160 H   0  0  0  0  0  0  0  0  0  0  0  0
  134.8387   77.0408  223.6154 H   0  0  0  0  0  0  0  0  0  0  0  0
  133.8493   75.5747  223.4184 H   0  0  0  0  0  0  0  0  0  0  0  0
  136.8504   75.6161  224.0508 H   0  0  0  0  0  0  0  0  0  0  0  0
  135.5315   75.3544  225.2561 H   0  0  0  0  0  0  0  0  0  0  0  0
  136.7600   73.3780  223.8830 H   0  0  0  0  0  0  0  0  0  0  0  0
  135.2343   72.4661  222.4382 H   0  0  0  0  0  0  0  0  0  0  0  0
  133.9848   73.6905  222.9948 H   0  0  0  0  0  0  0  0  0  0  0  0
  137.7265   70.7657  224.1892 H   0  0  0  0  0  0  0  0  0  0  0  0
  138.3641   70.2149  222.5807 H   0  0  0  0  0  0  0  0  0  0  0  0
  138.4145   68.4498  224.3493 H   0  0  0  0  0  0  0  0  0  0  0  0
  140.0207   68.8362  223.6399 H   0  0  0  0  0  0  0  0  0  0  0  0
  138.8600   67.8204  226.6154 H   0  0  0  0  0  0  0  0  0  0  0  0
  139.8105   68.5180  228.8301 H   0  0  0  0  0  0  0  0  0  0  0  0
  141.1498   70.5712  229.0297 H   0  0  0  0  0  0  0  0  0  0  0  0
  141.5834   71.9946  227.0494 H   0  0  0  0  0  0  0  0  0  0  0  0
  140.9305   72.5703  224.8008 H   0  0  0  0  0  0  0  0  0  0  0  0
  141.5534   71.0955  223.9433 H   0  0  0  0  0  0  0  0  0  0  0  0
  143.1931   75.1924  221.5696 H   0  0  0  0  0  0  0  0  0  0  0  0
  142.4752   73.7712  220.8311 H   0  0  0  0  0  0  0  0  0  0  0  0
  1  2  2  0
  2  3  1  0
  3  4  2  0
  4  5  1  0
  5  6  2  0
  5  7  1  0
  7  8  1  0
  8  9  1  0
  9 10  1  0
 10 11  2  0
 11 12  1  0
 12 13  1  0
 13 14  1  0
 14 15  1  0
 15 16  1  0
 16 17  1  0
 17 18  1  0
 18 19  1  0
 12 20  2  0
 20 21  1  0
 21 22  1  0
 22 23  1  0
 23 24  1  0
 24 25  1  0
 25 26  2  0
 26 27  1  0
 27 28  2  0
 28 29  1  0
 29 30  2  0
 30 31  1  0
 21 32  2  0
  9 33  1  0
  6  1  1  0
 32 10  1  0
 33  4  1  0
 19 14  1  0
 31 22  1  0
 30 25  1  0
  1 34  1  0
  2 35  1  0
  3 36  1  0
  6 37  1  0
  7 38  1  0
  7 39  1  0
  8 40  1  0
  8 41  1  0
 11 42  1  0
 13 43  1  0
 14 44  1  6
 15 45  1  0
 15 46  1  0
 16 47  1  0
 16 48  1  0
 17 49  1  0
 17 50  1  0
 18 51  1  0
 19 52  1  0
 19 53  1  0
 23 54  1  0
 23 55  1  0
 24 56  1  0
 24 57  1  0
 26 58  1  0
 27 59  1  0
 28 60  1  0
 29 61  1  0
 31 62  1  0
 31 63  1  0
 33 64  1  0
 33 65  1  0
M  END
>  <smiles>  (29) 
c1ccc2c(c1)CCN(c1cc(NC3CCCNC3)nc(N3CCc4ccccc4C3)n1)C2

>  <score_type>  (29) 
oracle

>  <origin>  (29) 
autodockgpu

>  <m_score__min__energy>  (29) 
-9.3200000000000003

>  <m_primary>  (29) 
energy

>  <rmsd>  (29) 
6.620581123225421

>  <m_score__min__rmsd>  (29) 
6.620581123225421

>  <meeko>  (29) 
{"free_energy": -8.52, "intermolecular_energy": -9.71, "internal_energy": -1.9, "cluster_size": 5, "cluster_id": 3, "rank_in_cluster": 1}

>  <energy>  (29) 
-9.06

>  <cluster_rmsd>  (29) 
0.32

>  <cluster>  (29) 
2

$$$$

     RDKit          3D

 65 70  0  0  0  0  0  0  0  0999 V2000
  140.1110   69.9960  227.8470 C   0  0  0  0  0  0  0  0  0  0  0  0
  140.7810   71.2040  227.7250 C   0  0  0  0  0  0  0  0  0  0  0  0
  141.0270   71.7590  226.4840 C   0  0  0  0  0  0  0  0  0  0  0  0
  140.5810   71.0700  225.3750 C   0  0  0  0  0  0  0  0  0  0  0  0
  139.9100   69.8660  225.4520 C   0  0  0  0  0  0  0  0  0  0  0  0
  139.6800   69.3370  226.6940 C   0  0  0  0  0  0  0  0  0  0  0  0
  139.4760   69.2100  224.1910 C   0  0  0  0  0  0  0  0  0  0  0  0
  138.7350   70.2420  223.3710 C   0  0  0  0  0  0  0  0  0  0  0  0
  139.4720   71.4740  223.3500 N   0  0  0  0  0  0  0  0  0  0  0  0
  138.9230   72.6230  222.7160 C   0  0  0  0  0  0  0  0  0  0  0  0
  137.6380   72.5830  222.2190 C   0  0  0  0  0  0  0  0  0  0  0  0
  137.0540   73.6900  221.5870 C   0  0  0  0  0  0  0  0  0  0  0  0
  135.7380   73.6030  221.1010 N   0  0  0  0  0  0  0  0  0  0  0  0
  134.5540   74.0440  221.8040 C   0  0  2  0  0  0  0  0  0  0  0  0
  134.4260   75.5520  221.7680 C   0  0  0  0  0  0  0  0  0  0  0  0
  133.9830   76.0080  223.1380 C   0  0  0  0  0  0  0  0  0  0  0  0
  135.0800   75.6310  224.1120 C   0  0  0  0  0  0  0  0  0  0  0  0
  135.2310   74.1990  224.1830 N   0  0  0  0  0  0  0  0  0  0  0  0
  134.4400   73.5020  223.2000 C   0  0  0  0  0  0  0  0  0  0  0  0
  137.8340   74.7780  221.5050 N   0  0  0  0  0  0  0  0  0  0  0  0
  139.0890   74.8580  221.9760 C   0  0  0  0  0  0  0  0  0  0  0  0
  139.8140   76.0730  221.8270 N   0  0  0  0  0  0  0  0  0  0  0  0
  141.1500   76.0200  221.2840 C   0  0  0  0  0  0  0  0  0  0  0  0
  141.6100   77.3670  220.7730 C   0  0  0  0  0  0  0  0  0  0  0  0
  141.4650   78.3960  221.8600 C   0  0  0  0  0  0  0  0  0  0  0  0
  142.4710   79.3030  222.1230 C   0  0  0  0  0  0  0  0  0  0  0  0
  142.2380   80.2140  223.1480 C   0  0  0  0  0  0  0  0  0  0  0  0
  141.0600   80.2030  223.8590 C   0  0  0  0  0  0  0  0  0  0  0  0
  140.0730   79.2830  223.5740 C   0  0  0  0  0  0  0  0  0  0  0  0
  140.2740   78.3620  222.5570 C   0  0  0  0  0  0  0  0  0  0  0  0
  139.2310   77.3440  222.2100 C   0  0  0  0  0  0  0  0  0  0  0  0
  139.6100   73.7710  222.5750 N   0  0  0  0  0  0  0  0  0  0  0  0
  140.7980   71.5960  223.9780 C   0  0  0  0  0  0  0  0  0  0  0  0
  139.9214   69.5623  228.8400 H   0  0  0  0  0  0  0  0  0  0  0  0
  141.1218   71.7282  228.6300 H   0  0  0  0  0  0  0  0  0  0  0  0
  141.5595   72.7163  226.3836 H   0  0  0  0  0  0  0  0  0  0  0  0
  139.1477   68.3786  226.7846 H   0  0  0  0  0  0  0  0  0  0  0  0
  140.3535   68.8484  223.6349 H   0  0  0  0  0  0  0  0  0  0  0  0
  138.8265   68.3488  224.4069 H   0  0  0  0  0  0  0  0  0  0  0  0
  138.6147   69.8719  222.3421 H   0  0  0  0  0  0  0  0  0  0  0  0
  137.7473   70.4197  223.8214 H   0  0  0  0  0  0  0  0  0  0  0  0
  137.0541   71.6564  222.3211 H   0  0  0  0  0  0  0  0  0  0  0  0
  135.5870   73.1810  220.1460 H   0  0  0  0  0  0  0  0  0  0  0  0
  133.6996   73.6155  221.2596 H   0  0  0  0  0  0  0  0  0  0  0  0
  135.3970   76.0046  221.5183 H   0  0  0  0  0  0  0  0  0  0  0  0
  133.6954   75.8586  221.0050 H   0  0  0  0  0  0  0  0  0  0  0  0
  133.8333   77.0978  223.1423 H   0  0  0  0  0  0  0  0  0  0  0  0
  133.0314   75.5331  223.4188 H   0  0  0  0  0  0  0  0  0  0  0  0
  136.0281   76.0776  223.7780 H   0  0  0  0  0  0  0  0  0  0  0  0
  134.8104   76.0072  225.1099 H   0  0  0  0  0  0  0  0  0  0  0  0
  136.2200   73.8830  224.2140 H   0  0  0  0  0  0  0  0  0  0  0  0
  134.7600   72.4497  223.1862 H   0  0  0  0  0  0  0  0  0  0  0  0
  133.3892   73.6308  223.4985 H   0  0  0  0  0  0  0  0  0  0  0  0
  141.8403   75.6850  222.0722 H   0  0  0  0  0  0  0  0  0  0  0  0
  141.1434   75.3200  220.4355 H   0  0  0  0  0  0  0  0  0  0  0  0
  142.6651   77.3022  220.4688 H   0  0  0  0  0  0  0  0  0  0  0  0
  140.9947   77.6593  219.9093 H   0  0  0  0  0  0  0  0  0  0  0  0
  143.4104   79.3055  221.5507 H   0  0  0  0  0  0  0  0  0  0  0  0
  143.0102   80.9574  223.3949 H   0  0  0  0  0  0  0  0  0  0  0  0
  140.9038   80.9364  224.6638 H   0  0  0  0  0  0  0  0  0  0  0  0
  139.1348   79.2798  224.1482 H   0  0  0  0  0  0  0  0  0  0  0  0
  138.5833   77.1875  223.0853 H   0  0  0  0  0  0  0  0  0  0  0  0
  138.6581   77.7256  221.3520 H   0  0  0  0  0  0  0  0  0  0  0  0
  141.5433   70.9900  223.4419 H   0  0  0  0  0  0  0  0  0  0  0  0
  141.1829   72.6264  223.9652 H   0  0  0  0  0  0  0  0  0  0  0  0
  1  2  2  0
  2  3  1  0
  3  4  2  0
  4  5  1  0
  5  6  2  0
  5  7  1  0
  7  8  1  0
  8  9  1  0
  9 10  1  0
 10 11  2  0
 11 12  1  0
 12 13  1  0
 13 14  1  0
 14 15  1  0
 15 16  1  0
 16 17  1  0
 17 18  1  0
 18 19  1  0
 12 20  2  0
 20 21  1  0
 21 22  1  0
 22 23  1  0
 23 24  1  0
 24 25  1  0
 25 26  2  0
 26 27  1  0
 27 28  2  0
 28 29  1  0
 29 30  2  0
 30 31  1  0
 21 32  2  0
  9 33  1  0
  6  1  1  0
 32 10  1  0
 33  4  1  0
 19 14  1  0
 31 22  1  0
 30 25  1  0
  1 34  1  0
  2 35  1  0
  3 36  1  0
  6 37  1  0
  7 38  1  0
  7 39  1  0
  8 40  1  0
  8 41  1  0
 11 42  1  0
 13 43  1  0
 14 44  1  6
 15 45  1  0
 15 46  1  0
 16 47  1  0
 16 48  1  0
 17 49  1  0
 17 50  1  0
 18 51  1  0
 19 52  1  0
 19 53  1  0
 23 54  1  0
 23 55  1  0
 24 56  1  0
 24 57  1  0
 26 58  1  0
 27 59  1  0
 28 60  1  0
 29 61  1  0
 31 62  1  0
 31 63  1  0
 33 64  1  0
 33 65  1  0
M  END
>  <smiles>  (30) 
c1ccc2c(c1)CCN(c1cc(NC3CCCNC3)nc(N3CCc4ccccc4C3)n1)C2

>  <score_type>  (30) 
oracle

>  <origin>  (30) 
autodockgpu

>  <m_score__min__energy>  (30) 
-9.3200000000000003

>  <m_primary>  (30) 
energy

>  <rmsd>  (30) 
7.542821985481728

>  <m_score__min__rmsd>  (30) 
7.542821985481728

>  <meeko>  (30) 
{"free_energy": -9.08, "intermolecular_energy": -10.27, "internal_energy": -1.38, "cluster_size": 26, "cluster_id": 2, "rank_in_cluster": 15}

>  <energy>  (30) 
-9.01

>  <cluster_rmsd>  (30) 
1.33

>  <cluster>  (30) 
2

$$$$

     RDKit          3D

 65 70  0  0  0  0  0  0  0  0999 V2000
  140.2240   69.9870  228.1790 C   0  0  0  0  0  0  0  0  0  0  0  0
  140.8740   71.1940  227.9710 C   0  0  0  0  0  0  0  0  0  0  0  0
  141.1030   71.6680  226.6940 C   0  0  0  0  0  0  0  0  0  0  0  0
  140.6620   70.8990  225.6370 C   0  0  0  0  0  0  0  0  0  0  0  0
  140.0100   69.6930  225.8000 C   0  0  0  0  0  0  0  0  0  0  0  0
  139.7960   69.2450  227.0770 C   0  0  0  0  0  0  0  0  0  0  0  0
  139.5790   68.9460  224.5890 C   0  0  0  0  0  0  0  0  0  0  0  0
  138.8170   69.9100  223.7060 C   0  0  0  0  0  0  0  0  0  0  0  0
  139.5340   71.1490  223.5980 N   0  0  0  0  0  0  0  0  0  0  0  0
  138.9640   72.2440  222.8910 C   0  0  0  0  0  0  0  0  0  0  0  0
  137.6960   72.1320  222.3630 C   0  0  0  0  0  0  0  0  0  0  0  0
  137.0910   73.1830  221.6600 C   0  0  0  0  0  0  0  0  0  0  0  0
  135.7940   73.0240  221.1440 N   0  0  0  0  0  0  0  0  0  0  0  0
  134.5670   73.2750  221.8680 C   0  0  2  0  0  0  0  0  0  0  0  0
  134.1380   74.7210  221.7320 C   0  0  0  0  0  0  0  0  0  0  0  0
  133.6550   75.1850  223.0870 C   0  0  0  0  0  0  0  0  0  0  0  0
  134.8340   75.1090  224.0330 C   0  0  0  0  0  0  0  0  0  0  0  0
  135.2720   73.7450  224.1970 N   0  0  0  0  0  0  0  0  0  0  0  0
  134.6070   72.8310  223.3020 C   0  0  0  0  0  0  0  0  0  0  0  0
  137.8350   74.2940  221.5430 N   0  0  0  0  0  0  0  0  0  0  0  0
  139.0720   74.4430  222.0430 C   0  0  0  0  0  0  0  0  0  0  0  0
  139.7580   75.6750  221.8520 N   0  0  0  0  0  0  0  0  0  0  0  0
  141.0970   75.6460  221.3140 C   0  0  0  0  0  0  0  0  0  0  0  0
  141.5150   76.9880  220.7560 C   0  0  0  0  0  0  0  0  0  0  0  0
  141.3330   78.0500  221.8050 C   0  0  0  0  0  0  0  0  0  0  0  0
  142.3080   78.9980  222.0370 C   0  0  0  0  0  0  0  0  0  0  0  0
  142.0420   79.9380  223.0270 C   0  0  0  0  0  0  0  0  0  0  0  0
  140.8620   79.9140  223.7350 C   0  0  0  0  0  0  0  0  0  0  0  0
  139.9060   78.9530  223.4810 C   0  0  0  0  0  0  0  0  0  0  0  0
  140.1420   78.0030  222.5000 C   0  0  0  0  0  0  0  0  0  0  0  0
  139.1330   76.9390  222.1870 C   0  0  0  0  0  0  0  0  0  0  0  0
  139.6140   73.4070  222.7100 N   0  0  0  0  0  0  0  0  0  0  0  0
  140.8620   71.3320  224.2060 C   0  0  0  0  0  0  0  0  0  0  0  0
  140.0477   69.6186  229.2004 H   0  0  0  0  0  0  0  0  0  0  0  0
  141.2124   71.7830  228.8362 H   0  0  0  0  0  0  0  0  0  0  0  0
  141.6188   72.6249  226.5258 H   0  0  0  0  0  0  0  0  0  0  0  0
  139.2795   68.2869  227.2360 H   0  0  0  0  0  0  0  0  0  0  0  0
  140.4587   68.5608  224.0526 H   0  0  0  0  0  0  0  0  0  0  0  0
  138.9445   68.0914  224.8668 H   0  0  0  0  0  0  0  0  0  0  0  0
  138.6972   69.4701  222.7049 H   0  0  0  0  0  0  0  0  0  0  0  0
  137.8291   70.1022  224.1499 H   0  0  0  0  0  0  0  0  0  0  0  0
  137.1427   71.1908  222.4971 H   0  0  0  0  0  0  0  0  0  0  0  0
  135.6910   72.6930  220.1480 H   0  0  0  0  0  0  0  0  0  0  0  0
  133.7995   72.6449  221.3949 H   0  0  0  0  0  0  0  0  0  0  0  0
  134.9902   75.3359  221.4070 H   0  0  0  0  0  0  0  0  0  0  0  0
  133.3378   74.8173  220.9834 H   0  0  0  0  0  0  0  0  0  0  0  0
  133.2898   76.2206  223.0225 H   0  0  0  0  0  0  0  0  0  0  0  0
  132.8273   74.5541  223.4434 H   0  0  0  0  0  0  0  0  0  0  0  0
  135.6623   75.7072  223.6256 H   0  0  0  0  0  0  0  0  0  0  0  0
  134.5250   75.5003  225.0135 H   0  0  0  0  0  0  0  0  0  0  0  0
  136.3040   73.6340  224.2040 H   0  0  0  0  0  0  0  0  0  0  0  0
  135.1311   71.8649  223.3471 H   0  0  0  0  0  0  0  0  0  0  0  0
  133.5614   72.7721  223.6384 H   0  0  0  0  0  0  0  0  0  0  0  0
  141.7951   75.3620  222.1152 H   0  0  0  0  0  0  0  0  0  0  0  0
  141.1157   74.9163  220.4911 H   0  0  0  0  0  0  0  0  0  0  0  0
  142.5727   76.9466  220.4568 H   0  0  0  0  0  0  0  0  0  0  0  0
  140.8937   77.2290  219.8809 H   0  0  0  0  0  0  0  0  0  0  0  0
  143.2490   79.0099  221.4674 H   0  0  0  0  0  0  0  0  0  0  0  0
  142.7886   80.7150  223.2482 H   0  0  0  0  0  0  0  0  0  0  0  0
  140.6793   80.6702  224.5126 H   0  0  0  0  0  0  0  0  0  0  0  0
  138.9655   78.9407  224.0514 H   0  0  0  0  0  0  0  0  0  0  0  0
  138.4873   76.7933  223.0656 H   0  0  0  0  0  0  0  0  0  0  0  0
  138.5515   77.2706  221.3141 H   0  0  0  0  0  0  0  0  0  0  0  0
  141.6125   70.7016  223.7065 H   0  0  0  0  0  0  0  0  0  0  0  0
  141.2317   72.3645  224.1204 H   0  0  0  0  0  0  0  0  0  0  0  0
  1  2  2  0
  2  3  1  0
  3  4  2  0
  4  5  1  0
  5  6  2  0
  5  7  1  0
  7  8  1  0
  8  9  1  0
  9 10  1  0
 10 11  2  0
 11 12  1  0
 12 13  1  0
 13 14  1  0
 14 15  1  0
 15 16  1  0
 16 17  1  0
 17 18  1  0
 18 19  1  0
 12 20  2  0
 20 21  1  0
 21 22  1  0
 22 23  1  0
 23 24  1  0
 24 25  1  0
 25 26  2  0
 26 27  1  0
 27 28  2  0
 28 29  1  0
 29 30  2  0
 30 31  1  0
 21 32  2  0
  9 33  1  0
  6  1  1  0
 32 10  1  0
 33  4  1  0
 19 14  1  0
 31 22  1  0
 30 25  1  0
  1 34  1  0
  2 35  1  0
  3 36  1  0
  6 37  1  0
  7 38  1  0
  7 39  1  0
  8 40  1  0
  8 41  1  0
 11 42  1  0
 13 43  1  0
 14 44  1  6
 15 45  1  0
 15 46  1  0
 16 47  1  0
 16 48  1  0
 17 49  1  0
 17 50  1  0
 18 51  1  0
 19 52  1  0
 19 53  1  0
 23 54  1  0
 23 55  1  0
 24 56  1  0
 24 57  1  0
 26 58  1  0
 27 59  1  0
 28 60  1  0
 29 61  1  0
 31 62  1  0
 31 63  1  0
 33 64  1  0
 33 65  1  0
M  END
>  <smiles>  (31) 
c1ccc2c(c1)CCN(c1cc(NC3CCCNC3)nc(N3CCc4ccccc4C3)n1)C2

>  <score_type>  (31) 
oracle

>  <origin>  (31) 
autodockgpu

>  <m_score__min__energy>  (31) 
-9.3200000000000003

>  <m_primary>  (31) 
energy

>  <rmsd>  (31) 
7.948094155956617

>  <m_score__min__rmsd>  (31) 
7.948094155956617

>  <meeko>  (31) 
{"free_energy": -9.1, "intermolecular_energy": -10.29, "internal_energy": -1.35, "cluster_size": 26, "cluster_id": 2, "rank_in_cluster": 14}

>  <energy>  (31) 
-8.99

>  <cluster_rmsd>  (31) 
1.49

>  <cluster>  (31) 
2

$$$$

     RDKit          3D

 65 70  0  0  0  0  0  0  0  0999 V2000
  141.7250   79.7840  221.4910 C   0  0  0  0  0  0  0  0  0  0  0  0
  141.7660   79.2750  222.7800 C   0  0  0  0  0  0  0  0  0  0  0  0
  141.0980   78.1120  223.1080 C   0  0  0  0  0  0  0  0  0  0  0  0
  140.3900   77.4770  222.1090 C   0  0  0  0  0  0  0  0  0  0  0  0
  140.3230   77.9490  220.8120 C   0  0  0  0  0  0  0  0  0  0  0  0
  140.9950   79.1050  220.5140 C   0  0  0  0  0  0  0  0  0  0  0  0
  139.5300   77.1830  219.8150 C   0  0  0  0  0  0  0  0  0  0  0  0
  139.9730   75.7390  219.8910 C   0  0  0  0  0  0  0  0  0  0  0  0
  140.0450   75.3190  221.2620 N   0  0  0  0  0  0  0  0  0  0  0  0
  140.5300   74.0210  221.5860 C   0  0  0  0  0  0  0  0  0  0  0  0
  141.3550   73.3590  220.7030 C   0  0  0  0  0  0  0  0  0  0  0  0
  141.8600   72.0800  220.9780 C   0  0  0  0  0  0  0  0  0  0  0  0
  142.7030   71.4470  220.0490 N   0  0  0  0  0  0  0  0  0  0  0  0
  144.0100   71.9160  219.6470 C   0  0  2  0  0  0  0  0  0  0  0  0
  144.8130   72.3900  220.8400 C   0  0  0  0  0  0  0  0  0  0  0  0
  145.5250   73.6610  220.4380 C   0  0  0  0  0  0  0  0  0  0  0  0
  144.4600   74.6900  220.1220 C   0  0  0  0  0  0  0  0  0  0  0  0
  143.6760   74.2800  218.9830 N   0  0  0  0  0  0  0  0  0  0  0  0
  143.9760   72.9400  218.5480 C   0  0  0  0  0  0  0  0  0  0  0  0
  141.4810   71.5580  222.1550 N   0  0  0  0  0  0  0  0  0  0  0  0
  140.6800   72.1700  223.0410 C   0  0  0  0  0  0  0  0  0  0  0  0
  140.3520   71.5080  224.2580 N   0  0  0  0  0  0  0  0  0  0  0  0
  141.0790   71.8570  225.4540 C   0  0  0  0  0  0  0  0  0  0  0  0
  140.3490   71.4320  226.7080 C   0  0  0  0  0  0  0  0  0  0  0  0
  140.0250   69.9650  226.6310 C   0  0  0  0  0  0  0  0  0  0  0  0
  140.2390   69.1300  227.7080 C   0  0  0  0  0  0  0  0  0  0  0  0
  139.9050   67.7910  227.5360 C   0  0  0  0  0  0  0  0  0  0  0  0
  139.3880   67.3320  226.3460 C   0  0  0  0  0  0  0  0  0  0  0  0
  139.1870   68.1910  225.2860 C   0  0  0  0  0  0  0  0  0  0  0  0
  139.5090   69.5310  225.4270 C   0  0  0  0  0  0  0  0  0  0  0  0
  139.3080   70.5040  224.3040 C   0  0  0  0  0  0  0  0  0  0  0  0
  140.2180   73.3970  222.7350 N   0  0  0  0  0  0  0  0  0  0  0  0
  139.6300   76.1990  222.3660 C   0  0  0  0  0  0  0  0  0  0  0  0
  142.2611   80.7115  221.2413 H   0  0  0  0  0  0  0  0  0  0  0  0
  142.3399   79.8062  223.5537 H   0  0  0  0  0  0  0  0  0  0  0  0
  141.1293   77.7062  224.1299 H   0  0  0  0  0  0  0  0  0  0  0  0
  140.9588   79.5041  219.4896 H   0  0  0  0  0  0  0  0  0  0  0  0
  138.4580   77.2594  220.0496 H   0  0  0  0  0  0  0  0  0  0  0  0
  139.6904   77.5838  218.8032 H   0  0  0  0  0  0  0  0  0  0  0  0
  139.2500   75.1074  219.3540 H   0  0  0  0  0  0  0  0  0  0  0  0
  140.9674   75.6417  219.4309 H   0  0  0  0  0  0  0  0  0  0  0  0
  141.6252   73.8477  219.7553 H   0  0  0  0  0  0  0  0  0  0  0  0
  142.3660   70.5540  219.5990 H   0  0  0  0  0  0  0  0  0  0  0  0
  144.5246   71.0461  219.2128 H   0  0  0  0  0  0  0  0  0  0  0  0
  144.1418   72.5887  221.6885 H   0  0  0  0  0  0  0  0  0  0  0  0
  145.5385   71.6220  221.1462 H   0  0  0  0  0  0  0  0  0  0  0  0
  146.1584   74.0157  221.2645 H   0  0  0  0  0  0  0  0  0  0  0  0
  146.1713   73.4872  219.5650 H   0  0  0  0  0  0  0  0  0  0  0  0
  143.7984   74.8041  220.9934 H   0  0  0  0  0  0  0  0  0  0  0  0
  144.9509   75.6460  219.8873 H   0  0  0  0  0  0  0  0  0  0  0  0
  142.6580   74.4590  219.0900 H   0  0  0  0  0  0  0  0  0  0  0  0
  143.2091   72.6362  217.8202 H   0  0  0  0  0  0  0  0  0  0  0  0
  144.9893   72.9714  218.1212 H   0  0  0  0  0  0  0  0  0  0  0  0
  142.0606   71.3611  225.4298 H   0  0  0  0  0  0  0  0  0  0  0  0
  141.1851   72.9516  225.4785 H   0  0  0  0  0  0  0  0  0  0  0  0
  140.9865   71.6205  227.5843 H   0  0  0  0  0  0  0  0  0  0  0  0
  139.4162   72.0076  226.8004 H   0  0  0  0  0  0  0  0  0  0  0  0
  140.6532   69.5046  228.6557 H   0  0  0  0  0  0  0  0  0  0  0  0
  140.0568   67.0858  228.3664 H   0  0  0  0  0  0  0  0  0  0  0  0
  139.1321   66.2675  226.2391 H   0  0  0  0  0  0  0  0  0  0  0  0
  138.7749   67.8158  224.3376 H   0  0  0  0  0  0  0  0  0  0  0  0
  139.3051   69.9517  223.3527 H   0  0  0  0  0  0  0  0  0  0  0  0
  138.3503   71.0191  224.4700 H   0  0  0  0  0  0  0  0  0  0  0  0
  138.5446   76.3759  222.3399 H   0  0  0  0  0  0  0  0  0  0  0  0
  139.8408   75.7692  223.3564 H   0  0  0  0  0  0  0  0  0  0  0  0
  1  2  2  0
  2  3  1  0
  3  4  2  0
  4  5  1  0
  5  6  2  0
  5  7  1  0
  7  8  1  0
  8  9  1  0
  9 10  1  0
 10 11  2  0
 11 12  1  0
 12 13  1  0
 13 14  1  0
 14 15  1  0
 15 16  1  0
 16 17  1  0
 17 18  1  0
 18 19  1  0
 12 20  2  0
 20 21  1  0
 21 22  1  0
 22 23  1  0
 23 24  1  0
 24 25  1  0
 25 26  2  0
 26 27  1  0
 27 28  2  0
 28 29  1  0
 29 30  2  0
 30 31  1  0
 21 32  2  0
  9 33  1  0
  6  1  1  0
 32 10  1  0
 33  4  1  0
 19 14  1  0
 31 22  1  0
 30 25  1  0
  1 34  1  0
  2 35  1  0
  3 36  1  0
  6 37  1  0
  7 38  1  0
  7 39  1  0
  8 40  1  0
  8 41  1  0
 11 42  1  0
 13 43  1  0
 14 44  1  6
 15 45  1  0
 15 46  1  0
 16 47  1  0
 16 48  1  0
 17 49  1  0
 17 50  1  0
 18 51  1  0
 19 52  1  0
 19 53  1  0
 23 54  1  0
 23 55  1  0
 24 56  1  0
 24 57  1  0
 26 58  1  0
 27 59  1  0
 28 60  1  0
 29 61  1  0
 31 62  1  0
 31 63  1  0
 33 64  1  0
 33 65  1  0
M  END
>  <smiles>  (32) 
c1ccc2c(c1)CCN(c1cc(NC3CCCNC3)nc(N3CCc4ccccc4C3)n1)C2

>  <score_type>  (32) 
oracle

>  <origin>  (32) 
autodockgpu

>  <m_score__min__energy>  (32) 
-9.3200000000000003

>  <m_primary>  (32) 
energy

>  <rmsd>  (32) 
6.0294626436991035

>  <m_score__min__rmsd>  (32) 
6.0294626436991035

>  <meeko>  (32) 
{"free_energy": -9.12, "intermolecular_energy": -10.32, "internal_energy": -1.38, "cluster_size": 12, "cluster_id": 1, "rank_in_cluster": 3}

>  <energy>  (32) 
-8.97

>  <cluster_rmsd>  (32) 
1.46

>  <cluster>  (32) 
2

$$$$

     RDKit          3D

 65 70  0  0  0  0  0  0  0  0999 V2000
  140.1390   69.6720  227.6310 C   0  0  0  0  0  0  0  0  0  0  0  0
  140.8110   70.8830  227.5700 C   0  0  0  0  0  0  0  0  0  0  0  0
  141.0310   71.5160  226.3620 C   0  0  0  0  0  0  0  0  0  0  0  0
  140.5560   70.9010  225.2220 C   0  0  0  0  0  0  0  0  0  0  0  0
  139.8810   69.6960  225.2380 C   0  0  0  0  0  0  0  0  0  0  0  0
  139.6780   69.0900  226.4490 C   0  0  0  0  0  0  0  0  0  0  0  0
  139.4150   69.1230  223.9480 C   0  0  0  0  0  0  0  0  0  0  0  0
  138.6600   70.2080  223.2130 C   0  0  0  0  0  0  0  0  0  0  0  0
  139.4020   71.4370  223.2540 N   0  0  0  0  0  0  0  0  0  0  0  0
  138.8440   72.6260  222.7070 C   0  0  0  0  0  0  0  0  0  0  0  0
  137.5220   72.6460  222.3180 C   0  0  0  0  0  0  0  0  0  0  0  0
  136.9270   73.7940  221.7750 C   0  0  0  0  0  0  0  0  0  0  0  0
  135.5740   73.7680  221.3990 N   0  0  0  0  0  0  0  0  0  0  0  0
  134.4700   74.2380  222.2060 C   0  0  2  0  0  0  0  0  0  0  0  0
  134.4630   75.7490  222.2970 C   0  0  0  0  0  0  0  0  0  0  0  0
  134.1350   76.1210  223.7240 C   0  0  0  0  0  0  0  0  0  0  0  0
  135.2500   75.5820  224.5950 C   0  0  0  0  0  0  0  0  0  0  0  0
  135.2880   74.1410  224.5440 N   0  0  0  0  0  0  0  0  0  0  0  0
  134.3890   73.5920  223.5600 C   0  0  0  0  0  0  0  0  0  0  0  0
  137.7370   74.8580  221.6650 N   0  0  0  0  0  0  0  0  0  0  0  0
  139.0290   74.8790  222.0310 C   0  0  0  0  0  0  0  0  0  0  0  0
  139.7820   76.0750  221.8630 N   0  0  0  0  0  0  0  0  0  0  0  0
  141.1060   75.9840  221.2970 C   0  0  0  0  0  0  0  0  0  0  0  0
  141.5920   77.3170  220.7720 C   0  0  0  0  0  0  0  0  0  0  0  0
  141.4920   78.3540  221.8550 C   0  0  0  0  0  0  0  0  0  0  0  0
  142.5250   79.2360  222.0960 C   0  0  0  0  0  0  0  0  0  0  0  0
  142.3330   80.1580  223.1200 C   0  0  0  0  0  0  0  0  0  0  0  0
  141.1680   80.1810  223.8510 C   0  0  0  0  0  0  0  0  0  0  0  0
  140.1530   79.2860  223.5870 C   0  0  0  0  0  0  0  0  0  0  0  0
  140.3130   78.3550  222.5730 C   0  0  0  0  0  0  0  0  0  0  0  0
  139.2380   77.3620  222.2490 C   0  0  0  0  0  0  0  0  0  0  0  0
  139.5580   73.7550  222.5480 N   0  0  0  0  0  0  0  0  0  0  0  0
  140.7430   71.5140  223.8560 C   0  0  0  0  0  0  0  0  0  0  0  0
  139.9713   69.1761  228.5984 H   0  0  0  0  0  0  0  0  0  0  0  0
  141.1749   71.3473  228.4984 H   0  0  0  0  0  0  0  0  0  0  0  0
  141.5657   72.4759  226.3109 H   0  0  0  0  0  0  0  0  0  0  0  0
  139.1433   68.1296  226.4910 H   0  0  0  0  0  0  0  0  0  0  0  0
  140.2777   68.7949  223.3497 H   0  0  0  0  0  0  0  0  0  0  0  0
  138.7668   68.2518  224.1235 H   0  0  0  0  0  0  0  0  0  0  0  0
  138.5146   69.9050  222.1656 H   0  0  0  0  0  0  0  0  0  0  0  0
  137.6837   70.3594  223.6966 H   0  0  0  0  0  0  0  0  0  0  0  0
  136.9163   71.7355  222.4368 H   0  0  0  0  0  0  0  0  0  0  0  0
  135.3280   73.3740  220.4520 H   0  0  0  0  0  0  0  0  0  0  0  0
  133.5553   73.9225  221.6827 H   0  0  0  0  0  0  0  0  0  0  0  0
  135.4522   76.1455  222.0243 H   0  0  0  0  0  0  0  0  0  0  0  0
  133.7187   76.1733  221.6071 H   0  0  0  0  0  0  0  0  0  0  0  0
  134.0741   77.2148  223.8238 H   0  0  0  0  0  0  0  0  0  0  0  0
  133.1653   75.6977  224.0248 H   0  0  0  0  0  0  0  0  0  0  0  0
  136.2111   75.9810  224.2386 H   0  0  0  0  0  0  0  0  0  0  0  0
  135.0680   75.8936  225.6341 H   0  0  0  0  0  0  0  0  0  0  0  0
  136.2480   73.7490  224.4880 H   0  0  0  0  0  0  0  0  0  0  0  0
  134.6197   72.5228  223.4439 H   0  0  0  0  0  0  0  0  0  0  0  0
  133.3705   73.7770  223.9321 H   0  0  0  0  0  0  0  0  0  0  0  0
  141.8011   75.6340  222.0744 H   0  0  0  0  0  0  0  0  0  0  0  0
  141.0662   75.2807  220.4521 H   0  0  0  0  0  0  0  0  0  0  0  0
  142.6399   77.2235  220.4507 H   0  0  0  0  0  0  0  0  0  0  0  0
  140.9697   77.6211  219.9175 H   0  0  0  0  0  0  0  0  0  0  0  0
  143.4542   79.2115  221.5078 H   0  0  0  0  0  0  0  0  0  0  0  0
  143.1282   80.8826  223.3495 H   0  0  0  0  0  0  0  0  0  0  0  0
  141.0448   80.9216  224.6550 H   0  0  0  0  0  0  0  0  0  0  0  0
  139.2244   79.3107  224.1761 H   0  0  0  0  0  0  0  0  0  0  0  0
  138.6016   77.2264  223.1359 H   0  0  0  0  0  0  0  0  0  0  0  0
  138.6603   77.7539  221.3989 H   0  0  0  0  0  0  0  0  0  0  0  0
  141.4721   70.9405  223.2649 H   0  0  0  0  0  0  0  0  0  0  0  0
  141.1332   72.5416  223.8991 H   0  0  0  0  0  0  0  0  0  0  0  0
  1  2  2  0
  2  3  1  0
  3  4  2  0
  4  5  1  0
  5  6  2  0
  5  7  1  0
  7  8  1  0
  8  9  1  0
  9 10  1  0
 10 11  2  0
 11 12  1  0
 12 13  1  0
 13 14  1  0
 14 15  1  0
 15 16  1  0
 16 17  1  0
 17 18  1  0
 18 19  1  0
 12 20  2  0
 20 21  1  0
 21 22  1  0
 22 23  1  0
 23 24  1  0
 24 25  1  0
 25 26  2  0
 26 27  1  0
 27 28  2  0
 28 29  1  0
 29 30  2  0
 30 31  1  0
 21 32  2  0
  9 33  1  0
  6  1  1  0
 32 10  1  0
 33  4  1  0
 19 14  1  0
 31 22  1  0
 30 25  1  0
  1 34  1  0
  2 35  1  0
  3 36  1  0
  6 37  1  0
  7 38  1  0
  7 39  1  0
  8 40  1  0
  8 41  1  0
 11 42  1  0
 13 43  1  0
 14 44  1  6
 15 45  1  0
 15 46  1  0
 16 47  1  0
 16 48  1  0
 17 49  1  0
 17 50  1  0
 18 51  1  0
 19 52  1  0
 19 53  1  0
 23 54  1  0
 23 55  1  0
 24 56  1  0
 24 57  1  0
 26 58  1  0
 27 59  1  0
 28 60  1  0
 29 61  1  0
 31 62  1  0
 31 63  1  0
 33 64  1  0
 33 65  1  0
M  END
>  <smiles>  (33) 
c1ccc2c(c1)CCN(c1cc(NC3CCCNC3)nc(N3CCc4ccccc4C3)n1)C2

>  <score_type>  (33) 
oracle

>  <origin>  (33) 
autodockgpu

>  <m_score__min__energy>  (33) 
-9.3200000000000003

>  <m_primary>  (33) 
energy

>  <rmsd>  (33) 
7.5898836899716215

>  <m_score__min__rmsd>  (33) 
7.5898836899716215

>  <meeko>  (33) 
{"free_energy": -9.16, "intermolecular_energy": -10.35, "internal_energy": -1.38, "cluster_size": 26, "cluster_id": 2, "rank_in_cluster": 11}

>  <energy>  (33) 
-8.97

>  <cluster_rmsd>  (33) 
1.51

>  <cluster>  (33) 
2

$$$$

     RDKit          3D

 65 70  0  0  0  0  0  0  0  0999 V2000
  142.4050   81.1200  222.9700 C   0  0  0  0  0  0  0  0  0  0  0  0
  142.5390   80.1600  223.9620 C   0  0  0  0  0  0  0  0  0  0  0  0
  141.8030   78.9910  223.9250 C   0  0  0  0  0  0  0  0  0  0  0  0
  140.9350   78.8150  222.8680 C   0  0  0  0  0  0  0  0  0  0  0  0
  140.7730   79.7440  221.8590 C   0  0  0  0  0  0  0  0  0  0  0  0
  141.5140   80.8940  221.9200 C   0  0  0  0  0  0  0  0  0  0  0  0
  139.8080   79.4490  220.7680 C   0  0  0  0  0  0  0  0  0  0  0  0
  140.1180   78.0650  220.2440 C   0  0  0  0  0  0  0  0  0  0  0  0
  140.2990   77.1550  221.3400 N   0  0  0  0  0  0  0  0  0  0  0  0
  140.6930   75.8100  221.0930 C   0  0  0  0  0  0  0  0  0  0  0  0
  141.5790   75.5320  220.0750 C   0  0  0  0  0  0  0  0  0  0  0  0
  141.9980   74.2240  219.7940 C   0  0  0  0  0  0  0  0  0  0  0  0
  142.9070   73.9910  218.7490 N   0  0  0  0  0  0  0  0  0  0  0  0
  143.5180   72.7180  218.4380 C   0  0  2  0  0  0  0  0  0  0  0  0
  143.5510   71.8150  219.6530 C   0  0  0  0  0  0  0  0  0  0  0  0
  144.8970   71.1280  219.6780 C   0  0  0  0  0  0  0  0  0  0  0  0
  145.9470   72.2070  219.8380 C   0  0  0  0  0  0  0  0  0  0  0  0
  145.9550   73.0870  218.6960 N   0  0  0  0  0  0  0  0  0  0  0  0
  144.8660   72.8340  217.7860 C   0  0  0  0  0  0  0  0  0  0  0  0
  141.4740   73.2750  220.5860 N   0  0  0  0  0  0  0  0  0  0  0  0
  140.6100   73.5040  221.5880 C   0  0  0  0  0  0  0  0  0  0  0  0
  140.1270   72.4090  222.3570 N   0  0  0  0  0  0  0  0  0  0  0  0
  138.7030   72.1990  222.4440 C   0  0  0  0  0  0  0  0  0  0  0  0
  138.3610   70.7950  222.8920 C   0  0  0  0  0  0  0  0  0  0  0  0
  139.0740   70.4880  224.1800 C   0  0  0  0  0  0  0  0  0  0  0  0
  138.4200   69.8780  225.2300 C   0  0  0  0  0  0  0  0  0  0  0  0
  139.1690   69.6360  226.3770 C   0  0  0  0  0  0  0  0  0  0  0  0
  140.4950   69.9920  226.4510 C   0  0  0  0  0  0  0  0  0  0  0  0
  141.1230   70.6020  225.3850 C   0  0  0  0  0  0  0  0  0  0  0  0
  140.4030   70.8560  224.2280 C   0  0  0  0  0  0  0  0  0  0  0  0
  141.0410   71.5160  223.0430 C   0  0  0  0  0  0  0  0  0  0  0  0
  140.2350   74.7760  221.8210 N   0  0  0  0  0  0  0  0  0  0  0  0
  140.0910   77.5710  222.7370 C   0  0  0  0  0  0  0  0  0  0  0  0
  142.9939   82.0482  223.0104 H   0  0  0  0  0  0  0  0  0  0  0  0
  143.2417   80.3317  224.7907 H   0  0  0  0  0  0  0  0  0  0  0  0
  141.9058   78.2280  224.7107 H   0  0  0  0  0  0  0  0  0  0  0  0
  141.4053   81.6510  221.1294 H   0  0  0  0  0  0  0  0  0  0  0  0
  138.7800   79.4806  221.1581 H   0  0  0  0  0  0  0  0  0  0  0  0
  139.8949   80.1945  219.9639 H   0  0  0  0  0  0  0  0  0  0  0  0
  139.2843   77.7179  219.6160 H   0  0  0  0  0  0  0  0  0  0  0  0
  141.0423   78.1025  219.6489 H   0  0  0  0  0  0  0  0  0  0  0  0
  141.9688   76.3603  219.4651 H   0  0  0  0  0  0  0  0  0  0  0  0
  143.1760   74.8030  218.1320 H   0  0  0  0  0  0  0  0  0  0  0  0
  142.8730   72.2488  217.6805 H   0  0  0  0  0  0  0  0  0  0  0  0
  143.4180   72.4120  220.5673 H   0  0  0  0  0  0  0  0  0  0  0  0
  142.7404   71.0730  219.6039 H   0  0  0  0  0  0  0  0  0  0  0  0
  144.9462   70.4258  220.5233 H   0  0  0  0  0  0  0  0  0  0  0  0
  145.0615   70.5571  218.7522 H   0  0  0  0  0  0  0  0  0  0  0  0
  145.7274   72.7925  220.7429 H   0  0  0  0  0  0  0  0  0  0  0  0
  146.9341   71.7288  219.9215 H   0  0  0  0  0  0  0  0  0  0  0  0
  146.0610   74.0900  218.9410 H   0  0  0  0  0  0  0  0  0  0  0  0
  144.8261   73.6604  217.0611 H   0  0  0  0  0  0  0  0  0  0  0  0
  145.0707   71.8590  217.3196 H   0  0  0  0  0  0  0  0  0  0  0  0
  138.2825   72.9141  223.1664 H   0  0  0  0  0  0  0  0  0  0  0  0
  138.2768   72.3477  221.4409 H   0  0  0  0  0  0  0  0  0  0  0  0
  137.2749   70.7146  223.0468 H   0  0  0  0  0  0  0  0  0  0  0  0
  138.6773   70.0782  222.1199 H   0  0  0  0  0  0  0  0  0  0  0  0
  137.3586   69.5968  225.1637 H   0  0  0  0  0  0  0  0  0  0  0  0
  138.6915   69.1507  227.2410 H   0  0  0  0  0  0  0  0  0  0  0  0
  141.0619   69.7879  227.3713 H   0  0  0  0  0  0  0  0  0  0  0  0
  142.1841   70.8839  225.4524 H   0  0  0  0  0  0  0  0  0  0  0  0
  141.9117   72.0945  223.3855 H   0  0  0  0  0  0  0  0  0  0  0  0
  141.3382   70.7275  222.3359 H   0  0  0  0  0  0  0  0  0  0  0  0
  139.0307   77.7944  222.9262 H   0  0  0  0  0  0  0  0  0  0  0  0
  140.3672   76.7898  223.4605 H   0  0  0  0  0  0  0  0  0  0  0  0
  1  2  2  0
  2  3  1  0
  3  4  2  0
  4  5  1  0
  5  6  2  0
  5  7  1  0
  7  8  1  0
  8  9  1  0
  9 10  1  0
 10 11  2  0
 11 12  1  0
 12 13  1  0
 13 14  1  0
 14 15  1  0
 15 16  1  0
 16 17  1  0
 17 18  1  0
 18 19  1  0
 12 20  2  0
 20 21  1  0
 21 22  1  0
 22 23  1  0
 23 24  1  0
 24 25  1  0
 25 26  2  0
 26 27  1  0
 27 28  2  0
 28 29  1  0
 29 30  2  0
 30 31  1  0
 21 32  2  0
  9 33  1  0
  6  1  1  0
 32 10  1  0
 33  4  1  0
 19 14  1  0
 31 22  1  0
 30 25  1  0
  1 34  1  0
  2 35  1  0
  3 36  1  0
  6 37  1  0
  7 38  1  0
  7 39  1  0
  8 40  1  0
  8 41  1  0
 11 42  1  0
 13 43  1  0
 14 44  1  6
 15 45  1  0
 15 46  1  0
 16 47  1  0
 16 48  1  0
 17 49  1  0
 17 50  1  0
 18 51  1  0
 19 52  1  0
 19 53  1  0
 23 54  1  0
 23 55  1  0
 24 56  1  0
 24 57  1  0
 26 58  1  0
 27 59  1  0
 28 60  1  0
 29 61  1  0
 31 62  1  0
 31 63  1  0
 33 64  1  0
 33 65  1  0
M  END
>  <smiles>  (34) 
c1ccc2c(c1)CCN(c1cc(NC3CCCNC3)nc(N3CCc4ccccc4C3)n1)C2

>  <score_type>  (34) 
oracle

>  <origin>  (34) 
autodockgpu

>  <m_score__min__energy>  (34) 
-9.3200000000000003

>  <m_primary>  (34) 
energy

>  <rmsd>  (34) 
6.830681840308958

>  <m_score__min__rmsd>  (34) 
6.830681840308958

>  <meeko>  (34) 
{"free_energy": -9.32, "intermolecular_energy": -10.51, "internal_energy": -0.92, "cluster_size": 12, "cluster_id": 1, "rank_in_cluster": 1}

>  <energy>  (34) 
-8.46

>  <cluster_rmsd>  (34) 
0.75

>  <cluster>  (34) 
2

$$$$

     RDKit          3D

 65 70  0  0  0  0  0  0  0  0999 V2000
  140.0990   70.4900  228.3450 C   0  0  0  0  0  0  0  0  0  0  0  0
  140.8130   71.6320  228.0140 C   0  0  0  0  0  0  0  0  0  0  0  0
  141.0890   71.9410  226.6960 C   0  0  0  0  0  0  0  0  0  0  0  0
  140.6300   71.0750  225.7260 C   0  0  0  0  0  0  0  0  0  0  0  0
  139.9160   69.9280  226.0120 C   0  0  0  0  0  0  0  0  0  0  0  0
  139.6560   69.6450  227.3270 C   0  0  0  0  0  0  0  0  0  0  0  0
  139.4700   69.0660  224.8860 C   0  0  0  0  0  0  0  0  0  0  0  0
  138.7740   69.9540  223.8790 C   0  0  0  0  0  0  0  0  0  0  0  0
  139.5540   71.1360  223.6440 N   0  0  0  0  0  0  0  0  0  0  0  0
  139.0520   72.1670  222.8010 C   0  0  0  0  0  0  0  0  0  0  0  0
  137.9050   71.9530  222.0680 C   0  0  0  0  0  0  0  0  0  0  0  0
  137.3710   72.9380  221.2250 C   0  0  0  0  0  0  0  0  0  0  0  0
  136.1950   72.6760  220.5020 N   0  0  0  0  0  0  0  0  0  0  0  0
  136.0350   72.8370  219.0740 C   0  0  2  0  0  0  0  0  0  0  0  0
  137.0600   72.0230  218.3130 C   0  0  0  0  0  0  0  0  0  0  0  0
  137.5640   72.8730  217.1700 C   0  0  0  0  0  0  0  0  0  0  0  0
  138.2480   74.0800  217.7770 C   0  0  0  0  0  0  0  0  0  0  0  0
  137.3030   74.8890  218.5060 N   0  0  0  0  0  0  0  0  0  0  0  0
  136.0070   74.2700  218.6240 C   0  0  0  0  0  0  0  0  0  0  0  0
  138.0570   74.0910  221.1880 N   0  0  0  0  0  0  0  0  0  0  0  0
  139.1770   74.3380  221.8860 C   0  0  0  0  0  0  0  0  0  0  0  0
  139.8120   75.6050  221.7600 N   0  0  0  0  0  0  0  0  0  0  0  0
  141.1770   75.6520  221.2950 C   0  0  0  0  0  0  0  0  0  0  0  0
  141.5590   77.0260  220.7910 C   0  0  0  0  0  0  0  0  0  0  0  0
  141.2710   78.0520  221.8510 C   0  0  0  0  0  0  0  0  0  0  0  0
  142.1850   79.0380  222.1570 C   0  0  0  0  0  0  0  0  0  0  0  0
  141.8220   79.9390  223.1530 C   0  0  0  0  0  0  0  0  0  0  0  0
  140.6090   79.8420  223.7950 C   0  0  0  0  0  0  0  0  0  0  0  0
  139.7150   78.8440  223.4680 C   0  0  0  0  0  0  0  0  0  0  0  0
  140.0480   77.9310  222.4800 C   0  0  0  0  0  0  0  0  0  0  0  0
  139.1100   76.8300  222.0890 C   0  0  0  0  0  0  0  0  0  0  0  0
  139.6540   73.3640  222.6820 N   0  0  0  0  0  0  0  0  0  0  0  0
  140.8780   71.3270  224.2590 C   0  0  0  0  0  0  0  0  0  0  0  0
  139.8845   70.2533  229.3976 H   0  0  0  0  0  0  0  0  0  0  0  0
  141.1648   72.3016  228.8127 H   0  0  0  0  0  0  0  0  0  0  0  0
  141.6549   72.8459  226.4298 H   0  0  0  0  0  0  0  0  0  0  0  0
  139.0894   68.7379  227.5841 H   0  0  0  0  0  0  0  0  0  0  0  0
  140.3389   68.5789  224.4194 H   0  0  0  0  0  0  0  0  0  0  0  0
  138.7880   68.2817  225.2462 H   0  0  0  0  0  0  0  0  0  0  0  0
  138.6505   69.4053  222.9337 H   0  0  0  0  0  0  0  0  0  0  0  0
  137.7891   70.2442  224.2737 H   0  0  0  0  0  0  0  0  0  0  0  0
  137.3939   70.9821  222.1464 H   0  0  0  0  0  0  0  0  0  0  0  0
  135.3500   72.3340  221.0320 H   0  0  0  0  0  0  0  0  0  0  0  0
  135.0372   72.4414  218.8334 H   0  0  0  0  0  0  0  0  0  0  0  0
  137.8947   71.7557  218.9777 H   0  0  0  0  0  0  0  0  0  0  0  0
  136.6098   71.0940  217.9333 H   0  0  0  0  0  0  0  0  0  0  0  0
  138.2797   72.3005  216.5617 H   0  0  0  0  0  0  0  0  0  0  0  0
  136.7340   73.1817  216.5175 H   0  0  0  0  0  0  0  0  0  0  0  0
  139.0375   73.7403  218.4635 H   0  0  0  0  0  0  0  0  0  0  0  0
  138.6807   74.6855  216.9670 H   0  0  0  0  0  0  0  0  0  0  0  0
  137.6700   75.2500  219.4090 H   0  0  0  0  0  0  0  0  0  0  0  0
  135.4169   74.8463  219.3517 H   0  0  0  0  0  0  0  0  0  0  0  0
  135.5692   74.2705  217.6149 H   0  0  0  0  0  0  0  0  0  0  0  0
  141.8445   75.3808  222.1262 H   0  0  0  0  0  0  0  0  0  0  0  0
  141.2745   74.9448  220.4581 H   0  0  0  0  0  0  0  0  0  0  0  0
  142.6319   77.0415  220.5489 H   0  0  0  0  0  0  0  0  0  0  0  0
  140.9737   77.2593  219.8893 H   0  0  0  0  0  0  0  0  0  0  0  0
  143.1530   79.1087  221.6394 H   0  0  0  0  0  0  0  0  0  0  0  0
  142.5178   80.7439  223.4324 H   0  0  0  0  0  0  0  0  0  0  0  0
  140.3491   80.5691  224.5784 H   0  0  0  0  0  0  0  0  0  0  0  0
  138.7473   78.7734  223.9862 H   0  0  0  0  0  0  0  0  0  0  0  0
  138.4262   76.6324  222.9277 H   0  0  0  0  0  0  0  0  0  0  0  0
  138.5606   77.1559  221.1935 H   0  0  0  0  0  0  0  0  0  0  0  0
  141.6058   70.6079  223.8549 H   0  0  0  0  0  0  0  0  0  0  0  0
  141.2997   72.3239  224.0628 H   0  0  0  0  0  0  0  0  0  0  0  0
  1  2  2  0
  2  3  1  0
  3  4  2  0
  4  5  1  0
  5  6  2  0
  5  7  1  0
  7  8  1  0
  8  9  1  0
  9 10  1  0
 10 11  2  0
 11 12  1  0
 12 13  1  0
 13 14  1  0
 14 15  1  0
 15 16  1  0
 16 17  1  0
 17 18  1  0
 18 19  1  0
 12 20  2  0
 20 21  1  0
 21 22  1  0
 22 23  1  0
 23 24  1  0
 24 25  1  0
 25 26  2  0
 26 27  1  0
 27 28  2  0
 28 29  1  0
 29 30  2  0
 30 31  1  0
 21 32  2  0
  9 33  1  0
  6  1  1  0
 32 10  1  0
 33  4  1  0
 19 14  1  0
 31 22  1  0
 30 25  1  0
  1 34  1  0
  2 35  1  0
  3 36  1  0
  6 37  1  0
  7 38  1  0
  7 39  1  0
  8 40  1  0
  8 41  1  0
 11 42  1  0
 13 43  1  0
 14 44  1  6
 15 45  1  0
 15 46  1  0
 16 47  1  0
 16 48  1  0
 17 49  1  0
 17 50  1  0
 18 51  1  0
 19 52  1  0
 19 53  1  0
 23 54  1  0
 23 55  1  0
 24 56  1  0
 24 57  1  0
 26 58  1  0
 27 59  1  0
 28 60  1  0
 29 61  1  0
 31 62  1  0
 31 63  1  0
 33 64  1  0
 33 65  1  0
M  END
>  <smiles>  (35) 
c1ccc2c(c1)CCN(c1cc(NC3CCCNC3)nc(N3CCc4ccccc4C3)n1)C2

>  <score_type>  (35) 
oracle

>  <origin>  (35) 
autodockgpu

>  <m_score__min__energy>  (35) 
-9.3200000000000003

>  <m_primary>  (35) 
energy

>  <rmsd>  (35) 
7.4991363389299845

>  <m_score__min__rmsd>  (35) 
7.4991363389299845

>  <meeko>  (35) 
{"free_energy": -8.26, "intermolecular_energy": -9.46, "internal_energy": -1.98, "cluster_size": 3, "cluster_id": 5, "rank_in_cluster": 2}

>  <energy>  (35) 
-8.38

>  <cluster_rmsd>  (35) 
1.3

>  <cluster>  (35) 
2

$$$$

     RDKit          3D

 65 70  0  0  0  0  0  0  0  0999 V2000
  131.3790   72.2620  227.7480 C   0  0  0  0  0  0  0  0  0  0  0  0
  131.3920   71.2240  226.8290 C   0  0  0  0  0  0  0  0  0  0  0  0
  131.9560   71.3860  225.5790 C   0  0  0  0  0  0  0  0  0  0  0  0
  132.5050   72.6160  225.2800 C   0  0  0  0  0  0  0  0  0  0  0  0
  132.5140   73.6760  226.1650 C   0  0  0  0  0  0  0  0  0  0  0  0
  131.9480   73.4880  227.3980 C   0  0  0  0  0  0  0  0  0  0  0  0
  133.1330   74.9570  225.7360 C   0  0  0  0  0  0  0  0  0  0  0  0
  134.5060   74.6400  225.1870 C   0  0  0  0  0  0  0  0  0  0  0  0
  134.4310   73.5170  224.2950 N   0  0  0  0  0  0  0  0  0  0  0  0
  135.6190   72.9760  223.7280 C   0  0  0  0  0  0  0  0  0  0  0  0
  136.0300   73.3870  222.4790 C   0  0  0  0  0  0  0  0  0  0  0  0
  137.1930   72.8840  221.8790 C   0  0  0  0  0  0  0  0  0  0  0  0
  137.5750   73.3380  220.6050 N   0  0  0  0  0  0  0  0  0  0  0  0
  138.8820   73.8450  220.2530 C   0  0  2  0  0  0  0  0  0  0  0  0
  139.7570   72.7500  219.6790 C   0  0  0  0  0  0  0  0  0  0  0  0
  141.1410   72.9170  220.2620 C   0  0  0  0  0  0  0  0  0  0  0  0
  141.0240   72.7190  221.7580 C   0  0  0  0  0  0  0  0  0  0  0  0
  140.2020   73.7480  222.3470 N   0  0  0  0  0  0  0  0  0  0  0  0
  139.5650   74.5880  221.3650 C   0  0  0  0  0  0  0  0  0  0  0  0
  137.8670   71.9820  222.6080 N   0  0  0  0  0  0  0  0  0  0  0  0
  137.5010   71.5560  223.8280 C   0  0  0  0  0  0  0  0  0  0  0  0
  138.3040   70.5930  224.5010 N   0  0  0  0  0  0  0  0  0  0  0  0
  137.8030   69.2460  224.6350 C   0  0  0  0  0  0  0  0  0  0  0  0
  138.9050   68.2590  224.9490 C   0  0  0  0  0  0  0  0  0  0  0  0
  139.6660   68.7200  226.1610 C   0  0  0  0  0  0  0  0  0  0  0  0
  139.9980   67.8420  227.1720 C   0  0  0  0  0  0  0  0  0  0  0  0
  140.7030   68.3670  228.2500 C   0  0  0  0  0  0  0  0  0  0  0  0
  141.0470   69.6980  228.2960 C   0  0  0  0  0  0  0  0  0  0  0  0
  140.7010   70.5530  227.2710 C   0  0  0  0  0  0  0  0  0  0  0  0
  139.9980   70.0590  226.1830 C   0  0  0  0  0  0  0  0  0  0  0  0
  139.6000   70.9490  225.0440 C   0  0  0  0  0  0  0  0  0  0  0  0
  136.3760   72.0660  224.3650 N   0  0  0  0  0  0  0  0  0  0  0  0
  133.1460   72.8910  223.9420 C   0  0  0  0  0  0  0  0  0  0  0  0
  130.9260   72.1214  228.7405 H   0  0  0  0  0  0  0  0  0  0  0  0
  130.9458   70.2557  227.1000 H   0  0  0  0  0  0  0  0  0  0  0  0
  131.9672   70.5641  224.8480 H   0  0  0  0  0  0  0  0  0  0  0  0
  131.9416   74.3151  228.1232 H   0  0  0  0  0  0  0  0  0  0  0  0
  132.5170   75.4287  224.9562 H   0  0  0  0  0  0  0  0  0  0  0  0
  133.2074   75.6533  226.5843 H   0  0  0  0  0  0  0  0  0  0  0  0
  134.8906   75.5140  224.6409 H   0  0  0  0  0  0  0  0  0  0  0  0
  135.1804   74.3946  226.0206 H   0  0  0  0  0  0  0  0  0  0  0  0
  135.4283   74.1313  221.9368 H   0  0  0  0  0  0  0  0  0  0  0  0
  136.8570   73.3140  219.8320 H   0  0  0  0  0  0  0  0  0  0  0  0
  138.7155   74.5967  219.4674 H   0  0  0  0  0  0  0  0  0  0  0  0
  139.3517   71.7645  219.9518 H   0  0  0  0  0  0  0  0  0  0  0  0
  139.7898   72.8177  218.5816 H   0  0  0  0  0  0  0  0  0  0  0  0
  141.8228   72.1669  219.8348 H   0  0  0  0  0  0  0  0  0  0  0  0
  141.5442   73.9139  220.0307 H   0  0  0  0  0  0  0  0  0  0  0  0
  140.5709   71.7368  221.9577 H   0  0  0  0  0  0  0  0  0  0  0  0
  142.0293   72.7734  222.2011 H   0  0  0  0  0  0  0  0  0  0  0  0
  139.5490   73.3970  223.0740 H   0  0  0  0  0  0  0  0  0  0  0  0
  138.8125   75.2049  221.8779 H   0  0  0  0  0  0  0  0  0  0  0  0
  140.3646   75.1813  220.8975 H   0  0  0  0  0  0  0  0  0  0  0  0
  137.0627   69.2219  225.4482 H   0  0  0  0  0  0  0  0  0  0  0  0
  137.3505   68.9553  223.6754 H   0  0  0  0  0  0  0  0  0  0  0  0
  138.4652   67.2704  225.1472 H   0  0  0  0  0  0  0  0  0  0  0  0
  139.5905   68.1923  224.0913 H   0  0  0  0  0  0  0  0  0  0  0  0
  139.7189   66.7789  227.1278 H   0  0  0  0  0  0  0  0  0  0  0  0
  140.9906   67.7058  229.0807 H   0  0  0  0  0  0  0  0  0  0  0  0
  141.6051   70.0852  229.1613 H   0  0  0  0  0  0  0  0  0  0  0  0
  140.9799   71.6161  227.3161 H   0  0  0  0  0  0  0  0  0  0  0  0
  139.5610   71.9881  225.4027 H   0  0  0  0  0  0  0  0  0  0  0  0
  140.3464   70.8305  224.2447 H   0  0  0  0  0  0  0  0  0  0  0  0
  132.5271   73.5756  223.3434 H   0  0  0  0  0  0  0  0  0  0  0  0
  133.2662   71.9839  223.3315 H   0  0  0  0  0  0  0  0  0  0  0  0
  1  2  2  0
  2  3  1  0
  3  4  2  0
  4  5  1  0
  5  6  2  0
  5  7  1  0
  7  8  1  0
  8  9  1  0
  9 10  1  0
 10 11  2  0
 11 12  1  0
 12 13  1  0
 13 14  1  0
 14 15  1  0
 15 16  1  0
 16 17  1  0
 17 18  1  0
 18 19  1  0
 12 20  2  0
 20 21  1  0
 21 22  1  0
 22 23  1  0
 23 24  1  0
 24 25  1  0
 25 26  2  0
 26 27  1  0
 27 28  2  0
 28 29  1  0
 29 30  2  0
 30 31  1  0
 21 32  2  0
  9 33  1  0
  6  1  1  0
 32 10  1  0
 33  4  1  0
 19 14  1  0
 31 22  1  0
 30 25  1  0
  1 34  1  0
  2 35  1  0
  3 36  1  0
  6 37  1  0
  7 38  1  0
  7 39  1  0
  8 40  1  0
  8 41  1  0
 11 42  1  0
 13 43  1  0
 14 44  1  6
 15 45  1  0
 15 46  1  0
 16 47  1  0
 16 48  1  0
 17 49  1  0
 17 50  1  0
 18 51  1  0
 19 52  1  0
 19 53  1  0
 23 54  1  0
 23 55  1  0
 24 56  1  0
 24 57  1  0
 26 58  1  0
 27 59  1  0
 28 60  1  0
 29 61  1  0
 31 62  1  0
 31 63  1  0
 33 64  1  0
 33 65  1  0
M  END
>  <smiles>  (36) 
c1ccc2c(c1)CCN(c1cc(NC3CCCNC3)nc(N3CCc4ccccc4C3)n1)C2

>  <score_type>  (36) 
oracle

>  <origin>  (36) 
autodockgpu

>  <m_score__min__energy>  (36) 
-9.3200000000000003

>  <m_primary>  (36) 
energy

>  <rmsd>  (36) 
6.11481919900291

>  <m_score__min__rmsd>  (36) 
6.11481919900291

>  <meeko>  (36) 
{"free_energy": -8.35, "intermolecular_energy": -9.54, "internal_energy": -1.93, "cluster_size": 2, "cluster_id": 4, "rank_in_cluster": 1}

>  <energy>  (36) 
-8.36

>  <cluster_rmsd>  (36) 
1.37

>  <cluster>  (36) 
2

$$$$

     RDKit          3D

 65 70  0  0  0  0  0  0  0  0999 V2000
  140.1340   70.3500  228.3280 C   0  0  0  0  0  0  0  0  0  0  0  0
  140.8090   71.5280  228.0440 C   0  0  0  0  0  0  0  0  0  0  0  0
  141.0720   71.9010  226.7410 C   0  0  0  0  0  0  0  0  0  0  0  0
  140.6390   71.0620  225.7350 C   0  0  0  0  0  0  0  0  0  0  0  0
  139.9640   69.8810  225.9730 C   0  0  0  0  0  0  0  0  0  0  0  0
  139.7170   69.5340  227.2750 C   0  0  0  0  0  0  0  0  0  0  0  0
  139.5450   69.0530  224.8120 C   0  0  0  0  0  0  0  0  0  0  0  0
  138.8180   69.9590  223.8440 C   0  0  0  0  0  0  0  0  0  0  0  0
  139.5580   71.1750  223.6590 N   0  0  0  0  0  0  0  0  0  0  0  0
  139.0200   72.2230  222.8600 C   0  0  0  0  0  0  0  0  0  0  0  0
  137.8240   72.0380  222.2030 C   0  0  0  0  0  0  0  0  0  0  0  0
  137.2530   73.0400  221.4060 C   0  0  0  0  0  0  0  0  0  0  0  0
  136.0270   72.8070  220.7600 N   0  0  0  0  0  0  0  0  0  0  0  0
  135.0030   73.7980  220.5210 C   0  0  2  0  0  0  0  0  0  0  0  0
  135.2810   74.5780  219.2530 C   0  0  0  0  0  0  0  0  0  0  0  0
  134.9740   76.0310  219.5320 C   0  0  0  0  0  0  0  0  0  0  0  0
  135.9310   76.4920  220.6110 C   0  0  0  0  0  0  0  0  0  0  0  0
  135.6960   75.7780  221.8420 N   0  0  0  0  0  0  0  0  0  0  0  0
  134.7480   74.7020  221.6940 C   0  0  0  0  0  0  0  0  0  0  0  0
  137.9570   74.1810  221.3330 N   0  0  0  0  0  0  0  0  0  0  0  0
  139.1250   74.4010  221.9580 C   0  0  0  0  0  0  0  0  0  0  0  0
  139.7730   75.6580  221.8020 N   0  0  0  0  0  0  0  0  0  0  0  0
  141.1300   75.6800  221.3090 C   0  0  0  0  0  0  0  0  0  0  0  0
  141.5190   77.0420  220.7780 C   0  0  0  0  0  0  0  0  0  0  0  0
  141.2640   78.0860  221.8300 C   0  0  0  0  0  0  0  0  0  0  0  0
  142.1980   79.0650  222.1040 C   0  0  0  0  0  0  0  0  0  0  0  0
  141.8660   79.9840  223.0940 C   0  0  0  0  0  0  0  0  0  0  0  0
  140.6650   79.9120  223.7610 C   0  0  0  0  0  0  0  0  0  0  0  0
  139.7520   78.9210  223.4660 C   0  0  0  0  0  0  0  0  0  0  0  0
  140.0530   77.9900  222.4840 C   0  0  0  0  0  0  0  0  0  0  0  0
  139.0930   76.8960  222.1270 C   0  0  0  0  0  0  0  0  0  0  0  0
  139.6350   73.4100  222.7120 N   0  0  0  0  0  0  0  0  0  0  0  0
  140.8760   71.3840  224.2800 C   0  0  0  0  0  0  0  0  0  0  0  0
  139.9299   70.0624  229.3699 H   0  0  0  0  0  0  0  0  0  0  0  0
  141.1399   72.1750  228.8697 H   0  0  0  0  0  0  0  0  0  0  0  0
  141.6079   72.8342  226.5130 H   0  0  0  0  0  0  0  0  0  0  0  0
  139.1819   68.5982  227.4940 H   0  0  0  0  0  0  0  0  0  0  0  0
  140.4288   68.6154  224.3248 H   0  0  0  0  0  0  0  0  0  0  0  0
  138.8903   68.2317  225.1390 H   0  0  0  0  0  0  0  0  0  0  0  0
  138.7109   69.4470  222.8763 H   0  0  0  0  0  0  0  0  0  0  0  0
  137.8247   70.1993  224.2511 H   0  0  0  0  0  0  0  0  0  0  0  0
  137.3013   71.0757  222.3066 H   0  0  0  0  0  0  0  0  0  0  0  0
  135.8240   71.8300  220.4160 H   0  0  0  0  0  0  0  0  0  0  0  0
  134.0660   73.2394  220.3800 H   0  0  0  0  0  0  0  0  0  0  0  0
  136.3376   74.4661  218.9682 H   0  0  0  0  0  0  0  0  0  0  0  0
  134.6592   74.2043  218.4262 H   0  0  0  0  0  0  0  0  0  0  0  0
  135.1184   76.6285  218.6198 H   0  0  0  0  0  0  0  0  0  0  0  0
  133.9304   76.1540  219.8573 H   0  0  0  0  0  0  0  0  0  0  0  0
  136.9638   76.3092  220.2794 H   0  0  0  0  0  0  0  0  0  0  0  0
  135.7710   77.5656  220.7895 H   0  0  0  0  0  0  0  0  0  0  0  0
  136.5650   75.4950  222.3350 H   0  0  0  0  0  0  0  0  0  0  0  0
  134.7760   74.0922  222.6091 H   0  0  0  0  0  0  0  0  0  0  0  0
  133.7693   75.1720  221.5173 H   0  0  0  0  0  0  0  0  0  0  0  0
  141.8105   75.4117  222.1305 H   0  0  0  0  0  0  0  0  0  0  0  0
  141.2019   74.9597  220.4808 H   0  0  0  0  0  0  0  0  0  0  0  0
  142.5871   77.0408  220.5149 H   0  0  0  0  0  0  0  0  0  0  0  0
  140.9195   77.2702  219.8844 H   0  0  0  0  0  0  0  0  0  0  0  0
  143.1564   79.1158  221.5665 H   0  0  0  0  0  0  0  0  0  0  0  0
  142.5773   80.7836  223.3484 H   0  0  0  0  0  0  0  0  0  0  0  0
  140.4300   80.6535  224.5388 H   0  0  0  0  0  0  0  0  0  0  0  0
  138.7943   78.8700  224.0048 H   0  0  0  0  0  0  0  0  0  0  0  0
  138.4233   76.7190  222.9815 H   0  0  0  0  0  0  0  0  0  0  0  0
  138.5299   77.2164  221.2381 H   0  0  0  0  0  0  0  0  0  0  0  0
  141.6265   70.7073  223.8454 H   0  0  0  0  0  0  0  0  0  0  0  0
  141.2642   72.4016  224.1256 H   0  0  0  0  0  0  0  0  0  0  0  0
  1  2  2  0
  2  3  1  0
  3  4  2  0
  4  5  1  0
  5  6  2  0
  5  7  1  0
  7  8  1  0
  8  9  1  0
  9 10  1  0
 10 11  2  0
 11 12  1  0
 12 13  1  0
 13 14  1  0
 14 15  1  0
 15 16  1  0
 16 17  1  0
 17 18  1  0
 18 19  1  0
 12 20  2  0
 20 21  1  0
 21 22  1  0
 22 23  1  0
 23 24  1  0
 24 25  1  0
 25 26  2  0
 26 27  1  0
 27 28  2  0
 28 29  1  0
 29 30  2  0
 30 31  1  0
 21 32  2  0
  9 33  1  0
  6  1  1  0
 32 10  1  0
 33  4  1  0
 19 14  1  0
 31 22  1  0
 30 25  1  0
  1 34  1  0
  2 35  1  0
  3 36  1  0
  6 37  1  0
  7 38  1  0
  7 39  1  0
  8 40  1  0
  8 41  1  0
 11 42  1  0
 13 43  1  0
 14 44  1  6
 15 45  1  0
 15 46  1  0
 16 47  1  0
 16 48  1  0
 17 49  1  0
 17 50  1  0
 18 51  1  0
 19 52  1  0
 19 53  1  0
 23 54  1  0
 23 55  1  0
 24 56  1  0
 24 57  1  0
 26 58  1  0
 27 59  1  0
 28 60  1  0
 29 61  1  0
 31 62  1  0
 31 63  1  0
 33 64  1  0
 33 65  1  0
M  END
>  <smiles>  (37) 
c1ccc2c(c1)CCN(c1cc(NC3CCCNC3)nc(N3CCc4ccccc4C3)n1)C2

>  <score_type>  (37) 
oracle

>  <origin>  (37) 
autodockgpu

>  <m_score__min__energy>  (37) 
-9.3200000000000003

>  <m_primary>  (37) 
energy

>  <rmsd>  (37) 
7.049631970893301

>  <m_score__min__rmsd>  (37) 
7.049631970893301

>  <meeko>  (37) 
{"free_energy": -8.38, "intermolecular_energy": -9.57, "internal_energy": -2.01, "cluster_size": 26, "cluster_id": 2, "rank_in_cluster": 23}

>  <energy>  (37) 
-8.31

>  <cluster_rmsd>  (37) 
0.77

>  <cluster>  (37) 
2

$$$$

     RDKit          3D

 65 70  0  0  0  0  0  0  0  0999 V2000
  140.1760   69.5490  227.1020 C   0  0  0  0  0  0  0  0  0  0  0  0
  140.8760   70.7460  227.1130 C   0  0  0  0  0  0  0  0  0  0  0  0
  141.0720   71.4670  225.9500 C   0  0  0  0  0  0  0  0  0  0  0  0
  140.5460   70.9530  224.7830 C   0  0  0  0  0  0  0  0  0  0  0  0
  139.8420   69.7660  224.7280 C   0  0  0  0  0  0  0  0  0  0  0  0
  139.6620   69.0710  225.8950 C   0  0  0  0  0  0  0  0  0  0  0  0
  139.3200   69.3070  223.4140 C   0  0  0  0  0  0  0  0  0  0  0  0
  138.5690   70.4630  222.7920 C   0  0  0  0  0  0  0  0  0  0  0  0
  139.3420   71.6680  222.9030 N   0  0  0  0  0  0  0  0  0  0  0  0
  138.7970   72.9080  222.4690 C   0  0  0  0  0  0  0  0  0  0  0  0
  137.4570   72.9960  222.1580 C   0  0  0  0  0  0  0  0  0  0  0  0
  136.8740   74.1950  221.7280 C   0  0  0  0  0  0  0  0  0  0  0  0
  135.5020   74.2370  221.4270 N   0  0  0  0  0  0  0  0  0  0  0  0
  134.4380   74.4150  222.3890 C   0  0  2  0  0  0  0  0  0  0  0  0
  134.3130   75.8660  222.8060 C   0  0  0  0  0  0  0  0  0  0  0  0
  134.0810   75.8950  224.2990 C   0  0  0  0  0  0  0  0  0  0  0  0
  135.3090   75.2990  224.9550 C   0  0  0  0  0  0  0  0  0  0  0  0
  135.4610   73.9130  224.5890 N   0  0  0  0  0  0  0  0  0  0  0  0
  134.5290   73.4940  223.5730 C   0  0  0  0  0  0  0  0  0  0  0  0
  137.7120   75.2400  221.6440 N   0  0  0  0  0  0  0  0  0  0  0  0
  139.0220   75.1970  221.9380 C   0  0  0  0  0  0  0  0  0  0  0  0
  139.8060   76.3770  221.8090 N   0  0  0  0  0  0  0  0  0  0  0  0
  141.1640   76.2580  221.3380 C   0  0  0  0  0  0  0  0  0  0  0  0
  141.7080   77.5750  220.8320 C   0  0  0  0  0  0  0  0  0  0  0  0
  141.5510   78.6280  221.8930 C   0  0  0  0  0  0  0  0  0  0  0  0
  142.5800   79.4960  222.1950 C   0  0  0  0  0  0  0  0  0  0  0  0
  142.3340   80.4340  223.1920 C   0  0  0  0  0  0  0  0  0  0  0  0
  141.1210   80.4850  223.8400 C   0  0  0  0  0  0  0  0  0  0  0  0
  140.1110   79.6030  223.5170 C   0  0  0  0  0  0  0  0  0  0  0  0
  140.3260   78.6570  222.5270 C   0  0  0  0  0  0  0  0  0  0  0  0
  139.2590   77.6780  222.1410 C   0  0  0  0  0  0  0  0  0  0  0  0
  139.5390   74.0230  222.3470 N   0  0  0  0  0  0  0  0  0  0  0  0
  140.7040   71.6670  223.4630 C   0  0  0  0  0  0  0  0  0  0  0  0
  140.0274   68.9827  228.0333 H   0  0  0  0  0  0  0  0  0  0  0  0
  141.2815   71.1276  228.0617 H   0  0  0  0  0  0  0  0  0  0  0  0
  141.6274   72.4165  225.9550 H   0  0  0  0  0  0  0  0  0  0  0  0
  139.1046   68.1228  225.8808 H   0  0  0  0  0  0  0  0  0  0  0  0
  140.1544   69.0077  222.7626 H   0  0  0  0  0  0  0  0  0  0  0  0
  138.6561   68.4395  223.5434 H   0  0  0  0  0  0  0  0  0  0  0  0
  138.3823   70.2466  221.7298 H   0  0  0  0  0  0  0  0  0  0  0  0
  137.6130   70.5977  223.3192 H   0  0  0  0  0  0  0  0  0  0  0  0
  136.8273   72.0988  222.2502 H   0  0  0  0  0  0  0  0  0  0  0  0
  135.2090   74.1300  220.4190 H   0  0  0  0  0  0  0  0  0  0  0  0
  133.5104   74.1269  221.8726 H   0  0  0  0  0  0  0  0  0  0  0  0
  135.2380   76.4079  222.5597 H   0  0  0  0  0  0  0  0  0  0  0  0
  133.4788   76.3492  222.2764 H   0  0  0  0  0  0  0  0  0  0  0  0
  133.9383   76.9316  224.6381 H   0  0  0  0  0  0  0  0  0  0  0  0
  133.1798   75.3231  224.5652 H   0  0  0  0  0  0  0  0  0  0  0  0
  136.1990   75.8579  224.6300 H   0  0  0  0  0  0  0  0  0  0  0  0
  135.1938   75.3656  226.0469 H   0  0  0  0  0  0  0  0  0  0  0  0
  136.4420   73.6380  224.3860 H   0  0  0  0  0  0  0  0  0  0  0  0
  134.8376   72.5016  223.2127 H   0  0  0  0  0  0  0  0  0  0  0  0
  133.5348   73.4924  224.0437 H   0  0  0  0  0  0  0  0  0  0  0  0
  141.7973   75.9074  222.1663 H   0  0  0  0  0  0  0  0  0  0  0  0
  141.1709   75.5446  220.5008 H   0  0  0  0  0  0  0  0  0  0  0  0
  142.7738   77.4601  220.5855 H   0  0  0  0  0  0  0  0  0  0  0  0
  141.1519   77.8778  219.9325 H   0  0  0  0  0  0  0  0  0  0  0  0
  143.5471   79.4485  221.6731 H   0  0  0  0  0  0  0  0  0  0  0  0
  143.1237   81.1484  223.4677 H   0  0  0  0  0  0  0  0  0  0  0  0
  140.9550   81.2379  224.6246 H   0  0  0  0  0  0  0  0  0  0  0  0
  139.1444   79.6499  224.0399 H   0  0  0  0  0  0  0  0  0  0  0  0
  138.5604   77.5645  222.9831 H   0  0  0  0  0  0  0  0  0  0  0  0
  138.7484   78.0683  221.2483 H   0  0  0  0  0  0  0  0  0  0  0  0
  141.3988   71.1252  222.8044 H   0  0  0  0  0  0  0  0  0  0  0  0
  141.1213   72.6789  223.5723 H   0  0  0  0  0  0  0  0  0  0  0  0
  1  2  2  0
  2  3  1  0
  3  4  2  0
  4  5  1  0
  5  6  2  0
  5  7  1  0
  7  8  1  0
  8  9  1  0
  9 10  1  0
 10 11  2  0
 11 12  1  0
 12 13  1  0
 13 14  1  0
 14 15  1  0
 15 16  1  0
 16 17  1  0
 17 18  1  0
 18 19  1  0
 12 20  2  0
 20 21  1  0
 21 22  1  0
 22 23  1  0
 23 24  1  0
 24 25  1  0
 25 26  2  0
 26 27  1  0
 27 28  2  0
 28 29  1  0
 29 30  2  0
 30 31  1  0
 21 32  2  0
  9 33  1  0
  6  1  1  0
 32 10  1  0
 33  4  1  0
 19 14  1  0
 31 22  1  0
 30 25  1  0
  1 34  1  0
  2 35  1  0
  3 36  1  0
  6 37  1  0
  7 38  1  0
  7 39  1  0
  8 40  1  0
  8 41  1  0
 11 42  1  0
 13 43  1  0
 14 44  1  6
 15 45  1  0
 15 46  1  0
 16 47  1  0
 16 48  1  0
 17 49  1  0
 17 50  1  0
 18 51  1  0
 19 52  1  0
 19 53  1  0
 23 54  1  0
 23 55  1  0
 24 56  1  0
 24 57  1  0
 26 58  1  0
 27 59  1  0
 28 60  1  0
 29 61  1  0
 31 62  1  0
 31 63  1  0
 33 64  1  0
 33 65  1  0
M  END
>  <smiles>  (38) 
c1ccc2c(c1)CCN(c1cc(NC3CCCNC3)nc(N3CCc4ccccc4C3)n1)C2

>  <score_type>  (38) 
oracle

>  <origin>  (38) 
autodockgpu

>  <m_score__min__energy>  (38) 
-9.3200000000000003

>  <m_primary>  (38) 
energy

>  <rmsd>  (38) 
7.674510445113627

>  <m_score__min__rmsd>  (38) 
7.674510445113627

>  <meeko>  (38) 
{"free_energy": -9.2, "intermolecular_energy": -10.39, "internal_energy": -1.35, "cluster_size": 26, "cluster_id": 2, "rank_in_cluster": 7}

>  <energy>  (38) 
-8.13

>  <cluster_rmsd>  (38) 
1.64

>  <cluster>  (38) 
2

$$$$

     RDKit          3D

 65 70  0  0  0  0  0  0  0  0999 V2000
  140.1280   69.7400  227.6950 C   0  0  0  0  0  0  0  0  0  0  0  0
  140.8030   70.9490  227.6170 C   0  0  0  0  0  0  0  0  0  0  0  0
  141.0290   71.5600  226.3990 C   0  0  0  0  0  0  0  0  0  0  0  0
  140.5590   70.9260  225.2680 C   0  0  0  0  0  0  0  0  0  0  0  0
  139.8830   69.7220  225.3010 C   0  0  0  0  0  0  0  0  0  0  0  0
  139.6730   69.1370  226.5210 C   0  0  0  0  0  0  0  0  0  0  0  0
  139.4230   69.1280  224.0180 C   0  0  0  0  0  0  0  0  0  0  0  0
  138.6730   70.2010  223.2610 C   0  0  0  0  0  0  0  0  0  0  0  0
  139.4160   71.4290  223.2850 N   0  0  0  0  0  0  0  0  0  0  0  0
  138.8620   72.6090  222.7140 C   0  0  0  0  0  0  0  0  0  0  0  0
  137.5470   72.6180  222.3020 C   0  0  0  0  0  0  0  0  0  0  0  0
  136.9570   73.7570  221.7360 C   0  0  0  0  0  0  0  0  0  0  0  0
  135.6100   73.7200  221.3370 N   0  0  0  0  0  0  0  0  0  0  0  0
  134.5050   74.3110  222.0580 C   0  0  2  0  0  0  0  0  0  0  0  0
  134.5300   75.8220  221.9570 C   0  0  0  0  0  0  0  0  0  0  0  0
  134.1890   76.3780  223.3190 C   0  0  0  0  0  0  0  0  0  0  0  0
  135.2780   75.9310  224.2710 C   0  0  0  0  0  0  0  0  0  0  0  0
  135.2840   74.4950  224.4030 N   0  0  0  0  0  0  0  0  0  0  0  0
  134.3890   73.8430  223.4800 C   0  0  0  0  0  0  0  0  0  0  0  0
  137.7630   74.8240  221.6270 N   0  0  0  0  0  0  0  0  0  0  0  0
  139.0480   74.8560  222.0170 C   0  0  0  0  0  0  0  0  0  0  0  0
  139.7980   76.0530  221.8480 N   0  0  0  0  0  0  0  0  0  0  0  0
  141.1320   75.9630  221.3050 C   0  0  0  0  0  0  0  0  0  0  0  0
  141.6210   77.2910  220.7730 C   0  0  0  0  0  0  0  0  0  0  0  0
  141.4980   78.3400  221.8440 C   0  0  0  0  0  0  0  0  0  0  0  0
  142.5230   79.2300  222.0920 C   0  0  0  0  0  0  0  0  0  0  0  0
  142.3090   80.1620  223.1020 C   0  0  0  0  0  0  0  0  0  0  0  0
  141.1320   80.1870  223.8130 C   0  0  0  0  0  0  0  0  0  0  0  0
  140.1250   79.2840  223.5430 C   0  0  0  0  0  0  0  0  0  0  0  0
  140.3070   78.3430  222.5420 C   0  0  0  0  0  0  0  0  0  0  0  0
  139.2420   77.3410  222.2110 C   0  0  0  0  0  0  0  0  0  0  0  0
  139.5730   73.7390  222.5550 N   0  0  0  0  0  0  0  0  0  0  0  0
  140.7540   71.5150  223.8920 C   0  0  0  0  0  0  0  0  0  0  0  0
  139.9533   69.2620  228.6702 H   0  0  0  0  0  0  0  0  0  0  0  0
  141.1638   71.4285  228.5389 H   0  0  0  0  0  0  0  0  0  0  0  0
  141.5649   72.5184  226.3334 H   0  0  0  0  0  0  0  0  0  0  0  0
  139.1378   68.1776  226.5769 H   0  0  0  0  0  0  0  0  0  0  0  0
  140.2885   68.7892  223.4298 H   0  0  0  0  0  0  0  0  0  0  0  0
  138.7729   68.2605  224.2047 H   0  0  0  0  0  0  0  0  0  0  0  0
  138.5325   69.8805  222.2181 H   0  0  0  0  0  0  0  0  0  0  0  0
  137.6944   70.3617  223.7369 H   0  0  0  0  0  0  0  0  0  0  0  0
  136.9434   71.7061  222.4205 H   0  0  0  0  0  0  0  0  0  0  0  0
  135.3700   73.2220  220.4380 H   0  0  0  0  0  0  0  0  0  0  0  0
  133.5913   73.9511  221.5624 H   0  0  0  0  0  0  0  0  0  0  0  0
  135.5316   76.1609  221.6539 H   0  0  0  0  0  0  0  0  0  0  0  0
  133.8058   76.1703  221.2059 H   0  0  0  0  0  0  0  0  0  0  0  0
  134.1512   77.4766  223.2788 H   0  0  0  0  0  0  0  0  0  0  0  0
  133.2056   76.0159  223.6533 H   0  0  0  0  0  0  0  0  0  0  0  0
  136.2533   76.2618  223.8845 H   0  0  0  0  0  0  0  0  0  0  0  0
  135.0874   76.3755  225.2590 H   0  0  0  0  0  0  0  0  0  0  0  0
  136.2360   74.0800  224.4150 H   0  0  0  0  0  0  0  0  0  0  0  0
  134.5989   72.7635  223.5038 H   0  0  0  0  0  0  0  0  0  0  0  0
  133.3689   74.0925  223.8072 H   0  0  0  0  0  0  0  0  0  0  0  0
  141.8155   75.6253  222.0979 H   0  0  0  0  0  0  0  0  0  0  0  0
  141.1090   75.2505  220.4672 H   0  0  0  0  0  0  0  0  0  0  0  0
  142.6745   77.1986  220.4704 H   0  0  0  0  0  0  0  0  0  0  0  0
  141.0125   77.5828  219.9043 H   0  0  0  0  0  0  0  0  0  0  0  0
  143.4620   79.2037  221.5197 H   0  0  0  0  0  0  0  0  0  0  0  0
  143.0965   80.8933  223.3367 H   0  0  0  0  0  0  0  0  0  0  0  0
  140.9921   80.9360  224.6064 H   0  0  0  0  0  0  0  0  0  0  0  0
  139.1867   79.3105  224.1165 H   0  0  0  0  0  0  0  0  0  0  0  0
  138.5917   77.2118  223.0887 H   0  0  0  0  0  0  0  0  0  0  0  0
  138.6766   77.7210  221.3473 H   0  0  0  0  0  0  0  0  0  0  0  0
  141.4853   70.9303  223.3147 H   0  0  0  0  0  0  0  0  0  0  0  0
  141.1455   72.5426  223.9189 H   0  0  0  0  0  0  0  0  0  0  0  0
  1  2  2  0
  2  3  1  0
  3  4  2  0
  4  5  1  0
  5  6  2  0
  5  7  1  0
  7  8  1  0
  8  9  1  0
  9 10  1  0
 10 11  2  0
 11 12  1  0
 12 13  1  0
 13 14  1  0
 14 15  1  0
 15 16  1  0
 16 17  1  0
 17 18  1  0
 18 19  1  0
 12 20  2  0
 20 21  1  0
 21 22  1  0
 22 23  1  0
 23 24  1  0
 24 25  1  0
 25 26  2  0
 26 27  1  0
 27 28  2  0
 28 29  1  0
 29 30  2  0
 30 31  1  0
 21 32  2  0
  9 33  1  0
  6  1  1  0
 32 10  1  0
 33  4  1  0
 19 14  1  0
 31 22  1  0
 30 25  1  0
  1 34  1  0
  2 35  1  0
  3 36  1  0
  6 37  1  0
  7 38  1  0
  7 39  1  0
  8 40  1  0
  8 41  1  0
 11 42  1  0
 13 43  1  0
 14 44  1  6
 15 45  1  0
 15 46  1  0
 16 47  1  0
 16 48  1  0
 17 49  1  0
 17 50  1  0
 18 51  1  0
 19 52  1  0
 19 53  1  0
 23 54  1  0
 23 55  1  0
 24 56  1  0
 24 57  1  0
 26 58  1  0
 27 59  1  0
 28 60  1  0
 29 61  1  0
 31 62  1  0
 31 63  1  0
 33 64  1  0
 33 65  1  0
M  END
>  <smiles>  (39) 
c1ccc2c(c1)CCN(c1cc(NC3CCCNC3)nc(N3CCc4ccccc4C3)n1)C2

>  <score_type>  (39) 
oracle

>  <origin>  (39) 
autodockgpu

>  <m_score__min__energy>  (39) 
-9.3200000000000003

>  <m_primary>  (39) 
energy

>  <rmsd>  (39) 
7.442816970088995

>  <m_score__min__rmsd>  (39) 
7.442816970088995

>  <meeko>  (39) 
{"free_energy": -9.06, "intermolecular_energy": -10.26, "internal_energy": -1.4, "cluster_size": 26, "cluster_id": 2, "rank_in_cluster": 17}

>  <energy>  (39) 
-8.52

>  <cluster_rmsd>  (39) 
0.0

>  <cluster>  (39) 
3

$$$$

     RDKit          3D

 65 70  0  0  0  0  0  0  0  0999 V2000
  139.2220   67.3860  224.2510 C   0  0  0  0  0  0  0  0  0  0  0  0
  138.6290   67.6450  223.0250 C   0  0  0  0  0  0  0  0  0  0  0  0
  138.4040   68.9410  222.6030 C   0  0  0  0  0  0  0  0  0  0  0  0
  138.7910   69.9640  223.4430 C   0  0  0  0  0  0  0  0  0  0  0  0
  139.3850   69.7500  224.6710 C   0  0  0  0  0  0  0  0  0  0  0  0
  139.5970   68.4560  225.0660 C   0  0  0  0  0  0  0  0  0  0  0  0
  139.7610   70.9280  225.4960 C   0  0  0  0  0  0  0  0  0  0  0  0
  140.5550   71.8670  224.6160 C   0  0  0  0  0  0  0  0  0  0  0  0
  139.8980   72.0270  223.3490 N   0  0  0  0  0  0  0  0  0  0  0  0
  140.5100   72.7950  222.3200 C   0  0  0  0  0  0  0  0  0  0  0  0
  141.1030   72.1580  221.2510 C   0  0  0  0  0  0  0  0  0  0  0  0
  141.7170   72.8700  220.2120 C   0  0  0  0  0  0  0  0  0  0  0  0
  142.3030   72.1760  219.1400 N   0  0  0  0  0  0  0  0  0  0  0  0
  143.7060   72.2030  218.7900 C   0  0  2  0  0  0  0  0  0  0  0  0
  144.5400   71.4650  219.8170 C   0  0  0  0  0  0  0  0  0  0  0  0
  145.7900   72.2790  220.0620 C   0  0  0  0  0  0  0  0  0  0  0  0
  145.3530   73.6060  220.6450 C   0  0  0  0  0  0  0  0  0  0  0  0
  144.5600   74.3460  219.6940 N   0  0  0  0  0  0  0  0  0  0  0  0
  144.2370   73.5800  218.5160 C   0  0  0  0  0  0  0  0  0  0  0  0
  141.6840   74.2060  220.3380 N   0  0  0  0  0  0  0  0  0  0  0  0
  141.1170   74.8640  221.3620 C   0  0  0  0  0  0  0  0  0  0  0  0
  141.1480   76.2870  221.3790 N   0  0  0  0  0  0  0  0  0  0  0  0
  141.6860   76.9820  220.2340 C   0  0  0  0  0  0  0  0  0  0  0  0
  141.2530   78.4300  220.1930 C   0  0  0  0  0  0  0  0  0  0  0  0
  141.6000   79.0980  221.4950 C   0  0  0  0  0  0  0  0  0  0  0  0
  142.1890   80.3450  221.5220 C   0  0  0  0  0  0  0  0  0  0  0  0
  142.4690   80.8760  222.7770 C   0  0  0  0  0  0  0  0  0  0  0  0
  142.1700   80.1840  223.9280 C   0  0  0  0  0  0  0  0  0  0  0  0
  141.5820   78.9380  223.8690 C   0  0  0  0  0  0  0  0  0  0  0  0
  141.2900   78.3820  222.6340 C   0  0  0  0  0  0  0  0  0  0  0  0
  140.6500   77.0320  222.5180 C   0  0  0  0  0  0  0  0  0  0  0  0
  140.5390   74.1390  222.3370 N   0  0  0  0  0  0  0  0  0  0  0  0
  138.5900   71.4120  223.0710 C   0  0  0  0  0  0  0  0  0  0  0  0
  139.3950   66.3500  224.5779 H   0  0  0  0  0  0  0  0  0  0  0  0
  138.3331   66.8058  222.3784 H   0  0  0  0  0  0  0  0  0  0  0  0
  137.9328   69.1497  221.6312 H   0  0  0  0  0  0  0  0  0  0  0  0
  140.0694   68.2567  226.0392 H   0  0  0  0  0  0  0  0  0  0  0  0
  138.8556   71.4334  225.8631 H   0  0  0  0  0  0  0  0  0  0  0  0
  140.3577   70.6161  226.3659 H   0  0  0  0  0  0  0  0  0  0  0  0
  140.6374   72.8465  225.1097 H   0  0  0  0  0  0  0  0  0  0  0  0
  141.5579   71.4461  224.4518 H   0  0  0  0  0  0  0  0  0  0  0  0
  141.0939   71.0587  221.2125 H   0  0  0  0  0  0  0  0  0  0  0  0
  141.6790   71.5830  218.5300 H   0  0  0  0  0  0  0  0  0  0  0  0
  143.7915   71.6686  217.8323 H   0  0  0  0  0  0  0  0  0  0  0  0
  143.9729   71.3576  220.7534 H   0  0  0  0  0  0  0  0  0  0  0  0
  144.7991   70.4596  219.4536 H   0  0  0  0  0  0  0  0  0  0  0  0
  146.4484   71.7547  220.7703 H   0  0  0  0  0  0  0  0  0  0  0  0
  146.3482   72.4286  219.1260 H   0  0  0  0  0  0  0  0  0  0  0  0
  144.7541   73.4231  221.5494 H   0  0  0  0  0  0  0  0  0  0  0  0
  146.2485   74.1951  220.8921 H   0  0  0  0  0  0  0  0  0  0  0  0
  143.7370   74.8200  220.1140 H   0  0  0  0  0  0  0  0  0  0  0  0
  143.4767   74.1333  217.9452 H   0  0  0  0  0  0  0  0  0  0  0  0
  145.1792   73.4459  217.9644 H   0  0  0  0  0  0  0  0  0  0  0  0
  142.7844   76.9413  220.2781 H   0  0  0  0  0  0  0  0  0  0  0  0
  141.3046   76.4884  219.3279 H   0  0  0  0  0  0  0  0  0  0  0  0
  141.7701   78.9434  219.3690 H   0  0  0  0  0  0  0  0  0  0  0  0
  140.1657   78.4815  220.0347 H   0  0  0  0  0  0  0  0  0  0  0  0
  142.4255   80.8922  220.5975 H   0  0  0  0  0  0  0  0  0  0  0  0
  142.9384   81.8681  222.8505 H   0  0  0  0  0  0  0  0  0  0  0  0
  142.4026   80.6297  224.9064 H   0  0  0  0  0  0  0  0  0  0  0  0
  141.3470   78.3907  224.7938 H   0  0  0  0  0  0  0  0  0  0  0  0
  140.8595   76.4606  223.4343 H   0  0  0  0  0  0  0  0  0  0  0  0
  139.5692   77.1812  222.3780 H   0  0  0  0  0  0  0  0  0  0  0  0
  137.8021   71.8698  223.6872 H   0  0  0  0  0  0  0  0  0  0  0  0
  138.2695   71.5440  222.0270 H   0  0  0  0  0  0  0  0  0  0  0  0
  1  2  2  0
  2  3  1  0
  3  4  2  0
  4  5  1  0
  5  6  2  0
  5  7  1  0
  7  8  1  0
  8  9  1  0
  9 10  1  0
 10 11  2  0
 11 12  1  0
 12 13  1  0
 13 14  1  0
 14 15  1  0
 15 16  1  0
 16 17  1  0
 17 18  1  0
 18 19  1  0
 12 20  2  0
 20 21  1  0
 21 22  1  0
 22 23  1  0
 23 24  1  0
 24 25  1  0
 25 26  2  0
 26 27  1  0
 27 28  2  0
 28 29  1  0
 29 30  2  0
 30 31  1  0
 21 32  2  0
  9 33  1  0
  6  1  1  0
 32 10  1  0
 33  4  1  0
 19 14  1  0
 31 22  1  0
 30 25  1  0
  1 34  1  0
  2 35  1  0
  3 36  1  0
  6 37  1  0
  7 38  1  0
  7 39  1  0
  8 40  1  0
  8 41  1  0
 11 42  1  0
 13 43  1  0
 14 44  1  6
 15 45  1  0
 15 46  1  0
 16 47  1  0
 16 48  1  0
 17 49  1  0
 17 50  1  0
 18 51  1  0
 19 52  1  0
 19 53  1  0
 23 54  1  0
 23 55  1  0
 24 56  1  0
 24 57  1  0
 26 58  1  0
 27 59  1  0
 28 60  1  0
 29 61  1  0
 31 62  1  0
 31 63  1  0
 33 64  1  0
 33 65  1  0
M  END
>  <smiles>  (40) 
c1ccc2c(c1)CCN(c1cc(NC3CCCNC3)nc(N3CCc4ccccc4C3)n1)C2

>  <score_type>  (40) 
oracle

>  <origin>  (40) 
autodockgpu

>  <m_score__min__energy>  (40) 
-9.3200000000000003

>  <m_primary>  (40) 
energy

>  <rmsd>  (40) 
6.690820075840937

>  <m_score__min__rmsd>  (40) 
6.690820075840937

>  <meeko>  (40) 
{"free_energy": -8.57, "intermolecular_energy": -9.76, "internal_energy": -1.97, "cluster_size": 12, "cluster_id": 1, "rank_in_cluster": 11}

>  <energy>  (40) 
-8.51

>  <cluster_rmsd>  (40) 
0.1

>  <cluster>  (40) 
3

$$$$

     RDKit          3D

 65 70  0  0  0  0  0  0  0  0999 V2000
  140.1320   69.6610  227.6110 C   0  0  0  0  0  0  0  0  0  0  0  0
  140.8020   70.8750  227.5560 C   0  0  0  0  0  0  0  0  0  0  0  0
  141.0230   71.5110  226.3500 C   0  0  0  0  0  0  0  0  0  0  0  0
  140.5550   70.8960  225.2070 C   0  0  0  0  0  0  0  0  0  0  0  0
  139.8840   69.6890  225.2180 C   0  0  0  0  0  0  0  0  0  0  0  0
  139.6770   69.0800  226.4270 C   0  0  0  0  0  0  0  0  0  0  0  0
  139.4240   69.1180  223.9250 C   0  0  0  0  0  0  0  0  0  0  0  0
  138.6680   70.2020  223.1890 C   0  0  0  0  0  0  0  0  0  0  0  0
  139.4070   71.4330  223.2360 N   0  0  0  0  0  0  0  0  0  0  0  0
  138.8470   72.6220  222.6890 C   0  0  0  0  0  0  0  0  0  0  0  0
  137.5250   72.6400  222.3000 C   0  0  0  0  0  0  0  0  0  0  0  0
  136.9290   73.7870  221.7580 C   0  0  0  0  0  0  0  0  0  0  0  0
  135.5750   73.7600  221.3820 N   0  0  0  0  0  0  0  0  0  0  0  0
  134.4530   73.9380  222.2750 C   0  0  2  0  0  0  0  0  0  0  0  0
  134.1690   75.4070  222.5120 C   0  0  0  0  0  0  0  0  0  0  0  0
  133.8620   75.5830  223.9810 C   0  0  0  0  0  0  0  0  0  0  0  0
  135.1070   75.1920  224.7490 C   0  0  0  0  0  0  0  0  0  0  0  0
  135.4090   73.7960  224.5560 N   0  0  0  0  0  0  0  0  0  0  0  0
  134.5730   73.1720  223.5620 C   0  0  0  0  0  0  0  0  0  0  0  0
  137.7370   74.8530  221.6480 N   0  0  0  0  0  0  0  0  0  0  0  0
  139.0280   74.8760  222.0160 C   0  0  0  0  0  0  0  0  0  0  0  0
  139.7800   76.0730  221.8490 N   0  0  0  0  0  0  0  0  0  0  0  0
  141.1040   75.9850  221.2810 C   0  0  0  0  0  0  0  0  0  0  0  0
  141.5870   77.3190  220.7570 C   0  0  0  0  0  0  0  0  0  0  0  0
  141.4870   78.3550  221.8420 C   0  0  0  0  0  0  0  0  0  0  0  0
  142.5190   79.2380  222.0830 C   0  0  0  0  0  0  0  0  0  0  0  0
  142.3270   80.1580  223.1080 C   0  0  0  0  0  0  0  0  0  0  0  0
  141.1620   80.1780  223.8400 C   0  0  0  0  0  0  0  0  0  0  0  0
  140.1480   79.2820  223.5770 C   0  0  0  0  0  0  0  0  0  0  0  0
  140.3090   78.3520  222.5610 C   0  0  0  0  0  0  0  0  0  0  0  0
  139.2350   77.3590  222.2370 C   0  0  0  0  0  0  0  0  0  0  0  0
  139.5590   73.7520  222.5310 N   0  0  0  0  0  0  0  0  0  0  0  0
  140.7450   71.5130  223.8430 C   0  0  0  0  0  0  0  0  0  0  0  0
  139.9617   69.1627  228.5767 H   0  0  0  0  0  0  0  0  0  0  0  0
  141.1624   71.3376  228.4866 H   0  0  0  0  0  0  0  0  0  0  0  0
  141.5533   72.4736  226.3025 H   0  0  0  0  0  0  0  0  0  0  0  0
  139.1441   68.1185  226.4652 H   0  0  0  0  0  0  0  0  0  0  0  0
  140.2898   68.7938  223.3290 H   0  0  0  0  0  0  0  0  0  0  0  0
  138.7774   68.2448  224.0967 H   0  0  0  0  0  0  0  0  0  0  0  0
  138.5277   69.9009  222.1404 H   0  0  0  0  0  0  0  0  0  0  0  0
  137.6889   70.3494  223.6683 H   0  0  0  0  0  0  0  0  0  0  0  0
  136.9206   71.7286  222.4182 H   0  0  0  0  0  0  0  0  0  0  0  0
  135.3440   73.5950  220.3660 H   0  0  0  0  0  0  0  0  0  0  0  0
  133.5840   73.5005  221.7618 H   0  0  0  0  0  0  0  0  0  0  0  0
  135.0488   76.0078  222.2383 H   0  0  0  0  0  0  0  0  0  0  0  0
  133.3193   75.7397  221.8977 H   0  0  0  0  0  0  0  0  0  0  0  0
  133.6048   76.6321  224.1891 H   0  0  0  0  0  0  0  0  0  0  0  0
  133.0073   74.9578  224.2788 H   0  0  0  0  0  0  0  0  0  0  0  0
  135.9545   75.7969  224.3943 H   0  0  0  0  0  0  0  0  0  0  0  0
  134.9316   75.3704  225.8202 H   0  0  0  0  0  0  0  0  0  0  0  0
  136.4200   73.6000  224.4240 H   0  0  0  0  0  0  0  0  0  0  0  0
  134.9928   72.1812  223.3337 H   0  0  0  0  0  0  0  0  0  0  0  0
  133.5614   73.1237  223.9914 H   0  0  0  0  0  0  0  0  0  0  0  0
  141.8006   75.6353  222.0572 H   0  0  0  0  0  0  0  0  0  0  0  0
  141.0643   75.2827  220.4353 H   0  0  0  0  0  0  0  0  0  0  0  0
  142.6345   77.2276  220.4340 H   0  0  0  0  0  0  0  0  0  0  0  0
  140.9630   77.6232  219.9038 H   0  0  0  0  0  0  0  0  0  0  0  0
  143.4476   79.2155  221.4937 H   0  0  0  0  0  0  0  0  0  0  0  0
  143.1213   80.8833  223.3379 H   0  0  0  0  0  0  0  0  0  0  0  0
  141.0384   80.9178  224.6446 H   0  0  0  0  0  0  0  0  0  0  0  0
  139.2201   79.3045  224.1673 H   0  0  0  0  0  0  0  0  0  0  0  0
  138.5995   77.2217  223.1243 H   0  0  0  0  0  0  0  0  0  0  0  0
  138.6560   77.7514  221.3881 H   0  0  0  0  0  0  0  0  0  0  0  0
  141.4782   70.9433  223.2532 H   0  0  0  0  0  0  0  0  0  0  0  0
  141.1315   72.5418  223.8900 H   0  0  0  0  0  0  0  0  0  0  0  0
  1  2  2  0
  2  3  1  0
  3  4  2  0
  4  5  1  0
  5  6  2  0
  5  7  1  0
  7  8  1  0
  8  9  1  0
  9 10  1  0
 10 11  2  0
 11 12  1  0
 12 13  1  0
 13 14  1  0
 14 15  1  0
 15 16  1  0
 16 17  1  0
 17 18  1  0
 18 19  1  0
 12 20  2  0
 20 21  1  0
 21 22  1  0
 22 23  1  0
 23 24  1  0
 24 25  1  0
 25 26  2  0
 26 27  1  0
 27 28  2  0
 28 29  1  0
 29 30  2  0
 30 31  1  0
 21 32  2  0
  9 33  1  0
  6  1  1  0
 32 10  1  0
 33  4  1  0
 19 14  1  0
 31 22  1  0
 30 25  1  0
  1 34  1  0
  2 35  1  0
  3 36  1  0
  6 37  1  0
  7 38  1  0
  7 39  1  0
  8 40  1  0
  8 41  1  0
 11 42  1  0
 13 43  1  0
 14 44  1  6
 15 45  1  0
 15 46  1  0
 16 47  1  0
 16 48  1  0
 17 49  1  0
 17 50  1  0
 18 51  1  0
 19 52  1  0
 19 53  1  0
 23 54  1  0
 23 55  1  0
 24 56  1  0
 24 57  1  0
 26 58  1  0
 27 59  1  0
 28 60  1  0
 29 61  1  0
 31 62  1  0
 31 63  1  0
 33 64  1  0
 33 65  1  0
M  END
>  <smiles>  (41) 
c1ccc2c(c1)CCN(c1cc(NC3CCCNC3)nc(N3CCc4ccccc4C3)n1)C2

>  <score_type>  (41) 
oracle

>  <origin>  (41) 
autodockgpu

>  <m_score__min__energy>  (41) 
-9.3200000000000003

>  <m_primary>  (41) 
energy

>  <rmsd>  (41) 
7.835316597953975

>  <m_score__min__rmsd>  (41) 
7.835316597953975

>  <meeko>  (41) 
{"free_energy": -9.21, "intermolecular_energy": -10.4, "internal_energy": -1.33, "cluster_size": 26, "cluster_id": 2, "rank_in_cluster": 4}

>  <energy>  (41) 
-8.48

>  <cluster_rmsd>  (41) 
0.09

>  <cluster>  (41) 
3

$$$$

     RDKit          3D

 65 70  0  0  0  0  0  0  0  0999 V2000
  139.9270   69.9130  228.5170 C   0  0  0  0  0  0  0  0  0  0  0  0
  140.5960   71.1130  228.3330 C   0  0  0  0  0  0  0  0  0  0  0  0
  140.9430   71.5490  227.0690 C   0  0  0  0  0  0  0  0  0  0  0  0
  140.5980   70.7480  226.0000 C   0  0  0  0  0  0  0  0  0  0  0  0
  139.9310   69.5470  226.1380 C   0  0  0  0  0  0  0  0  0  0  0  0
  139.6000   69.1380  227.4020 C   0  0  0  0  0  0  0  0  0  0  0  0
  139.6110   68.7650  224.9150 C   0  0  0  0  0  0  0  0  0  0  0  0
  138.9360   69.7010  223.9380 C   0  0  0  0  0  0  0  0  0  0  0  0
  139.6630   70.9360  223.8590 N   0  0  0  0  0  0  0  0  0  0  0  0
  139.1630   72.0100  223.0700 C   0  0  0  0  0  0  0  0  0  0  0  0
  137.8530   71.9920  222.6410 C   0  0  0  0  0  0  0  0  0  0  0  0
  137.3140   73.0270  221.8640 C   0  0  0  0  0  0  0  0  0  0  0  0
  135.9710   72.9670  221.4550 N   0  0  0  0  0  0  0  0  0  0  0  0
  134.8370   73.4070  222.2360 C   0  0  2  0  0  0  0  0  0  0  0  0
  134.7430   74.9180  222.2620 C   0  0  0  0  0  0  0  0  0  0  0  0
  134.3840   75.3320  223.6700 C   0  0  0  0  0  0  0  0  0  0  0  0
  135.5220   74.8950  224.5690 C   0  0  0  0  0  0  0  0  0  0  0  0
  135.6420   73.4580  224.5790 N   0  0  0  0  0  0  0  0  0  0  0  0
  134.7840   72.8160  223.6160 C   0  0  0  0  0  0  0  0  0  0  0  0
  138.1640   74.0240  221.5730 N   0  0  0  0  0  0  0  0  0  0  0  0
  139.4450   74.0790  221.9710 C   0  0  0  0  0  0  0  0  0  0  0  0
  140.2450   75.1950  221.5970 N   0  0  0  0  0  0  0  0  0  0  0  0
  139.7610   76.5230  221.8890 C   0  0  0  0  0  0  0  0  0  0  0  0
  140.8690   77.5510  221.8550 C   0  0  0  0  0  0  0  0  0  0  0  0
  141.5920   77.4720  220.5390 C   0  0  0  0  0  0  0  0  0  0  0  0
  141.9110   78.6120  219.8310 C   0  0  0  0  0  0  0  0  0  0  0  0
  142.5810   78.4310  218.6250 C   0  0  0  0  0  0  0  0  0  0  0  0
  142.9050   77.1740  218.1700 C   0  0  0  0  0  0  0  0  0  0  0  0
  142.5720   76.0520  218.9000 C   0  0  0  0  0  0  0  0  0  0  0  0
  141.9040   76.2000  220.1060 C   0  0  0  0  0  0  0  0  0  0  0  0
  141.5220   75.0110  220.9350 C   0  0  0  0  0  0  0  0  0  0  0  0
  139.9200   73.0630  222.7160 N   0  0  0  0  0  0  0  0  0  0  0  0
  140.9300   71.1390  224.5800 C   0  0  0  0  0  0  0  0  0  0  0  0
  139.6570   69.5753  229.5285 H   0  0  0  0  0  0  0  0  0  0  0  0
  140.8547   71.7280  229.2076 H   0  0  0  0  0  0  0  0  0  0  0  0
  141.4750   72.5002  226.9202 H   0  0  0  0  0  0  0  0  0  0  0  0
  139.0687   68.1850  227.5414 H   0  0  0  0  0  0  0  0  0  0  0  0
  140.5353   68.3644  224.4733 H   0  0  0  0  0  0  0  0  0  0  0  0
  138.9512   67.9192  225.1587 H   0  0  0  0  0  0  0  0  0  0  0  0
  138.9073   69.2310  222.9439 H   0  0  0  0  0  0  0  0  0  0  0  0
  137.9120   69.9063  224.2834 H   0  0  0  0  0  0  0  0  0  0  0  0
  137.2123   71.1412  222.9162 H   0  0  0  0  0  0  0  0  0  0  0  0
  135.7580   72.5690  220.5020 H   0  0  0  0  0  0  0  0  0  0  0  0
  133.9454   73.0176  221.7227 H   0  0  0  0  0  0  0  0  0  0  0  0
  135.7099   75.3584  221.9770 H   0  0  0  0  0  0  0  0  0  0  0  0
  133.9803   75.2687  221.5511 H   0  0  0  0  0  0  0  0  0  0  0  0
  134.2606   76.4238  223.7219 H   0  0  0  0  0  0  0  0  0  0  0  0
  133.4376   74.8678  223.9843 H   0  0  0  0  0  0  0  0  0  0  0  0
  136.4614   75.3330  224.2008 H   0  0  0  0  0  0  0  0  0  0  0  0
  135.3153   75.2393  225.5931 H   0  0  0  0  0  0  0  0  0  0  0  0
  136.6230   73.1190  224.5450 H   0  0  0  0  0  0  0  0  0  0  0  0
  135.0774   71.7581  223.5472 H   0  0  0  0  0  0  0  0  0  0  0  0
  133.7538   72.9568  223.9750 H   0  0  0  0  0  0  0  0  0  0  0  0
  139.0007   76.7958  221.1424 H   0  0  0  0  0  0  0  0  0  0  0  0
  139.3374   76.5142  222.9041 H   0  0  0  0  0  0  0  0  0  0  0  0
  140.4392   78.5563  221.9765 H   0  0  0  0  0  0  0  0  0  0  0  0
  141.5771   77.3512  222.6727 H   0  0  0  0  0  0  0  0  0  0  0  0
  141.6488   79.6141  220.2013 H   0  0  0  0  0  0  0  0  0  0  0  0
  142.8568   79.3100  218.0239 H   0  0  0  0  0  0  0  0  0  0  0  0
  143.4357   77.0623  217.2130 H   0  0  0  0  0  0  0  0  0  0  0  0
  142.8337   75.0500  218.5292 H   0  0  0  0  0  0  0  0  0  0  0  0
  141.4588   74.1285  220.2814 H   0  0  0  0  0  0  0  0  0  0  0  0
  142.2900   74.8786  221.7113 H   0  0  0  0  0  0  0  0  0  0  0  0
  141.7223   70.4951  224.1705 H   0  0  0  0  0  0  0  0  0  0  0  0
  141.3079   72.1688  224.4978 H   0  0  0  0  0  0  0  0  0  0  0  0
  1  2  2  0
  2  3  1  0
  3  4  2  0
  4  5  1  0
  5  6  2  0
  5  7  1  0
  7  8  1  0
  8  9  1  0
  9 10  1  0
 10 11  2  0
 11 12  1  0
 12 13  1  0
 13 14  1  0
 14 15  1  0
 15 16  1  0
 16 17  1  0
 17 18  1  0
 18 19  1  0
 12 20  2  0
 20 21  1  0
 21 22  1  0
 22 23  1  0
 23 24  1  0
 24 25  1  0
 25 26  2  0
 26 27  1  0
 27 28  2  0
 28 29  1  0
 29 30  2  0
 30 31  1  0
 21 32  2  0
  9 33  1  0
  6  1  1  0
 32 10  1  0
 33  4  1  0
 19 14  1  0
 31 22  1  0
 30 25  1  0
  1 34  1  0
  2 35  1  0
  3 36  1  0
  6 37  1  0
  7 38  1  0
  7 39  1  0
  8 40  1  0
  8 41  1  0
 11 42  1  0
 13 43  1  0
 14 44  1  6
 15 45  1  0
 15 46  1  0
 16 47  1  0
 16 48  1  0
 17 49  1  0
 17 50  1  0
 18 51  1  0
 19 52  1  0
 19 53  1  0
 23 54  1  0
 23 55  1  0
 24 56  1  0
 24 57  1  0
 26 58  1  0
 27 59  1  0
 28 60  1  0
 29 61  1  0
 31 62  1  0
 31 63  1  0
 33 64  1  0
 33 65  1  0
M  END
>  <smiles>  (42) 
c1ccc2c(c1)CCN(c1cc(NC3CCCNC3)nc(N3CCc4ccccc4C3)n1)C2

>  <score_type>  (42) 
oracle

>  <origin>  (42) 
autodockgpu

>  <m_score__min__energy>  (42) 
-9.3200000000000003

>  <m_primary>  (42) 
energy

>  <rmsd>  (42) 
7.727362515438777

>  <m_score__min__rmsd>  (42) 
7.727362515438777

>  <meeko>  (42) 
{"free_energy": -8.99, "intermolecular_energy": -10.18, "internal_energy": -1.34, "cluster_size": 26, "cluster_id": 2, "rank_in_cluster": 19}

>  <energy>  (42) 
-8.47

>  <cluster_rmsd>  (42) 
0.23

>  <cluster>  (42) 
3

$$$$

     RDKit          3D

 65 70  0  0  0  0  0  0  0  0999 V2000
  140.0580   70.0610  228.3620 C   0  0  0  0  0  0  0  0  0  0  0  0
  140.7590   71.2420  228.1700 C   0  0  0  0  0  0  0  0  0  0  0  0
  141.0740   71.6840  226.8990 C   0  0  0  0  0  0  0  0  0  0  0  0
  140.6650   70.9090  225.8330 C   0  0  0  0  0  0  0  0  0  0  0  0
  139.9660   69.7280  225.9810 C   0  0  0  0  0  0  0  0  0  0  0  0
  139.6670   69.3120  227.2510 C   0  0  0  0  0  0  0  0  0  0  0  0
  139.5760   68.9730  224.7600 C   0  0  0  0  0  0  0  0  0  0  0  0
  138.8970   69.9430  223.8200 C   0  0  0  0  0  0  0  0  0  0  0  0
  139.6600   71.1560  223.7300 N   0  0  0  0  0  0  0  0  0  0  0  0
  139.1660   72.2550  222.9740 C   0  0  0  0  0  0  0  0  0  0  0  0
  137.8660   72.2430  222.5170 C   0  0  0  0  0  0  0  0  0  0  0  0
  137.3340   73.3030  221.7690 C   0  0  0  0  0  0  0  0  0  0  0  0
  136.0000   73.2480  221.3290 N   0  0  0  0  0  0  0  0  0  0  0  0
  134.8390   73.5500  222.1350 C   0  0  2  0  0  0  0  0  0  0  0  0
  134.6560   75.0450  222.2920 C   0  0  0  0  0  0  0  0  0  0  0  0
  134.2670   75.3110  223.7280 C   0  0  0  0  0  0  0  0  0  0  0  0
  135.4250   74.8630  224.5960 C   0  0  0  0  0  0  0  0  0  0  0  0
  135.6280   73.4400  224.4810 N   0  0  0  0  0  0  0  0  0  0  0  0
  134.8140   72.8370  223.4570 C   0  0  0  0  0  0  0  0  0  0  0  0
  138.1800   74.3190  221.5360 N   0  0  0  0  0  0  0  0  0  0  0  0
  139.4520   74.3690  221.9640 C   0  0  0  0  0  0  0  0  0  0  0  0
  140.2480   75.5060  221.6520 N   0  0  0  0  0  0  0  0  0  0  0  0
  139.8820   76.7840  222.2130 C   0  0  0  0  0  0  0  0  0  0  0  0
  141.0270   77.7710  222.1740 C   0  0  0  0  0  0  0  0  0  0  0  0
  141.5510   77.8820  220.7690 C   0  0  0  0  0  0  0  0  0  0  0  0
  141.8260   79.1110  220.2060 C   0  0  0  0  0  0  0  0  0  0  0  0
  142.3080   79.1050  218.9010 C   0  0  0  0  0  0  0  0  0  0  0  0
  142.4970   77.9270  218.2150 C   0  0  0  0  0  0  0  0  0  0  0  0
  142.2120   76.7140  218.8050 C   0  0  0  0  0  0  0  0  0  0  0  0
  141.7300   76.6860  220.1040 C   0  0  0  0  0  0  0  0  0  0  0  0
  141.4070   75.3920  220.7880 C   0  0  0  0  0  0  0  0  0  0  0  0
  139.9200   73.3290  222.6780 N   0  0  0  0  0  0  0  0  0  0  0  0
  140.9580   71.3080  224.4080 C   0  0  0  0  0  0  0  0  0  0  0  0
  139.8129   69.7184  229.3782 H   0  0  0  0  0  0  0  0  0  0  0  0
  141.0690   71.8359  229.0424 H   0  0  0  0  0  0  0  0  0  0  0  0
  141.6307   72.6198  226.7428 H   0  0  0  0  0  0  0  0  0  0  0  0
  139.1109   68.3743  227.3976 H   0  0  0  0  0  0  0  0  0  0  0  0
  140.4701   68.5489  224.2797 H   0  0  0  0  0  0  0  0  0  0  0  0
  138.8981   68.1459  225.0174 H   0  0  0  0  0  0  0  0  0  0  0  0
  138.8177   69.4877  222.8218 H   0  0  0  0  0  0  0  0  0  0  0  0
  137.8932   70.1758  224.2050 H   0  0  0  0  0  0  0  0  0  0  0  0
  137.2273   71.3770  222.7456 H   0  0  0  0  0  0  0  0  0  0  0  0
  135.8170   72.9610  220.3310 H   0  0  0  0  0  0  0  0  0  0  0  0
  133.9741   73.1555  221.5816 H   0  0  0  0  0  0  0  0  0  0  0  0
  135.5964   75.5646  222.0560 H   0  0  0  0  0  0  0  0  0  0  0  0
  133.8775   75.4123  221.6072 H   0  0  0  0  0  0  0  0  0  0  0  0
  134.0792   76.3849  223.8749 H   0  0  0  0  0  0  0  0  0  0  0  0
  133.3482   74.7664  223.9910 H   0  0  0  0  0  0  0  0  0  0  0  0
  136.3389   75.3850  224.2763 H   0  0  0  0  0  0  0  0  0  0  0  0
  135.1947   75.1036  225.6444 H   0  0  0  0  0  0  0  0  0  0  0  0
  136.6280   73.1630  224.4270 H   0  0  0  0  0  0  0  0  0  0  0  0
  135.1693   71.8081  223.2983 H   0  0  0  0  0  0  0  0  0  0  0  0
  133.7756   72.8853  223.8167 H   0  0  0  0  0  0  0  0  0  0  0  0
  139.0392   77.1955  221.6382 H   0  0  0  0  0  0  0  0  0  0  0  0
  139.6070   76.6255  223.2662 H   0  0  0  0  0  0  0  0  0  0  0  0
  140.6725   78.7562  222.5112 H   0  0  0  0  0  0  0  0  0  0  0  0
  141.8322   77.4221  222.8372 H   0  0  0  0  0  0  0  0  0  0  0  0
  141.6720   80.0483  220.7608 H   0  0  0  0  0  0  0  0  0  0  0  0
  142.5425   80.0600  218.4081 H   0  0  0  0  0  0  0  0  0  0  0  0
  142.8798   77.9536  217.1841 H   0  0  0  0  0  0  0  0  0  0  0  0
  142.3658   75.7770  218.2497 H   0  0  0  0  0  0  0  0  0  0  0  0
  141.2055   74.6273  220.0234 H   0  0  0  0  0  0  0  0  0  0  0  0
  142.2690   75.1147  221.4125 H   0  0  0  0  0  0  0  0  0  0  0  0
  141.7137   70.6445  223.9622 H   0  0  0  0  0  0  0  0  0  0  0  0
  141.3658   72.3262  224.3253 H   0  0  0  0  0  0  0  0  0  0  0  0
  1  2  2  0
  2  3  1  0
  3  4  2  0
  4  5  1  0
  5  6  2  0
  5  7  1  0
  7  8  1  0
  8  9  1  0
  9 10  1  0
 10 11  2  0
 11 12  1  0
 12 13  1  0
 13 14  1  0
 14 15  1  0
 15 16  1  0
 16 17  1  0
 17 18  1  0
 18 19  1  0
 12 20  2  0
 20 21  1  0
 21 22  1  0
 22 23  1  0
 23 24  1  0
 24 25  1  0
 25 26  2  0
 26 27  1  0
 27 28  2  0
 28 29  1  0
 29 30  2  0
 30 31  1  0
 21 32  2  0
  9 33  1  0
  6  1  1  0
 32 10  1  0
 33  4  1  0
 19 14  1  0
 31 22  1  0
 30 25  1  0
  1 34  1  0
  2 35  1  0
  3 36  1  0
  6 37  1  0
  7 38  1  0
  7 39  1  0
  8 40  1  0
  8 41  1  0
 11 42  1  0
 13 43  1  0
 14 44  1  6
 15 45  1  0
 15 46  1  0
 16 47  1  0
 16 48  1  0
 17 49  1  0
 17 50  1  0
 18 51  1  0
 19 52  1  0
 19 53  1  0
 23 54  1  0
 23 55  1  0
 24 56  1  0
 24 57  1  0
 26 58  1  0
 27 59  1  0
 28 60  1  0
 29 61  1  0
 31 62  1  0
 31 63  1  0
 33 64  1  0
 33 65  1  0
M  END
>  <smiles>  (43) 
c1ccc2c(c1)CCN(c1cc(NC3CCCNC3)nc(N3CCc4ccccc4C3)n1)C2

>  <score_type>  (43) 
oracle

>  <origin>  (43) 
autodockgpu

>  <m_score__min__energy>  (43) 
-9.3200000000000003

>  <m_primary>  (43) 
energy

>  <rmsd>  (43) 
7.703595499177749

>  <m_score__min__rmsd>  (43) 
7.703595499177749

>  <meeko>  (43) 
{"free_energy": -9.01, "intermolecular_energy": -10.2, "internal_energy": -1.31, "cluster_size": 26, "cluster_id": 2, "rank_in_cluster": 18}

>  <energy>  (43) 
-8.41

>  <cluster_rmsd>  (43) 
0.46

>  <cluster>  (43) 
3

$$$$

     RDKit          3D

 65 70  0  0  0  0  0  0  0  0999 V2000
  140.1420   69.7080  227.6150 C   0  0  0  0  0  0  0  0  0  0  0  0
  140.8120   70.9200  227.5560 C   0  0  0  0  0  0  0  0  0  0  0  0
  141.0350   71.5520  226.3480 C   0  0  0  0  0  0  0  0  0  0  0  0
  140.5680   70.9330  225.2070 C   0  0  0  0  0  0  0  0  0  0  0  0
  139.8970   69.7270  225.2210 C   0  0  0  0  0  0  0  0  0  0  0  0
  139.6890   69.1220  226.4320 C   0  0  0  0  0  0  0  0  0  0  0  0
  139.4380   69.1510  223.9300 C   0  0  0  0  0  0  0  0  0  0  0  0
  138.6840   70.2320  223.1890 C   0  0  0  0  0  0  0  0  0  0  0  0
  139.4230   71.4630  223.2320 N   0  0  0  0  0  0  0  0  0  0  0  0
  138.8640   72.6500  222.6810 C   0  0  0  0  0  0  0  0  0  0  0  0
  137.5440   72.6660  222.2850 C   0  0  0  0  0  0  0  0  0  0  0  0
  136.9490   73.8110  221.7380 C   0  0  0  0  0  0  0  0  0  0  0  0
  135.5970   73.7800  221.3540 N   0  0  0  0  0  0  0  0  0  0  0  0
  134.4690   73.8020  222.2580 C   0  0  2  0  0  0  0  0  0  0  0  0
  134.0700   75.2210  222.6020 C   0  0  0  0  0  0  0  0  0  0  0  0
  133.7570   75.2640  224.0800 C   0  0  0  0  0  0  0  0  0  0  0  0
  135.0330   74.9200  224.8180 C   0  0  0  0  0  0  0  0  0  0  0  0
  135.4460   73.5700  224.5230 N   0  0  0  0  0  0  0  0  0  0  0  0
  134.6570   72.9560  223.4840 C   0  0  0  0  0  0  0  0  0  0  0  0
  137.7560   74.8780  221.6300 N   0  0  0  0  0  0  0  0  0  0  0  0
  139.0450   74.9030  222.0040 C   0  0  0  0  0  0  0  0  0  0  0  0
  139.7960   76.1010  221.8380 N   0  0  0  0  0  0  0  0  0  0  0  0
  141.1220   76.0140  221.2750 C   0  0  0  0  0  0  0  0  0  0  0  0
  141.6050   77.3480  220.7520 C   0  0  0  0  0  0  0  0  0  0  0  0
  141.5000   78.3850  221.8360 C   0  0  0  0  0  0  0  0  0  0  0  0
  142.5310   79.2690  222.0790 C   0  0  0  0  0  0  0  0  0  0  0  0
  142.3340   80.1900  223.1030 C   0  0  0  0  0  0  0  0  0  0  0  0
  141.1670   80.2090  223.8320 C   0  0  0  0  0  0  0  0  0  0  0  0
  140.1550   79.3110  223.5660 C   0  0  0  0  0  0  0  0  0  0  0  0
  140.3200   78.3820  222.5510 C   0  0  0  0  0  0  0  0  0  0  0  0
  139.2480   77.3860  222.2240 C   0  0  0  0  0  0  0  0  0  0  0  0
  139.5750   73.7810  222.5240 N   0  0  0  0  0  0  0  0  0  0  0  0
  140.7600   71.5450  223.8410 C   0  0  0  0  0  0  0  0  0  0  0  0
  139.9694   69.2139  228.5825 H   0  0  0  0  0  0  0  0  0  0  0  0
  141.1717   71.3857  228.4854 H   0  0  0  0  0  0  0  0  0  0  0  0
  141.5658   72.5141  226.2977 H   0  0  0  0  0  0  0  0  0  0  0  0
  139.1571   68.1600  226.4729 H   0  0  0  0  0  0  0  0  0  0  0  0
  140.3042   68.8237  223.3363 H   0  0  0  0  0  0  0  0  0  0  0  0
  138.7906   68.2790  224.1046 H   0  0  0  0  0  0  0  0  0  0  0  0
  138.5451   69.9267  222.1414 H   0  0  0  0  0  0  0  0  0  0  0  0
  137.7044   70.3816  223.6666 H   0  0  0  0  0  0  0  0  0  0  0  0
  136.9402   71.7540  222.4016 H   0  0  0  0  0  0  0  0  0  0  0  0
  135.3730   73.7370  220.3240 H   0  0  0  0  0  0  0  0  0  0  0  0
  133.6345   73.3356  221.7138 H   0  0  0  0  0  0  0  0  0  0  0  0
  134.8977   75.9088  222.3740 H   0  0  0  0  0  0  0  0  0  0  0  0
  133.1933   75.5286  222.0131 H   0  0  0  0  0  0  0  0  0  0  0  0
  133.4171   76.2708  224.3641 H   0  0  0  0  0  0  0  0  0  0  0  0
  132.9569   74.5519  224.3306 H   0  0  0  0  0  0  0  0  0  0  0  0
  135.8271   75.6158  224.5094 H   0  0  0  0  0  0  0  0  0  0  0  0
  134.8493   75.0047  225.8992 H   0  0  0  0  0  0  0  0  0  0  0  0
  136.4690   73.4670  224.3770 H   0  0  0  0  0  0  0  0  0  0  0  0
  135.1536   72.0218  223.1831 H   0  0  0  0  0  0  0  0  0  0  0  0
  133.6548   72.7954  223.9080 H   0  0  0  0  0  0  0  0  0  0  0  0
  141.8162   75.6657  222.0539 H   0  0  0  0  0  0  0  0  0  0  0  0
  141.0863   75.3109  220.4298 H   0  0  0  0  0  0  0  0  0  0  0  0
  142.6537   77.2576  220.4327 H   0  0  0  0  0  0  0  0  0  0  0  0
  140.9834   77.6508  219.8965 H   0  0  0  0  0  0  0  0  0  0  0  0
  143.4616   79.2467  221.4929 H   0  0  0  0  0  0  0  0  0  0  0  0
  143.1264   80.9170  223.3344 H   0  0  0  0  0  0  0  0  0  0  0  0
  141.0401   80.9489  224.6360 H   0  0  0  0  0  0  0  0  0  0  0  0
  139.2255   79.3318  224.1539 H   0  0  0  0  0  0  0  0  0  0  0  0
  138.6103   77.2479  223.1096 H   0  0  0  0  0  0  0  0  0  0  0  0
  138.6709   77.7771  221.3731 H   0  0  0  0  0  0  0  0  0  0  0  0
  141.4941   70.9731  223.2545 H   0  0  0  0  0  0  0  0  0  0  0  0
  141.1464   72.5740  223.8850 H   0  0  0  0  0  0  0  0  0  0  0  0
  1  2  2  0
  2  3  1  0
  3  4  2  0
  4  5  1  0
  5  6  2  0
  5  7  1  0
  7  8  1  0
  8  9  1  0
  9 10  1  0
 10 11  2  0
 11 12  1  0
 12 13  1  0
 13 14  1  0
 14 15  1  0
 15 16  1  0
 16 17  1  0
 17 18  1  0
 18 19  1  0
 12 20  2  0
 20 21  1  0
 21 22  1  0
 22 23  1  0
 23 24  1  0
 24 25  1  0
 25 26  2  0
 26 27  1  0
 27 28  2  0
 28 29  1  0
 29 30  2  0
 30 31  1  0
 21 32  2  0
  9 33  1  0
  6  1  1  0
 32 10  1  0
 33  4  1  0
 19 14  1  0
 31 22  1  0
 30 25  1  0
  1 34  1  0
  2 35  1  0
  3 36  1  0
  6 37  1  0
  7 38  1  0
  7 39  1  0
  8 40  1  0
  8 41  1  0
 11 42  1  0
 13 43  1  0
 14 44  1  6
 15 45  1  0
 15 46  1  0
 16 47  1  0
 16 48  1  0
 17 49  1  0
 17 50  1  0
 18 51  1  0
 19 52  1  0
 19 53  1  0
 23 54  1  0
 23 55  1  0
 24 56  1  0
 24 57  1  0
 26 58  1  0
 27 59  1  0
 28 60  1  0
 29 61  1  0
 31 62  1  0
 31 63  1  0
 33 64  1  0
 33 65  1  0
M  END
>  <smiles>  (44) 
c1ccc2c(c1)CCN(c1cc(NC3CCCNC3)nc(N3CCc4ccccc4C3)n1)C2

>  <score_type>  (44) 
oracle

>  <origin>  (44) 
autodockgpu

>  <m_score__min__energy>  (44) 
-9.3200000000000003

>  <m_primary>  (44) 
energy

>  <rmsd>  (44) 
7.950670013996529

>  <m_score__min__rmsd>  (44) 
7.950670013996529

>  <meeko>  (44) 
{"free_energy": -9.21, "intermolecular_energy": -10.4, "internal_energy": -1.28, "cluster_size": 26, "cluster_id": 2, "rank_in_cluster": 2}

>  <energy>  (44) 
-8.35

>  <cluster_rmsd>  (44) 
0.0

>  <cluster>  (44) 
4

$$$$

     RDKit          3D

 65 70  0  0  0  0  0  0  0  0999 V2000
  141.1630   79.5270  223.6810 C   0  0  0  0  0  0  0  0  0  0  0  0
  139.7940   79.3730  223.8360 C   0  0  0  0  0  0  0  0  0  0  0  0
  139.0770   78.5200  223.0190 C   0  0  0  0  0  0  0  0  0  0  0  0
  139.7710   77.8310  222.0470 C   0  0  0  0  0  0  0  0  0  0  0  0
  141.1340   77.9550  221.8590 C   0  0  0  0  0  0  0  0  0  0  0  0
  141.8210   78.8070  222.6820 C   0  0  0  0  0  0  0  0  0  0  0  0
  141.7790   77.1630  220.7790 C   0  0  0  0  0  0  0  0  0  0  0  0
  141.3390   75.7250  220.9410 C   0  0  0  0  0  0  0  0  0  0  0  0
  139.9200   75.6680  221.1570 N   0  0  0  0  0  0  0  0  0  0  0  0
  139.2900   74.4210  221.4300 C   0  0  0  0  0  0  0  0  0  0  0  0
  138.2190   74.0130  220.6650 C   0  0  0  0  0  0  0  0  0  0  0  0
  137.5670   72.7940  220.8940 C   0  0  0  0  0  0  0  0  0  0  0  0
  136.4830   72.4170  220.0830 N   0  0  0  0  0  0  0  0  0  0  0  0
  135.2090   71.9290  220.5600 C   0  0  2  0  0  0  0  0  0  0  0  0
  134.5820   72.9000  221.5390 C   0  0  0  0  0  0  0  0  0  0  0  0
  133.9900   72.0930  222.6700 C   0  0  0  0  0  0  0  0  0  0  0  0
  135.1340   71.3760  223.3550 C   0  0  0  0  0  0  0  0  0  0  0  0
  135.7560   70.4330  222.4590 N   0  0  0  0  0  0  0  0  0  0  0  0
  135.2610   70.5320  221.1090 C   0  0  0  0  0  0  0  0  0  0  0  0
  138.0610   72.0640  221.9060 N   0  0  0  0  0  0  0  0  0  0  0  0
  139.1020   72.4250  222.6740 C   0  0  0  0  0  0  0  0  0  0  0  0
  139.5320   71.5600  223.7190 N   0  0  0  0  0  0  0  0  0  0  0  0
  138.7770   70.3570  223.9760 C   0  0  0  0  0  0  0  0  0  0  0  0
  139.5740   69.3450  224.7690 C   0  0  0  0  0  0  0  0  0  0  0  0
  140.0940   69.9850  226.0260 C   0  0  0  0  0  0  0  0  0  0  0  0
  140.0100   69.3400  227.2430 C   0  0  0  0  0  0  0  0  0  0  0  0
  140.5210   70.0170  228.3450 C   0  0  0  0  0  0  0  0  0  0  0  0
  141.0810   71.2680  228.2180 C   0  0  0  0  0  0  0  0  0  0  0  0
  141.1510   71.8880  226.9890 C   0  0  0  0  0  0  0  0  0  0  0  0
  140.6500   71.2390  225.8710 C   0  0  0  0  0  0  0  0  0  0  0  0
  140.7030   71.8720  224.5130 C   0  0  0  0  0  0  0  0  0  0  0  0
  139.6970   73.6050  222.4180 N   0  0  0  0  0  0  0  0  0  0  0  0
  139.0780   76.8740  221.1080 C   0  0  0  0  0  0  0  0  0  0  0  0
  141.7242   80.2084  224.3373 H   0  0  0  0  0  0  0  0  0  0  0  0
  139.2707   79.9384  224.6212 H   0  0  0  0  0  0  0  0  0  0  0  0
  137.9908   78.3950  223.1398 H   0  0  0  0  0  0  0  0  0  0  0  0
  142.9071   78.9259  222.5542 H   0  0  0  0  0  0  0  0  0  0  0  0
  141.4641   77.5431  219.7960 H   0  0  0  0  0  0  0  0  0  0  0  0
  142.8743   77.2414  220.8440 H   0  0  0  0  0  0  0  0  0  0  0  0
  141.5921   75.1616  220.0307 H   0  0  0  0  0  0  0  0  0  0  0  0
  141.8546   75.2845  221.8071 H   0  0  0  0  0  0  0  0  0  0  0  0
  137.8656   74.6630  219.8510 H   0  0  0  0  0  0  0  0  0  0  0  0
  136.5950   72.4910  219.0370 H   0  0  0  0  0  0  0  0  0  0  0  0
  134.5577   71.8661  219.6758 H   0  0  0  0  0  0  0  0  0  0  0  0
  135.3483   73.5860  221.9292 H   0  0  0  0  0  0  0  0  0  0  0  0
  133.8031   73.4981  221.0434 H   0  0  0  0  0  0  0  0  0  0  0  0
  133.4821   72.7593  223.3828 H   0  0  0  0  0  0  0  0  0  0  0  0
  133.2496   71.3735  222.2905 H   0  0  0  0  0  0  0  0  0  0  0  0
  135.8822   72.1154  223.6768 H   0  0  0  0  0  0  0  0  0  0  0  0
  134.7383   70.8293  224.2236 H   0  0  0  0  0  0  0  0  0  0  0  0
  136.7930   70.4220  222.5160 H   0  0  0  0  0  0  0  0  0  0  0  0
  135.9158   69.9328  220.4593 H   0  0  0  0  0  0  0  0  0  0  0  0
  134.2231   70.1684  221.1314 H   0  0  0  0  0  0  0  0  0  0  0  0
  137.8725   70.6202  224.5439 H   0  0  0  0  0  0  0  0  0  0  0  0
  138.5212   69.9034  223.0070 H   0  0  0  0  0  0  0  0  0  0  0  0
  138.9276   68.4946  225.0317 H   0  0  0  0  0  0  0  0  0  0  0  0
  140.4206   68.9907  224.1625 H   0  0  0  0  0  0  0  0  0  0  0  0
  139.5612   68.3401  227.3368 H   0  0  0  0  0  0  0  0  0  0  0  0
  140.4768   69.5438  229.3370 H   0  0  0  0  0  0  0  0  0  0  0  0
  141.4773   71.7789  229.1079 H   0  0  0  0  0  0  0  0  0  0  0  0
  141.6000   72.8879  226.8961 H   0  0  0  0  0  0  0  0  0  0  0  0
  140.7694   72.9634  224.6330 H   0  0  0  0  0  0  0  0  0  0  0  0
  141.5836   71.4733  223.9881 H   0  0  0  0  0  0  0  0  0  0  0  0
  139.0388   77.2841  220.0881 H   0  0  0  0  0  0  0  0  0  0  0  0
  138.0339   76.6774  221.3930 H   0  0  0  0  0  0  0  0  0  0  0  0
  1  2  2  0
  2  3  1  0
  3  4  2  0
  4  5  1  0
  5  6  2  0
  5  7  1  0
  7  8  1  0
  8  9  1  0
  9 10  1  0
 10 11  2  0
 11 12  1  0
 12 13  1  0
 13 14  1  0
 14 15  1  0
 15 16  1  0
 16 17  1  0
 17 18  1  0
 18 19  1  0
 12 20  2  0
 20 21  1  0
 21 22  1  0
 22 23  1  0
 23 24  1  0
 24 25  1  0
 25 26  2  0
 26 27  1  0
 27 28  2  0
 28 29  1  0
 29 30  2  0
 30 31  1  0
 21 32  2  0
  9 33  1  0
  6  1  1  0
 32 10  1  0
 33  4  1  0
 19 14  1  0
 31 22  1  0
 30 25  1  0
  1 34  1  0
  2 35  1  0
  3 36  1  0
  6 37  1  0
  7 38  1  0
  7 39  1  0
  8 40  1  0
  8 41  1  0
 11 42  1  0
 13 43  1  0
 14 44  1  6
 15 45  1  0
 15 46  1  0
 16 47  1  0
 16 48  1  0
 17 49  1  0
 17 50  1  0
 18 51  1  0
 19 52  1  0
 19 53  1  0
 23 54  1  0
 23 55  1  0
 24 56  1  0
 24 57  1  0
 26 58  1  0
 27 59  1  0
 28 60  1  0
 29 61  1  0
 31 62  1  0
 31 63  1  0
 33 64  1  0
 33 65  1  0
M  END
>  <smiles>  (45) 
c1ccc2c(c1)CCN(c1cc(NC3CCCNC3)nc(N3CCc4ccccc4C3)n1)C2

>  <score_type>  (45) 
oracle

>  <origin>  (45) 
autodockgpu

>  <m_score__min__energy>  (45) 
-9.3200000000000003

>  <m_primary>  (45) 
energy

>  <rmsd>  (45) 
8.46166123686094

>  <m_score__min__rmsd>  (45) 
8.46166123686094

>  <meeko>  (45) 
{"free_energy": -8.13, "intermolecular_energy": -9.33, "internal_energy": -2.03, "cluster_size": 26, "cluster_id": 2, "rank_in_cluster": 26}

>  <energy>  (45) 
-8.33

>  <cluster_rmsd>  (45) 
0.3

>  <cluster>  (45) 
4

$$$$

     RDKit          3D

 65 70  0  0  0  0  0  0  0  0999 V2000
  140.0640   70.5030  228.3340 C   0  0  0  0  0  0  0  0  0  0  0  0
  140.7800   71.6440  228.0070 C   0  0  0  0  0  0  0  0  0  0  0  0
  141.0600   71.9560  226.6910 C   0  0  0  0  0  0  0  0  0  0  0  0
  140.6010   71.0920  225.7170 C   0  0  0  0  0  0  0  0  0  0  0  0
  139.8850   69.9460  226.0000 C   0  0  0  0  0  0  0  0  0  0  0  0
  139.6210   69.6600  227.3130 C   0  0  0  0  0  0  0  0  0  0  0  0
  139.4400   69.0870  224.8700 C   0  0  0  0  0  0  0  0  0  0  0  0
  138.7480   69.9780  223.8640 C   0  0  0  0  0  0  0  0  0  0  0  0
  139.5310   71.1600  223.6340 N   0  0  0  0  0  0  0  0  0  0  0  0
  139.0330   72.1930  222.7910 C   0  0  0  0  0  0  0  0  0  0  0  0
  137.8820   71.9870  222.0630 C   0  0  0  0  0  0  0  0  0  0  0  0
  137.3510   72.9740  221.2210 C   0  0  0  0  0  0  0  0  0  0  0  0
  136.1710   72.7200  220.5020 N   0  0  0  0  0  0  0  0  0  0  0  0
  136.0540   72.7020  219.0610 C   0  0  2  0  0  0  0  0  0  0  0  0
  136.8940   71.5950  218.4580 C   0  0  0  0  0  0  0  0  0  0  0  0
  137.5670   72.1500  217.2240 C   0  0  0  0  0  0  0  0  0  0  0  0
  138.4810   73.2690  217.6780 C   0  0  0  0  0  0  0  0  0  0  0  0
  137.7190   74.3490  218.2540 N   0  0  0  0  0  0  0  0  0  0  0  0
  136.3230   74.0300  218.4130 C   0  0  0  0  0  0  0  0  0  0  0  0
  138.0450   74.1230  221.1800 N   0  0  0  0  0  0  0  0  0  0  0  0
  139.1690   74.3630  221.8740 C   0  0  0  0  0  0  0  0  0  0  0  0
  139.8120   75.6260  221.7450 N   0  0  0  0  0  0  0  0  0  0  0  0
  141.1800   75.6620  221.2870 C   0  0  0  0  0  0  0  0  0  0  0  0
  141.5730   77.0310  220.7780 C   0  0  0  0  0  0  0  0  0  0  0  0
  141.2840   78.0640  221.8310 C   0  0  0  0  0  0  0  0  0  0  0  0
  142.2030   79.0470  222.1370 C   0  0  0  0  0  0  0  0  0  0  0  0
  141.8400   79.9550  223.1260 C   0  0  0  0  0  0  0  0  0  0  0  0
  140.6230   79.8690  223.7620 C   0  0  0  0  0  0  0  0  0  0  0  0
  139.7250   78.8740  223.4360 C   0  0  0  0  0  0  0  0  0  0  0  0
  140.0580   77.9540  222.4540 C   0  0  0  0  0  0  0  0  0  0  0  0
  139.1150   76.8560  222.0640 C   0  0  0  0  0  0  0  0  0  0  0  0
  139.6420   73.3860  222.6690 N   0  0  0  0  0  0  0  0  0  0  0  0
  140.8540   71.3470  224.2520 C   0  0  0  0  0  0  0  0  0  0  0  0
  139.8473   70.2645  229.3857 H   0  0  0  0  0  0  0  0  0  0  0  0
  141.1306   72.3113  228.8081 H   0  0  0  0  0  0  0  0  0  0  0  0
  141.6283   72.8605  226.4284 H   0  0  0  0  0  0  0  0  0  0  0  0
  139.0520   68.7535  227.5668 H   0  0  0  0  0  0  0  0  0  0  0  0
  140.3093   68.5998  224.4042 H   0  0  0  0  0  0  0  0  0  0  0  0
  138.7560   68.3029  225.2267 H   0  0  0  0  0  0  0  0  0  0  0  0
  138.6260   69.4319  222.9170 H   0  0  0  0  0  0  0  0  0  0  0  0
  137.7625   70.2686  224.2568 H   0  0  0  0  0  0  0  0  0  0  0  0
  137.3644   71.0198  222.1447 H   0  0  0  0  0  0  0  0  0  0  0  0
  135.2890   72.5260  221.0460 H   0  0  0  0  0  0  0  0  0  0  0  0
  134.9973   72.4868  218.8442 H   0  0  0  0  0  0  0  0  0  0  0  0
  137.6531   71.2638  219.1820 H   0  0  0  0  0  0  0  0  0  0  0  0
  136.2644   70.7312  218.1982 H   0  0  0  0  0  0  0  0  0  0  0  0
  138.1531   71.3624  216.7278 H   0  0  0  0  0  0  0  0  0  0  0  0
  136.8212   72.5217  216.5060 H   0  0  0  0  0  0  0  0  0  0  0  0
  139.1815   72.8796  218.4315 H   0  0  0  0  0  0  0  0  0  0  0  0
  139.0315   73.6512  216.8057 H   0  0  0  0  0  0  0  0  0  0  0  0
  138.1480   74.7560  219.1080 H   0  0  0  0  0  0  0  0  0  0  0  0
  135.8605   74.8133  219.0315 H   0  0  0  0  0  0  0  0  0  0  0  0
  135.8992   73.9734  217.3995 H   0  0  0  0  0  0  0  0  0  0  0  0
  141.8414   75.3910  222.1232 H   0  0  0  0  0  0  0  0  0  0  0  0
  141.2776   74.9498  220.4544 H   0  0  0  0  0  0  0  0  0  0  0  0
  142.6475   77.0392  220.5426 H   0  0  0  0  0  0  0  0  0  0  0  0
  140.9950   77.2628  219.8713 H   0  0  0  0  0  0  0  0  0  0  0  0
  143.1742   79.1093  221.6243 H   0  0  0  0  0  0  0  0  0  0  0  0
  142.5391   80.7571  223.4050 H   0  0  0  0  0  0  0  0  0  0  0  0
  140.3631   80.6023  224.5396 H   0  0  0  0  0  0  0  0  0  0  0  0
  138.7545   78.8112  223.9501 H   0  0  0  0  0  0  0  0  0  0  0  0
  138.4260   76.6665  222.9003 H   0  0  0  0  0  0  0  0  0  0  0  0
  138.5714   77.1802  221.1644 H   0  0  0  0  0  0  0  0  0  0  0  0
  141.5813   70.6274  223.8481 H   0  0  0  0  0  0  0  0  0  0  0  0
  141.2788   72.3431  224.0589 H   0  0  0  0  0  0  0  0  0  0  0  0
  1  2  2  0
  2  3  1  0
  3  4  2  0
  4  5  1  0
  5  6  2  0
  5  7  1  0
  7  8  1  0
  8  9  1  0
  9 10  1  0
 10 11  2  0
 11 12  1  0
 12 13  1  0
 13 14  1  0
 14 15  1  0
 15 16  1  0
 16 17  1  0
 17 18  1  0
 18 19  1  0
 12 20  2  0
 20 21  1  0
 21 22  1  0
 22 23  1  0
 23 24  1  0
 24 25  1  0
 25 26  2  0
 26 27  1  0
 27 28  2  0
 28 29  1  0
 29 30  2  0
 30 31  1  0
 21 32  2  0
  9 33  1  0
  6  1  1  0
 32 10  1  0
 33  4  1  0
 19 14  1  0
 31 22  1  0
 30 25  1  0
  1 34  1  0
  2 35  1  0
  3 36  1  0
  6 37  1  0
  7 38  1  0
  7 39  1  0
  8 40  1  0
  8 41  1  0
 11 42  1  0
 13 43  1  0
 14 44  1  1
 15 45  1  0
 15 46  1  0
 16 47  1  0
 16 48  1  0
 17 49  1  0
 17 50  1  0
 18 51  1  0
 19 52  1  0
 19 53  1  0
 23 54  1  0
 23 55  1  0
 24 56  1  0
 24 57  1  0
 26 58  1  0
 27 59  1  0
 28 60  1  0
 29 61  1  0
 31 62  1  0
 31 63  1  0
 33 64  1  0
 33 65  1  0
M  END
>  <smiles>  (46) 
c1ccc2c(c1)CCN(c1cc(NC3CCCNC3)nc(N3CCc4ccccc4C3)n1)C2

>  <score_type>  (46) 
oracle

>  <origin>  (46) 
autodockgpu

>  <m_score__min__energy>  (46) 
-9.3200000000000003

>  <m_primary>  (46) 
energy

>  <rmsd>  (46) 
7.774175588881659

>  <m_score__min__rmsd>  (46) 
7.774175588881659

>  <meeko>  (46) 
{"free_energy": -8.26, "intermolecular_energy": -9.45, "internal_energy": -1.94, "cluster_size": 3, "cluster_id": 5, "rank_in_cluster": 3}

>  <energy>  (46) 
-8.27

>  <cluster_rmsd>  (46) 
0.0

>  <cluster>  (46) 
5

$$$$

     RDKit          3D

 65 70  0  0  0  0  0  0  0  0999 V2000
  140.0850   70.4740  228.3290 C   0  0  0  0  0  0  0  0  0  0  0  0
  140.8050   71.6100  227.9960 C   0  0  0  0  0  0  0  0  0  0  0  0
  141.0770   71.9200  226.6770 C   0  0  0  0  0  0  0  0  0  0  0  0
  140.6060   71.0590  225.7080 C   0  0  0  0  0  0  0  0  0  0  0  0
  139.8850   69.9170  225.9960 C   0  0  0  0  0  0  0  0  0  0  0  0
  139.6290   69.6330  227.3120 C   0  0  0  0  0  0  0  0  0  0  0  0
  139.4260   69.0600  224.8710 C   0  0  0  0  0  0  0  0  0  0  0  0
  138.7320   69.9550  223.8690 C   0  0  0  0  0  0  0  0  0  0  0  0
  139.5200   71.1320  223.6320 N   0  0  0  0  0  0  0  0  0  0  0  0
  139.0220   72.1670  222.7930 C   0  0  0  0  0  0  0  0  0  0  0  0
  137.8710   71.9630  222.0640 C   0  0  0  0  0  0  0  0  0  0  0  0
  137.3400   72.9530  221.2250 C   0  0  0  0  0  0  0  0  0  0  0  0
  136.1600   72.7010  220.5060 N   0  0  0  0  0  0  0  0  0  0  0  0
  135.9240   73.0670  219.1270 C   0  0  2  0  0  0  0  0  0  0  0  0
  137.0050   72.5150  218.2220 C   0  0  0  0  0  0  0  0  0  0  0  0
  137.3580   73.5910  217.2220 C   0  0  0  0  0  0  0  0  0  0  0  0
  137.9200   74.7610  218.0020 C   0  0  0  0  0  0  0  0  0  0  0  0
  136.9180   75.3220  218.8740 N   0  0  0  0  0  0  0  0  0  0  0  0
  135.7090   74.5380  218.9170 C   0  0  0  0  0  0  0  0  0  0  0  0
  138.0340   74.1020  221.1880 N   0  0  0  0  0  0  0  0  0  0  0  0
  139.1580   74.3400  221.8820 C   0  0  0  0  0  0  0  0  0  0  0  0
  139.8020   75.6030  221.7560 N   0  0  0  0  0  0  0  0  0  0  0  0
  141.1690   75.6400  221.2970 C   0  0  0  0  0  0  0  0  0  0  0  0
  141.5620   77.0110  220.7920 C   0  0  0  0  0  0  0  0  0  0  0  0
  141.2740   78.0410  221.8500 C   0  0  0  0  0  0  0  0  0  0  0  0
  142.1940   79.0220  222.1580 C   0  0  0  0  0  0  0  0  0  0  0  0
  141.8310   79.9270  223.1500 C   0  0  0  0  0  0  0  0  0  0  0  0
  140.6150   79.8390  223.7870 C   0  0  0  0  0  0  0  0  0  0  0  0
  139.7170   78.8460  223.4580 C   0  0  0  0  0  0  0  0  0  0  0  0
  140.0480   77.9290  222.4730 C   0  0  0  0  0  0  0  0  0  0  0  0
  139.1050   76.8320  222.0800 C   0  0  0  0  0  0  0  0  0  0  0  0
  139.6320   73.3600  222.6750 N   0  0  0  0  0  0  0  0  0  0  0  0
  140.8490   71.3110  224.2400 C   0  0  0  0  0  0  0  0  0  0  0  0
  139.8751   70.2374  229.3825 H   0  0  0  0  0  0  0  0  0  0  0  0
  141.1658   72.2756  228.7940 H   0  0  0  0  0  0  0  0  0  0  0  0
  141.6486   72.8210  226.4096 H   0  0  0  0  0  0  0  0  0  0  0  0
  139.0564   68.7301  227.5706 H   0  0  0  0  0  0  0  0  0  0  0  0
  140.2884   68.5665  224.3991 H   0  0  0  0  0  0  0  0  0  0  0  0
  138.7396   68.2807  225.2337 H   0  0  0  0  0  0  0  0  0  0  0  0
  138.5997   69.4089  222.9233 H   0  0  0  0  0  0  0  0  0  0  0  0
  137.7514   70.2520  224.2692 H   0  0  0  0  0  0  0  0  0  0  0  0
  137.3536   70.9955  222.1424 H   0  0  0  0  0  0  0  0  0  0  0  0
  135.3710   72.2060  221.0010 H   0  0  0  0  0  0  0  0  0  0  0  0
  134.9701   72.5965  218.8463 H   0  0  0  0  0  0  0  0  0  0  0  0
  137.8920   72.2496  218.8160 H   0  0  0  0  0  0  0  0  0  0  0  0
  136.6518   71.6097  217.7065 H   0  0  0  0  0  0  0  0  0  0  0  0
  138.1103   73.2145  216.5132 H   0  0  0  0  0  0  0  0  0  0  0  0
  136.4711   73.8954  216.6468 H   0  0  0  0  0  0  0  0  0  0  0  0
  138.7720   74.4160  218.6062 H   0  0  0  0  0  0  0  0  0  0  0  0
  138.2440   75.5360  217.2918 H   0  0  0  0  0  0  0  0  0  0  0  0
  137.2770   75.5770  219.8150 H   0  0  0  0  0  0  0  0  0  0  0  0
  135.0853   74.9145  219.7412 H   0  0  0  0  0  0  0  0  0  0  0  0
  135.2330   74.6455  217.9312 H   0  0  0  0  0  0  0  0  0  0  0  0
  141.8311   75.3660  222.1316 H   0  0  0  0  0  0  0  0  0  0  0  0
  141.2657   74.9305  220.4620 H   0  0  0  0  0  0  0  0  0  0  0  0
  142.6362   77.0198  220.5555 H   0  0  0  0  0  0  0  0  0  0  0  0
  140.9833   77.2462  219.8866 H   0  0  0  0  0  0  0  0  0  0  0  0
  143.1651   79.0852  221.6452 H   0  0  0  0  0  0  0  0  0  0  0  0
  142.5300   80.7287  223.4305 H   0  0  0  0  0  0  0  0  0  0  0  0
  140.3561   80.5693  224.5678 H   0  0  0  0  0  0  0  0  0  0  0  0
  138.7468   78.7822  223.9725 H   0  0  0  0  0  0  0  0  0  0  0  0
  138.4168   76.6395  222.9163 H   0  0  0  0  0  0  0  0  0  0  0  0
  138.5606   77.1592  221.1819 H   0  0  0  0  0  0  0  0  0  0  0  0
  141.5685   70.5863  223.8312 H   0  0  0  0  0  0  0  0  0  0  0  0
  141.2784   72.3043  224.0427 H   0  0  0  0  0  0  0  0  0  0  0  0
  1  2  2  0
  2  3  1  0
  3  4  2  0
  4  5  1  0
  5  6  2  0
  5  7  1  0
  7  8  1  0
  8  9  1  0
  9 10  1  0
 10 11  2  0
 11 12  1  0
 12 13  1  0
 13 14  1  0
 14 15  1  0
 15 16  1  0
 16 17  1  0
 17 18  1  0
 18 19  1  0
 12 20  2  0
 20 21  1  0
 21 22  1  0
 22 23  1  0
 23 24  1  0
 24 25  1  0
 25 26  2  0
 26 27  1  0
 27 28  2  0
 28 29  1  0
 29 30  2  0
 30 31  1  0
 21 32  2  0
  9 33  1  0
  6  1  1  0
 32 10  1  0
 33  4  1  0
 19 14  1  0
 31 22  1  0
 30 25  1  0
  1 34  1  0
  2 35  1  0
  3 36  1  0
  6 37  1  0
  7 38  1  0
  7 39  1  0
  8 40  1  0
  8 41  1  0
 11 42  1  0
 13 43  1  0
 14 44  1  6
 15 45  1  0
 15 46  1  0
 16 47  1  0
 16 48  1  0
 17 49  1  0
 17 50  1  0
 18 51  1  0
 19 52  1  0
 19 53  1  0
 23 54  1  0
 23 55  1  0
 24 56  1  0
 24 57  1  0
 26 58  1  0
 27 59  1  0
 28 60  1  0
 29 61  1  0
 31 62  1  0
 31 63  1  0
 33 64  1  0
 33 65  1  0
M  END
>  <smiles>  (47) 
c1ccc2c(c1)CCN(c1cc(NC3CCCNC3)nc(N3CCc4ccccc4C3)n1)C2

>  <score_type>  (47) 
oracle

>  <origin>  (47) 
autodockgpu

>  <m_score__min__energy>  (47) 
-9.3200000000000003

>  <m_primary>  (47) 
energy

>  <rmsd>  (47) 
7.277383003448199

>  <m_score__min__rmsd>  (47) 
7.277383003448199

>  <meeko>  (47) 
{"free_energy": -8.27, "intermolecular_energy": -9.46, "internal_energy": -2.0, "cluster_size": 3, "cluster_id": 5, "rank_in_cluster": 1}

>  <energy>  (47) 
-8.26

>  <cluster_rmsd>  (47) 
0.28

>  <cluster>  (47) 
5

$$$$

     RDKit          3D

 65 70  0  0  0  0  0  0  0  0999 V2000
  138.8370   67.3860  223.5340 C   0  0  0  0  0  0  0  0  0  0  0  0
  138.2850   67.7870  222.3280 C   0  0  0  0  0  0  0  0  0  0  0  0
  138.1340   69.1270  222.0240 C   0  0  0  0  0  0  0  0  0  0  0  0
  138.5530   70.0460  222.9640 C   0  0  0  0  0  0  0  0  0  0  0  0
  139.1080   69.6890  224.1770 C   0  0  0  0  0  0  0  0  0  0  0  0
  139.2450   68.3550  224.4530 C   0  0  0  0  0  0  0  0  0  0  0  0
  139.5230   70.7650  225.1150 C   0  0  0  0  0  0  0  0  0  0  0  0
  140.3830   71.7390  224.3410 C   0  0  0  0  0  0  0  0  0  0  0  0
  139.7630   72.0500  223.0830 N   0  0  0  0  0  0  0  0  0  0  0  0
  140.4370   72.8760  222.1410 C   0  0  0  0  0  0  0  0  0  0  0  0
  141.0990   72.3030  221.0770 C   0  0  0  0  0  0  0  0  0  0  0  0
  141.7750   73.0750  220.1230 C   0  0  0  0  0  0  0  0  0  0  0  0
  142.4310   72.4450  219.0510 N   0  0  0  0  0  0  0  0  0  0  0  0
  143.8550   72.4830  218.8010 C   0  0  2  0  0  0  0  0  0  0  0  0
  144.6010   71.5580  219.7400 C   0  0  0  0  0  0  0  0  0  0  0  0
  145.8480   72.2770  220.1970 C   0  0  0  0  0  0  0  0  0  0  0  0
  145.4020   73.5020  220.9670 C   0  0  0  0  0  0  0  0  0  0  0  0
  144.6920   74.4160  220.1060 N   0  0  0  0  0  0  0  0  0  0  0  0
  144.4340   73.8690  218.7980 C   0  0  0  0  0  0  0  0  0  0  0  0
  141.7280   74.4010  220.3240 N   0  0  0  0  0  0  0  0  0  0  0  0
  141.0940   74.9990  221.3460 C   0  0  0  0  0  0  0  0  0  0  0  0
  141.1170   76.4180  221.4470 N   0  0  0  0  0  0  0  0  0  0  0  0
  141.5360   77.1870  220.3010 C   0  0  0  0  0  0  0  0  0  0  0  0
  141.0920   78.6300  220.3910 C   0  0  0  0  0  0  0  0  0  0  0  0
  141.5600   79.2220  221.6920 C   0  0  0  0  0  0  0  0  0  0  0  0
  142.1410   80.4720  221.7380 C   0  0  0  0  0  0  0  0  0  0  0  0
  142.5380   80.9300  222.9910 C   0  0  0  0  0  0  0  0  0  0  0  0
  142.3570   80.1660  224.1200 C   0  0  0  0  0  0  0  0  0  0  0  0
  141.7740   78.9190  224.0420 C   0  0  0  0  0  0  0  0  0  0  0  0
  141.3670   78.4350  222.8090 C   0  0  0  0  0  0  0  0  0  0  0  0
  140.7270   77.0860  222.6730 C   0  0  0  0  0  0  0  0  0  0  0  0
  140.4580   74.2180  222.2390 N   0  0  0  0  0  0  0  0  0  0  0  0
  138.4330   71.5310  222.7250 C   0  0  0  0  0  0  0  0  0  0  0  0
  138.9525   66.3167  223.7648 H   0  0  0  0  0  0  0  0  0  0  0  0
  137.9619   67.0272  221.6012 H   0  0  0  0  0  0  0  0  0  0  0  0
  137.6959   69.4489  221.0677 H   0  0  0  0  0  0  0  0  0  0  0  0
  139.6827   68.0421  225.4124 H   0  0  0  0  0  0  0  0  0  0  0  0
  138.6356   71.2805  225.5109 H   0  0  0  0  0  0  0  0  0  0  0  0
  140.0832   70.3439  225.9629 H   0  0  0  0  0  0  0  0  0  0  0  0
  140.5036   72.6628  224.9258 H   0  0  0  0  0  0  0  0  0  0  0  0
  141.3669   71.2835  224.1557 H   0  0  0  0  0  0  0  0  0  0  0  0
  141.0967   71.2079  220.9736 H   0  0  0  0  0  0  0  0  0  0  0  0
  141.8490   71.8960  218.3640 H   0  0  0  0  0  0  0  0  0  0  0  0
  143.9933   72.1122  217.7746 H   0  0  0  0  0  0  0  0  0  0  0  0
  143.9693   71.3152  220.6072 H   0  0  0  0  0  0  0  0  0  0  0  0
  144.8623   70.6193  219.2296 H   0  0  0  0  0  0  0  0  0  0  0  0
  146.4450   71.6202  220.8468 H   0  0  0  0  0  0  0  0  0  0  0  0
  146.4716   72.5622  219.3369 H   0  0  0  0  0  0  0  0  0  0  0  0
  144.7392   73.1908  221.7879 H   0  0  0  0  0  0  0  0  0  0  0  0
  146.2914   74.0115  221.3662 H   0  0  0  0  0  0  0  0  0  0  0  0
  143.8530   74.8410  220.5470 H   0  0  0  0  0  0  0  0  0  0  0  0
  143.7269   74.5347  218.2814 H   0  0  0  0  0  0  0  0  0  0  0  0
  145.4086   73.7978  218.2930 H   0  0  0  0  0  0  0  0  0  0  0  0
  142.6337   77.1570  220.2358 H   0  0  0  0  0  0  0  0  0  0  0  0
  141.0709   76.7445  219.4077 H   0  0  0  0  0  0  0  0  0  0  0  0
  141.5234   79.1986  219.5540 H   0  0  0  0  0  0  0  0  0  0  0  0
  139.9941   78.6780  220.3419 H   0  0  0  0  0  0  0  0  0  0  0  0
  142.2835   81.0766  220.8302 H   0  0  0  0  0  0  0  0  0  0  0  0
  143.0053   81.9218  223.0798 H   0  0  0  0  0  0  0  0  0  0  0  0
  142.6811   80.5543  225.0968 H   0  0  0  0  0  0  0  0  0  0  0  0
  141.6333   78.3141  224.9499 H   0  0  0  0  0  0  0  0  0  0  0  0
  141.0284   76.4627  223.5278 H   0  0  0  0  0  0  0  0  0  0  0  0
  139.6367   77.2295  222.6482 H   0  0  0  0  0  0  0  0  0  0  0  0
  137.6548   71.9700  223.3666 H   0  0  0  0  0  0  0  0  0  0  0  0
  138.1439   71.7748  221.6921 H   0  0  0  0  0  0  0  0  0  0  0  0
  1  2  2  0
  2  3  1  0
  3  4  2  0
  4  5  1  0
  5  6  2  0
  5  7  1  0
  7  8  1  0
  8  9  1  0
  9 10  1  0
 10 11  2  0
 11 12  1  0
 12 13  1  0
 13 14  1  0
 14 15  1  0
 15 16  1  0
 16 17  1  0
 17 18  1  0
 18 19  1  0
 12 20  2  0
 20 21  1  0
 21 22  1  0
 22 23  1  0
 23 24  1  0
 24 25  1  0
 25 26  2  0
 26 27  1  0
 27 28  2  0
 28 29  1  0
 29 30  2  0
 30 31  1  0
 21 32  2  0
  9 33  1  0
  6  1  1  0
 32 10  1  0
 33  4  1  0
 19 14  1  0
 31 22  1  0
 30 25  1  0
  1 34  1  0
  2 35  1  0
  3 36  1  0
  6 37  1  0
  7 38  1  0
  7 39  1  0
  8 40  1  0
  8 41  1  0
 11 42  1  0
 13 43  1  0
 14 44  1  6
 15 45  1  0
 15 46  1  0
 16 47  1  0
 16 48  1  0
 17 49  1  0
 17 50  1  0
 18 51  1  0
 19 52  1  0
 19 53  1  0
 23 54  1  0
 23 55  1  0
 24 56  1  0
 24 57  1  0
 26 58  1  0
 27 59  1  0
 28 60  1  0
 29 61  1  0
 31 62  1  0
 31 63  1  0
 33 64  1  0
 33 65  1  0
M  END
>  <smiles>  (48) 
c1ccc2c(c1)CCN(c1cc(NC3CCCNC3)nc(N3CCc4ccccc4C3)n1)C2

>  <score_type>  (48) 
oracle

>  <origin>  (48) 
autodockgpu

>  <m_score__min__energy>  (48) 
-9.3200000000000003

>  <m_primary>  (48) 
energy

>  <rmsd>  (48) 
6.611253655251526

>  <m_score__min__rmsd>  (48) 
6.611253655251526

>  <meeko>  (48) 
{"free_energy": -8.62, "intermolecular_energy": -9.81, "internal_energy": -1.95, "cluster_size": 12, "cluster_id": 1, "rank_in_cluster": 10}

>  <energy>  (48) 
-8.26

>  <cluster_rmsd>  (48) 
0.51

>  <cluster>  (48) 
5

$$$$

     RDKit          3D

 65 70  0  0  0  0  0  0  0  0999 V2000
  142.1680   79.8690  223.3970 C   0  0  0  0  0  0  0  0  0  0  0  0
  140.8110   80.0050  223.6490 C   0  0  0  0  0  0  0  0  0  0  0  0
  139.8760   79.3070  222.9080 C   0  0  0  0  0  0  0  0  0  0  0  0
  140.3420   78.4730  221.9130 C   0  0  0  0  0  0  0  0  0  0  0  0
  141.6830   78.3090  221.6300 C   0  0  0  0  0  0  0  0  0  0  0  0
  142.5890   79.0120  222.3790 C   0  0  0  0  0  0  0  0  0  0  0  0
  142.0720   77.3830  220.5330 C   0  0  0  0  0  0  0  0  0  0  0  0
  141.3580   76.0710  220.7680 C   0  0  0  0  0  0  0  0  0  0  0  0
  139.9770   76.3130  221.0800 N   0  0  0  0  0  0  0  0  0  0  0  0
  139.1250   75.2290  221.4330 C   0  0  0  0  0  0  0  0  0  0  0  0
  137.7740   75.3100  221.1770 C   0  0  0  0  0  0  0  0  0  0  0  0
  136.8950   74.2680  221.5040 C   0  0  0  0  0  0  0  0  0  0  0  0
  135.5240   74.3930  221.2180 N   0  0  0  0  0  0  0  0  0  0  0  0
  134.4520   74.2500  222.1760 C   0  0  2  0  0  0  0  0  0  0  0  0
  134.1380   75.5700  222.8490 C   0  0  0  0  0  0  0  0  0  0  0  0
  133.9120   75.2940  224.3180 C   0  0  0  0  0  0  0  0  0  0  0  0
  135.2120   74.7530  224.8760 C   0  0  0  0  0  0  0  0  0  0  0  0
  135.5440   73.4900  224.2660 N   0  0  0  0  0  0  0  0  0  0  0  0
  134.6700   73.1470  223.1730 C   0  0  0  0  0  0  0  0  0  0  0  0
  137.4660   73.1980  222.0800 N   0  0  0  0  0  0  0  0  0  0  0  0
  138.7770   73.0810  222.3450 C   0  0  0  0  0  0  0  0  0  0  0  0
  139.2610   71.8920  222.9600 N   0  0  0  0  0  0  0  0  0  0  0  0
  138.5100   70.6710  222.7920 C   0  0  0  0  0  0  0  0  0  0  0  0
  139.3430   69.4460  223.0970 C   0  0  0  0  0  0  0  0  0  0  0  0
  139.9470   69.5740  224.4680 C   0  0  0  0  0  0  0  0  0  0  0  0
  139.9300   68.5180  225.3560 C   0  0  0  0  0  0  0  0  0  0  0  0
  140.5150   68.7380  226.5980 C   0  0  0  0  0  0  0  0  0  0  0  0
  141.0800   69.9510  226.9160 C   0  0  0  0  0  0  0  0  0  0  0  0
  141.0810   70.9890  226.0080 C   0  0  0  0  0  0  0  0  0  0  0  0
  140.5050   70.8010  224.7610 C   0  0  0  0  0  0  0  0  0  0  0  0
  140.4830   71.8980  223.7400 C   0  0  0  0  0  0  0  0  0  0  0  0
  139.5840   74.1070  222.0140 N   0  0  0  0  0  0  0  0  0  0  0  0
  139.4010   77.6670  221.0520 C   0  0  0  0  0  0  0  0  0  0  0  0
  142.9036   80.4298  223.9923 H   0  0  0  0  0  0  0  0  0  0  0  0
  140.4737   80.6785  224.4507 H   0  0  0  0  0  0  0  0  0  0  0  0
  138.7989   79.4128  223.1047 H   0  0  0  0  0  0  0  0  0  0  0  0
  143.6641   78.8995  222.1752 H   0  0  0  0  0  0  0  0  0  0  0  0
  141.7723   77.8046  219.5622 H   0  0  0  0  0  0  0  0  0  0  0  0
  143.1617   77.2334  220.5217 H   0  0  0  0  0  0  0  0  0  0  0  0
  141.4236   75.4528  219.8605 H   0  0  0  0  0  0  0  0  0  0  0  0
  141.8325   75.5473  221.6110 H   0  0  0  0  0  0  0  0  0  0  0  0
  137.3735   76.2180  220.7026 H   0  0  0  0  0  0  0  0  0  0  0  0
  135.2410   74.6090  220.2250 H   0  0  0  0  0  0  0  0  0  0  0  0
  133.5682   73.9425  221.5977 H   0  0  0  0  0  0  0  0  0  0  0  0
  134.9817   76.2646  222.7237 H   0  0  0  0  0  0  0  0  0  0  0  0
  133.2440   76.0281  222.4008 H   0  0  0  0  0  0  0  0  0  0  0  0
  133.6361   76.2231  224.8382 H   0  0  0  0  0  0  0  0  0  0  0  0
  133.0951   74.5709  224.4588 H   0  0  0  0  0  0  0  0  0  0  0  0
  136.0184   75.4737  224.6751 H   0  0  0  0  0  0  0  0  0  0  0  0
  135.0951   74.6017  225.9593 H   0  0  0  0  0  0  0  0  0  0  0  0
  136.5520   73.3890  224.0350 H   0  0  0  0  0  0  0  0  0  0  0  0
  135.1048   72.2866  222.6431 H   0  0  0  0  0  0  0  0  0  0  0  0
  133.6872   72.9292  223.6165 H   0  0  0  0  0  0  0  0  0  0  0  0
  137.6449   70.6901  223.4711 H   0  0  0  0  0  0  0  0  0  0  0  0
  138.1903   70.6110  221.7412 H   0  0  0  0  0  0  0  0  0  0  0  0
  138.7045   68.5510  223.0606 H   0  0  0  0  0  0  0  0  0  0  0  0
  140.1466   69.3563  222.3512 H   0  0  0  0  0  0  0  0  0  0  0  0
  139.4764   67.5506  225.0944 H   0  0  0  0  0  0  0  0  0  0  0  0
  140.5262   67.9264  227.3405 H   0  0  0  0  0  0  0  0  0  0  0  0
  141.5365   70.0949  227.9064 H   0  0  0  0  0  0  0  0  0  0  0  0
  141.5342   71.9563  226.2705 H   0  0  0  0  0  0  0  0  0  0  0  0
  140.5694   72.8653  224.2566 H   0  0  0  0  0  0  0  0  0  0  0  0
  141.3255   71.7370  223.0513 H   0  0  0  0  0  0  0  0  0  0  0  0
  139.3740   78.0608  220.0253 H   0  0  0  0  0  0  0  0  0  0  0  0
  138.3622   77.6962  221.4125 H   0  0  0  0  0  0  0  0  0  0  0  0
  1  2  2  0
  2  3  1  0
  3  4  2  0
  4  5  1  0
  5  6  2  0
  5  7  1  0
  7  8  1  0
  8  9  1  0
  9 10  1  0
 10 11  2  0
 11 12  1  0
 12 13  1  0
 13 14  1  0
 14 15  1  0
 15 16  1  0
 16 17  1  0
 17 18  1  0
 18 19  1  0
 12 20  2  0
 20 21  1  0
 21 22  1  0
 22 23  1  0
 23 24  1  0
 24 25  1  0
 25 26  2  0
 26 27  1  0
 27 28  2  0
 28 29  1  0
 29 30  2  0
 30 31  1  0
 21 32  2  0
  9 33  1  0
  6  1  1  0
 32 10  1  0
 33  4  1  0
 19 14  1  0
 31 22  1  0
 30 25  1  0
  1 34  1  0
  2 35  1  0
  3 36  1  0
  6 37  1  0
  7 38  1  0
  7 39  1  0
  8 40  1  0
  8 41  1  0
 11 42  1  0
 13 43  1  0
 14 44  1  6
 15 45  1  0
 15 46  1  0
 16 47  1  0
 16 48  1  0
 17 49  1  0
 17 50  1  0
 18 51  1  0
 19 52  1  0
 19 53  1  0
 23 54  1  0
 23 55  1  0
 24 56  1  0
 24 57  1  0
 26 58  1  0
 27 59  1  0
 28 60  1  0
 29 61  1  0
 31 62  1  0
 31 63  1  0
 33 64  1  0
 33 65  1  0
M  END
>  <smiles>  (49) 
c1ccc2c(c1)CCN(c1cc(NC3CCCNC3)nc(N3CCc4ccccc4C3)n1)C2

>  <score_type>  (49) 
oracle

>  <origin>  (49) 
autodockgpu

>  <m_score__min__energy>  (49) 
-9.3200000000000003

>  <m_primary>  (49) 
energy

>  <rmsd>  (49) 
7.59430029067883

>  <m_score__min__rmsd>  (49) 
7.59430029067883

>  <meeko>  (49) 
{"free_energy": -8.31, "intermolecular_energy": -9.51, "internal_energy": -1.9, "cluster_size": 26, "cluster_id": 2, "rank_in_cluster": 25}

>  <energy>  (49) 
-8.19

>  <cluster_rmsd>  (49) 
0.0

>  <cluster>  (49) 
6

$$$$

     RDKit          3D

 65 70  0  0  0  0  0  0  0  0999 V2000
  140.1820   69.5060  227.0560 C   0  0  0  0  0  0  0  0  0  0  0  0
  140.8800   70.7040  227.0780 C   0  0  0  0  0  0  0  0  0  0  0  0
  141.0750   71.4360  225.9230 C   0  0  0  0  0  0  0  0  0  0  0  0
  140.5500   70.9330  224.7500 C   0  0  0  0  0  0  0  0  0  0  0  0
  139.8480   69.7450  224.6840 C   0  0  0  0  0  0  0  0  0  0  0  0
  139.6700   69.0390  225.8440 C   0  0  0  0  0  0  0  0  0  0  0  0
  139.3280   69.2980  223.3660 C   0  0  0  0  0  0  0  0  0  0  0  0
  138.5750   70.4580  222.7540 C   0  0  0  0  0  0  0  0  0  0  0  0
  139.3460   71.6630  222.8770 N   0  0  0  0  0  0  0  0  0  0  0  0
  138.7980   72.9060  222.4540 C   0  0  0  0  0  0  0  0  0  0  0  0
  137.4560   72.9970  222.1550 C   0  0  0  0  0  0  0  0  0  0  0  0
  136.8710   74.2000  221.7370 C   0  0  0  0  0  0  0  0  0  0  0  0
  135.4960   74.2450  221.4480 N   0  0  0  0  0  0  0  0  0  0  0  0
  134.4420   74.4490  222.4170 C   0  0  2  0  0  0  0  0  0  0  0  0
  134.3620   75.9010  222.8410 C   0  0  0  0  0  0  0  0  0  0  0  0
  134.1380   75.9300  224.3350 C   0  0  0  0  0  0  0  0  0  0  0  0
  135.3520   75.2960  224.9820 C   0  0  0  0  0  0  0  0  0  0  0  0
  135.4620   73.9070  224.6090 N   0  0  0  0  0  0  0  0  0  0  0  0
  134.5130   73.5210  223.5960 C   0  0  0  0  0  0  0  0  0  0  0  0
  137.7100   75.2440  221.6510 N   0  0  0  0  0  0  0  0  0  0  0  0
  139.0210   75.1970  221.9340 C   0  0  0  0  0  0  0  0  0  0  0  0
  139.8060   76.3770  221.8040 N   0  0  0  0  0  0  0  0  0  0  0  0
  141.1650   76.2570  221.3360 C   0  0  0  0  0  0  0  0  0  0  0  0
  141.7100   77.5740  220.8290 C   0  0  0  0  0  0  0  0  0  0  0  0
  141.5510   78.6280  221.8880 C   0  0  0  0  0  0  0  0  0  0  0  0
  142.5800   79.4960  222.1900 C   0  0  0  0  0  0  0  0  0  0  0  0
  142.3320   80.4360  223.1860 C   0  0  0  0  0  0  0  0  0  0  0  0
  141.1180   80.4890  223.8310 C   0  0  0  0  0  0  0  0  0  0  0  0
  140.1090   79.6060  223.5080 C   0  0  0  0  0  0  0  0  0  0  0  0
  140.3250   78.6580  222.5200 C   0  0  0  0  0  0  0  0  0  0  0  0
  139.2590   77.6790  222.1330 C   0  0  0  0  0  0  0  0  0  0  0  0
  139.5410   74.0210  222.3320 N   0  0  0  0  0  0  0  0  0  0  0  0
  140.7070   71.6590  223.4380 C   0  0  0  0  0  0  0  0  0  0  0  0
  140.0336   68.9308  227.9818 H   0  0  0  0  0  0  0  0  0  0  0  0
  141.2848   71.0773  228.0303 H   0  0  0  0  0  0  0  0  0  0  0  0
  141.6291   72.3861  225.9376 H   0  0  0  0  0  0  0  0  0  0  0  0
  139.1151   68.0895  225.8204 H   0  0  0  0  0  0  0  0  0  0  0  0
  140.1634   69.0065  222.7125 H   0  0  0  0  0  0  0  0  0  0  0  0
  138.6655   68.4282  223.4870 H   0  0  0  0  0  0  0  0  0  0  0  0
  138.3896   70.2511  221.6897 H   0  0  0  0  0  0  0  0  0  0  0  0
  137.6181   70.5860  223.2812 H   0  0  0  0  0  0  0  0  0  0  0  0
  136.8260   72.1000  222.2470 H   0  0  0  0  0  0  0  0  0  0  0  0
  135.1930   74.1200  220.4460 H   0  0  0  0  0  0  0  0  0  0  0  0
  133.5036   74.1899  221.9048 H   0  0  0  0  0  0  0  0  0  0  0  0
  135.3015   76.4164  222.5927 H   0  0  0  0  0  0  0  0  0  0  0  0
  133.5400   76.4112  222.3176 H   0  0  0  0  0  0  0  0  0  0  0  0
  134.0267   76.9688  224.6794 H   0  0  0  0  0  0  0  0  0  0  0  0
  133.2220   75.3832  224.6033 H   0  0  0  0  0  0  0  0  0  0  0  0
  136.2560   75.8304  224.6546 H   0  0  0  0  0  0  0  0  0  0  0  0
  135.2446   75.3611  226.0748 H   0  0  0  0  0  0  0  0  0  0  0  0
  136.4330   73.6050  224.3990 H   0  0  0  0  0  0  0  0  0  0  0  0
  134.7904   72.5217  223.2294 H   0  0  0  0  0  0  0  0  0  0  0  0
  133.5218   73.5471  224.0724 H   0  0  0  0  0  0  0  0  0  0  0  0
  141.7966   75.9076  222.1661 H   0  0  0  0  0  0  0  0  0  0  0  0
  141.1738   75.5421  220.5000 H   0  0  0  0  0  0  0  0  0  0  0  0
  142.7763   77.4589  220.5846 H   0  0  0  0  0  0  0  0  0  0  0  0
  141.1556   77.8756  219.9281 H   0  0  0  0  0  0  0  0  0  0  0  0
  143.5479   79.4476  221.6697 H   0  0  0  0  0  0  0  0  0  0  0  0
  143.1216   81.1501  223.4627 H   0  0  0  0  0  0  0  0  0  0  0  0
  140.9502   81.2441  224.6131 H   0  0  0  0  0  0  0  0  0  0  0  0
  139.1417   79.6536  224.0296 H   0  0  0  0  0  0  0  0  0  0  0  0
  138.5584   77.5670  222.9736 H   0  0  0  0  0  0  0  0  0  0  0  0
  138.7509   78.0683  221.2384 H   0  0  0  0  0  0  0  0  0  0  0  0
  141.4032   71.1247  222.7748 H   0  0  0  0  0  0  0  0  0  0  0  0
  141.1221   72.6707  223.5574 H   0  0  0  0  0  0  0  0  0  0  0  0
  1  2  2  0
  2  3  1  0
  3  4  2  0
  4  5  1  0
  5  6  2  0
  5  7  1  0
  7  8  1  0
  8  9  1  0
  9 10  1  0
 10 11  2  0
 11 12  1  0
 12 13  1  0
 13 14  1  0
 14 15  1  0
 15 16  1  0
 16 17  1  0
 17 18  1  0
 18 19  1  0
 12 20  2  0
 20 21  1  0
 21 22  1  0
 22 23  1  0
 23 24  1  0
 24 25  1  0
 25 26  2  0
 26 27  1  0
 27 28  2  0
 28 29  1  0
 29 30  2  0
 30 31  1  0
 21 32  2  0
  9 33  1  0
  6  1  1  0
 32 10  1  0
 33  4  1  0
 19 14  1  0
 31 22  1  0
 30 25  1  0
  1 34  1  0
  2 35  1  0
  3 36  1  0
  6 37  1  0
  7 38  1  0
  7 39  1  0
  8 40  1  0
  8 41  1  0
 11 42  1  0
 13 43  1  0
 14 44  1  6
 15 45  1  0
 15 46  1  0
 16 47  1  0
 16 48  1  0
 17 49  1  0
 17 50  1  0
 18 51  1  0
 19 52  1  0
 19 53  1  0
 23 54  1  0
 23 55  1  0
 24 56  1  0
 24 57  1  0
 26 58  1  0
 27 59  1  0
 28 60  1  0
 29 61  1  0
 31 62  1  0
 31 63  1  0
 33 64  1  0
 33 65  1  0
M  END
>  <smiles>  (50) 
c1ccc2c(c1)CCN(c1cc(NC3CCCNC3)nc(N3CCc4ccccc4C3)n1)C2

>  <score_type>  (50) 
oracle

>  <origin>  (50) 
autodockgpu

>  <m_score__min__energy>  (50) 
-9.3200000000000003

>  <m_primary>  (50) 
energy

>  <rmsd>  (50) 
7.654615676322997

>  <m_score__min__rmsd>  (50) 
7.654615676322997

>  <meeko>  (50) 
{"free_energy": -9.18, "intermolecular_energy": -10.37, "internal_energy": -1.35, "cluster_size": 26, "cluster_id": 2, "rank_in_cluster": 8}

>  <energy>  (50) 
-8.14

>  <cluster_rmsd>  (50) 
0.22

>  <cluster>  (50) 
6

$$$$

     RDKit          3D

 65 70  0  0  0  0  0  0  0  0999 V2000
  139.8370   67.8880  227.1580 C   0  0  0  0  0  0  0  0  0  0  0  0
  140.4600   68.9570  227.7570 C   0  0  0  0  0  0  0  0  0  0  0  0
  140.6940   70.1440  227.0930 C   0  0  0  0  0  0  0  0  0  0  0  0
  140.2690   70.2300  225.7650 C   0  0  0  0  0  0  0  0  0  0  0  0
  139.6430   69.1600  225.1580 C   0  0  0  0  0  0  0  0  0  0  0  0
  139.4170   67.9820  225.8370 C   0  0  0  0  0  0  0  0  0  0  0  0
  139.1950   69.2740  223.7320 C   0  0  0  0  0  0  0  0  0  0  0  0
  138.6750   70.6900  223.5900 C   0  0  0  0  0  0  0  0  0  0  0  0
  139.8200   71.5720  223.8010 N   0  0  0  0  0  0  0  0  0  0  0  0
  140.2090   72.4620  222.7650 C   0  0  0  0  0  0  0  0  0  0  0  0
  141.1180   72.0710  221.8030 C   0  0  0  0  0  0  0  0  0  0  0  0
  141.5300   72.8940  220.7760 C   0  0  0  0  0  0  0  0  0  0  0  0
  142.4640   72.5060  219.7820 N   0  0  0  0  0  0  0  0  0  0  0  0
  143.7390   73.1690  219.5940 C   0  0  1  0  0  0  0  0  0  0  0  0
  144.2120   73.8660  220.8510 C   0  0  0  0  0  0  0  0  0  0  0  0
  145.5920   74.3990  220.6200 C   0  0  0  0  0  0  0  0  0  0  0  0
  146.5410   73.3990  220.0170 C   0  0  0  0  0  0  0  0  0  0  0  0
  145.9640   72.8050  218.8010 N   0  0  0  0  0  0  0  0  0  0  0  0
  144.7740   72.1100  219.2590 C   0  0  0  0  0  0  0  0  0  0  0  0
  140.9820   74.1380  220.7580 N   0  0  0  0  0  0  0  0  0  0  0  0
  140.0920   74.5330  221.6920 C   0  0  0  0  0  0  0  0  0  0  0  0
  139.5060   75.8420  221.6830 N   0  0  0  0  0  0  0  0  0  0  0  0
  140.2580   77.0120  221.2710 C   0  0  0  0  0  0  0  0  0  0  0  0
  140.3270   78.0060  222.4150 C   0  0  0  0  0  0  0  0  0  0  0  0
  138.9080   78.3460  222.7530 C   0  0  0  0  0  0  0  0  0  0  0  0
  138.6860   79.6220  223.2250 C   0  0  0  0  0  0  0  0  0  0  0  0
  137.3990   79.9800  223.5490 C   0  0  0  0  0  0  0  0  0  0  0  0
  136.3770   79.0740  223.3990 C   0  0  0  0  0  0  0  0  0  0  0  0
  136.6300   77.7960  222.9220 C   0  0  0  0  0  0  0  0  0  0  0  0
  137.9080   77.4110  222.5900 C   0  0  0  0  0  0  0  0  0  0  0  0
  138.1370   76.0390  222.0850 C   0  0  0  0  0  0  0  0  0  0  0  0
  139.7120   73.6880  222.6910 N   0  0  0  0  0  0  0  0  0  0  0  0
  140.5270   71.5180  225.0600 C   0  0  0  0  0  0  0  0  0  0  0  0
  139.6712   66.9594  227.7238 H   0  0  0  0  0  0  0  0  0  0  0  0
  140.7839   68.8629  228.8040 H   0  0  0  0  0  0  0  0  0  0  0  0
  141.1949   70.9882  227.5894 H   0  0  0  0  0  0  0  0  0  0  0  0
  138.9157   67.1358  225.3444 H   0  0  0  0  0  0  0  0  0  0  0  0
  140.0391   69.1028  223.0478 H   0  0  0  0  0  0  0  0  0  0  0  0
  138.4270   68.5273  223.4818 H   0  0  0  0  0  0  0  0  0  0  0  0
  138.2571   70.8429  222.5840 H   0  0  0  0  0  0  0  0  0  0  0  0
  137.8738   70.8956  224.3152 H   0  0  0  0  0  0  0  0  0  0  0  0
  141.5338   71.0541  221.8580 H   0  0  0  0  0  0  0  0  0  0  0  0
  142.1700   71.6850  219.1720 H   0  0  0  0  0  0  0  0  0  0  0  0
  143.6155   73.9170  218.7970 H   0  0  0  0  0  0  0  0  0  0  0  0
  143.5312   74.6958  221.0916 H   0  0  0  0  0  0  0  0  0  0  0  0
  144.2228   73.1547  221.6900 H   0  0  0  0  0  0  0  0  0  0  0  0
  145.5206   75.2613  219.9408 H   0  0  0  0  0  0  0  0  0  0  0  0
  145.9982   74.6690  221.6059 H   0  0  0  0  0  0  0  0  0  0  0  0
  147.4836   73.9045  219.7601 H   0  0  0  0  0  0  0  0  0  0  0  0
  146.7253   72.5990  220.7492 H   0  0  0  0  0  0  0  0  0  0  0  0
  145.6550   73.5790  218.1830 H   0  0  0  0  0  0  0  0  0  0  0  0
  144.3944   71.4491  218.4658 H   0  0  0  0  0  0  0  0  0  0  0  0
  144.9978   71.4893  220.1392 H   0  0  0  0  0  0  0  0  0  0  0  0
  141.2770   76.7102  220.9872 H   0  0  0  0  0  0  0  0  0  0  0  0
  139.7581   77.4814  220.4109 H   0  0  0  0  0  0  0  0  0  0  0  0
  140.8292   77.5548  223.2835 H   0  0  0  0  0  0  0  0  0  0  0  0
  140.9004   78.9022  222.1358 H   0  0  0  0  0  0  0  0  0  0  0  0
  139.5163   80.3344  223.3393 H   0  0  0  0  0  0  0  0  0  0  0  0
  137.1875   80.9908  223.9280 H   0  0  0  0  0  0  0  0  0  0  0  0
  135.3486   79.3646  223.6596 H   0  0  0  0  0  0  0  0  0  0  0  0
  135.7999   77.0833  222.8081 H   0  0  0  0  0  0  0  0  0  0  0  0
  137.8921   75.3204  222.8810 H   0  0  0  0  0  0  0  0  0  0  0  0
  137.4952   75.8854  221.2049 H   0  0  0  0  0  0  0  0  0  0  0  0
  141.6063   71.6140  224.8705 H   0  0  0  0  0  0  0  0  0  0  0  0
  140.1716   72.3420  225.6961 H   0  0  0  0  0  0  0  0  0  0  0  0
  1  2  2  0
  2  3  1  0
  3  4  2  0
  4  5  1  0
  5  6  2  0
  5  7  1  0
  7  8  1  0
  8  9  1  0
  9 10  1  0
 10 11  2  0
 11 12  1  0
 12 13  1  0
 13 14  1  0
 14 15  1  0
 15 16  1  0
 16 17  1  0
 17 18  1  0
 18 19  1  0
 12 20  2  0
 20 21  1  0
 21 22  1  0
 22 23  1  0
 23 24  1  0
 24 25  1  0
 25 26  2  0
 26 27  1  0
 27 28  2  0
 28 29  1  0
 29 30  2  0
 30 31  1  0
 21 32  2  0
  9 33  1  0
  6  1  1  0
 32 10  1  0
 33  4  1  0
 19 14  1  0
 31 22  1  0
 30 25  1  0
  1 34  1  0
  2 35  1  0
  3 36  1  0
  6 37  1  0
  7 38  1  0
  7 39  1  0
  8 40  1  0
  8 41  1  0
 11 42  1  0
 13 43  1  0
 14 44  1  6
 15 45  1  0
 15 46  1  0
 16 47  1  0
 16 48  1  0
 17 49  1  0
 17 50  1  0
 18 51  1  0
 19 52  1  0
 19 53  1  0
 23 54  1  0
 23 55  1  0
 24 56  1  0
 24 57  1  0
 26 58  1  0
 27 59  1  0
 28 60  1  0
 29 61  1  0
 31 62  1  0
 31 63  1  0
 33 64  1  0
 33 65  1  0
M  END
>  <smiles>  (51) 
c1ccc2c(c1)CCN(c1cc(NC3CCCNC3)nc(N3CCc4ccccc4C3)n1)C2

>  <score_type>  (51) 
oracle

>  <origin>  (51) 
autodockgpu

>  <m_score__min__energy>  (51) 
-10.15

>  <m_primary>  (51) 
energy

>  <rmsd>  (51) 
6.323197625394729

>  <m_score__min__rmsd>  (51) 
6.323197625394729

>  <meeko>  (51) 
{"free_energy": -9.74, "intermolecular_energy": -10.93, "internal_energy": -1.06, "cluster_size": 5, "cluster_id": 2, "rank_in_cluster": 3}

>  <energy>  (51) 
-10.15

>  <cluster_rmsd>  (51) 
0.0

>  <cluster>  (51) 
1

$$$$

     RDKit          3D

 65 70  0  0  0  0  0  0  0  0999 V2000
  139.8400   68.6890  227.5210 C   0  0  0  0  0  0  0  0  0  0  0  0
  140.4950   69.8200  227.9470 C   0  0  0  0  0  0  0  0  0  0  0  0
  140.7890   70.8690  227.1000 C   0  0  0  0  0  0  0  0  0  0  0  0
  140.3910   70.7470  225.7660 C   0  0  0  0  0  0  0  0  0  0  0  0
  139.7330   69.6140  225.3330 C   0  0  0  0  0  0  0  0  0  0  0  0
  139.4480   68.5760  226.1930 C   0  0  0  0  0  0  0  0  0  0  0  0
  139.3160   69.5040  223.8970 C   0  0  0  0  0  0  0  0  0  0  0  0
  138.8560   70.8950  223.5080 C   0  0  0  0  0  0  0  0  0  0  0  0
  140.0320   71.7560  223.5970 N   0  0  0  0  0  0  0  0  0  0  0  0
  140.4750   72.4450  222.4360 C   0  0  0  0  0  0  0  0  0  0  0  0
  140.9920   71.7540  221.3590 C   0  0  0  0  0  0  0  0  0  0  0  0
  141.4360   72.3710  220.2100 C   0  0  0  0  0  0  0  0  0  0  0  0
  141.9710   71.6740  219.0960 N   0  0  0  0  0  0  0  0  0  0  0  0
  143.2530   71.9970  218.5030 C   0  0  1  0  0  0  0  0  0  0  0  0
  143.2820   73.4010  217.9370 C   0  0  0  0  0  0  0  0  0  0  0  0
  144.6730   73.7080  217.4760 C   0  0  0  0  0  0  0  0  0  0  0  0
  145.7400   73.3760  218.4850 C   0  0  0  0  0  0  0  0  0  0  0  0
  145.6020   71.9850  218.9450 N   0  0  0  0  0  0  0  0  0  0  0  0
  144.3050   71.9390  219.5960 C   0  0  0  0  0  0  0  0  0  0  0  0
  141.3350   73.7270  220.1890 N   0  0  0  0  0  0  0  0  0  0  0  0
  140.8310   74.4150  221.2340 C   0  0  0  0  0  0  0  0  0  0  0  0
  140.7180   75.8440  221.2240 N   0  0  0  0  0  0  0  0  0  0  0  0
  140.8950   76.6160  220.0090 C   0  0  0  0  0  0  0  0  0  0  0  0
  142.0510   77.5830  220.1780 C   0  0  0  0  0  0  0  0  0  0  0  0
  141.6950   78.4540  221.3430 C   0  0  0  0  0  0  0  0  0  0  0  0
  142.1700   79.7470  221.3010 C   0  0  0  0  0  0  0  0  0  0  0  0
  141.8690   80.5840  222.3490 C   0  0  0  0  0  0  0  0  0  0  0  0
  141.1140   80.1220  223.4000 C   0  0  0  0  0  0  0  0  0  0  0  0
  140.6490   78.8140  223.4150 C   0  0  0  0  0  0  0  0  0  0  0  0
  140.9350   77.9550  222.3800 C   0  0  0  0  0  0  0  0  0  0  0  0
  140.4220   76.5690  222.4340 C   0  0  0  0  0  0  0  0  0  0  0  0
  140.4040   73.7650  222.3520 N   0  0  0  0  0  0  0  0  0  0  0  0
  140.7140   71.8870  224.8630 C   0  0  0  0  0  0  0  0  0  0  0  0
  139.6268   67.8754  228.2299 H   0  0  0  0  0  0  0  0  0  0  0  0
  140.7960   69.8915  229.0026 H   0  0  0  0  0  0  0  0  0  0  0  0
  141.3154   71.7651  227.4604 H   0  0  0  0  0  0  0  0  0  0  0  0
  138.9220   67.6782  225.8362 H   0  0  0  0  0  0  0  0  0  0  0  0
  140.1649   69.1898  223.2720 H   0  0  0  0  0  0  0  0  0  0  0  0
  138.5231   68.7547  223.7558 H   0  0  0  0  0  0  0  0  0  0  0  0
  138.4627   70.8926  222.4807 H   0  0  0  0  0  0  0  0  0  0  0  0
  138.0508   71.2489  224.1686 H   0  0  0  0  0  0  0  0  0  0  0  0
  141.0525   70.6574  221.4210 H   0  0  0  0  0  0  0  0  0  0  0  0
  141.3670   70.8850  218.7160 H   0  0  0  0  0  0  0  0  0  0  0  0
  143.4389   71.2799  217.6899 H   0  0  0  0  0  0  0  0  0  0  0  0
  142.5871   73.4712  217.0871 H   0  0  0  0  0  0  0  0  0  0  0  0
  142.9775   74.1216  218.7103 H   0  0  0  0  0  0  0  0  0  0  0  0
  144.8699   73.1294  216.5614 H   0  0  0  0  0  0  0  0  0  0  0  0
  144.7203   74.7942  217.3086 H   0  0  0  0  0  0  0  0  0  0  0  0
  146.7291   73.5073  218.0219 H   0  0  0  0  0  0  0  0  0  0  0  0
  145.6327   74.0480  219.3493 H   0  0  0  0  0  0  0  0  0  0  0  0
  145.5520   71.3750  218.1070 H   0  0  0  0  0  0  0  0  0  0  0  0
  144.2032   71.0050  220.1681 H   0  0  0  0  0  0  0  0  0  0  0  0
  144.1887   72.7799  220.2955 H   0  0  0  0  0  0  0  0  0  0  0  0
  141.1080   75.9352  219.1716 H   0  0  0  0  0  0  0  0  0  0  0  0
  139.9752   77.1825  219.8017 H   0  0  0  0  0  0  0  0  0  0  0  0
  142.9819   77.0336  220.3821 H   0  0  0  0  0  0  0  0  0  0  0  0
  142.2154   78.1769  219.2668 H   0  0  0  0  0  0  0  0  0  0  0  0
  142.7737   80.0997  220.4518 H   0  0  0  0  0  0  0  0  0  0  0  0
  142.2321   81.6223  222.3463 H   0  0  0  0  0  0  0  0  0  0  0  0
  140.8759   80.7947  224.2371 H   0  0  0  0  0  0  0  0  0  0  0  0
  140.0452   78.4609  224.2640 H   0  0  0  0  0  0  0  0  0  0  0  0
  140.8879   76.0492  223.2842 H   0  0  0  0  0  0  0  0  0  0  0  0
  139.3289   76.6120  222.5496 H   0  0  0  0  0  0  0  0  0  0  0  0
  141.7994   71.9088  224.6859 H   0  0  0  0  0  0  0  0  0  0  0  0
  140.3823   72.8190  225.3441 H   0  0  0  0  0  0  0  0  0  0  0  0
  1  2  2  0
  2  3  1  0
  3  4  2  0
  4  5  1  0
  5  6  2  0
  5  7  1  0
  7  8  1  0
  8  9  1  0
  9 10  1  0
 10 11  2  0
 11 12  1  0
 12 13  1  0
 13 14  1  0
 14 15  1  0
 15 16  1  0
 16 17  1  0
 17 18  1  0
 18 19  1  0
 12 20  2  0
 20 21  1  0
 21 22  1  0
 22 23  1  0
 23 24  1  0
 24 25  1  0
 25 26  2  0
 26 27  1  0
 27 28  2  0
 28 29  1  0
 29 30  2  0
 30 31  1  0
 21 32  2  0
  9 33  1  0
  6  1  1  0
 32 10  1  0
 33  4  1  0
 19 14  1  0
 31 22  1  0
 30 25  1  0
  1 34  1  0
  2 35  1  0
  3 36  1  0
  6 37  1  0
  7 38  1  0
  7 39  1  0
  8 40  1  0
  8 41  1  0
 11 42  1  0
 13 43  1  0
 14 44  1  6
 15 45  1  0
 15 46  1  0
 16 47  1  0
 16 48  1  0
 17 49  1  0
 17 50  1  0
 18 51  1  0
 19 52  1  0
 19 53  1  0
 23 54  1  0
 23 55  1  0
 24 56  1  0
 24 57  1  0
 26 58  1  0
 27 59  1  0
 28 60  1  0
 29 61  1  0
 31 62  1  0
 31 63  1  0
 33 64  1  0
 33 65  1  0
M  END
>  <smiles>  (52) 
c1ccc2c(c1)CCN(c1cc(NC3CCCNC3)nc(N3CCc4ccccc4C3)n1)C2

>  <score_type>  (52) 
oracle

>  <origin>  (52) 
autodockgpu

>  <m_score__min__energy>  (52) 
-10.15

>  <m_primary>  (52) 
energy

>  <rmsd>  (52) 
6.930350733906883

>  <m_score__min__rmsd>  (52) 
6.930350733906883

>  <meeko>  (52) 
{"free_energy": -9.45, "intermolecular_energy": -10.64, "internal_energy": -1.16, "cluster_size": 41, "cluster_id": 1, "rank_in_cluster": 29}

>  <energy>  (52) 
-10.14

>  <cluster_rmsd>  (52) 
0.09

>  <cluster>  (52) 
1

$$$$

     RDKit          3D

 65 70  0  0  0  0  0  0  0  0999 V2000
  146.3120   68.7520  218.4480 C   0  0  0  0  0  0  0  0  0  0  0  0
  145.1560   68.0080  218.4550 C   0  0  0  0  0  0  0  0  0  0  0  0
  143.9520   68.5140  218.9030 C   0  0  0  0  0  0  0  0  0  0  0  0
  143.9420   69.8350  219.3590 C   0  0  0  0  0  0  0  0  0  0  0  0
  145.1000   70.5860  219.3540 C   0  0  0  0  0  0  0  0  0  0  0  0
  146.2930   70.0650  218.9020 C   0  0  0  0  0  0  0  0  0  0  0  0
  145.0660   72.0020  219.8470 C   0  0  0  0  0  0  0  0  0  0  0  0
  143.7450   72.5630  219.3580 C   0  0  0  0  0  0  0  0  0  0  0  0
  142.7000   71.7990  220.0330 N   0  0  0  0  0  0  0  0  0  0  0  0
  141.7700   72.4810  220.8630 C   0  0  0  0  0  0  0  0  0  0  0  0
  140.9980   71.7900  221.7750 C   0  0  0  0  0  0  0  0  0  0  0  0
  140.0820   72.4020  222.6040 C   0  0  0  0  0  0  0  0  0  0  0  0
  139.2820   71.7050  223.5450 N   0  0  0  0  0  0  0  0  0  0  0  0
  139.6710   70.4350  224.1260 C   0  0  1  0  0  0  0  0  0  0  0  0
  140.3820   70.6070  225.4500 C   0  0  0  0  0  0  0  0  0  0  0  0
  140.6210   69.2560  226.0510 C   0  0  0  0  0  0  0  0  0  0  0  0
  139.4050   68.3680  226.0600 C   0  0  0  0  0  0  0  0  0  0  0  0
  138.8180   68.2810  224.7130 N   0  0  0  0  0  0  0  0  0  0  0  0
  138.4080   69.6380  224.4020 C   0  0  0  0  0  0  0  0  0  0  0  0
  139.9750   73.7510  222.4740 N   0  0  0  0  0  0  0  0  0  0  0  0
  140.7240   74.4390  221.5870 C   0  0  0  0  0  0  0  0  0  0  0  0
  140.6200   75.8610  221.4420 N   0  0  0  0  0  0  0  0  0  0  0  0
  140.8970   76.5230  220.1820 C   0  0  0  0  0  0  0  0  0  0  0  0
  142.0410   77.5030  220.3580 C   0  0  0  0  0  0  0  0  0  0  0  0
  141.5970   78.4730  221.4100 C   0  0  0  0  0  0  0  0  0  0  0  0
  142.0810   79.7590  221.2930 C   0  0  0  0  0  0  0  0  0  0  0  0
  141.7010   80.6840  222.2350 C   0  0  0  0  0  0  0  0  0  0  0  0
  140.8610   80.3150  223.2590 C   0  0  0  0  0  0  0  0  0  0  0  0
  140.3900   79.0120  223.3510 C   0  0  0  0  0  0  0  0  0  0  0  0
  140.7540   78.0660  222.4210 C   0  0  0  0  0  0  0  0  0  0  0  0
  140.2310   76.6890  222.5550 C   0  0  0  0  0  0  0  0  0  0  0  0
  141.6170   73.7940  220.7860 N   0  0  0  0  0  0  0  0  0  0  0  0
  142.6360   70.3680  219.8390 C   0  0  0  0  0  0  0  0  0  0  0  0
  147.2504   68.3086  218.0836 H   0  0  0  0  0  0  0  0  0  0  0  0
  145.1916   66.9709  218.0901 H   0  0  0  0  0  0  0  0  0  0  0  0
  143.0378   67.9022  218.9011 H   0  0  0  0  0  0  0  0  0  0  0  0
  147.2088   70.6744  218.9006 H   0  0  0  0  0  0  0  0  0  0  0  0
  145.1132   72.0289  220.9457 H   0  0  0  0  0  0  0  0  0  0  0  0
  145.9219   72.5860  219.4778 H   0  0  0  0  0  0  0  0  0  0  0  0
  143.6648   73.6291  219.6169 H   0  0  0  0  0  0  0  0  0  0  0  0
  143.6565   72.4817  218.2646 H   0  0  0  0  0  0  0  0  0  0  0  0
  141.1194   70.6989  221.8437 H   0  0  0  0  0  0  0  0  0  0  0  0
  138.3650   72.1760  223.8040 H   0  0  0  0  0  0  0  0  0  0  0  0
  140.3493   69.9344  223.4194 H   0  0  0  0  0  0  0  0  0  0  0  0
  141.3443   71.1152  225.2892 H   0  0  0  0  0  0  0  0  0  0  0  0
  139.7643   71.2132  226.1290 H   0  0  0  0  0  0  0  0  0  0  0  0
  141.4115   68.7548  225.4731 H   0  0  0  0  0  0  0  0  0  0  0  0
  140.9045   69.4195  227.1012 H   0  0  0  0  0  0  0  0  0  0  0  0
  139.6951   67.3608  226.3938 H   0  0  0  0  0  0  0  0  0  0  0  0
  138.6585   68.7953  226.7456 H   0  0  0  0  0  0  0  0  0  0  0  0
  139.5740   68.0240  224.0510 H   0  0  0  0  0  0  0  0  0  0  0  0
  137.7583   69.6416  223.5144 H   0  0  0  0  0  0  0  0  0  0  0  0
  137.8432   70.0771  225.2375 H   0  0  0  0  0  0  0  0  0  0  0  0
  141.1725   75.7716  219.4274 H   0  0  0  0  0  0  0  0  0  0  0  0
  139.9997   77.0672  219.8523 H   0  0  0  0  0  0  0  0  0  0  0  0
  142.9494   76.9752  220.6839 H   0  0  0  0  0  0  0  0  0  0  0  0
  142.2814   78.0147  219.4144 H   0  0  0  0  0  0  0  0  0  0  0  0
  142.7532   80.0367  220.4677 H   0  0  0  0  0  0  0  0  0  0  0  0
  142.0684   81.7188  222.1701 H   0  0  0  0  0  0  0  0  0  0  0  0
  140.5595   81.0583  224.0117 H   0  0  0  0  0  0  0  0  0  0  0  0
  139.7185   78.7332  224.1765 H   0  0  0  0  0  0  0  0  0  0  0  0
  140.6238   76.2471  223.4826 H   0  0  0  0  0  0  0  0  0  0  0  0
  139.1324   76.7399  222.5772 H   0  0  0  0  0  0  0  0  0  0  0  0
  142.3804   69.8866  220.7945 H   0  0  0  0  0  0  0  0  0  0  0  0
  141.8691   70.1512  219.0808 H   0  0  0  0  0  0  0  0  0  0  0  0
  1  2  2  0
  2  3  1  0
  3  4  2  0
  4  5  1  0
  5  6  2  0
  5  7  1  0
  7  8  1  0
  8  9  1  0
  9 10  1  0
 10 11  2  0
 11 12  1  0
 12 13  1  0
 13 14  1  0
 14 15  1  0
 15 16  1  0
 16 17  1  0
 17 18  1  0
 18 19  1  0
 12 20  2  0
 20 21  1  0
 21 22  1  0
 22 23  1  0
 23 24  1  0
 24 25  1  0
 25 26  2  0
 26 27  1  0
 27 28  2  0
 28 29  1  0
 29 30  2  0
 30 31  1  0
 21 32  2  0
  9 33  1  0
  6  1  1  0
 32 10  1  0
 33  4  1  0
 19 14  1  0
 31 22  1  0
 30 25  1  0
  1 34  1  0
  2 35  1  0
  3 36  1  0
  6 37  1  0
  7 38  1  0
  7 39  1  0
  8 40  1  0
  8 41  1  0
 11 42  1  0
 13 43  1  0
 14 44  1  6
 15 45  1  0
 15 46  1  0
 16 47  1  0
 16 48  1  0
 17 49  1  0
 17 50  1  0
 18 51  1  0
 19 52  1  0
 19 53  1  0
 23 54  1  0
 23 55  1  0
 24 56  1  0
 24 57  1  0
 26 58  1  0
 27 59  1  0
 28 60  1  0
 29 61  1  0
 31 62  1  0
 31 63  1  0
 33 64  1  0
 33 65  1  0
M  END
>  <smiles>  (53) 
c1ccc2c(c1)CCN(c1cc(NC3CCCNC3)nc(N3CCc4ccccc4C3)n1)C2

>  <score_type>  (53) 
oracle

>  <origin>  (53) 
autodockgpu

>  <m_score__min__energy>  (53) 
-10.15

>  <m_primary>  (53) 
energy

>  <rmsd>  (53) 
9.298013406357613

>  <m_score__min__rmsd>  (53) 
9.298013406357613

>  <meeko>  (53) 
{"free_energy": -9.46, "intermolecular_energy": -10.66, "internal_energy": -0.99, "cluster_size": 4, "cluster_id": 3, "rank_in_cluster": 4}

>  <energy>  (53) 
-10.14

>  <cluster_rmsd>  (53) 
0.11

>  <cluster>  (53) 
1

$$$$

     RDKit          3D

 65 70  0  0  0  0  0  0  0  0999 V2000
  139.7320   68.6390  227.7680 C   0  0  0  0  0  0  0  0  0  0  0  0
  140.3680   69.7850  228.1840 C   0  0  0  0  0  0  0  0  0  0  0  0
  140.6930   70.8090  227.3170 C   0  0  0  0  0  0  0  0  0  0  0  0
  140.3490   70.6430  225.9730 C   0  0  0  0  0  0  0  0  0  0  0  0
  139.7110   69.4950  225.5490 C   0  0  0  0  0  0  0  0  0  0  0  0
  139.3940   68.4830  226.4290 C   0  0  0  0  0  0  0  0  0  0  0  0
  139.3510   69.3380  224.1020 C   0  0  0  0  0  0  0  0  0  0  0  0
  138.9040   70.7150  223.6510 C   0  0  0  0  0  0  0  0  0  0  0  0
  140.0740   71.5830  223.7600 N   0  0  0  0  0  0  0  0  0  0  0  0
  140.5620   72.2360  222.5960 C   0  0  0  0  0  0  0  0  0  0  0  0
  141.2190   71.5270  221.6110 C   0  0  0  0  0  0  0  0  0  0  0  0
  141.7110   72.1100  220.4640 C   0  0  0  0  0  0  0  0  0  0  0  0
  142.3890   71.3940  219.4440 N   0  0  0  0  0  0  0  0  0  0  0  0
  143.7100   70.8250  219.6230 C   0  0  1  0  0  0  0  0  0  0  0  0
  143.8270   69.4470  219.0080 C   0  0  0  0  0  0  0  0  0  0  0  0
  145.2500   68.9910  219.1060 C   0  0  0  0  0  0  0  0  0  0  0  0
  146.2530   70.0140  218.6420 C   0  0  0  0  0  0  0  0  0  0  0  0
  146.0330   71.3000  219.3220 N   0  0  0  0  0  0  0  0  0  0  0  0
  144.7070   71.7160  218.9030 C   0  0  0  0  0  0  0  0  0  0  0  0
  141.5120   73.4500  220.3480 N   0  0  0  0  0  0  0  0  0  0  0  0
  140.8710   74.1550  221.3030 C   0  0  0  0  0  0  0  0  0  0  0  0
  140.6540   75.5680  221.1920 N   0  0  0  0  0  0  0  0  0  0  0  0
  140.8400   76.2740  219.9380 C   0  0  0  0  0  0  0  0  0  0  0  0
  141.9110   77.3360  220.1020 C   0  0  0  0  0  0  0  0  0  0  0  0
  141.4270   78.2480  221.1870 C   0  0  0  0  0  0  0  0  0  0  0  0
  141.8060   79.5690  221.0830 C   0  0  0  0  0  0  0  0  0  0  0  0
  141.3860   80.4440  222.0560 C   0  0  0  0  0  0  0  0  0  0  0  0
  140.6090   79.9910  223.0960 C   0  0  0  0  0  0  0  0  0  0  0  0
  140.2430   78.6550  223.1740 C   0  0  0  0  0  0  0  0  0  0  0  0
  140.6490   77.7580  222.2140 C   0  0  0  0  0  0  0  0  0  0  0  0
  140.2370   76.3420  222.3340 C   0  0  0  0  0  0  0  0  0  0  0  0
  140.4000   73.5390  222.4230 N   0  0  0  0  0  0  0  0  0  0  0  0
  140.7050   71.7560  225.0470 C   0  0  0  0  0  0  0  0  0  0  0  0
  139.4913   67.8477  228.4932 H   0  0  0  0  0  0  0  0  0  0  0  0
  140.6276   69.8898  229.2478 H   0  0  0  0  0  0  0  0  0  0  0  0
  141.2018   71.7182  227.6698 H   0  0  0  0  0  0  0  0  0  0  0  0
  138.8851   67.5725  226.0796 H   0  0  0  0  0  0  0  0  0  0  0  0
  140.2244   69.0066  223.5211 H   0  0  0  0  0  0  0  0  0  0  0  0
  138.5657   68.5821  223.9537 H   0  0  0  0  0  0  0  0  0  0  0  0
  138.5524   70.6789  222.6093 H   0  0  0  0  0  0  0  0  0  0  0  0
  138.0721   71.0867  224.2673 H   0  0  0  0  0  0  0  0  0  0  0  0
  141.3564   70.4443  221.7484 H   0  0  0  0  0  0  0  0  0  0  0  0
  141.8630   71.2960  218.5250 H   0  0  0  0  0  0  0  0  0  0  0  0
  143.9012   70.7509  220.7037 H   0  0  0  0  0  0  0  0  0  0  0  0
  143.1761   68.7446  219.5493 H   0  0  0  0  0  0  0  0  0  0  0  0
  143.5190   69.4827  217.9526 H   0  0  0  0  0  0  0  0  0  0  0  0
  145.4641   68.7484  220.1573 H   0  0  0  0  0  0  0  0  0  0  0  0
  145.3522   68.1202  218.4418 H   0  0  0  0  0  0  0  0  0  0  0  0
  147.2676   69.6542  218.8684 H   0  0  0  0  0  0  0  0  0  0  0  0
  146.1345   70.1609  217.5583 H   0  0  0  0  0  0  0  0  0  0  0  0
  145.9960   71.1200  220.3430 H   0  0  0  0  0  0  0  0  0  0  0  0
  144.5381   72.7682  219.1757 H   0  0  0  0  0  0  0  0  0  0  0  0
  144.5954   71.6262  217.8124 H   0  0  0  0  0  0  0  0  0  0  0  0
  141.1486   75.5609  219.1594 H   0  0  0  0  0  0  0  0  0  0  0  0
  139.8938   76.7533  219.6465 H   0  0  0  0  0  0  0  0  0  0  0  0
  142.8667   76.8735  220.3898 H   0  0  0  0  0  0  0  0  0  0  0  0
  142.0824   77.8830  219.1632 H   0  0  0  0  0  0  0  0  0  0  0  0
  142.4279   79.9137  220.2437 H   0  0  0  0  0  0  0  0  0  0  0  0
  141.6710   81.5051  222.0029 H   0  0  0  0  0  0  0  0  0  0  0  0
  140.2746   80.6941  223.8731 H   0  0  0  0  0  0  0  0  0  0  0  0
  139.6212   78.3095  224.0130 H   0  0  0  0  0  0  0  0  0  0  0  0
  140.6909   75.9140  223.2400 H   0  0  0  0  0  0  0  0  0  0  0  0
  139.1390   76.3074  222.3898 H   0  0  0  0  0  0  0  0  0  0  0  0
  141.7965   71.7760  224.9122 H   0  0  0  0  0  0  0  0  0  0  0  0
  140.3522   72.7014  225.4849 H   0  0  0  0  0  0  0  0  0  0  0  0
  1  2  2  0
  2  3  1  0
  3  4  2  0
  4  5  1  0
  5  6  2  0
  5  7  1  0
  7  8  1  0
  8  9  1  0
  9 10  1  0
 10 11  2  0
 11 12  1  0
 12 13  1  0
 13 14  1  0
 14 15  1  0
 15 16  1  0
 16 17  1  0
 17 18  1  0
 18 19  1  0
 12 20  2  0
 20 21  1  0
 21 22  1  0
 22 23  1  0
 23 24  1  0
 24 25  1  0
 25 26  2  0
 26 27  1  0
 27 28  2  0
 28 29  1  0
 29 30  2  0
 30 31  1  0
 21 32  2  0
  9 33  1  0
  6  1  1  0
 32 10  1  0
 33  4  1  0
 19 14  1  0
 31 22  1  0
 30 25  1  0
  1 34  1  0
  2 35  1  0
  3 36  1  0
  6 37  1  0
  7 38  1  0
  7 39  1  0
  8 40  1  0
  8 41  1  0
 11 42  1  0
 13 43  1  0
 14 44  1  1
 15 45  1  0
 15 46  1  0
 16 47  1  0
 16 48  1  0
 17 49  1  0
 17 50  1  0
 18 51  1  0
 19 52  1  0
 19 53  1  0
 23 54  1  0
 23 55  1  0
 24 56  1  0
 24 57  1  0
 26 58  1  0
 27 59  1  0
 28 60  1  0
 29 61  1  0
 31 62  1  0
 31 63  1  0
 33 64  1  0
 33 65  1  0
M  END
>  <smiles>  (54) 
c1ccc2c(c1)CCN(c1cc(NC3CCCNC3)nc(N3CCc4ccccc4C3)n1)C2

>  <score_type>  (54) 
oracle

>  <origin>  (54) 
autodockgpu

>  <m_score__min__energy>  (54) 
-10.15

>  <m_primary>  (54) 
energy

>  <rmsd>  (54) 
8.842150753686706

>  <m_score__min__rmsd>  (54) 
8.842150753686706

>  <meeko>  (54) 
{"free_energy": -10.05, "intermolecular_energy": -11.24, "internal_energy": -0.94, "cluster_size": 41, "cluster_id": 1, "rank_in_cluster": 13}

>  <energy>  (54) 
-10.14

>  <cluster_rmsd>  (54) 
0.16

>  <cluster>  (54) 
1

$$$$

     RDKit          3D

 65 70  0  0  0  0  0  0  0  0999 V2000
  139.4480   68.4110  227.0470 C   0  0  0  0  0  0  0  0  0  0  0  0
  140.0820   69.4780  227.6390 C   0  0  0  0  0  0  0  0  0  0  0  0
  140.4850   70.5890  226.9260 C   0  0  0  0  0  0  0  0  0  0  0  0
  140.2230   70.5990  225.5530 C   0  0  0  0  0  0  0  0  0  0  0  0
  139.5870   69.5310  224.9540 C   0  0  0  0  0  0  0  0  0  0  0  0
  139.1920   68.4300  225.6820 C   0  0  0  0  0  0  0  0  0  0  0  0
  139.3160   69.5620  223.4800 C   0  0  0  0  0  0  0  0  0  0  0  0
  138.9300   70.9970  223.1760 C   0  0  0  0  0  0  0  0  0  0  0  0
  140.1110   71.8090  223.4610 N   0  0  0  0  0  0  0  0  0  0  0  0
  140.6860   72.5830  222.4180 C   0  0  0  0  0  0  0  0  0  0  0  0
  141.4700   71.9910  221.4480 C   0  0  0  0  0  0  0  0  0  0  0  0
  142.0510   72.6950  220.4160 C   0  0  0  0  0  0  0  0  0  0  0  0
  142.8590   72.1000  219.4130 N   0  0  0  0  0  0  0  0  0  0  0  0
  143.9140   71.1510  219.7090 C   0  0  1  0  0  0  0  0  0  0  0  0
  143.5200   69.7320  219.3610 C   0  0  0  0  0  0  0  0  0  0  0  0
  144.7050   68.8380  219.5580 C   0  0  0  0  0  0  0  0  0  0  0  0
  145.9700   69.3510  218.9230 C   0  0  0  0  0  0  0  0  0  0  0  0
  146.2400   70.7330  219.3500 N   0  0  0  0  0  0  0  0  0  0  0  0
  145.1150   71.5000  218.8470 C   0  0  0  0  0  0  0  0  0  0  0  0
  141.8080   74.0330  220.4000 N   0  0  0  0  0  0  0  0  0  0  0  0
  141.0430   74.6240  221.3410 C   0  0  0  0  0  0  0  0  0  0  0  0
  140.7790   76.0330  221.3350 N   0  0  0  0  0  0  0  0  0  0  0  0
  140.8070   76.8100  220.1100 C   0  0  0  0  0  0  0  0  0  0  0  0
  141.8610   77.8960  220.2160 C   0  0  0  0  0  0  0  0  0  0  0  0
  141.4760   78.7330  221.3970 C   0  0  0  0  0  0  0  0  0  0  0  0
  141.8070   80.0690  221.3280 C   0  0  0  0  0  0  0  0  0  0  0  0
  141.4750   80.8760  222.3890 C   0  0  0  0  0  0  0  0  0  0  0  0
  140.8300   80.3450  223.4800 C   0  0  0  0  0  0  0  0  0  0  0  0
  140.5090   78.9950  223.5220 C   0  0  0  0  0  0  0  0  0  0  0  0
  140.8300   78.1640  222.4740 C   0  0  0  0  0  0  0  0  0  0  0  0
  140.4710   76.7310  222.5570 C   0  0  0  0  0  0  0  0  0  0  0  0
  140.4870   73.8910  222.3460 N   0  0  0  0  0  0  0  0  0  0  0  0
  140.6630   71.8040  224.7960 C   0  0  0  0  0  0  0  0  0  0  0  0
  139.1443   67.5446  227.6529 H   0  0  0  0  0  0  0  0  0  0  0  0
  140.2752   69.4449  228.7214 H   0  0  0  0  0  0  0  0  0  0  0  0
  140.9917   71.4322  227.4182 H   0  0  0  0  0  0  0  0  0  0  0  0
  138.6852   67.5849  225.1931 H   0  0  0  0  0  0  0  0  0  0  0  0
  140.2166   69.2772  222.9163 H   0  0  0  0  0  0  0  0  0  0  0  0
  138.5246   68.8540  223.1928 H   0  0  0  0  0  0  0  0  0  0  0  0
  138.6441   71.0986  222.1187 H   0  0  0  0  0  0  0  0  0  0  0  0
  138.0696   71.3164  223.7823 H   0  0  0  0  0  0  0  0  0  0  0  0
  141.6389   70.9054  221.5017 H   0  0  0  0  0  0  0  0  0  0  0  0
  142.6420   72.3950  218.4150 H   0  0  0  0  0  0  0  0  0  0  0  0
  144.1265   71.2083  220.7868 H   0  0  0  0  0  0  0  0  0  0  0  0
  142.6983   69.4057  220.0155 H   0  0  0  0  0  0  0  0  0  0  0  0
  143.1864   69.6837  218.3139 H   0  0  0  0  0  0  0  0  0  0  0  0
  144.8799   68.7283  220.6384 H   0  0  0  0  0  0  0  0  0  0  0  0
  144.4678   67.8818  219.0686 H   0  0  0  0  0  0  0  0  0  0  0  0
  146.8113   68.7090  219.2231 H   0  0  0  0  0  0  0  0  0  0  0  0
  145.8500   69.3346  217.8297 H   0  0  0  0  0  0  0  0  0  0  0  0
  146.1980   70.7610  220.3870 H   0  0  0  0  0  0  0  0  0  0  0  0
  145.3304   72.5764  218.9183 H   0  0  0  0  0  0  0  0  0  0  0  0
  144.9206   71.2622  217.7907 H   0  0  0  0  0  0  0  0  0  0  0  0
  141.0467   76.1495  219.2637 H   0  0  0  0  0  0  0  0  0  0  0  0
  139.8221   77.2732  219.9504 H   0  0  0  0  0  0  0  0  0  0  0  0
  142.8545   77.4502  220.3714 H   0  0  0  0  0  0  0  0  0  0  0  0
  141.9129   78.4974  219.2964 H   0  0  0  0  0  0  0  0  0  0  0  0
  142.3232   80.4782  220.4470 H   0  0  0  0  0  0  0  0  0  0  0  0
  141.7254   81.9469  222.3652 H   0  0  0  0  0  0  0  0  0  0  0  0
  140.5658   80.9950  224.3271 H   0  0  0  0  0  0  0  0  0  0  0  0
  139.9925   78.5856  224.4027 H   0  0  0  0  0  0  0  0  0  0  0  0
  141.0332   76.2699  223.3824 H   0  0  0  0  0  0  0  0  0  0  0  0
  139.3870   76.6585  222.7295 H   0  0  0  0  0  0  0  0  0  0  0  0
  141.7611   71.8064  224.7309 H   0  0  0  0  0  0  0  0  0  0  0  0
  140.3055   72.6994  225.3256 H   0  0  0  0  0  0  0  0  0  0  0  0
  1  2  2  0
  2  3  1  0
  3  4  2  0
  4  5  1  0
  5  6  2  0
  5  7  1  0
  7  8  1  0
  8  9  1  0
  9 10  1  0
 10 11  2  0
 11 12  1  0
 12 13  1  0
 13 14  1  0
 14 15  1  0
 15 16  1  0
 16 17  1  0
 17 18  1  0
 18 19  1  0
 12 20  2  0
 20 21  1  0
 21 22  1  0
 22 23  1  0
 23 24  1  0
 24 25  1  0
 25 26  2  0
 26 27  1  0
 27 28  2  0
 28 29  1  0
 29 30  2  0
 30 31  1  0
 21 32  2  0
  9 33  1  0
  6  1  1  0
 32 10  1  0
 33  4  1  0
 19 14  1  0
 31 22  1  0
 30 25  1  0
  1 34  1  0
  2 35  1  0
  3 36  1  0
  6 37  1  0
  7 38  1  0
  7 39  1  0
  8 40  1  0
  8 41  1  0
 11 42  1  0
 13 43  1  0
 14 44  1  1
 15 45  1  0
 15 46  1  0
 16 47  1  0
 16 48  1  0
 17 49  1  0
 17 50  1  0
 18 51  1  0
 19 52  1  0
 19 53  1  0
 23 54  1  0
 23 55  1  0
 24 56  1  0
 24 57  1  0
 26 58  1  0
 27 59  1  0
 28 60  1  0
 29 61  1  0
 31 62  1  0
 31 63  1  0
 33 64  1  0
 33 65  1  0
M  END
>  <smiles>  (55) 
c1ccc2c(c1)CCN(c1cc(NC3CCCNC3)nc(N3CCc4ccccc4C3)n1)C2

>  <score_type>  (55) 
oracle

>  <origin>  (55) 
autodockgpu

>  <m_score__min__energy>  (55) 
-10.15

>  <m_primary>  (55) 
energy

>  <rmsd>  (55) 
8.783086663833116

>  <m_score__min__rmsd>  (55) 
8.783086663833116

>  <meeko>  (55) 
{"free_energy": -9.96, "intermolecular_energy": -11.16, "internal_energy": -0.95, "cluster_size": 41, "cluster_id": 1, "rank_in_cluster": 15}

>  <energy>  (55) 
-10.13

>  <cluster_rmsd>  (55) 
0.2

>  <cluster>  (55) 
1

$$$$

     RDKit          3D

 65 70  0  0  0  0  0  0  0  0999 V2000
  139.6210   67.9860  225.9380 C   0  0  0  0  0  0  0  0  0  0  0  0
  140.3730   68.8920  226.6470 C   0  0  0  0  0  0  0  0  0  0  0  0
  140.7050   70.1340  226.1430 C   0  0  0  0  0  0  0  0  0  0  0  0
  140.2420   70.4510  224.8640 C   0  0  0  0  0  0  0  0  0  0  0  0
  139.4860   69.5450  224.1470 C   0  0  0  0  0  0  0  0  0  0  0  0
  139.1650   68.3090  224.6660 C   0  0  0  0  0  0  0  0  0  0  0  0
  139.0000   69.9060  222.7760 C   0  0  0  0  0  0  0  0  0  0  0  0
  138.6250   71.3720  222.8590 C   0  0  0  0  0  0  0  0  0  0  0  0
  139.8630   72.0980  223.1320 N   0  0  0  0  0  0  0  0  0  0  0  0
  140.3040   73.0850  222.2110 C   0  0  0  0  0  0  0  0  0  0  0  0
  141.1090   72.7460  221.1430 C   0  0  0  0  0  0  0  0  0  0  0  0
  141.5650   73.6630  220.2210 C   0  0  0  0  0  0  0  0  0  0  0  0
  142.3940   73.3280  219.1200 N   0  0  0  0  0  0  0  0  0  0  0  0
  143.8420   73.3500  219.1850 C   0  0  1  0  0  0  0  0  0  0  0  0
  144.3460   73.8720  220.5140 C   0  0  0  0  0  0  0  0  0  0  0  0
  145.8360   73.7290  220.5570 C   0  0  0  0  0  0  0  0  0  0  0  0
  146.3310   72.3680  220.1460 C   0  0  0  0  0  0  0  0  0  0  0  0
  145.7740   71.9880  218.8380 N   0  0  0  0  0  0  0  0  0  0  0  0
  144.3400   71.9220  219.0530 C   0  0  0  0  0  0  0  0  0  0  0  0
  141.1710   74.9490  220.4200 N   0  0  0  0  0  0  0  0  0  0  0  0
  140.3820   75.2950  221.4590 C   0  0  0  0  0  0  0  0  0  0  0  0
  139.9600   76.6470  221.6780 N   0  0  0  0  0  0  0  0  0  0  0  0
  140.8800   77.7620  221.5710 C   0  0  0  0  0  0  0  0  0  0  0  0
  140.9550   78.4950  222.8980 C   0  0  0  0  0  0  0  0  0  0  0  0
  139.5600   78.9510  223.1970 C   0  0  0  0  0  0  0  0  0  0  0  0
  139.4460   80.1290  223.9050 C   0  0  0  0  0  0  0  0  0  0  0  0
  138.1850   80.5870  224.2040 C   0  0  0  0  0  0  0  0  0  0  0  0
  137.0820   79.8750  223.7980 C   0  0  0  0  0  0  0  0  0  0  0  0
  137.2280   78.6920  223.0870 C   0  0  0  0  0  0  0  0  0  0  0  0
  138.4780   78.2100  222.7740 C   0  0  0  0  0  0  0  0  0  0  0  0
  138.5900   76.9460  222.0150 C   0  0  0  0  0  0  0  0  0  0  0  0
  139.9550   74.3560  222.3480 N   0  0  0  0  0  0  0  0  0  0  0  0
  140.6070   71.7940  224.3330 C   0  0  0  0  0  0  0  0  0  0  0  0
  139.3805   67.0065  226.3771 H   0  0  0  0  0  0  0  0  0  0  0  0
  140.7233   68.6176  227.6530 H   0  0  0  0  0  0  0  0  0  0  0  0
  141.3096   70.8449  226.7253 H   0  0  0  0  0  0  0  0  0  0  0  0
  138.5617   67.5948  224.0864 H   0  0  0  0  0  0  0  0  0  0  0  0
  139.7959   69.7532  222.0322 H   0  0  0  0  0  0  0  0  0  0  0  0
  138.1496   69.2817  222.4643 H   0  0  0  0  0  0  0  0  0  0  0  0
  138.1888   71.7079  221.9067 H   0  0  0  0  0  0  0  0  0  0  0  0
  137.8765   71.5489  223.6454 H   0  0  0  0  0  0  0  0  0  0  0  0
  141.4010   71.6924  221.0216 H   0  0  0  0  0  0  0  0  0  0  0  0
  141.8840   73.0540  218.2280 H   0  0  0  0  0  0  0  0  0  0  0  0
  144.2059   74.0079  218.3820 H   0  0  0  0  0  0  0  0  0  0  0  0
  144.0734   74.9322  220.6218 H   0  0  0  0  0  0  0  0  0  0  0  0
  143.8924   73.2989  221.3361 H   0  0  0  0  0  0  0  0  0  0  0  0
  146.2752   74.4762  219.8797 H   0  0  0  0  0  0  0  0  0  0  0  0
  146.1405   73.8765  221.6037 H   0  0  0  0  0  0  0  0  0  0  0  0
  147.4288   72.3873  220.0797 H   0  0  0  0  0  0  0  0  0  0  0  0
  146.0083   71.6315  220.8966 H   0  0  0  0  0  0  0  0  0  0  0  0
  145.9550   72.7650  218.1750 H   0  0  0  0  0  0  0  0  0  0  0  0
  143.8526   71.4299  218.1984 H   0  0  0  0  0  0  0  0  0  0  0  0
  144.1061   71.3407  219.9571 H   0  0  0  0  0  0  0  0  0  0  0  0
  141.8790   77.3870  221.3039 H   0  0  0  0  0  0  0  0  0  0  0  0
  140.5239   78.4537  220.7933 H   0  0  0  0  0  0  0  0  0  0  0  0
  141.3139   77.8192  223.6882 H   0  0  0  0  0  0  0  0  0  0  0  0
  141.6547   79.3425  222.8512 H   0  0  0  0  0  0  0  0  0  0  0  0
  140.3397   80.6867  224.2217 H   0  0  0  0  0  0  0  0  0  0  0  0
  138.0588   81.5230  224.7680 H   0  0  0  0  0  0  0  0  0  0  0  0
  136.0747   80.2458  224.0386 H   0  0  0  0  0  0  0  0  0  0  0  0
  136.3346   78.1338  222.7703 H   0  0  0  0  0  0  0  0  0  0  0  0
  138.1859   76.1258  222.6265 H   0  0  0  0  0  0  0  0  0  0  0  0
  138.0223   77.0559  221.0792 H   0  0  0  0  0  0  0  0  0  0  0  0
  141.6826   71.8093  224.1029 H   0  0  0  0  0  0  0  0  0  0  0  0
  140.3641   72.5490  225.0952 H   0  0  0  0  0  0  0  0  0  0  0  0
  1  2  2  0
  2  3  1  0
  3  4  2  0
  4  5  1  0
  5  6  2  0
  5  7  1  0
  7  8  1  0
  8  9  1  0
  9 10  1  0
 10 11  2  0
 11 12  1  0
 12 13  1  0
 13 14  1  0
 14 15  1  0
 15 16  1  0
 16 17  1  0
 17 18  1  0
 18 19  1  0
 12 20  2  0
 20 21  1  0
 21 22  1  0
 22 23  1  0
 23 24  1  0
 24 25  1  0
 25 26  2  0
 26 27  1  0
 27 28  2  0
 28 29  1  0
 29 30  2  0
 30 31  1  0
 21 32  2  0
  9 33  1  0
  6  1  1  0
 32 10  1  0
 33  4  1  0
 19 14  1  0
 31 22  1  0
 30 25  1  0
  1 34  1  0
  2 35  1  0
  3 36  1  0
  6 37  1  0
  7 38  1  0
  7 39  1  0
  8 40  1  0
  8 41  1  0
 11 42  1  0
 13 43  1  0
 14 44  1  6
 15 45  1  0
 15 46  1  0
 16 47  1  0
 16 48  1  0
 17 49  1  0
 17 50  1  0
 18 51  1  0
 19 52  1  0
 19 53  1  0
 23 54  1  0
 23 55  1  0
 24 56  1  0
 24 57  1  0
 26 58  1  0
 27 59  1  0
 28 60  1  0
 29 61  1  0
 31 62  1  0
 31 63  1  0
 33 64  1  0
 33 65  1  0
M  END
>  <smiles>  (56) 
c1ccc2c(c1)CCN(c1cc(NC3CCCNC3)nc(N3CCc4ccccc4C3)n1)C2

>  <score_type>  (56) 
oracle

>  <origin>  (56) 
autodockgpu

>  <m_score__min__energy>  (56) 
-10.15

>  <m_primary>  (56) 
energy

>  <rmsd>  (56) 
6.462786586761945

>  <m_score__min__rmsd>  (56) 
6.462786586761945

>  <meeko>  (56) 
{"free_energy": -9.39, "intermolecular_energy": -10.59, "internal_energy": -1.09, "cluster_size": 41, "cluster_id": 1, "rank_in_cluster": 36}

>  <energy>  (56) 
-10.13

>  <cluster_rmsd>  (56) 
0.14

>  <cluster>  (56) 
1

$$$$

     RDKit          3D

 65 70  0  0  0  0  0  0  0  0999 V2000
  138.9160   68.2060  225.6880 C   0  0  0  0  0  0  0  0  0  0  0  0
  139.5560   69.0720  226.5410 C   0  0  0  0  0  0  0  0  0  0  0  0
  140.0850   70.2740  226.1170 C   0  0  0  0  0  0  0  0  0  0  0  0
  139.9470   70.5930  224.7640 C   0  0  0  0  0  0  0  0  0  0  0  0
  139.3050   69.7270  223.9020 C   0  0  0  0  0  0  0  0  0  0  0  0
  138.7820   68.5310  224.3430 C   0  0  0  0  0  0  0  0  0  0  0  0
  139.1680   70.0900  222.4540 C   0  0  0  0  0  0  0  0  0  0  0  0
  138.8960   71.5810  222.4400 C   0  0  0  0  0  0  0  0  0  0  0  0
  140.0920   72.2220  222.9800 N   0  0  0  0  0  0  0  0  0  0  0  0
  140.8020   73.1520  222.1750 C   0  0  0  0  0  0  0  0  0  0  0  0
  141.8090   72.7320  221.3300 C   0  0  0  0  0  0  0  0  0  0  0  0
  142.5290   73.5910  220.5280 C   0  0  0  0  0  0  0  0  0  0  0  0
  143.5660   73.1730  219.6560 N   0  0  0  0  0  0  0  0  0  0  0  0
  144.2630   71.9110  219.8060 C   0  0  1  0  0  0  0  0  0  0  0  0
  143.4260   70.7370  219.3470 C   0  0  0  0  0  0  0  0  0  0  0  0
  144.2620   69.4960  219.3980 C   0  0  0  0  0  0  0  0  0  0  0  0
  145.6120   69.6420  218.7490 C   0  0  0  0  0  0  0  0  0  0  0  0
  146.3220   70.8120  219.2900 N   0  0  0  0  0  0  0  0  0  0  0  0
  145.4960   71.9470  218.9200 C   0  0  0  0  0  0  0  0  0  0  0  0
  142.1880   74.9050  220.6130 N   0  0  0  0  0  0  0  0  0  0  0  0
  141.2050   75.3300  221.4340 C   0  0  0  0  0  0  0  0  0  0  0  0
  140.8370   76.7120  221.5310 N   0  0  0  0  0  0  0  0  0  0  0  0
  140.3710   77.4610  220.3800 C   0  0  0  0  0  0  0  0  0  0  0  0
  141.3000   78.6320  220.1200 C   0  0  0  0  0  0  0  0  0  0  0  0
  141.2820   79.4600  221.3680 C   0  0  0  0  0  0  0  0  0  0  0  0
  141.4540   80.8170  221.1970 C   0  0  0  0  0  0  0  0  0  0  0  0
  141.4450   81.6180  222.3140 C   0  0  0  0  0  0  0  0  0  0  0  0
  141.2680   81.0590  223.5570 C   0  0  0  0  0  0  0  0  0  0  0  0
  141.0970   79.6890  223.6980 C   0  0  0  0  0  0  0  0  0  0  0  0
  141.1020   78.8640  222.5970 C   0  0  0  0  0  0  0  0  0  0  0  0
  140.9170   77.4090  222.7900 C   0  0  0  0  0  0  0  0  0  0  0  0
  140.5190   74.4460  222.2110 N   0  0  0  0  0  0  0  0  0  0  0  0
  140.5230   71.8940  224.3190 C   0  0  0  0  0  0  0  0  0  0  0  0
  138.5103   67.2570  226.0686 H   0  0  0  0  0  0  0  0  0  0  0  0
  139.6503   68.7970  227.6019 H   0  0  0  0  0  0  0  0  0  0  0  0
  140.5947   70.9534  226.8161 H   0  0  0  0  0  0  0  0  0  0  0  0
  138.2706   67.8495  223.6473 H   0  0  0  0  0  0  0  0  0  0  0  0
  140.0967   69.8625  221.9101 H   0  0  0  0  0  0  0  0  0  0  0  0
  138.3644   69.5217  221.9628 H   0  0  0  0  0  0  0  0  0  0  0  0
  138.7113   71.9246  221.4115 H   0  0  0  0  0  0  0  0  0  0  0  0
  138.0057   71.8301  223.0361 H   0  0  0  0  0  0  0  0  0  0  0  0
  142.0488   71.6590  221.2948 H   0  0  0  0  0  0  0  0  0  0  0  0
  143.8070   73.8500  218.8720 H   0  0  0  0  0  0  0  0  0  0  0  0
  144.5022   71.7834  220.8721 H   0  0  0  0  0  0  0  0  0  0  0  0
  142.5551   70.6230  220.0093 H   0  0  0  0  0  0  0  0  0  0  0  0
  143.0758   70.9085  218.3184 H   0  0  0  0  0  0  0  0  0  0  0  0
  144.4127   69.2233  220.4529 H   0  0  0  0  0  0  0  0  0  0  0  0
  143.7193   68.7226  218.8347 H   0  0  0  0  0  0  0  0  0  0  0  0
  146.2063   68.7368  218.9428 H   0  0  0  0  0  0  0  0  0  0  0  0
  145.4725   69.7806  217.6667 H   0  0  0  0  0  0  0  0  0  0  0  0
  146.3120   70.7420  220.3250 H   0  0  0  0  0  0  0  0  0  0  0  0
  146.0489   72.8842  219.0810 H   0  0  0  0  0  0  0  0  0  0  0  0
  145.2157   71.8969  217.8575 H   0  0  0  0  0  0  0  0  0  0  0  0
  140.3558   76.8038  219.4981 H   0  0  0  0  0  0  0  0  0  0  0  0
  139.3568   77.8382  220.5778 H   0  0  0  0  0  0  0  0  0  0  0  0
  142.3192   78.2727  219.9146 H   0  0  0  0  0  0  0  0  0  0  0  0
  140.9768   79.2155  219.2453 H   0  0  0  0  0  0  0  0  0  0  0  0
  141.5946   81.2470  220.1943 H   0  0  0  0  0  0  0  0  0  0  0  0
  141.5793   82.7051  222.2131 H   0  0  0  0  0  0  0  0  0  0  0  0
  141.2618   81.7035  224.4484 H   0  0  0  0  0  0  0  0  0  0  0  0
  140.9560   79.2583  224.7003 H   0  0  0  0  0  0  0  0  0  0  0  0
  141.7688   77.0139  223.3631 H   0  0  0  0  0  0  0  0  0  0  0  0
  139.9722   77.2514  223.3308 H   0  0  0  0  0  0  0  0  0  0  0  0
  141.6207   71.8258  224.3366 H   0  0  0  0  0  0  0  0  0  0  0  0
  140.1739   72.6827  225.0017 H   0  0  0  0  0  0  0  0  0  0  0  0
  1  2  2  0
  2  3  1  0
  3  4  2  0
  4  5  1  0
  5  6  2  0
  5  7  1  0
  7  8  1  0
  8  9  1  0
  9 10  1  0
 10 11  2  0
 11 12  1  0
 12 13  1  0
 13 14  1  0
 14 15  1  0
 15 16  1  0
 16 17  1  0
 17 18  1  0
 18 19  1  0
 12 20  2  0
 20 21  1  0
 21 22  1  0
 22 23  1  0
 23 24  1  0
 24 25  1  0
 25 26  2  0
 26 27  1  0
 27 28  2  0
 28 29  1  0
 29 30  2  0
 30 31  1  0
 21 32  2  0
  9 33  1  0
  6  1  1  0
 32 10  1  0
 33  4  1  0
 19 14  1  0
 31 22  1  0
 30 25  1  0
  1 34  1  0
  2 35  1  0
  3 36  1  0
  6 37  1  0
  7 38  1  0
  7 39  1  0
  8 40  1  0
  8 41  1  0
 11 42  1  0
 13 43  1  0
 14 44  1  1
 15 45  1  0
 15 46  1  0
 16 47  1  0
 16 48  1  0
 17 49  1  0
 17 50  1  0
 18 51  1  0
 19 52  1  0
 19 53  1  0
 23 54  1  0
 23 55  1  0
 24 56  1  0
 24 57  1  0
 26 58  1  0
 27 59  1  0
 28 60  1  0
 29 61  1  0
 31 62  1  0
 31 63  1  0
 33 64  1  0
 33 65  1  0
M  END
>  <smiles>  (57) 
c1ccc2c(c1)CCN(c1cc(NC3CCCNC3)nc(N3CCc4ccccc4C3)n1)C2

>  <score_type>  (57) 
oracle

>  <origin>  (57) 
autodockgpu

>  <m_score__min__energy>  (57) 
-10.15

>  <m_primary>  (57) 
energy

>  <rmsd>  (57) 
8.332586863464568

>  <m_score__min__rmsd>  (57) 
8.332586863464568

>  <meeko>  (57) 
{"free_energy": -9.18, "intermolecular_energy": -10.38, "internal_energy": -0.97, "cluster_size": 41, "cluster_id": 1, "rank_in_cluster": 40}

>  <energy>  (57) 
-10.12

>  <cluster_rmsd>  (57) 
0.33

>  <cluster>  (57) 
1

$$$$

     RDKit          3D

 65 70  0  0  0  0  0  0  0  0999 V2000
  140.0150   68.6970  228.0520 C   0  0  0  0  0  0  0  0  0  0  0  0
  140.7340   69.8310  228.3490 C   0  0  0  0  0  0  0  0  0  0  0  0
  140.9840   70.8140  227.4130 C   0  0  0  0  0  0  0  0  0  0  0  0
  140.4740   70.6210  226.1270 C   0  0  0  0  0  0  0  0  0  0  0  0
  139.7520   69.4840  225.8240 C   0  0  0  0  0  0  0  0  0  0  0  0
  139.5110   68.5130  226.7710 C   0  0  0  0  0  0  0  0  0  0  0  0
  139.2130   69.2970  224.4370 C   0  0  0  0  0  0  0  0  0  0  0  0
  138.7600   70.6750  223.9950 C   0  0  0  0  0  0  0  0  0  0  0  0
  139.9630   71.5010  223.9320 N   0  0  0  0  0  0  0  0  0  0  0  0
  140.3270   72.1000  222.6960 C   0  0  0  0  0  0  0  0  0  0  0  0
  140.7750   71.3290  221.6430 C   0  0  0  0  0  0  0  0  0  0  0  0
  141.1410   71.8580  220.4230 C   0  0  0  0  0  0  0  0  0  0  0  0
  141.6040   71.0780  219.3330 N   0  0  0  0  0  0  0  0  0  0  0  0
  142.8560   71.3390  218.6510 C   0  0  1  0  0  0  0  0  0  0  0  0
  143.8710   72.0050  219.5550 C   0  0  0  0  0  0  0  0  0  0  0  0
  145.1750   72.1080  218.8260 C   0  0  0  0  0  0  0  0  0  0  0  0
  145.6110   70.8260  218.1680 C   0  0  0  0  0  0  0  0  0  0  0  0
  144.5380   70.2910  217.3150 N   0  0  0  0  0  0  0  0  0  0  0  0
  143.4480   70.0050  218.2300 C   0  0  0  0  0  0  0  0  0  0  0  0
  141.0330   73.2080  220.3070 N   0  0  0  0  0  0  0  0  0  0  0  0
  140.5950   73.9740  221.3290 C   0  0  0  0  0  0  0  0  0  0  0  0
  140.4770   75.3990  221.2180 N   0  0  0  0  0  0  0  0  0  0  0  0
  140.7800   76.0970  219.9840 C   0  0  0  0  0  0  0  0  0  0  0  0
  141.9070   77.0860  220.2170 C   0  0  0  0  0  0  0  0  0  0  0  0
  141.4210   78.0220  221.2810 C   0  0  0  0  0  0  0  0  0  0  0  0
  141.8910   79.3160  221.2110 C   0  0  0  0  0  0  0  0  0  0  0  0
  141.4740   80.2110  222.1670 C   0  0  0  0  0  0  0  0  0  0  0  0
  140.6110   79.8050  223.1570 C   0  0  0  0  0  0  0  0  0  0  0  0
  140.1550   78.4950  223.2020 C   0  0  0  0  0  0  0  0  0  0  0  0
  140.5560   77.5780  222.2580 C   0  0  0  0  0  0  0  0  0  0  0  0
  140.0470   76.1920  222.3420 C   0  0  0  0  0  0  0  0  0  0  0  0
  140.2450   73.4100  222.5180 N   0  0  0  0  0  0  0  0  0  0  0  0
  140.7520   71.6900  225.1270 C   0  0  0  0  0  0  0  0  0  0  0  0
  139.8394   67.9370  228.8276 H   0  0  0  0  0  0  0  0  0  0  0  0
  141.1240   69.9593  229.3695 H   0  0  0  0  0  0  0  0  0  0  0  0
  141.5621   71.7140  227.6696 H   0  0  0  0  0  0  0  0  0  0  0  0
  138.9324   67.6122  226.5183 H   0  0  0  0  0  0  0  0  0  0  0  0
  139.9976   68.9159  223.7668 H   0  0  0  0  0  0  0  0  0  0  0  0
  138.3906   68.5670  224.4114 H   0  0  0  0  0  0  0  0  0  0  0  0
  138.2834   70.6200  223.0051 H   0  0  0  0  0  0  0  0  0  0  0  0
  138.0217   71.0963  224.6931 H   0  0  0  0  0  0  0  0  0  0  0  0
  140.8435   70.2401  221.7833 H   0  0  0  0  0  0  0  0  0  0  0  0
  140.9690   70.2770  219.0400 H   0  0  0  0  0  0  0  0  0  0  0  0
  142.6446   72.0040  217.8006 H   0  0  0  0  0  0  0  0  0  0  0  0
  143.5194   73.0112  219.8270 H   0  0  0  0  0  0  0  0  0  0  0  0
  144.0017   71.4101  220.4710 H   0  0  0  0  0  0  0  0  0  0  0  0
  145.0767   72.8799  218.0485 H   0  0  0  0  0  0  0  0  0  0  0  0
  145.9402   72.3574  219.5758 H   0  0  0  0  0  0  0  0  0  0  0  0
  146.5004   71.0207  217.5507 H   0  0  0  0  0  0  0  0  0  0  0  0
  145.8444   70.0877  218.9494 H   0  0  0  0  0  0  0  0  0  0  0  0
  144.2240   71.0510  216.6820 H   0  0  0  0  0  0  0  0  0  0  0  0
  142.6834   69.3949  217.7269 H   0  0  0  0  0  0  0  0  0  0  0  0
  143.8083   69.4433  219.1045 H   0  0  0  0  0  0  0  0  0  0  0  0
  141.0854   75.3690  219.2180 H   0  0  0  0  0  0  0  0  0  0  0  0
  139.8853   76.6390  219.6439 H   0  0  0  0  0  0  0  0  0  0  0  0
  142.8128   76.5609  220.5544 H   0  0  0  0  0  0  0  0  0  0  0  0
  142.1674   77.6251  219.2942 H   0  0  0  0  0  0  0  0  0  0  0  0
  142.5811   79.6239  220.4116 H   0  0  0  0  0  0  0  0  0  0  0  0
  141.8305   81.2513  222.1400 H   0  0  0  0  0  0  0  0  0  0  0  0
  140.2790   80.5245  223.9200 H   0  0  0  0  0  0  0  0  0  0  0  0
  139.4652   78.1864  224.0014 H   0  0  0  0  0  0  0  0  0  0  0  0
  140.4202   75.7303  223.2680 H   0  0  0  0  0  0  0  0  0  0  0  0
  138.9476   76.2287  222.3362 H   0  0  0  0  0  0  0  0  0  0  0  0
  141.8190   71.6646  224.8609 H   0  0  0  0  0  0  0  0  0  0  0  0
  140.4876   72.6612  225.5707 H   0  0  0  0  0  0  0  0  0  0  0  0
  1  2  2  0
  2  3  1  0
  3  4  2  0
  4  5  1  0
  5  6  2  0
  5  7  1  0
  7  8  1  0
  8  9  1  0
  9 10  1  0
 10 11  2  0
 11 12  1  0
 12 13  1  0
 13 14  1  0
 14 15  1  0
 15 16  1  0
 16 17  1  0
 17 18  1  0
 18 19  1  0
 12 20  2  0
 20 21  1  0
 21 22  1  0
 22 23  1  0
 23 24  1  0
 24 25  1  0
 25 26  2  0
 26 27  1  0
 27 28  2  0
 28 29  1  0
 29 30  2  0
 30 31  1  0
 21 32  2  0
  9 33  1  0
  6  1  1  0
 32 10  1  0
 33  4  1  0
 19 14  1  0
 31 22  1  0
 30 25  1  0
  1 34  1  0
  2 35  1  0
  3 36  1  0
  6 37  1  0
  7 38  1  0
  7 39  1  0
  8 40  1  0
  8 41  1  0
 11 42  1  0
 13 43  1  0
 14 44  1  6
 15 45  1  0
 15 46  1  0
 16 47  1  0
 16 48  1  0
 17 49  1  0
 17 50  1  0
 18 51  1  0
 19 52  1  0
 19 53  1  0
 23 54  1  0
 23 55  1  0
 24 56  1  0
 24 57  1  0
 26 58  1  0
 27 59  1  0
 28 60  1  0
 29 61  1  0
 31 62  1  0
 31 63  1  0
 33 64  1  0
 33 65  1  0
M  END
>  <smiles>  (58) 
c1ccc2c(c1)CCN(c1cc(NC3CCCNC3)nc(N3CCc4ccccc4C3)n1)C2

>  <score_type>  (58) 
oracle

>  <origin>  (58) 
autodockgpu

>  <m_score__min__energy>  (58) 
-10.15

>  <m_primary>  (58) 
energy

>  <rmsd>  (58) 
7.777609315381974

>  <m_score__min__rmsd>  (58) 
7.777609315381974

>  <meeko>  (58) 
{"free_energy": -8.83, "intermolecular_energy": -10.02, "internal_energy": -1.06, "cluster_size": 41, "cluster_id": 1, "rank_in_cluster": 41}

>  <energy>  (58) 
-10.11

>  <cluster_rmsd>  (58) 
0.22

>  <cluster>  (58) 
1

$$$$

     RDKit          3D

 65 70  0  0  0  0  0  0  0  0999 V2000
  139.7280   67.8240  227.1160 C   0  0  0  0  0  0  0  0  0  0  0  0
  140.3290   68.8940  227.7350 C   0  0  0  0  0  0  0  0  0  0  0  0
  140.5750   70.0850  227.0820 C   0  0  0  0  0  0  0  0  0  0  0  0
  140.1850   70.1740  225.7430 C   0  0  0  0  0  0  0  0  0  0  0  0
  139.5820   69.1030  225.1160 C   0  0  0  0  0  0  0  0  0  0  0  0
  139.3440   67.9210  225.7840 C   0  0  0  0  0  0  0  0  0  0  0  0
  139.1720   69.2200  223.6790 C   0  0  0  0  0  0  0  0  0  0  0  0
  138.6490   70.6350  223.5270 C   0  0  0  0  0  0  0  0  0  0  0  0
  139.7830   71.5210  223.7730 N   0  0  0  0  0  0  0  0  0  0  0  0
  140.1950   72.4170  222.7510 C   0  0  0  0  0  0  0  0  0  0  0  0
  141.1030   72.0220  221.7890 C   0  0  0  0  0  0  0  0  0  0  0  0
  141.5370   72.8490  220.7760 C   0  0  0  0  0  0  0  0  0  0  0  0
  142.4690   72.4570  219.7820 N   0  0  0  0  0  0  0  0  0  0  0  0
  143.7340   73.1330  219.5740 C   0  0  1  0  0  0  0  0  0  0  0  0
  144.2460   73.7890  220.8380 C   0  0  0  0  0  0  0  0  0  0  0  0
  145.6150   74.3380  220.5800 C   0  0  0  0  0  0  0  0  0  0  0  0
  146.5480   73.3630  219.9130 C   0  0  0  0  0  0  0  0  0  0  0  0
  145.9330   72.8070  218.6960 N   0  0  0  0  0  0  0  0  0  0  0  0
  144.7620   72.0920  219.1700 C   0  0  0  0  0  0  0  0  0  0  0  0
  141.0130   74.1040  220.7710 N   0  0  0  0  0  0  0  0  0  0  0  0
  140.1240   74.5030  221.7050 C   0  0  0  0  0  0  0  0  0  0  0  0
  139.5640   75.8230  221.7100 N   0  0  0  0  0  0  0  0  0  0  0  0
  140.3400   76.9840  221.3170 C   0  0  0  0  0  0  0  0  0  0  0  0
  140.4220   77.9620  222.4740 C   0  0  0  0  0  0  0  0  0  0  0  0
  139.0080   78.3250  222.8090 C   0  0  0  0  0  0  0  0  0  0  0  0
  138.8080   79.5990  223.2960 C   0  0  0  0  0  0  0  0  0  0  0  0
  137.5270   79.9780  223.6180 C   0  0  0  0  0  0  0  0  0  0  0  0
  136.4880   79.0940  223.4520 C   0  0  0  0  0  0  0  0  0  0  0  0
  136.7190   77.8170  222.9590 C   0  0  0  0  0  0  0  0  0  0  0  0
  137.9920   77.4110  222.6290 C   0  0  0  0  0  0  0  0  0  0  0  0
  138.1960   76.0420  222.1070 C   0  0  0  0  0  0  0  0  0  0  0  0
  139.7220   73.6530  222.6900 N   0  0  0  0  0  0  0  0  0  0  0  0
  140.4560   71.4660  225.0500 C   0  0  0  0  0  0  0  0  0  0  0  0
  139.5513   66.8926  227.6740 H   0  0  0  0  0  0  0  0  0  0  0  0
  140.6250   68.7976  228.7900 H   0  0  0  0  0  0  0  0  0  0  0  0
  141.0583   70.9297  227.5947 H   0  0  0  0  0  0  0  0  0  0  0  0
  138.8612   67.0741  225.2745 H   0  0  0  0  0  0  0  0  0  0  0  0
  140.0350   69.0549  223.0173 H   0  0  0  0  0  0  0  0  0  0  0  0
  138.4142   68.4708  223.4061 H   0  0  0  0  0  0  0  0  0  0  0  0
  138.2589   70.7894  222.5102 H   0  0  0  0  0  0  0  0  0  0  0  0
  137.8267   70.8344  224.2299 H   0  0  0  0  0  0  0  0  0  0  0  0
  141.4994   70.9969  221.8334 H   0  0  0  0  0  0  0  0  0  0  0  0
  142.1820   71.6230  219.1880 H   0  0  0  0  0  0  0  0  0  0  0  0
  143.5803   73.9065  218.8072 H   0  0  0  0  0  0  0  0  0  0  0  0
  143.5697   74.6059  221.1299 H   0  0  0  0  0  0  0  0  0  0  0  0
  144.2886   73.0489  221.6507 H   0  0  0  0  0  0  0  0  0  0  0  0
  145.5172   75.2219  219.9326 H   0  0  0  0  0  0  0  0  0  0  0  0
  146.0523   74.5784  221.5603 H   0  0  0  0  0  0  0  0  0  0  0  0
  147.4798   73.8814  219.6427 H   0  0  0  0  0  0  0  0  0  0  0  0
  146.7593   72.5399  220.6114 H   0  0  0  0  0  0  0  0  0  0  0  0
  145.6000   73.6010  218.1160 H   0  0  0  0  0  0  0  0  0  0  0  0
  144.3590   71.4555  218.3685 H   0  0  0  0  0  0  0  0  0  0  0  0
  145.0178   71.4446  220.0217 H   0  0  0  0  0  0  0  0  0  0  0  0
  141.3546   76.6667  221.0343 H   0  0  0  0  0  0  0  0  0  0  0  0
  139.8532   77.4738  220.4608 H   0  0  0  0  0  0  0  0  0  0  0  0
  140.9107   77.4903  223.3392 H   0  0  0  0  0  0  0  0  0  0  0  0
  141.0140   78.8505  222.2092 H   0  0  0  0  0  0  0  0  0  0  0  0
  139.6513   80.2937  223.4235 H   0  0  0  0  0  0  0  0  0  0  0  0
  137.3334   80.9881  224.0083 H   0  0  0  0  0  0  0  0  0  0  0  0
  135.4642   79.4010  223.7121 H   0  0  0  0  0  0  0  0  0  0  0  0
  135.8758   77.1223  222.8308 H   0  0  0  0  0  0  0  0  0  0  0  0
  137.9319   75.3179  222.8918 H   0  0  0  0  0  0  0  0  0  0  0  0
  137.5563   75.9130  221.2214 H   0  0  0  0  0  0  0  0  0  0  0  0
  141.5395   71.5677  224.8900 H   0  0  0  0  0  0  0  0  0  0  0  0
  140.0800   72.2862  225.6793 H   0  0  0  0  0  0  0  0  0  0  0  0
  1  2  2  0
  2  3  1  0
  3  4  2  0
  4  5  1  0
  5  6  2  0
  5  7  1  0
  7  8  1  0
  8  9  1  0
  9 10  1  0
 10 11  2  0
 11 12  1  0
 12 13  1  0
 13 14  1  0
 14 15  1  0
 15 16  1  0
 16 17  1  0
 17 18  1  0
 18 19  1  0
 12 20  2  0
 20 21  1  0
 21 22  1  0
 22 23  1  0
 23 24  1  0
 24 25  1  0
 25 26  2  0
 26 27  1  0
 27 28  2  0
 28 29  1  0
 29 30  2  0
 30 31  1  0
 21 32  2  0
  9 33  1  0
  6  1  1  0
 32 10  1  0
 33  4  1  0
 19 14  1  0
 31 22  1  0
 30 25  1  0
  1 34  1  0
  2 35  1  0
  3 36  1  0
  6 37  1  0
  7 38  1  0
  7 39  1  0
  8 40  1  0
  8 41  1  0
 11 42  1  0
 13 43  1  0
 14 44  1  6
 15 45  1  0
 15 46  1  0
 16 47  1  0
 16 48  1  0
 17 49  1  0
 17 50  1  0
 18 51  1  0
 19 52  1  0
 19 53  1  0
 23 54  1  0
 23 55  1  0
 24 56  1  0
 24 57  1  0
 26 58  1  0
 27 59  1  0
 28 60  1  0
 29 61  1  0
 31 62  1  0
 31 63  1  0
 33 64  1  0
 33 65  1  0
M  END
>  <smiles>  (59) 
c1ccc2c(c1)CCN(c1cc(NC3CCCNC3)nc(N3CCc4ccccc4C3)n1)C2

>  <score_type>  (59) 
oracle

>  <origin>  (59) 
autodockgpu

>  <m_score__min__energy>  (59) 
-10.15

>  <m_primary>  (59) 
energy

>  <rmsd>  (59) 
6.363061640666983

>  <m_score__min__rmsd>  (59) 
6.363061640666983

>  <meeko>  (59) 
{"free_energy": -9.73, "intermolecular_energy": -10.93, "internal_energy": -1.06, "cluster_size": 41, "cluster_id": 1, "rank_in_cluster": 22}

>  <energy>  (59) 
-10.1

>  <cluster_rmsd>  (59) 
0.41

>  <cluster>  (59) 
1

$$$$

     RDKit          3D

 65 70  0  0  0  0  0  0  0  0999 V2000
  139.6070   68.4890  227.5480 C   0  0  0  0  0  0  0  0  0  0  0  0
  140.2560   69.6090  228.0130 C   0  0  0  0  0  0  0  0  0  0  0  0
  140.6140   70.6540  227.1850 C   0  0  0  0  0  0  0  0  0  0  0  0
  140.2900   70.5390  225.8310 C   0  0  0  0  0  0  0  0  0  0  0  0
  139.6390   69.4170  225.3590 C   0  0  0  0  0  0  0  0  0  0  0  0
  139.2890   68.3830  226.2000 C   0  0  0  0  0  0  0  0  0  0  0  0
  139.3010   69.3140  223.9020 C   0  0  0  0  0  0  0  0  0  0  0  0
  138.8860   70.7130  223.4890 C   0  0  0  0  0  0  0  0  0  0  0  0
  140.0690   71.5550  223.6460 N   0  0  0  0  0  0  0  0  0  0  0  0
  140.5880   72.2370  222.5130 C   0  0  0  0  0  0  0  0  0  0  0  0
  141.2870   71.5550  221.5370 C   0  0  0  0  0  0  0  0  0  0  0  0
  141.8110   72.1670  220.4180 C   0  0  0  0  0  0  0  0  0  0  0  0
  142.5320   71.4790  219.4090 N   0  0  0  0  0  0  0  0  0  0  0  0
  143.8100   70.8390  219.6470 C   0  0  1  0  0  0  0  0  0  0  0  0
  143.8310   69.4060  219.1630 C   0  0  0  0  0  0  0  0  0  0  0  0
  145.2190   68.8640  219.3110 C   0  0  0  0  0  0  0  0  0  0  0  0
  146.2900   69.7670  218.7610 C   0  0  0  0  0  0  0  0  0  0  0  0
  146.1600   71.1230  219.3190 N   0  0  0  0  0  0  0  0  0  0  0  0
  144.8660   71.5890  218.8550 C   0  0  0  0  0  0  0  0  0  0  0  0
  141.6000   73.5060  220.3220 N   0  0  0  0  0  0  0  0  0  0  0  0
  140.9180   74.1850  221.2680 C   0  0  0  0  0  0  0  0  0  0  0  0
  140.6870   75.5970  221.1770 N   0  0  0  0  0  0  0  0  0  0  0  0
  140.7430   76.3010  219.9100 C   0  0  0  0  0  0  0  0  0  0  0  0
  141.8230   77.3650  219.9610 C   0  0  0  0  0  0  0  0  0  0  0  0
  141.4500   78.2780  221.0880 C   0  0  0  0  0  0  0  0  0  0  0  0
  141.8140   79.6000  220.9440 C   0  0  0  0  0  0  0  0  0  0  0  0
  141.4940   80.4760  221.9540 C   0  0  0  0  0  0  0  0  0  0  0  0
  140.8290   80.0240  223.0680 C   0  0  0  0  0  0  0  0  0  0  0  0
  140.4750   78.6880  223.1860 C   0  0  0  0  0  0  0  0  0  0  0  0
  140.7830   77.7890  222.1910 C   0  0  0  0  0  0  0  0  0  0  0  0
  140.3880   76.3730  222.3550 C   0  0  0  0  0  0  0  0  0  0  0  0
  140.4170   73.5410  222.3590 N   0  0  0  0  0  0  0  0  0  0  0  0
  140.6810   71.6740  224.9490 C   0  0  0  0  0  0  0  0  0  0  0  0
  139.3402   67.6786  228.2424 H   0  0  0  0  0  0  0  0  0  0  0  0
  140.4987   69.6744  229.0839 H   0  0  0  0  0  0  0  0  0  0  0  0
  141.1334   71.5414  227.5757 H   0  0  0  0  0  0  0  0  0  0  0  0
  138.7697   67.4940  225.8127 H   0  0  0  0  0  0  0  0  0  0  0  0
  140.1782   68.9859  223.3250 H   0  0  0  0  0  0  0  0  0  0  0  0
  138.5050   68.5779  223.7161 H   0  0  0  0  0  0  0  0  0  0  0  0
  138.5519   70.7173  222.4410 H   0  0  0  0  0  0  0  0  0  0  0  0
  138.0502   71.0796  224.1030 H   0  0  0  0  0  0  0  0  0  0  0  0
  141.4329   70.4714  221.6579 H   0  0  0  0  0  0  0  0  0  0  0  0
  142.0720   71.4590  218.4500 H   0  0  0  0  0  0  0  0  0  0  0  0
  143.9960   70.8515  220.7311 H   0  0  0  0  0  0  0  0  0  0  0  0
  143.1334   68.8034  219.7631 H   0  0  0  0  0  0  0  0  0  0  0  0
  143.5256   69.3649  218.1070 H   0  0  0  0  0  0  0  0  0  0  0  0
  145.4162   68.7054  220.3815 H   0  0  0  0  0  0  0  0  0  0  0  0
  145.2601   67.9307  218.7303 H   0  0  0  0  0  0  0  0  0  0  0  0
  147.2771   69.3601  219.0255 H   0  0  0  0  0  0  0  0  0  0  0  0
  146.1818   69.8211  217.6677 H   0  0  0  0  0  0  0  0  0  0  0  0
  146.1110   71.0400  220.3520 H   0  0  0  0  0  0  0  0  0  0  0  0
  144.7702   72.6709  219.0289 H   0  0  0  0  0  0  0  0  0  0  0  0
  144.7485   71.4071  217.7765 H   0  0  0  0  0  0  0  0  0  0  0  0
  140.9716   75.5869  219.1052 H   0  0  0  0  0  0  0  0  0  0  0  0
  139.7712   76.7787  219.7165 H   0  0  0  0  0  0  0  0  0  0  0  0
  142.8041   76.9050  220.1504 H   0  0  0  0  0  0  0  0  0  0  0  0
  141.8969   77.9101  219.0084 H   0  0  0  0  0  0  0  0  0  0  0  0
  142.3462   79.9445  220.0451 H   0  0  0  0  0  0  0  0  0  0  0  0
  141.7701   81.5375  221.8703 H   0  0  0  0  0  0  0  0  0  0  0  0
  140.5749   80.7282  223.8739 H   0  0  0  0  0  0  0  0  0  0  0  0
  139.9423   78.3436  224.0847 H   0  0  0  0  0  0  0  0  0  0  0  0
  140.9332   75.9474  223.2103 H   0  0  0  0  0  0  0  0  0  0  0  0
  139.3015   76.3369  222.5233 H   0  0  0  0  0  0  0  0  0  0  0  0
  141.7749   71.6785  224.8331 H   0  0  0  0  0  0  0  0  0  0  0  0
  140.3373   72.6107  225.4121 H   0  0  0  0  0  0  0  0  0  0  0  0
  1  2  2  0
  2  3  1  0
  3  4  2  0
  4  5  1  0
  5  6  2  0
  5  7  1  0
  7  8  1  0
  8  9  1  0
  9 10  1  0
 10 11  2  0
 11 12  1  0
 12 13  1  0
 13 14  1  0
 14 15  1  0
 15 16  1  0
 16 17  1  0
 17 18  1  0
 18 19  1  0
 12 20  2  0
 20 21  1  0
 21 22  1  0
 22 23  1  0
 23 24  1  0
 24 25  1  0
 25 26  2  0
 26 27  1  0
 27 28  2  0
 28 29  1  0
 29 30  2  0
 30 31  1  0
 21 32  2  0
  9 33  1  0
  6  1  1  0
 32 10  1  0
 33  4  1  0
 19 14  1  0
 31 22  1  0
 30 25  1  0
  1 34  1  0
  2 35  1  0
  3 36  1  0
  6 37  1  0
  7 38  1  0
  7 39  1  0
  8 40  1  0
  8 41  1  0
 11 42  1  0
 13 43  1  0
 14 44  1  1
 15 45  1  0
 15 46  1  0
 16 47  1  0
 16 48  1  0
 17 49  1  0
 17 50  1  0
 18 51  1  0
 19 52  1  0
 19 53  1  0
 23 54  1  0
 23 55  1  0
 24 56  1  0
 24 57  1  0
 26 58  1  0
 27 59  1  0
 28 60  1  0
 29 61  1  0
 31 62  1  0
 31 63  1  0
 33 64  1  0
 33 65  1  0
M  END
>  <smiles>  (60) 
c1ccc2c(c1)CCN(c1cc(NC3CCCNC3)nc(N3CCc4ccccc4C3)n1)C2

>  <score_type>  (60) 
oracle

>  <origin>  (60) 
autodockgpu

>  <m_score__min__energy>  (60) 
-10.15

>  <m_primary>  (60) 
energy

>  <rmsd>  (60) 
8.898583135251384

>  <m_score__min__rmsd>  (60) 
8.898583135251384

>  <meeko>  (60) 
{"free_energy": -10.1, "intermolecular_energy": -11.29, "internal_energy": -0.93, "cluster_size": 41, "cluster_id": 1, "rank_in_cluster": 9}

>  <energy>  (60) 
-10.1

>  <cluster_rmsd>  (60) 
0.21

>  <cluster>  (60) 
1

$$$$

     RDKit          3D

 65 70  0  0  0  0  0  0  0  0999 V2000
  139.8270   68.6590  227.8830 C   0  0  0  0  0  0  0  0  0  0  0  0
  140.4210   69.8410  228.2590 C   0  0  0  0  0  0  0  0  0  0  0  0
  140.7100   70.8440  227.3560 C   0  0  0  0  0  0  0  0  0  0  0  0
  140.3730   70.6200  226.0190 C   0  0  0  0  0  0  0  0  0  0  0  0
  139.7760   69.4350  225.6360 C   0  0  0  0  0  0  0  0  0  0  0  0
  139.4950   68.4440  226.5510 C   0  0  0  0  0  0  0  0  0  0  0  0
  139.4230   69.2150  224.1960 C   0  0  0  0  0  0  0  0  0  0  0  0
  138.9280   70.5590  223.6970 C   0  0  0  0  0  0  0  0  0  0  0  0
  140.0660   71.4700  223.7740 N   0  0  0  0  0  0  0  0  0  0  0  0
  140.5310   72.0990  222.5880 C   0  0  0  0  0  0  0  0  0  0  0  0
  141.1430   71.3650  221.5930 C   0  0  0  0  0  0  0  0  0  0  0  0
  141.6120   71.9240  220.4230 C   0  0  0  0  0  0  0  0  0  0  0  0
  142.2430   71.1820  219.3930 N   0  0  0  0  0  0  0  0  0  0  0  0
  142.9000   69.9110  219.6230 C   0  0  1  0  0  0  0  0  0  0  0  0
  142.3850   68.8260  218.7020 C   0  0  0  0  0  0  0  0  0  0  0  0
  143.2070   67.5900  218.9010 C   0  0  0  0  0  0  0  0  0  0  0  0
  144.6930   67.8340  218.8760 C   0  0  0  0  0  0  0  0  0  0  0  0
  145.0580   68.9030  219.8190 N   0  0  0  0  0  0  0  0  0  0  0  0
  144.3780   70.0830  219.3190 C   0  0  0  0  0  0  0  0  0  0  0  0
  141.4360   73.2660  220.2970 N   0  0  0  0  0  0  0  0  0  0  0  0
  140.8390   73.9960  221.2620 C   0  0  0  0  0  0  0  0  0  0  0  0
  140.6480   75.4120  221.1400 N   0  0  0  0  0  0  0  0  0  0  0  0
  140.8960   76.1110  219.8940 C   0  0  0  0  0  0  0  0  0  0  0  0
  141.9740   77.1580  220.0990 C   0  0  0  0  0  0  0  0  0  0  0  0
  141.4600   78.0800  221.1620 C   0  0  0  0  0  0  0  0  0  0  0  0
  141.8620   79.3950  221.0710 C   0  0  0  0  0  0  0  0  0  0  0  0
  141.4160   80.2780  222.0250 C   0  0  0  0  0  0  0  0  0  0  0  0
  140.5900   79.8400  223.0330 C   0  0  0  0  0  0  0  0  0  0  0  0
  140.2010   78.5090  223.0980 C   0  0  0  0  0  0  0  0  0  0  0  0
  140.6330   77.6040  222.1570 C   0  0  0  0  0  0  0  0  0  0  0  0
  140.1960   76.1950  222.2620 C   0  0  0  0  0  0  0  0  0  0  0  0
  140.3910   73.4030  222.4030 N   0  0  0  0  0  0  0  0  0  0  0  0
  140.6900   71.7110  225.0550 C   0  0  0  0  0  0  0  0  0  0  0  0
  139.6151   67.8851  228.6354 H   0  0  0  0  0  0  0  0  0  0  0  0
  140.6751   69.9926  229.3184 H   0  0  0  0  0  0  0  0  0  0  0  0
  141.1866   71.7822  227.6763 H   0  0  0  0  0  0  0  0  0  0  0  0
  139.0188   67.5043  226.2343 H   0  0  0  0  0  0  0  0  0  0  0  0
  140.3080   68.8945  223.6267 H   0  0  0  0  0  0  0  0  0  0  0  0
  138.6649   68.4273  224.0747 H   0  0  0  0  0  0  0  0  0  0  0  0
  138.5781   70.4739  222.6576 H   0  0  0  0  0  0  0  0  0  0  0  0
  138.0835   70.9229  224.3007 H   0  0  0  0  0  0  0  0  0  0  0  0
  141.2626   70.2815  221.7401 H   0  0  0  0  0  0  0  0  0  0  0  0
  142.2060   71.6190  218.4240 H   0  0  0  0  0  0  0  0  0  0  0  0
  142.7066   69.6165  220.6650 H   0  0  0  0  0  0  0  0  0  0  0  0
  141.3321   68.6111  218.9372 H   0  0  0  0  0  0  0  0  0  0  0  0
  142.4595   69.1586  217.6561 H   0  0  0  0  0  0  0  0  0  0  0  0
  142.9443   67.1527  219.8755 H   0  0  0  0  0  0  0  0  0  0  0  0
  142.9800   66.9172  218.0608 H   0  0  0  0  0  0  0  0  0  0  0  0
  145.2162   66.9085  219.1585 H   0  0  0  0  0  0  0  0  0  0  0  0
  144.9850   68.1414  217.8610 H   0  0  0  0  0  0  0  0  0  0  0  0
  144.6440   68.6700  220.7410 H   0  0  0  0  0  0  0  0  0  0  0  0
  144.7642   70.9821  219.8215 H   0  0  0  0  0  0  0  0  0  0  0  0
  144.5436   70.2009  218.2379 H   0  0  0  0  0  0  0  0  0  0  0  0
  141.2264   75.3911  219.1307 H   0  0  0  0  0  0  0  0  0  0  0  0
  139.9697   76.6030  219.5626 H   0  0  0  0  0  0  0  0  0  0  0  0
  142.9106   76.6828  220.4259 H   0  0  0  0  0  0  0  0  0  0  0  0
  142.1905   77.7002  219.1667 H   0  0  0  0  0  0  0  0  0  0  0  0
  142.5220   79.7289  220.2568 H   0  0  0  0  0  0  0  0  0  0  0  0
  141.7197   81.3344  221.9821 H   0  0  0  0  0  0  0  0  0  0  0  0
  140.2345   80.5500  223.7942 H   0  0  0  0  0  0  0  0  0  0  0  0
  139.5400   78.1746  223.9111 H   0  0  0  0  0  0  0  0  0  0  0  0
  140.6058   75.7626  223.1867 H   0  0  0  0  0  0  0  0  0  0  0  0
  139.0962   76.1768  222.2721 H   0  0  0  0  0  0  0  0  0  0  0  0
  141.7802   71.7650  224.9192 H   0  0  0  0  0  0  0  0  0  0  0  0
  140.3037   72.6582  225.4595 H   0  0  0  0  0  0  0  0  0  0  0  0
  1  2  2  0
  2  3  1  0
  3  4  2  0
  4  5  1  0
  5  6  2  0
  5  7  1  0
  7  8  1  0
  8  9  1  0
  9 10  1  0
 10 11  2  0
 11 12  1  0
 12 13  1  0
 13 14  1  0
 14 15  1  0
 15 16  1  0
 16 17  1  0
 17 18  1  0
 18 19  1  0
 12 20  2  0
 20 21  1  0
 21 22  1  0
 22 23  1  0
 23 24  1  0
 24 25  1  0
 25 26  2  0
 26 27  1  0
 27 28  2  0
 28 29  1  0
 29 30  2  0
 30 31  1  0
 21 32  2  0
  9 33  1  0
  6  1  1  0
 32 10  1  0
 33  4  1  0
 19 14  1  0
 31 22  1  0
 30 25  1  0
  1 34  1  0
  2 35  1  0
  3 36  1  0
  6 37  1  0
  7 38  1  0
  7 39  1  0
  8 40  1  0
  8 41  1  0
 11 42  1  0
 13 43  1  0
 14 44  1  1
 15 45  1  0
 15 46  1  0
 16 47  1  0
 16 48  1  0
 17 49  1  0
 17 50  1  0
 18 51  1  0
 19 52  1  0
 19 53  1  0
 23 54  1  0
 23 55  1  0
 24 56  1  0
 24 57  1  0
 26 58  1  0
 27 59  1  0
 28 60  1  0
 29 61  1  0
 31 62  1  0
 31 63  1  0
 33 64  1  0
 33 65  1  0
M  END
>  <smiles>  (61) 
c1ccc2c(c1)CCN(c1cc(NC3CCCNC3)nc(N3CCc4ccccc4C3)n1)C2

>  <score_type>  (61) 
oracle

>  <origin>  (61) 
autodockgpu

>  <m_score__min__energy>  (61) 
-10.15

>  <m_primary>  (61) 
energy

>  <rmsd>  (61) 
9.598598537859196

>  <m_score__min__rmsd>  (61) 
9.598598537859196

>  <meeko>  (61) 
{"free_energy": -9.52, "intermolecular_energy": -10.71, "internal_energy": -0.95, "cluster_size": 41, "cluster_id": 1, "rank_in_cluster": 28}

>  <energy>  (61) 
-10.06

>  <cluster_rmsd>  (61) 
0.49

>  <cluster>  (61) 
1

$$$$

     RDKit          3D

 65 70  0  0  0  0  0  0  0  0999 V2000
  139.1710   68.1780  225.8430 C   0  0  0  0  0  0  0  0  0  0  0  0
  139.9160   69.0520  226.5990 C   0  0  0  0  0  0  0  0  0  0  0  0
  140.3450   70.2710  226.1140 C   0  0  0  0  0  0  0  0  0  0  0  0
  139.9930   70.5990  224.8020 C   0  0  0  0  0  0  0  0  0  0  0  0
  139.2460   69.7250  224.0380 C   0  0  0  0  0  0  0  0  0  0  0  0
  138.8250   68.5120  224.5400 C   0  0  0  0  0  0  0  0  0  0  0  0
  138.8780   70.0970  222.6330 C   0  0  0  0  0  0  0  0  0  0  0  0
  138.5730   71.5820  222.6810 C   0  0  0  0  0  0  0  0  0  0  0  0
  139.8230   72.2470  223.0380 N   0  0  0  0  0  0  0  0  0  0  0  0
  140.3790   73.2020  222.1460 C   0  0  0  0  0  0  0  0  0  0  0  0
  141.1080   72.8000  221.0450 C   0  0  0  0  0  0  0  0  0  0  0  0
  141.6680   73.6840  220.1480 C   0  0  0  0  0  0  0  0  0  0  0  0
  142.4200   73.2850  219.0140 N   0  0  0  0  0  0  0  0  0  0  0  0
  143.8670   73.1970  219.0160 C   0  0  1  0  0  0  0  0  0  0  0  0
  144.4860   73.9990  220.1400 C   0  0  0  0  0  0  0  0  0  0  0  0
  145.9610   73.7420  220.1620 C   0  0  0  0  0  0  0  0  0  0  0  0
  146.3290   72.2830  220.1060 C   0  0  0  0  0  0  0  0  0  0  0  0
  145.6680   71.6270  218.9660 N   0  0  0  0  0  0  0  0  0  0  0  0
  144.2490   71.7450  219.2460 C   0  0  0  0  0  0  0  0  0  0  0  0
  141.4610   75.0020  220.4080 N   0  0  0  0  0  0  0  0  0  0  0  0
  140.7500   75.4090  221.4800 C   0  0  0  0  0  0  0  0  0  0  0  0
  140.5240   76.7970  221.7630 N   0  0  0  0  0  0  0  0  0  0  0  0
  139.7510   77.6420  220.8740 C   0  0  0  0  0  0  0  0  0  0  0  0
  140.6140   78.7860  220.3760 C   0  0  0  0  0  0  0  0  0  0  0  0
  141.0640   79.5270  221.5970 C   0  0  0  0  0  0  0  0  0  0  0  0
  141.2570   80.8840  221.4470 C   0  0  0  0  0  0  0  0  0  0  0  0
  141.6710   81.6060  222.5400 C   0  0  0  0  0  0  0  0  0  0  0  0
  141.8810   80.9720  223.7410 C   0  0  0  0  0  0  0  0  0  0  0  0
  141.6790   79.6050  223.8630 C   0  0  0  0  0  0  0  0  0  0  0  0
  141.2650   78.8570  222.7850 C   0  0  0  0  0  0  0  0  0  0  0  0
  141.0620   77.4020  222.9560 C   0  0  0  0  0  0  0  0  0  0  0  0
  140.2130   74.5020  222.3420 N   0  0  0  0  0  0  0  0  0  0  0  0
  140.4620   71.9180  224.2910 C   0  0  0  0  0  0  0  0  0  0  0  0
  138.8497   67.2162  226.2693 H   0  0  0  0  0  0  0  0  0  0  0  0
  140.1800   68.7692  227.6287 H   0  0  0  0  0  0  0  0  0  0  0  0
  140.9400   70.9566  226.7352 H   0  0  0  0  0  0  0  0  0  0  0  0
  138.2285   67.8242  223.9226 H   0  0  0  0  0  0  0  0  0  0  0  0
  139.7161   69.8974  221.9491 H   0  0  0  0  0  0  0  0  0  0  0  0
  138.0216   69.5134  222.2644 H   0  0  0  0  0  0  0  0  0  0  0  0
  138.2235   71.9308  221.6980 H   0  0  0  0  0  0  0  0  0  0  0  0
  137.7803   71.8034  223.4108 H   0  0  0  0  0  0  0  0  0  0  0  0
  141.2488   71.7223  220.8753 H   0  0  0  0  0  0  0  0  0  0  0  0
  141.8520   73.0490  218.1460 H   0  0  0  0  0  0  0  0  0  0  0  0
  144.2304   73.5901  218.0550 H   0  0  0  0  0  0  0  0  0  0  0  0
  144.3000   75.0706  219.9753 H   0  0  0  0  0  0  0  0  0  0  0  0
  144.0407   73.7008  221.1006 H   0  0  0  0  0  0  0  0  0  0  0  0
  146.4130   74.2463  219.2952 H   0  0  0  0  0  0  0  0  0  0  0  0
  146.3373   74.1287  221.1206 H   0  0  0  0  0  0  0  0  0  0  0  0
  147.4193   72.1889  219.9952 H   0  0  0  0  0  0  0  0  0  0  0  0
  145.9985   71.7972  221.0360 H   0  0  0  0  0  0  0  0  0  0  0  0
  145.8670   72.1870  218.1160 H   0  0  0  0  0  0  0  0  0  0  0  0
  143.6758   71.0927  218.5708 H   0  0  0  0  0  0  0  0  0  0  0  0
  144.0276   71.4412  220.2798 H   0  0  0  0  0  0  0  0  0  0  0  0
  139.4016   77.0477  220.0168 H   0  0  0  0  0  0  0  0  0  0  0  0
  138.8863   78.0488  221.4189 H   0  0  0  0  0  0  0  0  0  0  0  0
  141.4821   78.3972  219.8235 H   0  0  0  0  0  0  0  0  0  0  0  0
  140.0570   79.4412  219.6901 H   0  0  0  0  0  0  0  0  0  0  0  0
  141.0841   81.3753  220.4781 H   0  0  0  0  0  0  0  0  0  0  0  0
  141.8342   82.6904  222.4539 H   0  0  0  0  0  0  0  0  0  0  0  0
  142.2123   81.5539  224.6137 H   0  0  0  0  0  0  0  0  0  0  0  0
  141.8517   79.1138  224.8320 H   0  0  0  0  0  0  0  0  0  0  0  0
  142.0286   76.9318  223.1899 H   0  0  0  0  0  0  0  0  0  0  0  0
  140.3424   77.2489  223.7737 H   0  0  0  0  0  0  0  0  0  0  0  0
  141.5508   71.8781  224.1395 H   0  0  0  0  0  0  0  0  0  0  0  0
  140.2026   72.6911  225.0292 H   0  0  0  0  0  0  0  0  0  0  0  0
  1  2  2  0
  2  3  1  0
  3  4  2  0
  4  5  1  0
  5  6  2  0
  5  7  1  0
  7  8  1  0
  8  9  1  0
  9 10  1  0
 10 11  2  0
 11 12  1  0
 12 13  1  0
 13 14  1  0
 14 15  1  0
 15 16  1  0
 16 17  1  0
 17 18  1  0
 18 19  1  0
 12 20  2  0
 20 21  1  0
 21 22  1  0
 22 23  1  0
 23 24  1  0
 24 25  1  0
 25 26  2  0
 26 27  1  0
 27 28  2  0
 28 29  1  0
 29 30  2  0
 30 31  1  0
 21 32  2  0
  9 33  1  0
  6  1  1  0
 32 10  1  0
 33  4  1  0
 19 14  1  0
 31 22  1  0
 30 25  1  0
  1 34  1  0
  2 35  1  0
  3 36  1  0
  6 37  1  0
  7 38  1  0
  7 39  1  0
  8 40  1  0
  8 41  1  0
 11 42  1  0
 13 43  1  0
 14 44  1  6
 15 45  1  0
 15 46  1  0
 16 47  1  0
 16 48  1  0
 17 49  1  0
 17 50  1  0
 18 51  1  0
 19 52  1  0
 19 53  1  0
 23 54  1  0
 23 55  1  0
 24 56  1  0
 24 57  1  0
 26 58  1  0
 27 59  1  0
 28 60  1  0
 29 61  1  0
 31 62  1  0
 31 63  1  0
 33 64  1  0
 33 65  1  0
M  END
>  <smiles>  (62) 
c1ccc2c(c1)CCN(c1cc(NC3CCCNC3)nc(N3CCc4ccccc4C3)n1)C2

>  <score_type>  (62) 
oracle

>  <origin>  (62) 
autodockgpu

>  <m_score__min__energy>  (62) 
-10.15

>  <m_primary>  (62) 
energy

>  <rmsd>  (62) 
6.552990595455724

>  <m_score__min__rmsd>  (62) 
6.552990595455724

>  <meeko>  (62) 
{"free_energy": -9.41, "intermolecular_energy": -10.6, "internal_energy": -1.08, "cluster_size": 41, "cluster_id": 1, "rank_in_cluster": 33}

>  <energy>  (62) 
-10.06

>  <cluster_rmsd>  (62) 
0.52

>  <cluster>  (62) 
1

$$$$

     RDKit          3D

 65 70  0  0  0  0  0  0  0  0999 V2000
  138.0670   81.6210  223.2550 C   0  0  0  0  0  0  0  0  0  0  0  0
  137.0500   80.7030  223.3730 C   0  0  0  0  0  0  0  0  0  0  0  0
  137.2450   79.3520  223.1690 C   0  0  0  0  0  0  0  0  0  0  0  0
  138.5350   78.9340  222.8310 C   0  0  0  0  0  0  0  0  0  0  0  0
  139.5590   79.8510  222.7110 C   0  0  0  0  0  0  0  0  0  0  0  0
  139.3470   81.1970  222.9190 C   0  0  0  0  0  0  0  0  0  0  0  0
  140.9360   79.3810  222.3470 C   0  0  0  0  0  0  0  0  0  0  0  0
  141.1180   78.0700  223.0880 C   0  0  0  0  0  0  0  0  0  0  0  0
  140.1350   77.1440  222.5310 N   0  0  0  0  0  0  0  0  0  0  0  0
  140.5850   75.9420  221.9220 C   0  0  0  0  0  0  0  0  0  0  0  0
  141.5100   75.9720  220.8990 C   0  0  0  0  0  0  0  0  0  0  0  0
  141.9800   74.8370  220.2730 C   0  0  0  0  0  0  0  0  0  0  0  0
  142.9300   74.8530  219.2200 N   0  0  0  0  0  0  0  0  0  0  0  0
  144.3090   74.4420  219.3930 C   0  0  1  0  0  0  0  0  0  0  0  0
  144.6400   74.1450  220.8400 C   0  0  0  0  0  0  0  0  0  0  0  0
  146.0290   73.5920  220.9160 C   0  0  0  0  0  0  0  0  0  0  0  0
  146.3010   72.4860  219.9320 C   0  0  0  0  0  0  0  0  0  0  0  0
  145.9450   72.9070  218.5680 N   0  0  0  0  0  0  0  0  0  0  0  0
  144.5150   73.1520  218.6200 C   0  0  0  0  0  0  0  0  0  0  0  0
  141.4750   73.6590  220.7270 N   0  0  0  0  0  0  0  0  0  0  0  0
  140.5700   73.6150  221.7270 C   0  0  0  0  0  0  0  0  0  0  0  0
  140.0310   72.3790  222.2140 N   0  0  0  0  0  0  0  0  0  0  0  0
  138.7940   71.8280  221.6950 C   0  0  0  0  0  0  0  0  0  0  0  0
  137.7790   71.7000  222.8150 C   0  0  0  0  0  0  0  0  0  0  0  0
  138.4030   70.8020  223.8380 C   0  0  0  0  0  0  0  0  0  0  0  0
  137.5350   70.0130  224.5630 C   0  0  0  0  0  0  0  0  0  0  0  0
  138.0610   69.1720  225.5140 C   0  0  0  0  0  0  0  0  0  0  0  0
  139.4200   69.1350  225.7200 C   0  0  0  0  0  0  0  0  0  0  0  0
  140.2690   69.9410  224.9760 C   0  0  0  0  0  0  0  0  0  0  0  0
  139.7700   70.7920  224.0170 C   0  0  0  0  0  0  0  0  0  0  0  0
  140.7090   71.6350  223.2460 C   0  0  0  0  0  0  0  0  0  0  0  0
  140.1320   74.7620  222.3170 N   0  0  0  0  0  0  0  0  0  0  0  0
  138.7310   77.4730  222.6140 C   0  0  0  0  0  0  0  0  0  0  0  0
  137.8677   82.6891  223.4263 H   0  0  0  0  0  0  0  0  0  0  0  0
  136.0438   81.0586  223.6398 H   0  0  0  0  0  0  0  0  0  0  0  0
  136.4183   78.6332  223.2685 H   0  0  0  0  0  0  0  0  0  0  0  0
  140.1716   81.9185  222.8213 H   0  0  0  0  0  0  0  0  0  0  0  0
  141.0156   79.2245  221.2611 H   0  0  0  0  0  0  0  0  0  0  0  0
  141.7068   80.1172  222.6189 H   0  0  0  0  0  0  0  0  0  0  0  0
  142.1360   77.6832  222.9332 H   0  0  0  0  0  0  0  0  0  0  0  0
  140.9759   78.2000  224.1710 H   0  0  0  0  0  0  0  0  0  0  0  0
  141.8911   76.9489  220.5666 H   0  0  0  0  0  0  0  0  0  0  0  0
  142.5660   75.1890  218.2800 H   0  0  0  0  0  0  0  0  0  0  0  0
  144.9515   75.2625  219.0409 H   0  0  0  0  0  0  0  0  0  0  0  0
  144.5784   75.0710  221.4305 H   0  0  0  0  0  0  0  0  0  0  0  0
  143.9248   73.4129  221.2432 H   0  0  0  0  0  0  0  0  0  0  0  0
  146.7383   74.4101  220.7220 H   0  0  0  0  0  0  0  0  0  0  0  0
  146.1458   73.1604  221.9210 H   0  0  0  0  0  0  0  0  0  0  0  0
  147.3701   72.2289  219.9635 H   0  0  0  0  0  0  0  0  0  0  0  0
  145.6911   71.6118  220.2037 H   0  0  0  0  0  0  0  0  0  0  0  0
  146.4110   73.8160  218.3830 H   0  0  0  0  0  0  0  0  0  0  0  0
  144.1128   73.2546  217.6013 H   0  0  0  0  0  0  0  0  0  0  0  0
  143.9929   72.3161  219.1086 H   0  0  0  0  0  0  0  0  0  0  0  0
  138.3959   72.4945  220.9157 H   0  0  0  0  0  0  0  0  0  0  0  0
  138.9904   70.8338  221.2673 H   0  0  0  0  0  0  0  0  0  0  0  0
  137.5658   72.6867  223.2520 H   0  0  0  0  0  0  0  0  0  0  0  0
  136.8253   71.2919  222.4492 H   0  0  0  0  0  0  0  0  0  0  0  0
  136.4504   70.0557  224.3848 H   0  0  0  0  0  0  0  0  0  0  0  0
  137.3959   68.5294  226.1096 H   0  0  0  0  0  0  0  0  0  0  0  0
  139.8377   68.4601  226.4817 H   0  0  0  0  0  0  0  0  0  0  0  0
  141.3536   69.8993  225.1548 H   0  0  0  0  0  0  0  0  0  0  0  0
  141.1994   72.3417  223.9316 H   0  0  0  0  0  0  0  0  0  0  0  0
  141.4474   70.9761  222.7658 H   0  0  0  0  0  0  0  0  0  0  0  0
  138.2371   77.1796  221.6760 H   0  0  0  0  0  0  0  0  0  0  0  0
  138.2947   76.9313  223.4662 H   0  0  0  0  0  0  0  0  0  0  0  0
  1  2  2  0
  2  3  1  0
  3  4  2  0
  4  5  1  0
  5  6  2  0
  5  7  1  0
  7  8  1  0
  8  9  1  0
  9 10  1  0
 10 11  2  0
 11 12  1  0
 12 13  1  0
 13 14  1  0
 14 15  1  0
 15 16  1  0
 16 17  1  0
 17 18  1  0
 18 19  1  0
 12 20  2  0
 20 21  1  0
 21 22  1  0
 22 23  1  0
 23 24  1  0
 24 25  1  0
 25 26  2  0
 26 27  1  0
 27 28  2  0
 28 29  1  0
 29 30  2  0
 30 31  1  0
 21 32  2  0
  9 33  1  0
  6  1  1  0
 32 10  1  0
 33  4  1  0
 19 14  1  0
 31 22  1  0
 30 25  1  0
  1 34  1  0
  2 35  1  0
  3 36  1  0
  6 37  1  0
  7 38  1  0
  7 39  1  0
  8 40  1  0
  8 41  1  0
 11 42  1  0
 13 43  1  0
 14 44  1  6
 15 45  1  0
 15 46  1  0
 16 47  1  0
 16 48  1  0
 17 49  1  0
 17 50  1  0
 18 51  1  0
 19 52  1  0
 19 53  1  0
 23 54  1  0
 23 55  1  0
 24 56  1  0
 24 57  1  0
 26 58  1  0
 27 59  1  0
 28 60  1  0
 29 61  1  0
 31 62  1  0
 31 63  1  0
 33 64  1  0
 33 65  1  0
M  END
>  <smiles>  (63) 
c1ccc2c(c1)CCN(c1cc(NC3CCCNC3)nc(N3CCc4ccccc4C3)n1)C2

>  <score_type>  (63) 
oracle

>  <origin>  (63) 
autodockgpu

>  <m_score__min__energy>  (63) 
-10.15

>  <m_primary>  (63) 
energy

>  <rmsd>  (63) 
6.239205236947664

>  <m_score__min__rmsd>  (63) 
6.239205236947664

>  <meeko>  (63) 
{"free_energy": -9.24, "intermolecular_energy": -10.43, "internal_energy": -1.09, "cluster_size": 5, "cluster_id": 2, "rank_in_cluster": 5}

>  <energy>  (63) 
-10.05

>  <cluster_rmsd>  (63) 
0.52

>  <cluster>  (63) 
1

$$$$

     RDKit          3D

 65 70  0  0  0  0  0  0  0  0999 V2000
  139.1070   67.9930  225.5440 C   0  0  0  0  0  0  0  0  0  0  0  0
  139.7850   68.8630  226.3650 C   0  0  0  0  0  0  0  0  0  0  0  0
  140.1930   70.1130  225.9430 C   0  0  0  0  0  0  0  0  0  0  0  0
  139.8900   70.4760  224.6280 C   0  0  0  0  0  0  0  0  0  0  0  0
  139.2100   69.6060  223.8000 C   0  0  0  0  0  0  0  0  0  0  0  0
  138.8100   68.3620  224.2380 C   0  0  0  0  0  0  0  0  0  0  0  0
  138.8950   70.0170  222.3930 C   0  0  0  0  0  0  0  0  0  0  0  0
  138.5350   71.4870  222.4780 C   0  0  0  0  0  0  0  0  0  0  0  0
  139.7430   72.1800  222.9170 N   0  0  0  0  0  0  0  0  0  0  0  0
  140.3060   73.1860  222.0860 C   0  0  0  0  0  0  0  0  0  0  0  0
  141.0830   72.8480  220.9960 C   0  0  0  0  0  0  0  0  0  0  0  0
  141.6520   73.7830  220.1570 C   0  0  0  0  0  0  0  0  0  0  0  0
  142.4530   73.4500  219.0350 N   0  0  0  0  0  0  0  0  0  0  0  0
  143.8990   73.3770  219.0920 C   0  0  1  0  0  0  0  0  0  0  0  0
  144.4500   73.9340  220.3860 C   0  0  0  0  0  0  0  0  0  0  0  0
  145.9270   73.6920  220.4290 C   0  0  0  0  0  0  0  0  0  0  0  0
  146.3250   72.2800  220.0910 C   0  0  0  0  0  0  0  0  0  0  0  0
  145.7310   71.8670  218.8090 N   0  0  0  0  0  0  0  0  0  0  0  0
  144.2980   71.9130  219.0360 C   0  0  0  0  0  0  0  0  0  0  0  0
  141.4020   75.0830  220.4640 N   0  0  0  0  0  0  0  0  0  0  0  0
  140.6430   75.4270  221.5260 C   0  0  0  0  0  0  0  0  0  0  0  0
  140.3730   76.7960  221.8590 N   0  0  0  0  0  0  0  0  0  0  0  0
  139.3910   77.5780  221.1330 C   0  0  0  0  0  0  0  0  0  0  0  0
  140.0620   78.7800  220.4960 C   0  0  0  0  0  0  0  0  0  0  0  0
  140.6730   79.5580  221.6210 C   0  0  0  0  0  0  0  0  0  0  0  0
  140.7350   80.9240  221.4510 C   0  0  0  0  0  0  0  0  0  0  0  0
  141.2880   81.6800  222.4570 C   0  0  0  0  0  0  0  0  0  0  0  0
  141.7600   81.0680  223.5940 C   0  0  0  0  0  0  0  0  0  0  0  0
  141.6840   79.6900  223.7380 C   0  0  0  0  0  0  0  0  0  0  0  0
  141.1350   78.9090  222.7460 C   0  0  0  0  0  0  0  0  0  0  0  0
  141.0730   77.4440  222.9380 C   0  0  0  0  0  0  0  0  0  0  0  0
  140.1000   74.4710  222.3300 N   0  0  0  0  0  0  0  0  0  0  0  0
  140.3360   71.8270  224.1870 C   0  0  0  0  0  0  0  0  0  0  0  0
  138.8002   67.0061  225.9208 H   0  0  0  0  0  0  0  0  0  0  0  0
  140.0107   68.5519  227.3957 H   0  0  0  0  0  0  0  0  0  0  0  0
  140.7345   70.7953  226.6147 H   0  0  0  0  0  0  0  0  0  0  0  0
  138.2682   67.6772  223.5691 H   0  0  0  0  0  0  0  0  0  0  0  0
  139.7709   69.8715  221.7436 H   0  0  0  0  0  0  0  0  0  0  0  0
  138.0781   69.4184  221.9636 H   0  0  0  0  0  0  0  0  0  0  0  0
  138.2192   71.8594  221.4923 H   0  0  0  0  0  0  0  0  0  0  0  0
  137.7017   71.6548  223.1761 H   0  0  0  0  0  0  0  0  0  0  0  0
  141.2565   71.7821  220.7868 H   0  0  0  0  0  0  0  0  0  0  0  0
  141.9220   73.2540  218.1350 H   0  0  0  0  0  0  0  0  0  0  0  0
  144.2987   73.9648  218.2525 H   0  0  0  0  0  0  0  0  0  0  0  0
  144.2514   75.0147  220.4369 H   0  0  0  0  0  0  0  0  0  0  0  0
  143.9664   73.4383  221.2406 H   0  0  0  0  0  0  0  0  0  0  0  0
  146.4098   74.3694  219.7093 H   0  0  0  0  0  0  0  0  0  0  0  0
  146.2500   73.8751  221.4644 H   0  0  0  0  0  0  0  0  0  0  0  0
  147.4209   72.2211  220.0173 H   0  0  0  0  0  0  0  0  0  0  0  0
  145.9603   71.6095  220.8831 H   0  0  0  0  0  0  0  0  0  0  0  0
  145.9580   72.5930  218.1030 H   0  0  0  0  0  0  0  0  0  0  0  0
  143.7697   71.4096  218.2129 H   0  0  0  0  0  0  0  0  0  0  0  0
  144.0344   71.4004  219.9729 H   0  0  0  0  0  0  0  0  0  0  0  0
  138.9356   76.9555  220.3487 H   0  0  0  0  0  0  0  0  0  0  0  0
  138.6131   77.9228  221.8302 H   0  0  0  0  0  0  0  0  0  0  0  0
  140.8402   78.4536  219.7904 H   0  0  0  0  0  0  0  0  0  0  0  0
  139.3423   79.3894  219.9298 H   0  0  0  0  0  0  0  0  0  0  0  0
  140.3521   81.3969  220.5346 H   0  0  0  0  0  0  0  0  0  0  0  0
  141.3528   82.7731  222.3525 H   0  0  0  0  0  0  0  0  0  0  0  0
  142.2019   81.6763  224.3969 H   0  0  0  0  0  0  0  0  0  0  0  0
  142.0664   79.2167  224.6544 H   0  0  0  0  0  0  0  0  0  0  0  0
  142.0977   77.0470  222.9879 H   0  0  0  0  0  0  0  0  0  0  0  0
  140.5272   77.2426  223.8716 H   0  0  0  0  0  0  0  0  0  0  0  0
  141.4313   71.8287  224.0853 H   0  0  0  0  0  0  0  0  0  0  0  0
  140.0173   72.5638  224.9391 H   0  0  0  0  0  0  0  0  0  0  0  0
  1  2  2  0
  2  3  1  0
  3  4  2  0
  4  5  1  0
  5  6  2  0
  5  7  1  0
  7  8  1  0
  8  9  1  0
  9 10  1  0
 10 11  2  0
 11 12  1  0
 12 13  1  0
 13 14  1  0
 14 15  1  0
 15 16  1  0
 16 17  1  0
 17 18  1  0
 18 19  1  0
 12 20  2  0
 20 21  1  0
 21 22  1  0
 22 23  1  0
 23 24  1  0
 24 25  1  0
 25 26  2  0
 26 27  1  0
 27 28  2  0
 28 29  1  0
 29 30  2  0
 30 31  1  0
 21 32  2  0
  9 33  1  0
  6  1  1  0
 32 10  1  0
 33  4  1  0
 19 14  1  0
 31 22  1  0
 30 25  1  0
  1 34  1  0
  2 35  1  0
  3 36  1  0
  6 37  1  0
  7 38  1  0
  7 39  1  0
  8 40  1  0
  8 41  1  0
 11 42  1  0
 13 43  1  0
 14 44  1  6
 15 45  1  0
 15 46  1  0
 16 47  1  0
 16 48  1  0
 17 49  1  0
 17 50  1  0
 18 51  1  0
 19 52  1  0
 19 53  1  0
 23 54  1  0
 23 55  1  0
 24 56  1  0
 24 57  1  0
 26 58  1  0
 27 59  1  0
 28 60  1  0
 29 61  1  0
 31 62  1  0
 31 63  1  0
 33 64  1  0
 33 65  1  0
M  END
>  <smiles>  (64) 
c1ccc2c(c1)CCN(c1cc(NC3CCCNC3)nc(N3CCc4ccccc4C3)n1)C2

>  <score_type>  (64) 
oracle

>  <origin>  (64) 
autodockgpu

>  <m_score__min__energy>  (64) 
-10.15

>  <m_primary>  (64) 
energy

>  <rmsd>  (64) 
6.494305849628557

>  <m_score__min__rmsd>  (64) 
6.494305849628557

>  <meeko>  (64) 
{"free_energy": -9.4, "intermolecular_energy": -10.6, "internal_energy": -1.08, "cluster_size": 41, "cluster_id": 1, "rank_in_cluster": 35}

>  <energy>  (64) 
-9.99

>  <cluster_rmsd>  (64) 
0.31

>  <cluster>  (64) 
1

$$$$

     RDKit          3D

 65 70  0  0  0  0  0  0  0  0999 V2000
  139.2050   67.9280  225.2070 C   0  0  0  0  0  0  0  0  0  0  0  0
  139.8520   68.7710  226.0780 C   0  0  0  0  0  0  0  0  0  0  0  0
  140.2080   70.0600  225.7350 C   0  0  0  0  0  0  0  0  0  0  0  0
  139.8840   70.4930  224.4470 C   0  0  0  0  0  0  0  0  0  0  0  0
  139.2340   69.6500  223.5670 C   0  0  0  0  0  0  0  0  0  0  0  0
  138.8860   68.3660  223.9270 C   0  0  0  0  0  0  0  0  0  0  0  0
  138.8960   70.1350  222.1900 C   0  0  0  0  0  0  0  0  0  0  0  0
  138.4790   71.5820  222.3670 C   0  0  0  0  0  0  0  0  0  0  0  0
  139.6610   72.2940  222.8460 N   0  0  0  0  0  0  0  0  0  0  0  0
  140.1780   73.3710  222.0780 C   0  0  0  0  0  0  0  0  0  0  0  0
  141.0240   73.1370  221.0130 C   0  0  0  0  0  0  0  0  0  0  0  0
  141.5540   74.1440  220.2350 C   0  0  0  0  0  0  0  0  0  0  0  0
  142.4250   73.9180  219.1390 N   0  0  0  0  0  0  0  0  0  0  0  0
  143.8690   73.9420  219.2600 C   0  0  1  0  0  0  0  0  0  0  0  0
  144.3200   74.0690  220.6980 C   0  0  0  0  0  0  0  0  0  0  0  0
  145.8110   73.9420  220.7520 C   0  0  0  0  0  0  0  0  0  0  0  0
  146.3520   72.7620  219.9880 C   0  0  0  0  0  0  0  0  0  0  0  0
  145.8430   72.7630  218.6070 N   0  0  0  0  0  0  0  0  0  0  0  0
  144.4050   72.6180  218.7440 C   0  0  0  0  0  0  0  0  0  0  0  0
  141.1920   75.4090  220.5770 N   0  0  0  0  0  0  0  0  0  0  0  0
  140.3650   75.6520  221.6160 C   0  0  0  0  0  0  0  0  0  0  0  0
  139.9750   76.9820  221.9860 N   0  0  0  0  0  0  0  0  0  0  0  0
  138.6700   77.5170  221.6500 C   0  0  0  0  0  0  0  0  0  0  0  0
  138.8290   78.7470  220.7760 C   0  0  0  0  0  0  0  0  0  0  0  0
  139.6400   79.7200  221.5760 C   0  0  0  0  0  0  0  0  0  0  0  0
  139.3770   81.0550  221.3560 C   0  0  0  0  0  0  0  0  0  0  0  0
  140.0970   81.9850  222.0660 C   0  0  0  0  0  0  0  0  0  0  0  0
  141.0500   81.5730  222.9670 C   0  0  0  0  0  0  0  0  0  0  0  0
  141.2940   80.2210  223.1680 C   0  0  0  0  0  0  0  0  0  0  0  0
  140.5870   79.2690  222.4700 C   0  0  0  0  0  0  0  0  0  0  0  0
  140.8770   77.8390  222.7130 C   0  0  0  0  0  0  0  0  0  0  0  0
  139.8640   74.6270  222.3590 N   0  0  0  0  0  0  0  0  0  0  0  0
  140.2730   71.8860  224.0890 C   0  0  0  0  0  0  0  0  0  0  0  0
  138.9399   66.9080  225.5222 H   0  0  0  0  0  0  0  0  0  0  0  0
  140.0955   68.4051  227.0864 H   0  0  0  0  0  0  0  0  0  0  0  0
  140.7258   70.7194  226.4471 H   0  0  0  0  0  0  0  0  0  0  0  0
  138.3680   67.7034  223.2181 H   0  0  0  0  0  0  0  0  0  0  0  0
  139.7736   70.0648  221.5305 H   0  0  0  0  0  0  0  0  0  0  0  0
  138.1008   69.5326  221.7266 H   0  0  0  0  0  0  0  0  0  0  0  0
  138.1444   72.0020  221.4070 H   0  0  0  0  0  0  0  0  0  0  0  0
  137.6429   71.6731  223.0760 H   0  0  0  0  0  0  0  0  0  0  0  0
  141.2882   72.0964  220.7734 H   0  0  0  0  0  0  0  0  0  0  0  0
  141.9490   73.7260  218.2080 H   0  0  0  0  0  0  0  0  0  0  0  0
  144.2406   74.8077  218.6922 H   0  0  0  0  0  0  0  0  0  0  0  0
  144.0184   75.0498  221.0943 H   0  0  0  0  0  0  0  0  0  0  0  0
  143.8564   73.2775  221.3051 H   0  0  0  0  0  0  0  0  0  0  0  0
  146.2519   74.8580  220.3319 H   0  0  0  0  0  0  0  0  0  0  0  0
  146.0800   73.7889  221.8076 H   0  0  0  0  0  0  0  0  0  0  0  0
  147.4505   72.8164  219.9687 H   0  0  0  0  0  0  0  0  0  0  0  0
  146.0261   71.8369  220.4859 H   0  0  0  0  0  0  0  0  0  0  0  0
  146.0250   73.7000  218.2000 H   0  0  0  0  0  0  0  0  0  0  0  0
  143.9549   72.3835  217.7681 H   0  0  0  0  0  0  0  0  0  0  0  0
  144.1586   71.7996  219.4365 H   0  0  0  0  0  0  0  0  0  0  0  0
  138.0917   76.7551  221.1067 H   0  0  0  0  0  0  0  0  0  0  0  0
  138.1416   77.7937  222.5743 H   0  0  0  0  0  0  0  0  0  0  0  0
  139.3527   78.4884  219.8439 H   0  0  0  0  0  0  0  0  0  0  0  0
  137.8534   79.1706  220.4953 H   0  0  0  0  0  0  0  0  0  0  0  0
  138.6109   81.3675  220.6311 H   0  0  0  0  0  0  0  0  0  0  0  0
  139.9111   83.0584  221.9136 H   0  0  0  0  0  0  0  0  0  0  0  0
  141.6242   82.3208  223.5336 H   0  0  0  0  0  0  0  0  0  0  0  0
  142.0602   79.9078  223.8925 H   0  0  0  0  0  0  0  0  0  0  0  0
  141.9076   77.6248  222.3937 H   0  0  0  0  0  0  0  0  0  0  0  0
  140.7483   77.6404  223.7872 H   0  0  0  0  0  0  0  0  0  0  0  0
  141.3668   71.9380  223.9849 H   0  0  0  0  0  0  0  0  0  0  0  0
  139.9278   72.5608  224.8862 H   0  0  0  0  0  0  0  0  0  0  0  0
  1  2  2  0
  2  3  1  0
  3  4  2  0
  4  5  1  0
  5  6  2  0
  5  7  1  0
  7  8  1  0
  8  9  1  0
  9 10  1  0
 10 11  2  0
 11 12  1  0
 12 13  1  0
 13 14  1  0
 14 15  1  0
 15 16  1  0
 16 17  1  0
 17 18  1  0
 18 19  1  0
 12 20  2  0
 20 21  1  0
 21 22  1  0
 22 23  1  0
 23 24  1  0
 24 25  1  0
 25 26  2  0
 26 27  1  0
 27 28  2  0
 28 29  1  0
 29 30  2  0
 30 31  1  0
 21 32  2  0
  9 33  1  0
  6  1  1  0
 32 10  1  0
 33  4  1  0
 19 14  1  0
 31 22  1  0
 30 25  1  0
  1 34  1  0
  2 35  1  0
  3 36  1  0
  6 37  1  0
  7 38  1  0
  7 39  1  0
  8 40  1  0
  8 41  1  0
 11 42  1  0
 13 43  1  0
 14 44  1  6
 15 45  1  0
 15 46  1  0
 16 47  1  0
 16 48  1  0
 17 49  1  0
 17 50  1  0
 18 51  1  0
 19 52  1  0
 19 53  1  0
 23 54  1  0
 23 55  1  0
 24 56  1  0
 24 57  1  0
 26 58  1  0
 27 59  1  0
 28 60  1  0
 29 61  1  0
 31 62  1  0
 31 63  1  0
 33 64  1  0
 33 65  1  0
M  END
>  <smiles>  (65) 
c1ccc2c(c1)CCN(c1cc(NC3CCCNC3)nc(N3CCc4ccccc4C3)n1)C2

>  <score_type>  (65) 
oracle

>  <origin>  (65) 
autodockgpu

>  <m_score__min__energy>  (65) 
-10.15

>  <m_primary>  (65) 
energy

>  <rmsd>  (65) 
6.1841605349939766

>  <m_score__min__rmsd>  (65) 
6.1841605349939766

>  <meeko>  (65) 
{"free_energy": -9.23, "intermolecular_energy": -10.42, "internal_energy": -1.05, "cluster_size": 41, "cluster_id": 1, "rank_in_cluster": 39}

>  <energy>  (65) 
-9.96

>  <cluster_rmsd>  (65) 
0.23

>  <cluster>  (65) 
1

$$$$

     RDKit          3D

 65 70  0  0  0  0  0  0  0  0999 V2000
  146.2980   68.7320  218.4390 C   0  0  0  0  0  0  0  0  0  0  0  0
  145.1260   68.0140  218.3980 C   0  0  0  0  0  0  0  0  0  0  0  0
  143.9230   68.5350  218.8300 C   0  0  0  0  0  0  0  0  0  0  0  0
  143.9300   69.8430  219.3200 C   0  0  0  0  0  0  0  0  0  0  0  0
  145.1040   70.5690  219.3640 C   0  0  0  0  0  0  0  0  0  0  0  0
  146.2960   70.0320  218.9280 C   0  0  0  0  0  0  0  0  0  0  0  0
  145.0890   71.9710  219.8940 C   0  0  0  0  0  0  0  0  0  0  0  0
  143.7930   72.5740  219.3890 C   0  0  0  0  0  0  0  0  0  0  0  0
  142.7140   71.8160  220.0170 N   0  0  0  0  0  0  0  0  0  0  0  0
  141.7790   72.4970  220.8410 C   0  0  0  0  0  0  0  0  0  0  0  0
  140.9840   71.8020  221.7300 C   0  0  0  0  0  0  0  0  0  0  0  0
  140.0610   72.4120  222.5520 C   0  0  0  0  0  0  0  0  0  0  0  0
  139.2370   71.7110  223.4690 N   0  0  0  0  0  0  0  0  0  0  0  0
  139.6650   70.5090  224.1570 C   0  0  1  0  0  0  0  0  0  0  0  0
  140.4000   70.8180  225.4430 C   0  0  0  0  0  0  0  0  0  0  0  0
  140.6800   69.5350  226.1620 C   0  0  0  0  0  0  0  0  0  0  0  0
  139.4840   68.6270  226.2810 C   0  0  0  0  0  0  0  0  0  0  0  0
  138.8710   68.4030  224.9620 N   0  0  0  0  0  0  0  0  0  0  0  0
  138.4260   69.7170  224.5350 C   0  0  0  0  0  0  0  0  0  0  0  0
  139.9730   73.7640  222.4420 N   0  0  0  0  0  0  0  0  0  0  0  0
  140.7450   74.4560  221.5780 C   0  0  0  0  0  0  0  0  0  0  0  0
  140.6610   75.8820  221.4540 N   0  0  0  0  0  0  0  0  0  0  0  0
  140.8080   76.5480  220.1740 C   0  0  0  0  0  0  0  0  0  0  0  0
  141.9890   77.4980  220.2220 C   0  0  0  0  0  0  0  0  0  0  0  0
  141.6940   78.4690  221.3240 C   0  0  0  0  0  0  0  0  0  0  0  0
  142.1930   79.7440  221.1590 C   0  0  0  0  0  0  0  0  0  0  0  0
  141.9480   80.6700  222.1440 C   0  0  0  0  0  0  0  0  0  0  0  0
  141.2230   80.3130  223.2560 C   0  0  0  0  0  0  0  0  0  0  0  0
  140.7330   79.0220  223.3950 C   0  0  0  0  0  0  0  0  0  0  0  0
  140.9630   78.0750  222.4240 C   0  0  0  0  0  0  0  0  0  0  0  0
  140.4240   76.7100  222.6100 C   0  0  0  0  0  0  0  0  0  0  0  0
  141.6440   73.8130  220.7830 N   0  0  0  0  0  0  0  0  0  0  0  0
  142.6250   70.3940  219.7830 C   0  0  0  0  0  0  0  0  0  0  0  0
  147.2353   68.2777  218.0852 H   0  0  0  0  0  0  0  0  0  0  0  0
  145.1480   66.9863  218.0064 H   0  0  0  0  0  0  0  0  0  0  0  0
  142.9962   67.9439  218.7900 H   0  0  0  0  0  0  0  0  0  0  0  0
  147.2250   70.6198  218.9664 H   0  0  0  0  0  0  0  0  0  0  0  0
  145.1100   71.9677  220.9938 H   0  0  0  0  0  0  0  0  0  0  0  0
  145.9663   72.5453  219.5614 H   0  0  0  0  0  0  0  0  0  0  0  0
  143.7297   73.6343  219.6750 H   0  0  0  0  0  0  0  0  0  0  0  0
  143.7302   72.5234  218.2920 H   0  0  0  0  0  0  0  0  0  0  0  0
  141.0923   70.7087  221.7850 H   0  0  0  0  0  0  0  0  0  0  0  0
  138.2700   72.1250  223.6250 H   0  0  0  0  0  0  0  0  0  0  0  0
  140.3388   69.9577  223.4846 H   0  0  0  0  0  0  0  0  0  0  0  0
  141.3477   71.3270  225.2134 H   0  0  0  0  0  0  0  0  0  0  0  0
  139.7837   71.4732  226.0762 H   0  0  0  0  0  0  0  0  0  0  0  0
  141.4696   68.9976  225.6163 H   0  0  0  0  0  0  0  0  0  0  0  0
  140.9803   69.8024  227.1859 H   0  0  0  0  0  0  0  0  0  0  0  0
  139.8034   67.6614  226.7000 H   0  0  0  0  0  0  0  0  0  0  0  0
  138.7426   69.1013  226.9409 H   0  0  0  0  0  0  0  0  0  0  0  0
  139.6190   68.1000  224.3090 H   0  0  0  0  0  0  0  0  0  0  0  0
  137.7578   69.6248  223.6661 H   0  0  0  0  0  0  0  0  0  0  0  0
  137.8699   70.2215  225.3389 H   0  0  0  0  0  0  0  0  0  0  0  0
  140.9755   75.7965  219.3884 H   0  0  0  0  0  0  0  0  0  0  0  0
  139.8928   77.1170  219.9534 H   0  0  0  0  0  0  0  0  0  0  0  0
  142.9154   76.9454  220.4374 H   0  0  0  0  0  0  0  0  0  0  0  0
  142.1318   78.0119  219.2600 H   0  0  0  0  0  0  0  0  0  0  0  0
  142.7716   80.0124  220.2628 H   0  0  0  0  0  0  0  0  0  0  0  0
  142.3316   81.6960  222.0429 H   0  0  0  0  0  0  0  0  0  0  0  0
  141.0295   81.0572  224.0426 H   0  0  0  0  0  0  0  0  0  0  0  0
  140.1545   78.7531  224.2912 H   0  0  0  0  0  0  0  0  0  0  0  0
  140.9099   76.2506  223.4834 H   0  0  0  0  0  0  0  0  0  0  0  0
  139.3370   76.7876  222.7597 H   0  0  0  0  0  0  0  0  0  0  0  0
  142.3356   69.8935  220.7188 H   0  0  0  0  0  0  0  0  0  0  0  0
  141.8732   70.2155  219.0001 H   0  0  0  0  0  0  0  0  0  0  0  0
  1  2  2  0
  2  3  1  0
  3  4  2  0
  4  5  1  0
  5  6  2  0
  5  7  1  0
  7  8  1  0
  8  9  1  0
  9 10  1  0
 10 11  2  0
 11 12  1  0
 12 13  1  0
 13 14  1  0
 14 15  1  0
 15 16  1  0
 16 17  1  0
 17 18  1  0
 18 19  1  0
 12 20  2  0
 20 21  1  0
 21 22  1  0
 22 23  1  0
 23 24  1  0
 24 25  1  0
 25 26  2  0
 26 27  1  0
 27 28  2  0
 28 29  1  0
 29 30  2  0
 30 31  1  0
 21 32  2  0
  9 33  1  0
  6  1  1  0
 32 10  1  0
 33  4  1  0
 19 14  1  0
 31 22  1  0
 30 25  1  0
  1 34  1  0
  2 35  1  0
  3 36  1  0
  6 37  1  0
  7 38  1  0
  7 39  1  0
  8 40  1  0
  8 41  1  0
 11 42  1  0
 13 43  1  0
 14 44  1  6
 15 45  1  0
 15 46  1  0
 16 47  1  0
 16 48  1  0
 17 49  1  0
 17 50  1  0
 18 51  1  0
 19 52  1  0
 19 53  1  0
 23 54  1  0
 23 55  1  0
 24 56  1  0
 24 57  1  0
 26 58  1  0
 27 59  1  0
 28 60  1  0
 29 61  1  0
 31 62  1  0
 31 63  1  0
 33 64  1  0
 33 65  1  0
M  END
>  <smiles>  (66) 
c1ccc2c(c1)CCN(c1cc(NC3CCCNC3)nc(N3CCc4ccccc4C3)n1)C2

>  <score_type>  (66) 
oracle

>  <origin>  (66) 
autodockgpu

>  <m_score__min__energy>  (66) 
-10.15

>  <m_primary>  (66) 
energy

>  <rmsd>  (66) 
9.171374549472626

>  <m_score__min__rmsd>  (66) 
9.171374549472626

>  <meeko>  (66) 
{"free_energy": -9.49, "intermolecular_energy": -10.68, "internal_energy": -1.0, "cluster_size": 4, "cluster_id": 3, "rank_in_cluster": 2}

>  <energy>  (66) 
-9.94

>  <cluster_rmsd>  (66) 
1.34

>  <cluster>  (66) 
1

$$$$

     RDKit          3D

 65 70  0  0  0  0  0  0  0  0999 V2000
  139.4350   68.3640  226.9360 C   0  0  0  0  0  0  0  0  0  0  0  0
  140.0940   69.4050  227.5450 C   0  0  0  0  0  0  0  0  0  0  0  0
  140.5140   70.5220  226.8520 C   0  0  0  0  0  0  0  0  0  0  0  0
  140.2440   70.5660  225.4820 C   0  0  0  0  0  0  0  0  0  0  0  0
  139.5820   69.5240  224.8650 C   0  0  0  0  0  0  0  0  0  0  0  0
  139.1690   68.4160  225.5730 C   0  0  0  0  0  0  0  0  0  0  0  0
  139.3010   69.5920  223.3940 C   0  0  0  0  0  0  0  0  0  0  0  0
  138.9430   71.0390  223.1220 C   0  0  0  0  0  0  0  0  0  0  0  0
  140.1410   71.8210  223.4150 N   0  0  0  0  0  0  0  0  0  0  0  0
  140.7250   72.6050  222.3850 C   0  0  0  0  0  0  0  0  0  0  0  0
  141.4880   72.0180  221.3960 C   0  0  0  0  0  0  0  0  0  0  0  0
  142.0770   72.7310  220.3740 C   0  0  0  0  0  0  0  0  0  0  0  0
  142.8640   72.1410  219.3520 N   0  0  0  0  0  0  0  0  0  0  0  0
  143.9640   71.2380  219.6250 C   0  0  1  0  0  0  0  0  0  0  0  0
  143.6780   69.8290  219.1530 C   0  0  0  0  0  0  0  0  0  0  0  0
  144.9090   68.9970  219.3380 C   0  0  0  0  0  0  0  0  0  0  0  0
  146.1640   69.6350  218.8040 C   0  0  0  0  0  0  0  0  0  0  0  0
  146.3250   70.9930  219.3460 N   0  0  0  0  0  0  0  0  0  0  0  0
  145.1750   71.7270  218.8500 C   0  0  0  0  0  0  0  0  0  0  0  0
  141.8620   74.0740  220.3890 N   0  0  0  0  0  0  0  0  0  0  0  0
  141.1180   74.6610  221.3490 C   0  0  0  0  0  0  0  0  0  0  0  0
  140.8840   76.0760  221.3750 N   0  0  0  0  0  0  0  0  0  0  0  0
  140.7810   76.8550  220.1570 C   0  0  0  0  0  0  0  0  0  0  0  0
  141.8620   77.9180  220.1340 C   0  0  0  0  0  0  0  0  0  0  0  0
  141.6410   78.7590  221.3540 C   0  0  0  0  0  0  0  0  0  0  0  0
  141.9890   80.0890  221.2450 C   0  0  0  0  0  0  0  0  0  0  0  0
  141.8050   80.9000  222.3390 C   0  0  0  0  0  0  0  0  0  0  0  0
  141.2850   80.3790  223.5000 C   0  0  0  0  0  0  0  0  0  0  0  0
  140.9430   79.0360  223.5800 C   0  0  0  0  0  0  0  0  0  0  0  0
  141.1180   78.2010  222.5000 C   0  0  0  0  0  0  0  0  0  0  0  0
  140.7410   76.7760  222.6260 C   0  0  0  0  0  0  0  0  0  0  0  0
  140.5550   73.9180  222.3420 N   0  0  0  0  0  0  0  0  0  0  0  0
  140.7030   71.7780  224.7460 C   0  0  0  0  0  0  0  0  0  0  0  0
  139.1187   67.4914  227.5263 H   0  0  0  0  0  0  0  0  0  0  0  0
  140.2941   69.3456  228.6250 H   0  0  0  0  0  0  0  0  0  0  0  0
  141.0403   71.3448  227.3580 H   0  0  0  0  0  0  0  0  0  0  0  0
  138.6411   67.5919  225.0708 H   0  0  0  0  0  0  0  0  0  0  0  0
  140.1915   69.3005  222.8177 H   0  0  0  0  0  0  0  0  0  0  0  0
  138.4926   68.9070  223.0987 H   0  0  0  0  0  0  0  0  0  0  0  0
  138.6525   71.1678  222.0689 H   0  0  0  0  0  0  0  0  0  0  0  0
  138.0933   71.3632  223.7408 H   0  0  0  0  0  0  0  0  0  0  0  0
  141.6331   70.9280  221.4248 H   0  0  0  0  0  0  0  0  0  0  0  0
  142.5940   72.4020  218.3570 H   0  0  0  0  0  0  0  0  0  0  0  0
  144.1262   71.2229  220.7129 H   0  0  0  0  0  0  0  0  0  0  0  0
  142.8522   69.4028  219.7416 H   0  0  0  0  0  0  0  0  0  0  0  0
  143.3929   69.8422  218.0907 H   0  0  0  0  0  0  0  0  0  0  0  0
  145.0446   68.8141  220.4142 H   0  0  0  0  0  0  0  0  0  0  0  0
  144.7554   68.0692  218.7673 H   0  0  0  0  0  0  0  0  0  0  0  0
  147.0317   69.0245  219.0945 H   0  0  0  0  0  0  0  0  0  0  0  0
  146.0920   69.6966  217.7081 H   0  0  0  0  0  0  0  0  0  0  0  0
  146.2380   70.9380  220.3790 H   0  0  0  0  0  0  0  0  0  0  0  0
  145.3169   72.8055  219.0132 H   0  0  0  0  0  0  0  0  0  0  0  0
  145.0414   71.5621  217.7707 H   0  0  0  0  0  0  0  0  0  0  0  0
  140.9026   76.1917  219.2879 H   0  0  0  0  0  0  0  0  0  0  0  0
  139.7943   77.3397  220.1183 H   0  0  0  0  0  0  0  0  0  0  0  0
  142.8576   77.4513  220.1668 H   0  0  0  0  0  0  0  0  0  0  0  0
  141.8143   78.5210  219.2152 H   0  0  0  0  0  0  0  0  0  0  0  0
  142.4026   80.4898  220.3078 H   0  0  0  0  0  0  0  0  0  0  0  0
  142.0736   81.9654  222.2857 H   0  0  0  0  0  0  0  0  0  0  0  0
  141.1387   81.0319  224.3731 H   0  0  0  0  0  0  0  0  0  0  0  0
  140.5278   78.6350  224.5164 H   0  0  0  0  0  0  0  0  0  0  0  0
  141.3890   76.3006  223.3770 H   0  0  0  0  0  0  0  0  0  0  0  0
  139.6848   76.7255  222.9292 H   0  0  0  0  0  0  0  0  0  0  0  0
  141.8004   71.7598  224.6725 H   0  0  0  0  0  0  0  0  0  0  0  0
  140.3678   72.6695  225.2964 H   0  0  0  0  0  0  0  0  0  0  0  0
  1  2  2  0
  2  3  1  0
  3  4  2  0
  4  5  1  0
  5  6  2  0
  5  7  1  0
  7  8  1  0
  8  9  1  0
  9 10  1  0
 10 11  2  0
 11 12  1  0
 12 13  1  0
 13 14  1  0
 14 15  1  0
 15 16  1  0
 16 17  1  0
 17 18  1  0
 18 19  1  0
 12 20  2  0
 20 21  1  0
 21 22  1  0
 22 23  1  0
 23 24  1  0
 24 25  1  0
 25 26  2  0
 26 27  1  0
 27 28  2  0
 28 29  1  0
 29 30  2  0
 30 31  1  0
 21 32  2  0
  9 33  1  0
  6  1  1  0
 32 10  1  0
 33  4  1  0
 19 14  1  0
 31 22  1  0
 30 25  1  0
  1 34  1  0
  2 35  1  0
  3 36  1  0
  6 37  1  0
  7 38  1  0
  7 39  1  0
  8 40  1  0
  8 41  1  0
 11 42  1  0
 13 43  1  0
 14 44  1  1
 15 45  1  0
 15 46  1  0
 16 47  1  0
 16 48  1  0
 17 49  1  0
 17 50  1  0
 18 51  1  0
 19 52  1  0
 19 53  1  0
 23 54  1  0
 23 55  1  0
 24 56  1  0
 24 57  1  0
 26 58  1  0
 27 59  1  0
 28 60  1  0
 29 61  1  0
 31 62  1  0
 31 63  1  0
 33 64  1  0
 33 65  1  0
M  END
>  <smiles>  (67) 
c1ccc2c(c1)CCN(c1cc(NC3CCCNC3)nc(N3CCc4ccccc4C3)n1)C2

>  <score_type>  (67) 
oracle

>  <origin>  (67) 
autodockgpu

>  <m_score__min__energy>  (67) 
-10.15

>  <m_primary>  (67) 
energy

>  <rmsd>  (67) 
8.718667111712332

>  <m_score__min__rmsd>  (67) 
8.718667111712332

>  <meeko>  (67) 
{"free_energy": -10.14, "intermolecular_energy": -11.33, "internal_energy": -0.94, "cluster_size": 41, "cluster_id": 1, "rank_in_cluster": 4}

>  <energy>  (67) 
-9.93

>  <cluster_rmsd>  (67) 
1.36

>  <cluster>  (67) 
1

$$$$

     RDKit          3D

 65 70  0  0  0  0  0  0  0  0999 V2000
  139.5170   68.4690  227.0790 C   0  0  0  0  0  0  0  0  0  0  0  0
  140.1310   69.5530  227.6610 C   0  0  0  0  0  0  0  0  0  0  0  0
  140.5220   70.6600  226.9350 C   0  0  0  0  0  0  0  0  0  0  0  0
  140.2690   70.6480  225.5610 C   0  0  0  0  0  0  0  0  0  0  0  0
  139.6530   69.5630  224.9710 C   0  0  0  0  0  0  0  0  0  0  0  0
  139.2690   68.4660  225.7110 C   0  0  0  0  0  0  0  0  0  0  0  0
  139.3920   69.5710  223.4950 C   0  0  0  0  0  0  0  0  0  0  0  0
  138.9870   70.9950  223.1700 C   0  0  0  0  0  0  0  0  0  0  0  0
  140.1530   71.8280  223.4520 N   0  0  0  0  0  0  0  0  0  0  0  0
  140.7240   72.5980  222.4030 C   0  0  0  0  0  0  0  0  0  0  0  0
  141.4750   71.9960  221.4140 C   0  0  0  0  0  0  0  0  0  0  0  0
  142.0510   72.6940  220.3740 C   0  0  0  0  0  0  0  0  0  0  0  0
  142.8260   72.0890  219.3520 N   0  0  0  0  0  0  0  0  0  0  0  0
  143.9370   71.1990  219.6250 C   0  0  1  0  0  0  0  0  0  0  0  0
  143.6690   69.7880  219.1470 C   0  0  0  0  0  0  0  0  0  0  0  0
  144.9090   68.9690  219.3330 C   0  0  0  0  0  0  0  0  0  0  0  0
  146.1580   69.6240  218.8050 C   0  0  0  0  0  0  0  0  0  0  0  0
  146.3010   70.9820  219.3520 N   0  0  0  0  0  0  0  0  0  0  0  0
  145.1440   71.7040  218.8550 C   0  0  0  0  0  0  0  0  0  0  0  0
  141.8360   74.0370  220.3710 N   0  0  0  0  0  0  0  0  0  0  0  0
  141.1030   74.6380  221.3320 C   0  0  0  0  0  0  0  0  0  0  0  0
  140.8690   76.0520  221.3400 N   0  0  0  0  0  0  0  0  0  0  0  0
  140.7920   76.8210  220.1120 C   0  0  0  0  0  0  0  0  0  0  0  0
  141.8740   77.8840  220.1040 C   0  0  0  0  0  0  0  0  0  0  0  0
  141.6260   78.7360  221.3100 C   0  0  0  0  0  0  0  0  0  0  0  0
  141.9760   80.0650  221.1970 C   0  0  0  0  0  0  0  0  0  0  0  0
  141.7670   80.8860  222.2790 C   0  0  0  0  0  0  0  0  0  0  0  0
  141.2220   80.3750  223.4330 C   0  0  0  0  0  0  0  0  0  0  0  0
  140.8790   79.0330  223.5180 C   0  0  0  0  0  0  0  0  0  0  0  0
  141.0770   78.1880  222.4500 C   0  0  0  0  0  0  0  0  0  0  0  0
  140.6980   76.7640  222.5810 C   0  0  0  0  0  0  0  0  0  0  0  0
  140.5520   73.9100  222.3430 N   0  0  0  0  0  0  0  0  0  0  0  0
  140.6960   71.8500  224.7900 C   0  0  0  0  0  0  0  0  0  0  0  0
  139.2227   67.6061  227.6944 H   0  0  0  0  0  0  0  0  0  0  0  0
  140.3174   69.5374  228.7450 H   0  0  0  0  0  0  0  0  0  0  0  0
  141.0131   71.5172  227.4188 H   0  0  0  0  0  0  0  0  0  0  0  0
  138.7774   67.6074  225.2303 H   0  0  0  0  0  0  0  0  0  0  0  0
  140.3007   69.2926  222.9412 H   0  0  0  0  0  0  0  0  0  0  0  0
  138.6133   68.8476  223.2116 H   0  0  0  0  0  0  0  0  0  0  0  0
  138.7068   71.0786  222.1096 H   0  0  0  0  0  0  0  0  0  0  0  0
  138.1178   71.3092  223.7665 H   0  0  0  0  0  0  0  0  0  0  0  0
  141.6211   70.9066  221.4576 H   0  0  0  0  0  0  0  0  0  0  0  0
  142.5400   72.3300  218.3560 H   0  0  0  0  0  0  0  0  0  0  0  0
  144.0968   71.1834  220.7132 H   0  0  0  0  0  0  0  0  0  0  0  0
  142.8463   69.3502  219.7313 H   0  0  0  0  0  0  0  0  0  0  0  0
  143.3876   69.8019  218.0837 H   0  0  0  0  0  0  0  0  0  0  0  0
  145.0435   68.7837  220.4089 H   0  0  0  0  0  0  0  0  0  0  0  0
  144.7679   68.0413  218.7589 H   0  0  0  0  0  0  0  0  0  0  0  0
  147.0321   69.0231  219.0961 H   0  0  0  0  0  0  0  0  0  0  0  0
  146.0886   69.6885  217.7091 H   0  0  0  0  0  0  0  0  0  0  0  0
  146.2120   70.9220  220.3840 H   0  0  0  0  0  0  0  0  0  0  0  0
  145.2730   72.7836  219.0216 H   0  0  0  0  0  0  0  0  0  0  0  0
  145.0153   71.5406  217.7748 H   0  0  0  0  0  0  0  0  0  0  0  0
  140.9324   76.1503  219.2515 H   0  0  0  0  0  0  0  0  0  0  0  0
  139.8063   77.3049  220.0472 H   0  0  0  0  0  0  0  0  0  0  0  0
  142.8683   77.4174  220.1638 H   0  0  0  0  0  0  0  0  0  0  0  0
  141.8473   78.4785  219.1789 H   0  0  0  0  0  0  0  0  0  0  0  0
  142.4108   80.4574  220.2659 H   0  0  0  0  0  0  0  0  0  0  0  0
  142.0356   81.9512  222.2218 H   0  0  0  0  0  0  0  0  0  0  0  0
  141.0563   81.0357  224.2967 H   0  0  0  0  0  0  0  0  0  0  0  0
  140.4442   78.6405  224.4491 H   0  0  0  0  0  0  0  0  0  0  0  0
  141.3295   76.2961  223.3506 H   0  0  0  0  0  0  0  0  0  0  0  0
  139.6354   76.7157  222.8611 H   0  0  0  0  0  0  0  0  0  0  0  0
  141.7943   71.8683  224.7319 H   0  0  0  0  0  0  0  0  0  0  0  0
  140.3216   72.7471  225.3048 H   0  0  0  0  0  0  0  0  0  0  0  0
  1  2  2  0
  2  3  1  0
  3  4  2  0
  4  5  1  0
  5  6  2  0
  5  7  1  0
  7  8  1  0
  8  9  1  0
  9 10  1  0
 10 11  2  0
 11 12  1  0
 12 13  1  0
 13 14  1  0
 14 15  1  0
 15 16  1  0
 16 17  1  0
 17 18  1  0
 18 19  1  0
 12 20  2  0
 20 21  1  0
 21 22  1  0
 22 23  1  0
 23 24  1  0
 24 25  1  0
 25 26  2  0
 26 27  1  0
 27 28  2  0
 28 29  1  0
 29 30  2  0
 30 31  1  0
 21 32  2  0
  9 33  1  0
  6  1  1  0
 32 10  1  0
 33  4  1  0
 19 14  1  0
 31 22  1  0
 30 25  1  0
  1 34  1  0
  2 35  1  0
  3 36  1  0
  6 37  1  0
  7 38  1  0
  7 39  1  0
  8 40  1  0
  8 41  1  0
 11 42  1  0
 13 43  1  0
 14 44  1  1
 15 45  1  0
 15 46  1  0
 16 47  1  0
 16 48  1  0
 17 49  1  0
 17 50  1  0
 18 51  1  0
 19 52  1  0
 19 53  1  0
 23 54  1  0
 23 55  1  0
 24 56  1  0
 24 57  1  0
 26 58  1  0
 27 59  1  0
 28 60  1  0
 29 61  1  0
 31 62  1  0
 31 63  1  0
 33 64  1  0
 33 65  1  0
M  END
>  <smiles>  (68) 
c1ccc2c(c1)CCN(c1cc(NC3CCCNC3)nc(N3CCc4ccccc4C3)n1)C2

>  <score_type>  (68) 
oracle

>  <origin>  (68) 
autodockgpu

>  <m_score__min__energy>  (68) 
-10.15

>  <m_primary>  (68) 
energy

>  <rmsd>  (68) 
8.737028568751434

>  <m_score__min__rmsd>  (68) 
8.737028568751434

>  <meeko>  (68) 
{"free_energy": -10.14, "intermolecular_energy": -11.34, "internal_energy": -0.94, "cluster_size": 41, "cluster_id": 1, "rank_in_cluster": 2}

>  <energy>  (68) 
-9.93

>  <cluster_rmsd>  (68) 
1.35

>  <cluster>  (68) 
1

$$$$

     RDKit          3D

 65 70  0  0  0  0  0  0  0  0999 V2000
  146.3160   68.7860  218.4120 C   0  0  0  0  0  0  0  0  0  0  0  0
  145.1490   68.0600  218.3690 C   0  0  0  0  0  0  0  0  0  0  0  0
  143.9430   68.5710  218.8040 C   0  0  0  0  0  0  0  0  0  0  0  0
  143.9410   69.8770  219.2990 C   0  0  0  0  0  0  0  0  0  0  0  0
  145.1100   70.6110  219.3450 C   0  0  0  0  0  0  0  0  0  0  0  0
  146.3050   70.0840  218.9060 C   0  0  0  0  0  0  0  0  0  0  0  0
  145.0850   72.0110  219.8800 C   0  0  0  0  0  0  0  0  0  0  0  0
  143.7850   72.6070  219.3780 C   0  0  0  0  0  0  0  0  0  0  0  0
  142.7120   71.8390  220.0040 N   0  0  0  0  0  0  0  0  0  0  0  0
  141.7720   72.5100  220.8320 C   0  0  0  0  0  0  0  0  0  0  0  0
  140.9740   71.8050  221.7090 C   0  0  0  0  0  0  0  0  0  0  0  0
  140.0480   72.4050  222.5350 C   0  0  0  0  0  0  0  0  0  0  0  0
  139.2200   71.6930  223.4400 N   0  0  0  0  0  0  0  0  0  0  0  0
  139.6430   70.4770  224.1070 C   0  0  1  0  0  0  0  0  0  0  0  0
  140.3710   70.7600  225.4030 C   0  0  0  0  0  0  0  0  0  0  0  0
  140.6440   69.4620  226.0990 C   0  0  0  0  0  0  0  0  0  0  0  0
  139.4470   68.5550  226.1930 C   0  0  0  0  0  0  0  0  0  0  0  0
  138.8400   68.3580  224.8670 N   0  0  0  0  0  0  0  0  0  0  0  0
  138.4000   69.6810  224.4630 C   0  0  0  0  0  0  0  0  0  0  0  0
  139.9580   73.7580  222.4380 N   0  0  0  0  0  0  0  0  0  0  0  0
  140.7320   74.4600  221.5850 C   0  0  0  0  0  0  0  0  0  0  0  0
  140.6470   75.8870  221.4750 N   0  0  0  0  0  0  0  0  0  0  0  0
  140.8050   76.5660  220.2030 C   0  0  0  0  0  0  0  0  0  0  0  0
  141.9840   77.5180  220.2730 C   0  0  0  0  0  0  0  0  0  0  0  0
  141.6760   78.4770  221.3820 C   0  0  0  0  0  0  0  0  0  0  0  0
  142.1740   79.7540  221.2360 C   0  0  0  0  0  0  0  0  0  0  0  0
  141.9180   80.6690  222.2280 C   0  0  0  0  0  0  0  0  0  0  0  0
  141.1830   80.2990  223.3290 C   0  0  0  0  0  0  0  0  0  0  0  0
  140.6940   79.0060  223.4490 C   0  0  0  0  0  0  0  0  0  0  0  0
  140.9350   78.0690  222.4710 C   0  0  0  0  0  0  0  0  0  0  0  0
  140.3970   76.7020  222.6370 C   0  0  0  0  0  0  0  0  0  0  0  0
  141.6360   73.8260  220.7860 N   0  0  0  0  0  0  0  0  0  0  0  0
  142.6320   70.4160  219.7650 C   0  0  0  0  0  0  0  0  0  0  0  0
  147.2562   68.3397  218.0559 H   0  0  0  0  0  0  0  0  0  0  0  0
  145.1777   67.0340  217.9733 H   0  0  0  0  0  0  0  0  0  0  0  0
  143.0203   67.9736  218.7625 H   0  0  0  0  0  0  0  0  0  0  0  0
  147.2299   70.6782  218.9459 H   0  0  0  0  0  0  0  0  0  0  0  0
  145.1064   72.0038  220.9798 H   0  0  0  0  0  0  0  0  0  0  0  0
  145.9580   72.5926  219.5488 H   0  0  0  0  0  0  0  0  0  0  0  0
  143.7146   73.6657  219.6680 H   0  0  0  0  0  0  0  0  0  0  0  0
  143.7218   72.5605  218.2808 H   0  0  0  0  0  0  0  0  0  0  0  0
  141.0819   70.7111  221.7511 H   0  0  0  0  0  0  0  0  0  0  0  0
  138.2560   72.1100  223.6050 H   0  0  0  0  0  0  0  0  0  0  0  0
  140.3200   69.9376  223.4282 H   0  0  0  0  0  0  0  0  0  0  0  0
  141.3211   71.2712  225.1889 H   0  0  0  0  0  0  0  0  0  0  0  0
  139.7526   71.4045  226.0450 H   0  0  0  0  0  0  0  0  0  0  0  0
  141.4360   68.9337  225.5479 H   0  0  0  0  0  0  0  0  0  0  0  0
  140.9382   69.7090  227.1298 H   0  0  0  0  0  0  0  0  0  0  0  0
  139.7626   67.5806  226.5943 H   0  0  0  0  0  0  0  0  0  0  0  0
  138.7030   69.0180  226.8579 H   0  0  0  0  0  0  0  0  0  0  0  0
  139.5910   68.0650  224.2130 H   0  0  0  0  0  0  0  0  0  0  0  0
  137.7364   69.6071  223.5889 H   0  0  0  0  0  0  0  0  0  0  0  0
  137.8405   70.1713  225.2733 H   0  0  0  0  0  0  0  0  0  0  0  0
  140.9819   75.8228  219.4116 H   0  0  0  0  0  0  0  0  0  0  0  0
  139.8908   77.1351  219.9785 H   0  0  0  0  0  0  0  0  0  0  0  0
  142.9092   76.9649  220.4921 H   0  0  0  0  0  0  0  0  0  0  0  0
  142.1355   78.0422  219.3179 H   0  0  0  0  0  0  0  0  0  0  0  0
  142.7609   80.0330  220.3485 H   0  0  0  0  0  0  0  0  0  0  0  0
  142.3007   81.6966  222.1414 H   0  0  0  0  0  0  0  0  0  0  0  0
  140.9807   81.0342  224.1218 H   0  0  0  0  0  0  0  0  0  0  0  0
  140.1069   78.7270  224.3364 H   0  0  0  0  0  0  0  0  0  0  0  0
  140.8750   76.2342  223.5103 H   0  0  0  0  0  0  0  0  0  0  0  0
  139.3084   76.7761  222.7766 H   0  0  0  0  0  0  0  0  0  0  0  0
  142.3470   69.9100  220.6992 H   0  0  0  0  0  0  0  0  0  0  0  0
  141.8803   70.2343  218.9827 H   0  0  0  0  0  0  0  0  0  0  0  0
  1  2  2  0
  2  3  1  0
  3  4  2  0
  4  5  1  0
  5  6  2  0
  5  7  1  0
  7  8  1  0
  8  9  1  0
  9 10  1  0
 10 11  2  0
 11 12  1  0
 12 13  1  0
 13 14  1  0
 14 15  1  0
 15 16  1  0
 16 17  1  0
 17 18  1  0
 18 19  1  0
 12 20  2  0
 20 21  1  0
 21 22  1  0
 22 23  1  0
 23 24  1  0
 24 25  1  0
 25 26  2  0
 26 27  1  0
 27 28  2  0
 28 29  1  0
 29 30  2  0
 30 31  1  0
 21 32  2  0
  9 33  1  0
  6  1  1  0
 32 10  1  0
 33  4  1  0
 19 14  1  0
 31 22  1  0
 30 25  1  0
  1 34  1  0
  2 35  1  0
  3 36  1  0
  6 37  1  0
  7 38  1  0
  7 39  1  0
  8 40  1  0
  8 41  1  0
 11 42  1  0
 13 43  1  0
 14 44  1  6
 15 45  1  0
 15 46  1  0
 16 47  1  0
 16 48  1  0
 17 49  1  0
 17 50  1  0
 18 51  1  0
 19 52  1  0
 19 53  1  0
 23 54  1  0
 23 55  1  0
 24 56  1  0
 24 57  1  0
 26 58  1  0
 27 59  1  0
 28 60  1  0
 29 61  1  0
 31 62  1  0
 31 63  1  0
 33 64  1  0
 33 65  1  0
M  END
>  <smiles>  (69) 
c1ccc2c(c1)CCN(c1cc(NC3CCCNC3)nc(N3CCc4ccccc4C3)n1)C2

>  <score_type>  (69) 
oracle

>  <origin>  (69) 
autodockgpu

>  <m_score__min__energy>  (69) 
-10.15

>  <m_primary>  (69) 
energy

>  <rmsd>  (69) 
9.192451664365825

>  <m_score__min__rmsd>  (69) 
9.192451664365825

>  <meeko>  (69) 
{"free_energy": -9.5, "intermolecular_energy": -10.69, "internal_energy": -1.0, "cluster_size": 4, "cluster_id": 3, "rank_in_cluster": 1}

>  <energy>  (69) 
-9.92

>  <cluster_rmsd>  (69) 
1.33

>  <cluster>  (69) 
1

$$$$

     RDKit          3D

 65 70  0  0  0  0  0  0  0  0999 V2000
  139.9470   68.1290  227.6450 C   0  0  0  0  0  0  0  0  0  0  0  0
  140.5910   69.2440  228.1280 C   0  0  0  0  0  0  0  0  0  0  0  0
  140.8350   70.3540  227.3450 C   0  0  0  0  0  0  0  0  0  0  0  0
  140.3990   70.3120  226.0180 C   0  0  0  0  0  0  0  0  0  0  0  0
  139.7520   69.1950  225.5290 C   0  0  0  0  0  0  0  0  0  0  0  0
  139.5170   68.0950  226.3250 C   0  0  0  0  0  0  0  0  0  0  0  0
  139.2930   69.1720  224.1020 C   0  0  0  0  0  0  0  0  0  0  0  0
  138.7910   70.5740  223.8210 C   0  0  0  0  0  0  0  0  0  0  0  0
  139.9500   71.4550  223.9330 N   0  0  0  0  0  0  0  0  0  0  0  0
  140.3420   72.2300  222.8090 C   0  0  0  0  0  0  0  0  0  0  0  0
  141.0720   71.6670  221.7830 C   0  0  0  0  0  0  0  0  0  0  0  0
  141.4770   72.3720  220.6700 C   0  0  0  0  0  0  0  0  0  0  0  0
  142.2290   71.8060  219.6080 N   0  0  0  0  0  0  0  0  0  0  0  0
  143.5320   71.2020  219.7980 C   0  0  1  0  0  0  0  0  0  0  0  0
  143.5950   69.7940  219.2460 C   0  0  0  0  0  0  0  0  0  0  0  0
  145.0030   69.2950  219.3490 C   0  0  0  0  0  0  0  0  0  0  0  0
  146.0330   70.2610  218.8250 C   0  0  0  0  0  0  0  0  0  0  0  0
  145.8650   71.5840  219.4470 N   0  0  0  0  0  0  0  0  0  0  0  0
  144.5480   72.0250  219.0260 C   0  0  0  0  0  0  0  0  0  0  0  0
  141.1130   73.6810  220.6330 N   0  0  0  0  0  0  0  0  0  0  0  0
  140.3980   74.2450  221.6300 C   0  0  0  0  0  0  0  0  0  0  0  0
  140.0070   75.6240  221.6030 N   0  0  0  0  0  0  0  0  0  0  0  0
  140.9400   76.6760  221.2470 C   0  0  0  0  0  0  0  0  0  0  0  0
  141.0840   77.6470  222.4040 C   0  0  0  0  0  0  0  0  0  0  0  0
  139.7110   78.1850  222.6650 C   0  0  0  0  0  0  0  0  0  0  0  0
  139.6470   79.4790  223.1370 C   0  0  0  0  0  0  0  0  0  0  0  0
  138.4080   80.0160  223.3920 C   0  0  0  0  0  0  0  0  0  0  0  0
  137.2770   79.2660  223.1750 C   0  0  0  0  0  0  0  0  0  0  0  0
  137.3720   77.9660  222.6990 C   0  0  0  0  0  0  0  0  0  0  0  0
  138.6000   77.4030  222.4350 C   0  0  0  0  0  0  0  0  0  0  0  0
  138.6590   76.0150  221.9290 C   0  0  0  0  0  0  0  0  0  0  0  0
  140.0180   73.5110  222.7130 N   0  0  0  0  0  0  0  0  0  0  0  0
  140.6690   71.5180  225.1850 C   0  0  0  0  0  0  0  0  0  0  0  0
  139.7727   67.2652  228.3034 H   0  0  0  0  0  0  0  0  0  0  0  0
  140.9237   69.2514  229.1765 H   0  0  0  0  0  0  0  0  0  0  0  0
  141.3521   71.2366  227.7494 H   0  0  0  0  0  0  0  0  0  0  0  0
  139.0007   67.2103  225.9240 H   0  0  0  0  0  0  0  0  0  0  0  0
  140.1287   68.9205  223.4324 H   0  0  0  0  0  0  0  0  0  0  0  0
  138.5123   68.4155  223.9344 H   0  0  0  0  0  0  0  0  0  0  0  0
  138.3663   70.6304  222.8079 H   0  0  0  0  0  0  0  0  0  0  0  0
  137.9990   70.8639  224.5272 H   0  0  0  0  0  0  0  0  0  0  0  0
  141.3442   70.6037  221.8566 H   0  0  0  0  0  0  0  0  0  0  0  0
  141.7720   71.8500  218.6490 H   0  0  0  0  0  0  0  0  0  0  0  0
  143.7350   71.1711  220.8787 H   0  0  0  0  0  0  0  0  0  0  0  0
  142.9280   69.1397  219.8265 H   0  0  0  0  0  0  0  0  0  0  0  0
  143.2749   69.7917  218.1936 H   0  0  0  0  0  0  0  0  0  0  0  0
  145.2229   69.0950  220.4081 H   0  0  0  0  0  0  0  0  0  0  0  0
  145.0675   68.3907  218.7261 H   0  0  0  0  0  0  0  0  0  0  0  0
  147.0382   69.8781  219.0553 H   0  0  0  0  0  0  0  0  0  0  0  0
  145.9045   70.3613  217.7371 H   0  0  0  0  0  0  0  0  0  0  0  0
  145.8360   71.4520  220.4760 H   0  0  0  0  0  0  0  0  0  0  0  0
  144.4179   73.0936  219.2524 H   0  0  0  0  0  0  0  0  0  0  0  0
  144.4184   71.8895  217.9421 H   0  0  0  0  0  0  0  0  0  0  0  0
  141.9203   76.2328  221.0178 H   0  0  0  0  0  0  0  0  0  0  0  0
  140.5620   77.2143  220.3654 H   0  0  0  0  0  0  0  0  0  0  0  0
  141.4661   77.1264  223.2945 H   0  0  0  0  0  0  0  0  0  0  0  0
  141.7942   78.4530  222.1674 H   0  0  0  0  0  0  0  0  0  0  0  0
  140.5625   80.0653  223.3048 H   0  0  0  0  0  0  0  0  0  0  0  0
  138.3216   81.0455  223.7696 H   0  0  0  0  0  0  0  0  0  0  0  0
  136.2874   79.7002  223.3805 H   0  0  0  0  0  0  0  0  0  0  0  0
  136.4567   77.3795  222.5310 H   0  0  0  0  0  0  0  0  0  0  0  0
  138.2680   75.3368  222.7018 H   0  0  0  0  0  0  0  0  0  0  0  0
  138.0539   75.9580  221.0121 H   0  0  0  0  0  0  0  0  0  0  0  0
  141.7476   71.5777  224.9776 H   0  0  0  0  0  0  0  0  0  0  0  0
  140.3327   72.4077  225.7376 H   0  0  0  0  0  0  0  0  0  0  0  0
  1  2  2  0
  2  3  1  0
  3  4  2  0
  4  5  1  0
  5  6  2  0
  5  7  1  0
  7  8  1  0
  8  9  1  0
  9 10  1  0
 10 11  2  0
 11 12  1  0
 12 13  1  0
 13 14  1  0
 14 15  1  0
 15 16  1  0
 16 17  1  0
 17 18  1  0
 18 19  1  0
 12 20  2  0
 20 21  1  0
 21 22  1  0
 22 23  1  0
 23 24  1  0
 24 25  1  0
 25 26  2  0
 26 27  1  0
 27 28  2  0
 28 29  1  0
 29 30  2  0
 30 31  1  0
 21 32  2  0
  9 33  1  0
  6  1  1  0
 32 10  1  0
 33  4  1  0
 19 14  1  0
 31 22  1  0
 30 25  1  0
  1 34  1  0
  2 35  1  0
  3 36  1  0
  6 37  1  0
  7 38  1  0
  7 39  1  0
  8 40  1  0
  8 41  1  0
 11 42  1  0
 13 43  1  0
 14 44  1  1
 15 45  1  0
 15 46  1  0
 16 47  1  0
 16 48  1  0
 17 49  1  0
 17 50  1  0
 18 51  1  0
 19 52  1  0
 19 53  1  0
 23 54  1  0
 23 55  1  0
 24 56  1  0
 24 57  1  0
 26 58  1  0
 27 59  1  0
 28 60  1  0
 29 61  1  0
 31 62  1  0
 31 63  1  0
 33 64  1  0
 33 65  1  0
M  END
>  <smiles>  (70) 
c1ccc2c(c1)CCN(c1cc(NC3CCCNC3)nc(N3CCc4ccccc4C3)n1)C2

>  <score_type>  (70) 
oracle

>  <origin>  (70) 
autodockgpu

>  <m_score__min__energy>  (70) 
-10.15

>  <m_primary>  (70) 
energy

>  <rmsd>  (70) 
8.529421408162111

>  <m_score__min__rmsd>  (70) 
8.529421408162111

>  <meeko>  (70) 
{"free_energy": -9.94, "intermolecular_energy": -11.13, "internal_energy": -0.94, "cluster_size": 41, "cluster_id": 1, "rank_in_cluster": 16}

>  <energy>  (70) 
-9.91

>  <cluster_rmsd>  (70) 
1.37

>  <cluster>  (70) 
1

$$$$

     RDKit          3D

 65 70  0  0  0  0  0  0  0  0999 V2000
  139.7520   68.5150  227.1830 C   0  0  0  0  0  0  0  0  0  0  0  0
  140.4260   69.6050  227.6790 C   0  0  0  0  0  0  0  0  0  0  0  0
  140.7400   70.7000  226.8980 C   0  0  0  0  0  0  0  0  0  0  0  0
  140.3430   70.6660  225.5580 C   0  0  0  0  0  0  0  0  0  0  0  0
  139.6670   69.5730  225.0550 C   0  0  0  0  0  0  0  0  0  0  0  0
  139.3610   68.4900  225.8500 C   0  0  0  0  0  0  0  0  0  0  0  0
  139.2510   69.5580  223.6150 C   0  0  0  0  0  0  0  0  0  0  0  0
  138.8170   70.9790  223.3100 C   0  0  0  0  0  0  0  0  0  0  0  0
  140.0070   71.8120  223.4540 N   0  0  0  0  0  0  0  0  0  0  0  0
  140.4660   72.5620  222.3380 C   0  0  0  0  0  0  0  0  0  0  0  0
  140.9960   71.9300  221.2320 C   0  0  0  0  0  0  0  0  0  0  0  0
  141.4540   72.6090  220.1230 C   0  0  0  0  0  0  0  0  0  0  0  0
  142.0020   71.9730  218.9800 N   0  0  0  0  0  0  0  0  0  0  0  0
  143.3770   72.1530  218.5590 C   0  0  1  0  0  0  0  0  0  0  0  0
  143.5880   73.4700  217.8450 C   0  0  0  0  0  0  0  0  0  0  0  0
  145.0500   73.6450  217.5720 C   0  0  0  0  0  0  0  0  0  0  0  0
  145.9300   73.3880  218.7660 C   0  0  0  0  0  0  0  0  0  0  0  0
  145.6280   72.0750  219.3580 N   0  0  0  0  0  0  0  0  0  0  0  0
  144.2500   72.1780  219.8010 C   0  0  0  0  0  0  0  0  0  0  0  0
  141.3550   73.9640  220.1750 N   0  0  0  0  0  0  0  0  0  0  0  0
  140.8380   74.5950  221.2510 C   0  0  0  0  0  0  0  0  0  0  0  0
  140.7270   76.0230  221.3170 N   0  0  0  0  0  0  0  0  0  0  0  0
  140.6650   76.8410  220.1210 C   0  0  0  0  0  0  0  0  0  0  0  0
  141.8340   77.8080  220.1000 C   0  0  0  0  0  0  0  0  0  0  0  0
  141.7110   78.6320  221.3450 C   0  0  0  0  0  0  0  0  0  0  0  0
  142.1700   79.9290  221.2610 C   0  0  0  0  0  0  0  0  0  0  0  0
  142.0790   80.7240  222.3790 C   0  0  0  0  0  0  0  0  0  0  0  0
  141.5410   80.2180  223.5380 C   0  0  0  0  0  0  0  0  0  0  0  0
  141.0870   78.9070  223.5930 C   0  0  0  0  0  0  0  0  0  0  0  0
  141.1660   78.0900  222.4890 C   0  0  0  0  0  0  0  0  0  0  0  0
  140.6720   76.6990  222.5880 C   0  0  0  0  0  0  0  0  0  0  0  0
  140.3970   73.8850  222.3260 N   0  0  0  0  0  0  0  0  0  0  0  0
  140.6890   71.8540  224.7270 C   0  0  0  0  0  0  0  0  0  0  0  0
  139.5224   67.6635  227.8404 H   0  0  0  0  0  0  0  0  0  0  0  0
  140.7265   69.6054  228.7372 H   0  0  0  0  0  0  0  0  0  0  0  0
  141.2803   71.5634  227.3133 H   0  0  0  0  0  0  0  0  0  0  0  0
  138.8195   67.6254  225.4387 H   0  0  0  0  0  0  0  0  0  0  0  0
  140.0953   69.2666  222.9729 H   0  0  0  0  0  0  0  0  0  0  0  0
  138.4447   68.8335  223.4282 H   0  0  0  0  0  0  0  0  0  0  0  0
  138.4274   71.0460  222.2835 H   0  0  0  0  0  0  0  0  0  0  0  0
  138.0160   71.3063  223.9891 H   0  0  0  0  0  0  0  0  0  0  0  0
  141.0560   70.8316  221.2352 H   0  0  0  0  0  0  0  0  0  0  0  0
  141.3350   71.3440  218.4410 H   0  0  0  0  0  0  0  0  0  0  0  0
  143.6295   71.3310  217.8730 H   0  0  0  0  0  0  0  0  0  0  0  0
  143.0327   73.4684  216.8955 H   0  0  0  0  0  0  0  0  0  0  0  0
  143.2245   74.2968  218.4730 H   0  0  0  0  0  0  0  0  0  0  0  0
  145.3388   72.9468  216.7726 H   0  0  0  0  0  0  0  0  0  0  0  0
  145.1974   74.6975  217.2882 H   0  0  0  0  0  0  0  0  0  0  0  0
  146.9834   73.4086  218.4500 H   0  0  0  0  0  0  0  0  0  0  0  0
  145.7436   74.1681  219.5188 H   0  0  0  0  0  0  0  0  0  0  0  0
  145.6600   71.3670  218.5990 H   0  0  0  0  0  0  0  0  0  0  0  0
  143.9998   71.3296  220.4549 H   0  0  0  0  0  0  0  0  0  0  0  0
  144.0912   73.1048  220.3718 H   0  0  0  0  0  0  0  0  0  0  0  0
  140.7103   76.1937  219.2328 H   0  0  0  0  0  0  0  0  0  0  0  0
  139.7230   77.4090  220.1173 H   0  0  0  0  0  0  0  0  0  0  0  0
  142.7859   77.2568  220.0990 H   0  0  0  0  0  0  0  0  0  0  0  0
  141.8203   78.4370  219.1977 H   0  0  0  0  0  0  0  0  0  0  0  0
  142.5975   80.3174  220.3249 H   0  0  0  0  0  0  0  0  0  0  0  0
  142.4364   81.7638  222.3459 H   0  0  0  0  0  0  0  0  0  0  0  0
  141.4694   80.8574  224.4302 H   0  0  0  0  0  0  0  0  0  0  0  0
  140.6598   78.5177  224.5289 H   0  0  0  0  0  0  0  0  0  0  0  0
  141.2936   76.1504  223.3109 H   0  0  0  0  0  0  0  0  0  0  0  0
  139.6222   76.7301  222.9151 H   0  0  0  0  0  0  0  0  0  0  0  0
  141.7751   71.8672  224.5530 H   0  0  0  0  0  0  0  0  0  0  0  0
  140.3736   72.7609  225.2637 H   0  0  0  0  0  0  0  0  0  0  0  0
  1  2  2  0
  2  3  1  0
  3  4  2  0
  4  5  1  0
  5  6  2  0
  5  7  1  0
  7  8  1  0
  8  9  1  0
  9 10  1  0
 10 11  2  0
 11 12  1  0
 12 13  1  0
 13 14  1  0
 14 15  1  0
 15 16  1  0
 16 17  1  0
 17 18  1  0
 18 19  1  0
 12 20  2  0
 20 21  1  0
 21 22  1  0
 22 23  1  0
 23 24  1  0
 24 25  1  0
 25 26  2  0
 26 27  1  0
 27 28  2  0
 28 29  1  0
 29 30  2  0
 30 31  1  0
 21 32  2  0
  9 33  1  0
  6  1  1  0
 32 10  1  0
 33  4  1  0
 19 14  1  0
 31 22  1  0
 30 25  1  0
  1 34  1  0
  2 35  1  0
  3 36  1  0
  6 37  1  0
  7 38  1  0
  7 39  1  0
  8 40  1  0
  8 41  1  0
 11 42  1  0
 13 43  1  0
 14 44  1  6
 15 45  1  0
 15 46  1  0
 16 47  1  0
 16 48  1  0
 17 49  1  0
 17 50  1  0
 18 51  1  0
 19 52  1  0
 19 53  1  0
 23 54  1  0
 23 55  1  0
 24 56  1  0
 24 57  1  0
 26 58  1  0
 27 59  1  0
 28 60  1  0
 29 61  1  0
 31 62  1  0
 31 63  1  0
 33 64  1  0
 33 65  1  0
M  END
>  <smiles>  (71) 
c1ccc2c(c1)CCN(c1cc(NC3CCCNC3)nc(N3CCc4ccccc4C3)n1)C2

>  <score_type>  (71) 
oracle

>  <origin>  (71) 
autodockgpu

>  <m_score__min__energy>  (71) 
-10.15

>  <m_primary>  (71) 
energy

>  <rmsd>  (71) 
6.888003241366154

>  <m_score__min__rmsd>  (71) 
6.888003241366154

>  <meeko>  (71) 
{"free_energy": -9.35, "intermolecular_energy": -10.54, "internal_energy": -1.16, "cluster_size": 41, "cluster_id": 1, "rank_in_cluster": 38}

>  <energy>  (71) 
-9.89

>  <cluster_rmsd>  (71) 
1.36

>  <cluster>  (71) 
1

$$$$

     RDKit          3D

 65 70  0  0  0  0  0  0  0  0999 V2000
  139.4700   68.4240  227.0210 C   0  0  0  0  0  0  0  0  0  0  0  0
  140.1140   69.4850  227.6130 C   0  0  0  0  0  0  0  0  0  0  0  0
  140.5210   70.5950  226.9010 C   0  0  0  0  0  0  0  0  0  0  0  0
  140.2540   70.6100  225.5300 C   0  0  0  0  0  0  0  0  0  0  0  0
  139.6080   69.5470  224.9300 C   0  0  0  0  0  0  0  0  0  0  0  0
  139.2080   68.4470  225.6570 C   0  0  0  0  0  0  0  0  0  0  0  0
  139.3310   69.5840  223.4570 C   0  0  0  0  0  0  0  0  0  0  0  0
  138.9540   71.0220  223.1580 C   0  0  0  0  0  0  0  0  0  0  0  0
  140.1410   71.8250  223.4400 N   0  0  0  0  0  0  0  0  0  0  0  0
  140.7180   72.5980  222.3970 C   0  0  0  0  0  0  0  0  0  0  0  0
  141.4720   72.0000  221.4090 C   0  0  0  0  0  0  0  0  0  0  0  0
  142.0530   72.7020  220.3750 C   0  0  0  0  0  0  0  0  0  0  0  0
  142.8320   72.1000  219.3530 N   0  0  0  0  0  0  0  0  0  0  0  0
  143.9400   71.2070  219.6260 C   0  0  1  0  0  0  0  0  0  0  0  0
  143.6680   69.7970  219.1490 C   0  0  0  0  0  0  0  0  0  0  0  0
  144.9060   68.9750  219.3350 C   0  0  0  0  0  0  0  0  0  0  0  0
  146.1570   69.6270  218.8080 C   0  0  0  0  0  0  0  0  0  0  0  0
  146.3040   70.9850  219.3550 N   0  0  0  0  0  0  0  0  0  0  0  0
  145.1490   71.7090  218.8570 C   0  0  0  0  0  0  0  0  0  0  0  0
  141.8400   74.0450  220.3770 N   0  0  0  0  0  0  0  0  0  0  0  0
  141.1040   74.6430  221.3370 C   0  0  0  0  0  0  0  0  0  0  0  0
  140.8720   76.0580  221.3500 N   0  0  0  0  0  0  0  0  0  0  0  0
  140.7770   76.8280  220.1250 C   0  0  0  0  0  0  0  0  0  0  0  0
  141.8610   77.8900  220.1020 C   0  0  0  0  0  0  0  0  0  0  0  0
  141.6310   78.7410  221.3130 C   0  0  0  0  0  0  0  0  0  0  0  0
  141.9820   80.0690  221.1970 C   0  0  0  0  0  0  0  0  0  0  0  0
  141.7900   80.8890  222.2830 C   0  0  0  0  0  0  0  0  0  0  0  0
  141.2620   80.3770  223.4440 C   0  0  0  0  0  0  0  0  0  0  0  0
  140.9180   79.0350  223.5320 C   0  0  0  0  0  0  0  0  0  0  0  0
  141.0990   78.1920  222.4600 C   0  0  0  0  0  0  0  0  0  0  0  0
  140.7200   76.7680  222.5950 C   0  0  0  0  0  0  0  0  0  0  0  0
  140.5480   73.9110  222.3420 N   0  0  0  0  0  0  0  0  0  0  0  0
  140.6990   71.8140  224.7730 C   0  0  0  0  0  0  0  0  0  0  0  0
  139.1628   67.5585  227.6265 H   0  0  0  0  0  0  0  0  0  0  0  0
  140.3121   69.4476  228.6944 H   0  0  0  0  0  0  0  0  0  0  0  0
  141.0348   71.4339  227.3932 H   0  0  0  0  0  0  0  0  0  0  0  0
  138.6931   67.6065  225.1686 H   0  0  0  0  0  0  0  0  0  0  0  0
  140.2272   69.2943  222.8888 H   0  0  0  0  0  0  0  0  0  0  0  0
  138.5332   68.8825  223.1715 H   0  0  0  0  0  0  0  0  0  0  0  0
  138.6646   71.1281  222.1021 H   0  0  0  0  0  0  0  0  0  0  0  0
  138.0983   71.3459  223.7687 H   0  0  0  0  0  0  0  0  0  0  0  0
  141.6166   70.9103  221.4482 H   0  0  0  0  0  0  0  0  0  0  0  0
  142.5500   72.3460  218.3570 H   0  0  0  0  0  0  0  0  0  0  0  0
  144.0996   71.1907  220.7143 H   0  0  0  0  0  0  0  0  0  0  0  0
  142.8443   69.3617  219.7339 H   0  0  0  0  0  0  0  0  0  0  0  0
  143.3860   69.8110  218.0859 H   0  0  0  0  0  0  0  0  0  0  0  0
  145.0395   68.7887  220.4109 H   0  0  0  0  0  0  0  0  0  0  0  0
  144.7629   68.0481  218.7602 H   0  0  0  0  0  0  0  0  0  0  0  0
  147.0293   69.0236  219.0995 H   0  0  0  0  0  0  0  0  0  0  0  0
  146.0879   69.6920  217.7121 H   0  0  0  0  0  0  0  0  0  0  0  0
  146.2140   70.9250  220.3870 H   0  0  0  0  0  0  0  0  0  0  0  0
  145.2801   72.7884  219.0233 H   0  0  0  0  0  0  0  0  0  0  0  0
  145.0209   71.5452  217.7768 H   0  0  0  0  0  0  0  0  0  0  0  0
  140.9031   76.1582  219.2616 H   0  0  0  0  0  0  0  0  0  0  0  0
  139.7910   77.3132  220.0757 H   0  0  0  0  0  0  0  0  0  0  0  0
  142.8555   77.4221  220.1470 H   0  0  0  0  0  0  0  0  0  0  0  0
  141.8222   78.4854  219.1779 H   0  0  0  0  0  0  0  0  0  0  0  0
  142.4044   80.4618  220.2604 H   0  0  0  0  0  0  0  0  0  0  0  0
  142.0586   81.9540  222.2231 H   0  0  0  0  0  0  0  0  0  0  0  0
  141.1106   81.0365  224.3113 H   0  0  0  0  0  0  0  0  0  0  0  0
  140.4963   78.6415  224.4687 H   0  0  0  0  0  0  0  0  0  0  0  0
  141.3622   76.2982  223.3545 H   0  0  0  0  0  0  0  0  0  0  0  0
  139.6617   76.7203  222.8912 H   0  0  0  0  0  0  0  0  0  0  0  0
  141.7968   71.8092  224.7031 H   0  0  0  0  0  0  0  0  0  0  0  0
  140.3499   72.7109  225.3057 H   0  0  0  0  0  0  0  0  0  0  0  0
  1  2  2  0
  2  3  1  0
  3  4  2  0
  4  5  1  0
  5  6  2  0
  5  7  1  0
  7  8  1  0
  8  9  1  0
  9 10  1  0
 10 11  2  0
 11 12  1  0
 12 13  1  0
 13 14  1  0
 14 15  1  0
 15 16  1  0
 16 17  1  0
 17 18  1  0
 18 19  1  0
 12 20  2  0
 20 21  1  0
 21 22  1  0
 22 23  1  0
 23 24  1  0
 24 25  1  0
 25 26  2  0
 26 27  1  0
 27 28  2  0
 28 29  1  0
 29 30  2  0
 30 31  1  0
 21 32  2  0
  9 33  1  0
  6  1  1  0
 32 10  1  0
 33  4  1  0
 19 14  1  0
 31 22  1  0
 30 25  1  0
  1 34  1  0
  2 35  1  0
  3 36  1  0
  6 37  1  0
  7 38  1  0
  7 39  1  0
  8 40  1  0
  8 41  1  0
 11 42  1  0
 13 43  1  0
 14 44  1  1
 15 45  1  0
 15 46  1  0
 16 47  1  0
 16 48  1  0
 17 49  1  0
 17 50  1  0
 18 51  1  0
 19 52  1  0
 19 53  1  0
 23 54  1  0
 23 55  1  0
 24 56  1  0
 24 57  1  0
 26 58  1  0
 27 59  1  0
 28 60  1  0
 29 61  1  0
 31 62  1  0
 31 63  1  0
 33 64  1  0
 33 65  1  0
M  END
>  <smiles>  (72) 
c1ccc2c(c1)CCN(c1cc(NC3CCCNC3)nc(N3CCc4ccccc4C3)n1)C2

>  <score_type>  (72) 
oracle

>  <origin>  (72) 
autodockgpu

>  <m_score__min__energy>  (72) 
-10.15

>  <m_primary>  (72) 
energy

>  <rmsd>  (72) 
8.731707177748662

>  <m_score__min__rmsd>  (72) 
8.731707177748662

>  <meeko>  (72) 
{"free_energy": -10.14, "intermolecular_energy": -11.33, "internal_energy": -0.93, "cluster_size": 41, "cluster_id": 1, "rank_in_cluster": 3}

>  <energy>  (72) 
-9.73

>  <cluster_rmsd>  (72) 
1.97

>  <cluster>  (72) 
1

$$$$

     RDKit          3D

 65 70  0  0  0  0  0  0  0  0999 V2000
  139.6640   68.6450  227.4490 C   0  0  0  0  0  0  0  0  0  0  0  0
  140.2250   69.7970  227.9460 C   0  0  0  0  0  0  0  0  0  0  0  0
  140.5730   70.8600  227.1360 C   0  0  0  0  0  0  0  0  0  0  0  0
  140.3310   70.7280  225.7660 C   0  0  0  0  0  0  0  0  0  0  0  0
  139.7680   69.5720  225.2620 C   0  0  0  0  0  0  0  0  0  0  0  0
  139.4270   68.5220  226.0860 C   0  0  0  0  0  0  0  0  0  0  0  0
  139.5180   69.4520  223.7890 C   0  0  0  0  0  0  0  0  0  0  0  0
  139.0530   70.8260  223.3500 C   0  0  0  0  0  0  0  0  0  0  0  0
  140.1790   71.7300  223.5690 N   0  0  0  0  0  0  0  0  0  0  0  0
  140.7240   72.4380  222.4640 C   0  0  0  0  0  0  0  0  0  0  0  0
  141.4310   71.7770  221.4810 C   0  0  0  0  0  0  0  0  0  0  0  0
  141.9790   72.4150  220.3880 C   0  0  0  0  0  0  0  0  0  0  0  0
  142.7090   71.7480  219.3710 N   0  0  0  0  0  0  0  0  0  0  0  0
  143.9240   71.0010  219.6300 C   0  0  1  0  0  0  0  0  0  0  0  0
  143.8270   69.5690  219.1520 C   0  0  0  0  0  0  0  0  0  0  0  0
  145.1600   68.9100  219.3220 C   0  0  0  0  0  0  0  0  0  0  0  0
  146.3130   69.7140  218.7830 C   0  0  0  0  0  0  0  0  0  0  0  0
  146.2940   71.0790  219.3320 N   0  0  0  0  0  0  0  0  0  0  0  0
  145.0510   71.6530  218.8490 C   0  0  0  0  0  0  0  0  0  0  0  0
  141.7840   73.7590  220.3270 N   0  0  0  0  0  0  0  0  0  0  0  0
  141.0940   74.4180  221.2820 C   0  0  0  0  0  0  0  0  0  0  0  0
  140.8800   75.8340  221.2280 N   0  0  0  0  0  0  0  0  0  0  0  0
  140.9390   76.5690  219.9790 C   0  0  0  0  0  0  0  0  0  0  0  0
  142.0320   77.6190  220.0530 C   0  0  0  0  0  0  0  0  0  0  0  0
  141.6740   78.5070  221.2050 C   0  0  0  0  0  0  0  0  0  0  0  0
  142.0530   79.8280  221.0930 C   0  0  0  0  0  0  0  0  0  0  0  0
  141.7470   80.6810  222.1260 C   0  0  0  0  0  0  0  0  0  0  0  0
  141.0800   80.2090  223.2310 C   0  0  0  0  0  0  0  0  0  0  0  0
  140.7110   78.8740  223.3160 C   0  0  0  0  0  0  0  0  0  0  0  0
  141.0050   77.9980  222.2970 C   0  0  0  0  0  0  0  0  0  0  0  0
  140.5940   76.5830  222.4260 C   0  0  0  0  0  0  0  0  0  0  0  0
  140.5680   73.7480  222.3460 N   0  0  0  0  0  0  0  0  0  0  0  0
  140.7110   71.8820  224.9030 C   0  0  0  0  0  0  0  0  0  0  0  0
  139.4030   67.8214  228.1299 H   0  0  0  0  0  0  0  0  0  0  0  0
  140.4034   69.8752  229.0286 H   0  0  0  0  0  0  0  0  0  0  0  0
  141.0225   71.7736  227.5523 H   0  0  0  0  0  0  0  0  0  0  0  0
  138.9771   67.6068  225.6738 H   0  0  0  0  0  0  0  0  0  0  0  0
  140.4423   69.1715  223.2627 H   0  0  0  0  0  0  0  0  0  0  0  0
  138.7740   68.6746  223.5609 H   0  0  0  0  0  0  0  0  0  0  0  0
  138.7771   70.8124  222.2852 H   0  0  0  0  0  0  0  0  0  0  0  0
  138.1665   71.1476  223.9163 H   0  0  0  0  0  0  0  0  0  0  0  0
  141.5640   70.6890  221.5734 H   0  0  0  0  0  0  0  0  0  0  0  0
  142.3060   71.8290  218.3900 H   0  0  0  0  0  0  0  0  0  0  0  0
  144.0963   71.0030  220.7164 H   0  0  0  0  0  0  0  0  0  0  0  0
  143.0715   69.0323  219.7445 H   0  0  0  0  0  0  0  0  0  0  0  0
  143.5337   69.5489  218.0920 H   0  0  0  0  0  0  0  0  0  0  0  0
  145.3280   68.7411  220.3959 H   0  0  0  0  0  0  0  0  0  0  0  0
  145.1280   67.9733  218.7461 H   0  0  0  0  0  0  0  0  0  0  0  0
  147.2574   69.2246  219.0635 H   0  0  0  0  0  0  0  0  0  0  0  0
  146.2245   69.7709  217.6880 H   0  0  0  0  0  0  0  0  0  0  0  0
  146.2240   71.0070  220.3650 H   0  0  0  0  0  0  0  0  0  0  0  0
  145.0470   72.7400  219.0174 H   0  0  0  0  0  0  0  0  0  0  0  0
  144.9321   71.4767  217.7698 H   0  0  0  0  0  0  0  0  0  0  0  0
  141.1561   75.8730  219.1553 H   0  0  0  0  0  0  0  0  0  0  0  0
  139.9721   77.0624  219.8014 H   0  0  0  0  0  0  0  0  0  0  0  0
  143.0083   77.1429  220.2264 H   0  0  0  0  0  0  0  0  0  0  0  0
  142.1087   78.1877  219.1145 H   0  0  0  0  0  0  0  0  0  0  0  0
  142.5858   80.1892  220.2010 H   0  0  0  0  0  0  0  0  0  0  0  0
  142.0357   81.7409  222.0685 H   0  0  0  0  0  0  0  0  0  0  0  0
  140.8365   80.8955  224.0553 H   0  0  0  0  0  0  0  0  0  0  0  0
  140.1778   78.5125  224.2076 H   0  0  0  0  0  0  0  0  0  0  0  0
  141.1369   76.1293  223.2683 H   0  0  0  0  0  0  0  0  0  0  0  0
  139.5077   76.5554  222.5968 H   0  0  0  0  0  0  0  0  0  0  0  0
  141.8079   71.9435  224.8476 H   0  0  0  0  0  0  0  0  0  0  0  0
  140.2944   72.8000  225.3432 H   0  0  0  0  0  0  0  0  0  0  0  0
  1  2  2  0
  2  3  1  0
  3  4  2  0
  4  5  1  0
  5  6  2  0
  5  7  1  0
  7  8  1  0
  8  9  1  0
  9 10  1  0
 10 11  2  0
 11 12  1  0
 12 13  1  0
 13 14  1  0
 14 15  1  0
 15 16  1  0
 16 17  1  0
 17 18  1  0
 18 19  1  0
 12 20  2  0
 20 21  1  0
 21 22  1  0
 22 23  1  0
 23 24  1  0
 24 25  1  0
 25 26  2  0
 26 27  1  0
 27 28  2  0
 28 29  1  0
 29 30  2  0
 30 31  1  0
 21 32  2  0
  9 33  1  0
  6  1  1  0
 32 10  1  0
 33  4  1  0
 19 14  1  0
 31 22  1  0
 30 25  1  0
  1 34  1  0
  2 35  1  0
  3 36  1  0
  6 37  1  0
  7 38  1  0
  7 39  1  0
  8 40  1  0
  8 41  1  0
 11 42  1  0
 13 43  1  0
 14 44  1  1
 15 45  1  0
 15 46  1  0
 16 47  1  0
 16 48  1  0
 17 49  1  0
 17 50  1  0
 18 51  1  0
 19 52  1  0
 19 53  1  0
 23 54  1  0
 23 55  1  0
 24 56  1  0
 24 57  1  0
 26 58  1  0
 27 59  1  0
 28 60  1  0
 29 61  1  0
 31 62  1  0
 31 63  1  0
 33 64  1  0
 33 65  1  0
M  END
>  <smiles>  (73) 
c1ccc2c(c1)CCN(c1cc(NC3CCCNC3)nc(N3CCc4ccccc4C3)n1)C2

>  <score_type>  (73) 
oracle

>  <origin>  (73) 
autodockgpu

>  <m_score__min__energy>  (73) 
-10.15

>  <m_primary>  (73) 
energy

>  <rmsd>  (73) 
8.843344342354493

>  <m_score__min__rmsd>  (73) 
8.843344342354493

>  <meeko>  (73) 
{"free_energy": -10.13, "intermolecular_energy": -11.32, "internal_energy": -0.93, "cluster_size": 41, "cluster_id": 1, "rank_in_cluster": 5}

>  <energy>  (73) 
-9.71

>  <cluster_rmsd>  (73) 
1.81

>  <cluster>  (73) 
1

$$$$

     RDKit          3D

 65 70  0  0  0  0  0  0  0  0999 V2000
  139.3500   68.2590  226.6970 C   0  0  0  0  0  0  0  0  0  0  0  0
  140.0210   69.2640  227.3520 C   0  0  0  0  0  0  0  0  0  0  0  0
  140.4650   70.4010  226.7070 C   0  0  0  0  0  0  0  0  0  0  0  0
  140.2060   70.5030  225.3370 C   0  0  0  0  0  0  0  0  0  0  0  0
  139.5330   69.4970  224.6750 C   0  0  0  0  0  0  0  0  0  0  0  0
  139.0970   68.3690  225.3350 C   0  0  0  0  0  0  0  0  0  0  0  0
  139.2660   69.6270  223.2050 C   0  0  0  0  0  0  0  0  0  0  0  0
  138.9330   71.0900  222.9890 C   0  0  0  0  0  0  0  0  0  0  0  0
  140.1410   71.8400  223.3220 N   0  0  0  0  0  0  0  0  0  0  0  0
  140.7460   72.6550  222.3280 C   0  0  0  0  0  0  0  0  0  0  0  0
  141.5510   72.1000  221.3540 C   0  0  0  0  0  0  0  0  0  0  0  0
  142.1620   72.8440  220.3670 C   0  0  0  0  0  0  0  0  0  0  0  0
  142.9930   72.2870  219.3610 N   0  0  0  0  0  0  0  0  0  0  0  0
  144.0100   71.2930  219.6370 C   0  0  1  0  0  0  0  0  0  0  0  0
  143.5860   69.9060  219.2060 C   0  0  0  0  0  0  0  0  0  0  0  0
  144.7380   68.9670  219.3900 C   0  0  0  0  0  0  0  0  0  0  0  0
  146.0360   69.4730  218.8190 C   0  0  0  0  0  0  0  0  0  0  0  0
  146.3330   70.8230  219.3240 N   0  0  0  0  0  0  0  0  0  0  0  0
  145.2460   71.6490  218.8290 C   0  0  0  0  0  0  0  0  0  0  0  0
  141.9250   74.1820  220.4010 N   0  0  0  0  0  0  0  0  0  0  0  0
  141.1390   74.7370  221.3470 C   0  0  0  0  0  0  0  0  0  0  0  0
  140.8800   76.1470  221.3930 N   0  0  0  0  0  0  0  0  0  0  0  0
  140.7290   76.9360  220.1860 C   0  0  0  0  0  0  0  0  0  0  0  0
  141.7900   78.0190  220.1440 C   0  0  0  0  0  0  0  0  0  0  0  0
  141.5880   78.8440  221.3770 C   0  0  0  0  0  0  0  0  0  0  0  0
  141.9090   80.1810  221.2720 C   0  0  0  0  0  0  0  0  0  0  0  0
  141.7410   80.9780  222.3790 C   0  0  0  0  0  0  0  0  0  0  0  0
  141.2630   80.4370  223.5480 C   0  0  0  0  0  0  0  0  0  0  0  0
  140.9480   79.0870  223.6240 C   0  0  0  0  0  0  0  0  0  0  0  0
  141.1070   78.2660  222.5320 C   0  0  0  0  0  0  0  0  0  0  0  0
  140.7600   76.8330  222.6550 C   0  0  0  0  0  0  0  0  0  0  0  0
  140.5550   73.9650  222.3050 N   0  0  0  0  0  0  0  0  0  0  0  0
  140.6910   71.7350  224.6540 C   0  0  0  0  0  0  0  0  0  0  0  0
  139.0139   67.3694  227.2498 H   0  0  0  0  0  0  0  0  0  0  0  0
  140.2113   69.1584  228.4303 H   0  0  0  0  0  0  0  0  0  0  0  0
  141.0007   71.1943  227.2489 H   0  0  0  0  0  0  0  0  0  0  0  0
  138.5610   67.5738  224.7963 H   0  0  0  0  0  0  0  0  0  0  0  0
  140.1568   69.3445  222.6248 H   0  0  0  0  0  0  0  0  0  0  0  0
  138.4502   68.9668  222.8755 H   0  0  0  0  0  0  0  0  0  0  0  0
  138.6529   71.2658  221.9399 H   0  0  0  0  0  0  0  0  0  0  0  0
  138.0837   71.4028  223.6142 H   0  0  0  0  0  0  0  0  0  0  0  0
  141.7129   71.0120  221.3657 H   0  0  0  0  0  0  0  0  0  0  0  0
  142.8220   72.6470  218.3750 H   0  0  0  0  0  0  0  0  0  0  0  0
  144.1915   71.2889  220.7219 H   0  0  0  0  0  0  0  0  0  0  0  0
  142.7362   69.5724  219.8196 H   0  0  0  0  0  0  0  0  0  0  0  0
  143.2828   69.9209  218.1487 H   0  0  0  0  0  0  0  0  0  0  0  0
  144.8770   68.7967  220.4678 H   0  0  0  0  0  0  0  0  0  0  0  0
  144.4879   68.0448  218.8450 H   0  0  0  0  0  0  0  0  0  0  0  0
  146.8489   68.7914  219.1098 H   0  0  0  0  0  0  0  0  0  0  0  0
  145.9486   69.5156  217.7233 H   0  0  0  0  0  0  0  0  0  0  0  0
  146.2610   70.8000  220.3590 H   0  0  0  0  0  0  0  0  0  0  0  0
  145.4901   72.7133  218.9622 H   0  0  0  0  0  0  0  0  0  0  0  0
  145.0769   71.4717  217.7566 H   0  0  0  0  0  0  0  0  0  0  0  0
  140.8382   76.2835  219.3072 H   0  0  0  0  0  0  0  0  0  0  0  0
  139.7330   77.4029  220.1796 H   0  0  0  0  0  0  0  0  0  0  0  0
  142.7943   77.5702  220.1449 H   0  0  0  0  0  0  0  0  0  0  0  0
  141.7060   78.6296  219.2329 H   0  0  0  0  0  0  0  0  0  0  0  0
  142.2892   80.5983  220.3279 H   0  0  0  0  0  0  0  0  0  0  0  0
  141.9891   82.0485  222.3291 H   0  0  0  0  0  0  0  0  0  0  0  0
  141.1288   81.0789  224.4312 H   0  0  0  0  0  0  0  0  0  0  0  0
  140.5671   78.6695  224.5677 H   0  0  0  0  0  0  0  0  0  0  0  0
  141.4379   76.3629  223.3826 H   0  0  0  0  0  0  0  0  0  0  0  0
  139.7141   76.7600  222.9878 H   0  0  0  0  0  0  0  0  0  0  0  0
  141.7885   71.7013  224.5883 H   0  0  0  0  0  0  0  0  0  0  0  0
  140.3662   72.6095  225.2369 H   0  0  0  0  0  0  0  0  0  0  0  0
  1  2  2  0
  2  3  1  0
  3  4  2  0
  4  5  1  0
  5  6  2  0
  5  7  1  0
  7  8  1  0
  8  9  1  0
  9 10  1  0
 10 11  2  0
 11 12  1  0
 12 13  1  0
 13 14  1  0
 14 15  1  0
 15 16  1  0
 16 17  1  0
 17 18  1  0
 18 19  1  0
 12 20  2  0
 20 21  1  0
 21 22  1  0
 22 23  1  0
 23 24  1  0
 24 25  1  0
 25 26  2  0
 26 27  1  0
 27 28  2  0
 28 29  1  0
 29 30  2  0
 30 31  1  0
 21 32  2  0
  9 33  1  0
  6  1  1  0
 32 10  1  0
 33  4  1  0
 19 14  1  0
 31 22  1  0
 30 25  1  0
  1 34  1  0
  2 35  1  0
  3 36  1  0
  6 37  1  0
  7 38  1  0
  7 39  1  0
  8 40  1  0
  8 41  1  0
 11 42  1  0
 13 43  1  0
 14 44  1  1
 15 45  1  0
 15 46  1  0
 16 47  1  0
 16 48  1  0
 17 49  1  0
 17 50  1  0
 18 51  1  0
 19 52  1  0
 19 53  1  0
 23 54  1  0
 23 55  1  0
 24 56  1  0
 24 57  1  0
 26 58  1  0
 27 59  1  0
 28 60  1  0
 29 61  1  0
 31 62  1  0
 31 63  1  0
 33 64  1  0
 33 65  1  0
M  END
>  <smiles>  (74) 
c1ccc2c(c1)CCN(c1cc(NC3CCCNC3)nc(N3CCc4ccccc4C3)n1)C2

>  <score_type>  (74) 
oracle

>  <origin>  (74) 
autodockgpu

>  <m_score__min__energy>  (74) 
-10.15

>  <m_primary>  (74) 
energy

>  <rmsd>  (74) 
8.713781262647524

>  <m_score__min__rmsd>  (74) 
8.713781262647524

>  <meeko>  (74) 
{"free_energy": -9.99, "intermolecular_energy": -11.19, "internal_energy": -0.95, "cluster_size": 41, "cluster_id": 1, "rank_in_cluster": 14}

>  <energy>  (74) 
-9.7

>  <cluster_rmsd>  (74) 
1.62

>  <cluster>  (74) 
1

$$$$

     RDKit          3D

 65 70  0  0  0  0  0  0  0  0999 V2000
  139.8780   68.6790  227.5630 C   0  0  0  0  0  0  0  0  0  0  0  0
  140.5030   69.8280  227.9830 C   0  0  0  0  0  0  0  0  0  0  0  0
  140.7840   70.8740  227.1260 C   0  0  0  0  0  0  0  0  0  0  0  0
  140.4060   70.7260  225.7890 C   0  0  0  0  0  0  0  0  0  0  0  0
  139.7780   69.5730  225.3620 C   0  0  0  0  0  0  0  0  0  0  0  0
  139.5040   68.5400  226.2320 C   0  0  0  0  0  0  0  0  0  0  0  0
  139.3800   69.4360  223.9240 C   0  0  0  0  0  0  0  0  0  0  0  0
  138.8950   70.8120  223.5110 C   0  0  0  0  0  0  0  0  0  0  0  0
  140.0510   71.7000  223.6030 N   0  0  0  0  0  0  0  0  0  0  0  0
  140.4930   72.3830  222.4390 C   0  0  0  0  0  0  0  0  0  0  0  0
  141.0060   71.6870  221.3630 C   0  0  0  0  0  0  0  0  0  0  0  0
  141.4480   72.2990  220.2100 C   0  0  0  0  0  0  0  0  0  0  0  0
  141.9780   71.5970  219.0980 N   0  0  0  0  0  0  0  0  0  0  0  0
  143.2610   71.9110  218.5020 C   0  0  1  0  0  0  0  0  0  0  0  0
  143.2550   73.2580  217.8120 C   0  0  0  0  0  0  0  0  0  0  0  0
  144.6450   73.5720  217.3510 C   0  0  0  0  0  0  0  0  0  0  0  0
  145.6990   73.3710  218.4080 C   0  0  0  0  0  0  0  0  0  0  0  0
  145.5980   72.0240  218.9900 N   0  0  0  0  0  0  0  0  0  0  0  0
  144.2890   71.9910  219.6170 C   0  0  0  0  0  0  0  0  0  0  0  0
  141.3520   73.6550  220.1850 N   0  0  0  0  0  0  0  0  0  0  0  0
  140.8520   74.3480  221.2300 C   0  0  0  0  0  0  0  0  0  0  0  0
  140.7450   75.7780  221.2150 N   0  0  0  0  0  0  0  0  0  0  0  0
  140.9850   76.5500  220.0110 C   0  0  0  0  0  0  0  0  0  0  0  0
  142.1340   77.5130  220.2400 C   0  0  0  0  0  0  0  0  0  0  0  0
  141.7220   78.3840  221.3870 C   0  0  0  0  0  0  0  0  0  0  0  0
  142.2020   79.6770  221.3700 C   0  0  0  0  0  0  0  0  0  0  0  0
  141.8510   80.5130  222.4020 C   0  0  0  0  0  0  0  0  0  0  0  0
  141.0410   80.0530  223.4130 C   0  0  0  0  0  0  0  0  0  0  0  0
  140.5730   78.7470  223.4040 C   0  0  0  0  0  0  0  0  0  0  0  0
  140.9090   77.8870  222.3830 C   0  0  0  0  0  0  0  0  0  0  0  0
  140.3890   76.5030  222.4090 C   0  0  0  0  0  0  0  0  0  0  0  0
  140.4260   73.7030  222.3510 N   0  0  0  0  0  0  0  0  0  0  0  0
  140.7150   71.8620  224.8760 C   0  0  0  0  0  0  0  0  0  0  0  0
  139.6738   67.8698  228.2796 H   0  0  0  0  0  0  0  0  0  0  0  0
  140.7903   69.9183  229.0410 H   0  0  0  0  0  0  0  0  0  0  0  0
  141.2850   71.7865  227.4815 H   0  0  0  0  0  0  0  0  0  0  0  0
  139.0010   67.6269  225.8810 H   0  0  0  0  0  0  0  0  0  0  0  0
  140.2424   69.1318  223.3127 H   0  0  0  0  0  0  0  0  0  0  0  0
  138.6046   68.6685  223.7841 H   0  0  0  0  0  0  0  0  0  0  0  0
  138.5148   70.7877  222.4791 H   0  0  0  0  0  0  0  0  0  0  0  0
  138.0742   71.1567  224.1571 H   0  0  0  0  0  0  0  0  0  0  0  0
  141.0649   70.5906  221.4290 H   0  0  0  0  0  0  0  0  0  0  0  0
  141.3690   70.8110  218.7200 H   0  0  0  0  0  0  0  0  0  0  0  0
  143.4893   71.1308  217.7609 H   0  0  0  0  0  0  0  0  0  0  0  0
  142.5769   73.2267  216.9464 H   0  0  0  0  0  0  0  0  0  0  0  0
  142.9096   74.0338  218.5111 H   0  0  0  0  0  0  0  0  0  0  0  0
  144.8822   72.9203  216.4972 H   0  0  0  0  0  0  0  0  0  0  0  0
  144.6595   74.6392  217.0848 H   0  0  0  0  0  0  0  0  0  0  0  0
  146.6937   73.4955  217.9550 H   0  0  0  0  0  0  0  0  0  0  0  0
  145.5483   74.1140  219.2050 H   0  0  0  0  0  0  0  0  0  0  0  0
  145.5880   71.3390  218.2100 H   0  0  0  0  0  0  0  0  0  0  0  0
  144.2059   71.1101  220.2706 H   0  0  0  0  0  0  0  0  0  0  0  0
  144.1280   72.8873  220.2340 H   0  0  0  0  0  0  0  0  0  0  0  0
  141.2380   75.8692  219.1848 H   0  0  0  0  0  0  0  0  0  0  0  0
  140.0786   77.1192  219.7573 H   0  0  0  0  0  0  0  0  0  0  0  0
  143.0515   76.9603  220.4904 H   0  0  0  0  0  0  0  0  0  0  0  0
  142.3463   78.1076  219.3392 H   0  0  0  0  0  0  0  0  0  0  0  0
  142.8482   80.0291  220.5524 H   0  0  0  0  0  0  0  0  0  0  0  0
  142.2179   81.5499  222.4194 H   0  0  0  0  0  0  0  0  0  0  0  0
  140.7614   80.7265  224.2365 H   0  0  0  0  0  0  0  0  0  0  0  0
  139.9266   78.3950  224.2214 H   0  0  0  0  0  0  0  0  0  0  0  0
  140.8083   75.9808  223.2816 H   0  0  0  0  0  0  0  0  0  0  0  0
  139.2916   76.5497  222.4679 H   0  0  0  0  0  0  0  0  0  0  0  0
  141.8018   71.9058  224.7116 H   0  0  0  0  0  0  0  0  0  0  0  0
  140.3573   72.7923  225.3414 H   0  0  0  0  0  0  0  0  0  0  0  0
  1  2  2  0
  2  3  1  0
  3  4  2  0
  4  5  1  0
  5  6  2  0
  5  7  1  0
  7  8  1  0
  8  9  1  0
  9 10  1  0
 10 11  2  0
 11 12  1  0
 12 13  1  0
 13 14  1  0
 14 15  1  0
 15 16  1  0
 16 17  1  0
 17 18  1  0
 18 19  1  0
 12 20  2  0
 20 21  1  0
 21 22  1  0
 22 23  1  0
 23 24  1  0
 24 25  1  0
 25 26  2  0
 26 27  1  0
 27 28  2  0
 28 29  1  0
 29 30  2  0
 30 31  1  0
 21 32  2  0
  9 33  1  0
  6  1  1  0
 32 10  1  0
 33  4  1  0
 19 14  1  0
 31 22  1  0
 30 25  1  0
  1 34  1  0
  2 35  1  0
  3 36  1  0
  6 37  1  0
  7 38  1  0
  7 39  1  0
  8 40  1  0
  8 41  1  0
 11 42  1  0
 13 43  1  0
 14 44  1  6
 15 45  1  0
 15 46  1  0
 16 47  1  0
 16 48  1  0
 17 49  1  0
 17 50  1  0
 18 51  1  0
 19 52  1  0
 19 53  1  0
 23 54  1  0
 23 55  1  0
 24 56  1  0
 24 57  1  0
 26 58  1  0
 27 59  1  0
 28 60  1  0
 29 61  1  0
 31 62  1  0
 31 63  1  0
 33 64  1  0
 33 65  1  0
M  END
>  <smiles>  (75) 
c1ccc2c(c1)CCN(c1cc(NC3CCCNC3)nc(N3CCc4ccccc4C3)n1)C2

>  <score_type>  (75) 
oracle

>  <origin>  (75) 
autodockgpu

>  <m_score__min__energy>  (75) 
-10.15

>  <m_primary>  (75) 
energy

>  <rmsd>  (75) 
7.00599794522481

>  <m_score__min__rmsd>  (75) 
7.00599794522481

>  <meeko>  (75) 
{"free_energy": -9.44, "intermolecular_energy": -10.63, "internal_energy": -1.18, "cluster_size": 41, "cluster_id": 1, "rank_in_cluster": 30}

>  <energy>  (75) 
-9.69

>  <cluster_rmsd>  (75) 
1.61

>  <cluster>  (75) 
1

$$$$

     RDKit          3D

 65 70  0  0  0  0  0  0  0  0999 V2000
  139.5110   68.4990  227.1760 C   0  0  0  0  0  0  0  0  0  0  0  0
  140.1400   69.5860  227.7340 C   0  0  0  0  0  0  0  0  0  0  0  0
  140.5320   70.6790  226.9880 C   0  0  0  0  0  0  0  0  0  0  0  0
  140.2630   70.6480  225.6170 C   0  0  0  0  0  0  0  0  0  0  0  0
  139.6320   69.5590  225.0510 C   0  0  0  0  0  0  0  0  0  0  0  0
  139.2480   68.4760  225.8120 C   0  0  0  0  0  0  0  0  0  0  0  0
  139.3540   69.5460  223.5780 C   0  0  0  0  0  0  0  0  0  0  0  0
  138.9570   70.9690  223.2350 C   0  0  0  0  0  0  0  0  0  0  0  0
  140.1330   71.7970  223.4910 N   0  0  0  0  0  0  0  0  0  0  0  0
  140.6980   72.5450  222.4240 C   0  0  0  0  0  0  0  0  0  0  0  0
  141.4310   71.9220  221.4350 C   0  0  0  0  0  0  0  0  0  0  0  0
  142.0010   72.5990  220.3780 C   0  0  0  0  0  0  0  0  0  0  0  0
  142.7580   71.9720  219.3560 N   0  0  0  0  0  0  0  0  0  0  0  0
  143.9140   71.1410  219.6260 C   0  0  1  0  0  0  0  0  0  0  0  0
  143.7200   69.7190  219.1480 C   0  0  0  0  0  0  0  0  0  0  0  0
  145.0020   68.9670  219.3300 C   0  0  0  0  0  0  0  0  0  0  0  0
  146.2140   69.6870  218.8010 C   0  0  0  0  0  0  0  0  0  0  0  0
  146.2870   71.0510  219.3490 N   0  0  0  0  0  0  0  0  0  0  0  0
  145.0920   71.7100  218.8540 C   0  0  0  0  0  0  0  0  0  0  0  0
  141.7980   73.9440  220.3580 N   0  0  0  0  0  0  0  0  0  0  0  0
  141.0820   74.5660  221.3180 C   0  0  0  0  0  0  0  0  0  0  0  0
  140.8600   75.9820  221.3070 N   0  0  0  0  0  0  0  0  0  0  0  0
  140.7890   76.7350  220.0700 C   0  0  0  0  0  0  0  0  0  0  0  0
  141.8810   77.7880  220.0470 C   0  0  0  0  0  0  0  0  0  0  0  0
  141.6410   78.6580  221.2420 C   0  0  0  0  0  0  0  0  0  0  0  0
  142.0030   79.9820  221.1110 C   0  0  0  0  0  0  0  0  0  0  0  0
  141.8020   80.8190  222.1830 C   0  0  0  0  0  0  0  0  0  0  0  0
  141.2530   80.3280  223.3430 C   0  0  0  0  0  0  0  0  0  0  0  0
  140.8980   78.9910  223.4460 C   0  0  0  0  0  0  0  0  0  0  0  0
  141.0880   78.1300  222.3890 C   0  0  0  0  0  0  0  0  0  0  0  0
  140.6960   76.7120  222.5390 C   0  0  0  0  0  0  0  0  0  0  0  0
  140.5360   73.8580  222.3460 N   0  0  0  0  0  0  0  0  0  0  0  0
  140.6910   71.8340  224.8220 C   0  0  0  0  0  0  0  0  0  0  0  0
  139.2162   67.6485  227.8083 H   0  0  0  0  0  0  0  0  0  0  0  0
  140.3385   69.5849  228.8159 H   0  0  0  0  0  0  0  0  0  0  0  0
  141.0355   71.5392  227.4535 H   0  0  0  0  0  0  0  0  0  0  0  0
  138.7450   67.6136  225.3502 H   0  0  0  0  0  0  0  0  0  0  0  0
  140.2539   69.2512  223.0183 H   0  0  0  0  0  0  0  0  0  0  0  0
  138.5661   68.8249  223.3149 H   0  0  0  0  0  0  0  0  0  0  0  0
  138.6657   71.0383  222.1765 H   0  0  0  0  0  0  0  0  0  0  0  0
  138.0973   71.2997  223.8362 H   0  0  0  0  0  0  0  0  0  0  0  0
  141.5672   70.8320  221.4927 H   0  0  0  0  0  0  0  0  0  0  0  0
  142.4220   72.1490  218.3620 H   0  0  0  0  0  0  0  0  0  0  0  0
  144.0760   71.1324  220.7140 H   0  0  0  0  0  0  0  0  0  0  0  0
  142.9232   69.2378  219.7342 H   0  0  0  0  0  0  0  0  0  0  0  0
  143.4353   69.7185  218.0855 H   0  0  0  0  0  0  0  0  0  0  0  0
  145.1482   68.7874  220.4054 H   0  0  0  0  0  0  0  0  0  0  0  0
  144.9088   68.0345  218.7540 H   0  0  0  0  0  0  0  0  0  0  0  0
  147.1188   69.1323  219.0903 H   0  0  0  0  0  0  0  0  0  0  0  0
  146.1394   69.7488  217.7053 H   0  0  0  0  0  0  0  0  0  0  0  0
  146.2020   70.9850  220.3810 H   0  0  0  0  0  0  0  0  0  0  0  0
  145.1633   72.7950  219.0206 H   0  0  0  0  0  0  0  0  0  0  0  0
  144.9706   71.5397  217.7741 H   0  0  0  0  0  0  0  0  0  0  0  0
  140.9223   76.0518  219.2183 H   0  0  0  0  0  0  0  0  0  0  0  0
  139.8078   77.2272  219.9998 H   0  0  0  0  0  0  0  0  0  0  0  0
  142.8711   77.3133  220.1125 H   0  0  0  0  0  0  0  0  0  0  0  0
  141.8595   78.3703  219.1140 H   0  0  0  0  0  0  0  0  0  0  0  0
  142.4406   80.3582  220.1745 H   0  0  0  0  0  0  0  0  0  0  0  0
  142.0804   81.8808  222.1121 H   0  0  0  0  0  0  0  0  0  0  0  0
  141.0935   81.0015  224.1980 H   0  0  0  0  0  0  0  0  0  0  0  0
  140.4600   78.6148  224.3823 H   0  0  0  0  0  0  0  0  0  0  0  0
  141.3234   76.2485  223.3146 H   0  0  0  0  0  0  0  0  0  0  0  0
  139.6331   76.6772  222.8201 H   0  0  0  0  0  0  0  0  0  0  0  0
  141.7887   71.8418  224.7512 H   0  0  0  0  0  0  0  0  0  0  0  0
  140.3294   72.7418  225.3271 H   0  0  0  0  0  0  0  0  0  0  0  0
  1  2  2  0
  2  3  1  0
  3  4  2  0
  4  5  1  0
  5  6  2  0
  5  7  1  0
  7  8  1  0
  8  9  1  0
  9 10  1  0
 10 11  2  0
 11 12  1  0
 12 13  1  0
 13 14  1  0
 14 15  1  0
 15 16  1  0
 16 17  1  0
 17 18  1  0
 18 19  1  0
 12 20  2  0
 20 21  1  0
 21 22  1  0
 22 23  1  0
 23 24  1  0
 24 25  1  0
 25 26  2  0
 26 27  1  0
 27 28  2  0
 28 29  1  0
 29 30  2  0
 30 31  1  0
 21 32  2  0
  9 33  1  0
  6  1  1  0
 32 10  1  0
 33  4  1  0
 19 14  1  0
 31 22  1  0
 30 25  1  0
  1 34  1  0
  2 35  1  0
  3 36  1  0
  6 37  1  0
  7 38  1  0
  7 39  1  0
  8 40  1  0
  8 41  1  0
 11 42  1  0
 13 43  1  0
 14 44  1  1
 15 45  1  0
 15 46  1  0
 16 47  1  0
 16 48  1  0
 17 49  1  0
 17 50  1  0
 18 51  1  0
 19 52  1  0
 19 53  1  0
 23 54  1  0
 23 55  1  0
 24 56  1  0
 24 57  1  0
 26 58  1  0
 27 59  1  0
 28 60  1  0
 29 61  1  0
 31 62  1  0
 31 63  1  0
 33 64  1  0
 33 65  1  0
M  END
>  <smiles>  (76) 
c1ccc2c(c1)CCN(c1cc(NC3CCCNC3)nc(N3CCc4ccccc4C3)n1)C2

>  <score_type>  (76) 
oracle

>  <origin>  (76) 
autodockgpu

>  <m_score__min__energy>  (76) 
-10.15

>  <m_primary>  (76) 
energy

>  <rmsd>  (76) 
8.756297332615496

>  <m_score__min__rmsd>  (76) 
8.756297332615496

>  <meeko>  (76) 
{"free_energy": -10.15, "intermolecular_energy": -11.34, "internal_energy": -0.93, "cluster_size": 41, "cluster_id": 1, "rank_in_cluster": 1}

>  <energy>  (76) 
-9.69

>  <cluster_rmsd>  (76) 
1.77

>  <cluster>  (76) 
1

$$$$

     RDKit          3D

 65 70  0  0  0  0  0  0  0  0999 V2000
  139.8590   68.1140  227.5080 C   0  0  0  0  0  0  0  0  0  0  0  0
  140.5270   69.2040  228.0130 C   0  0  0  0  0  0  0  0  0  0  0  0
  140.7930   70.3270  227.2550 C   0  0  0  0  0  0  0  0  0  0  0  0
  140.3520   70.3240  225.9290 C   0  0  0  0  0  0  0  0  0  0  0  0
  139.6810   69.2320  225.4160 C   0  0  0  0  0  0  0  0  0  0  0  0
  139.4240   68.1200  226.1880 C   0  0  0  0  0  0  0  0  0  0  0  0
  139.2170   69.2500  223.9910 C   0  0  0  0  0  0  0  0  0  0  0  0
  138.7440   70.6690  223.7430 C   0  0  0  0  0  0  0  0  0  0  0  0
  139.9220   71.5230  223.8720 N   0  0  0  0  0  0  0  0  0  0  0  0
  140.3270   72.3140  222.7640 C   0  0  0  0  0  0  0  0  0  0  0  0
  141.0690   71.7660  221.7370 C   0  0  0  0  0  0  0  0  0  0  0  0
  141.4870   72.4870  220.6400 C   0  0  0  0  0  0  0  0  0  0  0  0
  142.2510   71.9370  219.5790 N   0  0  0  0  0  0  0  0  0  0  0  0
  143.5210   71.2700  219.7830 C   0  0  1  0  0  0  0  0  0  0  0  0
  143.5170   69.8560  219.2440 C   0  0  0  0  0  0  0  0  0  0  0  0
  144.8970   69.2880  219.3610 C   0  0  0  0  0  0  0  0  0  0  0  0
  145.9780   70.1960  218.8370 C   0  0  0  0  0  0  0  0  0  0  0  0
  145.8730   71.5310  219.4460 N   0  0  0  0  0  0  0  0  0  0  0  0
  144.5820   72.0340  219.0110 C   0  0  0  0  0  0  0  0  0  0  0  0
  141.1240   73.7970  220.6190 N   0  0  0  0  0  0  0  0  0  0  0  0
  140.3980   74.3460  221.6160 C   0  0  0  0  0  0  0  0  0  0  0  0
  140.0080   75.7260  221.6050 N   0  0  0  0  0  0  0  0  0  0  0  0
  140.9450   76.7830  221.2750 C   0  0  0  0  0  0  0  0  0  0  0  0
  141.0770   77.7360  222.4480 C   0  0  0  0  0  0  0  0  0  0  0  0
  139.7020   78.2710  222.7020 C   0  0  0  0  0  0  0  0  0  0  0  0
  139.6330   79.5580  223.1930 C   0  0  0  0  0  0  0  0  0  0  0  0
  138.3910   80.0920  223.4420 C   0  0  0  0  0  0  0  0  0  0  0  0
  137.2630   79.3460  223.2010 C   0  0  0  0  0  0  0  0  0  0  0  0
  137.3630   78.0530  222.7070 C   0  0  0  0  0  0  0  0  0  0  0  0
  138.5920   77.4930  222.4480 C   0  0  0  0  0  0  0  0  0  0  0  0
  138.6560   76.1130  221.9220 C   0  0  0  0  0  0  0  0  0  0  0  0
  140.0050   73.5970  222.6830 N   0  0  0  0  0  0  0  0  0  0  0  0
  140.6450   71.5420  225.1220 C   0  0  0  0  0  0  0  0  0  0  0  0
  139.6692   67.2390  228.1471 H   0  0  0  0  0  0  0  0  0  0  0  0
  140.8623   69.1808  229.0604 H   0  0  0  0  0  0  0  0  0  0  0  0
  141.3301   71.1889  227.6777 H   0  0  0  0  0  0  0  0  0  0  0  0
  138.8866   67.2565  225.7690 H   0  0  0  0  0  0  0  0  0  0  0  0
  140.0449   68.9956  223.3128 H   0  0  0  0  0  0  0  0  0  0  0  0
  138.4198   68.5141  223.8096 H   0  0  0  0  0  0  0  0  0  0  0  0
  138.3185   70.7574  222.7325 H   0  0  0  0  0  0  0  0  0  0  0  0
  137.9598   70.9594  224.4577 H   0  0  0  0  0  0  0  0  0  0  0  0
  141.3398   70.7016  221.7975 H   0  0  0  0  0  0  0  0  0  0  0  0
  141.8290   72.0430  218.6080 H   0  0  0  0  0  0  0  0  0  0  0  0
  143.7151   71.2387  220.8653 H   0  0  0  0  0  0  0  0  0  0  0  0
  142.8142   69.2412  219.8256 H   0  0  0  0  0  0  0  0  0  0  0  0
  143.2042   69.8603  218.1894 H   0  0  0  0  0  0  0  0  0  0  0  0
  145.0993   69.0860  220.4232 H   0  0  0  0  0  0  0  0  0  0  0  0
  144.9200   68.3766  218.7455 H   0  0  0  0  0  0  0  0  0  0  0  0
  146.9608   69.7648  219.0784 H   0  0  0  0  0  0  0  0  0  0  0  0
  145.8623   70.2931  217.7474 H   0  0  0  0  0  0  0  0  0  0  0  0
  145.8300   71.4100  220.4760 H   0  0  0  0  0  0  0  0  0  0  0  0
  144.5042   73.1098  219.2269 H   0  0  0  0  0  0  0  0  0  0  0  0
  144.4531   71.8954  217.9274 H   0  0  0  0  0  0  0  0  0  0  0  0
  141.9276   76.3429  221.0494 H   0  0  0  0  0  0  0  0  0  0  0  0
  140.5764   77.3349  220.3978 H   0  0  0  0  0  0  0  0  0  0  0  0
  141.4490   77.2016  223.3346 H   0  0  0  0  0  0  0  0  0  0  0  0
  141.7903   78.5449  222.2316 H   0  0  0  0  0  0  0  0  0  0  0  0
  140.5467   80.1411  223.3802 H   0  0  0  0  0  0  0  0  0  0  0  0
  138.3005   81.1158  223.8339 H   0  0  0  0  0  0  0  0  0  0  0  0
  136.2712   79.7775  223.4015 H   0  0  0  0  0  0  0  0  0  0  0  0
  136.4492   77.4697  222.5206 H   0  0  0  0  0  0  0  0  0  0  0  0
  138.2562   75.4235  222.6801 H   0  0  0  0  0  0  0  0  0  0  0  0
  138.0611   76.0701  220.9977 H   0  0  0  0  0  0  0  0  0  0  0  0
  141.7241   71.5833  224.9124 H   0  0  0  0  0  0  0  0  0  0  0  0
  140.3288   72.4258  225.6954 H   0  0  0  0  0  0  0  0  0  0  0  0
  1  2  2  0
  2  3  1  0
  3  4  2  0
  4  5  1  0
  5  6  2  0
  5  7  1  0
  7  8  1  0
  8  9  1  0
  9 10  1  0
 10 11  2  0
 11 12  1  0
 12 13  1  0
 13 14  1  0
 14 15  1  0
 15 16  1  0
 16 17  1  0
 17 18  1  0
 18 19  1  0
 12 20  2  0
 20 21  1  0
 21 22  1  0
 22 23  1  0
 23 24  1  0
 24 25  1  0
 25 26  2  0
 26 27  1  0
 27 28  2  0
 28 29  1  0
 29 30  2  0
 30 31  1  0
 21 32  2  0
  9 33  1  0
  6  1  1  0
 32 10  1  0
 33  4  1  0
 19 14  1  0
 31 22  1  0
 30 25  1  0
  1 34  1  0
  2 35  1  0
  3 36  1  0
  6 37  1  0
  7 38  1  0
  7 39  1  0
  8 40  1  0
  8 41  1  0
 11 42  1  0
 13 43  1  0
 14 44  1  1
 15 45  1  0
 15 46  1  0
 16 47  1  0
 16 48  1  0
 17 49  1  0
 17 50  1  0
 18 51  1  0
 19 52  1  0
 19 53  1  0
 23 54  1  0
 23 55  1  0
 24 56  1  0
 24 57  1  0
 26 58  1  0
 27 59  1  0
 28 60  1  0
 29 61  1  0
 31 62  1  0
 31 63  1  0
 33 64  1  0
 33 65  1  0
M  END
>  <smiles>  (77) 
c1ccc2c(c1)CCN(c1cc(NC3CCCNC3)nc(N3CCc4ccccc4C3)n1)C2

>  <score_type>  (77) 
oracle

>  <origin>  (77) 
autodockgpu

>  <m_score__min__energy>  (77) 
-10.15

>  <m_primary>  (77) 
energy

>  <rmsd>  (77) 
8.49585250600369

>  <m_score__min__rmsd>  (77) 
8.49585250600369

>  <meeko>  (77) 
{"free_energy": -9.92, "intermolecular_energy": -11.11, "internal_energy": -0.94, "cluster_size": 41, "cluster_id": 1, "rank_in_cluster": 19}

>  <energy>  (77) 
-9.68

>  <cluster_rmsd>  (77) 
1.6

>  <cluster>  (77) 
1

$$$$

     RDKit          3D

 65 70  0  0  0  0  0  0  0  0999 V2000
  139.9680   68.1600  227.7830 C   0  0  0  0  0  0  0  0  0  0  0  0
  140.5650   69.3100  228.2440 C   0  0  0  0  0  0  0  0  0  0  0  0
  140.7840   70.4060  227.4340 C   0  0  0  0  0  0  0  0  0  0  0  0
  140.3720   70.3110  226.1020 C   0  0  0  0  0  0  0  0  0  0  0  0
  139.7730   69.1590  225.6340 C   0  0  0  0  0  0  0  0  0  0  0  0
  139.5610   68.0750  226.4580 C   0  0  0  0  0  0  0  0  0  0  0  0
  139.3380   69.0790  224.2020 C   0  0  0  0  0  0  0  0  0  0  0  0
  138.7940   70.4550  223.8720 C   0  0  0  0  0  0  0  0  0  0  0  0
  139.9210   71.3790  223.9780 N   0  0  0  0  0  0  0  0  0  0  0  0
  140.3050   72.1340  222.8380 C   0  0  0  0  0  0  0  0  0  0  0  0
  141.0210   71.5510  221.8130 C   0  0  0  0  0  0  0  0  0  0  0  0
  141.4190   72.2370  220.6850 C   0  0  0  0  0  0  0  0  0  0  0  0
  142.1570   71.6510  219.6250 N   0  0  0  0  0  0  0  0  0  0  0  0
  143.4800   71.0870  219.8000 C   0  0  1  0  0  0  0  0  0  0  0  0
  143.5790   69.6800  219.2510 C   0  0  0  0  0  0  0  0  0  0  0  0
  145.0020   69.2240  219.3390 C   0  0  0  0  0  0  0  0  0  0  0  0
  145.9970   70.2190  218.8010 C   0  0  0  0  0  0  0  0  0  0  0  0
  145.7960   71.5380  219.4210 N   0  0  0  0  0  0  0  0  0  0  0  0
  144.4610   71.9380  219.0140 C   0  0  0  0  0  0  0  0  0  0  0  0
  141.0610   73.5480  220.6330 N   0  0  0  0  0  0  0  0  0  0  0  0
  140.3600   74.1310  221.6280 C   0  0  0  0  0  0  0  0  0  0  0  0
  139.9760   75.5110  221.5830 N   0  0  0  0  0  0  0  0  0  0  0  0
  140.9120   76.5530  221.2080 C   0  0  0  0  0  0  0  0  0  0  0  0
  141.0680   77.5390  222.3500 C   0  0  0  0  0  0  0  0  0  0  0  0
  139.7000   78.0880  222.6120 C   0  0  0  0  0  0  0  0  0  0  0  0
  139.6450   79.3890  223.0670 C   0  0  0  0  0  0  0  0  0  0  0  0
  138.4100   79.9360  223.3210 C   0  0  0  0  0  0  0  0  0  0  0  0
  137.2740   79.1890  223.1210 C   0  0  0  0  0  0  0  0  0  0  0  0
  137.3600   77.8820  222.6620 C   0  0  0  0  0  0  0  0  0  0  0  0
  138.5830   77.3090  222.3990 C   0  0  0  0  0  0  0  0  0  0  0  0
  138.6320   75.9130  221.9120 C   0  0  0  0  0  0  0  0  0  0  0  0
  139.9870   73.4150  222.7250 N   0  0  0  0  0  0  0  0  0  0  0  0
  140.6150   71.5010  225.2380 C   0  0  0  0  0  0  0  0  0  0  0  0
  139.8132   67.3090  228.4626 H   0  0  0  0  0  0  0  0  0  0  0  0
  140.8796   69.3581  229.2970 H   0  0  0  0  0  0  0  0  0  0  0  0
  141.2633   71.3172  227.8212 H   0  0  0  0  0  0  0  0  0  0  0  0
  139.0802   67.1629  226.0748 H   0  0  0  0  0  0  0  0  0  0  0  0
  140.1922   68.8365  223.5528 H   0  0  0  0  0  0  0  0  0  0  0  0
  138.5856   68.2920  224.0452 H   0  0  0  0  0  0  0  0  0  0  0  0
  138.3858   70.4681  222.8506 H   0  0  0  0  0  0  0  0  0  0  0  0
  137.9803   70.7374  224.5562 H   0  0  0  0  0  0  0  0  0  0  0  0
  141.2873   70.4873  221.8998 H   0  0  0  0  0  0  0  0  0  0  0  0
  141.6740   71.6490  218.6770 H   0  0  0  0  0  0  0  0  0  0  0  0
  143.6970   71.0651  220.8782 H   0  0  0  0  0  0  0  0  0  0  0  0
  142.9387   69.0076  219.8408 H   0  0  0  0  0  0  0  0  0  0  0  0
  143.2471   69.6650  218.2024 H   0  0  0  0  0  0  0  0  0  0  0  0
  145.2398   69.0336  220.3960 H   0  0  0  0  0  0  0  0  0  0  0  0
  145.0864   68.3205  218.7173 H   0  0  0  0  0  0  0  0  0  0  0  0
  147.0156   69.8672  219.0215 H   0  0  0  0  0  0  0  0  0  0  0  0
  145.8539   70.3120  217.7143 H   0  0  0  0  0  0  0  0  0  0  0  0
  145.7830   71.4080  220.4510 H   0  0  0  0  0  0  0  0  0  0  0  0
  144.3013   73.0028  219.2391 H   0  0  0  0  0  0  0  0  0  0  0  0
  144.3228   71.7957  217.9320 H   0  0  0  0  0  0  0  0  0  0  0  0
  141.8887   76.1015  220.9794 H   0  0  0  0  0  0  0  0  0  0  0  0
  140.5312   77.0813  220.3215 H   0  0  0  0  0  0  0  0  0  0  0  0
  141.4529   77.0289  223.2453 H   0  0  0  0  0  0  0  0  0  0  0  0
  141.7808   78.3378  222.0976 H   0  0  0  0  0  0  0  0  0  0  0  0
  140.5643   79.9727  223.2223 H   0  0  0  0  0  0  0  0  0  0  0  0
  138.3309   80.9713  223.6842 H   0  0  0  0  0  0  0  0  0  0  0  0
  136.2878   79.6308  223.3265 H   0  0  0  0  0  0  0  0  0  0  0  0
  136.4408   77.2981  222.5068 H   0  0  0  0  0  0  0  0  0  0  0  0
  138.2428   75.2477  222.6967 H   0  0  0  0  0  0  0  0  0  0  0  0
  138.0207   75.8460  221.0000 H   0  0  0  0  0  0  0  0  0  0  0  0
  141.6944   71.5914  225.0463 H   0  0  0  0  0  0  0  0  0  0  0  0
  140.2387   72.3937  225.7591 H   0  0  0  0  0  0  0  0  0  0  0  0
  1  2  2  0
  2  3  1  0
  3  4  2  0
  4  5  1  0
  5  6  2  0
  5  7  1  0
  7  8  1  0
  8  9  1  0
  9 10  1  0
 10 11  2  0
 11 12  1  0
 12 13  1  0
 13 14  1  0
 14 15  1  0
 15 16  1  0
 16 17  1  0
 17 18  1  0
 18 19  1  0
 12 20  2  0
 20 21  1  0
 21 22  1  0
 22 23  1  0
 23 24  1  0
 24 25  1  0
 25 26  2  0
 26 27  1  0
 27 28  2  0
 28 29  1  0
 29 30  2  0
 30 31  1  0
 21 32  2  0
  9 33  1  0
  6  1  1  0
 32 10  1  0
 33  4  1  0
 19 14  1  0
 31 22  1  0
 30 25  1  0
  1 34  1  0
  2 35  1  0
  3 36  1  0
  6 37  1  0
  7 38  1  0
  7 39  1  0
  8 40  1  0
  8 41  1  0
 11 42  1  0
 13 43  1  0
 14 44  1  1
 15 45  1  0
 15 46  1  0
 16 47  1  0
 16 48  1  0
 17 49  1  0
 17 50  1  0
 18 51  1  0
 19 52  1  0
 19 53  1  0
 23 54  1  0
 23 55  1  0
 24 56  1  0
 24 57  1  0
 26 58  1  0
 27 59  1  0
 28 60  1  0
 29 61  1  0
 31 62  1  0
 31 63  1  0
 33 64  1  0
 33 65  1  0
M  END
>  <smiles>  (78) 
c1ccc2c(c1)CCN(c1cc(NC3CCCNC3)nc(N3CCc4ccccc4C3)n1)C2

>  <score_type>  (78) 
oracle

>  <origin>  (78) 
autodockgpu

>  <m_score__min__energy>  (78) 
-10.15

>  <m_primary>  (78) 
energy

>  <rmsd>  (78) 
8.591294992834047

>  <m_score__min__rmsd>  (78) 
8.591294992834047

>  <meeko>  (78) 
{"free_energy": -9.91, "intermolecular_energy": -11.11, "internal_energy": -0.94, "cluster_size": 41, "cluster_id": 1, "rank_in_cluster": 20}

>  <energy>  (78) 
-9.52

>  <cluster_rmsd>  (78) 
1.03

>  <cluster>  (78) 
1

$$$$

     RDKit          3D

 65 70  0  0  0  0  0  0  0  0999 V2000
  139.9570   67.7610  226.8450 C   0  0  0  0  0  0  0  0  0  0  0  0
  140.6560   68.7690  227.4650 C   0  0  0  0  0  0  0  0  0  0  0  0
  140.9080   69.9800  226.8520 C   0  0  0  0  0  0  0  0  0  0  0  0
  140.4210   70.1560  225.5540 C   0  0  0  0  0  0  0  0  0  0  0  0
  139.7190   69.1460  224.9270 C   0  0  0  0  0  0  0  0  0  0  0  0
  139.4770   67.9430  225.5540 C   0  0  0  0  0  0  0  0  0  0  0  0
  139.2060   69.3550  223.5340 C   0  0  0  0  0  0  0  0  0  0  0  0
  138.7420   70.7980  223.4930 C   0  0  0  0  0  0  0  0  0  0  0  0
  139.9340   71.6190  223.6900 N   0  0  0  0  0  0  0  0  0  0  0  0
  140.3090   72.5470  222.6820 C   0  0  0  0  0  0  0  0  0  0  0  0
  141.2270   72.2020  221.7110 C   0  0  0  0  0  0  0  0  0  0  0  0
  141.6260   73.0630  220.7110 C   0  0  0  0  0  0  0  0  0  0  0  0
  142.5690   72.7220  219.7070 N   0  0  0  0  0  0  0  0  0  0  0  0
  143.8690   73.3530  219.5970 C   0  0  1  0  0  0  0  0  0  0  0  0
  144.4360   73.7320  220.9480 C   0  0  0  0  0  0  0  0  0  0  0  0
  145.8310   74.2420  220.7620 C   0  0  0  0  0  0  0  0  0  0  0  0
  146.6960   73.3590  219.9030 C   0  0  0  0  0  0  0  0  0  0  0  0
  146.0320   73.0750  218.6200 N   0  0  0  0  0  0  0  0  0  0  0  0
  144.8270   72.3500  218.9810 C   0  0  0  0  0  0  0  0  0  0  0  0
  141.0560   74.2970  220.7290 N   0  0  0  0  0  0  0  0  0  0  0  0
  140.1570   74.6470  221.6730 C   0  0  0  0  0  0  0  0  0  0  0  0
  139.5480   75.9450  221.7020 N   0  0  0  0  0  0  0  0  0  0  0  0
  140.2990   77.1480  221.3950 C   0  0  0  0  0  0  0  0  0  0  0  0
  140.2880   78.0790  222.5930 C   0  0  0  0  0  0  0  0  0  0  0  0
  138.8470   78.3780  222.8710 C   0  0  0  0  0  0  0  0  0  0  0  0
  138.5760   79.6230  223.3980 C   0  0  0  0  0  0  0  0  0  0  0  0
  137.2680   79.9420  223.6710 C   0  0  0  0  0  0  0  0  0  0  0  0
  136.2720   79.0300  223.4170 C   0  0  0  0  0  0  0  0  0  0  0  0
  136.5740   77.7830  222.8870 C   0  0  0  0  0  0  0  0  0  0  0  0
  137.8750   77.4370  222.6040 C   0  0  0  0  0  0  0  0  0  0  0  0
  138.1560   76.0990  222.0390 C   0  0  0  0  0  0  0  0  0  0  0  0
  139.7900   73.7650  222.6440 N   0  0  0  0  0  0  0  0  0  0  0  0
  140.7000   71.4670  224.9050 C   0  0  0  0  0  0  0  0  0  0  0  0
  139.7778   66.8113  227.3703 H   0  0  0  0  0  0  0  0  0  0  0  0
  141.0283   68.6048  228.4870 H   0  0  0  0  0  0  0  0  0  0  0  0
  141.4697   70.7747  227.3648 H   0  0  0  0  0  0  0  0  0  0  0  0
  138.9168   67.1453  225.0442 H   0  0  0  0  0  0  0  0  0  0  0  0
  140.0066   69.1863  222.7988 H   0  0  0  0  0  0  0  0  0  0  0  0
  138.3945   68.6552  223.2856 H   0  0  0  0  0  0  0  0  0  0  0  0
  138.2819   71.0224  222.5194 H   0  0  0  0  0  0  0  0  0  0  0  0
  137.9875   70.9970  224.2683 H   0  0  0  0  0  0  0  0  0  0  0  0
  141.6611   71.1916  221.7362 H   0  0  0  0  0  0  0  0  0  0  0  0
  142.2620   71.9630  219.0290 H   0  0  0  0  0  0  0  0  0  0  0  0
  143.7518   74.2636  218.9912 H   0  0  0  0  0  0  0  0  0  0  0  0
  143.8135   74.5166  221.4029 H   0  0  0  0  0  0  0  0  0  0  0  0
  144.4455   72.8524  221.6085 H   0  0  0  0  0  0  0  0  0  0  0  0
  145.7765   75.2352  220.2923 H   0  0  0  0  0  0  0  0  0  0  0  0
  146.2953   74.2698  221.7588 H   0  0  0  0  0  0  0  0  0  0  0  0
  147.6526   73.8668  219.7106 H   0  0  0  0  0  0  0  0  0  0  0  0
  146.8691   72.4097  220.4310 H   0  0  0  0  0  0  0  0  0  0  0  0
  145.7390   73.9800  218.2050 H   0  0  0  0  0  0  0  0  0  0  0  0
  144.3758   71.8986  218.0851 H   0  0  0  0  0  0  0  0  0  0  0  0
  145.0552   71.5407  219.6902 H   0  0  0  0  0  0  0  0  0  0  0  0
  141.3372   76.8784  221.1513 H   0  0  0  0  0  0  0  0  0  0  0  0
  139.8370   77.6558  220.5355 H   0  0  0  0  0  0  0  0  0  0  0  0
  140.7511   77.5889  223.4621 H   0  0  0  0  0  0  0  0  0  0  0  0
  140.8588   78.9980  222.3940 H   0  0  0  0  0  0  0  0  0  0  0  0
  139.3854   80.3415  223.5945 H   0  0  0  0  0  0  0  0  0  0  0  0
  137.0181   80.9268  224.0926 H   0  0  0  0  0  0  0  0  0  0  0  0
  135.2259   79.2904  223.6356 H   0  0  0  0  0  0  0  0  0  0  0  0
  135.7647   77.0642  222.6913 H   0  0  0  0  0  0  0  0  0  0  0  0
  137.8819   75.3341  222.7805 H   0  0  0  0  0  0  0  0  0  0  0  0
  137.5654   75.9845  221.1181 H   0  0  0  0  0  0  0  0  0  0  0  0
  141.7716   71.5279  224.6641 H   0  0  0  0  0  0  0  0  0  0  0  0
  140.4141   72.2694  225.6010 H   0  0  0  0  0  0  0  0  0  0  0  0
  1  2  2  0
  2  3  1  0
  3  4  2  0
  4  5  1  0
  5  6  2  0
  5  7  1  0
  7  8  1  0
  8  9  1  0
  9 10  1  0
 10 11  2  0
 11 12  1  0
 12 13  1  0
 13 14  1  0
 14 15  1  0
 15 16  1  0
 16 17  1  0
 17 18  1  0
 18 19  1  0
 12 20  2  0
 20 21  1  0
 21 22  1  0
 22 23  1  0
 23 24  1  0
 24 25  1  0
 25 26  2  0
 26 27  1  0
 27 28  2  0
 28 29  1  0
 29 30  2  0
 30 31  1  0
 21 32  2  0
  9 33  1  0
  6  1  1  0
 32 10  1  0
 33  4  1  0
 19 14  1  0
 31 22  1  0
 30 25  1  0
  1 34  1  0
  2 35  1  0
  3 36  1  0
  6 37  1  0
  7 38  1  0
  7 39  1  0
  8 40  1  0
  8 41  1  0
 11 42  1  0
 13 43  1  0
 14 44  1  6
 15 45  1  0
 15 46  1  0
 16 47  1  0
 16 48  1  0
 17 49  1  0
 17 50  1  0
 18 51  1  0
 19 52  1  0
 19 53  1  0
 23 54  1  0
 23 55  1  0
 24 56  1  0
 24 57  1  0
 26 58  1  0
 27 59  1  0
 28 60  1  0
 29 61  1  0
 31 62  1  0
 31 63  1  0
 33 64  1  0
 33 65  1  0
M  END
>  <smiles>  (79) 
c1ccc2c(c1)CCN(c1cc(NC3CCCNC3)nc(N3CCc4ccccc4C3)n1)C2

>  <score_type>  (79) 
oracle

>  <origin>  (79) 
autodockgpu

>  <m_score__min__energy>  (79) 
-10.15

>  <m_primary>  (79) 
energy

>  <rmsd>  (79) 
6.368424309541742

>  <m_score__min__rmsd>  (79) 
6.368424309541742

>  <meeko>  (79) 
{"free_energy": -9.8, "intermolecular_energy": -10.99, "internal_energy": -1.05, "cluster_size": 5, "cluster_id": 2, "rank_in_cluster": 2}

>  <energy>  (79) 
-9.45

>  <cluster_rmsd>  (79) 
0.98

>  <cluster>  (79) 
1

$$$$

     RDKit          3D

 65 70  0  0  0  0  0  0  0  0999 V2000
  139.8650   68.0430  227.4020 C   0  0  0  0  0  0  0  0  0  0  0  0
  140.5040   69.1350  227.9380 C   0  0  0  0  0  0  0  0  0  0  0  0
  140.7490   70.2820  227.2090 C   0  0  0  0  0  0  0  0  0  0  0  0
  140.3180   70.3000  225.8800 C   0  0  0  0  0  0  0  0  0  0  0  0
  139.6760   69.2060  225.3360 C   0  0  0  0  0  0  0  0  0  0  0  0
  139.4400   68.0700  226.0790 C   0  0  0  0  0  0  0  0  0  0  0  0
  139.2230   69.2470  223.9080 C   0  0  0  0  0  0  0  0  0  0  0  0
  138.7190   70.6610  223.6900 C   0  0  0  0  0  0  0  0  0  0  0  0
  139.8750   71.5380  223.8480 N   0  0  0  0  0  0  0  0  0  0  0  0
  140.2700   72.3650  222.7630 C   0  0  0  0  0  0  0  0  0  0  0  0
  141.0230   71.8560  221.7240 C   0  0  0  0  0  0  0  0  0  0  0  0
  141.4320   72.6130  220.6480 C   0  0  0  0  0  0  0  0  0  0  0  0
  142.2060   72.1040  219.5740 N   0  0  0  0  0  0  0  0  0  0  0  0
  143.5900   72.4740  219.3520 C   0  0  1  0  0  0  0  0  0  0  0  0
  144.0480   73.5640  220.2970 C   0  0  0  0  0  0  0  0  0  0  0  0
  145.5160   73.7870  220.1030 C   0  0  0  0  0  0  0  0  0  0  0  0
  146.3320   72.5220  220.1020 C   0  0  0  0  0  0  0  0  0  0  0  0
  145.7850   71.5540  219.1380 N   0  0  0  0  0  0  0  0  0  0  0  0
  144.4530   71.2560  219.6300 C   0  0  0  0  0  0  0  0  0  0  0  0
  141.0470   73.9170  220.6610 N   0  0  0  0  0  0  0  0  0  0  0  0
  140.3110   74.4280  221.6700 C   0  0  0  0  0  0  0  0  0  0  0  0
  139.8990   75.8010  221.6940 N   0  0  0  0  0  0  0  0  0  0  0  0
  140.8180   76.8800  221.3880 C   0  0  0  0  0  0  0  0  0  0  0  0
  140.9390   77.8060  222.5840 C   0  0  0  0  0  0  0  0  0  0  0  0
  139.5560   78.3130  222.8560 C   0  0  0  0  0  0  0  0  0  0  0  0
  139.4680   79.5860  223.3790 C   0  0  0  0  0  0  0  0  0  0  0  0
  138.2190   80.0940  223.6460 C   0  0  0  0  0  0  0  0  0  0  0  0
  137.1020   79.3360  223.3900 C   0  0  0  0  0  0  0  0  0  0  0  0
  137.2210   78.0570  222.8630 C   0  0  0  0  0  0  0  0  0  0  0  0
  138.4580   77.5240  222.5860 C   0  0  0  0  0  0  0  0  0  0  0  0
  138.5420   76.1580  222.0250 C   0  0  0  0  0  0  0  0  0  0  0  0
  139.9280   73.6440  222.7160 N   0  0  0  0  0  0  0  0  0  0  0  0
  140.5890   71.5440  225.1050 C   0  0  0  0  0  0  0  0  0  0  0  0
  139.6902   67.1491  228.0188 H   0  0  0  0  0  0  0  0  0  0  0  0
  140.8327   69.0940  228.9870 H   0  0  0  0  0  0  0  0  0  0  0  0
  141.2624   71.1460  227.6562 H   0  0  0  0  0  0  0  0  0  0  0  0
  138.9269   67.2041  225.6352 H   0  0  0  0  0  0  0  0  0  0  0  0
  140.0619   69.0280  223.2310 H   0  0  0  0  0  0  0  0  0  0  0  0
  138.4448   68.4973  223.7023 H   0  0  0  0  0  0  0  0  0  0  0  0
  138.2987   70.7637  222.6787 H   0  0  0  0  0  0  0  0  0  0  0  0
  137.9234   70.9161  224.4055 H   0  0  0  0  0  0  0  0  0  0  0  0
  141.3103   70.7947  221.7568 H   0  0  0  0  0  0  0  0  0  0  0  0
  141.7050   71.4210  218.9310 H   0  0  0  0  0  0  0  0  0  0  0  0
  143.6801   72.8371  218.3176 H   0  0  0  0  0  0  0  0  0  0  0  0
  143.5013   74.4938  220.0812 H   0  0  0  0  0  0  0  0  0  0  0  0
  143.8502   73.2641  221.3367 H   0  0  0  0  0  0  0  0  0  0  0  0
  145.6643   74.2952  219.1388 H   0  0  0  0  0  0  0  0  0  0  0  0
  145.8623   74.3887  220.9562 H   0  0  0  0  0  0  0  0  0  0  0  0
  147.3694   72.7611  219.8252 H   0  0  0  0  0  0  0  0  0  0  0  0
  146.2994   72.0780  221.1079 H   0  0  0  0  0  0  0  0  0  0  0  0
  145.6800   72.0370  218.2250 H   0  0  0  0  0  0  0  0  0  0  0  0
  144.0456   70.3780  219.1073 H   0  0  0  0  0  0  0  0  0  0  0  0
  144.4753   71.0301  220.7063 H   0  0  0  0  0  0  0  0  0  0  0  0
  141.8066   76.4611  221.1489 H   0  0  0  0  0  0  0  0  0  0  0  0
  140.4379   77.4476  220.5258 H   0  0  0  0  0  0  0  0  0  0  0  0
  141.3226   77.2559  223.4559 H   0  0  0  0  0  0  0  0  0  0  0  0
  141.6385   78.6313  222.3851 H   0  0  0  0  0  0  0  0  0  0  0  0
  140.3731   80.1790  223.5772 H   0  0  0  0  0  0  0  0  0  0  0  0
  138.1139   81.1060  224.0640 H   0  0  0  0  0  0  0  0  0  0  0  0
  136.1042   79.7463  223.6046 H   0  0  0  0  0  0  0  0  0  0  0  0
  136.3161   77.4637  222.6650 H   0  0  0  0  0  0  0  0  0  0  0  0
  138.1561   75.4434  222.7669 H   0  0  0  0  0  0  0  0  0  0  0  0
  137.9444   76.1286  221.1020 H   0  0  0  0  0  0  0  0  0  0  0  0
  141.6683   71.6152  224.9051 H   0  0  0  0  0  0  0  0  0  0  0  0
  140.2486   72.4064  225.6969 H   0  0  0  0  0  0  0  0  0  0  0  0
  1  2  2  0
  2  3  1  0
  3  4  2  0
  4  5  1  0
  5  6  2  0
  5  7  1  0
  7  8  1  0
  8  9  1  0
  9 10  1  0
 10 11  2  0
 11 12  1  0
 12 13  1  0
 13 14  1  0
 14 15  1  0
 15 16  1  0
 16 17  1  0
 17 18  1  0
 18 19  1  0
 12 20  2  0
 20 21  1  0
 21 22  1  0
 22 23  1  0
 23 24  1  0
 24 25  1  0
 25 26  2  0
 26 27  1  0
 27 28  2  0
 28 29  1  0
 29 30  2  0
 30 31  1  0
 21 32  2  0
  9 33  1  0
  6  1  1  0
 32 10  1  0
 33  4  1  0
 19 14  1  0
 31 22  1  0
 30 25  1  0
  1 34  1  0
  2 35  1  0
  3 36  1  0
  6 37  1  0
  7 38  1  0
  7 39  1  0
  8 40  1  0
  8 41  1  0
 11 42  1  0
 13 43  1  0
 14 44  1  6
 15 45  1  0
 15 46  1  0
 16 47  1  0
 16 48  1  0
 17 49  1  0
 17 50  1  0
 18 51  1  0
 19 52  1  0
 19 53  1  0
 23 54  1  0
 23 55  1  0
 24 56  1  0
 24 57  1  0
 26 58  1  0
 27 59  1  0
 28 60  1  0
 29 61  1  0
 31 62  1  0
 31 63  1  0
 33 64  1  0
 33 65  1  0
M  END
>  <smiles>  (80) 
c1ccc2c(c1)CCN(c1cc(NC3CCCNC3)nc(N3CCc4ccccc4C3)n1)C2

>  <score_type>  (80) 
oracle

>  <origin>  (80) 
autodockgpu

>  <m_score__min__energy>  (80) 
-10.15

>  <m_primary>  (80) 
energy

>  <rmsd>  (80) 
6.7209419153575185

>  <m_score__min__rmsd>  (80) 
6.7209419153575185

>  <meeko>  (80) 
{"free_energy": -9.7, "intermolecular_energy": -10.89, "internal_energy": -1.08, "cluster_size": 41, "cluster_id": 1, "rank_in_cluster": 24}

>  <energy>  (80) 
-9.44

>  <cluster_rmsd>  (80) 
0.98

>  <cluster>  (80) 
1

$$$$

     RDKit          3D

 65 70  0  0  0  0  0  0  0  0999 V2000
  139.3630   68.2840  226.8340 C   0  0  0  0  0  0  0  0  0  0  0  0
  140.0480   69.2960  227.4640 C   0  0  0  0  0  0  0  0  0  0  0  0
  140.4890   70.4200  226.7950 C   0  0  0  0  0  0  0  0  0  0  0  0
  140.2120   70.5010  225.4280 C   0  0  0  0  0  0  0  0  0  0  0  0
  139.5250   69.4880  224.7900 C   0  0  0  0  0  0  0  0  0  0  0  0
  139.0910   68.3730  225.4750 C   0  0  0  0  0  0  0  0  0  0  0  0
  139.2380   69.5960  223.3230 C   0  0  0  0  0  0  0  0  0  0  0  0
  138.9100   71.0580  223.0870 C   0  0  0  0  0  0  0  0  0  0  0  0
  140.1270   71.8060  223.3920 N   0  0  0  0  0  0  0  0  0  0  0  0
  140.7220   72.6020  222.3760 C   0  0  0  0  0  0  0  0  0  0  0  0
  141.4970   72.0250  221.3910 C   0  0  0  0  0  0  0  0  0  0  0  0
  142.0970   72.7490  220.3830 C   0  0  0  0  0  0  0  0  0  0  0  0
  142.8970   72.1700  219.3650 N   0  0  0  0  0  0  0  0  0  0  0  0
  143.9640   71.2280  219.6380 C   0  0  1  0  0  0  0  0  0  0  0  0
  143.6190   69.8260  219.1820 C   0  0  0  0  0  0  0  0  0  0  0  0
  144.8180   68.9480  219.3650 C   0  0  0  0  0  0  0  0  0  0  0  0
  146.0930   69.5320  218.8160 C   0  0  0  0  0  0  0  0  0  0  0  0
  146.3110   70.8880  219.3440 N   0  0  0  0  0  0  0  0  0  0  0  0
  145.1860   71.6610  218.8490 C   0  0  0  0  0  0  0  0  0  0  0  0
  141.8820   74.0910  220.4090 N   0  0  0  0  0  0  0  0  0  0  0  0
  141.1260   74.6680  221.3670 C   0  0  0  0  0  0  0  0  0  0  0  0
  140.8910   76.0820  221.4050 N   0  0  0  0  0  0  0  0  0  0  0  0
  140.7480   76.8660  220.1930 C   0  0  0  0  0  0  0  0  0  0  0  0
  141.8270   77.9310  220.1400 C   0  0  0  0  0  0  0  0  0  0  0  0
  141.6420   78.7670  221.3690 C   0  0  0  0  0  0  0  0  0  0  0  0
  141.9850   80.0980  221.2540 C   0  0  0  0  0  0  0  0  0  0  0  0
  141.8330   80.9050  222.3560 C   0  0  0  0  0  0  0  0  0  0  0  0
  141.3500   80.3790  223.5300 C   0  0  0  0  0  0  0  0  0  0  0  0
  141.0130   79.0350  223.6170 C   0  0  0  0  0  0  0  0  0  0  0  0
  141.1560   78.2040  222.5290 C   0  0  0  0  0  0  0  0  0  0  0  0
  140.7850   76.7780  222.6620 C   0  0  0  0  0  0  0  0  0  0  0  0
  140.5510   73.9150  222.3450 N   0  0  0  0  0  0  0  0  0  0  0  0
  140.6930   71.7200  224.7180 C   0  0  0  0  0  0  0  0  0  0  0  0
  139.0308   67.4049  227.4057 H   0  0  0  0  0  0  0  0  0  0  0  0
  140.2522   69.2067  228.5412 H   0  0  0  0  0  0  0  0  0  0  0  0
  141.0360   71.2191  227.3167 H   0  0  0  0  0  0  0  0  0  0  0  0
  138.5421   67.5726  224.9573 H   0  0  0  0  0  0  0  0  0  0  0  0
  140.1189   69.2988  222.7350 H   0  0  0  0  0  0  0  0  0  0  0  0
  138.4135   68.9356  223.0163 H   0  0  0  0  0  0  0  0  0  0  0  0
  138.6172   71.2182  222.0389 H   0  0  0  0  0  0  0  0  0  0  0  0
  138.0706   71.3861  223.7177 H   0  0  0  0  0  0  0  0  0  0  0  0
  141.6431   70.9349  221.4111 H   0  0  0  0  0  0  0  0  0  0  0  0
  142.6640   72.4710  218.3720 H   0  0  0  0  0  0  0  0  0  0  0  0
  144.1351   71.2179  220.7246 H   0  0  0  0  0  0  0  0  0  0  0  0
  142.7822   69.4381  219.7815 H   0  0  0  0  0  0  0  0  0  0  0  0
  143.3257   69.8403  218.1219 H   0  0  0  0  0  0  0  0  0  0  0  0
  144.9548   68.7690  220.4417 H   0  0  0  0  0  0  0  0  0  0  0  0
  144.6238   68.0222  218.8036 H   0  0  0  0  0  0  0  0  0  0  0  0
  146.9385   68.8909  219.1060 H   0  0  0  0  0  0  0  0  0  0  0  0
  146.0151   69.5864  217.7201 H   0  0  0  0  0  0  0  0  0  0  0  0
  146.2300   70.8460  220.3770 H   0  0  0  0  0  0  0  0  0  0  0  0
  145.3710   72.7349  218.9994 H   0  0  0  0  0  0  0  0  0  0  0  0
  145.0373   71.4899  217.7726 H   0  0  0  0  0  0  0  0  0  0  0  0
  140.8427   76.2062  219.3179 H   0  0  0  0  0  0  0  0  0  0  0  0
  139.7599   77.3493  220.1874 H   0  0  0  0  0  0  0  0  0  0  0  0
  142.8237   77.4657  220.1406 H   0  0  0  0  0  0  0  0  0  0  0  0
  141.7507   78.5369  219.2251 H   0  0  0  0  0  0  0  0  0  0  0  0
  142.3697   80.5025  220.3062 H   0  0  0  0  0  0  0  0  0  0  0  0
  142.0977   81.9711  222.2983 H   0  0  0  0  0  0  0  0  0  0  0  0
  141.2292   81.0290  224.4092 H   0  0  0  0  0  0  0  0  0  0  0  0
  140.6280   78.6303  224.5646 H   0  0  0  0  0  0  0  0  0  0  0  0
  141.4562   76.3012  223.3915 H   0  0  0  0  0  0  0  0  0  0  0  0
  139.7386   76.7250  222.9970 H   0  0  0  0  0  0  0  0  0  0  0  0
  141.7894   71.6807  224.6389 H   0  0  0  0  0  0  0  0  0  0  0  0
  140.3785   72.6051  225.2905 H   0  0  0  0  0  0  0  0  0  0  0  0
  1  2  2  0
  2  3  1  0
  3  4  2  0
  4  5  1  0
  5  6  2  0
  5  7  1  0
  7  8  1  0
  8  9  1  0
  9 10  1  0
 10 11  2  0
 11 12  1  0
 12 13  1  0
 13 14  1  0
 14 15  1  0
 15 16  1  0
 16 17  1  0
 17 18  1  0
 18 19  1  0
 12 20  2  0
 20 21  1  0
 21 22  1  0
 22 23  1  0
 23 24  1  0
 24 25  1  0
 25 26  2  0
 26 27  1  0
 27 28  2  0
 28 29  1  0
 29 30  2  0
 30 31  1  0
 21 32  2  0
  9 33  1  0
  6  1  1  0
 32 10  1  0
 33  4  1  0
 19 14  1  0
 31 22  1  0
 30 25  1  0
  1 34  1  0
  2 35  1  0
  3 36  1  0
  6 37  1  0
  7 38  1  0
  7 39  1  0
  8 40  1  0
  8 41  1  0
 11 42  1  0
 13 43  1  0
 14 44  1  1
 15 45  1  0
 15 46  1  0
 16 47  1  0
 16 48  1  0
 17 49  1  0
 17 50  1  0
 18 51  1  0
 19 52  1  0
 19 53  1  0
 23 54  1  0
 23 55  1  0
 24 56  1  0
 24 57  1  0
 26 58  1  0
 27 59  1  0
 28 60  1  0
 29 61  1  0
 31 62  1  0
 31 63  1  0
 33 64  1  0
 33 65  1  0
M  END
>  <smiles>  (81) 
c1ccc2c(c1)CCN(c1cc(NC3CCCNC3)nc(N3CCc4ccccc4C3)n1)C2

>  <score_type>  (81) 
oracle

>  <origin>  (81) 
autodockgpu

>  <m_score__min__energy>  (81) 
-10.15

>  <m_primary>  (81) 
energy

>  <rmsd>  (81) 
8.737827292302896

>  <m_score__min__rmsd>  (81) 
8.737827292302896

>  <meeko>  (81) 
{"free_energy": -10.11, "intermolecular_energy": -11.3, "internal_energy": -0.94, "cluster_size": 41, "cluster_id": 1, "rank_in_cluster": 8}

>  <energy>  (81) 
-9.43

>  <cluster_rmsd>  (81) 
1.03

>  <cluster>  (81) 
1

$$$$

     RDKit          3D

 65 70  0  0  0  0  0  0  0  0999 V2000
  139.3780   68.3660  226.9520 C   0  0  0  0  0  0  0  0  0  0  0  0
  140.0430   69.4070  227.5560 C   0  0  0  0  0  0  0  0  0  0  0  0
  140.4660   70.5200  226.8570 C   0  0  0  0  0  0  0  0  0  0  0  0
  140.1920   70.5600  225.4880 C   0  0  0  0  0  0  0  0  0  0  0  0
  139.5250   69.5180  224.8760 C   0  0  0  0  0  0  0  0  0  0  0  0
  139.1090   68.4140  225.5900 C   0  0  0  0  0  0  0  0  0  0  0  0
  139.2410   69.5810  223.4060 C   0  0  0  0  0  0  0  0  0  0  0  0
  138.8880   71.0290  223.1300 C   0  0  0  0  0  0  0  0  0  0  0  0
  140.0900   71.8070  223.4170 N   0  0  0  0  0  0  0  0  0  0  0  0
  140.6740   72.5860  222.3820 C   0  0  0  0  0  0  0  0  0  0  0  0
  141.4300   71.9910  221.3920 C   0  0  0  0  0  0  0  0  0  0  0  0
  142.0180   72.6980  220.3660 C   0  0  0  0  0  0  0  0  0  0  0  0
  142.7980   72.1000  219.3420 N   0  0  0  0  0  0  0  0  0  0  0  0
  143.9300   71.2380  219.6140 C   0  0  1  0  0  0  0  0  0  0  0  0
  143.7040   69.8250  219.1220 C   0  0  0  0  0  0  0  0  0  0  0  0
  144.9650   69.0390  219.3080 C   0  0  0  0  0  0  0  0  0  0  0  0
  146.1980   69.7320  218.7930 C   0  0  0  0  0  0  0  0  0  0  0  0
  146.3020   71.0890  219.3540 N   0  0  0  0  0  0  0  0  0  0  0  0
  145.1280   71.7830  218.8560 C   0  0  0  0  0  0  0  0  0  0  0  0
  141.8120   74.0420  220.3780 N   0  0  0  0  0  0  0  0  0  0  0  0
  141.0750   74.6360  221.3390 C   0  0  0  0  0  0  0  0  0  0  0  0
  140.8490   76.0520  221.3620 N   0  0  0  0  0  0  0  0  0  0  0  0
  140.7400   76.8280  220.1420 C   0  0  0  0  0  0  0  0  0  0  0  0
  141.8270   77.8850  220.1070 C   0  0  0  0  0  0  0  0  0  0  0  0
  141.6210   78.7310  221.3250 C   0  0  0  0  0  0  0  0  0  0  0  0
  141.9760   80.0580  221.2090 C   0  0  0  0  0  0  0  0  0  0  0  0
  141.8060   80.8740  222.3020 C   0  0  0  0  0  0  0  0  0  0  0  0
  141.2930   80.3600  223.4690 C   0  0  0  0  0  0  0  0  0  0  0  0
  140.9440   79.0200  223.5560 C   0  0  0  0  0  0  0  0  0  0  0  0
  141.1040   78.1800  222.4780 C   0  0  0  0  0  0  0  0  0  0  0  0
  140.7210   76.7580  222.6120 C   0  0  0  0  0  0  0  0  0  0  0  0
  140.5110   73.8990  222.3370 N   0  0  0  0  0  0  0  0  0  0  0  0
  140.6540   71.7670  224.7460 C   0  0  0  0  0  0  0  0  0  0  0  0
  139.0596   67.4968  227.5462 H   0  0  0  0  0  0  0  0  0  0  0  0
  140.2454   69.3510  228.6358 H   0  0  0  0  0  0  0  0  0  0  0  0
  140.9975   71.3423  227.3582 H   0  0  0  0  0  0  0  0  0  0  0  0
  138.5763   67.5902  225.0924 H   0  0  0  0  0  0  0  0  0  0  0  0
  140.1289   69.2838  222.8287 H   0  0  0  0  0  0  0  0  0  0  0  0
  138.4295   68.8978  223.1149 H   0  0  0  0  0  0  0  0  0  0  0  0
  138.5951   71.1554  222.0773 H   0  0  0  0  0  0  0  0  0  0  0  0
  138.0414   71.3588  223.7501 H   0  0  0  0  0  0  0  0  0  0  0  0
  141.5696   70.9004  221.4238 H   0  0  0  0  0  0  0  0  0  0  0  0
  142.4980   72.3250  218.3470 H   0  0  0  0  0  0  0  0  0  0  0  0
  144.0828   71.2164  220.7031 H   0  0  0  0  0  0  0  0  0  0  0  0
  142.8904   69.3593  219.6975 H   0  0  0  0  0  0  0  0  0  0  0  0
  143.4283   69.8408  218.0572 H   0  0  0  0  0  0  0  0  0  0  0  0
  145.0986   68.8482  220.3830 H   0  0  0  0  0  0  0  0  0  0  0  0
  144.8526   68.1129  218.7251 H   0  0  0  0  0  0  0  0  0  0  0  0
  147.0865   69.1519  219.0829 H   0  0  0  0  0  0  0  0  0  0  0  0
  146.1322   69.8052  217.6974 H   0  0  0  0  0  0  0  0  0  0  0  0
  146.2080   71.0160  220.3850 H   0  0  0  0  0  0  0  0  0  0  0  0
  145.2259   72.8643  219.0328 H   0  0  0  0  0  0  0  0  0  0  0  0
  145.0105   71.6253  217.7737 H   0  0  0  0  0  0  0  0  0  0  0  0
  140.8507   76.1614  219.2740 H   0  0  0  0  0  0  0  0  0  0  0  0
  139.7557   77.3179  220.1098 H   0  0  0  0  0  0  0  0  0  0  0  0
  142.8201   77.4127  220.1334 H   0  0  0  0  0  0  0  0  0  0  0  0
  141.7751   78.4852  219.1867 H   0  0  0  0  0  0  0  0  0  0  0  0
  142.3843   80.4532  220.2671 H   0  0  0  0  0  0  0  0  0  0  0  0
  142.0803   81.9376  222.2428 H   0  0  0  0  0  0  0  0  0  0  0  0
  141.1580   81.0165  224.3412 H   0  0  0  0  0  0  0  0  0  0  0  0
  140.5348   78.6247  224.4974 H   0  0  0  0  0  0  0  0  0  0  0  0
  141.3733   76.2819  223.3589 H   0  0  0  0  0  0  0  0  0  0  0  0
  139.6672   76.7144  222.9244 H   0  0  0  0  0  0  0  0  0  0  0  0
  141.7512   71.7442  224.6703 H   0  0  0  0  0  0  0  0  0  0  0  0
  140.3231   72.6619  225.2934 H   0  0  0  0  0  0  0  0  0  0  0  0
  1  2  2  0
  2  3  1  0
  3  4  2  0
  4  5  1  0
  5  6  2  0
  5  7  1  0
  7  8  1  0
  8  9  1  0
  9 10  1  0
 10 11  2  0
 11 12  1  0
 12 13  1  0
 13 14  1  0
 14 15  1  0
 15 16  1  0
 16 17  1  0
 17 18  1  0
 18 19  1  0
 12 20  2  0
 20 21  1  0
 21 22  1  0
 22 23  1  0
 23 24  1  0
 24 25  1  0
 25 26  2  0
 26 27  1  0
 27 28  2  0
 28 29  1  0
 29 30  2  0
 30 31  1  0
 21 32  2  0
  9 33  1  0
  6  1  1  0
 32 10  1  0
 33  4  1  0
 19 14  1  0
 31 22  1  0
 30 25  1  0
  1 34  1  0
  2 35  1  0
  3 36  1  0
  6 37  1  0
  7 38  1  0
  7 39  1  0
  8 40  1  0
  8 41  1  0
 11 42  1  0
 13 43  1  0
 14 44  1  1
 15 45  1  0
 15 46  1  0
 16 47  1  0
 16 48  1  0
 17 49  1  0
 17 50  1  0
 18 51  1  0
 19 52  1  0
 19 53  1  0
 23 54  1  0
 23 55  1  0
 24 56  1  0
 24 57  1  0
 26 58  1  0
 27 59  1  0
 28 60  1  0
 29 61  1  0
 31 62  1  0
 31 63  1  0
 33 64  1  0
 33 65  1  0
M  END
>  <smiles>  (82) 
c1ccc2c(c1)CCN(c1cc(NC3CCCNC3)nc(N3CCc4ccccc4C3)n1)C2

>  <score_type>  (82) 
oracle

>  <origin>  (82) 
autodockgpu

>  <m_score__min__energy>  (82) 
-10.15

>  <m_primary>  (82) 
energy

>  <rmsd>  (82) 
8.694345025433709

>  <m_score__min__rmsd>  (82) 
8.694345025433709

>  <meeko>  (82) 
{"free_energy": -10.13, "intermolecular_energy": -11.32, "internal_energy": -0.93, "cluster_size": 41, "cluster_id": 1, "rank_in_cluster": 6}

>  <energy>  (82) 
-9.42

>  <cluster_rmsd>  (82) 
0.96

>  <cluster>  (82) 
1

$$$$

     RDKit          3D

 65 70  0  0  0  0  0  0  0  0999 V2000
  139.9720   68.1580  227.7230 C   0  0  0  0  0  0  0  0  0  0  0  0
  140.5950   69.2910  228.1890 C   0  0  0  0  0  0  0  0  0  0  0  0
  140.8240   70.3920  227.3890 C   0  0  0  0  0  0  0  0  0  0  0  0
  140.3940   70.3210  226.0610 C   0  0  0  0  0  0  0  0  0  0  0  0
  139.7680   69.1850  225.5880 C   0  0  0  0  0  0  0  0  0  0  0  0
  139.5470   68.0950  226.4010 C   0  0  0  0  0  0  0  0  0  0  0  0
  139.3150   69.1300  224.1600 C   0  0  0  0  0  0  0  0  0  0  0  0
  138.7910   70.5200  223.8540 C   0  0  0  0  0  0  0  0  0  0  0  0
  139.9360   71.4210  223.9550 N   0  0  0  0  0  0  0  0  0  0  0  0
  140.3190   72.1840  222.8200 C   0  0  0  0  0  0  0  0  0  0  0  0
  141.0340   71.6060  221.7900 C   0  0  0  0  0  0  0  0  0  0  0  0
  141.4320   72.2990  220.6670 C   0  0  0  0  0  0  0  0  0  0  0  0
  142.1670   71.7180  219.6020 N   0  0  0  0  0  0  0  0  0  0  0  0
  143.4900   71.1520  219.7730 C   0  0  1  0  0  0  0  0  0  0  0  0
  143.6080   69.7770  219.1520 C   0  0  0  0  0  0  0  0  0  0  0  0
  145.0320   69.3240  219.2420 C   0  0  0  0  0  0  0  0  0  0  0  0
  146.0310   70.3510  218.7770 C   0  0  0  0  0  0  0  0  0  0  0  0
  145.8110   71.6340  219.4630 N   0  0  0  0  0  0  0  0  0  0  0  0
  144.4820   72.0480  219.0520 C   0  0  0  0  0  0  0  0  0  0  0  0
  141.0750   73.6100  220.6230 N   0  0  0  0  0  0  0  0  0  0  0  0
  140.3750   74.1870  221.6220 C   0  0  0  0  0  0  0  0  0  0  0  0
  139.9920   75.5680  221.5860 N   0  0  0  0  0  0  0  0  0  0  0  0
  140.9270   76.6110  221.2080 C   0  0  0  0  0  0  0  0  0  0  0  0
  141.0920   77.5920  222.3540 C   0  0  0  0  0  0  0  0  0  0  0  0
  139.7260   78.1410  222.6280 C   0  0  0  0  0  0  0  0  0  0  0  0
  139.6750   79.4400  223.0880 C   0  0  0  0  0  0  0  0  0  0  0  0
  138.4430   79.9870  223.3540 C   0  0  0  0  0  0  0  0  0  0  0  0
  137.3050   79.2420  223.1590 C   0  0  0  0  0  0  0  0  0  0  0  0
  137.3860   77.9370  222.6940 C   0  0  0  0  0  0  0  0  0  0  0  0
  138.6060   77.3640  222.4200 C   0  0  0  0  0  0  0  0  0  0  0  0
  138.6500   75.9700  221.9260 C   0  0  0  0  0  0  0  0  0  0  0  0
  140.0030   73.4660  222.7160 N   0  0  0  0  0  0  0  0  0  0  0  0
  140.6480   71.5160  225.2090 C   0  0  0  0  0  0  0  0  0  0  0  0
  139.8100   67.3024  228.3951 H   0  0  0  0  0  0  0  0  0  0  0  0
  140.9232   69.3214  229.2384 H   0  0  0  0  0  0  0  0  0  0  0  0
  141.3249   71.2895  227.7809 H   0  0  0  0  0  0  0  0  0  0  0  0
  139.0459   67.1959  226.0131 H   0  0  0  0  0  0  0  0  0  0  0  0
  140.1572   68.8810  223.4977 H   0  0  0  0  0  0  0  0  0  0  0  0
  138.5476   68.3579  224.0021 H   0  0  0  0  0  0  0  0  0  0  0  0
  138.3688   70.5529  222.8388 H   0  0  0  0  0  0  0  0  0  0  0  0
  137.9920   70.8089  224.5527 H   0  0  0  0  0  0  0  0  0  0  0  0
  141.2987   70.5413  221.8694 H   0  0  0  0  0  0  0  0  0  0  0  0
  141.6840   71.7220  218.6550 H   0  0  0  0  0  0  0  0  0  0  0  0
  143.6857   71.0746  220.8527 H   0  0  0  0  0  0  0  0  0  0  0  0
  142.9611   69.0708  219.6932 H   0  0  0  0  0  0  0  0  0  0  0  0
  143.2957   69.8164  218.0980 H   0  0  0  0  0  0  0  0  0  0  0  0
  145.2513   69.0782  220.2915 H   0  0  0  0  0  0  0  0  0  0  0  0
  145.1331   68.4558  218.5742 H   0  0  0  0  0  0  0  0  0  0  0  0
  147.0474   69.9926  218.9974 H   0  0  0  0  0  0  0  0  0  0  0  0
  145.9075   70.5016  217.6944 H   0  0  0  0  0  0  0  0  0  0  0  0
  145.7790   71.4500  220.4840 H   0  0  0  0  0  0  0  0  0  0  0  0
  144.3118   73.0987  219.3295 H   0  0  0  0  0  0  0  0  0  0  0  0
  144.3656   71.9616  217.9616 H   0  0  0  0  0  0  0  0  0  0  0  0
  141.9015   76.1595  220.9703 H   0  0  0  0  0  0  0  0  0  0  0  0
  140.5409   77.1434  220.3263 H   0  0  0  0  0  0  0  0  0  0  0  0
  141.4826   77.0774  223.2443 H   0  0  0  0  0  0  0  0  0  0  0  0
  141.8038   78.3914  222.1005 H   0  0  0  0  0  0  0  0  0  0  0  0
  140.5959   80.0226  223.2379 H   0  0  0  0  0  0  0  0  0  0  0  0
  138.3677   81.0206  223.7228 H   0  0  0  0  0  0  0  0  0  0  0  0
  136.3208   79.6840  223.3734 H   0  0  0  0  0  0  0  0  0  0  0  0
  136.4650   77.3548  222.5430 H   0  0  0  0  0  0  0  0  0  0  0  0
  138.2652   75.3014  222.7102 H   0  0  0  0  0  0  0  0  0  0  0  0
  138.0325   75.9079  221.0178 H   0  0  0  0  0  0  0  0  0  0  0  0
  141.7265   71.5894  225.0053 H   0  0  0  0  0  0  0  0  0  0  0  0
  140.2944   72.4091  225.7450 H   0  0  0  0  0  0  0  0  0  0  0  0
  1  2  2  0
  2  3  1  0
  3  4  2  0
  4  5  1  0
  5  6  2  0
  5  7  1  0
  7  8  1  0
  8  9  1  0
  9 10  1  0
 10 11  2  0
 11 12  1  0
 12 13  1  0
 13 14  1  0
 14 15  1  0
 15 16  1  0
 16 17  1  0
 17 18  1  0
 18 19  1  0
 12 20  2  0
 20 21  1  0
 21 22  1  0
 22 23  1  0
 23 24  1  0
 24 25  1  0
 25 26  2  0
 26 27  1  0
 27 28  2  0
 28 29  1  0
 29 30  2  0
 30 31  1  0
 21 32  2  0
  9 33  1  0
  6  1  1  0
 32 10  1  0
 33  4  1  0
 19 14  1  0
 31 22  1  0
 30 25  1  0
  1 34  1  0
  2 35  1  0
  3 36  1  0
  6 37  1  0
  7 38  1  0
  7 39  1  0
  8 40  1  0
  8 41  1  0
 11 42  1  0
 13 43  1  0
 14 44  1  1
 15 45  1  0
 15 46  1  0
 16 47  1  0
 16 48  1  0
 17 49  1  0
 17 50  1  0
 18 51  1  0
 19 52  1  0
 19 53  1  0
 23 54  1  0
 23 55  1  0
 24 56  1  0
 24 57  1  0
 26 58  1  0
 27 59  1  0
 28 60  1  0
 29 61  1  0
 31 62  1  0
 31 63  1  0
 33 64  1  0
 33 65  1  0
M  END
>  <smiles>  (83) 
c1ccc2c(c1)CCN(c1cc(NC3CCCNC3)nc(N3CCc4ccccc4C3)n1)C2

>  <score_type>  (83) 
oracle

>  <origin>  (83) 
autodockgpu

>  <m_score__min__energy>  (83) 
-10.15

>  <m_primary>  (83) 
energy

>  <rmsd>  (83) 
8.5317800777928

>  <m_score__min__rmsd>  (83) 
8.5317800777928

>  <meeko>  (83) 
{"free_energy": -9.89, "intermolecular_energy": -11.09, "internal_energy": -0.94, "cluster_size": 41, "cluster_id": 1, "rank_in_cluster": 21}

>  <energy>  (83) 
-9.41

>  <cluster_rmsd>  (83) 
1.29

>  <cluster>  (83) 
1

$$$$

     RDKit          3D

 65 70  0  0  0  0  0  0  0  0999 V2000
  139.6480   68.0410  227.4260 C   0  0  0  0  0  0  0  0  0  0  0  0
  140.2670   69.1330  227.9870 C   0  0  0  0  0  0  0  0  0  0  0  0
  140.5570   70.2720  227.2630 C   0  0  0  0  0  0  0  0  0  0  0  0
  140.1950   70.2840  225.9130 C   0  0  0  0  0  0  0  0  0  0  0  0
  139.5730   69.1910  225.3450 C   0  0  0  0  0  0  0  0  0  0  0  0
  139.2910   68.0620  226.0830 C   0  0  0  0  0  0  0  0  0  0  0  0
  139.1930   69.2250  223.8960 C   0  0  0  0  0  0  0  0  0  0  0  0
  138.7120   70.6400  223.6430 C   0  0  0  0  0  0  0  0  0  0  0  0
  139.8650   71.5100  223.8530 N   0  0  0  0  0  0  0  0  0  0  0  0
  140.3210   72.3260  222.7840 C   0  0  0  0  0  0  0  0  0  0  0  0
  141.1400   71.8100  221.8000 C   0  0  0  0  0  0  0  0  0  0  0  0
  141.6100   72.5560  220.7410 C   0  0  0  0  0  0  0  0  0  0  0  0
  142.4520   72.0390  219.7240 N   0  0  0  0  0  0  0  0  0  0  0  0
  143.8920   72.2020  219.7310 C   0  0  1  0  0  0  0  0  0  0  0  0
  144.3710   73.0990  218.6100 C   0  0  0  0  0  0  0  0  0  0  0  0
  145.8410   73.3340  218.7710 C   0  0  0  0  0  0  0  0  0  0  0  0
  146.2460   73.7370  220.1640 C   0  0  0  0  0  0  0  0  0  0  0  0
  145.7250   72.7790  221.1530 N   0  0  0  0  0  0  0  0  0  0  0  0
  144.2810   72.8780  221.0340 C   0  0  0  0  0  0  0  0  0  0  0  0
  141.2170   73.8580  220.7130 N   0  0  0  0  0  0  0  0  0  0  0  0
  140.4160   74.3760  221.6680 C   0  0  0  0  0  0  0  0  0  0  0  0
  139.9950   75.7460  221.6500 N   0  0  0  0  0  0  0  0  0  0  0  0
  140.9090   76.8220  221.3210 C   0  0  0  0  0  0  0  0  0  0  0  0
  141.0120   77.7830  222.4910 C   0  0  0  0  0  0  0  0  0  0  0  0
  139.6230   78.2880  222.7350 C   0  0  0  0  0  0  0  0  0  0  0  0
  139.5220   79.5740  223.2210 C   0  0  0  0  0  0  0  0  0  0  0  0
  138.2670   80.0810  223.4610 C   0  0  0  0  0  0  0  0  0  0  0  0
  137.1570   79.3080  223.2160 C   0  0  0  0  0  0  0  0  0  0  0  0
  137.2900   78.0160  222.7270 C   0  0  0  0  0  0  0  0  0  0  0  0
  138.5340   77.4830  222.4780 C   0  0  0  0  0  0  0  0  0  0  0  0
  138.6330   76.1020  221.9570 C   0  0  0  0  0  0  0  0  0  0  0  0
  139.9740   73.6020  222.6990 N   0  0  0  0  0  0  0  0  0  0  0  0
  140.5140   71.5200  225.1440 C   0  0  0  0  0  0  0  0  0  0  0  0
  139.4357   67.1525  228.0389 H   0  0  0  0  0  0  0  0  0  0  0  0
  140.5412   69.0978  229.0517 H   0  0  0  0  0  0  0  0  0  0  0  0
  141.0532   71.1357  227.7298 H   0  0  0  0  0  0  0  0  0  0  0  0
  138.7945   67.1967  225.6195 H   0  0  0  0  0  0  0  0  0  0  0  0
  140.0632   68.9948  223.2637 H   0  0  0  0  0  0  0  0  0  0  0  0
  138.4202   68.4797  223.6566 H   0  0  0  0  0  0  0  0  0  0  0  0
  138.3441   70.7381  222.6110 H   0  0  0  0  0  0  0  0  0  0  0  0
  137.8834   70.9062  224.3157 H   0  0  0  0  0  0  0  0  0  0  0  0
  141.4318   70.7514  221.8643 H   0  0  0  0  0  0  0  0  0  0  0  0
  141.9570   71.5140  218.9430 H   0  0  0  0  0  0  0  0  0  0  0  0
  144.3448   71.2068  219.6100 H   0  0  0  0  0  0  0  0  0  0  0  0
  144.1785   72.6144  217.6415 H   0  0  0  0  0  0  0  0  0  0  0  0
  143.8342   74.0585  218.6454 H   0  0  0  0  0  0  0  0  0  0  0  0
  146.3705   72.4054  218.5114 H   0  0  0  0  0  0  0  0  0  0  0  0
  146.1049   74.1707  218.1074 H   0  0  0  0  0  0  0  0  0  0  0  0
  147.3438   73.7618  220.2283 H   0  0  0  0  0  0  0  0  0  0  0  0
  145.8294   74.7318  220.3805 H   0  0  0  0  0  0  0  0  0  0  0  0
  145.9980   71.8250  220.8490 H   0  0  0  0  0  0  0  0  0  0  0  0
  143.7971   72.3704  221.8814 H   0  0  0  0  0  0  0  0  0  0  0  0
  143.9593   73.9299  221.0402 H   0  0  0  0  0  0  0  0  0  0  0  0
  141.9027   76.4036  221.1032 H   0  0  0  0  0  0  0  0  0  0  0  0
  140.5333   77.3615  220.4391 H   0  0  0  0  0  0  0  0  0  0  0  0
  141.3908   77.2609  223.3820 H   0  0  0  0  0  0  0  0  0  0  0  0
  141.7079   78.6071  222.2750 H   0  0  0  0  0  0  0  0  0  0  0  0
  140.4213   80.1781  223.4116 H   0  0  0  0  0  0  0  0  0  0  0  0
  138.1511   81.1039  223.8486 H   0  0  0  0  0  0  0  0  0  0  0  0
  136.1544   79.7171  223.4093 H   0  0  0  0  0  0  0  0  0  0  0  0
  136.3911   77.4113  222.5364 H   0  0  0  0  0  0  0  0  0  0  0  0
  138.2446   75.4060  222.7151 H   0  0  0  0  0  0  0  0  0  0  0  0
  138.0448   76.0418  221.0294 H   0  0  0  0  0  0  0  0  0  0  0  0
  141.6026   71.5821  224.9986 H   0  0  0  0  0  0  0  0  0  0  0  0
  140.1503   72.3891  225.7118 H   0  0  0  0  0  0  0  0  0  0  0  0
  1  2  2  0
  2  3  1  0
  3  4  2  0
  4  5  1  0
  5  6  2  0
  5  7  1  0
  7  8  1  0
  8  9  1  0
  9 10  1  0
 10 11  2  0
 11 12  1  0
 12 13  1  0
 13 14  1  0
 14 15  1  0
 15 16  1  0
 16 17  1  0
 17 18  1  0
 18 19  1  0
 12 20  2  0
 20 21  1  0
 21 22  1  0
 22 23  1  0
 23 24  1  0
 24 25  1  0
 25 26  2  0
 26 27  1  0
 27 28  2  0
 28 29  1  0
 29 30  2  0
 30 31  1  0
 21 32  2  0
  9 33  1  0
  6  1  1  0
 32 10  1  0
 33  4  1  0
 19 14  1  0
 31 22  1  0
 30 25  1  0
  1 34  1  0
  2 35  1  0
  3 36  1  0
  6 37  1  0
  7 38  1  0
  7 39  1  0
  8 40  1  0
  8 41  1  0
 11 42  1  0
 13 43  1  0
 14 44  1  6
 15 45  1  0
 15 46  1  0
 16 47  1  0
 16 48  1  0
 17 49  1  0
 17 50  1  0
 18 51  1  0
 19 52  1  0
 19 53  1  0
 23 54  1  0
 23 55  1  0
 24 56  1  0
 24 57  1  0
 26 58  1  0
 27 59  1  0
 28 60  1  0
 29 61  1  0
 31 62  1  0
 31 63  1  0
 33 64  1  0
 33 65  1  0
M  END
>  <smiles>  (84) 
c1ccc2c(c1)CCN(c1cc(NC3CCCNC3)nc(N3CCc4ccccc4C3)n1)C2

>  <score_type>  (84) 
oracle

>  <origin>  (84) 
autodockgpu

>  <m_score__min__energy>  (84) 
-10.15

>  <m_primary>  (84) 
energy

>  <rmsd>  (84) 
6.85597069977277

>  <m_score__min__rmsd>  (84) 
6.85597069977277

>  <meeko>  (84) 
{"free_energy": -9.68, "intermolecular_energy": -10.87, "internal_energy": -1.08, "cluster_size": 41, "cluster_id": 1, "rank_in_cluster": 27}

>  <energy>  (84) 
-9.4

>  <cluster_rmsd>  (84) 
1.06

>  <cluster>  (84) 
1

$$$$

     RDKit          3D

 65 70  0  0  0  0  0  0  0  0999 V2000
  139.6370   68.5660  227.6690 C   0  0  0  0  0  0  0  0  0  0  0  0
  140.3270   69.6750  228.0980 C   0  0  0  0  0  0  0  0  0  0  0  0
  140.6810   70.7020  227.2470 C   0  0  0  0  0  0  0  0  0  0  0  0
  140.3100   70.5800  225.9050 C   0  0  0  0  0  0  0  0  0  0  0  0
  139.6180   69.4680  225.4680 C   0  0  0  0  0  0  0  0  0  0  0  0
  139.2720   68.4520  226.3330 C   0  0  0  0  0  0  0  0  0  0  0  0
  139.2300   69.3570  224.0250 C   0  0  0  0  0  0  0  0  0  0  0  0
  138.8350   70.7610  223.6090 C   0  0  0  0  0  0  0  0  0  0  0  0
  140.0410   71.5760  223.7160 N   0  0  0  0  0  0  0  0  0  0  0  0
  140.5380   72.2330  222.5590 C   0  0  0  0  0  0  0  0  0  0  0  0
  141.1920   71.5240  221.5710 C   0  0  0  0  0  0  0  0  0  0  0  0
  141.6930   72.1110  220.4280 C   0  0  0  0  0  0  0  0  0  0  0  0
  142.3670   71.3950  219.4060 N   0  0  0  0  0  0  0  0  0  0  0  0
  143.6870   70.8230  219.5800 C   0  0  1  0  0  0  0  0  0  0  0  0
  143.7750   69.4140  219.0350 C   0  0  0  0  0  0  0  0  0  0  0  0
  145.1960   68.9490  219.1210 C   0  0  0  0  0  0  0  0  0  0  0  0
  146.1960   69.9360  218.5790 C   0  0  0  0  0  0  0  0  0  0  0  0
  146.0050   71.2580  219.1970 N   0  0  0  0  0  0  0  0  0  0  0  0
  144.6720   71.6650  218.7910 C   0  0  0  0  0  0  0  0  0  0  0  0
  141.5060   73.4530  220.3210 N   0  0  0  0  0  0  0  0  0  0  0  0
  140.8690   74.1580  221.2800 C   0  0  0  0  0  0  0  0  0  0  0  0
  140.6660   75.5740  221.1780 N   0  0  0  0  0  0  0  0  0  0  0  0
  140.8490   76.2840  219.9270 C   0  0  0  0  0  0  0  0  0  0  0  0
  141.9320   77.3340  220.0870 C   0  0  0  0  0  0  0  0  0  0  0  0
  141.4660   78.2450  221.1800 C   0  0  0  0  0  0  0  0  0  0  0  0
  141.8580   79.5630  221.0810 C   0  0  0  0  0  0  0  0  0  0  0  0
  141.4550   80.4370  222.0620 C   0  0  0  0  0  0  0  0  0  0  0  0
  140.6820   79.9870  223.1050 C   0  0  0  0  0  0  0  0  0  0  0  0
  140.3020   78.6540  223.1800 C   0  0  0  0  0  0  0  0  0  0  0  0
  140.6920   77.7580  222.2110 C   0  0  0  0  0  0  0  0  0  0  0  0
  140.2660   76.3460  222.3270 C   0  0  0  0  0  0  0  0  0  0  0  0
  140.3890   73.5390  222.3940 N   0  0  0  0  0  0  0  0  0  0  0  0
  140.6990   71.6960  224.9970 C   0  0  0  0  0  0  0  0  0  0  0  0
  139.3743   67.7705  228.3819 H   0  0  0  0  0  0  0  0  0  0  0  0
  140.6074   69.7464  229.1593 H   0  0  0  0  0  0  0  0  0  0  0  0
  141.2330   71.5814  227.6102 H   0  0  0  0  0  0  0  0  0  0  0  0
  138.7196   67.5711  225.9739 H   0  0  0  0  0  0  0  0  0  0  0  0
  140.0796   69.0014  223.4236 H   0  0  0  0  0  0  0  0  0  0  0  0
  138.4110   68.6383  223.8741 H   0  0  0  0  0  0  0  0  0  0  0  0
  138.4661   70.7613  222.5727 H   0  0  0  0  0  0  0  0  0  0  0  0
  138.0294   71.1545  224.2464 H   0  0  0  0  0  0  0  0  0  0  0  0
  141.3195   70.4393  221.7018 H   0  0  0  0  0  0  0  0  0  0  0  0
  141.8380   71.3010  218.4880 H   0  0  0  0  0  0  0  0  0  0  0  0
  143.9063   70.8029  220.6577 H   0  0  0  0  0  0  0  0  0  0  0  0
  143.1318   68.7476  219.6284 H   0  0  0  0  0  0  0  0  0  0  0  0
  143.4401   69.3978  217.9873 H   0  0  0  0  0  0  0  0  0  0  0  0
  145.4348   68.7593  220.1779 H   0  0  0  0  0  0  0  0  0  0  0  0
  145.2733   68.0437  218.5009 H   0  0  0  0  0  0  0  0  0  0  0  0
  147.2128   69.5779  218.7979 H   0  0  0  0  0  0  0  0  0  0  0  0
  146.0511   70.0278  217.4925 H   0  0  0  0  0  0  0  0  0  0  0  0
  145.9920   71.1310  220.2260 H   0  0  0  0  0  0  0  0  0  0  0  0
  144.5193   72.7314  219.0134 H   0  0  0  0  0  0  0  0  0  0  0  0
  144.5315   71.5203  217.7096 H   0  0  0  0  0  0  0  0  0  0  0  0
  141.1438   75.5717  219.1423 H   0  0  0  0  0  0  0  0  0  0  0  0
  139.9055   76.7747  219.6460 H   0  0  0  0  0  0  0  0  0  0  0  0
  142.8853   76.8605  220.3646 H   0  0  0  0  0  0  0  0  0  0  0  0
  142.1016   77.8837  219.1494 H   0  0  0  0  0  0  0  0  0  0  0  0
  142.4771   79.9061  220.2389 H   0  0  0  0  0  0  0  0  0  0  0  0
  141.7509   81.4953  222.0123 H   0  0  0  0  0  0  0  0  0  0  0  0
  140.3612   80.6898  223.8881 H   0  0  0  0  0  0  0  0  0  0  0  0
  139.6832   78.3106  224.0221 H   0  0  0  0  0  0  0  0  0  0  0  0
  140.7223   75.9085  223.2272 H   0  0  0  0  0  0  0  0  0  0  0  0
  139.1681   76.3226  222.3913 H   0  0  0  0  0  0  0  0  0  0  0  0
  141.7882   71.6730  224.8452 H   0  0  0  0  0  0  0  0  0  0  0  0
  140.3938   72.6462  225.4596 H   0  0  0  0  0  0  0  0  0  0  0  0
  1  2  2  0
  2  3  1  0
  3  4  2  0
  4  5  1  0
  5  6  2  0
  5  7  1  0
  7  8  1  0
  8  9  1  0
  9 10  1  0
 10 11  2  0
 11 12  1  0
 12 13  1  0
 13 14  1  0
 14 15  1  0
 15 16  1  0
 16 17  1  0
 17 18  1  0
 18 19  1  0
 12 20  2  0
 20 21  1  0
 21 22  1  0
 22 23  1  0
 23 24  1  0
 24 25  1  0
 25 26  2  0
 26 27  1  0
 27 28  2  0
 28 29  1  0
 29 30  2  0
 30 31  1  0
 21 32  2  0
  9 33  1  0
  6  1  1  0
 32 10  1  0
 33  4  1  0
 19 14  1  0
 31 22  1  0
 30 25  1  0
  1 34  1  0
  2 35  1  0
  3 36  1  0
  6 37  1  0
  7 38  1  0
  7 39  1  0
  8 40  1  0
  8 41  1  0
 11 42  1  0
 13 43  1  0
 14 44  1  1
 15 45  1  0
 15 46  1  0
 16 47  1  0
 16 48  1  0
 17 49  1  0
 17 50  1  0
 18 51  1  0
 19 52  1  0
 19 53  1  0
 23 54  1  0
 23 55  1  0
 24 56  1  0
 24 57  1  0
 26 58  1  0
 27 59  1  0
 28 60  1  0
 29 61  1  0
 31 62  1  0
 31 63  1  0
 33 64  1  0
 33 65  1  0
M  END
>  <smiles>  (85) 
c1ccc2c(c1)CCN(c1cc(NC3CCCNC3)nc(N3CCc4ccccc4C3)n1)C2

>  <score_type>  (85) 
oracle

>  <origin>  (85) 
autodockgpu

>  <m_score__min__energy>  (85) 
-10.15

>  <m_primary>  (85) 
energy

>  <rmsd>  (85) 
8.85454207982842

>  <m_score__min__rmsd>  (85) 
8.85454207982842

>  <meeko>  (85) 
{"free_energy": -10.06, "intermolecular_energy": -11.26, "internal_energy": -0.93, "cluster_size": 41, "cluster_id": 1, "rank_in_cluster": 11}

>  <energy>  (85) 
-9.4

>  <cluster_rmsd>  (85) 
1.42

>  <cluster>  (85) 
1

$$$$

     RDKit          3D

 65 70  0  0  0  0  0  0  0  0999 V2000
  139.3890   68.2930  226.8500 C   0  0  0  0  0  0  0  0  0  0  0  0
  140.0600   69.3160  227.4770 C   0  0  0  0  0  0  0  0  0  0  0  0
  140.4930   70.4400  226.8030 C   0  0  0  0  0  0  0  0  0  0  0  0
  140.2220   70.5100  225.4340 C   0  0  0  0  0  0  0  0  0  0  0  0
  139.5490   69.4860  224.7990 C   0  0  0  0  0  0  0  0  0  0  0  0
  139.1240   68.3710  225.4890 C   0  0  0  0  0  0  0  0  0  0  0  0
  139.2690   69.5820  223.3300 C   0  0  0  0  0  0  0  0  0  0  0  0
  138.9260   71.0380  223.0830 C   0  0  0  0  0  0  0  0  0  0  0  0
  140.1330   71.8010  223.3890 N   0  0  0  0  0  0  0  0  0  0  0  0
  140.7260   72.5960  222.3720 C   0  0  0  0  0  0  0  0  0  0  0  0
  141.5050   72.0210  221.3890 C   0  0  0  0  0  0  0  0  0  0  0  0
  142.1020   72.7450  220.3790 C   0  0  0  0  0  0  0  0  0  0  0  0
  142.9060   72.1660  219.3640 N   0  0  0  0  0  0  0  0  0  0  0  0
  143.9740   71.2270  219.6410 C   0  0  1  0  0  0  0  0  0  0  0  0
  143.6400   69.8270  219.1740 C   0  0  0  0  0  0  0  0  0  0  0  0
  144.8410   68.9530  219.3630 C   0  0  0  0  0  0  0  0  0  0  0  0
  146.1180   69.5450  218.8280 C   0  0  0  0  0  0  0  0  0  0  0  0
  146.3260   70.8990  219.3650 N   0  0  0  0  0  0  0  0  0  0  0  0
  145.2020   71.6700  218.8650 C   0  0  0  0  0  0  0  0  0  0  0  0
  141.8790   74.0860  220.4010 N   0  0  0  0  0  0  0  0  0  0  0  0
  141.1190   74.6620  221.3560 C   0  0  0  0  0  0  0  0  0  0  0  0
  140.8760   76.0750  221.3880 N   0  0  0  0  0  0  0  0  0  0  0  0
  140.7520   76.8570  220.1730 C   0  0  0  0  0  0  0  0  0  0  0  0
  141.8270   77.9270  220.1410 C   0  0  0  0  0  0  0  0  0  0  0  0
  141.6150   78.7630  221.3650 C   0  0  0  0  0  0  0  0  0  0  0  0
  141.9530   80.0950  221.2560 C   0  0  0  0  0  0  0  0  0  0  0  0
  141.7760   80.9020  222.3550 C   0  0  0  0  0  0  0  0  0  0  0  0
  141.2740   80.3740  223.5200 C   0  0  0  0  0  0  0  0  0  0  0  0
  140.9430   79.0290  223.6000 C   0  0  0  0  0  0  0  0  0  0  0  0
  141.1090   78.1980  222.5160 C   0  0  0  0  0  0  0  0  0  0  0  0
  140.7440   76.7710  222.6430 C   0  0  0  0  0  0  0  0  0  0  0  0
  140.5470   73.9090  222.3360 N   0  0  0  0  0  0  0  0  0  0  0  0
  140.6940   71.7290  224.7180 C   0  0  0  0  0  0  0  0  0  0  0  0
  139.0626   67.4141  227.4254 H   0  0  0  0  0  0  0  0  0  0  0  0
  140.2592   69.2358  228.5558 H   0  0  0  0  0  0  0  0  0  0  0  0
  141.0295   71.2477  227.3224 H   0  0  0  0  0  0  0  0  0  0  0  0
  138.5870   67.5613  224.9733 H   0  0  0  0  0  0  0  0  0  0  0  0
  140.1564   69.2911  222.7487 H   0  0  0  0  0  0  0  0  0  0  0  0
  138.4536   68.9106  223.0230 H   0  0  0  0  0  0  0  0  0  0  0  0
  138.6366   71.1882  222.0324 H   0  0  0  0  0  0  0  0  0  0  0  0
  138.0798   71.3609  223.7073 H   0  0  0  0  0  0  0  0  0  0  0  0
  141.6571   70.9318  221.4123 H   0  0  0  0  0  0  0  0  0  0  0  0
  142.6750   72.4660  218.3700 H   0  0  0  0  0  0  0  0  0  0  0  0
  144.1347   71.2113  220.7291 H   0  0  0  0  0  0  0  0  0  0  0  0
  142.7994   69.4319  219.7633 H   0  0  0  0  0  0  0  0  0  0  0  0
  143.3568   69.8464  218.1113 H   0  0  0  0  0  0  0  0  0  0  0  0
  144.9693   68.7691  220.4399 H   0  0  0  0  0  0  0  0  0  0  0  0
  144.6555   68.0292  218.7954 H   0  0  0  0  0  0  0  0  0  0  0  0
  146.9636   68.9058  219.1217 H   0  0  0  0  0  0  0  0  0  0  0  0
  146.0491   69.6050  217.7318 H   0  0  0  0  0  0  0  0  0  0  0  0
  146.2360   70.8510  220.3980 H   0  0  0  0  0  0  0  0  0  0  0  0
  145.3810   72.7437  219.0234 H   0  0  0  0  0  0  0  0  0  0  0  0
  145.0635   71.5045  217.7864 H   0  0  0  0  0  0  0  0  0  0  0  0
  140.8668   76.1973  219.3003 H   0  0  0  0  0  0  0  0  0  0  0  0
  139.7616   77.3350  220.1472 H   0  0  0  0  0  0  0  0  0  0  0  0
  142.8256   77.4661  220.1614 H   0  0  0  0  0  0  0  0  0  0  0  0
  141.7654   78.5322  219.2245 H   0  0  0  0  0  0  0  0  0  0  0  0
  142.3534   80.5012  220.3154 H   0  0  0  0  0  0  0  0  0  0  0  0
  142.0361   81.9695  222.3016 H   0  0  0  0  0  0  0  0  0  0  0  0
  141.1334   81.0232  224.3968 H   0  0  0  0  0  0  0  0  0  0  0  0
  140.5433   78.6224  224.5407 H   0  0  0  0  0  0  0  0  0  0  0  0
  141.4050   76.2983  223.3844 H   0  0  0  0  0  0  0  0  0  0  0  0
  139.6922   76.7122  222.9596 H   0  0  0  0  0  0  0  0  0  0  0  0
  141.7911   71.6999  224.6438 H   0  0  0  0  0  0  0  0  0  0  0  0
  140.3682   72.6146  225.2834 H   0  0  0  0  0  0  0  0  0  0  0  0
  1  2  2  0
  2  3  1  0
  3  4  2  0
  4  5  1  0
  5  6  2  0
  5  7  1  0
  7  8  1  0
  8  9  1  0
  9 10  1  0
 10 11  2  0
 11 12  1  0
 12 13  1  0
 13 14  1  0
 14 15  1  0
 15 16  1  0
 16 17  1  0
 17 18  1  0
 18 19  1  0
 12 20  2  0
 20 21  1  0
 21 22  1  0
 22 23  1  0
 23 24  1  0
 24 25  1  0
 25 26  2  0
 26 27  1  0
 27 28  2  0
 28 29  1  0
 29 30  2  0
 30 31  1  0
 21 32  2  0
  9 33  1  0
  6  1  1  0
 32 10  1  0
 33  4  1  0
 19 14  1  0
 31 22  1  0
 30 25  1  0
  1 34  1  0
  2 35  1  0
  3 36  1  0
  6 37  1  0
  7 38  1  0
  7 39  1  0
  8 40  1  0
  8 41  1  0
 11 42  1  0
 13 43  1  0
 14 44  1  1
 15 45  1  0
 15 46  1  0
 16 47  1  0
 16 48  1  0
 17 49  1  0
 17 50  1  0
 18 51  1  0
 19 52  1  0
 19 53  1  0
 23 54  1  0
 23 55  1  0
 24 56  1  0
 24 57  1  0
 26 58  1  0
 27 59  1  0
 28 60  1  0
 29 61  1  0
 31 62  1  0
 31 63  1  0
 33 64  1  0
 33 65  1  0
M  END
>  <smiles>  (86) 
c1ccc2c(c1)CCN(c1cc(NC3CCCNC3)nc(N3CCc4ccccc4C3)n1)C2

>  <score_type>  (86) 
oracle

>  <origin>  (86) 
autodockgpu

>  <m_score__min__energy>  (86) 
-10.15

>  <m_primary>  (86) 
energy

>  <rmsd>  (86) 
8.738944271799442

>  <m_score__min__rmsd>  (86) 
8.738944271799442

>  <meeko>  (86) 
{"free_energy": -10.1, "intermolecular_energy": -11.29, "internal_energy": -0.94, "cluster_size": 41, "cluster_id": 1, "rank_in_cluster": 10}

>  <energy>  (86) 
-9.39

>  <cluster_rmsd>  (86) 
1.8

>  <cluster>  (86) 
1

$$$$

     RDKit          3D

 65 70  0  0  0  0  0  0  0  0999 V2000
  139.6530   67.9810  227.2200 C   0  0  0  0  0  0  0  0  0  0  0  0
  140.2720   69.0590  227.8070 C   0  0  0  0  0  0  0  0  0  0  0  0
  140.5280   70.2290  227.1210 C   0  0  0  0  0  0  0  0  0  0  0  0
  140.1320   70.2880  225.7820 C   0  0  0  0  0  0  0  0  0  0  0  0
  139.5110   69.2080  225.1880 C   0  0  0  0  0  0  0  0  0  0  0  0
  139.2620   68.0470  225.8880 C   0  0  0  0  0  0  0  0  0  0  0  0
  139.0940   69.2930  223.7500 C   0  0  0  0  0  0  0  0  0  0  0  0
  138.5870   70.7090  223.5650 C   0  0  0  0  0  0  0  0  0  0  0  0
  139.7340   71.5880  223.7810 N   0  0  0  0  0  0  0  0  0  0  0  0
  140.1520   72.4510  222.7330 C   0  0  0  0  0  0  0  0  0  0  0  0
  140.9660   71.9890  221.7190 C   0  0  0  0  0  0  0  0  0  0  0  0
  141.4000   72.7830  220.6790 C   0  0  0  0  0  0  0  0  0  0  0  0
  142.2380   72.3220  219.6320 N   0  0  0  0  0  0  0  0  0  0  0  0
  143.5960   72.7910  219.4410 C   0  0  1  0  0  0  0  0  0  0  0  0
  143.9980   73.8130  220.4820 C   0  0  0  0  0  0  0  0  0  0  0  0
  145.4490   74.1390  220.3060 C   0  0  0  0  0  0  0  0  0  0  0  0
  146.3370   72.9290  220.1840 C   0  0  0  0  0  0  0  0  0  0  0  0
  145.8390   72.0250  219.1350 N   0  0  0  0  0  0  0  0  0  0  0  0
  144.5300   71.6050  219.6020 C   0  0  0  0  0  0  0  0  0  0  0  0
  140.9750   74.0740  220.7020 N   0  0  0  0  0  0  0  0  0  0  0  0
  140.1770   74.5390  221.6870 C   0  0  0  0  0  0  0  0  0  0  0  0
  139.7210   75.8980  221.7220 N   0  0  0  0  0  0  0  0  0  0  0  0
  140.6040   77.0080  221.4200 C   0  0  0  0  0  0  0  0  0  0  0  0
  140.6990   77.9290  222.6220 C   0  0  0  0  0  0  0  0  0  0  0  0
  139.3020   78.3900  222.9010 C   0  0  0  0  0  0  0  0  0  0  0  0
  139.1750   79.6550  223.4330 C   0  0  0  0  0  0  0  0  0  0  0  0
  137.9110   80.1210  223.7070 C   0  0  0  0  0  0  0  0  0  0  0  0
  136.8180   79.3290  223.4490 C   0  0  0  0  0  0  0  0  0  0  0  0
  136.9760   78.0590  222.9140 C   0  0  0  0  0  0  0  0  0  0  0  0
  138.2290   77.5670  222.6300 C   0  0  0  0  0  0  0  0  0  0  0  0
  138.3550   76.2080  222.0600 C   0  0  0  0  0  0  0  0  0  0  0  0
  139.7720   73.7200  222.6970 N   0  0  0  0  0  0  0  0  0  0  0  0
  140.4150   71.5570  225.0540 C   0  0  0  0  0  0  0  0  0  0  0  0
  139.4674   67.0674  227.8038 H   0  0  0  0  0  0  0  0  0  0  0  0
  140.5744   68.9865  228.8621 H   0  0  0  0  0  0  0  0  0  0  0  0
  141.0240   71.0811  227.6088 H   0  0  0  0  0  0  0  0  0  0  0  0
  138.7656   67.1930  225.4039 H   0  0  0  0  0  0  0  0  0  0  0  0
  139.9512   69.1009  223.0880 H   0  0  0  0  0  0  0  0  0  0  0  0
  138.3261   68.5460  223.5003 H   0  0  0  0  0  0  0  0  0  0  0  0
  138.1919   70.8419  222.5470 H   0  0  0  0  0  0  0  0  0  0  0  0
  137.7718   70.9363  224.2677 H   0  0  0  0  0  0  0  0  0  0  0  0
  141.2840   70.9362  221.7417 H   0  0  0  0  0  0  0  0  0  0  0  0
  141.8050   71.5980  218.9840 H   0  0  0  0  0  0  0  0  0  0  0  0
  143.6564   73.2531  218.4446 H   0  0  0  0  0  0  0  0  0  0  0  0
  143.3965   74.7253  220.3555 H   0  0  0  0  0  0  0  0  0  0  0  0
  143.8267   73.4062  221.4896 H   0  0  0  0  0  0  0  0  0  0  0  0
  145.5598   74.7431  219.3934 H   0  0  0  0  0  0  0  0  0  0  0  0
  145.7667   74.6776  221.2109 H   0  0  0  0  0  0  0  0  0  0  0  0
  147.3565   73.2531  219.9279 H   0  0  0  0  0  0  0  0  0  0  0  0
  146.3384   72.3918  221.1439 H   0  0  0  0  0  0  0  0  0  0  0  0
  145.6980   72.5840  218.2720 H   0  0  0  0  0  0  0  0  0  0  0  0
  144.1696   70.7568  219.0015 H   0  0  0  0  0  0  0  0  0  0  0  0
  144.5746   71.2820  220.6526 H   0  0  0  0  0  0  0  0  0  0  0  0
  141.6047   76.6227  221.1749 H   0  0  0  0  0  0  0  0  0  0  0  0
  140.2033   77.5688  220.5627 H   0  0  0  0  0  0  0  0  0  0  0  0
  141.1023   77.3853  223.4890 H   0  0  0  0  0  0  0  0  0  0  0  0
  141.3715   78.7773  222.4270 H   0  0  0  0  0  0  0  0  0  0  0  0
  140.0612   80.2751  223.6330 H   0  0  0  0  0  0  0  0  0  0  0  0
  137.7747   81.1263  224.1321 H   0  0  0  0  0  0  0  0  0  0  0  0
  135.8082   79.7058  223.6688 H   0  0  0  0  0  0  0  0  0  0  0  0
  136.0898   77.4385  222.7146 H   0  0  0  0  0  0  0  0  0  0  0  0
  137.9954   75.4765  222.7987 H   0  0  0  0  0  0  0  0  0  0  0  0
  137.7549   76.1647  221.1391 H   0  0  0  0  0  0  0  0  0  0  0  0
  141.4986   71.6399  224.8840 H   0  0  0  0  0  0  0  0  0  0  0  0
  140.0543   72.3982  225.6642 H   0  0  0  0  0  0  0  0  0  0  0  0
  1  2  2  0
  2  3  1  0
  3  4  2  0
  4  5  1  0
  5  6  2  0
  5  7  1  0
  7  8  1  0
  8  9  1  0
  9 10  1  0
 10 11  2  0
 11 12  1  0
 12 13  1  0
 13 14  1  0
 14 15  1  0
 15 16  1  0
 16 17  1  0
 17 18  1  0
 18 19  1  0
 12 20  2  0
 20 21  1  0
 21 22  1  0
 22 23  1  0
 23 24  1  0
 24 25  1  0
 25 26  2  0
 26 27  1  0
 27 28  2  0
 28 29  1  0
 29 30  2  0
 30 31  1  0
 21 32  2  0
  9 33  1  0
  6  1  1  0
 32 10  1  0
 33  4  1  0
 19 14  1  0
 31 22  1  0
 30 25  1  0
  1 34  1  0
  2 35  1  0
  3 36  1  0
  6 37  1  0
  7 38  1  0
  7 39  1  0
  8 40  1  0
  8 41  1  0
 11 42  1  0
 13 43  1  0
 14 44  1  6
 15 45  1  0
 15 46  1  0
 16 47  1  0
 16 48  1  0
 17 49  1  0
 17 50  1  0
 18 51  1  0
 19 52  1  0
 19 53  1  0
 23 54  1  0
 23 55  1  0
 24 56  1  0
 24 57  1  0
 26 58  1  0
 27 59  1  0
 28 60  1  0
 29 61  1  0
 31 62  1  0
 31 63  1  0
 33 64  1  0
 33 65  1  0
M  END
>  <smiles>  (87) 
c1ccc2c(c1)CCN(c1cc(NC3CCCNC3)nc(N3CCc4ccccc4C3)n1)C2

>  <score_type>  (87) 
oracle

>  <origin>  (87) 
autodockgpu

>  <m_score__min__energy>  (87) 
-10.15

>  <m_primary>  (87) 
energy

>  <rmsd>  (87) 
6.465806595896678

>  <m_score__min__rmsd>  (87) 
6.465806595896678

>  <meeko>  (87) 
{"free_energy": -9.69, "intermolecular_energy": -10.88, "internal_energy": -1.07, "cluster_size": 41, "cluster_id": 1, "rank_in_cluster": 26}

>  <energy>  (87) 
-9.36

>  <cluster_rmsd>  (87) 
1.08

>  <cluster>  (87) 
1

$$$$

     RDKit          3D

 65 70  0  0  0  0  0  0  0  0999 V2000
  139.9120   68.7320  227.8900 C   0  0  0  0  0  0  0  0  0  0  0  0
  140.5250   69.9060  228.2570 C   0  0  0  0  0  0  0  0  0  0  0  0
  140.7940   70.9150  227.3540 C   0  0  0  0  0  0  0  0  0  0  0  0
  140.4150   70.7040  226.0250 C   0  0  0  0  0  0  0  0  0  0  0  0
  139.7990   69.5260  225.6510 C   0  0  0  0  0  0  0  0  0  0  0  0
  139.5380   68.5300  226.5670 C   0  0  0  0  0  0  0  0  0  0  0  0
  139.4010   69.3210  224.2200 C   0  0  0  0  0  0  0  0  0  0  0  0
  138.9010   70.6720  223.7480 C   0  0  0  0  0  0  0  0  0  0  0  0
  140.0470   71.5750  223.7980 N   0  0  0  0  0  0  0  0  0  0  0  0
  140.4810   72.2110  222.6040 C   0  0  0  0  0  0  0  0  0  0  0  0
  141.0450   71.4790  221.5790 C   0  0  0  0  0  0  0  0  0  0  0  0
  141.4820   72.0440  220.4000 C   0  0  0  0  0  0  0  0  0  0  0  0
  142.0640   71.3040  219.3400 N   0  0  0  0  0  0  0  0  0  0  0  0
  143.2670   71.7260  218.6500 C   0  0  1  0  0  0  0  0  0  0  0  0
  143.1010   73.0730  217.9820 C   0  0  0  0  0  0  0  0  0  0  0  0
  144.4200   73.5020  217.4190 C   0  0  0  0  0  0  0  0  0  0  0  0
  145.5670   73.3760  218.3860 C   0  0  0  0  0  0  0  0  0  0  0  0
  145.6190   72.0200  218.9540 N   0  0  0  0  0  0  0  0  0  0  0  0
  144.3710   71.8770  219.6810 C   0  0  0  0  0  0  0  0  0  0  0  0
  141.3240   73.3910  220.2960 N   0  0  0  0  0  0  0  0  0  0  0  0
  140.7740   74.1180  221.2900 C   0  0  0  0  0  0  0  0  0  0  0  0
  140.6020   75.5380  221.1910 N   0  0  0  0  0  0  0  0  0  0  0  0
  140.8250   76.2500  219.9470 C   0  0  0  0  0  0  0  0  0  0  0  0
  141.9260   77.2770  220.1340 C   0  0  0  0  0  0  0  0  0  0  0  0
  141.4570   78.1920  221.2230 C   0  0  0  0  0  0  0  0  0  0  0  0
  141.8780   79.5020  221.1370 C   0  0  0  0  0  0  0  0  0  0  0  0
  141.4730   80.3800  222.1150 C   0  0  0  0  0  0  0  0  0  0  0  0
  140.6690   79.9420  223.1400 C   0  0  0  0  0  0  0  0  0  0  0  0
  140.2610   78.6170  223.2000 C   0  0  0  0  0  0  0  0  0  0  0  0
  140.6510   77.7170  222.2350 C   0  0  0  0  0  0  0  0  0  0  0  0
  140.1950   76.3130  222.3350 C   0  0  0  0  0  0  0  0  0  0  0  0
  140.3550   73.5190  222.4390 N   0  0  0  0  0  0  0  0  0  0  0  0
  140.7110   71.8010  225.0610 C   0  0  0  0  0  0  0  0  0  0  0  0
  139.7177   67.9534  228.6424 H   0  0  0  0  0  0  0  0  0  0  0  0
  140.8120   70.0470  229.3095 H   0  0  0  0  0  0  0  0  0  0  0  0
  141.2866   71.8472  227.6675 H   0  0  0  0  0  0  0  0  0  0  0  0
  139.0449   67.5965  226.2580 H   0  0  0  0  0  0  0  0  0  0  0  0
  140.2661   68.9994  223.6215 H   0  0  0  0  0  0  0  0  0  0  0  0
  138.6340   68.5396  224.1149 H   0  0  0  0  0  0  0  0  0  0  0  0
  138.5191   70.5983  222.7190 H   0  0  0  0  0  0  0  0  0  0  0  0
  138.0779   71.0362  224.3804 H   0  0  0  0  0  0  0  0  0  0  0  0
  141.1510   70.3919  221.7091 H   0  0  0  0  0  0  0  0  0  0  0  0
  141.5590   70.4070  219.0750 H   0  0  0  0  0  0  0  0  0  0  0  0
  143.4958   70.9732  217.8813 H   0  0  0  0  0  0  0  0  0  0  0  0
  142.3617   72.9943  217.1713 H   0  0  0  0  0  0  0  0  0  0  0  0
  142.7518   73.8127  218.7174 H   0  0  0  0  0  0  0  0  0  0  0  0
  144.6394   72.8800  216.5387 H   0  0  0  0  0  0  0  0  0  0  0  0
  144.3285   74.5696  217.1702 H   0  0  0  0  0  0  0  0  0  0  0  0
  146.5094   73.5831  217.8579 H   0  0  0  0  0  0  0  0  0  0  0  0
  145.4224   74.0976  219.2036 H   0  0  0  0  0  0  0  0  0  0  0  0
  145.6020   71.3430  218.1680 H   0  0  0  0  0  0  0  0  0  0  0  0
  144.4098   70.9862  220.3252 H   0  0  0  0  0  0  0  0  0  0  0  0
  144.1898   72.7520  220.3225 H   0  0  0  0  0  0  0  0  0  0  0  0
  141.1210   75.5353  219.1650 H   0  0  0  0  0  0  0  0  0  0  0  0
  139.8976   76.7613  219.6494 H   0  0  0  0  0  0  0  0  0  0  0  0
  142.8638   76.7827  220.4276 H   0  0  0  0  0  0  0  0  0  0  0  0
  142.1252   77.8280  219.2030 H   0  0  0  0  0  0  0  0  0  0  0  0
  142.5203   79.8358  220.3087 H   0  0  0  0  0  0  0  0  0  0  0  0
  141.7923   81.4319  222.0769 H   0  0  0  0  0  0  0  0  0  0  0  0
  140.3462   80.6478  223.9195 H   0  0  0  0  0  0  0  0  0  0  0  0
  139.6188   78.2825  224.0281 H   0  0  0  0  0  0  0  0  0  0  0  0
  140.6245   75.8624  223.2419 H   0  0  0  0  0  0  0  0  0  0  0  0
  139.0958   76.3116  222.3768 H   0  0  0  0  0  0  0  0  0  0  0  0
  141.7970   71.8485  224.8928 H   0  0  0  0  0  0  0  0  0  0  0  0
  140.3444   72.7476  225.4847 H   0  0  0  0  0  0  0  0  0  0  0  0
  1  2  2  0
  2  3  1  0
  3  4  2  0
  4  5  1  0
  5  6  2  0
  5  7  1  0
  7  8  1  0
  8  9  1  0
  9 10  1  0
 10 11  2  0
 11 12  1  0
 12 13  1  0
 13 14  1  0
 14 15  1  0
 15 16  1  0
 16 17  1  0
 17 18  1  0
 18 19  1  0
 12 20  2  0
 20 21  1  0
 21 22  1  0
 22 23  1  0
 23 24  1  0
 24 25  1  0
 25 26  2  0
 26 27  1  0
 27 28  2  0
 28 29  1  0
 29 30  2  0
 30 31  1  0
 21 32  2  0
  9 33  1  0
  6  1  1  0
 32 10  1  0
 33  4  1  0
 19 14  1  0
 31 22  1  0
 30 25  1  0
  1 34  1  0
  2 35  1  0
  3 36  1  0
  6 37  1  0
  7 38  1  0
  7 39  1  0
  8 40  1  0
  8 41  1  0
 11 42  1  0
 13 43  1  0
 14 44  1  6
 15 45  1  0
 15 46  1  0
 16 47  1  0
 16 48  1  0
 17 49  1  0
 17 50  1  0
 18 51  1  0
 19 52  1  0
 19 53  1  0
 23 54  1  0
 23 55  1  0
 24 56  1  0
 24 57  1  0
 26 58  1  0
 27 59  1  0
 28 60  1  0
 29 61  1  0
 31 62  1  0
 31 63  1  0
 33 64  1  0
 33 65  1  0
M  END
>  <smiles>  (88) 
c1ccc2c(c1)CCN(c1cc(NC3CCCNC3)nc(N3CCc4ccccc4C3)n1)C2

>  <score_type>  (88) 
oracle

>  <origin>  (88) 
autodockgpu

>  <m_score__min__energy>  (88) 
-10.15

>  <m_primary>  (88) 
energy

>  <rmsd>  (88) 
7.072697305721

>  <m_score__min__rmsd>  (88) 
7.072697305721

>  <meeko>  (88) 
{"free_energy": -9.4, "intermolecular_energy": -10.6, "internal_energy": -1.16, "cluster_size": 41, "cluster_id": 1, "rank_in_cluster": 34}

>  <energy>  (88) 
-9.35

>  <cluster_rmsd>  (88) 
0.9

>  <cluster>  (88) 
1

$$$$

     RDKit          3D

 65 70  0  0  0  0  0  0  0  0999 V2000
  139.9630   68.1400  227.6340 C   0  0  0  0  0  0  0  0  0  0  0  0
  140.5760   69.2700  228.1230 C   0  0  0  0  0  0  0  0  0  0  0  0
  140.8060   70.3850  227.3430 C   0  0  0  0  0  0  0  0  0  0  0  0
  140.3870   70.3320  226.0100 C   0  0  0  0  0  0  0  0  0  0  0  0
  139.7720   69.2010  225.5140 C   0  0  0  0  0  0  0  0  0  0  0  0
  139.5500   68.0960  226.3080 C   0  0  0  0  0  0  0  0  0  0  0  0
  139.3310   69.1650  224.0810 C   0  0  0  0  0  0  0  0  0  0  0  0
  138.8020   70.5570  223.7930 C   0  0  0  0  0  0  0  0  0  0  0  0
  139.9400   71.4630  223.9190 N   0  0  0  0  0  0  0  0  0  0  0  0
  140.3290   72.2450  222.7980 C   0  0  0  0  0  0  0  0  0  0  0  0
  141.0560   71.6890  221.7660 C   0  0  0  0  0  0  0  0  0  0  0  0
  141.4580   72.4010  220.6570 C   0  0  0  0  0  0  0  0  0  0  0  0
  142.2060   71.8420  219.5900 N   0  0  0  0  0  0  0  0  0  0  0  0
  143.5040   71.2230  219.7730 C   0  0  1  0  0  0  0  0  0  0  0  0
  143.5460   69.8120  219.2290 C   0  0  0  0  0  0  0  0  0  0  0  0
  144.9490   69.2970  219.3250 C   0  0  0  0  0  0  0  0  0  0  0  0
  145.9870   70.2470  218.7900 C   0  0  0  0  0  0  0  0  0  0  0  0
  145.8390   71.5750  219.4050 N   0  0  0  0  0  0  0  0  0  0  0  0
  144.5240   72.0290  218.9900 C   0  0  0  0  0  0  0  0  0  0  0  0
  141.0940   73.7110  220.6300 N   0  0  0  0  0  0  0  0  0  0  0  0
  140.3820   74.2680  221.6330 C   0  0  0  0  0  0  0  0  0  0  0  0
  139.9920   75.6480  221.6160 N   0  0  0  0  0  0  0  0  0  0  0  0
  140.9250   76.7020  221.2680 C   0  0  0  0  0  0  0  0  0  0  0  0
  141.0690   77.6640  222.4320 C   0  0  0  0  0  0  0  0  0  0  0  0
  139.6960   78.2010  222.6970 C   0  0  0  0  0  0  0  0  0  0  0  0
  139.6320   79.4910  223.1790 C   0  0  0  0  0  0  0  0  0  0  0  0
  138.3940   80.0270  223.4390 C   0  0  0  0  0  0  0  0  0  0  0  0
  137.2630   79.2780  223.2160 C   0  0  0  0  0  0  0  0  0  0  0  0
  137.3580   77.9820  222.7300 C   0  0  0  0  0  0  0  0  0  0  0  0
  138.5850   77.4200  222.4620 C   0  0  0  0  0  0  0  0  0  0  0  0
  138.6430   76.0360  221.9450 C   0  0  0  0  0  0  0  0  0  0  0  0
  140.0050   73.5270  222.7120 N   0  0  0  0  0  0  0  0  0  0  0  0
  140.6410   71.5420  225.1790 C   0  0  0  0  0  0  0  0  0  0  0  0
  139.8001   67.2731  228.2912 H   0  0  0  0  0  0  0  0  0  0  0  0
  140.8950   69.2856  229.1756 H   0  0  0  0  0  0  0  0  0  0  0  0
  141.2988   71.2789  227.7531 H   0  0  0  0  0  0  0  0  0  0  0  0
  139.0575   67.2005  225.9013 H   0  0  0  0  0  0  0  0  0  0  0  0
  140.1799   68.9309  223.4218 H   0  0  0  0  0  0  0  0  0  0  0  0
  138.5696   68.3910  223.9043 H   0  0  0  0  0  0  0  0  0  0  0  0
  138.3888   70.6041  222.7746 H   0  0  0  0  0  0  0  0  0  0  0  0
  137.9953   70.8297  224.4893 H   0  0  0  0  0  0  0  0  0  0  0  0
  141.3281   70.6252  221.8316 H   0  0  0  0  0  0  0  0  0  0  0  0
  141.7520   71.9040  218.6300 H   0  0  0  0  0  0  0  0  0  0  0  0
  143.7146   71.1956  220.8523 H   0  0  0  0  0  0  0  0  0  0  0  0
  142.8755   69.1690  219.8180 H   0  0  0  0  0  0  0  0  0  0  0  0
  143.2182   69.8073  218.1790 H   0  0  0  0  0  0  0  0  0  0  0  0
  145.1735   69.0995  220.3836 H   0  0  0  0  0  0  0  0  0  0  0  0
  144.9983   68.3893  218.7055 H   0  0  0  0  0  0  0  0  0  0  0  0
  146.9887   69.8531  219.0168 H   0  0  0  0  0  0  0  0  0  0  0  0
  145.8532   70.3428  217.7024 H   0  0  0  0  0  0  0  0  0  0  0  0
  145.8150   71.4500  220.4350 H   0  0  0  0  0  0  0  0  0  0  0  0
  144.4080   73.1003  219.2109 H   0  0  0  0  0  0  0  0  0  0  0  0
  144.3856   71.8886  217.9078 H   0  0  0  0  0  0  0  0  0  0  0  0
  141.9052   76.2603  221.0356 H   0  0  0  0  0  0  0  0  0  0  0  0
  140.5473   77.2470  220.3903 H   0  0  0  0  0  0  0  0  0  0  0  0
  141.4507   77.1366  223.3186 H   0  0  0  0  0  0  0  0  0  0  0  0
  141.7796   78.4714  222.2015 H   0  0  0  0  0  0  0  0  0  0  0  0
  140.5478   80.0756  223.3509 H   0  0  0  0  0  0  0  0  0  0  0  0
  138.3079   81.0535  223.8248 H   0  0  0  0  0  0  0  0  0  0  0  0
  136.2733   79.7103  223.4249 H   0  0  0  0  0  0  0  0  0  0  0  0
  136.4424   77.3974  222.5570 H   0  0  0  0  0  0  0  0  0  0  0  0
  138.2519   75.3517  222.7123 H   0  0  0  0  0  0  0  0  0  0  0  0
  138.0374   75.9858  221.0281 H   0  0  0  0  0  0  0  0  0  0  0  0
  141.7206   71.6246  224.9851 H   0  0  0  0  0  0  0  0  0  0  0  0
  140.2782   72.4245  225.7263 H   0  0  0  0  0  0  0  0  0  0  0  0
  1  2  2  0
  2  3  1  0
  3  4  2  0
  4  5  1  0
  5  6  2  0
  5  7  1  0
  7  8  1  0
  8  9  1  0
  9 10  1  0
 10 11  2  0
 11 12  1  0
 12 13  1  0
 13 14  1  0
 14 15  1  0
 15 16  1  0
 16 17  1  0
 17 18  1  0
 18 19  1  0
 12 20  2  0
 20 21  1  0
 21 22  1  0
 22 23  1  0
 23 24  1  0
 24 25  1  0
 25 26  2  0
 26 27  1  0
 27 28  2  0
 28 29  1  0
 29 30  2  0
 30 31  1  0
 21 32  2  0
  9 33  1  0
  6  1  1  0
 32 10  1  0
 33  4  1  0
 19 14  1  0
 31 22  1  0
 30 25  1  0
  1 34  1  0
  2 35  1  0
  3 36  1  0
  6 37  1  0
  7 38  1  0
  7 39  1  0
  8 40  1  0
  8 41  1  0
 11 42  1  0
 13 43  1  0
 14 44  1  1
 15 45  1  0
 15 46  1  0
 16 47  1  0
 16 48  1  0
 17 49  1  0
 17 50  1  0
 18 51  1  0
 19 52  1  0
 19 53  1  0
 23 54  1  0
 23 55  1  0
 24 56  1  0
 24 57  1  0
 26 58  1  0
 27 59  1  0
 28 60  1  0
 29 61  1  0
 31 62  1  0
 31 63  1  0
 33 64  1  0
 33 65  1  0
M  END
>  <smiles>  (89) 
c1ccc2c(c1)CCN(c1cc(NC3CCCNC3)nc(N3CCc4ccccc4C3)n1)C2

>  <score_type>  (89) 
oracle

>  <origin>  (89) 
autodockgpu

>  <m_score__min__energy>  (89) 
-10.15

>  <m_primary>  (89) 
energy

>  <rmsd>  (89) 
8.514443835832655

>  <m_score__min__rmsd>  (89) 
8.514443835832655

>  <meeko>  (89) 
{"free_energy": -9.93, "intermolecular_energy": -11.12, "internal_energy": -0.94, "cluster_size": 41, "cluster_id": 1, "rank_in_cluster": 18}

>  <energy>  (89) 
-9.23

>  <cluster_rmsd>  (89) 
1.79

>  <cluster>  (89) 
1

$$$$

     RDKit          3D

 65 70  0  0  0  0  0  0  0  0999 V2000
  146.3170   68.7610  218.4460 C   0  0  0  0  0  0  0  0  0  0  0  0
  145.1640   68.0130  218.4580 C   0  0  0  0  0  0  0  0  0  0  0  0
  143.9580   68.5170  218.9030 C   0  0  0  0  0  0  0  0  0  0  0  0
  143.9440   69.8410  219.3520 C   0  0  0  0  0  0  0  0  0  0  0  0
  145.0990   70.5960  219.3420 C   0  0  0  0  0  0  0  0  0  0  0  0
  146.2930   70.0760  218.8930 C   0  0  0  0  0  0  0  0  0  0  0  0
  145.0600   72.0140  219.8270 C   0  0  0  0  0  0  0  0  0  0  0  0
  143.7370   72.5680  219.3360 C   0  0  0  0  0  0  0  0  0  0  0  0
  142.6950   71.8040  220.0150 N   0  0  0  0  0  0  0  0  0  0  0  0
  141.7620   72.4870  220.8410 C   0  0  0  0  0  0  0  0  0  0  0  0
  140.9830   71.7970  221.7470 C   0  0  0  0  0  0  0  0  0  0  0  0
  140.0640   72.4100  222.5720 C   0  0  0  0  0  0  0  0  0  0  0  0
  139.2560   71.7130  223.5070 N   0  0  0  0  0  0  0  0  0  0  0  0
  139.6620   70.4690  224.1300 C   0  0  1  0  0  0  0  0  0  0  0  0
  140.4000   70.6970  225.4320 C   0  0  0  0  0  0  0  0  0  0  0  0
  140.6560   69.3720  226.0810 C   0  0  0  0  0  0  0  0  0  0  0  0
  139.4450   68.4800  226.1500 C   0  0  0  0  0  0  0  0  0  0  0  0
  138.8310   68.3380  224.8200 N   0  0  0  0  0  0  0  0  0  0  0  0
  138.4090   69.6800  224.4640 C   0  0  0  0  0  0  0  0  0  0  0  0
  139.9630   73.7600  222.4460 N   0  0  0  0  0  0  0  0  0  0  0  0
  140.7190   74.4470  221.5640 C   0  0  0  0  0  0  0  0  0  0  0  0
  140.6220   75.8710  221.4230 N   0  0  0  0  0  0  0  0  0  0  0  0
  140.9230   76.5360  220.1700 C   0  0  0  0  0  0  0  0  0  0  0  0
  142.0670   77.5130  220.3700 C   0  0  0  0  0  0  0  0  0  0  0  0
  141.6060   78.4800  221.4170 C   0  0  0  0  0  0  0  0  0  0  0  0
  142.0950   79.7640  221.3140 C   0  0  0  0  0  0  0  0  0  0  0  0
  141.7010   80.6870  222.2530 C   0  0  0  0  0  0  0  0  0  0  0  0
  140.8420   80.3170  223.2600 C   0  0  0  0  0  0  0  0  0  0  0  0
  140.3660   79.0150  223.3390 C   0  0  0  0  0  0  0  0  0  0  0  0
  140.7440   78.0710  222.4130 C   0  0  0  0  0  0  0  0  0  0  0  0
  140.2150   76.6960  222.5320 C   0  0  0  0  0  0  0  0  0  0  0  0
  141.6150   73.8020  220.7670 N   0  0  0  0  0  0  0  0  0  0  0  0
  142.6360   70.3720  219.8290 C   0  0  0  0  0  0  0  0  0  0  0  0
  147.2568   68.3193  218.0832 H   0  0  0  0  0  0  0  0  0  0  0  0
  145.2035   66.9738  218.0996 H   0  0  0  0  0  0  0  0  0  0  0  0
  143.0458   67.9022  218.9042 H   0  0  0  0  0  0  0  0  0  0  0  0
  147.2068   70.6883  218.8886 H   0  0  0  0  0  0  0  0  0  0  0  0
  145.1078   72.0470  220.9255 H   0  0  0  0  0  0  0  0  0  0  0  0
  145.9136   72.5989  219.4538 H   0  0  0  0  0  0  0  0  0  0  0  0
  143.6533   73.6351  219.5897 H   0  0  0  0  0  0  0  0  0  0  0  0
  143.6483   72.4810  218.2430 H   0  0  0  0  0  0  0  0  0  0  0  0
  141.1008   70.7054  221.8143 H   0  0  0  0  0  0  0  0  0  0  0  0
  138.3190   72.1640  223.7280 H   0  0  0  0  0  0  0  0  0  0  0  0
  140.3274   69.9424  223.4300 H   0  0  0  0  0  0  0  0  0  0  0  0
  141.3568   71.2011  225.2311 H   0  0  0  0  0  0  0  0  0  0  0  0
  139.7945   71.3286  226.0987 H   0  0  0  0  0  0  0  0  0  0  0  0
  141.4371   68.8512  225.5077 H   0  0  0  0  0  0  0  0  0  0  0  0
  140.9587   69.5787  227.1181 H   0  0  0  0  0  0  0  0  0  0  0  0
  139.7470   67.4879  226.5168 H   0  0  0  0  0  0  0  0  0  0  0  0
  138.7106   68.9306  226.8338 H   0  0  0  0  0  0  0  0  0  0  0  0
  139.5740   68.0570  224.1530 H   0  0  0  0  0  0  0  0  0  0  0  0
  137.7407   69.6461  223.5909 H   0  0  0  0  0  0  0  0  0  0  0  0
  137.8600   70.1503  225.2931 H   0  0  0  0  0  0  0  0  0  0  0  0
  141.2100   75.7862  219.4181 H   0  0  0  0  0  0  0  0  0  0  0  0
  140.0331   77.0834  219.8257 H   0  0  0  0  0  0  0  0  0  0  0  0
  142.9681   76.9819  220.7105 H   0  0  0  0  0  0  0  0  0  0  0  0
  142.3261   78.0273  219.4328 H   0  0  0  0  0  0  0  0  0  0  0  0
  142.7824   80.0429  220.5018 H   0  0  0  0  0  0  0  0  0  0  0  0
  142.0728   81.7208  222.1986 H   0  0  0  0  0  0  0  0  0  0  0  0
  140.5289   81.0586  224.0097 H   0  0  0  0  0  0  0  0  0  0  0  0
  139.6789   78.7355  224.1513 H   0  0  0  0  0  0  0  0  0  0  0  0
  140.5894   76.2494  223.4649 H   0  0  0  0  0  0  0  0  0  0  0  0
  139.1163   76.7501  222.5343 H   0  0  0  0  0  0  0  0  0  0  0  0
  142.3820   69.8950  220.7871 H   0  0  0  0  0  0  0  0  0  0  0  0
  141.8699   70.1483  219.0720 H   0  0  0  0  0  0  0  0  0  0  0  0
  1  2  2  0
  2  3  1  0
  3  4  2  0
  4  5  1  0
  5  6  2  0
  5  7  1  0
  7  8  1  0
  8  9  1  0
  9 10  1  0
 10 11  2  0
 11 12  1  0
 12 13  1  0
 13 14  1  0
 14 15  1  0
 15 16  1  0
 16 17  1  0
 17 18  1  0
 18 19  1  0
 12 20  2  0
 20 21  1  0
 21 22  1  0
 22 23  1  0
 23 24  1  0
 24 25  1  0
 25 26  2  0
 26 27  1  0
 27 28  2  0
 28 29  1  0
 29 30  2  0
 30 31  1  0
 21 32  2  0
  9 33  1  0
  6  1  1  0
 32 10  1  0
 33  4  1  0
 19 14  1  0
 31 22  1  0
 30 25  1  0
  1 34  1  0
  2 35  1  0
  3 36  1  0
  6 37  1  0
  7 38  1  0
  7 39  1  0
  8 40  1  0
  8 41  1  0
 11 42  1  0
 13 43  1  0
 14 44  1  6
 15 45  1  0
 15 46  1  0
 16 47  1  0
 16 48  1  0
 17 49  1  0
 17 50  1  0
 18 51  1  0
 19 52  1  0
 19 53  1  0
 23 54  1  0
 23 55  1  0
 24 56  1  0
 24 57  1  0
 26 58  1  0
 27 59  1  0
 28 60  1  0
 29 61  1  0
 31 62  1  0
 31 63  1  0
 33 64  1  0
 33 65  1  0
M  END
>  <smiles>  (90) 
c1ccc2c(c1)CCN(c1cc(NC3CCCNC3)nc(N3CCc4ccccc4C3)n1)C2

>  <score_type>  (90) 
oracle

>  <origin>  (90) 
autodockgpu

>  <m_score__min__energy>  (90) 
-10.15

>  <m_primary>  (90) 
energy

>  <rmsd>  (90) 
9.238298458624106

>  <m_score__min__rmsd>  (90) 
9.238298458624106

>  <meeko>  (90) 
{"free_energy": -9.48, "intermolecular_energy": -10.68, "internal_energy": -1.0, "cluster_size": 4, "cluster_id": 3, "rank_in_cluster": 3}

>  <energy>  (90) 
-9.18

>  <cluster_rmsd>  (90) 
0.94

>  <cluster>  (90) 
1

$$$$

     RDKit          3D

 65 70  0  0  0  0  0  0  0  0999 V2000
  139.9180   68.6400  227.9090 C   0  0  0  0  0  0  0  0  0  0  0  0
  140.5400   69.8100  228.2780 C   0  0  0  0  0  0  0  0  0  0  0  0
  140.8110   70.8200  227.3780 C   0  0  0  0  0  0  0  0  0  0  0  0
  140.4260   70.6160  226.0500 C   0  0  0  0  0  0  0  0  0  0  0  0
  139.8020   69.4440  225.6740 C   0  0  0  0  0  0  0  0  0  0  0  0
  139.5390   68.4460  226.5870 C   0  0  0  0  0  0  0  0  0  0  0  0
  139.3980   69.2460  224.2440 C   0  0  0  0  0  0  0  0  0  0  0  0
  138.9030   70.6020  223.7780 C   0  0  0  0  0  0  0  0  0  0  0  0
  140.0550   71.4980  223.8280 N   0  0  0  0  0  0  0  0  0  0  0  0
  140.4880   72.1360  222.6340 C   0  0  0  0  0  0  0  0  0  0  0  0
  141.0620   71.4070  221.6130 C   0  0  0  0  0  0  0  0  0  0  0  0
  141.4980   71.9740  220.4350 C   0  0  0  0  0  0  0  0  0  0  0  0
  142.0910   71.2380  219.3770 N   0  0  0  0  0  0  0  0  0  0  0  0
  143.2730   71.6850  218.6680 C   0  0  1  0  0  0  0  0  0  0  0  0
  143.0920   73.0620  218.0660 C   0  0  0  0  0  0  0  0  0  0  0  0
  144.3950   73.5100  217.4800 C   0  0  0  0  0  0  0  0  0  0  0  0
  145.5720   73.3380  218.4030 C   0  0  0  0  0  0  0  0  0  0  0  0
  145.6350   71.9570  218.9100 N   0  0  0  0  0  0  0  0  0  0  0  0
  144.4100   71.7870  219.6690 C   0  0  0  0  0  0  0  0  0  0  0  0
  141.3310   73.3190  220.3280 N   0  0  0  0  0  0  0  0  0  0  0  0
  140.7710   74.0440  221.3190 C   0  0  0  0  0  0  0  0  0  0  0  0
  140.5880   75.4630  221.2170 N   0  0  0  0  0  0  0  0  0  0  0  0
  140.4450   76.1250  219.9350 C   0  0  0  0  0  0  0  0  0  0  0  0
  141.5600   77.1370  219.7530 C   0  0  0  0  0  0  0  0  0  0  0  0
  141.4350   78.1000  220.8930 C   0  0  0  0  0  0  0  0  0  0  0  0
  141.8220   79.3970  220.6370 C   0  0  0  0  0  0  0  0  0  0  0  0
  141.7260   80.3170  221.6540 C   0  0  0  0  0  0  0  0  0  0  0  0
  141.2520   79.9310  222.8850 C   0  0  0  0  0  0  0  0  0  0  0  0
  140.8690   78.6170  223.1140 C   0  0  0  0  0  0  0  0  0  0  0  0
  140.9550   77.6760  222.1140 C   0  0  0  0  0  0  0  0  0  0  0  0
  140.5370   76.2860  222.3990 C   0  0  0  0  0  0  0  0  0  0  0  0
  140.3530   73.4430  222.4680 N   0  0  0  0  0  0  0  0  0  0  0  0
  140.7250   71.7150  225.0890 C   0  0  0  0  0  0  0  0  0  0  0  0
  139.7212   67.8599  228.6591 H   0  0  0  0  0  0  0  0  0  0  0  0
  140.8322   69.9455  229.3298 H   0  0  0  0  0  0  0  0  0  0  0  0
  141.3100   71.7484  227.6929 H   0  0  0  0  0  0  0  0  0  0  0  0
  139.0400   67.5164  226.2758 H   0  0  0  0  0  0  0  0  0  0  0  0
  140.2593   68.9220  223.6413 H   0  0  0  0  0  0  0  0  0  0  0  0
  138.6266   68.4689  224.1390 H   0  0  0  0  0  0  0  0  0  0  0  0
  138.5176   70.5341  222.7500 H   0  0  0  0  0  0  0  0  0  0  0  0
  138.0834   70.9686  224.4136 H   0  0  0  0  0  0  0  0  0  0  0  0
  141.1772   70.3211  221.7456 H   0  0  0  0  0  0  0  0  0  0  0  0
  141.6090   70.3230  219.1300 H   0  0  0  0  0  0  0  0  0  0  0  0
  143.4736   70.9659  217.8601 H   0  0  0  0  0  0  0  0  0  0  0  0
  142.3265   73.0224  217.2771 H   0  0  0  0  0  0  0  0  0  0  0  0
  142.7703   73.7697  218.8442 H   0  0  0  0  0  0  0  0  0  0  0  0
  144.5829   72.9259  216.5670 H   0  0  0  0  0  0  0  0  0  0  0  0
  144.3010   74.5878  217.2809 H   0  0  0  0  0  0  0  0  0  0  0  0
  146.4980   73.5643  217.8541 H   0  0  0  0  0  0  0  0  0  0  0  0
  145.4578   74.0240  219.2553 H   0  0  0  0  0  0  0  0  0  0  0  0
  145.5890   71.3160  218.0950 H   0  0  0  0  0  0  0  0  0  0  0  0
  144.4647   70.8688  220.2723 H   0  0  0  0  0  0  0  0  0  0  0  0
  144.2535   72.6340  220.3532 H   0  0  0  0  0  0  0  0  0  0  0  0
  140.4955   75.3771  219.1300 H   0  0  0  0  0  0  0  0  0  0  0  0
  139.4750   76.6425  219.8993 H   0  0  0  0  0  0  0  0  0  0  0  0
  142.5389   76.6361  219.7816 H   0  0  0  0  0  0  0  0  0  0  0  0
  141.4837   77.6498  218.7828 H   0  0  0  0  0  0  0  0  0  0  0  0
  142.1979   79.6888  219.6452 H   0  0  0  0  0  0  0  0  0  0  0  0
  142.0282   81.3607  221.4828 H   0  0  0  0  0  0  0  0  0  0  0  0
  141.1755   80.6703  223.6959 H   0  0  0  0  0  0  0  0  0  0  0  0
  140.4927   78.3247  224.1054 H   0  0  0  0  0  0  0  0  0  0  0  0
  141.2082   75.8603  223.1594 H   0  0  0  0  0  0  0  0  0  0  0  0
  139.4978   76.3065  222.7590 H   0  0  0  0  0  0  0  0  0  0  0  0
  141.8106   71.7565  224.9168 H   0  0  0  0  0  0  0  0  0  0  0  0
  140.3657   72.6622  225.5177 H   0  0  0  0  0  0  0  0  0  0  0  0
  1  2  2  0
  2  3  1  0
  3  4  2  0
  4  5  1  0
  5  6  2  0
  5  7  1  0
  7  8  1  0
  8  9  1  0
  9 10  1  0
 10 11  2  0
 11 12  1  0
 12 13  1  0
 13 14  1  0
 14 15  1  0
 15 16  1  0
 16 17  1  0
 17 18  1  0
 18 19  1  0
 12 20  2  0
 20 21  1  0
 21 22  1  0
 22 23  1  0
 23 24  1  0
 24 25  1  0
 25 26  2  0
 26 27  1  0
 27 28  2  0
 28 29  1  0
 29 30  2  0
 30 31  1  0
 21 32  2  0
  9 33  1  0
  6  1  1  0
 32 10  1  0
 33  4  1  0
 19 14  1  0
 31 22  1  0
 30 25  1  0
  1 34  1  0
  2 35  1  0
  3 36  1  0
  6 37  1  0
  7 38  1  0
  7 39  1  0
  8 40  1  0
  8 41  1  0
 11 42  1  0
 13 43  1  0
 14 44  1  6
 15 45  1  0
 15 46  1  0
 16 47  1  0
 16 48  1  0
 17 49  1  0
 17 50  1  0
 18 51  1  0
 19 52  1  0
 19 53  1  0
 23 54  1  0
 23 55  1  0
 24 56  1  0
 24 57  1  0
 26 58  1  0
 27 59  1  0
 28 60  1  0
 29 61  1  0
 31 62  1  0
 31 63  1  0
 33 64  1  0
 33 65  1  0
M  END
>  <smiles>  (91) 
c1ccc2c(c1)CCN(c1cc(NC3CCCNC3)nc(N3CCc4ccccc4C3)n1)C2

>  <score_type>  (91) 
oracle

>  <origin>  (91) 
autodockgpu

>  <m_score__min__energy>  (91) 
-10.15

>  <m_primary>  (91) 
energy

>  <rmsd>  (91) 
7.090030203802396

>  <m_score__min__rmsd>  (91) 
7.090030203802396

>  <meeko>  (91) 
{"free_energy": -9.36, "intermolecular_energy": -10.55, "internal_energy": -1.13, "cluster_size": 41, "cluster_id": 1, "rank_in_cluster": 37}

>  <energy>  (91) 
-8.83

>  <cluster_rmsd>  (91) 
1.12

>  <cluster>  (91) 
1

$$$$

     RDKit          3D

 65 70  0  0  0  0  0  0  0  0999 V2000
  139.8500   67.7950  226.9110 C   0  0  0  0  0  0  0  0  0  0  0  0
  140.5050   68.8230  227.5480 C   0  0  0  0  0  0  0  0  0  0  0  0
  140.7620   70.0310  226.9320 C   0  0  0  0  0  0  0  0  0  0  0  0
  140.3270   70.1840  225.6130 C   0  0  0  0  0  0  0  0  0  0  0  0
  139.6700   69.1550  224.9690 C   0  0  0  0  0  0  0  0  0  0  0  0
  139.4210   67.9550  225.5990 C   0  0  0  0  0  0  0  0  0  0  0  0
  139.2120   69.3400  223.5530 C   0  0  0  0  0  0  0  0  0  0  0  0
  138.7260   70.7740  223.4760 C   0  0  0  0  0  0  0  0  0  0  0  0
  139.8940   71.6180  223.7130 N   0  0  0  0  0  0  0  0  0  0  0  0
  140.2960   72.5410  222.7110 C   0  0  0  0  0  0  0  0  0  0  0  0
  141.2120   72.1800  221.7440 C   0  0  0  0  0  0  0  0  0  0  0  0
  141.6360   73.0350  220.7500 C   0  0  0  0  0  0  0  0  0  0  0  0
  142.5770   72.6780  219.7500 N   0  0  0  0  0  0  0  0  0  0  0  0
  143.8630   73.3300  219.6070 C   0  0  1  0  0  0  0  0  0  0  0  0
  144.4770   73.6840  220.9440 C   0  0  0  0  0  0  0  0  0  0  0  0
  145.8570   74.2180  220.7180 C   0  0  0  0  0  0  0  0  0  0  0  0
  146.6990   73.3690  219.8040 C   0  0  0  0  0  0  0  0  0  0  0  0
  145.9910   73.1070  218.5410 N   0  0  0  0  0  0  0  0  0  0  0  0
  144.8110   72.3560  218.9300 C   0  0  0  0  0  0  0  0  0  0  0  0
  141.0930   74.2820  220.7690 N   0  0  0  0  0  0  0  0  0  0  0  0
  140.1950   74.6480  221.7090 C   0  0  0  0  0  0  0  0  0  0  0  0
  139.6150   75.9590  221.7400 N   0  0  0  0  0  0  0  0  0  0  0  0
  140.3930   77.1460  221.4410 C   0  0  0  0  0  0  0  0  0  0  0  0
  140.3960   78.0730  222.6420 C   0  0  0  0  0  0  0  0  0  0  0  0
  138.9600   78.4020  222.9140 C   0  0  0  0  0  0  0  0  0  0  0  0
  138.7140   79.6510  223.4430 C   0  0  0  0  0  0  0  0  0  0  0  0
  137.4110   79.9980  223.7100 C   0  0  0  0  0  0  0  0  0  0  0  0
  136.3970   79.1080  223.4470 C   0  0  0  0  0  0  0  0  0  0  0  0
  136.6750   77.8570  222.9140 C   0  0  0  0  0  0  0  0  0  0  0  0
  137.9700   77.4840  222.6370 C   0  0  0  0  0  0  0  0  0  0  0  0
  138.2250   76.1420  222.0700 C   0  0  0  0  0  0  0  0  0  0  0  0
  139.8040   73.7710  222.6740 N   0  0  0  0  0  0  0  0  0  0  0  0
  140.6120   71.4930  224.9600 C   0  0  0  0  0  0  0  0  0  0  0  0
  139.6661   66.8478  227.4392 H   0  0  0  0  0  0  0  0  0  0  0  0
  140.8363   68.6770  228.5867 H   0  0  0  0  0  0  0  0  0  0  0  0
  141.2882   70.8410  227.4584 H   0  0  0  0  0  0  0  0  0  0  0  0
  138.8951   67.1429  225.0757 H   0  0  0  0  0  0  0  0  0  0  0  0
  140.0454   69.1772  222.8537 H   0  0  0  0  0  0  0  0  0  0  0  0
  138.4234   68.6236  223.2793 H   0  0  0  0  0  0  0  0  0  0  0  0
  138.3034   70.9797  222.4815 H   0  0  0  0  0  0  0  0  0  0  0  0
  137.9366   70.9680  224.2170 H   0  0  0  0  0  0  0  0  0  0  0  0
  141.6237   71.1602  221.7679 H   0  0  0  0  0  0  0  0  0  0  0  0
  142.2800   71.8890  219.1020 H   0  0  0  0  0  0  0  0  0  0  0  0
  143.7095   74.2535  219.0293 H   0  0  0  0  0  0  0  0  0  0  0  0
  143.8623   74.4484  221.4418 H   0  0  0  0  0  0  0  0  0  0  0  0
  144.5237   72.7886  221.5813 H   0  0  0  0  0  0  0  0  0  0  0  0
  145.7716   75.2219  220.2766 H   0  0  0  0  0  0  0  0  0  0  0  0
  146.3592   74.2273  221.6966 H   0  0  0  0  0  0  0  0  0  0  0  0
  147.6407   73.8949  219.5880 H   0  0  0  0  0  0  0  0  0  0  0  0
  146.9040   72.4093  220.3009 H   0  0  0  0  0  0  0  0  0  0  0  0
  145.6700   74.0180  218.1610 H   0  0  0  0  0  0  0  0  0  0  0  0
  144.3318   71.9196  218.0412 H   0  0  0  0  0  0  0  0  0  0  0  0
  145.0777   71.5336  219.6100 H   0  0  0  0  0  0  0  0  0  0  0  0
  141.4264   76.8549  221.2015 H   0  0  0  0  0  0  0  0  0  0  0  0
  139.9465   77.6665  220.5809 H   0  0  0  0  0  0  0  0  0  0  0  0
  140.8442   77.5702  223.5117 H   0  0  0  0  0  0  0  0  0  0  0  0
  140.9874   78.9802  222.4490 H   0  0  0  0  0  0  0  0  0  0  0  0
  139.5380   80.3509  223.6459 H   0  0  0  0  0  0  0  0  0  0  0  0
  137.1800   80.9866  224.1336 H   0  0  0  0  0  0  0  0  0  0  0  0
  135.3555   79.3899  223.6610 H   0  0  0  0  0  0  0  0  0  0  0  0
  135.8515   77.1566  222.7110 H   0  0  0  0  0  0  0  0  0  0  0  0
  137.9306   75.3813  222.8080 H   0  0  0  0  0  0  0  0  0  0  0  0
  137.6369   76.0426  221.1457 H   0  0  0  0  0  0  0  0  0  0  0  0
  141.6915   71.5687  224.7624 H   0  0  0  0  0  0  0  0  0  0  0  0
  140.2855   72.2987  225.6340 H   0  0  0  0  0  0  0  0  0  0  0  0
  1  2  2  0
  2  3  1  0
  3  4  2  0
  4  5  1  0
  5  6  2  0
  5  7  1  0
  7  8  1  0
  8  9  1  0
  9 10  1  0
 10 11  2  0
 11 12  1  0
 12 13  1  0
 13 14  1  0
 14 15  1  0
 15 16  1  0
 16 17  1  0
 17 18  1  0
 18 19  1  0
 12 20  2  0
 20 21  1  0
 21 22  1  0
 22 23  1  0
 23 24  1  0
 24 25  1  0
 25 26  2  0
 26 27  1  0
 27 28  2  0
 28 29  1  0
 29 30  2  0
 30 31  1  0
 21 32  2  0
  9 33  1  0
  6  1  1  0
 32 10  1  0
 33  4  1  0
 19 14  1  0
 31 22  1  0
 30 25  1  0
  1 34  1  0
  2 35  1  0
  3 36  1  0
  6 37  1  0
  7 38  1  0
  7 39  1  0
  8 40  1  0
  8 41  1  0
 11 42  1  0
 13 43  1  0
 14 44  1  6
 15 45  1  0
 15 46  1  0
 16 47  1  0
 16 48  1  0
 17 49  1  0
 17 50  1  0
 18 51  1  0
 19 52  1  0
 19 53  1  0
 23 54  1  0
 23 55  1  0
 24 56  1  0
 24 57  1  0
 26 58  1  0
 27 59  1  0
 28 60  1  0
 29 61  1  0
 31 62  1  0
 31 63  1  0
 33 64  1  0
 33 65  1  0
M  END
>  <smiles>  (92) 
c1ccc2c(c1)CCN(c1cc(NC3CCCNC3)nc(N3CCc4ccccc4C3)n1)C2

>  <score_type>  (92) 
oracle

>  <origin>  (92) 
autodockgpu

>  <m_score__min__energy>  (92) 
-10.15

>  <m_primary>  (92) 
energy

>  <rmsd>  (92) 
6.395100291781769

>  <m_score__min__rmsd>  (92) 
6.395100291781769

>  <meeko>  (92) 
{"free_energy": -9.84, "intermolecular_energy": -11.04, "internal_energy": -1.04, "cluster_size": 5, "cluster_id": 2, "rank_in_cluster": 1}

>  <energy>  (92) 
-9.84

>  <cluster_rmsd>  (92) 
0.0

>  <cluster>  (92) 
2

$$$$

     RDKit          3D

 65 70  0  0  0  0  0  0  0  0999 V2000
  139.9890   68.1500  227.7350 C   0  0  0  0  0  0  0  0  0  0  0  0
  140.5950   69.2920  228.2040 C   0  0  0  0  0  0  0  0  0  0  0  0
  140.8180   70.3940  227.4030 C   0  0  0  0  0  0  0  0  0  0  0  0
  140.3990   70.3140  226.0720 C   0  0  0  0  0  0  0  0  0  0  0  0
  139.7900   69.1710  225.5960 C   0  0  0  0  0  0  0  0  0  0  0  0
  139.5760   68.0800  226.4110 C   0  0  0  0  0  0  0  0  0  0  0  0
  139.3490   69.1070  224.1650 C   0  0  0  0  0  0  0  0  0  0  0  0
  138.8120   70.4890  223.8510 C   0  0  0  0  0  0  0  0  0  0  0  0
  139.9440   71.4050  223.9600 N   0  0  0  0  0  0  0  0  0  0  0  0
  140.3280   72.1690  222.8260 C   0  0  0  0  0  0  0  0  0  0  0  0
  141.0520   71.5960  221.8000 C   0  0  0  0  0  0  0  0  0  0  0  0
  141.4490   72.2910  220.6780 C   0  0  0  0  0  0  0  0  0  0  0  0
  142.1930   71.7150  219.6170 N   0  0  0  0  0  0  0  0  0  0  0  0
  143.5140   71.1460  219.7960 C   0  0  1  0  0  0  0  0  0  0  0  0
  143.6120   69.7420  219.2390 C   0  0  0  0  0  0  0  0  0  0  0  0
  145.0340   69.2810  219.3320 C   0  0  0  0  0  0  0  0  0  0  0  0
  146.0340   70.2760  218.8060 C   0  0  0  0  0  0  0  0  0  0  0  0
  145.8340   71.5930  219.4340 N   0  0  0  0  0  0  0  0  0  0  0  0
  144.5030   71.9990  219.0210 C   0  0  0  0  0  0  0  0  0  0  0  0
  141.0840   73.5990  220.6310 N   0  0  0  0  0  0  0  0  0  0  0  0
  140.3760   74.1720  221.6270 C   0  0  0  0  0  0  0  0  0  0  0  0
  139.9840   75.5510  221.5890 N   0  0  0  0  0  0  0  0  0  0  0  0
  140.9120   76.5990  221.2110 C   0  0  0  0  0  0  0  0  0  0  0  0
  141.0690   77.5830  222.3560 C   0  0  0  0  0  0  0  0  0  0  0  0
  139.6990   78.1240  222.6270 C   0  0  0  0  0  0  0  0  0  0  0  0
  139.6400   79.4220  223.0860 C   0  0  0  0  0  0  0  0  0  0  0  0
  138.4040   79.9620  223.3490 C   0  0  0  0  0  0  0  0  0  0  0  0
  137.2700   79.2090  223.1530 C   0  0  0  0  0  0  0  0  0  0  0  0
  137.3610   77.9040  222.6900 C   0  0  0  0  0  0  0  0  0  0  0  0
  138.5850   77.3390  222.4180 C   0  0  0  0  0  0  0  0  0  0  0  0
  138.6390   75.9450  221.9270 C   0  0  0  0  0  0  0  0  0  0  0  0
  140.0030   73.4490  222.7200 N   0  0  0  0  0  0  0  0  0  0  0  0
  140.6460   71.5110  225.2190 C   0  0  0  0  0  0  0  0  0  0  0  0
  139.8317   67.2937  228.4073 H   0  0  0  0  0  0  0  0  0  0  0  0
  140.9138   69.3287  229.2562 H   0  0  0  0  0  0  0  0  0  0  0  0
  141.3056   71.2982  227.7962 H   0  0  0  0  0  0  0  0  0  0  0  0
  139.0889   67.1740  226.0212 H   0  0  0  0  0  0  0  0  0  0  0  0
  140.1992   68.8658  223.5100 H   0  0  0  0  0  0  0  0  0  0  0  0
  138.5917   68.3258  224.0033 H   0  0  0  0  0  0  0  0  0  0  0  0
  138.3988   70.5142  222.8319 H   0  0  0  0  0  0  0  0  0  0  0  0
  138.0036   70.7696  224.5422 H   0  0  0  0  0  0  0  0  0  0  0  0
  141.3253   70.5336  221.8818 H   0  0  0  0  0  0  0  0  0  0  0  0
  141.7180   71.7240  218.6660 H   0  0  0  0  0  0  0  0  0  0  0  0
  143.7246   71.1173  220.8753 H   0  0  0  0  0  0  0  0  0  0  0  0
  142.9665   69.0679  219.8212 H   0  0  0  0  0  0  0  0  0  0  0  0
  143.2858   69.7343  218.1885 H   0  0  0  0  0  0  0  0  0  0  0  0
  145.2655   69.0833  220.3890 H   0  0  0  0  0  0  0  0  0  0  0  0
  145.1193   68.3811  218.7052 H   0  0  0  0  0  0  0  0  0  0  0  0
  147.0504   69.9196  219.0293 H   0  0  0  0  0  0  0  0  0  0  0  0
  145.8963   70.3766  217.7193 H   0  0  0  0  0  0  0  0  0  0  0  0
  145.8140   71.4560  220.4620 H   0  0  0  0  0  0  0  0  0  0  0  0
  144.3448   73.0629  219.2512 H   0  0  0  0  0  0  0  0  0  0  0  0
  144.3714   71.8632  217.9374 H   0  0  0  0  0  0  0  0  0  0  0  0
  141.8898   76.1536  220.9753 H   0  0  0  0  0  0  0  0  0  0  0  0
  140.5235   77.1276  220.3280 H   0  0  0  0  0  0  0  0  0  0  0  0
  141.4614   77.0722  223.2477 H   0  0  0  0  0  0  0  0  0  0  0  0
  141.7763   78.3864  222.1024 H   0  0  0  0  0  0  0  0  0  0  0  0
  140.5573   80.0099  223.2377 H   0  0  0  0  0  0  0  0  0  0  0  0
  138.3217   80.9957  223.7160 H   0  0  0  0  0  0  0  0  0  0  0  0
  136.2825   79.6448  223.3650 H   0  0  0  0  0  0  0  0  0  0  0  0
  136.4443   77.3151  222.5389 H   0  0  0  0  0  0  0  0  0  0  0  0
  138.2579   75.2754  222.7121 H   0  0  0  0  0  0  0  0  0  0  0  0
  138.0229   75.8772  221.0182 H   0  0  0  0  0  0  0  0  0  0  0  0
  141.7250   71.5962  225.0229 H   0  0  0  0  0  0  0  0  0  0  0  0
  140.2788   72.4013  225.7505 H   0  0  0  0  0  0  0  0  0  0  0  0
  1  2  2  0
  2  3  1  0
  3  4  2  0
  4  5  1  0
  5  6  2  0
  5  7  1  0
  7  8  1  0
  8  9  1  0
  9 10  1  0
 10 11  2  0
 11 12  1  0
 12 13  1  0
 13 14  1  0
 14 15  1  0
 15 16  1  0
 16 17  1  0
 17 18  1  0
 18 19  1  0
 12 20  2  0
 20 21  1  0
 21 22  1  0
 22 23  1  0
 23 24  1  0
 24 25  1  0
 25 26  2  0
 26 27  1  0
 27 28  2  0
 28 29  1  0
 29 30  2  0
 30 31  1  0
 21 32  2  0
  9 33  1  0
  6  1  1  0
 32 10  1  0
 33  4  1  0
 19 14  1  0
 31 22  1  0
 30 25  1  0
  1 34  1  0
  2 35  1  0
  3 36  1  0
  6 37  1  0
  7 38  1  0
  7 39  1  0
  8 40  1  0
  8 41  1  0
 11 42  1  0
 13 43  1  0
 14 44  1  1
 15 45  1  0
 15 46  1  0
 16 47  1  0
 16 48  1  0
 17 49  1  0
 17 50  1  0
 18 51  1  0
 19 52  1  0
 19 53  1  0
 23 54  1  0
 23 55  1  0
 24 56  1  0
 24 57  1  0
 26 58  1  0
 27 59  1  0
 28 60  1  0
 29 61  1  0
 31 62  1  0
 31 63  1  0
 33 64  1  0
 33 65  1  0
M  END
>  <smiles>  (93) 
c1ccc2c(c1)CCN(c1cc(NC3CCCNC3)nc(N3CCc4ccccc4C3)n1)C2

>  <score_type>  (93) 
oracle

>  <origin>  (93) 
autodockgpu

>  <m_score__min__energy>  (93) 
-10.15

>  <m_primary>  (93) 
energy

>  <rmsd>  (93) 
8.555476402765487

>  <m_score__min__rmsd>  (93) 
8.555476402765487

>  <meeko>  (93) 
{"free_energy": -9.93, "intermolecular_energy": -11.13, "internal_energy": -0.94, "cluster_size": 41, "cluster_id": 1, "rank_in_cluster": 17}

>  <energy>  (93) 
-9.8

>  <cluster_rmsd>  (93) 
0.1

>  <cluster>  (93) 
2

$$$$

     RDKit          3D

 65 70  0  0  0  0  0  0  0  0999 V2000
  139.6940   68.6090  227.7490 C   0  0  0  0  0  0  0  0  0  0  0  0
  140.3550   69.7400  228.1680 C   0  0  0  0  0  0  0  0  0  0  0  0
  140.6910   70.7630  227.3050 C   0  0  0  0  0  0  0  0  0  0  0  0
  140.3310   70.6140  225.9630 C   0  0  0  0  0  0  0  0  0  0  0  0
  139.6680   69.4810  225.5370 C   0  0  0  0  0  0  0  0  0  0  0  0
  139.3400   68.4690  226.4130 C   0  0  0  0  0  0  0  0  0  0  0  0
  139.2910   69.3420  224.0930 C   0  0  0  0  0  0  0  0  0  0  0  0
  138.8660   70.7300  223.6560 C   0  0  0  0  0  0  0  0  0  0  0  0
  140.0530   71.5750  223.7590 N   0  0  0  0  0  0  0  0  0  0  0  0
  140.5420   72.2270  222.5960 C   0  0  0  0  0  0  0  0  0  0  0  0
  141.1980   71.5170  221.6110 C   0  0  0  0  0  0  0  0  0  0  0  0
  141.6920   72.0990  220.4630 C   0  0  0  0  0  0  0  0  0  0  0  0
  142.3680   71.3820  219.4440 N   0  0  0  0  0  0  0  0  0  0  0  0
  143.6890   70.8130  219.6220 C   0  0  1  0  0  0  0  0  0  0  0  0
  143.7680   69.3860  219.1250 C   0  0  0  0  0  0  0  0  0  0  0  0
  145.1890   68.9210  219.2090 C   0  0  0  0  0  0  0  0  0  0  0  0
  146.1840   69.8860  218.6210 C   0  0  0  0  0  0  0  0  0  0  0  0
  146.0040   71.2290  219.1940 N   0  0  0  0  0  0  0  0  0  0  0  0
  144.6670   71.6250  218.7910 C   0  0  0  0  0  0  0  0  0  0  0  0
  141.4950   73.4390  220.3470 N   0  0  0  0  0  0  0  0  0  0  0  0
  140.8540   74.1460  221.3020 C   0  0  0  0  0  0  0  0  0  0  0  0
  140.6400   75.5590  221.1910 N   0  0  0  0  0  0  0  0  0  0  0  0
  140.8200   76.2630  219.9360 C   0  0  0  0  0  0  0  0  0  0  0  0
  141.8940   77.3230  220.0910 C   0  0  0  0  0  0  0  0  0  0  0  0
  141.4190   78.2370  221.1780 C   0  0  0  0  0  0  0  0  0  0  0  0
  141.8000   79.5570  221.0710 C   0  0  0  0  0  0  0  0  0  0  0  0
  141.3890   80.4340  222.0460 C   0  0  0  0  0  0  0  0  0  0  0  0
  140.6170   79.9840  223.0910 C   0  0  0  0  0  0  0  0  0  0  0  0
  140.2480   78.6490  223.1730 C   0  0  0  0  0  0  0  0  0  0  0  0
  140.6460   77.7500  222.2110 C   0  0  0  0  0  0  0  0  0  0  0  0
  140.2320   76.3350  222.3350 C   0  0  0  0  0  0  0  0  0  0  0  0
  140.3820   73.5300  222.4220 N   0  0  0  0  0  0  0  0  0  0  0  0
  140.7000   71.7270  225.0420 C   0  0  0  0  0  0  0  0  0  0  0  0
  139.4461   67.8166  228.4706 H   0  0  0  0  0  0  0  0  0  0  0  0
  140.6258   69.8325  229.2301 H   0  0  0  0  0  0  0  0  0  0  0  0
  141.2208   71.6596  227.6591 H   0  0  0  0  0  0  0  0  0  0  0  0
  138.8101   67.5711  226.0624 H   0  0  0  0  0  0  0  0  0  0  0  0
  140.1522   68.9984  223.5012 H   0  0  0  0  0  0  0  0  0  0  0  0
  138.4898   68.6025  223.9473 H   0  0  0  0  0  0  0  0  0  0  0  0
  138.5035   70.7078  222.6177 H   0  0  0  0  0  0  0  0  0  0  0  0
  138.0476   71.1130  224.2833 H   0  0  0  0  0  0  0  0  0  0  0  0
  141.3333   70.4341  221.7486 H   0  0  0  0  0  0  0  0  0  0  0  0
  141.8410   71.2840  218.5250 H   0  0  0  0  0  0  0  0  0  0  0  0
  143.9208   70.8300  220.6972 H   0  0  0  0  0  0  0  0  0  0  0  0
  143.1312   68.7418  219.7491 H   0  0  0  0  0  0  0  0  0  0  0  0
  143.4201   69.3346  218.0827 H   0  0  0  0  0  0  0  0  0  0  0  0
  145.4407   68.7672  220.2687 H   0  0  0  0  0  0  0  0  0  0  0  0
  145.2566   67.9949  218.6193 H   0  0  0  0  0  0  0  0  0  0  0  0
  147.2026   69.5331  218.8400 H   0  0  0  0  0  0  0  0  0  0  0  0
  146.0254   69.9402  217.5338 H   0  0  0  0  0  0  0  0  0  0  0  0
  146.0040   71.1380  220.2280 H   0  0  0  0  0  0  0  0  0  0  0  0
  144.5195   72.6989  218.9779 H   0  0  0  0  0  0  0  0  0  0  0  0
  144.5126   71.4428  217.7172 H   0  0  0  0  0  0  0  0  0  0  0  0
  141.1222   75.5482  219.1564 H   0  0  0  0  0  0  0  0  0  0  0  0
  139.8730   76.7444  219.6505 H   0  0  0  0  0  0  0  0  0  0  0  0
  142.8508   76.8592  220.3727 H   0  0  0  0  0  0  0  0  0  0  0  0
  142.0601   77.8684  219.1503 H   0  0  0  0  0  0  0  0  0  0  0  0
  142.4170   79.8997  220.2273 H   0  0  0  0  0  0  0  0  0  0  0  0
  141.6772   81.4941  221.9905 H   0  0  0  0  0  0  0  0  0  0  0  0
  140.2889   80.6889  223.8692 H   0  0  0  0  0  0  0  0  0  0  0  0
  139.6306   78.3059  224.0163 H   0  0  0  0  0  0  0  0  0  0  0  0
  140.6909   75.9070  223.2384 H   0  0  0  0  0  0  0  0  0  0  0  0
  139.1343   76.3027  222.3980 H   0  0  0  0  0  0  0  0  0  0  0  0
  141.7904   71.7271  224.8970 H   0  0  0  0  0  0  0  0  0  0  0  0
  140.3701   72.6759  225.4900 H   0  0  0  0  0  0  0  0  0  0  0  0
  1  2  2  0
  2  3  1  0
  3  4  2  0
  4  5  1  0
  5  6  2  0
  5  7  1  0
  7  8  1  0
  8  9  1  0
  9 10  1  0
 10 11  2  0
 11 12  1  0
 12 13  1  0
 13 14  1  0
 14 15  1  0
 15 16  1  0
 16 17  1  0
 17 18  1  0
 18 19  1  0
 12 20  2  0
 20 21  1  0
 21 22  1  0
 22 23  1  0
 23 24  1  0
 24 25  1  0
 25 26  2  0
 26 27  1  0
 27 28  2  0
 28 29  1  0
 29 30  2  0
 30 31  1  0
 21 32  2  0
  9 33  1  0
  6  1  1  0
 32 10  1  0
 33  4  1  0
 19 14  1  0
 31 22  1  0
 30 25  1  0
  1 34  1  0
  2 35  1  0
  3 36  1  0
  6 37  1  0
  7 38  1  0
  7 39  1  0
  8 40  1  0
  8 41  1  0
 11 42  1  0
 13 43  1  0
 14 44  1  1
 15 45  1  0
 15 46  1  0
 16 47  1  0
 16 48  1  0
 17 49  1  0
 17 50  1  0
 18 51  1  0
 19 52  1  0
 19 53  1  0
 23 54  1  0
 23 55  1  0
 24 56  1  0
 24 57  1  0
 26 58  1  0
 27 59  1  0
 28 60  1  0
 29 61  1  0
 31 62  1  0
 31 63  1  0
 33 64  1  0
 33 65  1  0
M  END
>  <smiles>  (94) 
c1ccc2c(c1)CCN(c1cc(NC3CCCNC3)nc(N3CCc4ccccc4C3)n1)C2

>  <score_type>  (94) 
oracle

>  <origin>  (94) 
autodockgpu

>  <m_score__min__energy>  (94) 
-10.15

>  <m_primary>  (94) 
energy

>  <rmsd>  (94) 
8.867661070596933

>  <m_score__min__rmsd>  (94) 
8.867661070596933

>  <meeko>  (94) 
{"free_energy": -10.06, "intermolecular_energy": -11.25, "internal_energy": -0.93, "cluster_size": 41, "cluster_id": 1, "rank_in_cluster": 12}

>  <energy>  (94) 
-9.74

>  <cluster_rmsd>  (94) 
0.23

>  <cluster>  (94) 
2

$$$$

     RDKit          3D

 65 70  0  0  0  0  0  0  0  0999 V2000
  139.6160   68.5200  227.4540 C   0  0  0  0  0  0  0  0  0  0  0  0
  140.2730   69.6260  227.9400 C   0  0  0  0  0  0  0  0  0  0  0  0
  140.6470   70.6790  227.1300 C   0  0  0  0  0  0  0  0  0  0  0  0
  140.3320   70.5880  225.7720 C   0  0  0  0  0  0  0  0  0  0  0  0
  139.6740   69.4790  225.2790 C   0  0  0  0  0  0  0  0  0  0  0  0
  139.3070   68.4370  226.1020 C   0  0  0  0  0  0  0  0  0  0  0  0
  139.3450   69.4010  223.8180 C   0  0  0  0  0  0  0  0  0  0  0  0
  138.9480   70.8100  223.4230 C   0  0  0  0  0  0  0  0  0  0  0  0
  140.1380   71.6370  223.6000 N   0  0  0  0  0  0  0  0  0  0  0  0
  140.6720   72.3300  222.4810 C   0  0  0  0  0  0  0  0  0  0  0  0
  141.3790   71.6570  221.5050 C   0  0  0  0  0  0  0  0  0  0  0  0
  141.9180   72.2800  220.3990 C   0  0  0  0  0  0  0  0  0  0  0  0
  142.6460   71.6010  219.3900 N   0  0  0  0  0  0  0  0  0  0  0  0
  143.8830   70.8920  219.6490 C   0  0  1  0  0  0  0  0  0  0  0  0
  143.8290   69.4560  219.1750 C   0  0  0  0  0  0  0  0  0  0  0  0
  145.1820   68.8370  219.3460 C   0  0  0  0  0  0  0  0  0  0  0  0
  146.3090   69.6740  218.8030 C   0  0  0  0  0  0  0  0  0  0  0  0
  146.2500   71.0400  219.3490 N   0  0  0  0  0  0  0  0  0  0  0  0
  144.9900   71.5750  218.8650 C   0  0  0  0  0  0  0  0  0  0  0  0
  141.7130   73.6220  220.3170 N   0  0  0  0  0  0  0  0  0  0  0  0
  141.0240   74.2920  221.2640 C   0  0  0  0  0  0  0  0  0  0  0  0
  140.8000   75.7060  221.1870 N   0  0  0  0  0  0  0  0  0  0  0  0
  141.0280   76.4510  219.9640 C   0  0  0  0  0  0  0  0  0  0  0  0
  142.0840   77.5140  220.1990 C   0  0  0  0  0  0  0  0  0  0  0  0
  141.5530   78.3890  221.2920 C   0  0  0  0  0  0  0  0  0  0  0  0
  141.9260   79.7150  221.2430 C   0  0  0  0  0  0  0  0  0  0  0  0
  141.4640   80.5570  222.2260 C   0  0  0  0  0  0  0  0  0  0  0  0
  140.6520   80.0690  223.2210 C   0  0  0  0  0  0  0  0  0  0  0  0
  140.2930   78.7290  223.2460 C   0  0  0  0  0  0  0  0  0  0  0  0
  140.7410   77.8630  222.2740 C   0  0  0  0  0  0  0  0  0  0  0  0
  140.3360   76.4420  222.3360 C   0  0  0  0  0  0  0  0  0  0  0  0
  140.5080   73.6370  222.3410 N   0  0  0  0  0  0  0  0  0  0  0  0
  140.7420   71.7320  224.9090 C   0  0  0  0  0  0  0  0  0  0  0  0
  139.3356   67.7025  228.1345 H   0  0  0  0  0  0  0  0  0  0  0  0
  140.5090   69.6731  229.0133 H   0  0  0  0  0  0  0  0  0  0  0  0
  141.1724   71.5553  227.5376 H   0  0  0  0  0  0  0  0  0  0  0  0
  138.7813   67.5593  225.6979 H   0  0  0  0  0  0  0  0  0  0  0  0
  140.2226   69.0720  223.2422 H   0  0  0  0  0  0  0  0  0  0  0  0
  138.5425   68.6763  223.6158 H   0  0  0  0  0  0  0  0  0  0  0  0
  138.6211   70.8332  222.3730 H   0  0  0  0  0  0  0  0  0  0  0  0
  138.1121   71.1764  224.0371 H   0  0  0  0  0  0  0  0  0  0  0  0
  141.5192   70.5715  221.6147 H   0  0  0  0  0  0  0  0  0  0  0  0
  142.2250   71.6430  218.4140 H   0  0  0  0  0  0  0  0  0  0  0  0
  144.0558   70.9028  220.7353 H   0  0  0  0  0  0  0  0  0  0  0  0
  143.0902   68.8985  219.7695 H   0  0  0  0  0  0  0  0  0  0  0  0
  143.5361   69.4243  218.1152 H   0  0  0  0  0  0  0  0  0  0  0  0
  145.3562   68.6766  220.4202 H   0  0  0  0  0  0  0  0  0  0  0  0
  145.1778   67.8975  218.7738 H   0  0  0  0  0  0  0  0  0  0  0  0
  147.2682   69.2140  219.0828 H   0  0  0  0  0  0  0  0  0  0  0  0
  146.2166   69.7256  217.7081 H   0  0  0  0  0  0  0  0  0  0  0  0
  146.1830   70.9680  220.3820 H   0  0  0  0  0  0  0  0  0  0  0  0
  144.9536   72.6619  219.0300 H   0  0  0  0  0  0  0  0  0  0  0  0
  144.8758   71.3916  217.7864 H   0  0  0  0  0  0  0  0  0  0  0  0
  141.3706   75.7638  219.1763 H   0  0  0  0  0  0  0  0  0  0  0  0
  140.0899   76.9337  219.6526 H   0  0  0  0  0  0  0  0  0  0  0  0
  143.0319   77.0493  220.5080 H   0  0  0  0  0  0  0  0  0  0  0  0
  142.2862   78.0902  219.2841 H   0  0  0  0  0  0  0  0  0  0  0  0
  142.5761   80.0893  220.4385 H   0  0  0  0  0  0  0  0  0  0  0  0
  141.7441   81.6207  222.2162 H   0  0  0  0  0  0  0  0  0  0  0  0
  140.2831   80.7468  224.0049 H   0  0  0  0  0  0  0  0  0  0  0  0
  139.6435   78.3546  224.0510 H   0  0  0  0  0  0  0  0  0  0  0  0
  140.7601   75.9895  223.2445 H   0  0  0  0  0  0  0  0  0  0  0  0
  139.2370   76.3985  222.3508 H   0  0  0  0  0  0  0  0  0  0  0  0
  141.8367   71.7266  224.8011 H   0  0  0  0  0  0  0  0  0  0  0  0
  140.4055   72.6660  225.3828 H   0  0  0  0  0  0  0  0  0  0  0  0
  1  2  2  0
  2  3  1  0
  3  4  2  0
  4  5  1  0
  5  6  2  0
  5  7  1  0
  7  8  1  0
  8  9  1  0
  9 10  1  0
 10 11  2  0
 11 12  1  0
 12 13  1  0
 13 14  1  0
 14 15  1  0
 15 16  1  0
 16 17  1  0
 17 18  1  0
 18 19  1  0
 12 20  2  0
 20 21  1  0
 21 22  1  0
 22 23  1  0
 23 24  1  0
 24 25  1  0
 25 26  2  0
 26 27  1  0
 27 28  2  0
 28 29  1  0
 29 30  2  0
 30 31  1  0
 21 32  2  0
  9 33  1  0
  6  1  1  0
 32 10  1  0
 33  4  1  0
 19 14  1  0
 31 22  1  0
 30 25  1  0
  1 34  1  0
  2 35  1  0
  3 36  1  0
  6 37  1  0
  7 38  1  0
  7 39  1  0
  8 40  1  0
  8 41  1  0
 11 42  1  0
 13 43  1  0
 14 44  1  1
 15 45  1  0
 15 46  1  0
 16 47  1  0
 16 48  1  0
 17 49  1  0
 17 50  1  0
 18 51  1  0
 19 52  1  0
 19 53  1  0
 23 54  1  0
 23 55  1  0
 24 56  1  0
 24 57  1  0
 26 58  1  0
 27 59  1  0
 28 60  1  0
 29 61  1  0
 31 62  1  0
 31 63  1  0
 33 64  1  0
 33 65  1  0
M  END
>  <smiles>  (95) 
c1ccc2c(c1)CCN(c1cc(NC3CCCNC3)nc(N3CCc4ccccc4C3)n1)C2

>  <score_type>  (95) 
oracle

>  <origin>  (95) 
autodockgpu

>  <m_score__min__energy>  (95) 
-10.15

>  <m_primary>  (95) 
energy

>  <rmsd>  (95) 
8.902376745327228

>  <m_score__min__rmsd>  (95) 
8.902376745327228

>  <meeko>  (95) 
{"free_energy": -10.12, "intermolecular_energy": -11.31, "internal_energy": -0.93, "cluster_size": 41, "cluster_id": 1, "rank_in_cluster": 7}

>  <energy>  (95) 
-9.67

>  <cluster_rmsd>  (95) 
0.55

>  <cluster>  (95) 
2

$$$$

     RDKit          3D

 65 70  0  0  0  0  0  0  0  0999 V2000
  139.6390   67.9190  227.1520 C   0  0  0  0  0  0  0  0  0  0  0  0
  140.2640   68.9810  227.7620 C   0  0  0  0  0  0  0  0  0  0  0  0
  140.5350   70.1610  227.1000 C   0  0  0  0  0  0  0  0  0  0  0  0
  140.1470   70.2480  225.7610 C   0  0  0  0  0  0  0  0  0  0  0  0
  139.5200   69.1860  225.1420 C   0  0  0  0  0  0  0  0  0  0  0  0
  139.2560   68.0150  225.8190 C   0  0  0  0  0  0  0  0  0  0  0  0
  139.1120   69.3010  223.7040 C   0  0  0  0  0  0  0  0  0  0  0  0
  138.6190   70.7260  223.5430 C   0  0  0  0  0  0  0  0  0  0  0  0
  139.7730   71.5890  223.7810 N   0  0  0  0  0  0  0  0  0  0  0  0
  140.2050   72.4680  222.7520 C   0  0  0  0  0  0  0  0  0  0  0  0
  141.0530   72.0270  221.7560 C   0  0  0  0  0  0  0  0  0  0  0  0
  141.5010   72.8370  220.7350 C   0  0  0  0  0  0  0  0  0  0  0  0
  142.3730   72.3970  219.7060 N   0  0  0  0  0  0  0  0  0  0  0  0
  143.7090   72.9280  219.5230 C   0  0  1  0  0  0  0  0  0  0  0  0
  144.1440   73.7970  220.6840 C   0  0  0  0  0  0  0  0  0  0  0  0
  145.5760   74.1860  220.4890 C   0  0  0  0  0  0  0  0  0  0  0  0
  146.4820   73.0330  220.1460 C   0  0  0  0  0  0  0  0  0  0  0  0
  145.9490   72.2790  218.9990 N   0  0  0  0  0  0  0  0  0  0  0  0
  144.6750   71.7590  219.4600 C   0  0  0  0  0  0  0  0  0  0  0  0
  141.0560   74.1210  220.7580 N   0  0  0  0  0  0  0  0  0  0  0  0
  140.2260   74.5650  221.7250 C   0  0  0  0  0  0  0  0  0  0  0  0
  139.7480   75.9160  221.7590 N   0  0  0  0  0  0  0  0  0  0  0  0
  140.6200   77.0420  221.4820 C   0  0  0  0  0  0  0  0  0  0  0  0
  140.6770   77.9560  222.6910 C   0  0  0  0  0  0  0  0  0  0  0  0
  139.2670   78.3940  222.9460 C   0  0  0  0  0  0  0  0  0  0  0  0
  139.1100   79.6540  223.4830 C   0  0  0  0  0  0  0  0  0  0  0  0
  137.8340   80.0980  223.7340 C   0  0  0  0  0  0  0  0  0  0  0  0
  136.7580   79.2920  223.4500 C   0  0  0  0  0  0  0  0  0  0  0  0
  136.9470   78.0270  222.9090 C   0  0  0  0  0  0  0  0  0  0  0  0
  138.2130   77.5570  222.6480 C   0  0  0  0  0  0  0  0  0  0  0  0
  138.3710   76.2040  222.0720 C   0  0  0  0  0  0  0  0  0  0  0  0
  139.8070   73.7310  222.7170 N   0  0  0  0  0  0  0  0  0  0  0  0
  140.4460   71.5280  225.0580 C   0  0  0  0  0  0  0  0  0  0  0  0
  139.4426   66.9959  227.7171 H   0  0  0  0  0  0  0  0  0  0  0  0
  140.5591   68.8864  228.8174 H   0  0  0  0  0  0  0  0  0  0  0  0
  141.0363   70.9991  227.6062 H   0  0  0  0  0  0  0  0  0  0  0  0
  138.7537   67.1755  225.3161 H   0  0  0  0  0  0  0  0  0  0  0  0
  139.9710   69.1131  223.0431 H   0  0  0  0  0  0  0  0  0  0  0  0
  138.3388   68.5659  223.4361 H   0  0  0  0  0  0  0  0  0  0  0  0
  138.2304   70.8818  222.5258 H   0  0  0  0  0  0  0  0  0  0  0  0
  137.8023   70.9480  224.2457 H   0  0  0  0  0  0  0  0  0  0  0  0
  141.3870   70.9792  221.7783 H   0  0  0  0  0  0  0  0  0  0  0  0
  141.9840   71.6420  219.0670 H   0  0  0  0  0  0  0  0  0  0  0  0
  143.7069   73.5344  218.6052 H   0  0  0  0  0  0  0  0  0  0  0  0
  143.5181   74.7007  220.7236 H   0  0  0  0  0  0  0  0  0  0  0  0
  144.0340   73.2413  221.6269 H   0  0  0  0  0  0  0  0  0  0  0  0
  145.6268   74.9209  219.6721 H   0  0  0  0  0  0  0  0  0  0  0  0
  145.9287   74.5939  221.4477 H   0  0  0  0  0  0  0  0  0  0  0  0
  147.4797   73.4203  219.8920 H   0  0  0  0  0  0  0  0  0  0  0  0
  146.5448   72.3606  221.0143 H   0  0  0  0  0  0  0  0  0  0  0  0
  145.7530   72.9550  218.2370 H   0  0  0  0  0  0  0  0  0  0  0  0
  144.3017   70.9992  218.7576 H   0  0  0  0  0  0  0  0  0  0  0  0
  144.7807   71.2863  220.4476 H   0  0  0  0  0  0  0  0  0  0  0  0
  141.6312   76.6737  221.2544 H   0  0  0  0  0  0  0  0  0  0  0  0
  140.2276   77.6025  220.6206 H   0  0  0  0  0  0  0  0  0  0  0  0
  141.0717   77.4128  223.5623 H   0  0  0  0  0  0  0  0  0  0  0  0
  141.3398   78.8160  222.5144 H   0  0  0  0  0  0  0  0  0  0  0  0
  139.9822   80.2866  223.7045 H   0  0  0  0  0  0  0  0  0  0  0  0
  137.6740   81.0985  224.1622 H   0  0  0  0  0  0  0  0  0  0  0  0
  135.7385   79.6517  223.6528 H   0  0  0  0  0  0  0  0  0  0  0  0
  136.0751   77.3943  222.6869 H   0  0  0  0  0  0  0  0  0  0  0  0
  138.0079   75.4624  222.7988 H   0  0  0  0  0  0  0  0  0  0  0  0
  137.7902   76.1583  221.1390 H   0  0  0  0  0  0  0  0  0  0  0  0
  141.5314   71.6041  224.8962 H   0  0  0  0  0  0  0  0  0  0  0  0
  140.0890   72.3610  225.6815 H   0  0  0  0  0  0  0  0  0  0  0  0
  1  2  2  0
  2  3  1  0
  3  4  2  0
  4  5  1  0
  5  6  2  0
  5  7  1  0
  7  8  1  0
  8  9  1  0
  9 10  1  0
 10 11  2  0
 11 12  1  0
 12 13  1  0
 13 14  1  0
 14 15  1  0
 15 16  1  0
 16 17  1  0
 17 18  1  0
 18 19  1  0
 12 20  2  0
 20 21  1  0
 21 22  1  0
 22 23  1  0
 23 24  1  0
 24 25  1  0
 25 26  2  0
 26 27  1  0
 27 28  2  0
 28 29  1  0
 29 30  2  0
 30 31  1  0
 21 32  2  0
  9 33  1  0
  6  1  1  0
 32 10  1  0
 33  4  1  0
 19 14  1  0
 31 22  1  0
 30 25  1  0
  1 34  1  0
  2 35  1  0
  3 36  1  0
  6 37  1  0
  7 38  1  0
  7 39  1  0
  8 40  1  0
  8 41  1  0
 11 42  1  0
 13 43  1  0
 14 44  1  6
 15 45  1  0
 15 46  1  0
 16 47  1  0
 16 48  1  0
 17 49  1  0
 17 50  1  0
 18 51  1  0
 19 52  1  0
 19 53  1  0
 23 54  1  0
 23 55  1  0
 24 56  1  0
 24 57  1  0
 26 58  1  0
 27 59  1  0
 28 60  1  0
 29 61  1  0
 31 62  1  0
 31 63  1  0
 33 64  1  0
 33 65  1  0
M  END
>  <smiles>  (96) 
c1ccc2c(c1)CCN(c1cc(NC3CCCNC3)nc(N3CCc4ccccc4C3)n1)C2

>  <score_type>  (96) 
oracle

>  <origin>  (96) 
autodockgpu

>  <m_score__min__energy>  (96) 
-10.15

>  <m_primary>  (96) 
energy

>  <rmsd>  (96) 
6.455817789265181

>  <m_score__min__rmsd>  (96) 
6.455817789265181

>  <meeko>  (96) 
{"free_energy": -9.71, "intermolecular_energy": -10.9, "internal_energy": -1.07, "cluster_size": 41, "cluster_id": 1, "rank_in_cluster": 23}

>  <energy>  (96) 
-9.24

>  <cluster_rmsd>  (96) 
1.52

>  <cluster>  (96) 
2

$$$$

     RDKit          3D

 65 70  0  0  0  0  0  0  0  0999 V2000
  139.6210   67.9390  226.2410 C   0  0  0  0  0  0  0  0  0  0  0  0
  140.2430   68.9330  226.9580 C   0  0  0  0  0  0  0  0  0  0  0  0
  140.5010   70.1800  226.4250 C   0  0  0  0  0  0  0  0  0  0  0  0
  140.1020   70.4080  225.1060 C   0  0  0  0  0  0  0  0  0  0  0  0
  139.4770   69.4140  224.3810 C   0  0  0  0  0  0  0  0  0  0  0  0
  139.2270   68.1740  224.9290 C   0  0  0  0  0  0  0  0  0  0  0  0
  139.0570   69.6800  222.9670 C   0  0  0  0  0  0  0  0  0  0  0  0
  138.5540   71.1100  222.9630 C   0  0  0  0  0  0  0  0  0  0  0  0
  139.7030   71.9510  223.2850 N   0  0  0  0  0  0  0  0  0  0  0  0
  140.1210   72.9390  222.3540 C   0  0  0  0  0  0  0  0  0  0  0  0
  141.0140   72.6300  221.3480 C   0  0  0  0  0  0  0  0  0  0  0  0
  141.4520   73.5490  220.4190 C   0  0  0  0  0  0  0  0  0  0  0  0
  142.3700   73.2450  219.3820 N   0  0  0  0  0  0  0  0  0  0  0  0
  143.7720   73.6080  219.4360 C   0  0  1  0  0  0  0  0  0  0  0  0
  144.2250   73.9270  220.8440 C   0  0  0  0  0  0  0  0  0  0  0  0
  145.7060   74.1500  220.8370 C   0  0  0  0  0  0  0  0  0  0  0  0
  146.4820   73.0810  220.1150 C   0  0  0  0  0  0  0  0  0  0  0  0
  145.9450   72.8770  218.7600 N   0  0  0  0  0  0  0  0  0  0  0  0
  144.5850   72.4140  218.9690 C   0  0  0  0  0  0  0  0  0  0  0  0
  140.9470   74.8050  220.5450 N   0  0  0  0  0  0  0  0  0  0  0  0
  140.0720   75.1210  221.5230 C   0  0  0  0  0  0  0  0  0  0  0  0
  139.5320   76.4420  221.6660 N   0  0  0  0  0  0  0  0  0  0  0  0
  140.3430   77.6260  221.4560 C   0  0  0  0  0  0  0  0  0  0  0  0
  140.3830   78.4520  222.7270 C   0  0  0  0  0  0  0  0  0  0  0  0
  138.9600   78.8000  223.0400 C   0  0  0  0  0  0  0  0  0  0  0  0
  138.7560   80.0080  223.6710 C   0  0  0  0  0  0  0  0  0  0  0  0
  137.4670   80.3710  223.9790 C   0  0  0  0  0  0  0  0  0  0  0  0
  136.4240   79.5350  223.6560 C   0  0  0  0  0  0  0  0  0  0  0  0
  136.6600   78.3240  223.0210 C   0  0  0  0  0  0  0  0  0  0  0  0
  137.9410   77.9370  222.7010 C   0  0  0  0  0  0  0  0  0  0  0  0
  138.1500   76.6380  222.0240 C   0  0  0  0  0  0  0  0  0  0  0  0
  139.6660   74.1820  222.4220 N   0  0  0  0  0  0  0  0  0  0  0  0
  140.3870   71.7580  224.5430 C   0  0  0  0  0  0  0  0  0  0  0  0
  139.4353   66.9590  226.7048 H   0  0  0  0  0  0  0  0  0  0  0  0
  140.5465   68.7272  227.9951 H   0  0  0  0  0  0  0  0  0  0  0  0
  141.0006   70.9624  227.0151 H   0  0  0  0  0  0  0  0  0  0  0  0
  138.7276   67.3892  224.3419 H   0  0  0  0  0  0  0  0  0  0  0  0
  139.9120   69.5701  222.2837 H   0  0  0  0  0  0  0  0  0  0  0  0
  138.2861   68.9725  222.6275 H   0  0  0  0  0  0  0  0  0  0  0  0
  138.1573   71.3712  221.9708 H   0  0  0  0  0  0  0  0  0  0  0  0
  137.7410   71.2492  223.6908 H   0  0  0  0  0  0  0  0  0  0  0  0
  141.3947   71.5999  221.2846 H   0  0  0  0  0  0  0  0  0  0  0  0
  141.9630   72.7250  218.5480 H   0  0  0  0  0  0  0  0  0  0  0  0
  143.9147   74.4978  218.8052 H   0  0  0  0  0  0  0  0  0  0  0  0
  143.7163   74.8354  221.1989 H   0  0  0  0  0  0  0  0  0  0  0  0
  143.9766   73.0910  221.5144 H   0  0  0  0  0  0  0  0  0  0  0  0
  145.9084   75.1144  220.3482 H   0  0  0  0  0  0  0  0  0  0  0  0
  146.0362   74.1298  221.8861 H   0  0  0  0  0  0  0  0  0  0  0  0
  147.5366   73.3855  220.0439 H   0  0  0  0  0  0  0  0  0  0  0  0
  146.3949   72.1391  220.6765 H   0  0  0  0  0  0  0  0  0  0  0  0
  145.8910   73.8030  218.2950 H   0  0  0  0  0  0  0  0  0  0  0  0
  144.1717   72.0211  218.0283 H   0  0  0  0  0  0  0  0  0  0  0  0
  144.5574   71.6064  219.7153 H   0  0  0  0  0  0  0  0  0  0  0  0
  141.3653   77.3250  221.1836 H   0  0  0  0  0  0  0  0  0  0  0  0
  139.9057   78.2272  220.6452 H   0  0  0  0  0  0  0  0  0  0  0  0
  140.8229   77.8676  223.5486 H   0  0  0  0  0  0  0  0  0  0  0  0
  140.9995   79.3543  222.6012 H   0  0  0  0  0  0  0  0  0  0  0  0
  139.6025   80.6642  223.9215 H   0  0  0  0  0  0  0  0  0  0  0  0
  137.2698   81.3286  224.4830 H   0  0  0  0  0  0  0  0  0  0  0  0
  135.3932   79.8290  223.9033 H   0  0  0  0  0  0  0  0  0  0  0  0
  135.8143   77.6666  222.7709 H   0  0  0  0  0  0  0  0  0  0  0  0
  137.8384   75.8287  222.7007 H   0  0  0  0  0  0  0  0  0  0  0  0
  137.5515   76.6311  221.1011 H   0  0  0  0  0  0  0  0  0  0  0  0
  141.4705   71.8590  224.3822 H   0  0  0  0  0  0  0  0  0  0  0  0
  140.0300   72.5165  225.2552 H   0  0  0  0  0  0  0  0  0  0  0  0
  1  2  2  0
  2  3  1  0
  3  4  2  0
  4  5  1  0
  5  6  2  0
  5  7  1  0
  7  8  1  0
  8  9  1  0
  9 10  1  0
 10 11  2  0
 11 12  1  0
 12 13  1  0
 13 14  1  0
 14 15  1  0
 15 16  1  0
 16 17  1  0
 17 18  1  0
 18 19  1  0
 12 20  2  0
 20 21  1  0
 21 22  1  0
 22 23  1  0
 23 24  1  0
 24 25  1  0
 25 26  2  0
 26 27  1  0
 27 28  2  0
 28 29  1  0
 29 30  2  0
 30 31  1  0
 21 32  2  0
  9 33  1  0
  6  1  1  0
 32 10  1  0
 33  4  1  0
 19 14  1  0
 31 22  1  0
 30 25  1  0
  1 34  1  0
  2 35  1  0
  3 36  1  0
  6 37  1  0
  7 38  1  0
  7 39  1  0
  8 40  1  0
  8 41  1  0
 11 42  1  0
 13 43  1  0
 14 44  1  6
 15 45  1  0
 15 46  1  0
 16 47  1  0
 16 48  1  0
 17 49  1  0
 17 50  1  0
 18 51  1  0
 19 52  1  0
 19 53  1  0
 23 54  1  0
 23 55  1  0
 24 56  1  0
 24 57  1  0
 26 58  1  0
 27 59  1  0
 28 60  1  0
 29 61  1  0
 31 62  1  0
 31 63  1  0
 33 64  1  0
 33 65  1  0
M  END
>  <smiles>  (97) 
c1ccc2c(c1)CCN(c1cc(NC3CCCNC3)nc(N3CCc4ccccc4C3)n1)C2

>  <score_type>  (97) 
oracle

>  <origin>  (97) 
autodockgpu

>  <m_score__min__energy>  (97) 
-10.15

>  <m_primary>  (97) 
energy

>  <rmsd>  (97) 
6.1982752219303805

>  <m_score__min__rmsd>  (97) 
6.1982752219303805

>  <meeko>  (97) 
{"free_energy": -9.67, "intermolecular_energy": -10.86, "internal_energy": -1.06, "cluster_size": 5, "cluster_id": 2, "rank_in_cluster": 4}

>  <energy>  (97) 
-9.5

>  <cluster_rmsd>  (97) 
0.0

>  <cluster>  (97) 
3

$$$$

     RDKit          3D

 65 70  0  0  0  0  0  0  0  0999 V2000
  139.7950   67.9940  227.3020 C   0  0  0  0  0  0  0  0  0  0  0  0
  140.4530   69.0660  227.8560 C   0  0  0  0  0  0  0  0  0  0  0  0
  140.7150   70.2210  227.1480 C   0  0  0  0  0  0  0  0  0  0  0  0
  140.2820   70.2720  225.8200 C   0  0  0  0  0  0  0  0  0  0  0  0
  139.6210   69.1980  225.2580 C   0  0  0  0  0  0  0  0  0  0  0  0
  139.3670   68.0530  225.9810 C   0  0  0  0  0  0  0  0  0  0  0  0
  139.1650   69.2740  223.8320 C   0  0  0  0  0  0  0  0  0  0  0  0
  138.6840   70.6990  223.6420 C   0  0  0  0  0  0  0  0  0  0  0  0
  139.8550   71.5540  223.8130 N   0  0  0  0  0  0  0  0  0  0  0  0
  140.2610   72.3940  222.7420 C   0  0  0  0  0  0  0  0  0  0  0  0
  141.0190   71.8960  221.7010 C   0  0  0  0  0  0  0  0  0  0  0  0
  141.4390   72.6660  220.6380 C   0  0  0  0  0  0  0  0  0  0  0  0
  142.2180   72.1680  219.5630 N   0  0  0  0  0  0  0  0  0  0  0  0
  143.6040   72.5360  219.3550 C   0  0  1  0  0  0  0  0  0  0  0  0
  144.0730   73.5820  220.3430 C   0  0  0  0  0  0  0  0  0  0  0  0
  145.5420   73.8010  220.1580 C   0  0  0  0  0  0  0  0  0  0  0  0
  146.3480   72.5300  220.1030 C   0  0  0  0  0  0  0  0  0  0  0  0
  145.7920   71.6080  219.1000 N   0  0  0  0  0  0  0  0  0  0  0  0
  144.4580   71.3010  219.5810 C   0  0  0  0  0  0  0  0  0  0  0  0
  141.0600   73.9720  220.6670 N   0  0  0  0  0  0  0  0  0  0  0  0
  140.3190   74.4720  221.6780 C   0  0  0  0  0  0  0  0  0  0  0  0
  139.9130   75.8460  221.7190 N   0  0  0  0  0  0  0  0  0  0  0  0
  140.8370   76.9250  221.4260 C   0  0  0  0  0  0  0  0  0  0  0  0
  140.9610   77.8350  222.6330 C   0  0  0  0  0  0  0  0  0  0  0  0
  139.5800   78.3450  222.9100 C   0  0  0  0  0  0  0  0  0  0  0  0
  139.4980   79.6120  223.4480 C   0  0  0  0  0  0  0  0  0  0  0  0
  138.2510   80.1220  223.7200 C   0  0  0  0  0  0  0  0  0  0  0  0
  137.1300   79.3720  223.4540 C   0  0  0  0  0  0  0  0  0  0  0  0
  137.2440   78.1000  222.9120 C   0  0  0  0  0  0  0  0  0  0  0  0
  138.4790   77.5640  222.6300 C   0  0  0  0  0  0  0  0  0  0  0  0
  138.5580   76.2050  222.0530 C   0  0  0  0  0  0  0  0  0  0  0  0
  139.9250   73.6750  222.7100 N   0  0  0  0  0  0  0  0  0  0  0  0
  140.5720   71.5240  225.0670 C   0  0  0  0  0  0  0  0  0  0  0  0
  139.6076   67.0917  227.9026 H   0  0  0  0  0  0  0  0  0  0  0  0
  140.7832   69.0007  228.9032 H   0  0  0  0  0  0  0  0  0  0  0  0
  141.2435   71.0678  227.6102 H   0  0  0  0  0  0  0  0  0  0  0  0
  138.8374   67.2046  225.5230 H   0  0  0  0  0  0  0  0  0  0  0  0
  139.9984   69.0542  223.1486 H   0  0  0  0  0  0  0  0  0  0  0  0
  138.3738   68.5414  223.6145 H   0  0  0  0  0  0  0  0  0  0  0  0
  138.2628   70.8274  222.6340 H   0  0  0  0  0  0  0  0  0  0  0  0
  137.8946   70.9537  224.3644 H   0  0  0  0  0  0  0  0  0  0  0  0
  141.3014   70.8331  221.7211 H   0  0  0  0  0  0  0  0  0  0  0  0
  141.7180   71.4960  218.9080 H   0  0  0  0  0  0  0  0  0  0  0  0
  143.6947   72.9413  218.3364 H   0  0  0  0  0  0  0  0  0  0  0  0
  143.5342   74.5246  220.1662 H   0  0  0  0  0  0  0  0  0  0  0  0
  143.8739   73.2403  221.3695 H   0  0  0  0  0  0  0  0  0  0  0  0
  145.6943   74.3484  219.2161 H   0  0  0  0  0  0  0  0  0  0  0  0
  145.8933   74.3632  221.0358 H   0  0  0  0  0  0  0  0  0  0  0  0
  147.3871   72.7720  219.8351 H   0  0  0  0  0  0  0  0  0  0  0  0
  146.3130   72.0445  221.0894 H   0  0  0  0  0  0  0  0  0  0  0  0
  145.6900   72.1290  218.2080 H   0  0  0  0  0  0  0  0  0  0  0  0
  144.0431   70.4486  219.0231 H   0  0  0  0  0  0  0  0  0  0  0  0
  144.4798   71.0311  220.6471 H   0  0  0  0  0  0  0  0  0  0  0  0
  141.8239   76.5049  221.1821 H   0  0  0  0  0  0  0  0  0  0  0  0
  140.4601   77.5046  220.5705 H   0  0  0  0  0  0  0  0  0  0  0  0
  141.3412   77.2723  223.4983 H   0  0  0  0  0  0  0  0  0  0  0  0
  141.6645   78.6595  222.4451 H   0  0  0  0  0  0  0  0  0  0  0  0
  140.4056   80.1984  223.6538 H   0  0  0  0  0  0  0  0  0  0  0  0
  138.1501   81.1294  224.1501 H   0  0  0  0  0  0  0  0  0  0  0  0
  136.1339   79.7841  223.6728 H   0  0  0  0  0  0  0  0  0  0  0  0
  136.3366   77.5135  222.7055 H   0  0  0  0  0  0  0  0  0  0  0  0
  138.1683   75.4833  222.7859 H   0  0  0  0  0  0  0  0  0  0  0  0
  137.9613   76.1894  221.1290 H   0  0  0  0  0  0  0  0  0  0  0  0
  141.6518   71.5799  224.8650 H   0  0  0  0  0  0  0  0  0  0  0  0
  140.2480   72.3811  225.6756 H   0  0  0  0  0  0  0  0  0  0  0  0
  1  2  2  0
  2  3  1  0
  3  4  2  0
  4  5  1  0
  5  6  2  0
  5  7  1  0
  7  8  1  0
  8  9  1  0
  9 10  1  0
 10 11  2  0
 11 12  1  0
 12 13  1  0
 13 14  1  0
 14 15  1  0
 15 16  1  0
 16 17  1  0
 17 18  1  0
 18 19  1  0
 12 20  2  0
 20 21  1  0
 21 22  1  0
 22 23  1  0
 23 24  1  0
 24 25  1  0
 25 26  2  0
 26 27  1  0
 27 28  2  0
 28 29  1  0
 29 30  2  0
 30 31  1  0
 21 32  2  0
  9 33  1  0
  6  1  1  0
 32 10  1  0
 33  4  1  0
 19 14  1  0
 31 22  1  0
 30 25  1  0
  1 34  1  0
  2 35  1  0
  3 36  1  0
  6 37  1  0
  7 38  1  0
  7 39  1  0
  8 40  1  0
  8 41  1  0
 11 42  1  0
 13 43  1  0
 14 44  1  6
 15 45  1  0
 15 46  1  0
 16 47  1  0
 16 48  1  0
 17 49  1  0
 17 50  1  0
 18 51  1  0
 19 52  1  0
 19 53  1  0
 23 54  1  0
 23 55  1  0
 24 56  1  0
 24 57  1  0
 26 58  1  0
 27 59  1  0
 28 60  1  0
 29 61  1  0
 31 62  1  0
 31 63  1  0
 33 64  1  0
 33 65  1  0
M  END
>  <smiles>  (98) 
c1ccc2c(c1)CCN(c1cc(NC3CCCNC3)nc(N3CCc4ccccc4C3)n1)C2

>  <score_type>  (98) 
oracle

>  <origin>  (98) 
autodockgpu

>  <m_score__min__energy>  (98) 
-10.15

>  <m_primary>  (98) 
energy

>  <rmsd>  (98) 
6.697914845892403

>  <m_score__min__rmsd>  (98) 
6.697914845892403

>  <meeko>  (98) 
{"free_energy": -9.69, "intermolecular_energy": -10.88, "internal_energy": -1.08, "cluster_size": 41, "cluster_id": 1, "rank_in_cluster": 25}

>  <energy>  (98) 
-9.49

>  <cluster_rmsd>  (98) 
0.06

>  <cluster>  (98) 
3

$$$$

     RDKit          3D

 65 70  0  0  0  0  0  0  0  0999 V2000
  139.8910   68.6020  227.3940 C   0  0  0  0  0  0  0  0  0  0  0  0
  140.5240   69.7360  227.8450 C   0  0  0  0  0  0  0  0  0  0  0  0
  140.8010   70.8080  227.0210 C   0  0  0  0  0  0  0  0  0  0  0  0
  140.4110   70.7050  225.6830 C   0  0  0  0  0  0  0  0  0  0  0  0
  139.7750   69.5690  225.2240 C   0  0  0  0  0  0  0  0  0  0  0  0
  139.5060   68.5080  226.0620 C   0  0  0  0  0  0  0  0  0  0  0  0
  139.3650   69.4800  223.7850 C   0  0  0  0  0  0  0  0  0  0  0  0
  138.8810   70.8700  223.4210 C   0  0  0  0  0  0  0  0  0  0  0  0
  140.0410   71.7500  223.5320 N   0  0  0  0  0  0  0  0  0  0  0  0
  140.4750   72.4700  222.3870 C   0  0  0  0  0  0  0  0  0  0  0  0
  140.9870   71.8080  221.2900 C   0  0  0  0  0  0  0  0  0  0  0  0
  141.4230   72.4560  220.1540 C   0  0  0  0  0  0  0  0  0  0  0  0
  141.9520   71.7890  219.0190 N   0  0  0  0  0  0  0  0  0  0  0  0
  143.2680   72.0690  218.4810 C   0  0  1  0  0  0  0  0  0  0  0  0
  143.3570   73.4550  217.8790 C   0  0  0  0  0  0  0  0  0  0  0  0
  144.7750   73.7190  217.4790 C   0  0  0  0  0  0  0  0  0  0  0  0
  145.7830   73.3930  218.5480 C   0  0  0  0  0  0  0  0  0  0  0  0
  145.5910   72.0180  219.0380 N   0  0  0  0  0  0  0  0  0  0  0  0
  144.2640   72.0190  219.6260 C   0  0  0  0  0  0  0  0  0  0  0  0
  141.3200   73.8120  220.1690 N   0  0  0  0  0  0  0  0  0  0  0  0
  140.8210   74.4720  221.2360 C   0  0  0  0  0  0  0  0  0  0  0  0
  140.7060   75.9010  221.2640 N   0  0  0  0  0  0  0  0  0  0  0  0
  140.7390   76.6940  220.0500 C   0  0  0  0  0  0  0  0  0  0  0  0
  141.9060   77.6610  220.1010 C   0  0  0  0  0  0  0  0  0  0  0  0
  141.6870   78.5110  221.3150 C   0  0  0  0  0  0  0  0  0  0  0  0
  142.1520   79.8060  221.2410 C   0  0  0  0  0  0  0  0  0  0  0  0
  141.9740   80.6240  222.3310 C   0  0  0  0  0  0  0  0  0  0  0  0
  141.3460   80.1410  223.4550 C   0  0  0  0  0  0  0  0  0  0  0  0
  140.8880   78.8320  223.5010 C   0  0  0  0  0  0  0  0  0  0  0  0
  141.0530   77.9920  222.4230 C   0  0  0  0  0  0  0  0  0  0  0  0
  140.5510   76.6040  222.5120 C   0  0  0  0  0  0  0  0  0  0  0  0
  140.4020   73.7920  222.3390 N   0  0  0  0  0  0  0  0  0  0  0  0
  140.7160   71.8690  224.8040 C   0  0  0  0  0  0  0  0  0  0  0  0
  139.6897   67.7709  228.0859 H   0  0  0  0  0  0  0  0  0  0  0  0
  140.8210   69.7910  228.9027 H   0  0  0  0  0  0  0  0  0  0  0  0
  141.3080   71.7068  227.4019 H   0  0  0  0  0  0  0  0  0  0  0  0
  138.9984   67.6079  225.6851 H   0  0  0  0  0  0  0  0  0  0  0  0
  140.2216   69.1934  223.1572 H   0  0  0  0  0  0  0  0  0  0  0  0
  138.5861   68.7196  223.6264 H   0  0  0  0  0  0  0  0  0  0  0  0
  138.4920   70.8806  222.3922 H   0  0  0  0  0  0  0  0  0  0  0  0
  138.0666   71.1963  224.0846 H   0  0  0  0  0  0  0  0  0  0  0  0
  141.0503   70.7103  221.3235 H   0  0  0  0  0  0  0  0  0  0  0  0
  141.3160   71.0590  218.5790 H   0  0  0  0  0  0  0  0  0  0  0  0
  143.4764   71.3261  217.6970 H   0  0  0  0  0  0  0  0  0  0  0  0
  142.7062   73.5159  216.9943 H   0  0  0  0  0  0  0  0  0  0  0  0
  143.0320   74.2036  218.6166 H   0  0  0  0  0  0  0  0  0  0  0  0
  145.0031   73.1107  216.5914 H   0  0  0  0  0  0  0  0  0  0  0  0
  144.8552   74.7987  217.2843 H   0  0  0  0  0  0  0  0  0  0  0  0
  146.7964   73.4903  218.1313 H   0  0  0  0  0  0  0  0  0  0  0  0
  145.6486   74.0910  219.3874 H   0  0  0  0  0  0  0  0  0  0  0  0
  145.5690   71.3860  218.2160 H   0  0  0  0  0  0  0  0  0  0  0  0
  144.1129   71.1041  220.2178 H   0  0  0  0  0  0  0  0  0  0  0  0
  144.1335   72.8815  220.2962 H   0  0  0  0  0  0  0  0  0  0  0  0
  140.8537   76.0284  219.1818 H   0  0  0  0  0  0  0  0  0  0  0  0
  139.8006   77.2609  219.9603 H   0  0  0  0  0  0  0  0  0  0  0  0
  142.8546   77.1107  220.1861 H   0  0  0  0  0  0  0  0  0  0  0  0
  141.9631   78.2712  219.1876 H   0  0  0  0  0  0  0  0  0  0  0  0
  142.6524   80.1753  220.3336 H   0  0  0  0  0  0  0  0  0  0  0  0
  142.3333   81.6633  222.3043 H   0  0  0  0  0  0  0  0  0  0  0  0
  141.2054   80.7984  224.3257 H   0  0  0  0  0  0  0  0  0  0  0  0
  140.3880   78.4618  224.4081 H   0  0  0  0  0  0  0  0  0  0  0  0
  141.1124   76.0711  223.2936 H   0  0  0  0  0  0  0  0  0  0  0  0
  139.4786   76.6417  222.7538 H   0  0  0  0  0  0  0  0  0  0  0  0
  141.8015   71.9148  224.6320 H   0  0  0  0  0  0  0  0  0  0  0  0
  140.3650   72.7849  225.3020 H   0  0  0  0  0  0  0  0  0  0  0  0
  1  2  2  0
  2  3  1  0
  3  4  2  0
  4  5  1  0
  5  6  2  0
  5  7  1  0
  7  8  1  0
  8  9  1  0
  9 10  1  0
 10 11  2  0
 11 12  1  0
 12 13  1  0
 13 14  1  0
 14 15  1  0
 15 16  1  0
 16 17  1  0
 17 18  1  0
 18 19  1  0
 12 20  2  0
 20 21  1  0
 21 22  1  0
 22 23  1  0
 23 24  1  0
 24 25  1  0
 25 26  2  0
 26 27  1  0
 27 28  2  0
 28 29  1  0
 29 30  2  0
 30 31  1  0
 21 32  2  0
  9 33  1  0
  6  1  1  0
 32 10  1  0
 33  4  1  0
 19 14  1  0
 31 22  1  0
 30 25  1  0
  1 34  1  0
  2 35  1  0
  3 36  1  0
  6 37  1  0
  7 38  1  0
  7 39  1  0
  8 40  1  0
  8 41  1  0
 11 42  1  0
 13 43  1  0
 14 44  1  6
 15 45  1  0
 15 46  1  0
 16 47  1  0
 16 48  1  0
 17 49  1  0
 17 50  1  0
 18 51  1  0
 19 52  1  0
 19 53  1  0
 23 54  1  0
 23 55  1  0
 24 56  1  0
 24 57  1  0
 26 58  1  0
 27 59  1  0
 28 60  1  0
 29 61  1  0
 31 62  1  0
 31 63  1  0
 33 64  1  0
 33 65  1  0
M  END
>  <smiles>  (99) 
c1ccc2c(c1)CCN(c1cc(NC3CCCNC3)nc(N3CCc4ccccc4C3)n1)C2

>  <score_type>  (99) 
oracle

>  <origin>  (99) 
autodockgpu

>  <m_score__min__energy>  (99) 
-10.15

>  <m_primary>  (99) 
energy

>  <rmsd>  (99) 
6.901570770033361

>  <m_score__min__rmsd>  (99) 
6.901570770033361

>  <meeko>  (99) 
{"free_energy": -9.42, "intermolecular_energy": -10.61, "internal_energy": -1.17, "cluster_size": 41, "cluster_id": 1, "rank_in_cluster": 32}

>  <energy>  (99) 
-9.48

>  <cluster_rmsd>  (99) 
0.12

>  <cluster>  (99) 
3

$$$$

     RDKit          3D

 65 70  0  0  0  0  0  0  0  0999 V2000
  139.8710   68.6170  227.6240 C   0  0  0  0  0  0  0  0  0  0  0  0
  140.5340   69.7530  228.0230 C   0  0  0  0  0  0  0  0  0  0  0  0
  140.8200   70.7880  227.1550 C   0  0  0  0  0  0  0  0  0  0  0  0
  140.4060   70.6440  225.8280 C   0  0  0  0  0  0  0  0  0  0  0  0
  139.7400   69.5050  225.4210 C   0  0  0  0  0  0  0  0  0  0  0  0
  139.4630   68.4820  226.3020 C   0  0  0  0  0  0  0  0  0  0  0  0
  139.3050   69.3720  223.9930 C   0  0  0  0  0  0  0  0  0  0  0  0
  138.8440   70.7570  223.5850 C   0  0  0  0  0  0  0  0  0  0  0  0
  140.0230   71.6170  223.6460 N   0  0  0  0  0  0  0  0  0  0  0  0
  140.4540   72.2840  222.4680 C   0  0  0  0  0  0  0  0  0  0  0  0
  140.9890   71.5770  221.4110 C   0  0  0  0  0  0  0  0  0  0  0  0
  141.4220   72.1730  220.2460 C   0  0  0  0  0  0  0  0  0  0  0  0
  141.9740   71.4590  219.1520 N   0  0  0  0  0  0  0  0  0  0  0  0
  143.2150   71.8380  218.5060 C   0  0  1  0  0  0  0  0  0  0  0  0
  143.1320   73.2090  217.8700 C   0  0  0  0  0  0  0  0  0  0  0  0
  144.4860   73.5860  217.3540 C   0  0  0  0  0  0  0  0  0  0  0  0
  145.5980   73.3810  218.3470 C   0  0  0  0  0  0  0  0  0  0  0  0
  145.5690   72.0100  218.8800 N   0  0  0  0  0  0  0  0  0  0  0  0
  144.2960   71.9100  219.5700 C   0  0  0  0  0  0  0  0  0  0  0  0
  141.2920   73.5260  220.1900 N   0  0  0  0  0  0  0  0  0  0  0  0
  140.7710   74.2300  221.2170 C   0  0  0  0  0  0  0  0  0  0  0  0
  140.6280   75.6560  221.1690 N   0  0  0  0  0  0  0  0  0  0  0  0
  140.8040   76.4010  219.9370 C   0  0  0  0  0  0  0  0  0  0  0  0
  141.9380   77.3960  220.0970 C   0  0  0  0  0  0  0  0  0  0  0  0
  141.5480   78.2880  221.2350 C   0  0  0  0  0  0  0  0  0  0  0  0
  141.9950   79.5900  221.1670 C   0  0  0  0  0  0  0  0  0  0  0  0
  141.6630   80.4460  222.1900 C   0  0  0  0  0  0  0  0  0  0  0  0
  140.9030   79.9940  223.2420 C   0  0  0  0  0  0  0  0  0  0  0  0
  140.4660   78.6770  223.2840 C   0  0  0  0  0  0  0  0  0  0  0  0
  140.7850   77.7990  222.2740 C   0  0  0  0  0  0  0  0  0  0  0  0
  140.3000   76.4040  222.3560 C   0  0  0  0  0  0  0  0  0  0  0  0
  140.3550   73.6000  222.3500 N   0  0  0  0  0  0  0  0  0  0  0  0
  140.7210   71.7680  224.9020 C   0  0  0  0  0  0  0  0  0  0  0  0
  139.6637   67.8164  228.3493 H   0  0  0  0  0  0  0  0  0  0  0  0
  140.8486   69.8409  229.0734 H   0  0  0  0  0  0  0  0  0  0  0  0
  141.3520   71.6891  227.4941 H   0  0  0  0  0  0  0  0  0  0  0  0
  138.9312   67.5793  225.9667 H   0  0  0  0  0  0  0  0  0  0  0  0
  140.1452   69.0444  223.3631 H   0  0  0  0  0  0  0  0  0  0  0  0
  138.5080   68.6231  223.8750 H   0  0  0  0  0  0  0  0  0  0  0  0
  138.4393   70.7377  222.5623 H   0  0  0  0  0  0  0  0  0  0  0  0
  138.0470   71.1242  224.2483 H   0  0  0  0  0  0  0  0  0  0  0  0
  141.0742   70.4841  221.5024 H   0  0  0  0  0  0  0  0  0  0  0  0
  141.4160   70.6140  218.8290 H   0  0  0  0  0  0  0  0  0  0  0  0
  143.4292   71.0938  217.7248 H   0  0  0  0  0  0  0  0  0  0  0  0
  142.4125   73.1874  217.0382 H   0  0  0  0  0  0  0  0  0  0  0  0
  142.7981   73.9463  218.6149 H   0  0  0  0  0  0  0  0  0  0  0  0
  144.6996   72.9752  216.4644 H   0  0  0  0  0  0  0  0  0  0  0  0
  144.4531   74.6626  217.1306 H   0  0  0  0  0  0  0  0  0  0  0  0
  146.5636   73.5554  217.8498 H   0  0  0  0  0  0  0  0  0  0  0  0
  145.4658   74.0882  219.1791 H   0  0  0  0  0  0  0  0  0  0  0  0
  145.5410   71.3550  218.0760 H   0  0  0  0  0  0  0  0  0  0  0  0
  144.2742   71.0029  220.1918 H   0  0  0  0  0  0  0  0  0  0  0  0
  144.1391   72.7766  220.2291 H   0  0  0  0  0  0  0  0  0  0  0  0
  141.0417   75.7044  219.1195 H   0  0  0  0  0  0  0  0  0  0  0  0
  139.8754   76.9424  219.7036 H   0  0  0  0  0  0  0  0  0  0  0  0
  142.8770   76.8714  220.3272 H   0  0  0  0  0  0  0  0  0  0  0  0
  142.1029   77.9704  219.1735 H   0  0  0  0  0  0  0  0  0  0  0  0
  142.6014   79.9350  220.3166 H   0  0  0  0  0  0  0  0  0  0  0  0
  142.0051   81.4912  222.1666 H   0  0  0  0  0  0  0  0  0  0  0  0
  140.6385   80.6822  224.0584 H   0  0  0  0  0  0  0  0  0  0  0  0
  139.8584   78.3319  224.1336 H   0  0  0  0  0  0  0  0  0  0  0  0
  140.7646   75.9154  223.2252 H   0  0  0  0  0  0  0  0  0  0  0  0
  139.2048   76.4266  222.4558 H   0  0  0  0  0  0  0  0  0  0  0  0
  141.8043   71.7840  224.7116 H   0  0  0  0  0  0  0  0  0  0  0  0
  140.3975   72.7089  225.3711 H   0  0  0  0  0  0  0  0  0  0  0  0
  1  2  2  0
  2  3  1  0
  3  4  2  0
  4  5  1  0
  5  6  2  0
  5  7  1  0
  7  8  1  0
  8  9  1  0
  9 10  1  0
 10 11  2  0
 11 12  1  0
 12 13  1  0
 13 14  1  0
 14 15  1  0
 15 16  1  0
 16 17  1  0
 17 18  1  0
 18 19  1  0
 12 20  2  0
 20 21  1  0
 21 22  1  0
 22 23  1  0
 23 24  1  0
 24 25  1  0
 25 26  2  0
 26 27  1  0
 27 28  2  0
 28 29  1  0
 29 30  2  0
 30 31  1  0
 21 32  2  0
  9 33  1  0
  6  1  1  0
 32 10  1  0
 33  4  1  0
 19 14  1  0
 31 22  1  0
 30 25  1  0
  1 34  1  0
  2 35  1  0
  3 36  1  0
  6 37  1  0
  7 38  1  0
  7 39  1  0
  8 40  1  0
  8 41  1  0
 11 42  1  0
 13 43  1  0
 14 44  1  6
 15 45  1  0
 15 46  1  0
 16 47  1  0
 16 48  1  0
 17 49  1  0
 17 50  1  0
 18 51  1  0
 19 52  1  0
 19 53  1  0
 23 54  1  0
 23 55  1  0
 24 56  1  0
 24 57  1  0
 26 58  1  0
 27 59  1  0
 28 60  1  0
 29 61  1  0
 31 62  1  0
 31 63  1  0
 33 64  1  0
 33 65  1  0
M  END
>  <smiles>  (100) 
c1ccc2c(c1)CCN(c1cc(NC3CCCNC3)nc(N3CCc4ccccc4C3)n1)C2

>  <score_type>  (100) 
oracle

>  <origin>  (100) 
autodockgpu

>  <m_score__min__energy>  (100) 
-10.15

>  <m_primary>  (100) 
energy

>  <rmsd>  (100) 
7.01652627772504

>  <m_score__min__rmsd>  (100) 
7.01652627772504

>  <meeko>  (100) 
{"free_energy": -9.43, "intermolecular_energy": -10.63, "internal_energy": -1.17, "cluster_size": 41, "cluster_id": 1, "rank_in_cluster": 31}

>  <energy>  (100) 
-9.46

>  <cluster_rmsd>  (100) 
0.14

>  <cluster>  (100) 
3

$$$$
