
     RDKit          3D

 48 51  0  0  0  0  0  0  0  0999 V2000
  139.4060   68.9230  221.4710 O   0  0  0  0  0  0  0  0  0  0  0  0
  139.5630   69.9780  222.1210 C   0  0  0  0  0  0  0  0  0  0  0  0
  139.6560   71.2180  221.4300 N   0  0  0  0  0  0  0  0  0  0  0  0
  139.5770   71.3320  219.9870 C   0  0  0  0  0  0  0  0  0  0  0  0
  140.8660   71.7030  219.3790 C   0  0  0  0  0  0  0  0  0  0  0  0
  141.5650   70.9380  218.6660 O   0  0  0  0  0  0  0  0  0  0  0  0
  141.3570   73.0170  219.6130 N   0  0  0  0  0  0  0  0  0  0  0  0
  141.2830   73.9840  218.5550 C   0  0  0  0  0  0  0  0  0  0  0  0
  142.5290   74.8150  218.4220 C   0  0  0  0  0  0  0  0  0  0  0  0
  143.1860   75.1760  219.7120 C   0  0  0  0  0  0  0  0  0  0  0  0
  143.2910   74.0330  220.6750 C   0  0  0  0  0  0  0  0  0  0  0  0
  141.9300   73.4210  220.8830 C   0  0  1  0  0  0  0  0  0  0  0  0
  141.0910   74.4930  221.5200 C   0  0  0  0  0  0  0  0  0  0  0  0
  139.8270   74.3470  221.9800 N   0  0  0  0  0  0  0  0  0  0  0  0
  139.3600   75.4980  222.4910 C   0  0  0  0  0  0  0  0  0  0  0  0
  140.3840   76.4120  222.3430 C   0  0  0  0  0  0  0  0  0  0  0  0
  141.4320   75.7810  221.7490 N   0  0  0  0  0  0  0  0  0  0  0  0
  139.6580   70.0000  223.5730 C   0  0  0  0  0  0  0  0  0  0  0  0
  138.9550   69.0930  224.3420 C   0  0  0  0  0  0  0  0  0  0  0  0
  139.0220   69.0860  225.7300 C   0  0  0  0  0  0  0  0  0  0  0  0
  139.8160   70.0160  226.3720 C   0  0  0  0  0  0  0  0  0  0  0  0
  139.9410   70.0790  227.7460 C   0  0  0  0  0  0  0  0  0  0  0  0
  140.7610   71.0440  228.3310 C   0  0  0  0  0  0  0  0  0  0  0  0
  141.4410   71.9270  227.5110 C   0  0  0  0  0  0  0  0  0  0  0  0
  141.3290   71.8780  226.1480 C   0  0  0  0  0  0  0  0  0  0  0  0
  140.5150   70.9190  225.5810 C   0  0  0  0  0  0  0  0  0  0  0  0
  140.4210   70.8900  224.2370 N   0  0  0  0  0  0  0  0  0  0  0  0
  139.7900   72.1090  221.9890 H   0  0  0  0  0  0  0  0  0  0  0  0
  139.2577   70.3639  219.5737 H   0  0  0  0  0  0  0  0  0  0  0  0
  138.8558   72.1291  219.7538 H   0  0  0  0  0  0  0  0  0  0  0  0
  141.1149   73.4523  217.6068 H   0  0  0  0  0  0  0  0  0  0  0  0
  140.4577   74.6698  218.7969 H   0  0  0  0  0  0  0  0  0  0  0  0
  143.2531   74.2501  217.8165 H   0  0  0  0  0  0  0  0  0  0  0  0
  142.2185   75.7632  217.9588 H   0  0  0  0  0  0  0  0  0  0  0  0
  144.2006   75.5413  219.4947 H   0  0  0  0  0  0  0  0  0  0  0  0
  142.5574   75.9420  220.1896 H   0  0  0  0  0  0  0  0  0  0  0  0
  143.9756   73.2738  220.2689 H   0  0  0  0  0  0  0  0  0  0  0  0
  143.6775   74.4002  221.6372 H   0  0  0  0  0  0  0  0  0  0  0  0
  141.9834   72.5214  221.5138 H   0  0  0  0  0  0  0  0  0  0  0  0
  138.3691   75.6753  222.9345 H   0  0  0  0  0  0  0  0  0  0  0  0
  140.3569   77.4674  222.6519 H   0  0  0  0  0  0  0  0  0  0  0  0
  142.3580   76.2340  221.5100 H   0  0  0  0  0  0  0  0  0  0  0  0
  138.3196   68.3500  223.8378 H   0  0  0  0  0  0  0  0  0  0  0  0
  138.4491   68.3481  226.3108 H   0  0  0  0  0  0  0  0  0  0  0  0
  139.3928   69.3668  228.3803 H   0  0  0  0  0  0  0  0  0  0  0  0
  140.8652   71.1019  229.4245 H   0  0  0  0  0  0  0  0  0  0  0  0
  142.0895   72.6894  227.9673 H   0  0  0  0  0  0  0  0  0  0  0  0
  141.8784   72.5908  225.5154 H   0  0  0  0  0  0  0  0  0  0  0  0
  1  2  2  0
  2  3  1  0
  3  4  1  0
  4  5  1  0
  5  6  2  0
  5  7  1  0
  7  8  1  0
  8  9  1  0
  9 10  1  0
 10 11  1  0
 11 12  1  0
 12 13  1  0
 13 14  2  0
 14 15  1  0
 15 16  2  0
 16 17  1  0
  2 18  1  0
 18 19  2  0
 19 20  1  0
 20 21  2  0
 21 22  1  0
 22 23  2  0
 23 24  1  0
 24 25  2  0
 25 26  1  0
 26 27  2  0
 12  7  1  0
 17 13  1  0
 27 18  1  0
 26 21  1  0
  3 28  1  0
  4 29  1  0
  4 30  1  0
  8 31  1  0
  8 32  1  0
  9 33  1  0
  9 34  1  0
 10 35  1  0
 10 36  1  0
 11 37  1  0
 11 38  1  0
 12 39  1  1
 15 40  1  0
 16 41  1  0
 17 42  1  0
 19 43  1  0
 20 44  1  0
 22 45  1  0
 23 46  1  0
 24 47  1  0
 25 48  1  0
M  END
>  <smiles>  (1) 
O=C(NCC(=O)N1CCCC[C@H]1c1ncc[nH]1)c1ccc2ccccc2n1

>  <score_type>  (1) 
oracle

>  <origin>  (1) 
autodockgpu

>  <m_score__min__energy>  (1) 
-8.5099999999999998

>  <m_primary>  (1) 
energy

>  <rmsd>  (1) 
3.013365868966793

>  <m_score__min__rmsd>  (1) 
3.013365868966793

>  <meeko>  (1) 
{"free_energy": -6.89, "intermolecular_energy": -8.38, "internal_energy": -2.23, "cluster_size": 1, "cluster_id": 4, "rank_in_cluster": 1}

>  <energy>  (1) 
-8.51

>  <cluster_rmsd>  (1) 
0.0

>  <cluster>  (1) 
1

$$$$

     RDKit          3D

 48 51  0  0  0  0  0  0  0  0999 V2000
  138.1680   75.5150  222.3750 O   0  0  0  0  0  0  0  0  0  0  0  0
  139.3460   75.9260  222.3150 C   0  0  0  0  0  0  0  0  0  0  0  0
  140.3820   75.0270  221.9370 N   0  0  0  0  0  0  0  0  0  0  0  0
  140.1470   73.6340  221.6100 C   0  0  0  0  0  0  0  0  0  0  0  0
  141.3800   72.9280  221.2240 C   0  0  0  0  0  0  0  0  0  0  0  0
  141.7870   71.8610  221.7520 O   0  0  0  0  0  0  0  0  0  0  0  0
  142.1680   73.4920  220.1820 N   0  0  0  0  0  0  0  0  0  0  0  0
  141.9070   73.1000  218.8260 C   0  0  0  0  0  0  0  0  0  0  0  0
  143.1560   72.8470  218.0300 C   0  0  0  0  0  0  0  0  0  0  0  0
  144.2910   73.7680  218.3300 C   0  0  0  0  0  0  0  0  0  0  0  0
  144.5130   73.9940  219.7950 C   0  0  0  0  0  0  0  0  0  0  0  0
  143.2280   74.4490  220.4360 C   0  0  1  0  0  0  0  0  0  0  0  0
  142.9000   75.7730  219.8030 C   0  0  0  0  0  0  0  0  0  0  0  0
  141.8440   76.5610  220.1060 N   0  0  0  0  0  0  0  0  0  0  0  0
  141.8390   77.6770  219.3590 C   0  0  0  0  0  0  0  0  0  0  0  0
  142.9500   77.5820  218.5450 C   0  0  0  0  0  0  0  0  0  0  0  0
  143.5850   76.4140  218.8310 N   0  0  0  0  0  0  0  0  0  0  0  0
  139.7150   77.2990  222.6190 C   0  0  0  0  0  0  0  0  0  0  0  0
  138.7480   78.2680  222.8070 C   0  0  0  0  0  0  0  0  0  0  0  0
  139.0660   79.5890  223.0980 C   0  0  0  0  0  0  0  0  0  0  0  0
  140.3920   79.9570  223.2040 C   0  0  0  0  0  0  0  0  0  0  0  0
  140.7970   81.2460  223.4900 C   0  0  0  0  0  0  0  0  0  0  0  0
  142.1540   81.5510  223.5830 C   0  0  0  0  0  0  0  0  0  0  0  0
  143.0780   80.5400  223.3840 C   0  0  0  0  0  0  0  0  0  0  0  0
  142.6960   79.2580  223.1000 C   0  0  0  0  0  0  0  0  0  0  0  0
  141.3500   78.9680  223.0110 C   0  0  0  0  0  0  0  0  0  0  0  0
  140.9970   77.6990  222.7310 N   0  0  0  0  0  0  0  0  0  0  0  0
  141.3790   75.3830  221.8890 H   0  0  0  0  0  0  0  0  0  0  0  0
  139.7149   73.1337  222.4892 H   0  0  0  0  0  0  0  0  0  0  0  0
  139.4624   73.6043  220.7495 H   0  0  0  0  0  0  0  0  0  0  0  0
  141.3079   72.1775  218.8383 H   0  0  0  0  0  0  0  0  0  0  0  0
  141.3754   73.9328  218.3425 H   0  0  0  0  0  0  0  0  0  0  0  0
  143.4881   71.8183  218.2335 H   0  0  0  0  0  0  0  0  0  0  0  0
  142.8900   73.0191  216.9766 H   0  0  0  0  0  0  0  0  0  0  0  0
  145.2089   73.3388  217.9019 H   0  0  0  0  0  0  0  0  0  0  0  0
  144.0383   74.7436  217.8891 H   0  0  0  0  0  0  0  0  0  0  0  0
  144.8441   73.0558  220.2642 H   0  0  0  0  0  0  0  0  0  0  0  0
  145.2838   74.7665  219.9330 H   0  0  0  0  0  0  0  0  0  0  0  0
  143.3304   74.5359  221.5278 H   0  0  0  0  0  0  0  0  0  0  0  0
  141.1041   78.4949  219.3893 H   0  0  0  0  0  0  0  0  0  0  0  0
  143.2665   78.3223  217.7955 H   0  0  0  0  0  0  0  0  0  0  0  0
  144.4710   76.0740  218.3610 H   0  0  0  0  0  0  0  0  0  0  0  0
  137.6887   77.9835  222.7233 H   0  0  0  0  0  0  0  0  0  0  0  0
  138.2693   80.3336  223.2424 H   0  0  0  0  0  0  0  0  0  0  0  0
  140.0461   82.0348  223.6450 H   0  0  0  0  0  0  0  0  0  0  0  0
  142.4841   82.5754  223.8101 H   0  0  0  0  0  0  0  0  0  0  0  0
  144.1503   80.7744  223.4564 H   0  0  0  0  0  0  0  0  0  0  0  0
  143.4491   78.4713  222.9451 H   0  0  0  0  0  0  0  0  0  0  0  0
  1  2  2  0
  2  3  1  0
  3  4  1  0
  4  5  1  0
  5  6  2  0
  5  7  1  0
  7  8  1  0
  8  9  1  0
  9 10  1  0
 10 11  1  0
 11 12  1  0
 12 13  1  0
 13 14  2  0
 14 15  1  0
 15 16  2  0
 16 17  1  0
  2 18  1  0
 18 19  2  0
 19 20  1  0
 20 21  2  0
 21 22  1  0
 22 23  2  0
 23 24  1  0
 24 25  2  0
 25 26  1  0
 26 27  2  0
 12  7  1  0
 17 13  1  0
 27 18  1  0
 26 21  1  0
  3 28  1  0
  4 29  1  0
  4 30  1  0
  8 31  1  0
  8 32  1  0
  9 33  1  0
  9 34  1  0
 10 35  1  0
 10 36  1  0
 11 37  1  0
 11 38  1  0
 12 39  1  1
 15 40  1  0
 16 41  1  0
 17 42  1  0
 19 43  1  0
 20 44  1  0
 22 45  1  0
 23 46  1  0
 24 47  1  0
 25 48  1  0
M  END
>  <smiles>  (2) 
O=C(NCC(=O)N1CCCC[C@H]1c1ncc[nH]1)c1ccc2ccccc2n1

>  <score_type>  (2) 
oracle

>  <origin>  (2) 
autodockgpu

>  <m_score__min__energy>  (2) 
-8.5099999999999998

>  <m_primary>  (2) 
energy

>  <rmsd>  (2) 
7.108625623479785

>  <m_score__min__rmsd>  (2) 
7.108625623479785

>  <meeko>  (2) 
{"free_energy": -6.53, "intermolecular_energy": -8.02, "internal_energy": -2.71, "cluster_size": 4, "cluster_id": 5, "rank_in_cluster": 4}

>  <energy>  (2) 
-8.47

>  <cluster_rmsd>  (2) 
1.01

>  <cluster>  (2) 
1

$$$$

     RDKit          3D

 48 51  0  0  0  0  0  0  0  0999 V2000
  141.0410   73.7520  221.7220 O   0  0  0  0  0  0  0  0  0  0  0  0
  140.0240   73.3810  222.3450 C   0  0  0  0  0  0  0  0  0  0  0  0
  138.8180   74.1250  222.2200 N   0  0  0  0  0  0  0  0  0  0  0  0
  138.6970   75.3110  221.3970 C   0  0  0  0  0  0  0  0  0  0  0  0
  138.9350   76.5520  222.1550 C   0  0  0  0  0  0  0  0  0  0  0  0
  138.1570   77.0160  223.0270 O   0  0  0  0  0  0  0  0  0  0  0  0
  140.1280   77.2770  221.8810 N   0  0  0  0  0  0  0  0  0  0  0  0
  141.0820   77.4660  222.9360 C   0  0  0  0  0  0  0  0  0  0  0  0
  141.6480   78.8580  222.9830 C   0  0  0  0  0  0  0  0  0  0  0  0
  141.8810   79.4880  221.6520 C   0  0  0  0  0  0  0  0  0  0  0  0
  140.7470   79.3010  220.6900 C   0  0  0  0  0  0  0  0  0  0  0  0
  140.4190   77.8350  220.5750 C   0  0  1  0  0  0  0  0  0  0  0  0
  141.6410   77.1860  219.9880 C   0  0  0  0  0  0  0  0  0  0  0  0
  142.2610   77.5440  218.8410 N   0  0  0  0  0  0  0  0  0  0  0  0
  143.3260   76.7620  218.5980 C   0  0  0  0  0  0  0  0  0  0  0  0
  143.3750   75.8680  219.6490 C   0  0  0  0  0  0  0  0  0  0  0  0
  142.3400   76.1420  220.4870 N   0  0  0  0  0  0  0  0  0  0  0  0
  140.0140   72.2080  223.2050 C   0  0  0  0  0  0  0  0  0  0  0  0
  139.4670   71.0160  222.7700 C   0  0  0  0  0  0  0  0  0  0  0  0
  139.4410   69.8760  223.5660 C   0  0  0  0  0  0  0  0  0  0  0  0
  139.9750   69.9280  224.8380 C   0  0  0  0  0  0  0  0  0  0  0  0
  139.9910   68.8450  225.6940 C   0  0  0  0  0  0  0  0  0  0  0  0
  140.5470   68.9650  226.9670 C   0  0  0  0  0  0  0  0  0  0  0  0
  141.0790   70.1840  227.3490 C   0  0  0  0  0  0  0  0  0  0  0  0
  141.0730   71.2680  226.5140 C   0  0  0  0  0  0  0  0  0  0  0  0
  140.5200   71.1370  225.2570 C   0  0  0  0  0  0  0  0  0  0  0  0
  140.5250   72.2170  224.4520 N   0  0  0  0  0  0  0  0  0  0  0  0
  137.9590   73.8040  222.7520 H   0  0  0  0  0  0  0  0  0  0  0  0
  139.4318   75.2501  220.5807 H   0  0  0  0  0  0  0  0  0  0  0  0
  137.6669   75.3469  221.0129 H   0  0  0  0  0  0  0  0  0  0  0  0
  140.5869   77.2577  223.8960 H   0  0  0  0  0  0  0  0  0  0  0  0
  141.9200   76.7796  222.7446 H   0  0  0  0  0  0  0  0  0  0  0  0
  140.9460   79.4932  223.5431 H   0  0  0  0  0  0  0  0  0  0  0  0
  142.6354   78.7727  223.4602 H   0  0  0  0  0  0  0  0  0  0  0  0
  142.0359   80.5668  221.8008 H   0  0  0  0  0  0  0  0  0  0  0  0
  142.7602   78.9944  221.2123 H   0  0  0  0  0  0  0  0  0  0  0  0
  139.8639   79.8463  221.0545 H   0  0  0  0  0  0  0  0  0  0  0  0
  141.0375   79.6891  219.7026 H   0  0  0  0  0  0  0  0  0  0  0  0
  139.5312   77.6678  219.9475 H   0  0  0  0  0  0  0  0  0  0  0  0
  144.0141   76.8215  217.7419 H   0  0  0  0  0  0  0  0  0  0  0  0
  144.1220   75.0720  219.7848 H   0  0  0  0  0  0  0  0  0  0  0  0
  142.1260   75.6160  221.3810 H   0  0  0  0  0  0  0  0  0  0  0  0
  139.0371   70.9671  221.7587 H   0  0  0  0  0  0  0  0  0  0  0  0
  138.9996   68.9428  223.1861 H   0  0  0  0  0  0  0  0  0  0  0  0
  139.5637   67.8843  225.3707 H   0  0  0  0  0  0  0  0  0  0  0  0
  140.5625   68.1067  227.6548 H   0  0  0  0  0  0  0  0  0  0  0  0
  141.5191   70.2844  228.3521 H   0  0  0  0  0  0  0  0  0  0  0  0
  141.5017   72.2273  226.8395 H   0  0  0  0  0  0  0  0  0  0  0  0
  1  2  2  0
  2  3  1  0
  3  4  1  0
  4  5  1  0
  5  6  2  0
  5  7  1  0
  7  8  1  0
  8  9  1  0
  9 10  1  0
 10 11  1  0
 11 12  1  0
 12 13  1  0
 13 14  2  0
 14 15  1  0
 15 16  2  0
 16 17  1  0
  2 18  1  0
 18 19  2  0
 19 20  1  0
 20 21  2  0
 21 22  1  0
 22 23  2  0
 23 24  1  0
 24 25  2  0
 25 26  1  0
 26 27  2  0
 12  7  1  0
 17 13  1  0
 27 18  1  0
 26 21  1  0
  3 28  1  0
  4 29  1  0
  4 30  1  0
  8 31  1  0
  8 32  1  0
  9 33  1  0
  9 34  1  0
 10 35  1  0
 10 36  1  0
 11 37  1  0
 11 38  1  0
 12 39  1  6
 15 40  1  0
 16 41  1  0
 17 42  1  0
 19 43  1  0
 20 44  1  0
 22 45  1  0
 23 46  1  0
 24 47  1  0
 25 48  1  0
M  END
>  <smiles>  (3) 
O=C(NCC(=O)N1CCCC[C@H]1c1ncc[nH]1)c1ccc2ccccc2n1

>  <score_type>  (3) 
oracle

>  <origin>  (3) 
autodockgpu

>  <m_score__min__energy>  (3) 
-8.5099999999999998

>  <m_primary>  (3) 
energy

>  <rmsd>  (3) 
3.5020768428116344

>  <m_score__min__rmsd>  (3) 
3.5020768428116344

>  <meeko>  (3) 
{"free_energy": -7.51, "intermolecular_energy": -9.0, "internal_energy": -2.24, "cluster_size": 3, "cluster_id": 3, "rank_in_cluster": 3}

>  <energy>  (3) 
-8.45

>  <cluster_rmsd>  (3) 
0.44

>  <cluster>  (3) 
1

$$$$

     RDKit          3D

 48 51  0  0  0  0  0  0  0  0999 V2000
  141.3630   72.5460  221.5860 O   0  0  0  0  0  0  0  0  0  0  0  0
  140.4480   72.6530  222.4280 C   0  0  0  0  0  0  0  0  0  0  0  0
  139.5580   73.7610  222.3570 N   0  0  0  0  0  0  0  0  0  0  0  0
  139.6530   74.7930  221.3430 C   0  0  0  0  0  0  0  0  0  0  0  0
  139.2580   76.1190  221.8480 C   0  0  0  0  0  0  0  0  0  0  0  0
  138.3400   76.3200  222.6840 O   0  0  0  0  0  0  0  0  0  0  0  0
  139.9630   77.2520  221.3560 N   0  0  0  0  0  0  0  0  0  0  0  0
  139.2480   78.2400  220.5990 C   0  0  0  0  0  0  0  0  0  0  0  0
  140.0010   78.7210  219.3910 C   0  0  0  0  0  0  0  0  0  0  0  0
  141.4750   78.8570  219.5790 C   0  0  0  0  0  0  0  0  0  0  0  0
  142.1000   77.6940  220.2890 C   0  0  0  0  0  0  0  0  0  0  0  0
  141.3810   77.4500  221.5900 C   0  0  1  0  0  0  0  0  0  0  0  0
  141.6080   78.6820  222.4210 C   0  0  0  0  0  0  0  0  0  0  0  0
  140.7010   79.2750  223.2310 N   0  0  0  0  0  0  0  0  0  0  0  0
  141.2200   80.3580  223.8330 C   0  0  0  0  0  0  0  0  0  0  0  0
  142.5200   80.4470  223.3760 C   0  0  0  0  0  0  0  0  0  0  0  0
  142.7390   79.4160  222.5170 N   0  0  0  0  0  0  0  0  0  0  0  0
  140.2450   71.6860  223.4960 C   0  0  0  0  0  0  0  0  0  0  0  0
  139.5740   70.5020  223.2600 C   0  0  0  0  0  0  0  0  0  0  0  0
  139.3620   69.5570  224.2580 C   0  0  0  0  0  0  0  0  0  0  0  0
  139.8350   69.8020  225.5320 C   0  0  0  0  0  0  0  0  0  0  0  0
  139.6690   68.9180  226.5800 C   0  0  0  0  0  0  0  0  0  0  0  0
  140.1720   69.2270  227.8430 C   0  0  0  0  0  0  0  0  0  0  0  0
  140.8350   70.4290  228.0200 C   0  0  0  0  0  0  0  0  0  0  0  0
  141.0090   71.3160  226.9930 C   0  0  0  0  0  0  0  0  0  0  0  0
  140.5070   70.9990  225.7480 C   0  0  0  0  0  0  0  0  0  0  0  0
  140.6900   71.8870  224.7520 N   0  0  0  0  0  0  0  0  0  0  0  0
  138.7830   73.8450  223.0760 H   0  0  0  0  0  0  0  0  0  0  0  0
  140.6935   74.8457  220.9899 H   0  0  0  0  0  0  0  0  0  0  0  0
  138.9624   74.5263  220.5294 H   0  0  0  0  0  0  0  0  0  0  0  0
  138.2953   77.8027  220.2656 H   0  0  0  0  0  0  0  0  0  0  0  0
  139.0969   79.1087  221.2567 H   0  0  0  0  0  0  0  0  0  0  0  0
  139.8259   78.0066  218.5731 H   0  0  0  0  0  0  0  0  0  0  0  0
  139.6241   79.7319  219.1765 H   0  0  0  0  0  0  0  0  0  0  0  0
  141.9444   78.9528  218.5888 H   0  0  0  0  0  0  0  0  0  0  0  0
  141.6391   79.7445  220.2078 H   0  0  0  0  0  0  0  0  0  0  0  0
  142.0270   76.7969  219.6566 H   0  0  0  0  0  0  0  0  0  0  0  0
  143.1579   77.9162  220.4926 H   0  0  0  0  0  0  0  0  0  0  0  0
  141.7542   76.5467  222.0947 H   0  0  0  0  0  0  0  0  0  0  0  0
  140.7156   81.0320  224.5410 H   0  0  0  0  0  0  0  0  0  0  0  0
  143.2517   81.2184  223.6581 H   0  0  0  0  0  0  0  0  0  0  0  0
  143.6500   79.2300  222.0110 H   0  0  0  0  0  0  0  0  0  0  0  0
  139.1942   70.2996  222.2477 H   0  0  0  0  0  0  0  0  0  0  0  0
  138.8232   68.6243  224.0349 H   0  0  0  0  0  0  0  0  0  0  0  0
  139.1387   67.9680  226.4178 H   0  0  0  0  0  0  0  0  0  0  0  0
  140.0443   68.5286  228.6832 H   0  0  0  0  0  0  0  0  0  0  0  0
  141.2333   70.6782  229.0146 H   0  0  0  0  0  0  0  0  0  0  0  0
  141.5399   72.2653  227.1573 H   0  0  0  0  0  0  0  0  0  0  0  0
  1  2  2  0
  2  3  1  0
  3  4  1  0
  4  5  1  0
  5  6  2  0
  5  7  1  0
  7  8  1  0
  8  9  1  0
  9 10  1  0
 10 11  1  0
 11 12  1  0
 12 13  1  0
 13 14  2  0
 14 15  1  0
 15 16  2  0
 16 17  1  0
  2 18  1  0
 18 19  2  0
 19 20  1  0
 20 21  2  0
 21 22  1  0
 22 23  2  0
 23 24  1  0
 24 25  2  0
 25 26  1  0
 26 27  2  0
 12  7  1  0
 17 13  1  0
 27 18  1  0
 26 21  1  0
  3 28  1  0
  4 29  1  0
  4 30  1  0
  8 31  1  0
  8 32  1  0
  9 33  1  0
  9 34  1  0
 10 35  1  0
 10 36  1  0
 11 37  1  0
 11 38  1  0
 12 39  1  1
 15 40  1  0
 16 41  1  0
 17 42  1  0
 19 43  1  0
 20 44  1  0
 22 45  1  0
 23 46  1  0
 24 47  1  0
 25 48  1  0
M  END
>  <smiles>  (4) 
O=C(NCC(=O)N1CCCC[C@H]1c1ncc[nH]1)c1ccc2ccccc2n1

>  <score_type>  (4) 
oracle

>  <origin>  (4) 
autodockgpu

>  <m_score__min__energy>  (4) 
-8.5099999999999998

>  <m_primary>  (4) 
energy

>  <rmsd>  (4) 
2.271513969050885

>  <m_score__min__rmsd>  (4) 
2.271513969050885

>  <meeko>  (4) 
{"free_energy": -8.47, "intermolecular_energy": -9.96, "internal_energy": -1.52, "cluster_size": 29, "cluster_id": 1, "rank_in_cluster": 2}

>  <energy>  (4) 
-8.44

>  <cluster_rmsd>  (4) 
1.03

>  <cluster>  (4) 
1

$$$$

     RDKit          3D

 48 51  0  0  0  0  0  0  0  0999 V2000
  141.2090   72.9660  221.9470 O   0  0  0  0  0  0  0  0  0  0  0  0
  140.1600   72.7410  222.5860 C   0  0  0  0  0  0  0  0  0  0  0  0
  139.0070   73.5370  222.3410 N   0  0  0  0  0  0  0  0  0  0  0  0
  138.9770   74.6160  221.3720 C   0  0  0  0  0  0  0  0  0  0  0  0
  138.8890   75.9420  222.0070 C   0  0  0  0  0  0  0  0  0  0  0  0
  138.1580   76.2150  222.9930 O   0  0  0  0  0  0  0  0  0  0  0  0
  139.6870   76.9890  221.4660 N   0  0  0  0  0  0  0  0  0  0  0  0
  139.0630   77.9770  220.6320 C   0  0  0  0  0  0  0  0  0  0  0  0
  139.8760   78.3270  219.4170 C   0  0  0  0  0  0  0  0  0  0  0  0
  141.3510   78.3680  219.6370 C   0  0  0  0  0  0  0  0  0  0  0  0
  141.8730   77.2090  220.4320 C   0  0  0  0  0  0  0  0  0  0  0  0
  141.1100   77.0990  221.7260 C   0  0  1  0  0  0  0  0  0  0  0  0
  141.4070   78.3610  222.4870 C   0  0  0  0  0  0  0  0  0  0  0  0
  140.5460   79.0310  223.2870 N   0  0  0  0  0  0  0  0  0  0  0  0
  141.1240   80.1200  223.8200 C   0  0  0  0  0  0  0  0  0  0  0  0
  142.4140   80.1320  223.3280 C   0  0  0  0  0  0  0  0  0  0  0  0
  142.5680   79.0520  222.5170 N   0  0  0  0  0  0  0  0  0  0  0  0
  140.0590   71.6890  223.5860 C   0  0  0  0  0  0  0  0  0  0  0  0
  139.4280   70.4950  223.2950 C   0  0  0  0  0  0  0  0  0  0  0  0
  139.3140   69.4690  224.2270 C   0  0  0  0  0  0  0  0  0  0  0  0
  139.8440   69.6410  225.4900 C   0  0  0  0  0  0  0  0  0  0  0  0
  139.7760   68.6760  226.4740 C   0  0  0  0  0  0  0  0  0  0  0  0
  140.3330   68.9140  227.7300 C   0  0  0  0  0  0  0  0  0  0  0  0
  140.9510   70.1300  227.9640 C   0  0  0  0  0  0  0  0  0  0  0  0
  141.0290   71.0980  227.0010 C   0  0  0  0  0  0  0  0  0  0  0  0
  140.4740   70.8500  225.7620 C   0  0  0  0  0  0  0  0  0  0  0  0
  140.5620   71.8180  224.8290 N   0  0  0  0  0  0  0  0  0  0  0  0
  138.1200   73.3410  222.8870 H   0  0  0  0  0  0  0  0  0  0  0  0
  139.8959   74.5740  220.7687 H   0  0  0  0  0  0  0  0  0  0  0  0
  138.0790   74.4826  220.7509 H   0  0  0  0  0  0  0  0  0  0  0  0
  138.0884   77.5893  220.3005 H   0  0  0  0  0  0  0  0  0  0  0  0
  138.9615   78.8934  221.2318 H   0  0  0  0  0  0  0  0  0  0  0  0
  139.6675   77.5777  218.6392 H   0  0  0  0  0  0  0  0  0  0  0  0
  139.5789   79.3468  219.1311 H   0  0  0  0  0  0  0  0  0  0  0  0
  141.8488   78.3688  218.6561 H   0  0  0  0  0  0  0  0  0  0  0  0
  141.5650   79.2783  220.2163 H   0  0  0  0  0  0  0  0  0  0  0  0
  141.7476   76.2820  219.8532 H   0  0  0  0  0  0  0  0  0  0  0  0
  142.9398   77.3661  220.6493 H   0  0  0  0  0  0  0  0  0  0  0  0
  141.4057   76.2050  222.2946 H   0  0  0  0  0  0  0  0  0  0  0  0
  140.6659   80.8490  224.5046 H   0  0  0  0  0  0  0  0  0  0  0  0
  143.1837   80.8849  223.5532 H   0  0  0  0  0  0  0  0  0  0  0  0
  143.4580   78.8030  221.9990 H   0  0  0  0  0  0  0  0  0  0  0  0
  139.0010   70.3508  222.2916 H   0  0  0  0  0  0  0  0  0  0  0  0
  138.8067   68.5301  223.9605 H   0  0  0  0  0  0  0  0  0  0  0  0
  139.2808   67.7159  226.2669 H   0  0  0  0  0  0  0  0  0  0  0  0
  140.2821   68.1499  228.5197 H   0  0  0  0  0  0  0  0  0  0  0  0
  141.3921   70.3235  228.9529 H   0  0  0  0  0  0  0  0  0  0  0  0
  141.5253   72.0571  227.2103 H   0  0  0  0  0  0  0  0  0  0  0  0
  1  2  2  0
  2  3  1  0
  3  4  1  0
  4  5  1  0
  5  6  2  0
  5  7  1  0
  7  8  1  0
  8  9  1  0
  9 10  1  0
 10 11  1  0
 11 12  1  0
 12 13  1  0
 13 14  2  0
 14 15  1  0
 15 16  2  0
 16 17  1  0
  2 18  1  0
 18 19  2  0
 19 20  1  0
 20 21  2  0
 21 22  1  0
 22 23  2  0
 23 24  1  0
 24 25  2  0
 25 26  1  0
 26 27  2  0
 12  7  1  0
 17 13  1  0
 27 18  1  0
 26 21  1  0
  3 28  1  0
  4 29  1  0
  4 30  1  0
  8 31  1  0
  8 32  1  0
  9 33  1  0
  9 34  1  0
 10 35  1  0
 10 36  1  0
 11 37  1  0
 11 38  1  0
 12 39  1  1
 15 40  1  0
 16 41  1  0
 17 42  1  0
 19 43  1  0
 20 44  1  0
 22 45  1  0
 23 46  1  0
 24 47  1  0
 25 48  1  0
M  END
>  <smiles>  (5) 
O=C(NCC(=O)N1CCCC[C@H]1c1ncc[nH]1)c1ccc2ccccc2n1

>  <score_type>  (5) 
oracle

>  <origin>  (5) 
autodockgpu

>  <m_score__min__energy>  (5) 
-8.5099999999999998

>  <m_primary>  (5) 
energy

>  <rmsd>  (5) 
2.1430719288679194

>  <m_score__min__rmsd>  (5) 
2.1430719288679194

>  <meeko>  (5) 
{"free_energy": -8.38, "intermolecular_energy": -9.87, "internal_energy": -1.42, "cluster_size": 29, "cluster_id": 1, "rank_in_cluster": 9}

>  <energy>  (5) 
-8.42

>  <cluster_rmsd>  (5) 
1.03

>  <cluster>  (5) 
1

$$$$

     RDKit          3D

 48 51  0  0  0  0  0  0  0  0999 V2000
  140.5000   71.6350  221.2890 O   0  0  0  0  0  0  0  0  0  0  0  0
  139.8310   71.9610  222.2920 C   0  0  0  0  0  0  0  0  0  0  0  0
  138.9030   73.0350  222.1940 N   0  0  0  0  0  0  0  0  0  0  0  0
  138.6830   73.7870  220.9750 C   0  0  0  0  0  0  0  0  0  0  0  0
  138.7040   75.2430  221.1980 C   0  0  0  0  0  0  0  0  0  0  0  0
  137.6830   75.9490  221.4010 O   0  0  0  0  0  0  0  0  0  0  0  0
  139.9670   75.8980  221.1840 N   0  0  0  0  0  0  0  0  0  0  0  0
  140.4500   76.5020  222.3940 C   0  0  0  0  0  0  0  0  0  0  0  0
  141.0700   77.8530  222.1760 C   0  0  0  0  0  0  0  0  0  0  0  0
  141.8560   77.9900  220.9160 C   0  0  0  0  0  0  0  0  0  0  0  0
  141.1720   77.4100  219.7140 C   0  0  0  0  0  0  0  0  0  0  0  0
  140.7900   75.9800  219.9920 C   0  0  1  0  0  0  0  0  0  0  0  0
  142.0830   75.2410  220.1970 C   0  0  0  0  0  0  0  0  0  0  0  0
  143.2970   75.6170  219.7330 N   0  0  0  0  0  0  0  0  0  0  0  0
  144.2480   74.7380  220.0900 C   0  0  0  0  0  0  0  0  0  0  0  0
  143.5950   73.7620  220.8150 C   0  0  0  0  0  0  0  0  0  0  0  0
  142.2760   74.0860  220.8700 N   0  0  0  0  0  0  0  0  0  0  0  0
  139.9580   71.2870  223.5740 C   0  0  0  0  0  0  0  0  0  0  0  0
  139.5800   69.9660  223.7200 C   0  0  0  0  0  0  0  0  0  0  0  0
  139.6880   69.2910  224.9310 C   0  0  0  0  0  0  0  0  0  0  0  0
  140.1880   69.9570  226.0330 C   0  0  0  0  0  0  0  0  0  0  0  0
  140.3290   69.3640  227.2710 C   0  0  0  0  0  0  0  0  0  0  0  0
  140.8410   70.0940  228.3440 C   0  0  0  0  0  0  0  0  0  0  0  0
  141.2020   71.4140  228.1390 C   0  0  0  0  0  0  0  0  0  0  0  0
  141.0700   72.0170  226.9180 C   0  0  0  0  0  0  0  0  0  0  0  0
  140.5620   71.2850  225.8650 C   0  0  0  0  0  0  0  0  0  0  0  0
  140.4410   71.9000  224.6730 N   0  0  0  0  0  0  0  0  0  0  0  0
  138.3400   73.3060  223.0500 H   0  0  0  0  0  0  0  0  0  0  0  0
  139.4730   73.5292  220.2542 H   0  0  0  0  0  0  0  0  0  0  0  0
  137.6856   73.5218  220.5945 H   0  0  0  0  0  0  0  0  0  0  0  0
  139.6056   76.6133  223.0901 H   0  0  0  0  0  0  0  0  0  0  0  0
  141.2343   75.8441  222.7966 H   0  0  0  0  0  0  0  0  0  0  0  0
  140.2627   78.5999  222.1575 H   0  0  0  0  0  0  0  0  0  0  0  0
  141.7829   78.0007  223.0006 H   0  0  0  0  0  0  0  0  0  0  0  0
  142.0340   79.0598  220.7321 H   0  0  0  0  0  0  0  0  0  0  0  0
  142.7909   77.4278  221.0570 H   0  0  0  0  0  0  0  0  0  0  0  0
  140.2670   77.9940  219.4903 H   0  0  0  0  0  0  0  0  0  0  0  0
  141.8548   77.4451  218.8523 H   0  0  0  0  0  0  0  0  0  0  0  0
  140.2055   75.5507  219.1649 H   0  0  0  0  0  0  0  0  0  0  0  0
  145.3213   74.7860  219.8541 H   0  0  0  0  0  0  0  0  0  0  0  0
  144.0612   72.8754  221.2696 H   0  0  0  0  0  0  0  0  0  0  0  0
  141.5300   73.5180  221.3630 H   0  0  0  0  0  0  0  0  0  0  0  0
  139.1795   69.4293  222.8474 H   0  0  0  0  0  0  0  0  0  0  0  0
  139.3787   68.2384  225.0105 H   0  0  0  0  0  0  0  0  0  0  0  0
  140.0369   68.3129  227.4122 H   0  0  0  0  0  0  0  0  0  0  0  0
  140.9556   69.6290  229.3343 H   0  0  0  0  0  0  0  0  0  0  0  0
  141.6063   71.9947  228.9812 H   0  0  0  0  0  0  0  0  0  0  0  0
  141.3640   73.0677  226.7784 H   0  0  0  0  0  0  0  0  0  0  0  0
  1  2  2  0
  2  3  1  0
  3  4  1  0
  4  5  1  0
  5  6  2  0
  5  7  1  0
  7  8  1  0
  8  9  1  0
  9 10  1  0
 10 11  1  0
 11 12  1  0
 12 13  1  0
 13 14  2  0
 14 15  1  0
 15 16  2  0
 16 17  1  0
  2 18  1  0
 18 19  2  0
 19 20  1  0
 20 21  2  0
 21 22  1  0
 22 23  2  0
 23 24  1  0
 24 25  2  0
 25 26  1  0
 26 27  2  0
 12  7  1  0
 17 13  1  0
 27 18  1  0
 26 21  1  0
  3 28  1  0
  4 29  1  0
  4 30  1  0
  8 31  1  0
  8 32  1  0
  9 33  1  0
  9 34  1  0
 10 35  1  0
 10 36  1  0
 11 37  1  0
 11 38  1  0
 12 39  1  6
 15 40  1  0
 16 41  1  0
 17 42  1  0
 19 43  1  0
 20 44  1  0
 22 45  1  0
 23 46  1  0
 24 47  1  0
 25 48  1  0
M  END
>  <smiles>  (6) 
O=C(NCC(=O)N1CCCC[C@H]1c1ncc[nH]1)c1ccc2ccccc2n1

>  <score_type>  (6) 
oracle

>  <origin>  (6) 
autodockgpu

>  <m_score__min__energy>  (6) 
-8.5099999999999998

>  <m_primary>  (6) 
energy

>  <rmsd>  (6) 
3.2114062576148705

>  <m_score__min__rmsd>  (6) 
3.2114062576148705

>  <meeko>  (6) 
{"free_energy": -7.32, "intermolecular_energy": -8.81, "internal_energy": -2.33, "cluster_size": 13, "cluster_id": 2, "rank_in_cluster": 12}

>  <energy>  (6) 
-8.41

>  <cluster_rmsd>  (6) 
1.02

>  <cluster>  (6) 
1

$$$$

     RDKit          3D

 48 51  0  0  0  0  0  0  0  0999 V2000
  138.9090   71.0520  221.5560 O   0  0  0  0  0  0  0  0  0  0  0  0
  139.3220   71.5350  222.6320 C   0  0  0  0  0  0  0  0  0  0  0  0
  139.5990   72.9280  222.7110 N   0  0  0  0  0  0  0  0  0  0  0  0
  139.4270   73.8380  221.5960 C   0  0  0  0  0  0  0  0  0  0  0  0
  140.4200   74.9260  221.5960 C   0  0  0  0  0  0  0  0  0  0  0  0
  141.6560   74.7650  221.4260 O   0  0  0  0  0  0  0  0  0  0  0  0
  139.9490   76.2520  221.8020 N   0  0  0  0  0  0  0  0  0  0  0  0
  138.8500   76.4670  222.7000 C   0  0  0  0  0  0  0  0  0  0  0  0
  137.8400   77.4500  222.1780 C   0  0  0  0  0  0  0  0  0  0  0  0
  138.4140   78.6010  221.4210 C   0  0  0  0  0  0  0  0  0  0  0  0
  139.4750   78.2060  220.4390 C   0  0  0  0  0  0  0  0  0  0  0  0
  140.5380   77.4010  221.1400 C   0  0  1  0  0  0  0  0  0  0  0  0
  141.1560   78.3270  222.1490 C   0  0  0  0  0  0  0  0  0  0  0  0
  140.6600   78.6180  223.3740 N   0  0  0  0  0  0  0  0  0  0  0  0
  141.4540   79.4810  224.0280 C   0  0  0  0  0  0  0  0  0  0  0  0
  142.5010   79.7450  223.1690 C   0  0  0  0  0  0  0  0  0  0  0  0
  142.3030   79.0320  222.0280 N   0  0  0  0  0  0  0  0  0  0  0  0
  139.5380   70.7300  223.8240 C   0  0  0  0  0  0  0  0  0  0  0  0
  139.1920   69.3920  223.8470 C   0  0  0  0  0  0  0  0  0  0  0  0
  139.3840   68.5950  224.9690 C   0  0  0  0  0  0  0  0  0  0  0  0
  139.9370   69.1500  226.1060 C   0  0  0  0  0  0  0  0  0  0  0  0
  140.1620   68.4310  227.2620 C   0  0  0  0  0  0  0  0  0  0  0  0
  140.7260   69.0520  228.3760 C   0  0  0  0  0  0  0  0  0  0  0  0
  141.0510   70.3950  228.2950 C   0  0  0  0  0  0  0  0  0  0  0  0
  140.8350   71.1230  227.1570 C   0  0  0  0  0  0  0  0  0  0  0  0
  140.2780   70.4960  226.0620 C   0  0  0  0  0  0  0  0  0  0  0  0
  140.0740   71.2330  224.9530 N   0  0  0  0  0  0  0  0  0  0  0  0
  139.9500   73.3310  223.6270 H   0  0  0  0  0  0  0  0  0  0  0  0
  139.5261   73.2702  220.6591 H   0  0  0  0  0  0  0  0  0  0  0  0
  138.4309   74.2953  221.6891 H   0  0  0  0  0  0  0  0  0  0  0  0
  138.3450   75.5048  222.8706 H   0  0  0  0  0  0  0  0  0  0  0  0
  139.2647   76.8874  223.6280 H   0  0  0  0  0  0  0  0  0  0  0  0
  137.1525   76.9107  221.5098 H   0  0  0  0  0  0  0  0  0  0  0  0
  137.3435   77.8791  223.0608 H   0  0  0  0  0  0  0  0  0  0  0  0
  137.5997   79.0966  220.8721 H   0  0  0  0  0  0  0  0  0  0  0  0
  138.8886   79.2660  222.1575 H   0  0  0  0  0  0  0  0  0  0  0  0
  139.0255   77.6003  219.6383 H   0  0  0  0  0  0  0  0  0  0  0  0
  139.9275   79.1106  220.0066 H   0  0  0  0  0  0  0  0  0  0  0  0
  141.2869   77.0173  220.4315 H   0  0  0  0  0  0  0  0  0  0  0  0
  141.3017   79.8915  225.0371 H   0  0  0  0  0  0  0  0  0  0  0  0
  143.3488   80.4158  223.3719 H   0  0  0  0  0  0  0  0  0  0  0  0
  142.9490   79.0370  221.1890 H   0  0  0  0  0  0  0  0  0  0  0  0
  138.7493   68.9425  222.9459 H   0  0  0  0  0  0  0  0  0  0  0  0
  139.0984   67.5329  224.9516 H   0  0  0  0  0  0  0  0  0  0  0  0
  139.8957   67.3646  227.3050 H   0  0  0  0  0  0  0  0  0  0  0  0
  140.9090   68.4856  229.3010 H   0  0  0  0  0  0  0  0  0  0  0  0
  141.4955   70.8910  229.1704 H   0  0  0  0  0  0  0  0  0  0  0  0
  141.1009   72.1896  227.1160 H   0  0  0  0  0  0  0  0  0  0  0  0
  1  2  2  0
  2  3  1  0
  3  4  1  0
  4  5  1  0
  5  6  2  0
  5  7  1  0
  7  8  1  0
  8  9  1  0
  9 10  1  0
 10 11  1  0
 11 12  1  0
 12 13  1  0
 13 14  2  0
 14 15  1  0
 15 16  2  0
 16 17  1  0
  2 18  1  0
 18 19  2  0
 19 20  1  0
 20 21  2  0
 21 22  1  0
 22 23  2  0
 23 24  1  0
 24 25  2  0
 25 26  1  0
 26 27  2  0
 12  7  1  0
 17 13  1  0
 27 18  1  0
 26 21  1  0
  3 28  1  0
  4 29  1  0
  4 30  1  0
  8 31  1  0
  8 32  1  0
  9 33  1  0
  9 34  1  0
 10 35  1  0
 10 36  1  0
 11 37  1  0
 11 38  1  0
 12 39  1  6
 15 40  1  0
 16 41  1  0
 17 42  1  0
 19 43  1  0
 20 44  1  0
 22 45  1  0
 23 46  1  0
 24 47  1  0
 25 48  1  0
M  END
>  <smiles>  (7) 
O=C(NCC(=O)N1CCCC[C@H]1c1ncc[nH]1)c1ccc2ccccc2n1

>  <score_type>  (7) 
oracle

>  <origin>  (7) 
autodockgpu

>  <m_score__min__energy>  (7) 
-8.5099999999999998

>  <m_primary>  (7) 
energy

>  <rmsd>  (7) 
2.386643322702756

>  <m_score__min__rmsd>  (7) 
2.386643322702756

>  <meeko>  (7) 
{"free_energy": -8.04, "intermolecular_energy": -9.53, "internal_energy": -1.46, "cluster_size": 29, "cluster_id": 1, "rank_in_cluster": 24}

>  <energy>  (7) 
-8.41

>  <cluster_rmsd>  (7) 
1.01

>  <cluster>  (7) 
1

$$$$

     RDKit          3D

 48 51  0  0  0  0  0  0  0  0999 V2000
  140.8110   71.4970  221.2590 O   0  0  0  0  0  0  0  0  0  0  0  0
  140.3490   72.0360  222.2860 C   0  0  0  0  0  0  0  0  0  0  0  0
  139.9150   73.3900  222.2300 N   0  0  0  0  0  0  0  0  0  0  0  0
  139.9790   74.1960  221.0270 C   0  0  0  0  0  0  0  0  0  0  0  0
  140.9250   75.3180  221.1490 C   0  0  0  0  0  0  0  0  0  0  0  0
  142.1630   75.2340  220.9420 O   0  0  0  0  0  0  0  0  0  0  0  0
  140.4040   76.5870  221.5270 N   0  0  0  0  0  0  0  0  0  0  0  0
  139.2930   76.6380  222.4350 C   0  0  0  0  0  0  0  0  0  0  0  0
  138.2490   77.6450  222.0390 C   0  0  0  0  0  0  0  0  0  0  0  0
  138.7830   78.9070  221.4500 C   0  0  0  0  0  0  0  0  0  0  0  0
  139.8630   78.6870  220.4340 C   0  0  0  0  0  0  0  0  0  0  0  0
  140.9520   77.8350  221.0300 C   0  0  1  0  0  0  0  0  0  0  0  0
  141.5300   78.6390  222.1610 C   0  0  0  0  0  0  0  0  0  0  0  0
  141.1460   78.5830  223.4570 N   0  0  0  0  0  0  0  0  0  0  0  0
  141.8630   79.4300  224.2140 C   0  0  0  0  0  0  0  0  0  0  0  0
  142.7410   80.0480  223.3470 C   0  0  0  0  0  0  0  0  0  0  0  0
  142.5240   79.5530  222.1000 N   0  0  0  0  0  0  0  0  0  0  0  0
  140.2310   71.3370  223.5560 C   0  0  0  0  0  0  0  0  0  0  0  0
  139.6300   70.0950  223.6270 C   0  0  0  0  0  0  0  0  0  0  0  0
  139.5010   69.3990  224.8240 C   0  0  0  0  0  0  0  0  0  0  0  0
  139.9860   69.9620  225.9880 C   0  0  0  0  0  0  0  0  0  0  0  0
  139.9000   69.3410  227.2180 C   0  0  0  0  0  0  0  0  0  0  0  0
  140.4120   69.9650  228.3560 C   0  0  0  0  0  0  0  0  0  0  0  0
  141.0030   71.2090  228.2230 C   0  0  0  0  0  0  0  0  0  0  0  0
  141.0970   71.8390  227.0120 C   0  0  0  0  0  0  0  0  0  0  0  0
  140.5880   71.2120  225.8940 C   0  0  0  0  0  0  0  0  0  0  0  0
  140.6920   71.8510  224.7130 N   0  0  0  0  0  0  0  0  0  0  0  0
  139.5240   73.8410  223.1060 H   0  0  0  0  0  0  0  0  0  0  0  0
  140.2966   73.5563  220.1904 H   0  0  0  0  0  0  0  0  0  0  0  0
  138.9786   74.6198  220.8552 H   0  0  0  0  0  0  0  0  0  0  0  0
  138.8240   75.6436  222.4695 H   0  0  0  0  0  0  0  0  0  0  0  0
  139.6865   76.9441  223.4155 H   0  0  0  0  0  0  0  0  0  0  0  0
  137.5861   77.1758  221.2971 H   0  0  0  0  0  0  0  0  0  0  0  0
  137.7317   77.9328  222.9661 H   0  0  0  0  0  0  0  0  0  0  0  0
  137.9534   79.4423  220.9649 H   0  0  0  0  0  0  0  0  0  0  0  0
  139.2289   79.4833  222.2740 H   0  0  0  0  0  0  0  0  0  0  0  0
  139.4404   78.1786  219.5549 H   0  0  0  0  0  0  0  0  0  0  0  0
  140.2831   79.6577  220.1318 H   0  0  0  0  0  0  0  0  0  0  0  0
  141.7175   77.5780  220.2830 H   0  0  0  0  0  0  0  0  0  0  0  0
  141.7699   79.5961  225.2974 H   0  0  0  0  0  0  0  0  0  0  0  0
  143.4872   80.8093  223.6182 H   0  0  0  0  0  0  0  0  0  0  0  0
  143.0540   79.8440  221.2300 H   0  0  0  0  0  0  0  0  0  0  0  0
  139.2398   69.6407  222.7043 H   0  0  0  0  0  0  0  0  0  0  0  0
  139.0180   68.4109  224.8434 H   0  0  0  0  0  0  0  0  0  0  0  0
  139.4265   68.3516  227.3010 H   0  0  0  0  0  0  0  0  0  0  0  0
  140.3471   69.4774  229.3399 H   0  0  0  0  0  0  0  0  0  0  0  0
  141.4090   71.7058  229.1165 H   0  0  0  0  0  0  0  0  0  0  0  0
  141.5704   72.8286  226.9315 H   0  0  0  0  0  0  0  0  0  0  0  0
  1  2  2  0
  2  3  1  0
  3  4  1  0
  4  5  1  0
  5  6  2  0
  5  7  1  0
  7  8  1  0
  8  9  1  0
  9 10  1  0
 10 11  1  0
 11 12  1  0
 12 13  1  0
 13 14  2  0
 14 15  1  0
 15 16  2  0
 16 17  1  0
  2 18  1  0
 18 19  2  0
 19 20  1  0
 20 21  2  0
 21 22  1  0
 22 23  2  0
 23 24  1  0
 24 25  2  0
 25 26  1  0
 26 27  2  0
 12  7  1  0
 17 13  1  0
 27 18  1  0
 26 21  1  0
  3 28  1  0
  4 29  1  0
  4 30  1  0
  8 31  1  0
  8 32  1  0
  9 33  1  0
  9 34  1  0
 10 35  1  0
 10 36  1  0
 11 37  1  0
 11 38  1  0
 12 39  1  6
 15 40  1  0
 16 41  1  0
 17 42  1  0
 19 43  1  0
 20 44  1  0
 22 45  1  0
 23 46  1  0
 24 47  1  0
 25 48  1  0
M  END
>  <smiles>  (8) 
O=C(NCC(=O)N1CCCC[C@H]1c1ncc[nH]1)c1ccc2ccccc2n1

>  <score_type>  (8) 
oracle

>  <origin>  (8) 
autodockgpu

>  <m_score__min__energy>  (8) 
-8.5099999999999998

>  <m_primary>  (8) 
energy

>  <rmsd>  (8) 
2.496617932058294

>  <m_score__min__rmsd>  (8) 
2.496617932058294

>  <meeko>  (8) 
{"free_energy": -8.45, "intermolecular_energy": -9.95, "internal_energy": -1.3, "cluster_size": 29, "cluster_id": 1, "rank_in_cluster": 3}

>  <energy>  (8) 
-8.38

>  <cluster_rmsd>  (8) 
1.11

>  <cluster>  (8) 
1

$$$$

     RDKit          3D

 48 51  0  0  0  0  0  0  0  0999 V2000
  140.6530   71.6150  221.2280 O   0  0  0  0  0  0  0  0  0  0  0  0
  139.9290   71.9840  222.1760 C   0  0  0  0  0  0  0  0  0  0  0  0
  139.0550   73.0920  221.9980 N   0  0  0  0  0  0  0  0  0  0  0  0
  138.9530   73.8330  220.7560 C   0  0  0  0  0  0  0  0  0  0  0  0
  138.8720   75.2880  220.9720 C   0  0  0  0  0  0  0  0  0  0  0  0
  137.7990   75.9380  221.0590 O   0  0  0  0  0  0  0  0  0  0  0  0
  140.0930   76.0090  221.0890 N   0  0  0  0  0  0  0  0  0  0  0  0
  140.5100   76.4610  222.3850 C   0  0  0  0  0  0  0  0  0  0  0  0
  141.0510   77.8630  222.3800 C   0  0  0  0  0  0  0  0  0  0  0  0
  141.8550   78.2230  221.1760 C   0  0  0  0  0  0  0  0  0  0  0  0
  141.2360   77.7810  219.8840 C   0  0  0  0  0  0  0  0  0  0  0  0
  140.9350   76.3070  219.9460 C   0  0  1  0  0  0  0  0  0  0  0  0
  142.2670   75.6220  220.0850 C   0  0  0  0  0  0  0  0  0  0  0  0
  142.4650   74.3270  220.4250 N   0  0  0  0  0  0  0  0  0  0  0  0
  143.7750   74.0290  220.4600 C   0  0  0  0  0  0  0  0  0  0  0  0
  144.4290   75.1980  220.1260 C   0  0  0  0  0  0  0  0  0  0  0  0
  143.4940   76.1580  219.9000 N   0  0  0  0  0  0  0  0  0  0  0  0
  139.9370   71.3260  223.4730 C   0  0  0  0  0  0  0  0  0  0  0  0
  139.3770   70.0730  223.6350 C   0  0  0  0  0  0  0  0  0  0  0  0
  139.3670   69.4160  224.8600 C   0  0  0  0  0  0  0  0  0  0  0  0
  139.9330   70.0300  225.9600 C   0  0  0  0  0  0  0  0  0  0  0  0
  139.9670   69.4490  227.2120 C   0  0  0  0  0  0  0  0  0  0  0  0
  140.5550   70.1240  228.2820 C   0  0  0  0  0  0  0  0  0  0  0  0
  141.1000   71.3760  228.0610 C   0  0  0  0  0  0  0  0  0  0  0  0
  141.0750   71.9670  226.8260 C   0  0  0  0  0  0  0  0  0  0  0  0
  140.4910   71.2890  225.7760 C   0  0  0  0  0  0  0  0  0  0  0  0
  140.4790   71.8900  224.5700 N   0  0  0  0  0  0  0  0  0  0  0  0
  138.4430   73.3990  222.8080 H   0  0  0  0  0  0  0  0  0  0  0  0
  139.8397   73.6164  220.1422 H   0  0  0  0  0  0  0  0  0  0  0  0
  138.0265   73.5176  220.2538 H   0  0  0  0  0  0  0  0  0  0  0  0
  139.6447   76.4231  223.0631 H   0  0  0  0  0  0  0  0  0  0  0  0
  141.3242   75.7988  222.7145 H   0  0  0  0  0  0  0  0  0  0  0  0
  140.2003   78.5575  222.4427 H   0  0  0  0  0  0  0  0  0  0  0  0
  141.7347   77.9323  223.2389 H   0  0  0  0  0  0  0  0  0  0  0  0
  141.9703   79.3166  221.1496 H   0  0  0  0  0  0  0  0  0  0  0  0
  142.8193   77.7014  221.2656 H   0  0  0  0  0  0  0  0  0  0  0  0
  140.3027   78.3384  219.7157 H   0  0  0  0  0  0  0  0  0  0  0  0
  141.9358   77.9764  219.0581 H   0  0  0  0  0  0  0  0  0  0  0  0
  140.3956   75.9672  219.0496 H   0  0  0  0  0  0  0  0  0  0  0  0
  144.2304   73.0578  220.7036 H   0  0  0  0  0  0  0  0  0  0  0  0
  145.5188   75.3297  220.0551 H   0  0  0  0  0  0  0  0  0  0  0  0
  143.7040   77.1590  219.6250 H   0  0  0  0  0  0  0  0  0  0  0  0
  138.9231   69.5780  222.7638 H   0  0  0  0  0  0  0  0  0  0  0  0
  138.9133   68.4182  224.9522 H   0  0  0  0  0  0  0  0  0  0  0  0
  139.5295   68.4516  227.3662 H   0  0  0  0  0  0  0  0  0  0  0  0
  140.5847   69.6690  229.2830 H   0  0  0  0  0  0  0  0  0  0  0  0
  141.5665   71.9118  228.9008 H   0  0  0  0  0  0  0  0  0  0  0  0
  141.5128   72.9646  226.6739 H   0  0  0  0  0  0  0  0  0  0  0  0
  1  2  2  0
  2  3  1  0
  3  4  1  0
  4  5  1  0
  5  6  2  0
  5  7  1  0
  7  8  1  0
  8  9  1  0
  9 10  1  0
 10 11  1  0
 11 12  1  0
 12 13  1  0
 13 14  2  0
 14 15  1  0
 15 16  2  0
 16 17  1  0
  2 18  1  0
 18 19  2  0
 19 20  1  0
 20 21  2  0
 21 22  1  0
 22 23  2  0
 23 24  1  0
 24 25  2  0
 25 26  1  0
 26 27  2  0
 12  7  1  0
 17 13  1  0
 27 18  1  0
 26 21  1  0
  3 28  1  0
  4 29  1  0
  4 30  1  0
  8 31  1  0
  8 32  1  0
  9 33  1  0
  9 34  1  0
 10 35  1  0
 10 36  1  0
 11 37  1  0
 11 38  1  0
 12 39  1  6
 15 40  1  0
 16 41  1  0
 17 42  1  0
 19 43  1  0
 20 44  1  0
 22 45  1  0
 23 46  1  0
 24 47  1  0
 25 48  1  0
M  END
>  <smiles>  (9) 
O=C(NCC(=O)N1CCCC[C@H]1c1ncc[nH]1)c1ccc2ccccc2n1

>  <score_type>  (9) 
oracle

>  <origin>  (9) 
autodockgpu

>  <m_score__min__energy>  (9) 
-8.5099999999999998

>  <m_primary>  (9) 
energy

>  <rmsd>  (9) 
3.167031166611309

>  <m_score__min__rmsd>  (9) 
3.167031166611309

>  <meeko>  (9) 
{"free_energy": -7.86, "intermolecular_energy": -9.36, "internal_energy": -1.56, "cluster_size": 13, "cluster_id": 2, "rank_in_cluster": 6}

>  <energy>  (9) 
-8.38

>  <cluster_rmsd>  (9) 
1.1

>  <cluster>  (9) 
1

$$$$

     RDKit          3D

 48 51  0  0  0  0  0  0  0  0999 V2000
  141.4670   72.3920  221.6110 O   0  0  0  0  0  0  0  0  0  0  0  0
  140.5480   72.5520  222.4410 C   0  0  0  0  0  0  0  0  0  0  0  0
  139.7110   73.6980  222.3450 N   0  0  0  0  0  0  0  0  0  0  0  0
  139.8650   74.7110  221.3200 C   0  0  0  0  0  0  0  0  0  0  0  0
  139.1210   75.9450  221.6280 C   0  0  0  0  0  0  0  0  0  0  0  0
  137.9920   75.9780  222.1810 O   0  0  0  0  0  0  0  0  0  0  0  0
  139.7210   77.1860  221.2770 N   0  0  0  0  0  0  0  0  0  0  0  0
  138.8780   78.2750  220.8740 C   0  0  0  0  0  0  0  0  0  0  0  0
  139.4090   79.0290  219.6870 C   0  0  0  0  0  0  0  0  0  0  0  0
  140.8910   79.1890  219.6530 C   0  0  0  0  0  0  0  0  0  0  0  0
  141.6400   77.9340  219.9890 C   0  0  0  0  0  0  0  0  0  0  0  0
  141.1560   77.3950  221.3090 C   0  0  1  0  0  0  0  0  0  0  0  0
  141.5100   78.4380  222.3330 C   0  0  0  0  0  0  0  0  0  0  0  0
  140.8200   78.7110  223.4640 N   0  0  0  0  0  0  0  0  0  0  0  0
  141.4020   79.7000  224.1620 C   0  0  0  0  0  0  0  0  0  0  0  0
  142.5140   80.0650  223.4300 C   0  0  0  0  0  0  0  0  0  0  0  0
  142.5640   79.2850  222.3180 N   0  0  0  0  0  0  0  0  0  0  0  0
  140.2890   71.6090  223.5180 C   0  0  0  0  0  0  0  0  0  0  0  0
  139.6050   70.4330  223.2800 C   0  0  0  0  0  0  0  0  0  0  0  0
  139.3400   69.5100  224.2860 C   0  0  0  0  0  0  0  0  0  0  0  0
  139.7700   69.7710  225.5720 C   0  0  0  0  0  0  0  0  0  0  0  0
  139.5500   68.9110  226.6290 C   0  0  0  0  0  0  0  0  0  0  0  0
  140.0120   69.2350  227.9040 C   0  0  0  0  0  0  0  0  0  0  0  0
  140.6900   70.4280  228.0830 C   0  0  0  0  0  0  0  0  0  0  0  0
  140.9170   71.2920  227.0470 C   0  0  0  0  0  0  0  0  0  0  0  0
  140.4560   70.9600  225.7900 C   0  0  0  0  0  0  0  0  0  0  0  0
  140.6910   71.8260  224.7860 N   0  0  0  0  0  0  0  0  0  0  0  0
  138.9330   73.8270  223.0530 H   0  0  0  0  0  0  0  0  0  0  0  0
  140.9329   74.9575  221.2256 H   0  0  0  0  0  0  0  0  0  0  0  0
  139.4593   74.3019  220.3830 H   0  0  0  0  0  0  0  0  0  0  0  0
  137.8867   77.8730  220.6176 H   0  0  0  0  0  0  0  0  0  0  0  0
  138.8331   78.9816  221.7158 H   0  0  0  0  0  0  0  0  0  0  0  0
  139.1029   78.4921  218.7770 H   0  0  0  0  0  0  0  0  0  0  0  0
  138.9919   80.0445  219.7565 H   0  0  0  0  0  0  0  0  0  0  0  0
  141.1829   79.5075  218.6414 H   0  0  0  0  0  0  0  0  0  0  0  0
  141.1518   79.9342  220.4189 H   0  0  0  0  0  0  0  0  0  0  0  0
  141.4692   77.1841  219.2026 H   0  0  0  0  0  0  0  0  0  0  0  0
  142.7149   78.1574  220.0576 H   0  0  0  0  0  0  0  0  0  0  0  0
  141.6186   76.4245  221.5420 H   0  0  0  0  0  0  0  0  0  0  0  0
  141.0635   80.1291  225.1166 H   0  0  0  0  0  0  0  0  0  0  0  0
  143.2348   80.8509  223.6999 H   0  0  0  0  0  0  0  0  0  0  0  0
  143.3110   79.3400  221.5690 H   0  0  0  0  0  0  0  0  0  0  0  0
  139.2575   70.2188  222.2585 H   0  0  0  0  0  0  0  0  0  0  0  0
  138.7939   68.5823  224.0598 H   0  0  0  0  0  0  0  0  0  0  0  0
  139.0088   67.9675  226.4650 H   0  0  0  0  0  0  0  0  0  0  0  0
  139.8408   68.5551  228.7516 H   0  0  0  0  0  0  0  0  0  0  0  0
  141.0568   70.6889  229.0867 H   0  0  0  0  0  0  0  0  0  0  0  0
  141.4579   72.2353  227.2134 H   0  0  0  0  0  0  0  0  0  0  0  0
  1  2  2  0
  2  3  1  0
  3  4  1  0
  4  5  1  0
  5  6  2  0
  5  7  1  0
  7  8  1  0
  8  9  1  0
  9 10  1  0
 10 11  1  0
 11 12  1  0
 12 13  1  0
 13 14  2  0
 14 15  1  0
 15 16  2  0
 16 17  1  0
  2 18  1  0
 18 19  2  0
 19 20  1  0
 20 21  2  0
 21 22  1  0
 22 23  2  0
 23 24  1  0
 24 25  2  0
 25 26  1  0
 26 27  2  0
 12  7  1  0
 17 13  1  0
 27 18  1  0
 26 21  1  0
  3 28  1  0
  4 29  1  0
  4 30  1  0
  8 31  1  0
  8 32  1  0
  9 33  1  0
  9 34  1  0
 10 35  1  0
 10 36  1  0
 11 37  1  0
 11 38  1  0
 12 39  1  1
 15 40  1  0
 16 41  1  0
 17 42  1  0
 19 43  1  0
 20 44  1  0
 22 45  1  0
 23 46  1  0
 24 47  1  0
 25 48  1  0
M  END
>  <smiles>  (10) 
O=C(NCC(=O)N1CCCC[C@H]1c1ncc[nH]1)c1ccc2ccccc2n1

>  <score_type>  (10) 
oracle

>  <origin>  (10) 
autodockgpu

>  <m_score__min__energy>  (10) 
-8.5099999999999998

>  <m_primary>  (10) 
energy

>  <rmsd>  (10) 
2.2944152898804724

>  <m_score__min__rmsd>  (10) 
2.2944152898804724

>  <meeko>  (10) 
{"free_energy": -8.18, "intermolecular_energy": -9.67, "internal_energy": -1.54, "cluster_size": 29, "cluster_id": 1, "rank_in_cluster": 17}

>  <energy>  (10) 
-8.35

>  <cluster_rmsd>  (10) 
1.15

>  <cluster>  (10) 
1

$$$$

     RDKit          3D

 48 51  0  0  0  0  0  0  0  0999 V2000
  138.1590   75.5490  222.3880 O   0  0  0  0  0  0  0  0  0  0  0  0
  139.3370   75.9550  222.3150 C   0  0  0  0  0  0  0  0  0  0  0  0
  140.3610   75.0610  221.8950 N   0  0  0  0  0  0  0  0  0  0  0  0
  140.1110   73.6780  221.5390 C   0  0  0  0  0  0  0  0  0  0  0  0
  141.3470   72.9490  221.2060 C   0  0  0  0  0  0  0  0  0  0  0  0
  141.7080   71.8720  221.7460 O   0  0  0  0  0  0  0  0  0  0  0  0
  142.1930   73.5010  220.2040 N   0  0  0  0  0  0  0  0  0  0  0  0
  142.0380   73.0620  218.8470 C   0  0  0  0  0  0  0  0  0  0  0  0
  143.3470   72.8180  218.1480 C   0  0  0  0  0  0  0  0  0  0  0  0
  144.4350   73.7760  218.4980 C   0  0  0  0  0  0  0  0  0  0  0  0
  144.5470   74.0510  219.9670 C   0  0  0  0  0  0  0  0  0  0  0  0
  143.2100   74.4920  220.5010 C   0  0  1  0  0  0  0  0  0  0  0  0
  142.8970   75.7870  219.8050 C   0  0  0  0  0  0  0  0  0  0  0  0
  141.8460   76.5990  220.0670 N   0  0  0  0  0  0  0  0  0  0  0  0
  141.8550   77.6780  219.2670 C   0  0  0  0  0  0  0  0  0  0  0  0
  142.9680   77.5350  218.4640 C   0  0  0  0  0  0  0  0  0  0  0  0
  143.5910   76.3760  218.8060 N   0  0  0  0  0  0  0  0  0  0  0  0
  139.7200   77.3190  222.6450 C   0  0  0  0  0  0  0  0  0  0  0  0
  138.7620   78.2820  222.8980 C   0  0  0  0  0  0  0  0  0  0  0  0
  139.0920   79.5940  223.2160 C   0  0  0  0  0  0  0  0  0  0  0  0
  140.4220   79.9580  223.2820 C   0  0  0  0  0  0  0  0  0  0  0  0
  140.8390   81.2380  223.5910 C   0  0  0  0  0  0  0  0  0  0  0  0
  142.2000   81.5400  223.6410 C   0  0  0  0  0  0  0  0  0  0  0  0
  143.1140   80.5350  223.3780 C   0  0  0  0  0  0  0  0  0  0  0  0
  142.7200   79.2610  223.0700 C   0  0  0  0  0  0  0  0  0  0  0  0
  141.3710   78.9750  223.0240 C   0  0  0  0  0  0  0  0  0  0  0  0
  141.0060   77.7150  222.7200 N   0  0  0  0  0  0  0  0  0  0  0  0
  141.3590   75.4130  221.8360 H   0  0  0  0  0  0  0  0  0  0  0  0
  139.6243   73.1774  222.3890 H   0  0  0  0  0  0  0  0  0  0  0  0
  139.4693   73.6736  220.6456 H   0  0  0  0  0  0  0  0  0  0  0  0
  141.4620   72.1249  218.8468 H   0  0  0  0  0  0  0  0  0  0  0  0
  141.5219   73.8656  218.3013 H   0  0  0  0  0  0  0  0  0  0  0  0
  143.6882   71.8046  218.4060 H   0  0  0  0  0  0  0  0  0  0  0  0
  143.1522   72.9522  217.0737 H   0  0  0  0  0  0  0  0  0  0  0  0
  145.3909   73.3582  218.1492 H   0  0  0  0  0  0  0  0  0  0  0  0
  144.1911   74.7312  218.0101 H   0  0  0  0  0  0  0  0  0  0  0  0
  144.8655   73.1359  220.4876 H   0  0  0  0  0  0  0  0  0  0  0  0
  145.2880   74.8465  220.1346 H   0  0  0  0  0  0  0  0  0  0  0  0
  143.2328   74.6143  221.5939 H   0  0  0  0  0  0  0  0  0  0  0  0
  141.1274   78.5029  219.2546 H   0  0  0  0  0  0  0  0  0  0  0  0
  143.2946   78.2370  217.6826 H   0  0  0  0  0  0  0  0  0  0  0  0
  144.4760   76.0060  218.3570 H   0  0  0  0  0  0  0  0  0  0  0  0
  137.7000   78.0001  222.8458 H   0  0  0  0  0  0  0  0  0  0  0  0
  138.3024   80.3341  223.4129 H   0  0  0  0  0  0  0  0  0  0  0  0
  140.0955   82.0218  223.7983 H   0  0  0  0  0  0  0  0  0  0  0  0
  142.5400   82.5573  223.8848 H   0  0  0  0  0  0  0  0  0  0  0  0
  144.1886   80.7667  223.4176 H   0  0  0  0  0  0  0  0  0  0  0  0
  143.4655   78.4791  222.8629 H   0  0  0  0  0  0  0  0  0  0  0  0
  1  2  2  0
  2  3  1  0
  3  4  1  0
  4  5  1  0
  5  6  2  0
  5  7  1  0
  7  8  1  0
  8  9  1  0
  9 10  1  0
 10 11  1  0
 11 12  1  0
 12 13  1  0
 13 14  2  0
 14 15  1  0
 15 16  2  0
 16 17  1  0
  2 18  1  0
 18 19  2  0
 19 20  1  0
 20 21  2  0
 21 22  1  0
 22 23  2  0
 23 24  1  0
 24 25  2  0
 25 26  1  0
 26 27  2  0
 12  7  1  0
 17 13  1  0
 27 18  1  0
 26 21  1  0
  3 28  1  0
  4 29  1  0
  4 30  1  0
  8 31  1  0
  8 32  1  0
  9 33  1  0
  9 34  1  0
 10 35  1  0
 10 36  1  0
 11 37  1  0
 11 38  1  0
 12 39  1  1
 15 40  1  0
 16 41  1  0
 17 42  1  0
 19 43  1  0
 20 44  1  0
 22 45  1  0
 23 46  1  0
 24 47  1  0
 25 48  1  0
M  END
>  <smiles>  (11) 
O=C(NCC(=O)N1CCCC[C@H]1c1ncc[nH]1)c1ccc2ccccc2n1

>  <score_type>  (11) 
oracle

>  <origin>  (11) 
autodockgpu

>  <m_score__min__energy>  (11) 
-8.5099999999999998

>  <m_primary>  (11) 
energy

>  <rmsd>  (11) 
7.127996273554098

>  <m_score__min__rmsd>  (11) 
7.127996273554098

>  <meeko>  (11) 
{"free_energy": -6.59, "intermolecular_energy": -8.08, "internal_energy": -2.64, "cluster_size": 4, "cluster_id": 5, "rank_in_cluster": 2}

>  <energy>  (11) 
-8.35

>  <cluster_rmsd>  (11) 
1.01

>  <cluster>  (11) 
1

$$$$

     RDKit          3D

 48 51  0  0  0  0  0  0  0  0999 V2000
  139.9320   71.3510  221.2260 O   0  0  0  0  0  0  0  0  0  0  0  0
  139.8300   71.8970  222.3450 C   0  0  0  0  0  0  0  0  0  0  0  0
  139.6600   73.3070  222.4230 N   0  0  0  0  0  0  0  0  0  0  0  0
  139.5960   74.1660  221.2560 C   0  0  0  0  0  0  0  0  0  0  0  0
  140.5770   75.2630  221.3080 C   0  0  0  0  0  0  0  0  0  0  0  0
  141.8200   75.1150  221.1840 O   0  0  0  0  0  0  0  0  0  0  0  0
  140.0870   76.5820  221.5120 N   0  0  0  0  0  0  0  0  0  0  0  0
  138.9310   76.7720  222.3420 C   0  0  0  0  0  0  0  0  0  0  0  0
  137.9500   77.7610  221.7770 C   0  0  0  0  0  0  0  0  0  0  0  0
  138.5640   78.9300  221.0840 C   0  0  0  0  0  0  0  0  0  0  0  0
  139.6880   78.5620  220.1630 C   0  0  0  0  0  0  0  0  0  0  0  0
  140.7090   77.7470  220.9130 C   0  0  1  0  0  0  0  0  0  0  0  0
  141.2560   78.6550  221.9790 C   0  0  0  0  0  0  0  0  0  0  0  0
  141.3180   80.0050  221.9220 N   0  0  0  0  0  0  0  0  0  0  0  0
  141.8620   80.5150  223.0390 C   0  0  0  0  0  0  0  0  0  0  0  0
  142.1550   79.4280  223.8380 C   0  0  0  0  0  0  0  0  0  0  0  0
  141.7780   78.3020  223.1750 N   0  0  0  0  0  0  0  0  0  0  0  0
  139.8790   71.1490  223.5920 C   0  0  0  0  0  0  0  0  0  0  0  0
  139.4470   69.8380  223.6480 C   0  0  0  0  0  0  0  0  0  0  0  0
  139.4800   69.0940  224.8220 C   0  0  0  0  0  0  0  0  0  0  0  0
  139.9570   69.6780  225.9780 C   0  0  0  0  0  0  0  0  0  0  0  0
  140.0250   69.0130  227.1860 C   0  0  0  0  0  0  0  0  0  0  0  0
  140.5190   69.6620  228.3180 C   0  0  0  0  0  0  0  0  0  0  0  0
  140.9360   70.9770  228.2020 C   0  0  0  0  0  0  0  0  0  0  0  0
  140.8770   71.6510  227.0130 C   0  0  0  0  0  0  0  0  0  0  0  0
  140.3870   70.9980  225.9010 C   0  0  0  0  0  0  0  0  0  0  0  0
  140.3380   71.6820  224.7410 N   0  0  0  0  0  0  0  0  0  0  0  0
  139.5740   73.7630  223.3760 H   0  0  0  0  0  0  0  0  0  0  0  0
  139.7930   73.5590  220.3601 H   0  0  0  0  0  0  0  0  0  0  0  0
  138.5928   74.6162  221.2273 H   0  0  0  0  0  0  0  0  0  0  0  0
  138.4224   75.8037  222.4594 H   0  0  0  0  0  0  0  0  0  0  0  0
  139.2826   77.1745  223.3035 H   0  0  0  0  0  0  0  0  0  0  0  0
  137.3105   77.2329  221.0544 H   0  0  0  0  0  0  0  0  0  0  0  0
  137.3946   78.1682  222.6347 H   0  0  0  0  0  0  0  0  0  0  0  0
  137.7834   79.4341  220.4953 H   0  0  0  0  0  0  0  0  0  0  0  0
  138.9870   79.5803  221.8638 H   0  0  0  0  0  0  0  0  0  0  0  0
  139.2943   77.9719  219.3223 H   0  0  0  0  0  0  0  0  0  0  0  0
  140.1614   79.4780  219.7798 H   0  0  0  0  0  0  0  0  0  0  0  0
  141.5033   77.3817  220.2455 H   0  0  0  0  0  0  0  0  0  0  0  0
  142.0373   81.5763  223.2690 H   0  0  0  0  0  0  0  0  0  0  0  0
  142.6136   79.4660  224.8371 H   0  0  0  0  0  0  0  0  0  0  0  0
  141.8820   77.3160  223.5460 H   0  0  0  0  0  0  0  0  0  0  0  0
  139.0634   69.3661  222.7314 H   0  0  0  0  0  0  0  0  0  0  0  0
  139.1297   68.0513  224.8295 H   0  0  0  0  0  0  0  0  0  0  0  0
  139.6886   67.9681  227.2562 H   0  0  0  0  0  0  0  0  0  0  0  0
  140.5760   69.1389  229.2840 H   0  0  0  0  0  0  0  0  0  0  0  0
  141.3258   71.4945  229.0910 H   0  0  0  0  0  0  0  0  0  0  0  0
  141.2145   72.6957  226.9448 H   0  0  0  0  0  0  0  0  0  0  0  0
  1  2  2  0
  2  3  1  0
  3  4  1  0
  4  5  1  0
  5  6  2  0
  5  7  1  0
  7  8  1  0
  8  9  1  0
  9 10  1  0
 10 11  1  0
 11 12  1  0
 12 13  1  0
 13 14  2  0
 14 15  1  0
 15 16  2  0
 16 17  1  0
  2 18  1  0
 18 19  2  0
 19 20  1  0
 20 21  2  0
 21 22  1  0
 22 23  2  0
 23 24  1  0
 24 25  2  0
 25 26  1  0
 26 27  2  0
 12  7  1  0
 17 13  1  0
 27 18  1  0
 26 21  1  0
  3 28  1  0
  4 29  1  0
  4 30  1  0
  8 31  1  0
  8 32  1  0
  9 33  1  0
  9 34  1  0
 10 35  1  0
 10 36  1  0
 11 37  1  0
 11 38  1  0
 12 39  1  6
 15 40  1  0
 16 41  1  0
 17 42  1  0
 19 43  1  0
 20 44  1  0
 22 45  1  0
 23 46  1  0
 24 47  1  0
 25 48  1  0
M  END
>  <smiles>  (12) 
O=C(NCC(=O)N1CCCC[C@H]1c1ncc[nH]1)c1ccc2ccccc2n1

>  <score_type>  (12) 
oracle

>  <origin>  (12) 
autodockgpu

>  <m_score__min__energy>  (12) 
-8.5099999999999998

>  <m_primary>  (12) 
energy

>  <rmsd>  (12) 
2.338197884752012

>  <m_score__min__rmsd>  (12) 
2.338197884752012

>  <meeko>  (12) 
{"free_energy": -7.87, "intermolecular_energy": -9.36, "internal_energy": -1.53, "cluster_size": 29, "cluster_id": 1, "rank_in_cluster": 27}

>  <energy>  (12) 
-8.35

>  <cluster_rmsd>  (12) 
1.02

>  <cluster>  (12) 
1

$$$$

     RDKit          3D

 48 51  0  0  0  0  0  0  0  0999 V2000
  141.3640   72.4210  221.6060 O   0  0  0  0  0  0  0  0  0  0  0  0
  140.4600   72.5780  222.4540 C   0  0  0  0  0  0  0  0  0  0  0  0
  139.6070   73.7130  222.3640 N   0  0  0  0  0  0  0  0  0  0  0  0
  139.7260   74.7170  221.3260 C   0  0  0  0  0  0  0  0  0  0  0  0
  139.1560   76.0150  221.7260 C   0  0  0  0  0  0  0  0  0  0  0  0
  138.1310   76.1540  222.4430 O   0  0  0  0  0  0  0  0  0  0  0  0
  139.8080   77.1940  221.2720 N   0  0  0  0  0  0  0  0  0  0  0  0
  139.0390   78.1930  220.5870 C   0  0  0  0  0  0  0  0  0  0  0  0
  139.7370   78.7600  219.3830 C   0  0  0  0  0  0  0  0  0  0  0  0
  141.2110   78.9350  219.5340 C   0  0  0  0  0  0  0  0  0  0  0  0
  141.8950   77.7610  220.1650 C   0  0  0  0  0  0  0  0  0  0  0  0
  141.2260   77.4280  221.4730 C   0  0  1  0  0  0  0  0  0  0  0  0
  141.4380   78.6250  222.3580 C   0  0  0  0  0  0  0  0  0  0  0  0
  142.5630   79.3740  222.4300 N   0  0  0  0  0  0  0  0  0  0  0  0
  142.4270   80.3710  223.3190 C   0  0  0  0  0  0  0  0  0  0  0  0
  141.1520   80.2390  223.8320 C   0  0  0  0  0  0  0  0  0  0  0  0
  140.5640   79.1690  223.2340 N   0  0  0  0  0  0  0  0  0  0  0  0
  140.2350   71.6440  223.5450 C   0  0  0  0  0  0  0  0  0  0  0  0
  139.5500   70.4620  223.3360 C   0  0  0  0  0  0  0  0  0  0  0  0
  139.3180   69.5470  224.3570 C   0  0  0  0  0  0  0  0  0  0  0  0
  139.7830   69.8210  225.6280 C   0  0  0  0  0  0  0  0  0  0  0  0
  139.5970   68.9690  226.6980 C   0  0  0  0  0  0  0  0  0  0  0  0
  140.0930   69.3050  227.9570 C   0  0  0  0  0  0  0  0  0  0  0  0
  140.7700   70.5020  228.1070 C   0  0  0  0  0  0  0  0  0  0  0  0
  140.9650   71.3590  227.0580 C   0  0  0  0  0  0  0  0  0  0  0  0
  140.4690   71.0150  225.8170 C   0  0  0  0  0  0  0  0  0  0  0  0
  140.6720   71.8730  224.7990 N   0  0  0  0  0  0  0  0  0  0  0  0
  138.8420   73.8400  223.0870 H   0  0  0  0  0  0  0  0  0  0  0  0
  140.7916   74.8572  221.0919 H   0  0  0  0  0  0  0  0  0  0  0  0
  139.1621   74.3606  220.4513 H   0  0  0  0  0  0  0  0  0  0  0  0
  138.0913   77.7404  220.2599 H   0  0  0  0  0  0  0  0  0  0  0  0
  138.8813   79.0224  221.2922 H   0  0  0  0  0  0  0  0  0  0  0  0
  139.5587   78.0829  218.5346 H   0  0  0  0  0  0  0  0  0  0  0  0
  139.3213   79.7672  219.2321 H   0  0  0  0  0  0  0  0  0  0  0  0
  141.6457   79.0953  218.5364 H   0  0  0  0  0  0  0  0  0  0  0  0
  141.3660   79.7949  220.2023 H   0  0  0  0  0  0  0  0  0  0  0  0
  141.8313   76.8945  219.4904 H   0  0  0  0  0  0  0  0  0  0  0  0
  142.9509   78.0090  220.3480 H   0  0  0  0  0  0  0  0  0  0  0  0
  141.6447   76.5141  221.9196 H   0  0  0  0  0  0  0  0  0  0  0  0
  143.1748   81.1333  223.5832 H   0  0  0  0  0  0  0  0  0  0  0  0
  140.6919   80.8870  224.5925 H   0  0  0  0  0  0  0  0  0  0  0  0
  139.5810   78.8280  223.4300 H   0  0  0  0  0  0  0  0  0  0  0  0
  139.1752   70.2372  222.3266 H   0  0  0  0  0  0  0  0  0  0  0  0
  138.7700   68.6150  224.1544 H   0  0  0  0  0  0  0  0  0  0  0  0
  139.0557   68.0219  226.5569 H   0  0  0  0  0  0  0  0  0  0  0  0
  139.9488   68.6313  228.8145 H   0  0  0  0  0  0  0  0  0  0  0  0
  141.1630   70.7728  229.0981 H   0  0  0  0  0  0  0  0  0  0  0  0
  141.5074   72.3052  227.2015 H   0  0  0  0  0  0  0  0  0  0  0  0
  1  2  2  0
  2  3  1  0
  3  4  1  0
  4  5  1  0
  5  6  2  0
  5  7  1  0
  7  8  1  0
  8  9  1  0
  9 10  1  0
 10 11  1  0
 11 12  1  0
 12 13  1  0
 13 14  2  0
 14 15  1  0
 15 16  2  0
 16 17  1  0
  2 18  1  0
 18 19  2  0
 19 20  1  0
 20 21  2  0
 21 22  1  0
 22 23  2  0
 23 24  1  0
 24 25  2  0
 25 26  1  0
 26 27  2  0
 12  7  1  0
 17 13  1  0
 27 18  1  0
 26 21  1  0
  3 28  1  0
  4 29  1  0
  4 30  1  0
  8 31  1  0
  8 32  1  0
  9 33  1  0
  9 34  1  0
 10 35  1  0
 10 36  1  0
 11 37  1  0
 11 38  1  0
 12 39  1  1
 15 40  1  0
 16 41  1  0
 17 42  1  0
 19 43  1  0
 20 44  1  0
 22 45  1  0
 23 46  1  0
 24 47  1  0
 25 48  1  0
M  END
>  <smiles>  (13) 
O=C(NCC(=O)N1CCCC[C@H]1c1ncc[nH]1)c1ccc2ccccc2n1

>  <score_type>  (13) 
oracle

>  <origin>  (13) 
autodockgpu

>  <m_score__min__energy>  (13) 
-8.5099999999999998

>  <m_primary>  (13) 
energy

>  <rmsd>  (13) 
2.231889869957048

>  <m_score__min__rmsd>  (13) 
2.231889869957048

>  <meeko>  (13) 
{"free_energy": -7.78, "intermolecular_energy": -9.27, "internal_energy": -1.6, "cluster_size": 29, "cluster_id": 1, "rank_in_cluster": 29}

>  <energy>  (13) 
-8.28

>  <cluster_rmsd>  (13) 
1.02

>  <cluster>  (13) 
1

$$$$

     RDKit          3D

 48 51  0  0  0  0  0  0  0  0999 V2000
  141.4340   72.3970  221.5280 O   0  0  0  0  0  0  0  0  0  0  0  0
  140.5550   72.5900  222.3950 C   0  0  0  0  0  0  0  0  0  0  0  0
  139.7650   73.7710  222.3380 N   0  0  0  0  0  0  0  0  0  0  0  0
  139.9210   74.7840  221.3120 C   0  0  0  0  0  0  0  0  0  0  0  0
  139.2700   76.0560  221.6710 C   0  0  0  0  0  0  0  0  0  0  0  0
  138.2020   76.1510  222.3280 O   0  0  0  0  0  0  0  0  0  0  0  0
  139.8910   77.2620  221.2430 N   0  0  0  0  0  0  0  0  0  0  0  0
  139.0820   78.2860  220.6460 C   0  0  0  0  0  0  0  0  0  0  0  0
  139.7170   78.9170  219.4390 C   0  0  0  0  0  0  0  0  0  0  0  0
  141.1950   79.0990  219.5270 C   0  0  0  0  0  0  0  0  0  0  0  0
  141.9180   77.9010  220.0660 C   0  0  0  0  0  0  0  0  0  0  0  0
  141.3150   77.4990  221.3870 C   0  0  1  0  0  0  0  0  0  0  0  0
  141.5620   78.6530  222.3190 C   0  0  0  0  0  0  0  0  0  0  0  0
  140.6470   79.2350  223.1270 N   0  0  0  0  0  0  0  0  0  0  0  0
  141.1900   80.2400  223.8330 C   0  0  0  0  0  0  0  0  0  0  0  0
  142.5140   80.2910  223.4460 C   0  0  0  0  0  0  0  0  0  0  0  0
  142.7230   79.3150  222.5220 N   0  0  0  0  0  0  0  0  0  0  0  0
  140.2990   71.6520  223.4760 C   0  0  0  0  0  0  0  0  0  0  0  0
  139.6010   70.4820  223.2470 C   0  0  0  0  0  0  0  0  0  0  0  0
  139.3380   69.5640  224.2580 C   0  0  0  0  0  0  0  0  0  0  0  0
  139.7850   69.8230  225.5380 C   0  0  0  0  0  0  0  0  0  0  0  0
  139.5680   68.9660  226.5990 C   0  0  0  0  0  0  0  0  0  0  0  0
  140.0470   69.2880  227.8690 C   0  0  0  0  0  0  0  0  0  0  0  0
  140.7390   70.4740  228.0390 C   0  0  0  0  0  0  0  0  0  0  0  0
  140.9630   71.3350  226.9990 C   0  0  0  0  0  0  0  0  0  0  0  0
  140.4840   71.0050  225.7470 C   0  0  0  0  0  0  0  0  0  0  0  0
  140.7170   71.8670  224.7390 N   0  0  0  0  0  0  0  0  0  0  0  0
  139.0210   73.9290  223.0770 H   0  0  0  0  0  0  0  0  0  0  0  0
  140.9946   74.9682  221.1586 H   0  0  0  0  0  0  0  0  0  0  0  0
  139.4399   74.4092  220.3965 H   0  0  0  0  0  0  0  0  0  0  0  0
  138.1227   77.8409  220.3433 H   0  0  0  0  0  0  0  0  0  0  0  0
  138.9524   79.0785  221.3978 H   0  0  0  0  0  0  0  0  0  0  0  0
  139.5029   78.2798  218.5683 H   0  0  0  0  0  0  0  0  0  0  0  0
  139.2872   79.9263  219.3577 H   0  0  0  0  0  0  0  0  0  0  0  0
  141.5795   79.3122  218.5187 H   0  0  0  0  0  0  0  0  0  0  0  0
  141.3761   79.9267  220.2285 H   0  0  0  0  0  0  0  0  0  0  0  0
  141.8277   77.0677  219.3536 H   0  0  0  0  0  0  0  0  0  0  0  0
  142.9800   78.1492  220.2095 H   0  0  0  0  0  0  0  0  0  0  0  0
  141.7608   76.5682  221.7677 H   0  0  0  0  0  0  0  0  0  0  0  0
  140.6856   80.8868  224.5659 H   0  0  0  0  0  0  0  0  0  0  0  0
  143.2690   80.9982  223.8199 H   0  0  0  0  0  0  0  0  0  0  0  0
  143.6480   79.1160  222.0470 H   0  0  0  0  0  0  0  0  0  0  0  0
  139.2408   70.2691  222.2297 H   0  0  0  0  0  0  0  0  0  0  0  0
  138.7798   68.6415  224.0400 H   0  0  0  0  0  0  0  0  0  0  0  0
  139.0162   68.0274  226.4423 H   0  0  0  0  0  0  0  0  0  0  0  0
  139.8777   68.6114  228.7196 H   0  0  0  0  0  0  0  0  0  0  0  0
  141.1198   70.7322  229.0382 H   0  0  0  0  0  0  0  0  0  0  0  0
  141.5148   72.2732  227.1579 H   0  0  0  0  0  0  0  0  0  0  0  0
  1  2  2  0
  2  3  1  0
  3  4  1  0
  4  5  1  0
  5  6  2  0
  5  7  1  0
  7  8  1  0
  8  9  1  0
  9 10  1  0
 10 11  1  0
 11 12  1  0
 12 13  1  0
 13 14  2  0
 14 15  1  0
 15 16  2  0
 16 17  1  0
  2 18  1  0
 18 19  2  0
 19 20  1  0
 20 21  2  0
 21 22  1  0
 22 23  2  0
 23 24  1  0
 24 25  2  0
 25 26  1  0
 26 27  2  0
 12  7  1  0
 17 13  1  0
 27 18  1  0
 26 21  1  0
  3 28  1  0
  4 29  1  0
  4 30  1  0
  8 31  1  0
  8 32  1  0
  9 33  1  0
  9 34  1  0
 10 35  1  0
 10 36  1  0
 11 37  1  0
 11 38  1  0
 12 39  1  1
 15 40  1  0
 16 41  1  0
 17 42  1  0
 19 43  1  0
 20 44  1  0
 22 45  1  0
 23 46  1  0
 24 47  1  0
 25 48  1  0
M  END
>  <smiles>  (14) 
O=C(NCC(=O)N1CCCC[C@H]1c1ncc[nH]1)c1ccc2ccccc2n1

>  <score_type>  (14) 
oracle

>  <origin>  (14) 
autodockgpu

>  <m_score__min__energy>  (14) 
-8.5099999999999998

>  <m_primary>  (14) 
energy

>  <rmsd>  (14) 
2.2897123870158773

>  <m_score__min__rmsd>  (14) 
2.2897123870158773

>  <meeko>  (14) 
{"free_energy": -8.35, "intermolecular_energy": -9.85, "internal_energy": -1.55, "cluster_size": 29, "cluster_id": 1, "rank_in_cluster": 11}

>  <energy>  (14) 
-8.27

>  <cluster_rmsd>  (14) 
1.08

>  <cluster>  (14) 
1

$$$$

     RDKit          3D

 48 51  0  0  0  0  0  0  0  0999 V2000
  141.2960   72.5050  221.5390 O   0  0  0  0  0  0  0  0  0  0  0  0
  140.4050   72.6290  222.4060 C   0  0  0  0  0  0  0  0  0  0  0  0
  139.5270   73.7470  222.3500 N   0  0  0  0  0  0  0  0  0  0  0  0
  139.6060   74.7700  221.3260 C   0  0  0  0  0  0  0  0  0  0  0  0
  139.2550   76.1070  221.8350 C   0  0  0  0  0  0  0  0  0  0  0  0
  138.3600   76.3340  222.6900 O   0  0  0  0  0  0  0  0  0  0  0  0
  139.9780   77.2210  221.3260 N   0  0  0  0  0  0  0  0  0  0  0  0
  139.2900   78.1800  220.5080 C   0  0  0  0  0  0  0  0  0  0  0  0
  140.0840   78.6160  219.3090 C   0  0  0  0  0  0  0  0  0  0  0  0
  141.5510   78.7580  219.5420 C   0  0  0  0  0  0  0  0  0  0  0  0
  142.1500   77.6220  220.3150 C   0  0  0  0  0  0  0  0  0  0  0  0
  141.3880   77.4270  221.5990 C   0  0  1  0  0  0  0  0  0  0  0  0
  141.5880   78.6890  222.3910 C   0  0  0  0  0  0  0  0  0  0  0  0
  140.6510   79.3200  223.1350 N   0  0  0  0  0  0  0  0  0  0  0  0
  141.1530   80.4220  223.7170 C   0  0  0  0  0  0  0  0  0  0  0  0
  142.4720   80.4840  223.3160 C   0  0  0  0  0  0  0  0  0  0  0  0
  142.7200   79.4190  222.5080 N   0  0  0  0  0  0  0  0  0  0  0  0
  140.2210   71.6730  223.4860 C   0  0  0  0  0  0  0  0  0  0  0  0
  139.5600   70.4790  223.2690 C   0  0  0  0  0  0  0  0  0  0  0  0
  139.3670   69.5430  224.2790 C   0  0  0  0  0  0  0  0  0  0  0  0
  139.8470   69.8080  225.5460 C   0  0  0  0  0  0  0  0  0  0  0  0
  139.6990   68.9350  226.6060 C   0  0  0  0  0  0  0  0  0  0  0  0
  140.2080   69.2640  227.8620 C   0  0  0  0  0  0  0  0  0  0  0  0
  140.8590   70.4740  228.0200 C   0  0  0  0  0  0  0  0  0  0  0  0
  141.0160   71.3520  226.9810 C   0  0  0  0  0  0  0  0  0  0  0  0
  140.5080   71.0150  225.7430 C   0  0  0  0  0  0  0  0  0  0  0  0
  140.6740   71.8930  224.7360 N   0  0  0  0  0  0  0  0  0  0  0  0
  138.7740   73.8460  223.0900 H   0  0  0  0  0  0  0  0  0  0  0  0
  140.6341   74.7999  220.9360 H   0  0  0  0  0  0  0  0  0  0  0  0
  138.8819   74.5116  220.5393 H   0  0  0  0  0  0  0  0  0  0  0  0
  138.3489   77.7301  220.1589 H   0  0  0  0  0  0  0  0  0  0  0  0
  139.1176   79.0727  221.1271 H   0  0  0  0  0  0  0  0  0  0  0  0
  139.9354   77.8721  218.5124 H   0  0  0  0  0  0  0  0  0  0  0  0
  139.7162   79.6184  219.0445 H   0  0  0  0  0  0  0  0  0  0  0  0
  142.0538   78.8171  218.5654 H   0  0  0  0  0  0  0  0  0  0  0  0
  141.6949   79.6678  220.1433 H   0  0  0  0  0  0  0  0  0  0  0  0
  142.0965   76.7021  219.7143 H   0  0  0  0  0  0  0  0  0  0  0  0
  143.2010   77.8510  220.5452 H   0  0  0  0  0  0  0  0  0  0  0  0
  141.7437   76.5430  222.1485 H   0  0  0  0  0  0  0  0  0  0  0  0
  140.6237   81.1269  224.3750 H   0  0  0  0  0  0  0  0  0  0  0  0
  143.1972   81.2606  223.6007 H   0  0  0  0  0  0  0  0  0  0  0  0
  143.6510   79.2060  222.0510 H   0  0  0  0  0  0  0  0  0  0  0  0
  139.1732   70.2615  222.2625 H   0  0  0  0  0  0  0  0  0  0  0  0
  138.8376   68.6015  224.0707 H   0  0  0  0  0  0  0  0  0  0  0  0
  139.1781   67.9774  226.4591 H   0  0  0  0  0  0  0  0  0  0  0  0
  140.0938   68.5741  228.7111 H   0  0  0  0  0  0  0  0  0  0  0  0
  141.2622   70.7386  229.0086 H   0  0  0  0  0  0  0  0  0  0  0  0
  141.5377   72.3088  227.1305 H   0  0  0  0  0  0  0  0  0  0  0  0
  1  2  2  0
  2  3  1  0
  3  4  1  0
  4  5  1  0
  5  6  2  0
  5  7  1  0
  7  8  1  0
  8  9  1  0
  9 10  1  0
 10 11  1  0
 11 12  1  0
 12 13  1  0
 13 14  2  0
 14 15  1  0
 15 16  2  0
 16 17  1  0
  2 18  1  0
 18 19  2  0
 19 20  1  0
 20 21  2  0
 21 22  1  0
 22 23  2  0
 23 24  1  0
 24 25  2  0
 25 26  1  0
 26 27  2  0
 12  7  1  0
 17 13  1  0
 27 18  1  0
 26 21  1  0
  3 28  1  0
  4 29  1  0
  4 30  1  0
  8 31  1  0
  8 32  1  0
  9 33  1  0
  9 34  1  0
 10 35  1  0
 10 36  1  0
 11 37  1  0
 11 38  1  0
 12 39  1  1
 15 40  1  0
 16 41  1  0
 17 42  1  0
 19 43  1  0
 20 44  1  0
 22 45  1  0
 23 46  1  0
 24 47  1  0
 25 48  1  0
M  END
>  <smiles>  (15) 
O=C(NCC(=O)N1CCCC[C@H]1c1ncc[nH]1)c1ccc2ccccc2n1

>  <score_type>  (15) 
oracle

>  <origin>  (15) 
autodockgpu

>  <m_score__min__energy>  (15) 
-8.5099999999999998

>  <m_primary>  (15) 
energy

>  <rmsd>  (15) 
2.2357265293011594

>  <m_score__min__rmsd>  (15) 
2.2357265293011594

>  <meeko>  (15) 
{"free_energy": -8.44, "intermolecular_energy": -9.94, "internal_energy": -1.51, "cluster_size": 29, "cluster_id": 1, "rank_in_cluster": 4}

>  <energy>  (15) 
-8.25

>  <cluster_rmsd>  (15) 
1.07

>  <cluster>  (15) 
1

$$$$

     RDKit          3D

 48 51  0  0  0  0  0  0  0  0999 V2000
  140.2500   71.4890  221.2900 O   0  0  0  0  0  0  0  0  0  0  0  0
  140.0290   72.0000  222.4080 C   0  0  0  0  0  0  0  0  0  0  0  0
  139.7580   73.3940  222.4980 N   0  0  0  0  0  0  0  0  0  0  0  0
  139.7230   74.2730  221.3460 C   0  0  0  0  0  0  0  0  0  0  0  0
  139.1200   75.5820  221.6520 C   0  0  0  0  0  0  0  0  0  0  0  0
  138.0570   75.7430  222.3030 O   0  0  0  0  0  0  0  0  0  0  0  0
  139.7870   76.7460  221.1780 N   0  0  0  0  0  0  0  0  0  0  0  0
  139.0400   77.7180  220.4320 C   0  0  0  0  0  0  0  0  0  0  0  0
  139.7800   78.2420  219.2330 C   0  0  0  0  0  0  0  0  0  0  0  0
  141.2470   78.4260  219.4280 C   0  0  0  0  0  0  0  0  0  0  0  0
  141.9100   77.2760  220.1240 C   0  0  0  0  0  0  0  0  0  0  0  0
  141.1970   76.9900  221.4190 C   0  0  1  0  0  0  0  0  0  0  0  0
  141.3770   78.2180  222.2680 C   0  0  0  0  0  0  0  0  0  0  0  0
  140.5040   78.6850  223.1890 N   0  0  0  0  0  0  0  0  0  0  0  0
  140.9660   79.8030  223.7730 C   0  0  0  0  0  0  0  0  0  0  0  0
  142.1920   80.0470  223.1880 C   0  0  0  0  0  0  0  0  0  0  0  0
  142.4260   79.0700  222.2730 N   0  0  0  0  0  0  0  0  0  0  0  0
  140.0350   71.2280  223.6410 C   0  0  0  0  0  0  0  0  0  0  0  0
  139.5630   69.9300  223.6660 C   0  0  0  0  0  0  0  0  0  0  0  0
  139.5540   69.1650  224.8260 C   0  0  0  0  0  0  0  0  0  0  0  0
  140.0310   69.7130  226.0000 C   0  0  0  0  0  0  0  0  0  0  0  0
  140.0600   69.0240  227.1960 C   0  0  0  0  0  0  0  0  0  0  0  0
  140.5550   69.6360  228.3470 C   0  0  0  0  0  0  0  0  0  0  0  0
  141.0150   70.9390  228.2620 C   0  0  0  0  0  0  0  0  0  0  0  0
  140.9940   71.6370  227.0850 C   0  0  0  0  0  0  0  0  0  0  0  0
  140.5020   71.0200  225.9540 C   0  0  0  0  0  0  0  0  0  0  0  0
  140.4920   71.7260  224.8070 N   0  0  0  0  0  0  0  0  0  0  0  0
  139.5720   73.8210  223.4500 H   0  0  0  0  0  0  0  0  0  0  0  0
  140.7525   74.4329  220.9931 H   0  0  0  0  0  0  0  0  0  0  0  0
  139.1016   73.7908  220.5770 H   0  0  0  0  0  0  0  0  0  0  0  0
  138.1046   77.2518  220.0891 H   0  0  0  0  0  0  0  0  0  0  0  0
  138.8557   78.5717  221.1008 H   0  0  0  0  0  0  0  0  0  0  0  0
  139.6322   77.5336  218.4045 H   0  0  0  0  0  0  0  0  0  0  0  0
  139.3691   79.2422  219.0314 H   0  0  0  0  0  0  0  0  0  0  0  0
  141.7157   78.5517  218.4408 H   0  0  0  0  0  0  0  0  0  0  0  0
  141.3782   79.3097  220.0698 H   0  0  0  0  0  0  0  0  0  0  0  0
  141.8695   76.3855  219.4795 H   0  0  0  0  0  0  0  0  0  0  0  0
  142.9592   77.5317  220.3335 H   0  0  0  0  0  0  0  0  0  0  0  0
  141.6015   76.0939  221.9123 H   0  0  0  0  0  0  0  0  0  0  0  0
  140.4710   80.3991  224.5538 H   0  0  0  0  0  0  0  0  0  0  0  0
  142.8632   80.8866  223.4218 H   0  0  0  0  0  0  0  0  0  0  0  0
  143.2930   78.9990  221.6680 H   0  0  0  0  0  0  0  0  0  0  0  0
  139.1808   69.4863  222.7348 H   0  0  0  0  0  0  0  0  0  0  0  0
  139.1710   68.1340  224.8091 H   0  0  0  0  0  0  0  0  0  0  0  0
  139.6913   67.9886  227.2411 H   0  0  0  0  0  0  0  0  0  0  0  0
  140.5795   69.0940  229.3039 H   0  0  0  0  0  0  0  0  0  0  0  0
  141.4084   71.4270  229.1659 H   0  0  0  0  0  0  0  0  0  0  0  0
  141.3632   72.6723  227.0418 H   0  0  0  0  0  0  0  0  0  0  0  0
  1  2  2  0
  2  3  1  0
  3  4  1  0
  4  5  1  0
  5  6  2  0
  5  7  1  0
  7  8  1  0
  8  9  1  0
  9 10  1  0
 10 11  1  0
 11 12  1  0
 12 13  1  0
 13 14  2  0
 14 15  1  0
 15 16  2  0
 16 17  1  0
  2 18  1  0
 18 19  2  0
 19 20  1  0
 20 21  2  0
 21 22  1  0
 22 23  2  0
 23 24  1  0
 24 25  2  0
 25 26  1  0
 26 27  2  0
 12  7  1  0
 17 13  1  0
 27 18  1  0
 26 21  1  0
  3 28  1  0
  4 29  1  0
  4 30  1  0
  8 31  1  0
  8 32  1  0
  9 33  1  0
  9 34  1  0
 10 35  1  0
 10 36  1  0
 11 37  1  0
 11 38  1  0
 12 39  1  1
 15 40  1  0
 16 41  1  0
 17 42  1  0
 19 43  1  0
 20 44  1  0
 22 45  1  0
 23 46  1  0
 24 47  1  0
 25 48  1  0
M  END
>  <smiles>  (16) 
O=C(NCC(=O)N1CCCC[C@H]1c1ncc[nH]1)c1ccc2ccccc2n1

>  <score_type>  (16) 
oracle

>  <origin>  (16) 
autodockgpu

>  <m_score__min__energy>  (16) 
-8.5099999999999998

>  <m_primary>  (16) 
energy

>  <rmsd>  (16) 
1.9820261387278881

>  <m_score__min__rmsd>  (16) 
1.9820261387278881

>  <meeko>  (16) 
{"free_energy": -8.17, "intermolecular_energy": -9.66, "internal_energy": -1.55, "cluster_size": 29, "cluster_id": 1, "rank_in_cluster": 18}

>  <energy>  (16) 
-8.23

>  <cluster_rmsd>  (16) 
1.04

>  <cluster>  (16) 
1

$$$$

     RDKit          3D

 48 51  0  0  0  0  0  0  0  0999 V2000
  141.5770   72.5140  221.6200 O   0  0  0  0  0  0  0  0  0  0  0  0
  140.6320   72.6660  222.4220 C   0  0  0  0  0  0  0  0  0  0  0  0
  139.8290   73.8370  222.3430 N   0  0  0  0  0  0  0  0  0  0  0  0
  140.0450   74.8850  221.3660 C   0  0  0  0  0  0  0  0  0  0  0  0
  139.3240   76.1260  221.6990 C   0  0  0  0  0  0  0  0  0  0  0  0
  138.2480   76.1730  222.3480 O   0  0  0  0  0  0  0  0  0  0  0  0
  139.8830   77.3560  221.2560 N   0  0  0  0  0  0  0  0  0  0  0  0
  139.0100   78.3630  220.7220 C   0  0  0  0  0  0  0  0  0  0  0  0
  139.5550   79.0300  219.4900 C   0  0  0  0  0  0  0  0  0  0  0  0
  141.0290   79.2560  219.4970 C   0  0  0  0  0  0  0  0  0  0  0  0
  141.8180   78.0740  219.9740 C   0  0  0  0  0  0  0  0  0  0  0  0
  141.3050   77.6360  221.3210 C   0  0  1  0  0  0  0  0  0  0  0  0
  141.5700   78.7840  222.2550 C   0  0  0  0  0  0  0  0  0  0  0  0
  140.6520   79.4150  223.0230 N   0  0  0  0  0  0  0  0  0  0  0  0
  141.2150   80.3990  223.7440 C   0  0  0  0  0  0  0  0  0  0  0  0
  142.5540   80.3830  223.4100 C   0  0  0  0  0  0  0  0  0  0  0  0
  142.7520   79.3910  222.5010 N   0  0  0  0  0  0  0  0  0  0  0  0
  140.3100   71.6880  223.4500 C   0  0  0  0  0  0  0  0  0  0  0  0
  139.6010   70.5440  223.1410 C   0  0  0  0  0  0  0  0  0  0  0  0
  139.2760   69.5900  224.0990 C   0  0  0  0  0  0  0  0  0  0  0  0
  139.6710   69.7850  225.4080 C   0  0  0  0  0  0  0  0  0  0  0  0
  139.3910   68.8900  226.4210 C   0  0  0  0  0  0  0  0  0  0  0  0
  139.8190   69.1470  227.7230 C   0  0  0  0  0  0  0  0  0  0  0  0
  140.5250   70.3110  227.9730 C   0  0  0  0  0  0  0  0  0  0  0  0
  140.8110   71.2090  226.9820 C   0  0  0  0  0  0  0  0  0  0  0  0
  140.3830   70.9430  225.6980 C   0  0  0  0  0  0  0  0  0  0  0  0
  140.6760   71.8410  224.7380 N   0  0  0  0  0  0  0  0  0  0  0  0
  139.0290   73.9580  223.0280 H   0  0  0  0  0  0  0  0  0  0  0  0
  141.1217   75.1051  221.3173 H   0  0  0  0  0  0  0  0  0  0  0  0
  139.6610   74.5250  220.4001 H   0  0  0  0  0  0  0  0  0  0  0  0
  138.0486   77.8926  220.4681 H   0  0  0  0  0  0  0  0  0  0  0  0
  138.9003   79.1408  221.4921 H   0  0  0  0  0  0  0  0  0  0  0  0
  139.3105   78.3984  218.6232 H   0  0  0  0  0  0  0  0  0  0  0  0
  139.0908   80.0264  219.4483 H   0  0  0  0  0  0  0  0  0  0  0  0
  141.3484   79.4959  218.4721 H   0  0  0  0  0  0  0  0  0  0  0  0
  141.2247   80.0782  220.2011 H   0  0  0  0  0  0  0  0  0  0  0  0
  141.7114   77.2482  219.2552 H   0  0  0  0  0  0  0  0  0  0  0  0
  142.8787   78.3524  220.0593 H   0  0  0  0  0  0  0  0  0  0  0  0
  141.8007   76.7147  221.6609 H   0  0  0  0  0  0  0  0  0  0  0  0
  140.7139   81.0755  224.4520 H   0  0  0  0  0  0  0  0  0  0  0  0
  143.3270   81.0559  223.8097 H   0  0  0  0  0  0  0  0  0  0  0  0
  143.6850   79.1440  222.0640 H   0  0  0  0  0  0  0  0  0  0  0  0
  139.2822   70.3818  222.1008 H   0  0  0  0  0  0  0  0  0  0  0  0
  138.7103   68.6896  223.8173 H   0  0  0  0  0  0  0  0  0  0  0  0
  138.8283   67.9709  226.2004 H   0  0  0  0  0  0  0  0  0  0  0  0
  139.5999   68.4386  228.5355 H   0  0  0  0  0  0  0  0  0  0  0  0
  140.8657   70.5197  228.9979 H   0  0  0  0  0  0  0  0  0  0  0  0
  141.3729   72.1280  227.2051 H   0  0  0  0  0  0  0  0  0  0  0  0
  1  2  2  0
  2  3  1  0
  3  4  1  0
  4  5  1  0
  5  6  2  0
  5  7  1  0
  7  8  1  0
  8  9  1  0
  9 10  1  0
 10 11  1  0
 11 12  1  0
 12 13  1  0
 13 14  2  0
 14 15  1  0
 15 16  2  0
 16 17  1  0
  2 18  1  0
 18 19  2  0
 19 20  1  0
 20 21  2  0
 21 22  1  0
 22 23  2  0
 23 24  1  0
 24 25  2  0
 25 26  1  0
 26 27  2  0
 12  7  1  0
 17 13  1  0
 27 18  1  0
 26 21  1  0
  3 28  1  0
  4 29  1  0
  4 30  1  0
  8 31  1  0
  8 32  1  0
  9 33  1  0
  9 34  1  0
 10 35  1  0
 10 36  1  0
 11 37  1  0
 11 38  1  0
 12 39  1  1
 15 40  1  0
 16 41  1  0
 17 42  1  0
 19 43  1  0
 20 44  1  0
 22 45  1  0
 23 46  1  0
 24 47  1  0
 25 48  1  0
M  END
>  <smiles>  (17) 
O=C(NCC(=O)N1CCCC[C@H]1c1ncc[nH]1)c1ccc2ccccc2n1

>  <score_type>  (17) 
oracle

>  <origin>  (17) 
autodockgpu

>  <m_score__min__energy>  (17) 
-8.5099999999999998

>  <m_primary>  (17) 
energy

>  <rmsd>  (17) 
2.3553162939554606

>  <m_score__min__rmsd>  (17) 
2.3553162939554606

>  <meeko>  (17) 
{"free_energy": -8.23, "intermolecular_energy": -9.72, "internal_energy": -1.55, "cluster_size": 29, "cluster_id": 1, "rank_in_cluster": 16}

>  <energy>  (17) 
-8.18

>  <cluster_rmsd>  (17) 
0.96

>  <cluster>  (17) 
1

$$$$

     RDKit          3D

 48 51  0  0  0  0  0  0  0  0999 V2000
  141.4370   72.5630  221.5910 O   0  0  0  0  0  0  0  0  0  0  0  0
  140.5060   72.6690  222.4170 C   0  0  0  0  0  0  0  0  0  0  0  0
  139.6380   73.7940  222.3500 N   0  0  0  0  0  0  0  0  0  0  0  0
  139.7730   74.8450  221.3610 C   0  0  0  0  0  0  0  0  0  0  0  0
  139.2410   76.1360  221.8320 C   0  0  0  0  0  0  0  0  0  0  0  0
  138.2780   76.2620  222.6310 O   0  0  0  0  0  0  0  0  0  0  0  0
  139.8590   77.3230  221.3490 N   0  0  0  0  0  0  0  0  0  0  0  0
  139.0410   78.3330  220.7410 C   0  0  0  0  0  0  0  0  0  0  0  0
  139.6480   78.9200  219.4980 C   0  0  0  0  0  0  0  0  0  0  0  0
  141.1290   79.0930  219.5410 C   0  0  0  0  0  0  0  0  0  0  0  0
  141.8580   77.9080  220.0990 C   0  0  0  0  0  0  0  0  0  0  0  0
  141.2880   77.5530  221.4470 C   0  0  1  0  0  0  0  0  0  0  0  0
  141.5680   78.7340  222.3340 C   0  0  0  0  0  0  0  0  0  0  0  0
  140.6750   79.3590  223.1350 N   0  0  0  0  0  0  0  0  0  0  0  0
  141.2450   80.3790  223.7970 C   0  0  0  0  0  0  0  0  0  0  0  0
  142.5640   80.3940  223.3900 C   0  0  0  0  0  0  0  0  0  0  0  0
  142.7430   79.3830  222.4980 N   0  0  0  0  0  0  0  0  0  0  0  0
  140.2630   71.6840  223.4590 C   0  0  0  0  0  0  0  0  0  0  0  0
  139.5840   70.5130  223.1820 C   0  0  0  0  0  0  0  0  0  0  0  0
  139.3350   69.5510  224.1540 C   0  0  0  0  0  0  0  0  0  0  0  0
  139.7760   69.7650  225.4440 C   0  0  0  0  0  0  0  0  0  0  0  0
  139.5720   68.8630  226.4700 C   0  0  0  0  0  0  0  0  0  0  0  0
  140.0440   69.1400  227.7520 C   0  0  0  0  0  0  0  0  0  0  0  0
  140.7160   70.3300  227.9710 C   0  0  0  0  0  0  0  0  0  0  0  0
  140.9280   71.2350  226.9670 C   0  0  0  0  0  0  0  0  0  0  0  0
  140.4560   70.9490  225.7020 C   0  0  0  0  0  0  0  0  0  0  0  0
  140.6770   71.8540  224.7300 N   0  0  0  0  0  0  0  0  0  0  0  0
  138.8500   73.8780  223.0540 H   0  0  0  0  0  0  0  0  0  0  0  0
  140.8395   74.9693  221.1218 H   0  0  0  0  0  0  0  0  0  0  0  0
  139.1916   74.5472  220.4759 H   0  0  0  0  0  0  0  0  0  0  0  0
  138.0711   77.8855  220.4782 H   0  0  0  0  0  0  0  0  0  0  0  0
  138.9363   79.1501  221.4699 H   0  0  0  0  0  0  0  0  0  0  0  0
  139.4062   78.2570  218.6543 H   0  0  0  0  0  0  0  0  0  0  0  0
  139.2233   79.9295  219.3956 H   0  0  0  0  0  0  0  0  0  0  0  0
  141.4878   79.2706  218.5164 H   0  0  0  0  0  0  0  0  0  0  0  0
  141.3343   79.9413  220.2105 H   0  0  0  0  0  0  0  0  0  0  0  0
  141.7435   77.0530  219.4164 H   0  0  0  0  0  0  0  0  0  0  0  0
  142.9250   78.1529  220.2066 H   0  0  0  0  0  0  0  0  0  0  0  0
  141.7371   76.6311  221.8451 H   0  0  0  0  0  0  0  0  0  0  0  0
  140.7620   81.0598  224.5134 H   0  0  0  0  0  0  0  0  0  0  0  0
  143.3360   81.1007  223.7283 H   0  0  0  0  0  0  0  0  0  0  0  0
  143.6570   79.1520  222.0160 H   0  0  0  0  0  0  0  0  0  0  0  0
  139.2280   70.3358  222.1564 H   0  0  0  0  0  0  0  0  0  0  0  0
  138.7923   68.6292  223.8977 H   0  0  0  0  0  0  0  0  0  0  0  0
  139.0353   67.9229  226.2747 H   0  0  0  0  0  0  0  0  0  0  0  0
  139.8854   68.4264  228.5740 H   0  0  0  0  0  0  0  0  0  0  0  0
  141.0902   70.5545  228.9807 H   0  0  0  0  0  0  0  0  0  0  0  0
  141.4653   72.1743  227.1646 H   0  0  0  0  0  0  0  0  0  0  0  0
  1  2  2  0
  2  3  1  0
  3  4  1  0
  4  5  1  0
  5  6  2  0
  5  7  1  0
  7  8  1  0
  8  9  1  0
  9 10  1  0
 10 11  1  0
 11 12  1  0
 12 13  1  0
 13 14  2  0
 14 15  1  0
 15 16  2  0
 16 17  1  0
  2 18  1  0
 18 19  2  0
 19 20  1  0
 20 21  2  0
 21 22  1  0
 22 23  2  0
 23 24  1  0
 24 25  2  0
 25 26  1  0
 26 27  2  0
 12  7  1  0
 17 13  1  0
 27 18  1  0
 26 21  1  0
  3 28  1  0
  4 29  1  0
  4 30  1  0
  8 31  1  0
  8 32  1  0
  9 33  1  0
  9 34  1  0
 10 35  1  0
 10 36  1  0
 11 37  1  0
 11 38  1  0
 12 39  1  1
 15 40  1  0
 16 41  1  0
 17 42  1  0
 19 43  1  0
 20 44  1  0
 22 45  1  0
 23 46  1  0
 24 47  1  0
 25 48  1  0
M  END
>  <smiles>  (18) 
O=C(NCC(=O)N1CCCC[C@H]1c1ncc[nH]1)c1ccc2ccccc2n1

>  <score_type>  (18) 
oracle

>  <origin>  (18) 
autodockgpu

>  <m_score__min__energy>  (18) 
-8.5099999999999998

>  <m_primary>  (18) 
energy

>  <rmsd>  (18) 
2.3101562364832002

>  <m_score__min__rmsd>  (18) 
2.3101562364832002

>  <meeko>  (18) 
{"free_energy": -8.41, "intermolecular_energy": -9.91, "internal_energy": -1.54, "cluster_size": 29, "cluster_id": 1, "rank_in_cluster": 6}

>  <energy>  (18) 
-8.17

>  <cluster_rmsd>  (18) 
1.1

>  <cluster>  (18) 
1

$$$$

     RDKit          3D

 48 51  0  0  0  0  0  0  0  0999 V2000
  141.4170   72.3220  221.7980 O   0  0  0  0  0  0  0  0  0  0  0  0
  140.4450   72.4280  222.5760 C   0  0  0  0  0  0  0  0  0  0  0  0
  139.4710   73.4390  222.3440 N   0  0  0  0  0  0  0  0  0  0  0  0
  139.5410   74.3710  221.2360 C   0  0  0  0  0  0  0  0  0  0  0  0
  140.6230   75.3570  221.3940 C   0  0  0  0  0  0  0  0  0  0  0  0
  141.8500   75.0790  221.3740 O   0  0  0  0  0  0  0  0  0  0  0  0
  140.2580   76.7180  221.5830 N   0  0  0  0  0  0  0  0  0  0  0  0
  139.0740   77.0210  222.3360 C   0  0  0  0  0  0  0  0  0  0  0  0
  138.2400   78.1100  221.7200 C   0  0  0  0  0  0  0  0  0  0  0  0
  139.0170   79.2140  221.0860 C   0  0  0  0  0  0  0  0  0  0  0  0
  140.1570   78.7380  220.2380 C   0  0  0  0  0  0  0  0  0  0  0  0
  141.0360   77.8170  221.0430 C   0  0  1  0  0  0  0  0  0  0  0  0
  141.5990   78.6560  222.1570 C   0  0  0  0  0  0  0  0  0  0  0  0
  141.2400   78.5960  223.4590 N   0  0  0  0  0  0  0  0  0  0  0  0
  141.9330   79.4800  224.1960 C   0  0  0  0  0  0  0  0  0  0  0  0
  142.7700   80.1260  223.3090 C   0  0  0  0  0  0  0  0  0  0  0  0
  142.5520   79.6100  222.0690 N   0  0  0  0  0  0  0  0  0  0  0  0
  140.2600   71.5560  223.7250 C   0  0  0  0  0  0  0  0  0  0  0  0
  139.5950   70.3510  223.6000 C   0  0  0  0  0  0  0  0  0  0  0  0
  139.4010   69.4950  224.6770 C   0  0  0  0  0  0  0  0  0  0  0  0
  139.8830   69.8520  225.9200 C   0  0  0  0  0  0  0  0  0  0  0  0
  139.7330   69.0620  227.0420 C   0  0  0  0  0  0  0  0  0  0  0  0
  140.2450   69.4830  228.2700 C   0  0  0  0  0  0  0  0  0  0  0  0
  140.9000   70.7000  228.3350 C   0  0  0  0  0  0  0  0  0  0  0  0
  141.0580   71.4960  227.2340 C   0  0  0  0  0  0  0  0  0  0  0  0
  140.5480   71.0680  226.0250 C   0  0  0  0  0  0  0  0  0  0  0  0
  140.7140   71.8680  224.9550 N   0  0  0  0  0  0  0  0  0  0  0  0
  138.6490   73.5230  223.0080 H   0  0  0  0  0  0  0  0  0  0  0  0
  139.7132   73.8043  220.3091 H   0  0  0  0  0  0  0  0  0  0  0  0
  138.5896   74.9222  221.2032 H   0  0  0  0  0  0  0  0  0  0  0  0
  138.4619   76.1097  222.4059 H   0  0  0  0  0  0  0  0  0  0  0  0
  139.3989   77.3788  223.3241 H   0  0  0  0  0  0  0  0  0  0  0  0
  137.6005   77.6557  220.9489 H   0  0  0  0  0  0  0  0  0  0  0  0
  137.6717   78.5665  222.5438 H   0  0  0  0  0  0  0  0  0  0  0  0
  138.3344   79.8002  220.4531 H   0  0  0  0  0  0  0  0  0  0  0  0
  139.4504   79.8117  221.9014 H   0  0  0  0  0  0  0  0  0  0  0  0
  139.7629   78.1973  219.3649 H   0  0  0  0  0  0  0  0  0  0  0  0
  140.7468   79.6029  219.9003 H   0  0  0  0  0  0  0  0  0  0  0  0
  141.8325   77.3771  220.4249 H   0  0  0  0  0  0  0  0  0  0  0  0
  141.8506   79.6527  225.2792 H   0  0  0  0  0  0  0  0  0  0  0  0
  143.4885   80.9200  223.5607 H   0  0  0  0  0  0  0  0  0  0  0  0
  143.0540   79.9150  221.1880 H   0  0  0  0  0  0  0  0  0  0  0  0
  139.2057   70.0594  222.6134 H   0  0  0  0  0  0  0  0  0  0  0  0
  138.8685   68.5422  224.5404 H   0  0  0  0  0  0  0  0  0  0  0  0
  139.2085   68.0980  226.9679 H   0  0  0  0  0  0  0  0  0  0  0  0
  140.1301   68.8594  229.1689 H   0  0  0  0  0  0  0  0  0  0  0  0
  141.3055   71.0372  229.3003 H   0  0  0  0  0  0  0  0  0  0  0  0
  141.5822   72.4600  227.3107 H   0  0  0  0  0  0  0  0  0  0  0  0
  1  2  2  0
  2  3  1  0
  3  4  1  0
  4  5  1  0
  5  6  2  0
  5  7  1  0
  7  8  1  0
  8  9  1  0
  9 10  1  0
 10 11  1  0
 11 12  1  0
 12 13  1  0
 13 14  2  0
 14 15  1  0
 15 16  2  0
 16 17  1  0
  2 18  1  0
 18 19  2  0
 19 20  1  0
 20 21  2  0
 21 22  1  0
 22 23  2  0
 23 24  1  0
 24 25  2  0
 25 26  1  0
 26 27  2  0
 12  7  1  0
 17 13  1  0
 27 18  1  0
 26 21  1  0
  3 28  1  0
  4 29  1  0
  4 30  1  0
  8 31  1  0
  8 32  1  0
  9 33  1  0
  9 34  1  0
 10 35  1  0
 10 36  1  0
 11 37  1  0
 11 38  1  0
 12 39  1  6
 15 40  1  0
 16 41  1  0
 17 42  1  0
 19 43  1  0
 20 44  1  0
 22 45  1  0
 23 46  1  0
 24 47  1  0
 25 48  1  0
M  END
>  <smiles>  (19) 
O=C(NCC(=O)N1CCCC[C@H]1c1ncc[nH]1)c1ccc2ccccc2n1

>  <score_type>  (19) 
oracle

>  <origin>  (19) 
autodockgpu

>  <m_score__min__energy>  (19) 
-8.5099999999999998

>  <m_primary>  (19) 
energy

>  <rmsd>  (19) 
2.463294177321828

>  <m_score__min__rmsd>  (19) 
2.463294177321828

>  <meeko>  (19) 
{"free_energy": -8.51, "intermolecular_energy": -10.0, "internal_energy": -1.23, "cluster_size": 29, "cluster_id": 1, "rank_in_cluster": 1}

>  <energy>  (19) 
-8.16

>  <cluster_rmsd>  (19) 
0.77

>  <cluster>  (19) 
1

$$$$

     RDKit          3D

 48 51  0  0  0  0  0  0  0  0999 V2000
  141.4420   72.0600  221.6310 O   0  0  0  0  0  0  0  0  0  0  0  0
  140.5940   72.3640  222.4960 C   0  0  0  0  0  0  0  0  0  0  0  0
  139.8580   73.5730  222.3580 N   0  0  0  0  0  0  0  0  0  0  0  0
  140.0360   74.4910  221.2510 C   0  0  0  0  0  0  0  0  0  0  0  0
  139.2380   75.7200  221.4020 C   0  0  0  0  0  0  0  0  0  0  0  0
  138.0520   75.7540  221.8200 O   0  0  0  0  0  0  0  0  0  0  0  0
  139.8500   76.9550  221.0510 N   0  0  0  0  0  0  0  0  0  0  0  0
  139.0450   77.9830  220.4540 C   0  0  0  0  0  0  0  0  0  0  0  0
  139.7210   78.6740  219.3030 C   0  0  0  0  0  0  0  0  0  0  0  0
  141.1890   78.8850  219.4690 C   0  0  0  0  0  0  0  0  0  0  0  0
  141.9140   77.6830  219.9960 C   0  0  0  0  0  0  0  0  0  0  0  0
  141.2590   77.2180  221.2710 C   0  0  1  0  0  0  0  0  0  0  0  0
  141.4350   78.3400  222.2560 C   0  0  0  0  0  0  0  0  0  0  0  0
  140.4850   78.8270  223.0860 N   0  0  0  0  0  0  0  0  0  0  0  0
  140.9650   79.8300  223.8400 C   0  0  0  0  0  0  0  0  0  0  0  0
  142.2840   79.9780  223.4620 C   0  0  0  0  0  0  0  0  0  0  0  0
  142.5530   79.0610  222.4950 N   0  0  0  0  0  0  0  0  0  0  0  0
  140.3200   71.5280  223.6550 C   0  0  0  0  0  0  0  0  0  0  0  0
  139.6380   70.3340  223.5220 C   0  0  0  0  0  0  0  0  0  0  0  0
  139.3590   69.5130  224.6080 C   0  0  0  0  0  0  0  0  0  0  0  0
  139.7730   69.8960  225.8680 C   0  0  0  0  0  0  0  0  0  0  0  0
  139.5380   69.1410  227.0000 C   0  0  0  0  0  0  0  0  0  0  0  0
  139.9840   69.5860  228.2450 C   0  0  0  0  0  0  0  0  0  0  0  0
  140.6600   70.7910  228.3170 C   0  0  0  0  0  0  0  0  0  0  0  0
  140.9020   71.5520  227.2060 C   0  0  0  0  0  0  0  0  0  0  0  0
  140.4570   71.1010  225.9810 C   0  0  0  0  0  0  0  0  0  0  0  0
  140.7060   71.8660  224.9010 N   0  0  0  0  0  0  0  0  0  0  0  0
  139.1400   73.8240  223.0970 H   0  0  0  0  0  0  0  0  0  0  0  0
  141.0992   74.7664  221.1888 H   0  0  0  0  0  0  0  0  0  0  0  0
  139.6953   73.9820  220.3373 H   0  0  0  0  0  0  0  0  0  0  0  0
  138.1122   77.5283  220.0892 H   0  0  0  0  0  0  0  0  0  0  0  0
  138.8607   78.7430  221.2276 H   0  0  0  0  0  0  0  0  0  0  0  0
  139.5635   78.0662  218.3998 H   0  0  0  0  0  0  0  0  0  0  0  0
  139.2715   79.6759  219.2387 H   0  0  0  0  0  0  0  0  0  0  0  0
  141.6155   79.1461  218.4892 H   0  0  0  0  0  0  0  0  0  0  0  0
  141.3170   79.6883  220.2094 H   0  0  0  0  0  0  0  0  0  0  0  0
  141.8764   76.8760  219.2494 H   0  0  0  0  0  0  0  0  0  0  0  0
  142.9623   77.9477  220.1986 H   0  0  0  0  0  0  0  0  0  0  0  0
  141.7083   76.2833  221.6376 H   0  0  0  0  0  0  0  0  0  0  0  0
  140.4210   80.4112  224.5991 H   0  0  0  0  0  0  0  0  0  0  0  0
  142.9945   80.7108  223.8720 H   0  0  0  0  0  0  0  0  0  0  0  0
  143.4890   78.9400  222.0150 H   0  0  0  0  0  0  0  0  0  0  0  0
  139.3041   70.0222  222.5214 H   0  0  0  0  0  0  0  0  0  0  0  0
  138.8141   68.5682  224.4651 H   0  0  0  0  0  0  0  0  0  0  0  0
  138.9977   68.1862  226.9201 H   0  0  0  0  0  0  0  0  0  0  0  0
  139.8017   68.9903  229.1516 H   0  0  0  0  0  0  0  0  0  0  0  0
  141.0132   71.1476  229.2958 H   0  0  0  0  0  0  0  0  0  0  0  0
  141.4420   72.5068  227.2884 H   0  0  0  0  0  0  0  0  0  0  0  0
  1  2  2  0
  2  3  1  0
  3  4  1  0
  4  5  1  0
  5  6  2  0
  5  7  1  0
  7  8  1  0
  8  9  1  0
  9 10  1  0
 10 11  1  0
 11 12  1  0
 12 13  1  0
 13 14  2  0
 14 15  1  0
 15 16  2  0
 16 17  1  0
  2 18  1  0
 18 19  2  0
 19 20  1  0
 20 21  2  0
 21 22  1  0
 22 23  2  0
 23 24  1  0
 24 25  2  0
 25 26  1  0
 26 27  2  0
 12  7  1  0
 17 13  1  0
 27 18  1  0
 26 21  1  0
  3 28  1  0
  4 29  1  0
  4 30  1  0
  8 31  1  0
  8 32  1  0
  9 33  1  0
  9 34  1  0
 10 35  1  0
 10 36  1  0
 11 37  1  0
 11 38  1  0
 12 39  1  1
 15 40  1  0
 16 41  1  0
 17 42  1  0
 19 43  1  0
 20 44  1  0
 22 45  1  0
 23 46  1  0
 24 47  1  0
 25 48  1  0
M  END
>  <smiles>  (20) 
O=C(NCC(=O)N1CCCC[C@H]1c1ncc[nH]1)c1ccc2ccccc2n1

>  <score_type>  (20) 
oracle

>  <origin>  (20) 
autodockgpu

>  <m_score__min__energy>  (20) 
-8.5099999999999998

>  <m_primary>  (20) 
energy

>  <rmsd>  (20) 
2.170523034042979

>  <m_score__min__rmsd>  (20) 
2.170523034042979

>  <meeko>  (20) 
{"free_energy": -8.28, "intermolecular_energy": -9.77, "internal_energy": -1.49, "cluster_size": 29, "cluster_id": 1, "rank_in_cluster": 13}

>  <energy>  (20) 
-8.11

>  <cluster_rmsd>  (20) 
0.88

>  <cluster>  (20) 
1

$$$$

     RDKit          3D

 48 51  0  0  0  0  0  0  0  0999 V2000
  138.1650   75.5610  222.3770 O   0  0  0  0  0  0  0  0  0  0  0  0
  139.3440   75.9670  222.3080 C   0  0  0  0  0  0  0  0  0  0  0  0
  140.3690   75.0730  221.8900 N   0  0  0  0  0  0  0  0  0  0  0  0
  140.1200   73.6910  221.5320 C   0  0  0  0  0  0  0  0  0  0  0  0
  141.3560   72.9630  221.1980 C   0  0  0  0  0  0  0  0  0  0  0  0
  141.7200   71.8870  221.7410 O   0  0  0  0  0  0  0  0  0  0  0  0
  142.1990   73.5130  220.1930 N   0  0  0  0  0  0  0  0  0  0  0  0
  142.0310   73.0820  218.8340 C   0  0  0  0  0  0  0  0  0  0  0  0
  143.3330   72.8310  218.1260 C   0  0  0  0  0  0  0  0  0  0  0  0
  144.4310   73.7790  218.4710 C   0  0  0  0  0  0  0  0  0  0  0  0
  144.5550   74.0460  219.9410 C   0  0  0  0  0  0  0  0  0  0  0  0
  143.2250   74.4950  220.4870 C   0  0  1  0  0  0  0  0  0  0  0  0
  142.9170   75.7960  219.7990 C   0  0  0  0  0  0  0  0  0  0  0  0
  141.8730   76.6130  220.0710 N   0  0  0  0  0  0  0  0  0  0  0  0
  141.8850   77.6960  219.2770 C   0  0  0  0  0  0  0  0  0  0  0  0
  142.9930   77.5500  218.4670 C   0  0  0  0  0  0  0  0  0  0  0  0
  143.6100   76.3850  218.8000 N   0  0  0  0  0  0  0  0  0  0  0  0
  139.7260   77.3310  222.6410 C   0  0  0  0  0  0  0  0  0  0  0  0
  138.7670   78.2920  222.8970 C   0  0  0  0  0  0  0  0  0  0  0  0
  139.0970   79.6040  223.2180 C   0  0  0  0  0  0  0  0  0  0  0  0
  140.4270   79.9690  223.2830 C   0  0  0  0  0  0  0  0  0  0  0  0
  140.8430   81.2480  223.5950 C   0  0  0  0  0  0  0  0  0  0  0  0
  142.2030   81.5510  223.6440 C   0  0  0  0  0  0  0  0  0  0  0  0
  143.1180   80.5480  223.3780 C   0  0  0  0  0  0  0  0  0  0  0  0
  142.7250   79.2740  223.0680 C   0  0  0  0  0  0  0  0  0  0  0  0
  141.3760   78.9870  223.0220 C   0  0  0  0  0  0  0  0  0  0  0  0
  141.0120   77.7270  222.7150 N   0  0  0  0  0  0  0  0  0  0  0  0
  141.3670   75.4250  221.8350 H   0  0  0  0  0  0  0  0  0  0  0  0
  139.6334   73.1889  222.3812 H   0  0  0  0  0  0  0  0  0  0  0  0
  139.4785   73.6878  220.6384 H   0  0  0  0  0  0  0  0  0  0  0  0
  141.4472   72.1497  218.8328 H   0  0  0  0  0  0  0  0  0  0  0  0
  141.5177   73.8924  218.2957 H   0  0  0  0  0  0  0  0  0  0  0  0
  143.6682   71.8142  218.3785 H   0  0  0  0  0  0  0  0  0  0  0  0
  143.1317   72.9709  217.0537 H   0  0  0  0  0  0  0  0  0  0  0  0
  145.3811   73.3554  218.1133 H   0  0  0  0  0  0  0  0  0  0  0  0
  144.1920   74.7382  217.9884 H   0  0  0  0  0  0  0  0  0  0  0  0
  144.8699   73.1258  220.4549 H   0  0  0  0  0  0  0  0  0  0  0  0
  145.3032   74.8350  220.1071 H   0  0  0  0  0  0  0  0  0  0  0  0
  143.2563   74.6125  221.5803 H   0  0  0  0  0  0  0  0  0  0  0  0
  141.1629   78.5258  219.2730 H   0  0  0  0  0  0  0  0  0  0  0  0
  143.3201   78.2538  217.6875 H   0  0  0  0  0  0  0  0  0  0  0  0
  144.4900   76.0120  218.3440 H   0  0  0  0  0  0  0  0  0  0  0  0
  137.7052   78.0093  222.8451 H   0  0  0  0  0  0  0  0  0  0  0  0
  138.3072   80.3430  223.4180 H   0  0  0  0  0  0  0  0  0  0  0  0
  140.0991   82.0304  223.8056 H   0  0  0  0  0  0  0  0  0  0  0  0
  142.5421   82.5682  223.8895 H   0  0  0  0  0  0  0  0  0  0  0  0
  144.1923   80.7810  223.4168 H   0  0  0  0  0  0  0  0  0  0  0  0
  143.4710   78.4931  222.8593 H   0  0  0  0  0  0  0  0  0  0  0  0
  1  2  2  0
  2  3  1  0
  3  4  1  0
  4  5  1  0
  5  6  2  0
  5  7  1  0
  7  8  1  0
  8  9  1  0
  9 10  1  0
 10 11  1  0
 11 12  1  0
 12 13  1  0
 13 14  2  0
 14 15  1  0
 15 16  2  0
 16 17  1  0
  2 18  1  0
 18 19  2  0
 19 20  1  0
 20 21  2  0
 21 22  1  0
 22 23  2  0
 23 24  1  0
 24 25  2  0
 25 26  1  0
 26 27  2  0
 12  7  1  0
 17 13  1  0
 27 18  1  0
 26 21  1  0
  3 28  1  0
  4 29  1  0
  4 30  1  0
  8 31  1  0
  8 32  1  0
  9 33  1  0
  9 34  1  0
 10 35  1  0
 10 36  1  0
 11 37  1  0
 11 38  1  0
 12 39  1  1
 15 40  1  0
 16 41  1  0
 17 42  1  0
 19 43  1  0
 20 44  1  0
 22 45  1  0
 23 46  1  0
 24 47  1  0
 25 48  1  0
M  END
>  <smiles>  (21) 
O=C(NCC(=O)N1CCCC[C@H]1c1ncc[nH]1)c1ccc2ccccc2n1

>  <score_type>  (21) 
oracle

>  <origin>  (21) 
autodockgpu

>  <m_score__min__energy>  (21) 
-8.5099999999999998

>  <m_primary>  (21) 
energy

>  <rmsd>  (21) 
7.132252568982495

>  <m_score__min__rmsd>  (21) 
7.132252568982495

>  <meeko>  (21) 
{"free_energy": -6.59, "intermolecular_energy": -8.08, "internal_energy": -2.65, "cluster_size": 4, "cluster_id": 5, "rank_in_cluster": 3}

>  <energy>  (21) 
-8.1

>  <cluster_rmsd>  (21) 
0.94

>  <cluster>  (21) 
1

$$$$

     RDKit          3D

 48 51  0  0  0  0  0  0  0  0999 V2000
  141.2670   72.2100  221.6180 O   0  0  0  0  0  0  0  0  0  0  0  0
  140.3980   72.4370  222.4860 C   0  0  0  0  0  0  0  0  0  0  0  0
  139.5550   73.5750  222.3510 N   0  0  0  0  0  0  0  0  0  0  0  0
  139.6480   74.5060  221.2440 C   0  0  0  0  0  0  0  0  0  0  0  0
  139.0920   75.8300  221.5720 C   0  0  0  0  0  0  0  0  0  0  0  0
  138.0160   76.0180  222.1950 O   0  0  0  0  0  0  0  0  0  0  0  0
  139.8220   76.9770  221.1540 N   0  0  0  0  0  0  0  0  0  0  0  0
  139.1470   77.9910  220.3950 C   0  0  0  0  0  0  0  0  0  0  0  0
  139.9610   78.5110  219.2430 C   0  0  0  0  0  0  0  0  0  0  0  0
  141.4230   78.6360  219.5100 C   0  0  0  0  0  0  0  0  0  0  0  0
  142.0110   77.4490  220.2120 C   0  0  0  0  0  0  0  0  0  0  0  0
  141.2260   77.1640  221.4660 C   0  0  1  0  0  0  0  0  0  0  0  0
  141.4110   78.3680  222.3480 C   0  0  0  0  0  0  0  0  0  0  0  0
  140.4760   78.9110  223.1610 N   0  0  0  0  0  0  0  0  0  0  0  0
  140.9610   79.9800  223.8140 C   0  0  0  0  0  0  0  0  0  0  0  0
  142.2670   80.1130  223.3880 C   0  0  0  0  0  0  0  0  0  0  0  0
  142.5240   79.1200  222.4940 N   0  0  0  0  0  0  0  0  0  0  0  0
  140.2020   71.5800  223.6450 C   0  0  0  0  0  0  0  0  0  0  0  0
  139.5360   70.3750  223.5310 C   0  0  0  0  0  0  0  0  0  0  0  0
  139.3320   69.5330  224.6180 C   0  0  0  0  0  0  0  0  0  0  0  0
  139.8070   69.9060  225.8600 C   0  0  0  0  0  0  0  0  0  0  0  0
  139.6490   69.1310  226.9910 C   0  0  0  0  0  0  0  0  0  0  0  0
  140.1530   69.5660  228.2160 C   0  0  0  0  0  0  0  0  0  0  0  0
  140.8110   70.7820  228.2700 C   0  0  0  0  0  0  0  0  0  0  0  0
  140.9780   71.5640  227.1590 C   0  0  0  0  0  0  0  0  0  0  0  0
  140.4740   71.1220  225.9540 C   0  0  0  0  0  0  0  0  0  0  0  0
  140.6500   71.9070  224.8730 N   0  0  0  0  0  0  0  0  0  0  0  0
  138.8200   73.7610  223.0920 H   0  0  0  0  0  0  0  0  0  0  0  0
  140.7070   74.6257  220.9718 H   0  0  0  0  0  0  0  0  0  0  0  0
  139.0602   74.0939  220.4105 H   0  0  0  0  0  0  0  0  0  0  0  0
  138.2124   77.5669  219.9991 H   0  0  0  0  0  0  0  0  0  0  0  0
  138.9630   78.8376  221.0728 H   0  0  0  0  0  0  0  0  0  0  0  0
  139.8267   77.8254  218.3933 H   0  0  0  0  0  0  0  0  0  0  0  0
  139.5966   79.5297  219.0441 H   0  0  0  0  0  0  0  0  0  0  0  0
  141.9420   78.7631  218.5485 H   0  0  0  0  0  0  0  0  0  0  0  0
  141.5554   79.5015  220.1759 H   0  0  0  0  0  0  0  0  0  0  0  0
  141.9702   76.5733  219.5475 H   0  0  0  0  0  0  0  0  0  0  0  0
  143.0573   77.6620  220.4763 H   0  0  0  0  0  0  0  0  0  0  0  0
  141.5724   76.2436  221.9589 H   0  0  0  0  0  0  0  0  0  0  0  0
  140.4289   80.6160  224.5367 H   0  0  0  0  0  0  0  0  0  0  0  0
  142.9768   80.8873  223.7145 H   0  0  0  0  0  0  0  0  0  0  0  0
  143.4490   78.9720  222.0000 H   0  0  0  0  0  0  0  0  0  0  0  0
  139.1537   70.0712  222.5453 H   0  0  0  0  0  0  0  0  0  0  0  0
  138.7980   68.5798  224.4903 H   0  0  0  0  0  0  0  0  0  0  0  0
  139.1236   68.1668  226.9257 H   0  0  0  0  0  0  0  0  0  0  0  0
  140.0299   68.9544  229.1220 H   0  0  0  0  0  0  0  0  0  0  0  0
  141.2115   71.1303  229.2335 H   0  0  0  0  0  0  0  0  0  0  0  0
  141.5046   72.5274  227.2262 H   0  0  0  0  0  0  0  0  0  0  0  0
  1  2  2  0
  2  3  1  0
  3  4  1  0
  4  5  1  0
  5  6  2  0
  5  7  1  0
  7  8  1  0
  8  9  1  0
  9 10  1  0
 10 11  1  0
 11 12  1  0
 12 13  1  0
 13 14  2  0
 14 15  1  0
 15 16  2  0
 16 17  1  0
  2 18  1  0
 18 19  2  0
 19 20  1  0
 20 21  2  0
 21 22  1  0
 22 23  2  0
 23 24  1  0
 24 25  2  0
 25 26  1  0
 26 27  2  0
 12  7  1  0
 17 13  1  0
 27 18  1  0
 26 21  1  0
  3 28  1  0
  4 29  1  0
  4 30  1  0
  8 31  1  0
  8 32  1  0
  9 33  1  0
  9 34  1  0
 10 35  1  0
 10 36  1  0
 11 37  1  0
 11 38  1  0
 12 39  1  1
 15 40  1  0
 16 41  1  0
 17 42  1  0
 19 43  1  0
 20 44  1  0
 22 45  1  0
 23 46  1  0
 24 47  1  0
 25 48  1  0
M  END
>  <smiles>  (22) 
O=C(NCC(=O)N1CCCC[C@H]1c1ncc[nH]1)c1ccc2ccccc2n1

>  <score_type>  (22) 
oracle

>  <origin>  (22) 
autodockgpu

>  <m_score__min__energy>  (22) 
-8.5099999999999998

>  <m_primary>  (22) 
energy

>  <rmsd>  (22) 
2.1328801467818876

>  <m_score__min__rmsd>  (22) 
2.1328801467818876

>  <meeko>  (22) 
{"free_energy": -8.42, "intermolecular_energy": -9.91, "internal_energy": -1.51, "cluster_size": 29, "cluster_id": 1, "rank_in_cluster": 5}

>  <energy>  (22) 
-8.09

>  <cluster_rmsd>  (22) 
0.92

>  <cluster>  (22) 
1

$$$$

     RDKit          3D

 48 51  0  0  0  0  0  0  0  0999 V2000
  141.3940   72.5280  221.5760 O   0  0  0  0  0  0  0  0  0  0  0  0
  140.4740   72.6380  222.4140 C   0  0  0  0  0  0  0  0  0  0  0  0
  139.5890   73.7480  222.3400 N   0  0  0  0  0  0  0  0  0  0  0  0
  139.6920   74.7810  221.3280 C   0  0  0  0  0  0  0  0  0  0  0  0
  139.2220   76.0920  221.8080 C   0  0  0  0  0  0  0  0  0  0  0  0
  138.2680   76.2580  222.6100 O   0  0  0  0  0  0  0  0  0  0  0  0
  139.8950   77.2520  221.3330 N   0  0  0  0  0  0  0  0  0  0  0  0
  139.1490   78.2340  220.5980 C   0  0  0  0  0  0  0  0  0  0  0  0
  139.8810   78.7570  219.3940 C   0  0  0  0  0  0  0  0  0  0  0  0
  141.3520   78.9270  219.5760 C   0  0  0  0  0  0  0  0  0  0  0  0
  142.0120   77.7680  220.2600 C   0  0  0  0  0  0  0  0  0  0  0  0
  141.3090   77.4820  221.5610 C   0  0  1  0  0  0  0  0  0  0  0  0
  141.5090   78.7050  222.4130 C   0  0  0  0  0  0  0  0  0  0  0  0
  142.6360   79.4490  222.4870 N   0  0  0  0  0  0  0  0  0  0  0  0
  142.4870   80.4740  223.3410 C   0  0  0  0  0  0  0  0  0  0  0  0
  141.2000   80.3660  223.8280 C   0  0  0  0  0  0  0  0  0  0  0  0
  140.6180   79.2820  223.2500 N   0  0  0  0  0  0  0  0  0  0  0  0
  140.2630   71.6700  223.4790 C   0  0  0  0  0  0  0  0  0  0  0  0
  139.5980   70.4840  223.2370 C   0  0  0  0  0  0  0  0  0  0  0  0
  139.3790   69.5380  224.2320 C   0  0  0  0  0  0  0  0  0  0  0  0
  139.8360   69.7840  225.5110 C   0  0  0  0  0  0  0  0  0  0  0  0
  139.6620   68.9010  226.5570 C   0  0  0  0  0  0  0  0  0  0  0  0
  140.1490   69.2110  227.8260 C   0  0  0  0  0  0  0  0  0  0  0  0
  140.8060   70.4150  228.0100 C   0  0  0  0  0  0  0  0  0  0  0  0
  140.9880   71.3030  226.9850 C   0  0  0  0  0  0  0  0  0  0  0  0
  140.5020   70.9840  225.7340 C   0  0  0  0  0  0  0  0  0  0  0  0
  140.6930   71.8730  224.7400 N   0  0  0  0  0  0  0  0  0  0  0  0
  138.8110   73.8350  223.0550 H   0  0  0  0  0  0  0  0  0  0  0  0
  140.7453   74.8736  221.0248 H   0  0  0  0  0  0  0  0  0  0  0  0
  139.0517   74.4858  220.4837 H   0  0  0  0  0  0  0  0  0  0  0  0
  138.2062   77.7773  220.2625 H   0  0  0  0  0  0  0  0  0  0  0  0
  138.9793   79.0864  221.2722 H   0  0  0  0  0  0  0  0  0  0  0  0
  139.7187   78.0539  218.5638 H   0  0  0  0  0  0  0  0  0  0  0  0
  139.4767   79.7615  219.2004 H   0  0  0  0  0  0  0  0  0  0  0  0
  141.8123   79.0535  218.5850 H   0  0  0  0  0  0  0  0  0  0  0  0
  141.4968   79.8062  220.2211 H   0  0  0  0  0  0  0  0  0  0  0  0
  141.9575   76.8810  219.6118 H   0  0  0  0  0  0  0  0  0  0  0  0
  143.0654   78.0136  220.4603 H   0  0  0  0  0  0  0  0  0  0  0  0
  141.7096   76.5798  222.0464 H   0  0  0  0  0  0  0  0  0  0  0  0
  143.2339   81.2394  223.5986 H   0  0  0  0  0  0  0  0  0  0  0  0
  140.7273   81.0402  224.5574 H   0  0  0  0  0  0  0  0  0  0  0  0
  139.6290   78.9520  223.4340 H   0  0  0  0  0  0  0  0  0  0  0  0
  139.2286   70.2807  222.2210 H   0  0  0  0  0  0  0  0  0  0  0  0
  138.8470   68.6030  224.0023 H   0  0  0  0  0  0  0  0  0  0  0  0
  139.1371   67.9490  226.3890 H   0  0  0  0  0  0  0  0  0  0  0  0
  140.0137   68.5122  228.6647 H   0  0  0  0  0  0  0  0  0  0  0  0
  141.1930   70.6653  229.0088 H   0  0  0  0  0  0  0  0  0  0  0  0
  141.5127   72.2546  227.1556 H   0  0  0  0  0  0  0  0  0  0  0  0
  1  2  2  0
  2  3  1  0
  3  4  1  0
  4  5  1  0
  5  6  2  0
  5  7  1  0
  7  8  1  0
  8  9  1  0
  9 10  1  0
 10 11  1  0
 11 12  1  0
 12 13  1  0
 13 14  2  0
 14 15  1  0
 15 16  2  0
 16 17  1  0
  2 18  1  0
 18 19  2  0
 19 20  1  0
 20 21  2  0
 21 22  1  0
 22 23  2  0
 23 24  1  0
 24 25  2  0
 25 26  1  0
 26 27  2  0
 12  7  1  0
 17 13  1  0
 27 18  1  0
 26 21  1  0
  3 28  1  0
  4 29  1  0
  4 30  1  0
  8 31  1  0
  8 32  1  0
  9 33  1  0
  9 34  1  0
 10 35  1  0
 10 36  1  0
 11 37  1  0
 11 38  1  0
 12 39  1  1
 15 40  1  0
 16 41  1  0
 17 42  1  0
 19 43  1  0
 20 44  1  0
 22 45  1  0
 23 46  1  0
 24 47  1  0
 25 48  1  0
M  END
>  <smiles>  (23) 
O=C(NCC(=O)N1CCCC[C@H]1c1ncc[nH]1)c1ccc2ccccc2n1

>  <score_type>  (23) 
oracle

>  <origin>  (23) 
autodockgpu

>  <m_score__min__energy>  (23) 
-8.5099999999999998

>  <m_primary>  (23) 
energy

>  <rmsd>  (23) 
2.262195724830773

>  <m_score__min__rmsd>  (23) 
2.262195724830773

>  <meeko>  (23) 
{"free_energy": -7.8, "intermolecular_energy": -9.3, "internal_energy": -1.61, "cluster_size": 29, "cluster_id": 1, "rank_in_cluster": 28}

>  <energy>  (23) 
-8.08

>  <cluster_rmsd>  (23) 
0.82

>  <cluster>  (23) 
1

$$$$

     RDKit          3D

 48 51  0  0  0  0  0  0  0  0999 V2000
  140.2270   71.5710  221.1780 O   0  0  0  0  0  0  0  0  0  0  0  0
  140.0110   72.1110  222.2830 C   0  0  0  0  0  0  0  0  0  0  0  0
  139.7330   73.5060  222.3370 N   0  0  0  0  0  0  0  0  0  0  0  0
  139.6860   74.3530  221.1610 C   0  0  0  0  0  0  0  0  0  0  0  0
  140.8910   75.1880  221.0170 C   0  0  0  0  0  0  0  0  0  0  0  0
  142.0690   74.7480  221.0270 O   0  0  0  0  0  0  0  0  0  0  0  0
  140.7100   76.5890  220.8560 N   0  0  0  0  0  0  0  0  0  0  0  0
  139.3770   77.1090  220.7400 C   0  0  0  0  0  0  0  0  0  0  0  0
  139.2400   78.1610  219.6750 C   0  0  0  0  0  0  0  0  0  0  0  0
  140.4080   79.0800  219.5440 C   0  0  0  0  0  0  0  0  0  0  0  0
  141.7320   78.3790  219.5700 C   0  0  0  0  0  0  0  0  0  0  0  0
  141.8240   77.5180  220.8020 C   0  0  1  0  0  0  0  0  0  0  0  0
  141.7720   78.4640  221.9700 C   0  0  0  0  0  0  0  0  0  0  0  0
  140.8950   78.4140  222.9980 N   0  0  0  0  0  0  0  0  0  0  0  0
  141.1180   79.4050  223.8770 C   0  0  0  0  0  0  0  0  0  0  0  0
  142.1900   80.1120  223.3720 C   0  0  0  0  0  0  0  0  0  0  0  0
  142.5760   79.5240  222.2090 N   0  0  0  0  0  0  0  0  0  0  0  0
  140.0300   71.3730  223.5360 C   0  0  0  0  0  0  0  0  0  0  0  0
  139.5620   70.0750  223.6000 C   0  0  0  0  0  0  0  0  0  0  0  0
  139.5660   69.3410  224.7810 C   0  0  0  0  0  0  0  0  0  0  0  0
  140.0510   69.9220  225.9350 C   0  0  0  0  0  0  0  0  0  0  0  0
  140.0910   69.2670  227.1500 C   0  0  0  0  0  0  0  0  0  0  0  0
  140.5940   69.9120  228.2790 C   0  0  0  0  0  0  0  0  0  0  0  0
  141.0480   71.2130  228.1550 C   0  0  0  0  0  0  0  0  0  0  0  0
  141.0160   71.8790  226.9600 C   0  0  0  0  0  0  0  0  0  0  0  0
  140.5160   71.2290  225.8500 C   0  0  0  0  0  0  0  0  0  0  0  0
  140.4950   71.9040  224.6840 N   0  0  0  0  0  0  0  0  0  0  0  0
  139.5510   73.9570  223.2780 H   0  0  0  0  0  0  0  0  0  0  0  0
  139.5911   73.7145  220.2703 H   0  0  0  0  0  0  0  0  0  0  0  0
  138.8238   75.0274  221.2698 H   0  0  0  0  0  0  0  0  0  0  0  0
  138.6977   76.2780  220.4994 H   0  0  0  0  0  0  0  0  0  0  0  0
  139.1274   77.5833  221.7006 H   0  0  0  0  0  0  0  0  0  0  0  0
  139.0952   77.6532  218.7101 H   0  0  0  0  0  0  0  0  0  0  0  0
  138.3861   78.7885  219.9701 H   0  0  0  0  0  0  0  0  0  0  0  0
  140.3197   79.6200  218.5898 H   0  0  0  0  0  0  0  0  0  0  0  0
  140.3847   79.7552  220.4121 H   0  0  0  0  0  0  0  0  0  0  0  0
  141.8297   77.7480  218.6743 H   0  0  0  0  0  0  0  0  0  0  0  0
  142.5400   79.1252  219.5848 H   0  0  0  0  0  0  0  0  0  0  0  0
  142.7464   76.9187  220.8066 H   0  0  0  0  0  0  0  0  0  0  0  0
  140.5628   79.6098  224.8043 H   0  0  0  0  0  0  0  0  0  0  0  0
  142.6522   80.9982  223.8313 H   0  0  0  0  0  0  0  0  0  0  0  0
  143.3770   79.8520  221.5980 H   0  0  0  0  0  0  0  0  0  0  0  0
  139.1725   69.6055  222.6847 H   0  0  0  0  0  0  0  0  0  0  0  0
  139.1867   68.3086  224.7953 H   0  0  0  0  0  0  0  0  0  0  0  0
  139.7247   68.2327  227.2273 H   0  0  0  0  0  0  0  0  0  0  0  0
  140.6292   69.3963  229.2500 H   0  0  0  0  0  0  0  0  0  0  0  0
  141.4461   71.7268  229.0424 H   0  0  0  0  0  0  0  0  0  0  0  0
  141.3821   72.9136  226.8855 H   0  0  0  0  0  0  0  0  0  0  0  0
  1  2  2  0
  2  3  1  0
  3  4  1  0
  4  5  1  0
  5  6  2  0
  5  7  1  0
  7  8  1  0
  8  9  1  0
  9 10  1  0
 10 11  1  0
 11 12  1  0
 12 13  1  0
 13 14  2  0
 14 15  1  0
 15 16  2  0
 16 17  1  0
  2 18  1  0
 18 19  2  0
 19 20  1  0
 20 21  2  0
 21 22  1  0
 22 23  2  0
 23 24  1  0
 24 25  2  0
 25 26  1  0
 26 27  2  0
 12  7  1  0
 17 13  1  0
 27 18  1  0
 26 21  1  0
  3 28  1  0
  4 29  1  0
  4 30  1  0
  8 31  1  0
  8 32  1  0
  9 33  1  0
  9 34  1  0
 10 35  1  0
 10 36  1  0
 11 37  1  0
 11 38  1  0
 12 39  1  6
 15 40  1  0
 16 41  1  0
 17 42  1  0
 19 43  1  0
 20 44  1  0
 22 45  1  0
 23 46  1  0
 24 47  1  0
 25 48  1  0
M  END
>  <smiles>  (24) 
O=C(NCC(=O)N1CCCC[C@H]1c1ncc[nH]1)c1ccc2ccccc2n1

>  <score_type>  (24) 
oracle

>  <origin>  (24) 
autodockgpu

>  <m_score__min__energy>  (24) 
-8.5099999999999998

>  <m_primary>  (24) 
energy

>  <rmsd>  (24) 
1.9577555316292146

>  <m_score__min__rmsd>  (24) 
1.9577555316292146

>  <meeko>  (24) 
{"free_energy": -8.16, "intermolecular_energy": -9.66, "internal_energy": -1.43, "cluster_size": 29, "cluster_id": 1, "rank_in_cluster": 19}

>  <energy>  (24) 
-8.04

>  <cluster_rmsd>  (24) 
0.91

>  <cluster>  (24) 
1

$$$$

     RDKit          3D

 48 51  0  0  0  0  0  0  0  0999 V2000
  141.0760   73.3390  222.1000 O   0  0  0  0  0  0  0  0  0  0  0  0
  140.0170   72.9480  222.6350 C   0  0  0  0  0  0  0  0  0  0  0  0
  138.7960   73.6160  222.3390 N   0  0  0  0  0  0  0  0  0  0  0  0
  138.7070   74.7460  221.4350 C   0  0  0  0  0  0  0  0  0  0  0  0
  139.0110   76.0250  222.0970 C   0  0  0  0  0  0  0  0  0  0  0  0
  138.3100   76.5460  223.0020 O   0  0  0  0  0  0  0  0  0  0  0  0
  140.1810   76.7230  221.6850 N   0  0  0  0  0  0  0  0  0  0  0  0
  141.0480   77.2750  222.6870 C   0  0  0  0  0  0  0  0  0  0  0  0
  141.5360   78.6570  222.3540 C   0  0  0  0  0  0  0  0  0  0  0  0
  141.8280   78.8920  220.9100 C   0  0  0  0  0  0  0  0  0  0  0  0
  140.7750   78.3570  219.9880 C   0  0  0  0  0  0  0  0  0  0  0  0
  140.5320   76.9010  220.2890 C   0  0  1  0  0  0  0  0  0  0  0  0
  141.8250   76.1970  219.9810 C   0  0  0  0  0  0  0  0  0  0  0  0
  142.5120   76.2660  218.8180 N   0  0  0  0  0  0  0  0  0  0  0  0
  143.6280   75.5200  218.8680 C   0  0  0  0  0  0  0  0  0  0  0  0
  143.6400   74.9550  220.1270 C   0  0  0  0  0  0  0  0  0  0  0  0
  142.5320   75.3790  220.7920 N   0  0  0  0  0  0  0  0  0  0  0  0
  139.9710   71.8280  223.5610 C   0  0  0  0  0  0  0  0  0  0  0  0
  139.3630   70.6390  223.2050 C   0  0  0  0  0  0  0  0  0  0  0  0
  139.3010   69.5490  224.0650 C   0  0  0  0  0  0  0  0  0  0  0  0
  139.8630   69.6480  225.3220 C   0  0  0  0  0  0  0  0  0  0  0  0
  139.8470   68.6150  226.2390 C   0  0  0  0  0  0  0  0  0  0  0  0
  140.4340   68.7810  227.4930 C   0  0  0  0  0  0  0  0  0  0  0  0
  141.0270   69.9940  227.7950 C   0  0  0  0  0  0  0  0  0  0  0  0
  141.0530   71.0290  226.8990 C   0  0  0  0  0  0  0  0  0  0  0  0
  140.4700   70.8520  225.6620 C   0  0  0  0  0  0  0  0  0  0  0  0
  140.5070   71.8840  224.7960 N   0  0  0  0  0  0  0  0  0  0  0  0
  137.9020   73.2790  222.7970 H   0  0  0  0  0  0  0  0  0  0  0  0
  139.4217   74.5963  220.6123 H   0  0  0  0  0  0  0  0  0  0  0  0
  137.6714   74.7985  221.0678 H   0  0  0  0  0  0  0  0  0  0  0  0
  140.4984   77.3186  223.6389 H   0  0  0  0  0  0  0  0  0  0  0  0
  141.9319   76.6231  222.7486 H   0  0  0  0  0  0  0  0  0  0  0  0
  140.7647   79.3759  222.6675 H   0  0  0  0  0  0  0  0  0  0  0  0
  142.4913   78.7818  222.8849 H   0  0  0  0  0  0  0  0  0  0  0  0
  141.9157   79.9761  220.7453 H   0  0  0  0  0  0  0  0  0  0  0  0
  142.7603   78.3558  220.6790 H   0  0  0  0  0  0  0  0  0  0  0  0
  139.8417   78.9212  220.1316 H   0  0  0  0  0  0  0  0  0  0  0  0
  141.1130   78.4633  218.9466 H   0  0  0  0  0  0  0  0  0  0  0  0
  139.6994   76.4994  219.6927 H   0  0  0  0  0  0  0  0  0  0  0  0
  144.3757   75.3873  218.0721 H   0  0  0  0  0  0  0  0  0  0  0  0
  144.4118   74.2790  220.5238 H   0  0  0  0  0  0  0  0  0  0  0  0
  142.2770   75.1070  221.7830 H   0  0  0  0  0  0  0  0  0  0  0  0
  138.9121   70.5523  222.2054 H   0  0  0  0  0  0  0  0  0  0  0  0
  138.8094   68.6176  223.7475 H   0  0  0  0  0  0  0  0  0  0  0  0
  139.3698   67.6586  225.9792 H   0  0  0  0  0  0  0  0  0  0  0  0
  140.4257   67.9629  228.2283 H   0  0  0  0  0  0  0  0  0  0  0  0
  141.4907   70.1308  228.7830 H   0  0  0  0  0  0  0  0  0  0  0  0
  141.5304   71.9846  227.1613 H   0  0  0  0  0  0  0  0  0  0  0  0
  1  2  2  0
  2  3  1  0
  3  4  1  0
  4  5  1  0
  5  6  2  0
  5  7  1  0
  7  8  1  0
  8  9  1  0
  9 10  1  0
 10 11  1  0
 11 12  1  0
 12 13  1  0
 13 14  2  0
 14 15  1  0
 15 16  2  0
 16 17  1  0
  2 18  1  0
 18 19  2  0
 19 20  1  0
 20 21  2  0
 21 22  1  0
 22 23  2  0
 23 24  1  0
 24 25  2  0
 25 26  1  0
 26 27  2  0
 12  7  1  0
 17 13  1  0
 27 18  1  0
 26 21  1  0
  3 28  1  0
  4 29  1  0
  4 30  1  0
  8 31  1  0
  8 32  1  0
  9 33  1  0
  9 34  1  0
 10 35  1  0
 10 36  1  0
 11 37  1  0
 11 38  1  0
 12 39  1  6
 15 40  1  0
 16 41  1  0
 17 42  1  0
 19 43  1  0
 20 44  1  0
 22 45  1  0
 23 46  1  0
 24 47  1  0
 25 48  1  0
M  END
>  <smiles>  (25) 
O=C(NCC(=O)N1CCCC[C@H]1c1ncc[nH]1)c1ccc2ccccc2n1

>  <score_type>  (25) 
oracle

>  <origin>  (25) 
autodockgpu

>  <m_score__min__energy>  (25) 
-8.5099999999999998

>  <m_primary>  (25) 
energy

>  <rmsd>  (25) 
3.3322912178696362

>  <m_score__min__rmsd>  (25) 
3.3322912178696362

>  <meeko>  (25) 
{"free_energy": -7.62, "intermolecular_energy": -9.11, "internal_energy": -2.24, "cluster_size": 3, "cluster_id": 3, "rank_in_cluster": 2}

>  <energy>  (25) 
-8.02

>  <cluster_rmsd>  (25) 
1.0

>  <cluster>  (25) 
1

$$$$

     RDKit          3D

 48 51  0  0  0  0  0  0  0  0999 V2000
  141.0030   71.6910  221.3530 O   0  0  0  0  0  0  0  0  0  0  0  0
  140.4010   72.1530  222.3460 C   0  0  0  0  0  0  0  0  0  0  0  0
  139.8300   73.4530  222.2740 N   0  0  0  0  0  0  0  0  0  0  0  0
  139.9070   74.2910  221.0930 C   0  0  0  0  0  0  0  0  0  0  0  0
  140.9960   75.2790  221.1720 C   0  0  0  0  0  0  0  0  0  0  0  0
  141.0570   76.2100  222.0150 O   0  0  0  0  0  0  0  0  0  0  0  0
  142.0550   75.1740  220.2270 N   0  0  0  0  0  0  0  0  0  0  0  0
  142.6920   76.3730  219.7630 C   0  0  0  0  0  0  0  0  0  0  0  0
  142.9500   76.3740  218.2820 C   0  0  0  0  0  0  0  0  0  0  0  0
  143.3500   75.0550  217.7120 C   0  0  0  0  0  0  0  0  0  0  0  0
  142.5190   73.9090  218.2060 C   0  0  0  0  0  0  0  0  0  0  0  0
  142.5170   73.8990  219.7130 C   0  0  1  0  0  0  0  0  0  0  0  0
  143.9430   73.6550  220.1230 C   0  0  0  0  0  0  0  0  0  0  0  0
  144.6490   72.5200  219.9160 N   0  0  0  0  0  0  0  0  0  0  0  0
  145.8960   72.6260  220.4040 C   0  0  0  0  0  0  0  0  0  0  0  0
  145.9750   73.8940  220.9440 C   0  0  0  0  0  0  0  0  0  0  0  0
  144.7750   74.5070  220.7640 N   0  0  0  0  0  0  0  0  0  0  0  0
  140.2550   71.4140  223.5900 C   0  0  0  0  0  0  0  0  0  0  0  0
  139.6560   70.1680  223.6080 C   0  0  0  0  0  0  0  0  0  0  0  0
  139.5000   69.4360  224.7790 C   0  0  0  0  0  0  0  0  0  0  0  0
  139.9550   69.9630  225.9710 C   0  0  0  0  0  0  0  0  0  0  0  0
  139.8400   69.3040  227.1790 C   0  0  0  0  0  0  0  0  0  0  0  0
  140.3210   69.8930  228.3480 C   0  0  0  0  0  0  0  0  0  0  0  0
  140.9100   71.1430  228.2690 C   0  0  0  0  0  0  0  0  0  0  0  0
  141.0330   71.8110  227.0810 C   0  0  0  0  0  0  0  0  0  0  0  0
  140.5530   71.2170  225.9320 C   0  0  0  0  0  0  0  0  0  0  0  0
  140.6840   71.8920  224.7740 N   0  0  0  0  0  0  0  0  0  0  0  0
  139.3210   73.8390  223.1200 H   0  0  0  0  0  0  0  0  0  0  0  0
  140.0759   73.6493  220.2157 H   0  0  0  0  0  0  0  0  0  0  0  0
  138.9594   74.8440  221.0135 H   0  0  0  0  0  0  0  0  0  0  0  0
  142.0445   77.2286  220.0052 H   0  0  0  0  0  0  0  0  0  0  0  0
  143.6691   76.4379  220.2641 H   0  0  0  0  0  0  0  0  0  0  0  0
  142.0297   76.7000  217.7753 H   0  0  0  0  0  0  0  0  0  0  0  0
  143.8013   77.0511  218.1182 H   0  0  0  0  0  0  0  0  0  0  0  0
  143.2552   75.1064  216.6173 H   0  0  0  0  0  0  0  0  0  0  0  0
  144.3843   74.8652  218.0348 H   0  0  0  0  0  0  0  0  0  0  0  0
  141.4879   74.0196  217.8392 H   0  0  0  0  0  0  0  0  0  0  0  0
  142.9423   72.9640  217.8349 H   0  0  0  0  0  0  0  0  0  0  0  0
  141.8430   73.1263  220.1113 H   0  0  0  0  0  0  0  0  0  0  0  0
  146.6878   71.8628  220.3787 H   0  0  0  0  0  0  0  0  0  0  0  0
  146.8563   74.3325  221.4349 H   0  0  0  0  0  0  0  0  0  0  0  0
  144.5410   75.4910  221.0780 H   0  0  0  0  0  0  0  0  0  0  0  0
  139.2902   69.7412  222.6625 H   0  0  0  0  0  0  0  0  0  0  0  0
  139.0190   68.4470  224.7563 H   0  0  0  0  0  0  0  0  0  0  0  0
  139.3675   68.3114  227.2194 H   0  0  0  0  0  0  0  0  0  0  0  0
  140.2340   69.3742  229.3141 H   0  0  0  0  0  0  0  0  0  0  0  0
  141.2903   71.6132  229.1879 H   0  0  0  0  0  0  0  0  0  0  0  0
  141.5059   72.8034  227.0428 H   0  0  0  0  0  0  0  0  0  0  0  0
  1  2  2  0
  2  3  1  0
  3  4  1  0
  4  5  1  0
  5  6  2  0
  5  7  1  0
  7  8  1  0
  8  9  1  0
  9 10  1  0
 10 11  1  0
 11 12  1  0
 12 13  1  0
 13 14  2  0
 14 15  1  0
 15 16  2  0
 16 17  1  0
  2 18  1  0
 18 19  2  0
 19 20  1  0
 20 21  2  0
 21 22  1  0
 22 23  2  0
 23 24  1  0
 24 25  2  0
 25 26  1  0
 26 27  2  0
 12  7  1  0
 17 13  1  0
 27 18  1  0
 26 21  1  0
  3 28  1  0
  4 29  1  0
  4 30  1  0
  8 31  1  0
  8 32  1  0
  9 33  1  0
  9 34  1  0
 10 35  1  0
 10 36  1  0
 11 37  1  0
 11 38  1  0
 12 39  1  6
 15 40  1  0
 16 41  1  0
 17 42  1  0
 19 43  1  0
 20 44  1  0
 22 45  1  0
 23 46  1  0
 24 47  1  0
 25 48  1  0
M  END
>  <smiles>  (26) 
O=C(NCC(=O)N1CCCC[C@H]1c1ncc[nH]1)c1ccc2ccccc2n1

>  <score_type>  (26) 
oracle

>  <origin>  (26) 
autodockgpu

>  <m_score__min__energy>  (26) 
-8.5099999999999998

>  <m_primary>  (26) 
energy

>  <rmsd>  (26) 
3.6298606341521995

>  <m_score__min__rmsd>  (26) 
3.6298606341521995

>  <meeko>  (26) 
{"free_energy": -8.01, "intermolecular_energy": -9.5, "internal_energy": -1.63, "cluster_size": 13, "cluster_id": 2, "rank_in_cluster": 2}

>  <energy>  (26) 
-7.87

>  <cluster_rmsd>  (26) 
0.95

>  <cluster>  (26) 
1

$$$$

     RDKit          3D

 48 51  0  0  0  0  0  0  0  0999 V2000
  140.7470   72.0320  221.1560 O   0  0  0  0  0  0  0  0  0  0  0  0
  140.2120   72.3830  222.2290 C   0  0  0  0  0  0  0  0  0  0  0  0
  139.6600   73.6900  222.3400 N   0  0  0  0  0  0  0  0  0  0  0  0
  139.6820   74.6570  221.2610 C   0  0  0  0  0  0  0  0  0  0  0  0
  139.2430   75.9950  221.6920 C   0  0  0  0  0  0  0  0  0  0  0  0
  138.2850   76.2130  222.4770 O   0  0  0  0  0  0  0  0  0  0  0  0
  139.9510   77.1200  221.1860 N   0  0  0  0  0  0  0  0  0  0  0  0
  139.2650   78.0440  220.3280 C   0  0  0  0  0  0  0  0  0  0  0  0
  140.0870   78.4810  219.1480 C   0  0  0  0  0  0  0  0  0  0  0  0
  141.5400   78.6690  219.4270 C   0  0  0  0  0  0  0  0  0  0  0  0
  142.1440   77.5660  220.2410 C   0  0  0  0  0  0  0  0  0  0  0  0
  141.3440   77.3720  221.5030 C   0  0  1  0  0  0  0  0  0  0  0  0
  141.4820   78.6530  222.2770 C   0  0  0  0  0  0  0  0  0  0  0  0
  140.5010   79.2730  222.9730 N   0  0  0  0  0  0  0  0  0  0  0  0
  140.9520   80.3980  223.5510 C   0  0  0  0  0  0  0  0  0  0  0  0
  142.2840   80.4870  223.2000 C   0  0  0  0  0  0  0  0  0  0  0  0
  142.5890   79.4140  222.4230 N   0  0  0  0  0  0  0  0  0  0  0  0
  140.1250   71.5080  223.3870 C   0  0  0  0  0  0  0  0  0  0  0  0
  139.5750   70.2450  223.2800 C   0  0  0  0  0  0  0  0  0  0  0  0
  139.4770   69.3830  224.3670 C   0  0  0  0  0  0  0  0  0  0  0  0
  139.9400   69.7950  225.6000 C   0  0  0  0  0  0  0  0  0  0  0  0
  139.8820   69.0040  226.7300 C   0  0  0  0  0  0  0  0  0  0  0  0
  140.3680   69.4820  227.9470 C   0  0  0  0  0  0  0  0  0  0  0  0
  140.9070   70.7560  227.9940 C   0  0  0  0  0  0  0  0  0  0  0  0
  140.9740   71.5530  226.8840 C   0  0  0  0  0  0  0  0  0  0  0  0
  140.4890   71.0690  225.6870 C   0  0  0  0  0  0  0  0  0  0  0  0
  140.5650   71.8720  224.6070 N   0  0  0  0  0  0  0  0  0  0  0  0
  139.2070   73.9800  223.2540 H   0  0  0  0  0  0  0  0  0  0  0  0
  140.7092   74.7306  220.8745 H   0  0  0  0  0  0  0  0  0  0  0  0
  138.9818   74.3094  220.4871 H   0  0  0  0  0  0  0  0  0  0  0  0
  138.3491   77.5614  219.9562 H   0  0  0  0  0  0  0  0  0  0  0  0
  139.0469   78.9423  220.9242 H   0  0  0  0  0  0  0  0  0  0  0  0
  139.9864   77.7190  218.3611 H   0  0  0  0  0  0  0  0  0  0  0  0
  139.7005   79.4676  218.8525 H   0  0  0  0  0  0  0  0  0  0  0  0
  142.0738   78.7244  218.4668 H   0  0  0  0  0  0  0  0  0  0  0  0
  141.6376   79.5934  220.0152 H   0  0  0  0  0  0  0  0  0  0  0  0
  142.1374   76.6341  219.6566 H   0  0  0  0  0  0  0  0  0  0  0  0
  143.1795   77.8299  220.5021 H   0  0  0  0  0  0  0  0  0  0  0  0
  141.7048   76.5088  222.0816 H   0  0  0  0  0  0  0  0  0  0  0  0
  140.3798   81.1014  224.1738 H   0  0  0  0  0  0  0  0  0  0  0  0
  142.9780   81.2870  223.4973 H   0  0  0  0  0  0  0  0  0  0  0  0
  143.5430   79.2180  222.0060 H   0  0  0  0  0  0  0  0  0  0  0  0
  139.2017   69.9097  222.3011 H   0  0  0  0  0  0  0  0  0  0  0  0
  139.0350   68.3831  224.2452 H   0  0  0  0  0  0  0  0  0  0  0  0
  139.4512   67.9936  226.6705 H   0  0  0  0  0  0  0  0  0  0  0  0
  140.3237   68.8584  228.8521 H   0  0  0  0  0  0  0  0  0  0  0  0
  141.2923   71.1384  228.9507 H   0  0  0  0  0  0  0  0  0  0  0  0
  141.4072   72.5623  226.9451 H   0  0  0  0  0  0  0  0  0  0  0  0
  1  2  2  0
  2  3  1  0
  3  4  1  0
  4  5  1  0
  5  6  2  0
  5  7  1  0
  7  8  1  0
  8  9  1  0
  9 10  1  0
 10 11  1  0
 11 12  1  0
 12 13  1  0
 13 14  2  0
 14 15  1  0
 15 16  2  0
 16 17  1  0
  2 18  1  0
 18 19  2  0
 19 20  1  0
 20 21  2  0
 21 22  1  0
 22 23  2  0
 23 24  1  0
 24 25  2  0
 25 26  1  0
 26 27  2  0
 12  7  1  0
 17 13  1  0
 27 18  1  0
 26 21  1  0
  3 28  1  0
  4 29  1  0
  4 30  1  0
  8 31  1  0
  8 32  1  0
  9 33  1  0
  9 34  1  0
 10 35  1  0
 10 36  1  0
 11 37  1  0
 11 38  1  0
 12 39  1  1
 15 40  1  0
 16 41  1  0
 17 42  1  0
 19 43  1  0
 20 44  1  0
 22 45  1  0
 23 46  1  0
 24 47  1  0
 25 48  1  0
M  END
>  <smiles>  (27) 
O=C(NCC(=O)N1CCCC[C@H]1c1ncc[nH]1)c1ccc2ccccc2n1

>  <score_type>  (27) 
oracle

>  <origin>  (27) 
autodockgpu

>  <m_score__min__energy>  (27) 
-8.5099999999999998

>  <m_primary>  (27) 
energy

>  <rmsd>  (27) 
2.120209002760754

>  <m_score__min__rmsd>  (27) 
2.120209002760754

>  <meeko>  (27) 
{"free_energy": -8.25, "intermolecular_energy": -9.74, "internal_energy": -1.57, "cluster_size": 29, "cluster_id": 1, "rank_in_cluster": 15}

>  <energy>  (27) 
-7.87

>  <cluster_rmsd>  (27) 
1.03

>  <cluster>  (27) 
1

$$$$

     RDKit          3D

 48 51  0  0  0  0  0  0  0  0999 V2000
  141.1710   73.0140  221.9700 O   0  0  0  0  0  0  0  0  0  0  0  0
  140.1160   72.7850  222.5980 C   0  0  0  0  0  0  0  0  0  0  0  0
  138.9640   73.5780  222.3430 N   0  0  0  0  0  0  0  0  0  0  0  0
  138.9400   74.6580  221.3760 C   0  0  0  0  0  0  0  0  0  0  0  0
  138.8530   75.9840  222.0130 C   0  0  0  0  0  0  0  0  0  0  0  0
  138.1180   76.2560  222.9970 O   0  0  0  0  0  0  0  0  0  0  0  0
  139.6540   77.0300  221.4780 N   0  0  0  0  0  0  0  0  0  0  0  0
  139.0380   78.0150  220.6350 C   0  0  0  0  0  0  0  0  0  0  0  0
  139.8630   78.3630  219.4280 C   0  0  0  0  0  0  0  0  0  0  0  0
  141.3360   78.4050  219.6620 C   0  0  0  0  0  0  0  0  0  0  0  0
  141.8510   77.2490  220.4650 C   0  0  0  0  0  0  0  0  0  0  0  0
  141.0750   77.1410  221.7510 C   0  0  1  0  0  0  0  0  0  0  0  0
  141.3640   78.4050  222.5120 C   0  0  0  0  0  0  0  0  0  0  0  0
  140.4900   79.0840  223.2910 N   0  0  0  0  0  0  0  0  0  0  0  0
  141.0640   80.1720  223.8300 C   0  0  0  0  0  0  0  0  0  0  0  0
  142.3630   80.1750  223.3650 C   0  0  0  0  0  0  0  0  0  0  0  0
  142.5280   79.0900  222.5630 N   0  0  0  0  0  0  0  0  0  0  0  0
  140.0090   71.7300  223.5950 C   0  0  0  0  0  0  0  0  0  0  0  0
  139.3800   70.5360  223.2970 C   0  0  0  0  0  0  0  0  0  0  0  0
  139.2600   69.5090  224.2250 C   0  0  0  0  0  0  0  0  0  0  0  0
  139.7810   69.6780  225.4920 C   0  0  0  0  0  0  0  0  0  0  0  0
  139.7060   68.7100  226.4740 C   0  0  0  0  0  0  0  0  0  0  0  0
  140.2550   68.9450  227.7340 C   0  0  0  0  0  0  0  0  0  0  0  0
  140.8710   70.1600  227.9750 C   0  0  0  0  0  0  0  0  0  0  0  0
  140.9560   71.1310  227.0140 C   0  0  0  0  0  0  0  0  0  0  0  0
  140.4090   70.8860  225.7710 C   0  0  0  0  0  0  0  0  0  0  0  0
  140.5040   71.8560  224.8410 N   0  0  0  0  0  0  0  0  0  0  0  0
  138.0720   73.3770  222.8800 H   0  0  0  0  0  0  0  0  0  0  0  0
  139.8609   74.6147  220.7759 H   0  0  0  0  0  0  0  0  0  0  0  0
  138.0438   74.5277  220.7516 H   0  0  0  0  0  0  0  0  0  0  0  0
  138.0674   77.6253  220.2942 H   0  0  0  0  0  0  0  0  0  0  0  0
  138.9293   78.9328  221.2315 H   0  0  0  0  0  0  0  0  0  0  0  0
  139.6624   77.6122  218.6495 H   0  0  0  0  0  0  0  0  0  0  0  0
  139.5686   79.3824  219.1378 H   0  0  0  0  0  0  0  0  0  0  0  0
  141.8430   78.4032  218.6858 H   0  0  0  0  0  0  0  0  0  0  0  0
  141.5440   79.3169  220.2409 H   0  0  0  0  0  0  0  0  0  0  0  0
  141.7329   76.3205  219.8872 H   0  0  0  0  0  0  0  0  0  0  0  0
  142.9153   77.4082  220.6930 H   0  0  0  0  0  0  0  0  0  0  0  0
  141.3652   76.2478  222.3237 H   0  0  0  0  0  0  0  0  0  0  0  0
  140.5963   80.9069  224.5017 H   0  0  0  0  0  0  0  0  0  0  0  0
  143.1317   80.9252  223.6021 H   0  0  0  0  0  0  0  0  0  0  0  0
  143.4270   78.8330  222.0640 H   0  0  0  0  0  0  0  0  0  0  0  0
  138.9599   70.3939  222.2904 H   0  0  0  0  0  0  0  0  0  0  0  0
  138.7548   68.5706  223.9528 H   0  0  0  0  0  0  0  0  0  0  0  0
  139.2116   67.7506  226.2616 H   0  0  0  0  0  0  0  0  0  0  0  0
  140.1994   68.1789  228.5214 H   0  0  0  0  0  0  0  0  0  0  0  0
  141.3050   70.3513  228.9675 H   0  0  0  0  0  0  0  0  0  0  0  0
  141.4514   72.0894  227.2287 H   0  0  0  0  0  0  0  0  0  0  0  0
  1  2  2  0
  2  3  1  0
  3  4  1  0
  4  5  1  0
  5  6  2  0
  5  7  1  0
  7  8  1  0
  8  9  1  0
  9 10  1  0
 10 11  1  0
 11 12  1  0
 12 13  1  0
 13 14  2  0
 14 15  1  0
 15 16  2  0
 16 17  1  0
  2 18  1  0
 18 19  2  0
 19 20  1  0
 20 21  2  0
 21 22  1  0
 22 23  2  0
 23 24  1  0
 24 25  2  0
 25 26  1  0
 26 27  2  0
 12  7  1  0
 17 13  1  0
 27 18  1  0
 26 21  1  0
  3 28  1  0
  4 29  1  0
  4 30  1  0
  8 31  1  0
  8 32  1  0
  9 33  1  0
  9 34  1  0
 10 35  1  0
 10 36  1  0
 11 37  1  0
 11 38  1  0
 12 39  1  1
 15 40  1  0
 16 41  1  0
 17 42  1  0
 19 43  1  0
 20 44  1  0
 22 45  1  0
 23 46  1  0
 24 47  1  0
 25 48  1  0
M  END
>  <smiles>  (28) 
O=C(NCC(=O)N1CCCC[C@H]1c1ncc[nH]1)c1ccc2ccccc2n1

>  <score_type>  (28) 
oracle

>  <origin>  (28) 
autodockgpu

>  <m_score__min__energy>  (28) 
-8.5099999999999998

>  <m_primary>  (28) 
energy

>  <rmsd>  (28) 
2.164357556877844

>  <m_score__min__rmsd>  (28) 
2.164357556877844

>  <meeko>  (28) 
{"free_energy": -8.38, "intermolecular_energy": -9.88, "internal_energy": -1.42, "cluster_size": 29, "cluster_id": 1, "rank_in_cluster": 8}

>  <energy>  (28) 
-7.8

>  <cluster_rmsd>  (28) 
1.36

>  <cluster>  (28) 
1

$$$$

     RDKit          3D

 48 51  0  0  0  0  0  0  0  0999 V2000
  140.7000   71.6580  221.2720 O   0  0  0  0  0  0  0  0  0  0  0  0
  140.2870   72.1660  222.3350 C   0  0  0  0  0  0  0  0  0  0  0  0
  139.8810   73.5290  222.3470 N   0  0  0  0  0  0  0  0  0  0  0  0
  139.9180   74.3800  221.1740 C   0  0  0  0  0  0  0  0  0  0  0  0
  139.2210   75.6610  221.3830 C   0  0  0  0  0  0  0  0  0  0  0  0
  138.0630   75.7740  221.8620 O   0  0  0  0  0  0  0  0  0  0  0  0
  139.9020   76.8540  221.0160 N   0  0  0  0  0  0  0  0  0  0  0  0
  139.1910   77.8620  220.2820 C   0  0  0  0  0  0  0  0  0  0  0  0
  139.9950   78.4590  219.1610 C   0  0  0  0  0  0  0  0  0  0  0  0
  141.4460   78.6420  219.4550 C   0  0  0  0  0  0  0  0  0  0  0  0
  142.0790   77.4590  220.1230 C   0  0  0  0  0  0  0  0  0  0  0  0
  141.2920   77.0940  221.3550 C   0  0  1  0  0  0  0  0  0  0  0  0
  141.4100   78.2730  222.2810 C   0  0  0  0  0  0  0  0  0  0  0  0
  140.4380   78.7470  223.0940 N   0  0  0  0  0  0  0  0  0  0  0  0
  140.8650   79.8120  223.7920 C   0  0  0  0  0  0  0  0  0  0  0  0
  142.1710   80.0150  223.3950 C   0  0  0  0  0  0  0  0  0  0  0  0
  142.4860   79.0660  222.4740 N   0  0  0  0  0  0  0  0  0  0  0  0
  140.2010   71.4200  223.5810 C   0  0  0  0  0  0  0  0  0  0  0  0
  139.6310   70.1620  223.6150 C   0  0  0  0  0  0  0  0  0  0  0  0
  139.5330   69.4230  224.7880 C   0  0  0  0  0  0  0  0  0  0  0  0
  140.0170   69.9560  225.9660 C   0  0  0  0  0  0  0  0  0  0  0  0
  139.9600   69.2910  227.1750 C   0  0  0  0  0  0  0  0  0  0  0  0
  140.4680   69.8880  228.3280 C   0  0  0  0  0  0  0  0  0  0  0  0
  141.0260   71.1510  228.2340 C   0  0  0  0  0  0  0  0  0  0  0  0
  141.0920   71.8240  227.0440 C   0  0  0  0  0  0  0  0  0  0  0  0
  140.5860   71.2240  225.9100 C   0  0  0  0  0  0  0  0  0  0  0  0
  140.6610   71.9050  224.7510 N   0  0  0  0  0  0  0  0  0  0  0  0
  139.5310   73.9540  223.2540 H   0  0  0  0  0  0  0  0  0  0  0  0
  140.9684   74.5872  220.9217 H   0  0  0  0  0  0  0  0  0  0  0  0
  139.4032   73.8488  220.3598 H   0  0  0  0  0  0  0  0  0  0  0  0
  138.2825   77.4095  219.8577 H   0  0  0  0  0  0  0  0  0  0  0  0
  138.9591   78.6750  220.9857 H   0  0  0  0  0  0  0  0  0  0  0  0
  139.9046   77.7981  218.2864 H   0  0  0  0  0  0  0  0  0  0  0  0
  139.5860   79.4659  218.9911 H   0  0  0  0  0  0  0  0  0  0  0  0
  141.9717   78.8280  218.5068 H   0  0  0  0  0  0  0  0  0  0  0  0
  141.5284   79.4879  220.1534 H   0  0  0  0  0  0  0  0  0  0  0  0
  142.0869   76.6067  219.4277 H   0  0  0  0  0  0  0  0  0  0  0  0
  143.1110   77.7098  220.4094 H   0  0  0  0  0  0  0  0  0  0  0  0
  141.6741   76.1736  221.8207 H   0  0  0  0  0  0  0  0  0  0  0  0
  140.2937   80.3992  224.5260 H   0  0  0  0  0  0  0  0  0  0  0  0
  142.8409   80.8073  223.7604 H   0  0  0  0  0  0  0  0  0  0  0  0
  143.4250   78.9750  221.9920 H   0  0  0  0  0  0  0  0  0  0  0  0
  139.2412   69.7303  222.6814 H   0  0  0  0  0  0  0  0  0  0  0  0
  139.0743   68.4232  224.7779 H   0  0  0  0  0  0  0  0  0  0  0  0
  139.5126   68.2875  227.2285 H   0  0  0  0  0  0  0  0  0  0  0  0
  140.4261   69.3648  229.2947 H   0  0  0  0  0  0  0  0  0  0  0  0
  141.4276   71.6271  229.1407 H   0  0  0  0  0  0  0  0  0  0  0  0
  141.5412   72.8268  226.9930 H   0  0  0  0  0  0  0  0  0  0  0  0
  1  2  2  0
  2  3  1  0
  3  4  1  0
  4  5  1  0
  5  6  2  0
  5  7  1  0
  7  8  1  0
  8  9  1  0
  9 10  1  0
 10 11  1  0
 11 12  1  0
 12 13  1  0
 13 14  2  0
 14 15  1  0
 15 16  2  0
 16 17  1  0
  2 18  1  0
 18 19  2  0
 19 20  1  0
 20 21  2  0
 21 22  1  0
 22 23  2  0
 23 24  1  0
 24 25  2  0
 25 26  1  0
 26 27  2  0
 12  7  1  0
 17 13  1  0
 27 18  1  0
 26 21  1  0
  3 28  1  0
  4 29  1  0
  4 30  1  0
  8 31  1  0
  8 32  1  0
  9 33  1  0
  9 34  1  0
 10 35  1  0
 10 36  1  0
 11 37  1  0
 11 38  1  0
 12 39  1  1
 15 40  1  0
 16 41  1  0
 17 42  1  0
 19 43  1  0
 20 44  1  0
 22 45  1  0
 23 46  1  0
 24 47  1  0
 25 48  1  0
M  END
>  <smiles>  (29) 
O=C(NCC(=O)N1CCCC[C@H]1c1ncc[nH]1)c1ccc2ccccc2n1

>  <score_type>  (29) 
oracle

>  <origin>  (29) 
autodockgpu

>  <m_score__min__energy>  (29) 
-8.5099999999999998

>  <m_primary>  (29) 
energy

>  <rmsd>  (29) 
2.0829310059559853

>  <m_score__min__rmsd>  (29) 
2.0829310059559853

>  <meeko>  (29) 
{"free_energy": -8.27, "intermolecular_energy": -9.76, "internal_energy": -1.49, "cluster_size": 29, "cluster_id": 1, "rank_in_cluster": 14}

>  <energy>  (29) 
-7.78

>  <cluster_rmsd>  (29) 
1.36

>  <cluster>  (29) 
1

$$$$

     RDKit          3D

 48 51  0  0  0  0  0  0  0  0999 V2000
  139.5760   70.9570  221.3960 O   0  0  0  0  0  0  0  0  0  0  0  0
  139.7220   71.5100  222.5060 C   0  0  0  0  0  0  0  0  0  0  0  0
  139.8260   72.9270  222.5730 N   0  0  0  0  0  0  0  0  0  0  0  0
  139.7720   73.7850  221.4060 C   0  0  0  0  0  0  0  0  0  0  0  0
  140.9610   74.6450  221.2800 C   0  0  0  0  0  0  0  0  0  0  0  0
  141.0490   75.8130  221.7390 O   0  0  0  0  0  0  0  0  0  0  0  0
  142.0900   74.1190  220.5930 N   0  0  0  0  0  0  0  0  0  0  0  0
  142.2840   72.6970  220.5630 C   0  0  0  0  0  0  0  0  0  0  0  0
  143.7120   72.2880  220.7910 C   0  0  0  0  0  0  0  0  0  0  0  0
  144.7310   73.1870  220.1750 C   0  0  0  0  0  0  0  0  0  0  0  0
  144.4520   74.6450  220.3860 C   0  0  0  0  0  0  0  0  0  0  0  0
  143.0570   74.9650  219.9190 C   0  0  1  0  0  0  0  0  0  0  0  0
  143.0470   74.6960  218.4400 C   0  0  0  0  0  0  0  0  0  0  0  0
  142.0000   74.2270  217.7220 N   0  0  0  0  0  0  0  0  0  0  0  0
  142.3190   74.0970  216.4240 C   0  0  0  0  0  0  0  0  0  0  0  0
  143.6340   74.5060  216.3240 C   0  0  0  0  0  0  0  0  0  0  0  0
  144.0610   74.8670  217.5630 N   0  0  0  0  0  0  0  0  0  0  0  0
  139.7920   70.7640  223.7530 C   0  0  0  0  0  0  0  0  0  0  0  0
  139.3150   69.4700  223.8300 C   0  0  0  0  0  0  0  0  0  0  0  0
  139.3660   68.7280  225.0050 C   0  0  0  0  0  0  0  0  0  0  0  0
  139.9100   69.2970  226.1400 C   0  0  0  0  0  0  0  0  0  0  0  0
  140.0000   68.6330  227.3470 C   0  0  0  0  0  0  0  0  0  0  0  0
  140.5610   69.2670  228.4560 C   0  0  0  0  0  0  0  0  0  0  0  0
  141.0210   70.5640  228.3180 C   0  0  0  0  0  0  0  0  0  0  0  0
  140.9400   71.2380  227.1300 C   0  0  0  0  0  0  0  0  0  0  0  0
  140.3830   70.6000  226.0410 C   0  0  0  0  0  0  0  0  0  0  0  0
  140.3140   71.2830  224.8810 N   0  0  0  0  0  0  0  0  0  0  0  0
  139.9500   73.3900  223.5190 H   0  0  0  0  0  0  0  0  0  0  0  0
  139.6967   73.1541  220.5080 H   0  0  0  0  0  0  0  0  0  0  0  0
  138.8961   74.4414  221.5152 H   0  0  0  0  0  0  0  0  0  0  0  0
  141.6610   72.2428  221.3476 H   0  0  0  0  0  0  0  0  0  0  0  0
  142.0018   72.3503  219.5579 H   0  0  0  0  0  0  0  0  0  0  0  0
  143.8907   72.2626  221.8761 H   0  0  0  0  0  0  0  0  0  0  0  0
  143.8326   71.3083  220.3056 H   0  0  0  0  0  0  0  0  0  0  0  0
  145.7118   72.9535  220.6148 H   0  0  0  0  0  0  0  0  0  0  0  0
  144.7053   73.0076  219.0900 H   0  0  0  0  0  0  0  0  0  0  0  0
  144.5438   74.8842  221.4557 H   0  0  0  0  0  0  0  0  0  0  0  0
  145.1755   75.2422  219.8117 H   0  0  0  0  0  0  0  0  0  0  0  0
  142.7859   76.0073  220.1426 H   0  0  0  0  0  0  0  0  0  0  0  0
  141.6693   73.7398  215.6114 H   0  0  0  0  0  0  0  0  0  0  0  0
  144.2324   74.5347  215.4015 H   0  0  0  0  0  0  0  0  0  0  0  0
  145.0320   75.2240  217.7920 H   0  0  0  0  0  0  0  0  0  0  0  0
  138.8796   69.0104  222.9305 H   0  0  0  0  0  0  0  0  0  0  0  0
  138.9774   67.6992  225.0303 H   0  0  0  0  0  0  0  0  0  0  0  0
  139.6284   67.6014  227.4346 H   0  0  0  0  0  0  0  0  0  0  0  0
  140.6360   68.7453  229.4215 H   0  0  0  0  0  0  0  0  0  0  0  0
  141.4650   71.0685  229.1888 H   0  0  0  0  0  0  0  0  0  0  0  0
  141.3122   72.2696  227.0448 H   0  0  0  0  0  0  0  0  0  0  0  0
  1  2  2  0
  2  3  1  0
  3  4  1  0
  4  5  1  0
  5  6  2  0
  5  7  1  0
  7  8  1  0
  8  9  1  0
  9 10  1  0
 10 11  1  0
 11 12  1  0
 12 13  1  0
 13 14  2  0
 14 15  1  0
 15 16  2  0
 16 17  1  0
  2 18  1  0
 18 19  2  0
 19 20  1  0
 20 21  2  0
 21 22  1  0
 22 23  2  0
 23 24  1  0
 24 25  2  0
 25 26  1  0
 26 27  2  0
 12  7  1  0
 17 13  1  0
 27 18  1  0
 26 21  1  0
  3 28  1  0
  4 29  1  0
  4 30  1  0
  8 31  1  0
  8 32  1  0
  9 33  1  0
  9 34  1  0
 10 35  1  0
 10 36  1  0
 11 37  1  0
 11 38  1  0
 12 39  1  6
 15 40  1  0
 16 41  1  0
 17 42  1  0
 19 43  1  0
 20 44  1  0
 22 45  1  0
 23 46  1  0
 24 47  1  0
 25 48  1  0
M  END
>  <smiles>  (30) 
O=C(NCC(=O)N1CCCC[C@H]1c1ncc[nH]1)c1ccc2ccccc2n1

>  <score_type>  (30) 
oracle

>  <origin>  (30) 
autodockgpu

>  <m_score__min__energy>  (30) 
-8.5099999999999998

>  <m_primary>  (30) 
energy

>  <rmsd>  (30) 
4.105266222571157

>  <m_score__min__rmsd>  (30) 
4.105266222571157

>  <meeko>  (30) 
{"free_energy": -7.42, "intermolecular_energy": -8.91, "internal_energy": -1.77, "cluster_size": 13, "cluster_id": 2, "rank_in_cluster": 11}

>  <energy>  (30) 
-8.01

>  <cluster_rmsd>  (30) 
0.0

>  <cluster>  (30) 
2

$$$$

     RDKit          3D

 48 51  0  0  0  0  0  0  0  0999 V2000
  140.8230   71.6190  221.3000 O   0  0  0  0  0  0  0  0  0  0  0  0
  140.3360   72.1160  222.3370 C   0  0  0  0  0  0  0  0  0  0  0  0
  139.8660   73.4590  222.3150 N   0  0  0  0  0  0  0  0  0  0  0  0
  139.9210   74.3010  221.1360 C   0  0  0  0  0  0  0  0  0  0  0  0
  141.0190   75.2820  221.1930 C   0  0  0  0  0  0  0  0  0  0  0  0
  141.0910   76.2260  222.0220 O   0  0  0  0  0  0  0  0  0  0  0  0
  142.0720   75.1540  220.2450 N   0  0  0  0  0  0  0  0  0  0  0  0
  142.7020   76.3410  219.7430 C   0  0  0  0  0  0  0  0  0  0  0  0
  142.9510   76.3010  218.2620 C   0  0  0  0  0  0  0  0  0  0  0  0
  143.3510   74.9670  217.7260 C   0  0  0  0  0  0  0  0  0  0  0  0
  142.5280   73.8330  218.2580 C   0  0  0  0  0  0  0  0  0  0  0  0
  142.5350   73.8660  219.7640 C   0  0  1  0  0  0  0  0  0  0  0  0
  143.9650   73.6380  220.1720 C   0  0  0  0  0  0  0  0  0  0  0  0
  144.6870   72.5170  219.9500 N   0  0  0  0  0  0  0  0  0  0  0  0
  145.9320   72.6360  220.4400 C   0  0  0  0  0  0  0  0  0  0  0  0
  145.9920   73.8970  220.9970 C   0  0  0  0  0  0  0  0  0  0  0  0
  144.7830   74.4940  220.8240 N   0  0  0  0  0  0  0  0  0  0  0  0
  140.2240   71.3780  223.5850 C   0  0  0  0  0  0  0  0  0  0  0  0
  139.6640   70.1150  223.6120 C   0  0  0  0  0  0  0  0  0  0  0  0
  139.5410   69.3820  224.7870 C   0  0  0  0  0  0  0  0  0  0  0  0
  139.9910   69.9270  225.9730 C   0  0  0  0  0  0  0  0  0  0  0  0
  139.9090   69.2690  227.1840 C   0  0  0  0  0  0  0  0  0  0  0  0
  140.3830   69.8760  228.3460 C   0  0  0  0  0  0  0  0  0  0  0  0
  140.9340   71.1430  228.2580 C   0  0  0  0  0  0  0  0  0  0  0  0
  141.0240   71.8100  227.0670 C   0  0  0  0  0  0  0  0  0  0  0  0
  140.5510   71.1980  225.9240 C   0  0  0  0  0  0  0  0  0  0  0  0
  140.6510   71.8730  224.7630 N   0  0  0  0  0  0  0  0  0  0  0  0
  139.4540   73.8740  223.1990 H   0  0  0  0  0  0  0  0  0  0  0  0
  140.0649   73.6617  220.2525 H   0  0  0  0  0  0  0  0  0  0  0  0
  138.9757   74.8608  221.0811 H   0  0  0  0  0  0  0  0  0  0  0  0
  142.0531   77.2011  219.9648 H   0  0  0  0  0  0  0  0  0  0  0  0
  143.6820   76.4229  220.2359 H   0  0  0  0  0  0  0  0  0  0  0  0
  142.0269   76.6106  217.7520 H   0  0  0  0  0  0  0  0  0  0  0  0
  143.7999   76.9750  218.0745 H   0  0  0  0  0  0  0  0  0  0  0  0
  143.2477   74.9874  216.6311 H   0  0  0  0  0  0  0  0  0  0  0  0
  144.3883   74.7895  218.0462 H   0  0  0  0  0  0  0  0  0  0  0  0
  141.4942   73.9291  217.8946 H   0  0  0  0  0  0  0  0  0  0  0  0
  142.9532   72.8794  217.9117 H   0  0  0  0  0  0  0  0  0  0  0  0
  141.8656   73.1030  220.1880 H   0  0  0  0  0  0  0  0  0  0  0  0
  146.7354   71.8855  220.4047 H   0  0  0  0  0  0  0  0  0  0  0  0
  146.8663   74.3419  221.4946 H   0  0  0  0  0  0  0  0  0  0  0  0
  144.5340   75.4700  221.1510 H   0  0  0  0  0  0  0  0  0  0  0  0
  139.3030   69.6742  222.6711 H   0  0  0  0  0  0  0  0  0  0  0  0
  139.0901   68.3788  224.7719 H   0  0  0  0  0  0  0  0  0  0  0  0
  139.4681   68.2624  227.2321 H   0  0  0  0  0  0  0  0  0  0  0  0
  140.3204   69.3581  229.3144 H   0  0  0  0  0  0  0  0  0  0  0  0
  141.3100   71.6270  229.1714 H   0  0  0  0  0  0  0  0  0  0  0  0
  141.4656   72.8164  227.0212 H   0  0  0  0  0  0  0  0  0  0  0  0
  1  2  2  0
  2  3  1  0
  3  4  1  0
  4  5  1  0
  5  6  2  0
  5  7  1  0
  7  8  1  0
  8  9  1  0
  9 10  1  0
 10 11  1  0
 11 12  1  0
 12 13  1  0
 13 14  2  0
 14 15  1  0
 15 16  2  0
 16 17  1  0
  2 18  1  0
 18 19  2  0
 19 20  1  0
 20 21  2  0
 21 22  1  0
 22 23  2  0
 23 24  1  0
 24 25  2  0
 25 26  1  0
 26 27  2  0
 12  7  1  0
 17 13  1  0
 27 18  1  0
 26 21  1  0
  3 28  1  0
  4 29  1  0
  4 30  1  0
  8 31  1  0
  8 32  1  0
  9 33  1  0
  9 34  1  0
 10 35  1  0
 10 36  1  0
 11 37  1  0
 11 38  1  0
 12 39  1  1
 15 40  1  0
 16 41  1  0
 17 42  1  0
 19 43  1  0
 20 44  1  0
 22 45  1  0
 23 46  1  0
 24 47  1  0
 25 48  1  0
M  END
>  <smiles>  (31) 
O=C(NCC(=O)N1CCCC[C@H]1c1ncc[nH]1)c1ccc2ccccc2n1

>  <score_type>  (31) 
oracle

>  <origin>  (31) 
autodockgpu

>  <m_score__min__energy>  (31) 
-8.5099999999999998

>  <m_primary>  (31) 
energy

>  <rmsd>  (31) 
3.631268451081879

>  <m_score__min__rmsd>  (31) 
3.631268451081879

>  <meeko>  (31) 
{"free_energy": -7.95, "intermolecular_energy": -9.44, "internal_energy": -1.66, "cluster_size": 13, "cluster_id": 2, "rank_in_cluster": 3}

>  <energy>  (31) 
-8.01

>  <cluster_rmsd>  (31) 
0.08

>  <cluster>  (31) 
2

$$$$

     RDKit          3D

 48 51  0  0  0  0  0  0  0  0999 V2000
  139.2310   70.9800  221.4360 O   0  0  0  0  0  0  0  0  0  0  0  0
  139.5300   71.5350  222.5140 C   0  0  0  0  0  0  0  0  0  0  0  0
  139.6980   72.9470  222.5510 N   0  0  0  0  0  0  0  0  0  0  0  0
  139.5390   73.7970  221.3870 C   0  0  0  0  0  0  0  0  0  0  0  0
  140.4190   74.9780  221.4260 C   0  0  0  0  0  0  0  0  0  0  0  0
  140.2810   75.9450  222.2180 O   0  0  0  0  0  0  0  0  0  0  0  0
  141.5000   75.0290  220.5030 N   0  0  0  0  0  0  0  0  0  0  0  0
  142.1450   76.2880  220.2580 C   0  0  0  0  0  0  0  0  0  0  0  0
  142.4380   76.5320  218.8050 C   0  0  0  0  0  0  0  0  0  0  0  0
  142.8550   75.3250  218.0340 C   0  0  0  0  0  0  0  0  0  0  0  0
  142.0160   74.1140  218.3130 C   0  0  0  0  0  0  0  0  0  0  0  0
  141.9790   73.8560  219.7960 C   0  0  1  0  0  0  0  0  0  0  0  0
  143.3950   73.5460  220.1950 C   0  0  0  0  0  0  0  0  0  0  0  0
  144.0520   72.3860  219.9650 N   0  0  0  0  0  0  0  0  0  0  0  0
  145.3040   72.4330  220.4480 C   0  0  0  0  0  0  0  0  0  0  0  0
  145.4380   73.6860  221.0100 C   0  0  0  0  0  0  0  0  0  0  0  0
  144.2630   74.3510  220.8460 N   0  0  0  0  0  0  0  0  0  0  0  0
  139.7190   70.7960  223.7530 C   0  0  0  0  0  0  0  0  0  0  0  0
  139.4030   69.4530  223.8310 C   0  0  0  0  0  0  0  0  0  0  0  0
  139.5700   68.7170  224.9990 C   0  0  0  0  0  0  0  0  0  0  0  0
  140.0690   69.3410  226.1250 C   0  0  0  0  0  0  0  0  0  0  0  0
  140.2670   68.6860  227.3240 C   0  0  0  0  0  0  0  0  0  0  0  0
  140.7740   69.3760  228.4250 C   0  0  0  0  0  0  0  0  0  0  0  0
  141.0730   70.7210  228.2870 C   0  0  0  0  0  0  0  0  0  0  0  0
  140.8830   71.3860  227.1060 C   0  0  0  0  0  0  0  0  0  0  0  0
  140.3810   70.6920  226.0250 C   0  0  0  0  0  0  0  0  0  0  0  0
  140.2030   71.3670  224.8730 N   0  0  0  0  0  0  0  0  0  0  0  0
  139.9530   73.4110  223.4690 H   0  0  0  0  0  0  0  0  0  0  0  0
  139.7755   73.2105  220.4870 H   0  0  0  0  0  0  0  0  0  0  0  0
  138.4991   74.1555  221.3746 H   0  0  0  0  0  0  0  0  0  0  0  0
  141.4896   77.0929  220.6221 H   0  0  0  0  0  0  0  0  0  0  0  0
  143.1096   76.2685  220.7863 H   0  0  0  0  0  0  0  0  0  0  0  0
  141.5291   76.9383  218.3373 H   0  0  0  0  0  0  0  0  0  0  0  0
  143.2917   77.2250  218.7760 H   0  0  0  0  0  0  0  0  0  0  0  0
  142.7850   75.5567  216.9610 H   0  0  0  0  0  0  0  0  0  0  0  0
  143.8824   75.0836  218.3442 H   0  0  0  0  0  0  0  0  0  0  0  0
  140.9934   74.2845  217.9454 H   0  0  0  0  0  0  0  0  0  0  0  0
  142.4506   73.2426  217.8013 H   0  0  0  0  0  0  0  0  0  0  0  0
  141.2983   73.0284  220.0445 H   0  0  0  0  0  0  0  0  0  0  0  0
  146.0638   71.6388  220.4047 H   0  0  0  0  0  0  0  0  0  0  0  0
  146.3386   74.0788  221.5047 H   0  0  0  0  0  0  0  0  0  0  0  0
  144.0720   75.3380  221.1790 H   0  0  0  0  0  0  0  0  0  0  0  0
  139.0055   68.9485  222.9380 H   0  0  0  0  0  0  0  0  0  0  0  0
  139.3074   67.6491  225.0255 H   0  0  0  0  0  0  0  0  0  0  0  0
  140.0242   67.6167  227.4113 H   0  0  0  0  0  0  0  0  0  0  0  0
  140.9332   68.8618  229.3843 H   0  0  0  0  0  0  0  0  0  0  0  0
  141.4746   71.2706  229.1511 H   0  0  0  0  0  0  0  0  0  0  0  0
  141.1264   72.4553  227.0205 H   0  0  0  0  0  0  0  0  0  0  0  0
  1  2  2  0
  2  3  1  0
  3  4  1  0
  4  5  1  0
  5  6  2  0
  5  7  1  0
  7  8  1  0
  8  9  1  0
  9 10  1  0
 10 11  1  0
 11 12  1  0
 12 13  1  0
 13 14  2  0
 14 15  1  0
 15 16  2  0
 16 17  1  0
  2 18  1  0
 18 19  2  0
 19 20  1  0
 20 21  2  0
 21 22  1  0
 22 23  2  0
 23 24  1  0
 24 25  2  0
 25 26  1  0
 26 27  2  0
 12  7  1  0
 17 13  1  0
 27 18  1  0
 26 21  1  0
  3 28  1  0
  4 29  1  0
  4 30  1  0
  8 31  1  0
  8 32  1  0
  9 33  1  0
  9 34  1  0
 10 35  1  0
 10 36  1  0
 11 37  1  0
 11 38  1  0
 12 39  1  6
 15 40  1  0
 16 41  1  0
 17 42  1  0
 19 43  1  0
 20 44  1  0
 22 45  1  0
 23 46  1  0
 24 47  1  0
 25 48  1  0
M  END
>  <smiles>  (32) 
O=C(NCC(=O)N1CCCC[C@H]1c1ncc[nH]1)c1ccc2ccccc2n1

>  <score_type>  (32) 
oracle

>  <origin>  (32) 
autodockgpu

>  <m_score__min__energy>  (32) 
-8.5099999999999998

>  <m_primary>  (32) 
energy

>  <rmsd>  (32) 
3.441339269135036

>  <m_score__min__rmsd>  (32) 
3.441339269135036

>  <meeko>  (32) 
{"free_energy": -7.51, "intermolecular_energy": -9.0, "internal_energy": -1.71, "cluster_size": 13, "cluster_id": 2, "rank_in_cluster": 9}

>  <energy>  (32) 
-7.95

>  <cluster_rmsd>  (32) 
0.13

>  <cluster>  (32) 
2

$$$$

     RDKit          3D

 48 51  0  0  0  0  0  0  0  0999 V2000
  141.4410   72.1770  221.7490 O   0  0  0  0  0  0  0  0  0  0  0  0
  140.4710   72.3510  222.5170 C   0  0  0  0  0  0  0  0  0  0  0  0
  139.5290   73.3780  222.2330 N   0  0  0  0  0  0  0  0  0  0  0  0
  139.6300   74.2530  221.0820 C   0  0  0  0  0  0  0  0  0  0  0  0
  140.6000   75.3420  221.2830 C   0  0  0  0  0  0  0  0  0  0  0  0
  141.8490   75.2090  221.2110 O   0  0  0  0  0  0  0  0  0  0  0  0
  140.0910   76.6370  221.5800 N   0  0  0  0  0  0  0  0  0  0  0  0
  138.9920   76.7570  222.4960 C   0  0  0  0  0  0  0  0  0  0  0  0
  137.9490   77.7410  222.0460 C   0  0  0  0  0  0  0  0  0  0  0  0
  138.4810   78.9560  221.3640 C   0  0  0  0  0  0  0  0  0  0  0  0
  139.5460   78.6610  220.3520 C   0  0  0  0  0  0  0  0  0  0  0  0
  140.6390   77.8440  220.9920 C   0  0  1  0  0  0  0  0  0  0  0  0
  141.2360   78.7210  222.0570 C   0  0  0  0  0  0  0  0  0  0  0  0
  141.3090   80.0720  222.0290 N   0  0  0  0  0  0  0  0  0  0  0  0
  141.9010   80.5500  223.1360 C   0  0  0  0  0  0  0  0  0  0  0  0
  142.2140   79.4410  223.8970 C   0  0  0  0  0  0  0  0  0  0  0  0
  141.8010   78.3350  223.2230 N   0  0  0  0  0  0  0  0  0  0  0  0
  140.2560   71.5410  223.7070 C   0  0  0  0  0  0  0  0  0  0  0  0
  139.5460   70.3580  223.6390 C   0  0  0  0  0  0  0  0  0  0  0  0
  139.3230   69.5610  224.7560 C   0  0  0  0  0  0  0  0  0  0  0  0
  139.8220   69.9580  225.9800 C   0  0  0  0  0  0  0  0  0  0  0  0
  139.6460   69.2280  227.1390 C   0  0  0  0  0  0  0  0  0  0  0  0
  140.1770   69.6860  228.3440 C   0  0  0  0  0  0  0  0  0  0  0  0
  140.8780   70.8790  228.3510 C   0  0  0  0  0  0  0  0  0  0  0  0
  141.0620   71.6160  227.2130 C   0  0  0  0  0  0  0  0  0  0  0  0
  140.5330   71.1520  226.0270 C   0  0  0  0  0  0  0  0  0  0  0  0
  140.7260   71.8940  224.9190 N   0  0  0  0  0  0  0  0  0  0  0  0
  138.7090   73.5190  222.8900 H   0  0  0  0  0  0  0  0  0  0  0  0
  139.9445   73.6569  220.2126 H   0  0  0  0  0  0  0  0  0  0  0  0
  138.6425   74.7110  220.9236 H   0  0  0  0  0  0  0  0  0  0  0  0
  138.5179   75.7703  222.6039 H   0  0  0  0  0  0  0  0  0  0  0  0
  139.4000   77.1267  223.4483 H   0  0  0  0  0  0  0  0  0  0  0  0
  137.2730   77.2261  221.3475 H   0  0  0  0  0  0  0  0  0  0  0  0
  137.4471   78.0956  222.9583 H   0  0  0  0  0  0  0  0  0  0  0  0
  137.6475   79.4609  220.8538 H   0  0  0  0  0  0  0  0  0  0  0  0
  138.9407   79.5851  222.1404 H   0  0  0  0  0  0  0  0  0  0  0  0
  139.1094   78.0965  219.5149 H   0  0  0  0  0  0  0  0  0  0  0  0
  139.9672   79.6061  219.9787 H   0  0  0  0  0  0  0  0  0  0  0  0
  141.3934   77.5307  220.2553 H   0  0  0  0  0  0  0  0  0  0  0  0
  142.0956   81.6038  223.3843 H   0  0  0  0  0  0  0  0  0  0  0  0
  142.7112   79.4508  224.8782 H   0  0  0  0  0  0  0  0  0  0  0  0
  141.9090   77.3380  223.5650 H   0  0  0  0  0  0  0  0  0  0  0  0
  139.1432   70.0355  222.6675 H   0  0  0  0  0  0  0  0  0  0  0  0
  138.7547   68.6236  224.6652 H   0  0  0  0  0  0  0  0  0  0  0  0
  139.0851   68.2822  227.1114 H   0  0  0  0  0  0  0  0  0  0  0  0
  140.0413   69.1101  229.2713 H   0  0  0  0  0  0  0  0  0  0  0  0
  141.2995   71.2454  229.2987 H   0  0  0  0  0  0  0  0  0  0  0  0
  141.6221   72.5622  227.2436 H   0  0  0  0  0  0  0  0  0  0  0  0
  1  2  2  0
  2  3  1  0
  3  4  1  0
  4  5  1  0
  5  6  2  0
  5  7  1  0
  7  8  1  0
  8  9  1  0
  9 10  1  0
 10 11  1  0
 11 12  1  0
 12 13  1  0
 13 14  2  0
 14 15  1  0
 15 16  2  0
 16 17  1  0
  2 18  1  0
 18 19  2  0
 19 20  1  0
 20 21  2  0
 21 22  1  0
 22 23  2  0
 23 24  1  0
 24 25  2  0
 25 26  1  0
 26 27  2  0
 12  7  1  0
 17 13  1  0
 27 18  1  0
 26 21  1  0
  3 28  1  0
  4 29  1  0
  4 30  1  0
  8 31  1  0
  8 32  1  0
  9 33  1  0
  9 34  1  0
 10 35  1  0
 10 36  1  0
 11 37  1  0
 11 38  1  0
 12 39  1  6
 15 40  1  0
 16 41  1  0
 17 42  1  0
 19 43  1  0
 20 44  1  0
 22 45  1  0
 23 46  1  0
 24 47  1  0
 25 48  1  0
M  END
>  <smiles>  (33) 
O=C(NCC(=O)N1CCCC[C@H]1c1ncc[nH]1)c1ccc2ccccc2n1

>  <score_type>  (33) 
oracle

>  <origin>  (33) 
autodockgpu

>  <m_score__min__energy>  (33) 
-8.5099999999999998

>  <m_primary>  (33) 
energy

>  <rmsd>  (33) 
2.5112498130042353

>  <m_score__min__rmsd>  (33) 
2.5112498130042353

>  <meeko>  (33) 
{"free_energy": -8.09, "intermolecular_energy": -9.58, "internal_energy": -1.39, "cluster_size": 29, "cluster_id": 1, "rank_in_cluster": 22}

>  <energy>  (33) 
-7.94

>  <cluster_rmsd>  (33) 
1.03

>  <cluster>  (33) 
2

$$$$

     RDKit          3D

 48 51  0  0  0  0  0  0  0  0999 V2000
  138.2790   75.0510  222.3150 O   0  0  0  0  0  0  0  0  0  0  0  0
  139.3940   75.5660  222.0890 C   0  0  0  0  0  0  0  0  0  0  0  0
  140.4060   74.7920  221.4550 N   0  0  0  0  0  0  0  0  0  0  0  0
  140.2150   73.4140  221.0480 C   0  0  0  0  0  0  0  0  0  0  0  0
  141.4630   72.6340  221.0930 C   0  0  0  0  0  0  0  0  0  0  0  0
  141.6140   71.5640  221.7380 O   0  0  0  0  0  0  0  0  0  0  0  0
  142.5770   73.1220  220.3550 N   0  0  0  0  0  0  0  0  0  0  0  0
  142.9310   72.4760  219.1230 C   0  0  0  0  0  0  0  0  0  0  0  0
  144.4110   72.2770  218.9610 C   0  0  0  0  0  0  0  0  0  0  0  0
  145.2580   73.3880  219.4840 C   0  0  0  0  0  0  0  0  0  0  0  0
  144.8330   73.8840  220.8330 C   0  0  0  0  0  0  0  0  0  0  0  0
  143.3730   74.2510  220.8000 C   0  0  1  0  0  0  0  0  0  0  0  0
  143.2570   75.3890  219.8250 C   0  0  0  0  0  0  0  0  0  0  0  0
  143.5330   75.3360  218.5020 N   0  0  0  0  0  0  0  0  0  0  0  0
  143.3270   76.5260  217.9130 C   0  0  0  0  0  0  0  0  0  0  0  0
  142.9000   77.3670  218.9210 C   0  0  0  0  0  0  0  0  0  0  0  0
  142.8630   76.6570  220.0790 N   0  0  0  0  0  0  0  0  0  0  0  0
  139.7140   76.9390  222.4480 C   0  0  0  0  0  0  0  0  0  0  0  0
  138.7150   77.8340  222.7820 C   0  0  0  0  0  0  0  0  0  0  0  0
  138.9860   79.1520  223.1300 C   0  0  0  0  0  0  0  0  0  0  0  0
  140.2940   79.5930  223.1440 C   0  0  0  0  0  0  0  0  0  0  0  0
  140.6510   80.8840  223.4770 C   0  0  0  0  0  0  0  0  0  0  0  0
  141.9930   81.2640  223.4720 C   0  0  0  0  0  0  0  0  0  0  0  0
  142.9490   80.3250  223.1280 C   0  0  0  0  0  0  0  0  0  0  0  0
  142.6140   79.0410  222.7950 C   0  0  0  0  0  0  0  0  0  0  0  0
  141.2830   78.6770  222.8050 C   0  0  0  0  0  0  0  0  0  0  0  0
  140.9770   77.4080  222.4740 N   0  0  0  0  0  0  0  0  0  0  0  0
  141.3500   75.2360  221.2670 H   0  0  0  0  0  0  0  0  0  0  0  0
  139.4820   72.9458  221.7214 H   0  0  0  0  0  0  0  0  0  0  0  0
  139.8619   73.4193  220.0062 H   0  0  0  0  0  0  0  0  0  0  0  0
  142.4407   71.4918  219.0913 H   0  0  0  0  0  0  0  0  0  0  0  0
  142.5985   73.1309  218.3042 H   0  0  0  0  0  0  0  0  0  0  0  0
  144.6914   71.3553  219.4919 H   0  0  0  0  0  0  0  0  0  0  0  0
  144.5981   72.2317  217.8780 H   0  0  0  0  0  0  0  0  0  0  0  0
  146.2954   73.0296  219.5565 H   0  0  0  0  0  0  0  0  0  0  0  0
  145.1535   74.2298  218.7837 H   0  0  0  0  0  0  0  0  0  0  0  0
  144.9949   73.0940  221.5811 H   0  0  0  0  0  0  0  0  0  0  0  0
  145.4264   74.7711  221.0994 H   0  0  0  0  0  0  0  0  0  0  0  0
  143.0054   74.5337  221.7975 H   0  0  0  0  0  0  0  0  0  0  0  0
  143.4687   76.7771  216.8515 H   0  0  0  0  0  0  0  0  0  0  0  0
  142.6354   78.4285  218.8066 H   0  0  0  0  0  0  0  0  0  0  0  0
  142.5710   77.0440  221.0210 H   0  0  0  0  0  0  0  0  0  0  0  0
  137.6698   77.4914  222.7720 H   0  0  0  0  0  0  0  0  0  0  0  0
  138.1661   79.8371  223.3917 H   0  0  0  0  0  0  0  0  0  0  0  0
  139.8749   81.6153  223.7471 H   0  0  0  0  0  0  0  0  0  0  0  0
  142.2857   82.2908  223.7365 H   0  0  0  0  0  0  0  0  0  0  0  0
  144.0089   80.6192  223.1221 H   0  0  0  0  0  0  0  0  0  0  0  0
  143.3918   78.3118  222.5241 H   0  0  0  0  0  0  0  0  0  0  0  0
  1  2  2  0
  2  3  1  0
  3  4  1  0
  4  5  1  0
  5  6  2  0
  5  7  1  0
  7  8  1  0
  8  9  1  0
  9 10  1  0
 10 11  1  0
 11 12  1  0
 12 13  1  0
 13 14  2  0
 14 15  1  0
 15 16  2  0
 16 17  1  0
  2 18  1  0
 18 19  2  0
 19 20  1  0
 20 21  2  0
 21 22  1  0
 22 23  2  0
 23 24  1  0
 24 25  2  0
 25 26  1  0
 26 27  2  0
 12  7  1  0
 17 13  1  0
 27 18  1  0
 26 21  1  0
  3 28  1  0
  4 29  1  0
  4 30  1  0
  8 31  1  0
  8 32  1  0
  9 33  1  0
  9 34  1  0
 10 35  1  0
 10 36  1  0
 11 37  1  0
 11 38  1  0
 12 39  1  1
 15 40  1  0
 16 41  1  0
 17 42  1  0
 19 43  1  0
 20 44  1  0
 22 45  1  0
 23 46  1  0
 24 47  1  0
 25 48  1  0
M  END
>  <smiles>  (34) 
O=C(NCC(=O)N1CCCC[C@H]1c1ncc[nH]1)c1ccc2ccccc2n1

>  <score_type>  (34) 
oracle

>  <origin>  (34) 
autodockgpu

>  <m_score__min__energy>  (34) 
-8.5099999999999998

>  <m_primary>  (34) 
energy

>  <rmsd>  (34) 
7.157697702815746

>  <m_score__min__rmsd>  (34) 
7.157697702815746

>  <meeko>  (34) 
{"free_energy": -6.81, "intermolecular_energy": -8.3, "internal_energy": -2.58, "cluster_size": 4, "cluster_id": 5, "rank_in_cluster": 1}

>  <energy>  (34) 
-7.89

>  <cluster_rmsd>  (34) 
1.03

>  <cluster>  (34) 
2

$$$$

     RDKit          3D

 48 51  0  0  0  0  0  0  0  0999 V2000
  141.2490   72.0360  221.6120 O   0  0  0  0  0  0  0  0  0  0  0  0
  140.3730   72.2680  222.4710 C   0  0  0  0  0  0  0  0  0  0  0  0
  139.4750   73.3540  222.2780 N   0  0  0  0  0  0  0  0  0  0  0  0
  139.5180   74.2250  221.1200 C   0  0  0  0  0  0  0  0  0  0  0  0
  140.3650   75.4100  221.3350 C   0  0  0  0  0  0  0  0  0  0  0  0
  140.2360   76.2160  222.2920 O   0  0  0  0  0  0  0  0  0  0  0  0
  141.4030   75.6630  220.3950 N   0  0  0  0  0  0  0  0  0  0  0  0
  142.0710   76.9330  220.4240 C   0  0  0  0  0  0  0  0  0  0  0  0
  142.3020   77.5130  219.0560 C   0  0  0  0  0  0  0  0  0  0  0  0
  142.6470   76.5180  218.0000 C   0  0  0  0  0  0  0  0  0  0  0  0
  141.7880   75.2900  218.0260 C   0  0  0  0  0  0  0  0  0  0  0  0
  141.8130   74.6850  219.4050 C   0  0  1  0  0  0  0  0  0  0  0  0
  143.2370   74.2650  219.6430 C   0  0  0  0  0  0  0  0  0  0  0  0
  144.0170   73.5700  218.7850 N   0  0  0  0  0  0  0  0  0  0  0  0
  145.2390   73.3570  219.3010 C   0  0  0  0  0  0  0  0  0  0  0  0
  145.2230   73.9500  220.5470 C   0  0  0  0  0  0  0  0  0  0  0  0
  143.9940   74.4990  220.7390 N   0  0  0  0  0  0  0  0  0  0  0  0
  140.2250   71.4700  223.6780 C   0  0  0  0  0  0  0  0  0  0  0  0
  139.5920   70.2420  223.6420 C   0  0  0  0  0  0  0  0  0  0  0  0
  139.4330   69.4540  224.7760 C   0  0  0  0  0  0  0  0  0  0  0  0
  139.9200   69.9070  225.9860 C   0  0  0  0  0  0  0  0  0  0  0  0
  139.8050   69.1900  227.1610 C   0  0  0  0  0  0  0  0  0  0  0  0
  140.3190   69.7050  228.3500 C   0  0  0  0  0  0  0  0  0  0  0  0
  140.9420   70.9400  228.3260 C   0  0  0  0  0  0  0  0  0  0  0  0
  141.0650   71.6650  227.1720 C   0  0  0  0  0  0  0  0  0  0  0  0
  140.5520   71.1450  226.0020 C   0  0  0  0  0  0  0  0  0  0  0  0
  140.6850   71.8750  224.8780 N   0  0  0  0  0  0  0  0  0  0  0  0
  138.7340   73.5460  223.0120 H   0  0  0  0  0  0  0  0  0  0  0  0
  139.9165   73.6571  220.2664 H   0  0  0  0  0  0  0  0  0  0  0  0
  138.4935   74.5774  220.9295 H   0  0  0  0  0  0  0  0  0  0  0  0
  141.4565   77.6379  221.0032 H   0  0  0  0  0  0  0  0  0  0  0  0
  143.0583   76.7723  220.8815 H   0  0  0  0  0  0  0  0  0  0  0  0
  141.3841   78.0344  218.7469 H   0  0  0  0  0  0  0  0  0  0  0  0
  143.1727   78.1790  219.1473 H   0  0  0  0  0  0  0  0  0  0  0  0
  142.5337   77.0004  217.0179 H   0  0  0  0  0  0  0  0  0  0  0  0
  143.6801   76.1919  218.1906 H   0  0  0  0  0  0  0  0  0  0  0  0
  140.7546   75.5605  217.7636 H   0  0  0  0  0  0  0  0  0  0  0  0
  142.1731   74.5593  217.2995 H   0  0  0  0  0  0  0  0  0  0  0  0
  141.1208   73.8339  219.4851 H   0  0  0  0  0  0  0  0  0  0  0  0
  146.0765   72.8222  218.8293 H   0  0  0  0  0  0  0  0  0  0  0  0
  146.0594   73.9743  221.2610 H   0  0  0  0  0  0  0  0  0  0  0  0
  143.6910   75.0220  221.6080 H   0  0  0  0  0  0  0  0  0  0  0  0
  139.2001   69.8751  222.6819 H   0  0  0  0  0  0  0  0  0  0  0  0
  138.9250   68.4806  224.7102 H   0  0  0  0  0  0  0  0  0  0  0  0
  139.3062   68.2096  227.1585 H   0  0  0  0  0  0  0  0  0  0  0  0
  140.2309   69.1400  229.2897 H   0  0  0  0  0  0  0  0  0  0  0  0
  141.3501   71.3509  229.2612 H   0  0  0  0  0  0  0  0  0  0  0  0
  141.5642   72.6452  227.1773 H   0  0  0  0  0  0  0  0  0  0  0  0
  1  2  2  0
  2  3  1  0
  3  4  1  0
  4  5  1  0
  5  6  2  0
  5  7  1  0
  7  8  1  0
  8  9  1  0
  9 10  1  0
 10 11  1  0
 11 12  1  0
 12 13  1  0
 13 14  2  0
 14 15  1  0
 15 16  2  0
 16 17  1  0
  2 18  1  0
 18 19  2  0
 19 20  1  0
 20 21  2  0
 21 22  1  0
 22 23  2  0
 23 24  1  0
 24 25  2  0
 25 26  1  0
 26 27  2  0
 12  7  1  0
 17 13  1  0
 27 18  1  0
 26 21  1  0
  3 28  1  0
  4 29  1  0
  4 30  1  0
  8 31  1  0
  8 32  1  0
  9 33  1  0
  9 34  1  0
 10 35  1  0
 10 36  1  0
 11 37  1  0
 11 38  1  0
 12 39  1  6
 15 40  1  0
 16 41  1  0
 17 42  1  0
 19 43  1  0
 20 44  1  0
 22 45  1  0
 23 46  1  0
 24 47  1  0
 25 48  1  0
M  END
>  <smiles>  (35) 
O=C(NCC(=O)N1CCCC[C@H]1c1ncc[nH]1)c1ccc2ccccc2n1

>  <score_type>  (35) 
oracle

>  <origin>  (35) 
autodockgpu

>  <m_score__min__energy>  (35) 
-8.5099999999999998

>  <m_primary>  (35) 
energy

>  <rmsd>  (35) 
3.3665547787920724

>  <m_score__min__rmsd>  (35) 
3.3665547787920724

>  <meeko>  (35) 
{"free_energy": -7.83, "intermolecular_energy": -9.32, "internal_energy": -1.61, "cluster_size": 13, "cluster_id": 2, "rank_in_cluster": 7}

>  <energy>  (35) 
-7.86

>  <cluster_rmsd>  (35) 
1.61

>  <cluster>  (35) 
2

$$$$

     RDKit          3D

 48 51  0  0  0  0  0  0  0  0999 V2000
  141.3550   72.4220  221.8690 O   0  0  0  0  0  0  0  0  0  0  0  0
  140.3420   72.4460  222.5980 C   0  0  0  0  0  0  0  0  0  0  0  0
  139.2900   73.3580  222.3040 N   0  0  0  0  0  0  0  0  0  0  0  0
  139.3270   74.2790  221.1850 C   0  0  0  0  0  0  0  0  0  0  0  0
  140.3180   75.3530  221.3680 C   0  0  0  0  0  0  0  0  0  0  0  0
  141.5600   75.2090  221.2310 O   0  0  0  0  0  0  0  0  0  0  0  0
  139.8380   76.6430  221.7260 N   0  0  0  0  0  0  0  0  0  0  0  0
  138.8100   76.7500  222.7220 C   0  0  0  0  0  0  0  0  0  0  0  0
  137.7420   77.7460  222.3680 C   0  0  0  0  0  0  0  0  0  0  0  0
  138.2290   78.9720  221.6730 C   0  0  0  0  0  0  0  0  0  0  0  0
  139.2160   78.6920  220.5800 C   0  0  0  0  0  0  0  0  0  0  0  0
  140.3480   77.8600  221.1220 C   0  0  1  0  0  0  0  0  0  0  0  0
  141.0260   78.7140  222.1580 C   0  0  0  0  0  0  0  0  0  0  0  0
  140.9960   80.0650  222.2200 N   0  0  0  0  0  0  0  0  0  0  0  0
  141.7040   80.5190  223.2670 C   0  0  0  0  0  0  0  0  0  0  0  0
  142.2020   79.3940  223.8930 C   0  0  0  0  0  0  0  0  0  0  0  0
  141.7780   78.3030  223.2020 N   0  0  0  0  0  0  0  0  0  0  0  0
  140.1820   71.5750  223.7520 C   0  0  0  0  0  0  0  0  0  0  0  0
  139.4890   70.3840  223.6490 C   0  0  0  0  0  0  0  0  0  0  0  0
  139.3180   69.5280  224.7320 C   0  0  0  0  0  0  0  0  0  0  0  0
  139.8540   69.8730  225.9560 C   0  0  0  0  0  0  0  0  0  0  0  0
  139.7320   69.0830  227.0820 C   0  0  0  0  0  0  0  0  0  0  0  0
  140.2980   69.4900  228.2900 C   0  0  0  0  0  0  0  0  0  0  0  0
  140.9800   70.6930  228.3330 C   0  0  0  0  0  0  0  0  0  0  0  0
  141.1110   71.4890  227.2270 C   0  0  0  0  0  0  0  0  0  0  0  0
  140.5470   71.0750  226.0390 C   0  0  0  0  0  0  0  0  0  0  0  0
  140.6890   71.8750  224.9640 N   0  0  0  0  0  0  0  0  0  0  0  0
  138.4330   73.3740  222.9270 H   0  0  0  0  0  0  0  0  0  0  0  0
  139.5809   73.7168  220.2742 H   0  0  0  0  0  0  0  0  0  0  0  0
  138.3358   74.7498  221.1081 H   0  0  0  0  0  0  0  0  0  0  0  0
  138.3400   75.7633  222.8463 H   0  0  0  0  0  0  0  0  0  0  0  0
  139.2886   77.1003  223.6484 H   0  0  0  0  0  0  0  0  0  0  0  0
  137.0147   77.2472  221.7105 H   0  0  0  0  0  0  0  0  0  0  0  0
  137.3092   78.0843  223.3210 H   0  0  0  0  0  0  0  0  0  0  0  0
  137.3632   79.4902  221.2350 H   0  0  0  0  0  0  0  0  0  0  0  0
  138.7473   79.5843  222.4257 H   0  0  0  0  0  0  0  0  0  0  0  0
  138.7163   78.1449  219.7670 H   0  0  0  0  0  0  0  0  0  0  0  0
  139.6135   79.6425  220.1946 H   0  0  0  0  0  0  0  0  0  0  0  0
  141.0450   77.5590  220.3260 H   0  0  0  0  0  0  0  0  0  0  0  0
  141.8553   81.5674  223.5635 H   0  0  0  0  0  0  0  0  0  0  0  0
  142.8324   79.3824  224.7944 H   0  0  0  0  0  0  0  0  0  0  0  0
  142.0070   77.2990  223.4520 H   0  0  0  0  0  0  0  0  0  0  0  0
  139.0576   70.1031  222.6769 H   0  0  0  0  0  0  0  0  0  0  0  0
  138.7616   68.5864  224.6141 H   0  0  0  0  0  0  0  0  0  0  0  0
  139.1865   68.1294  227.0260 H   0  0  0  0  0  0  0  0  0  0  0  0
  140.2040   68.8665  229.1913 H   0  0  0  0  0  0  0  0  0  0  0  0
  141.4296   71.0190  229.2825 H   0  0  0  0  0  0  0  0  0  0  0  0
  141.6567   72.4423  227.2851 H   0  0  0  0  0  0  0  0  0  0  0  0
  1  2  2  0
  2  3  1  0
  3  4  1  0
  4  5  1  0
  5  6  2  0
  5  7  1  0
  7  8  1  0
  8  9  1  0
  9 10  1  0
 10 11  1  0
 11 12  1  0
 12 13  1  0
 13 14  2  0
 14 15  1  0
 15 16  2  0
 16 17  1  0
  2 18  1  0
 18 19  2  0
 19 20  1  0
 20 21  2  0
 21 22  1  0
 22 23  2  0
 23 24  1  0
 24 25  2  0
 25 26  1  0
 26 27  2  0
 12  7  1  0
 17 13  1  0
 27 18  1  0
 26 21  1  0
  3 28  1  0
  4 29  1  0
  4 30  1  0
  8 31  1  0
  8 32  1  0
  9 33  1  0
  9 34  1  0
 10 35  1  0
 10 36  1  0
 11 37  1  0
 11 38  1  0
 12 39  1  6
 15 40  1  0
 16 41  1  0
 17 42  1  0
 19 43  1  0
 20 44  1  0
 22 45  1  0
 23 46  1  0
 24 47  1  0
 25 48  1  0
M  END
>  <smiles>  (36) 
O=C(NCC(=O)N1CCCC[C@H]1c1ncc[nH]1)c1ccc2ccccc2n1

>  <score_type>  (36) 
oracle

>  <origin>  (36) 
autodockgpu

>  <m_score__min__energy>  (36) 
-8.5099999999999998

>  <m_primary>  (36) 
energy

>  <rmsd>  (36) 
2.609855840685012

>  <m_score__min__rmsd>  (36) 
2.609855840685012

>  <meeko>  (36) 
{"free_energy": -8.1, "intermolecular_energy": -9.59, "internal_energy": -1.38, "cluster_size": 29, "cluster_id": 1, "rank_in_cluster": 21}

>  <energy>  (36) 
-7.83

>  <cluster_rmsd>  (36) 
0.78

>  <cluster>  (36) 
2

$$$$

     RDKit          3D

 48 51  0  0  0  0  0  0  0  0999 V2000
  141.3950   72.4820  221.5590 O   0  0  0  0  0  0  0  0  0  0  0  0
  140.4960   72.6370  222.4130 C   0  0  0  0  0  0  0  0  0  0  0  0
  139.6650   73.7900  222.3520 N   0  0  0  0  0  0  0  0  0  0  0  0
  139.8020   74.8160  221.3370 C   0  0  0  0  0  0  0  0  0  0  0  0
  139.2240   76.1040  221.7540 C   0  0  0  0  0  0  0  0  0  0  0  0
  138.2100   76.2280  222.4890 O   0  0  0  0  0  0  0  0  0  0  0  0
  139.8550   77.2940  221.2950 N   0  0  0  0  0  0  0  0  0  0  0  0
  139.0530   78.3120  220.6790 C   0  0  0  0  0  0  0  0  0  0  0  0
  139.6880   78.9070  219.4530 C   0  0  0  0  0  0  0  0  0  0  0  0
  141.1680   79.0760  219.5290 C   0  0  0  0  0  0  0  0  0  0  0  0
  141.8810   77.8840  220.0920 C   0  0  0  0  0  0  0  0  0  0  0  0
  141.2820   77.5190  221.4250 C   0  0  1  0  0  0  0  0  0  0  0  0
  141.5470   78.6920  222.3280 C   0  0  0  0  0  0  0  0  0  0  0  0
  140.6490   79.2830  223.1510 N   0  0  0  0  0  0  0  0  0  0  0  0
  141.2040   80.3050  223.8220 C   0  0  0  0  0  0  0  0  0  0  0  0
  142.5170   80.3570  223.3980 C   0  0  0  0  0  0  0  0  0  0  0  0
  142.7070   79.3660  222.4870 N   0  0  0  0  0  0  0  0  0  0  0  0
  140.2560   71.6820  223.4830 C   0  0  0  0  0  0  0  0  0  0  0  0
  139.5730   70.5050  223.2410 C   0  0  0  0  0  0  0  0  0  0  0  0
  139.3260   69.5710  224.2410 C   0  0  0  0  0  0  0  0  0  0  0  0
  139.7730   69.8190  225.5230 C   0  0  0  0  0  0  0  0  0  0  0  0
  139.5710   68.9470  226.5740 C   0  0  0  0  0  0  0  0  0  0  0  0
  140.0490   69.2590  227.8460 C   0  0  0  0  0  0  0  0  0  0  0  0
  140.7250   70.4530  228.0290 C   0  0  0  0  0  0  0  0  0  0  0  0
  140.9340   71.3290  226.9990 C   0  0  0  0  0  0  0  0  0  0  0  0
  140.4570   71.0090  225.7450 C   0  0  0  0  0  0  0  0  0  0  0  0
  140.6750   71.8860  224.7470 N   0  0  0  0  0  0  0  0  0  0  0  0
  138.9050   73.9150  223.0800 H   0  0  0  0  0  0  0  0  0  0  0  0
  140.8715   74.9617  221.1251 H   0  0  0  0  0  0  0  0  0  0  0  0
  139.2546   74.4779  220.4448 H   0  0  0  0  0  0  0  0  0  0  0  0
  138.0871   77.8703  220.3928 H   0  0  0  0  0  0  0  0  0  0  0  0
  138.9359   79.1235  221.4123 H   0  0  0  0  0  0  0  0  0  0  0  0
  139.4628   78.2508  218.5994 H   0  0  0  0  0  0  0  0  0  0  0  0
  139.2679   79.9183  219.3490 H   0  0  0  0  0  0  0  0  0  0  0  0
  141.5492   79.2616  218.5140 H   0  0  0  0  0  0  0  0  0  0  0  0
  141.3615   79.9182  220.2097 H   0  0  0  0  0  0  0  0  0  0  0  0
  141.7780   77.0353  219.3998 H   0  0  0  0  0  0  0  0  0  0  0  0
  142.9462   78.1247  220.2241 H   0  0  0  0  0  0  0  0  0  0  0  0
  141.7200   76.5925  221.8247 H   0  0  0  0  0  0  0  0  0  0  0  0
  140.7152   80.9629  224.5557 H   0  0  0  0  0  0  0  0  0  0  0  0
  143.2772   81.0755  223.7382 H   0  0  0  0  0  0  0  0  0  0  0  0
  143.6210   79.1650  221.9900 H   0  0  0  0  0  0  0  0  0  0  0  0
  139.2124   70.3001  222.2222 H   0  0  0  0  0  0  0  0  0  0  0  0
  138.7799   68.6438  224.0127 H   0  0  0  0  0  0  0  0  0  0  0  0
  139.0313   68.0031  226.4074 H   0  0  0  0  0  0  0  0  0  0  0  0
  139.8919   68.5693  228.6884 H   0  0  0  0  0  0  0  0  0  0  0  0
  141.1047   70.7045  229.0303 H   0  0  0  0  0  0  0  0  0  0  0  0
  141.4734   72.2726  227.1681 H   0  0  0  0  0  0  0  0  0  0  0  0
  1  2  2  0
  2  3  1  0
  3  4  1  0
  4  5  1  0
  5  6  2  0
  5  7  1  0
  7  8  1  0
  8  9  1  0
  9 10  1  0
 10 11  1  0
 11 12  1  0
 12 13  1  0
 13 14  2  0
 14 15  1  0
 15 16  2  0
 16 17  1  0
  2 18  1  0
 18 19  2  0
 19 20  1  0
 20 21  2  0
 21 22  1  0
 22 23  2  0
 23 24  1  0
 24 25  2  0
 25 26  1  0
 26 27  2  0
 12  7  1  0
 17 13  1  0
 27 18  1  0
 26 21  1  0
  3 28  1  0
  4 29  1  0
  4 30  1  0
  8 31  1  0
  8 32  1  0
  9 33  1  0
  9 34  1  0
 10 35  1  0
 10 36  1  0
 11 37  1  0
 11 38  1  0
 12 39  1  1
 15 40  1  0
 16 41  1  0
 17 42  1  0
 19 43  1  0
 20 44  1  0
 22 45  1  0
 23 46  1  0
 24 47  1  0
 25 48  1  0
M  END
>  <smiles>  (37) 
O=C(NCC(=O)N1CCCC[C@H]1c1ncc[nH]1)c1ccc2ccccc2n1

>  <score_type>  (37) 
oracle

>  <origin>  (37) 
autodockgpu

>  <m_score__min__energy>  (37) 
-8.5099999999999998

>  <m_primary>  (37) 
energy

>  <rmsd>  (37) 
2.291534960295506

>  <m_score__min__rmsd>  (37) 
2.291534960295506

>  <meeko>  (37) 
{"free_energy": -8.41, "intermolecular_energy": -9.9, "internal_energy": -1.54, "cluster_size": 29, "cluster_id": 1, "rank_in_cluster": 7}

>  <energy>  (37) 
-7.66

>  <cluster_rmsd>  (37) 
1.11

>  <cluster>  (37) 
2

$$$$

     RDKit          3D

 48 51  0  0  0  0  0  0  0  0999 V2000
  139.0320   70.8560  221.3160 O   0  0  0  0  0  0  0  0  0  0  0  0
  139.3160   71.5220  222.3340 C   0  0  0  0  0  0  0  0  0  0  0  0
  139.3610   72.9420  222.2510 N   0  0  0  0  0  0  0  0  0  0  0  0
  139.0910   73.6760  221.0300 C   0  0  0  0  0  0  0  0  0  0  0  0
  140.1250   73.4640  220.0030 C   0  0  0  0  0  0  0  0  0  0  0  0
  140.0820   72.5690  219.1210 O   0  0  0  0  0  0  0  0  0  0  0  0
  141.2520   74.3320  220.0090 N   0  0  0  0  0  0  0  0  0  0  0  0
  141.3560   75.3280  221.0380 C   0  0  0  0  0  0  0  0  0  0  0  0
  141.8120   76.6650  220.5250 C   0  0  0  0  0  0  0  0  0  0  0  0
  142.8360   76.6090  219.4420 C   0  0  0  0  0  0  0  0  0  0  0  0
  142.5330   75.5970  218.3790 C   0  0  0  0  0  0  0  0  0  0  0  0
  142.3040   74.2500  219.0140 C   0  0  1  0  0  0  0  0  0  0  0  0
  143.6090   73.8740  219.6600 C   0  0  0  0  0  0  0  0  0  0  0  0
  143.7560   73.1940  220.8200 N   0  0  0  0  0  0  0  0  0  0  0  0
  145.0540   73.0200  221.1200 C   0  0  0  0  0  0  0  0  0  0  0  0
  145.7550   73.6230  220.0960 C   0  0  0  0  0  0  0  0  0  0  0  0
  144.8570   74.1380  219.2140 N   0  0  0  0  0  0  0  0  0  0  0  0
  139.6080   70.9070  223.6190 C   0  0  0  0  0  0  0  0  0  0  0  0
  139.3670   69.5630  223.8320 C   0  0  0  0  0  0  0  0  0  0  0  0
  139.6340   68.9440  225.0480 C   0  0  0  0  0  0  0  0  0  0  0  0
  140.1570   69.6900  226.0850 C   0  0  0  0  0  0  0  0  0  0  0  0
  140.4520   69.1560  227.3240 C   0  0  0  0  0  0  0  0  0  0  0  0
  140.9790   69.9650  228.3290 C   0  0  0  0  0  0  0  0  0  0  0  0
  141.1990   71.3040  228.0590 C   0  0  0  0  0  0  0  0  0  0  0  0
  140.9130   71.8510  226.8370 C   0  0  0  0  0  0  0  0  0  0  0  0
  140.3920   71.0400  225.8510 C   0  0  0  0  0  0  0  0  0  0  0  0
  140.1180   71.5990  224.6570 N   0  0  0  0  0  0  0  0  0  0  0  0
  139.6030   73.5000  223.1190 H   0  0  0  0  0  0  0  0  0  0  0  0
  138.1217   73.3466  220.6276 H   0  0  0  0  0  0  0  0  0  0  0  0
  139.0830   74.7473  221.2794 H   0  0  0  0  0  0  0  0  0  0  0  0
  140.3681   75.4516  221.5058 H   0  0  0  0  0  0  0  0  0  0  0  0
  142.1127   74.9783  221.7557 H   0  0  0  0  0  0  0  0  0  0  0  0
  140.9326   77.1991  220.1358 H   0  0  0  0  0  0  0  0  0  0  0  0
  142.2910   77.1732  221.3749 H   0  0  0  0  0  0  0  0  0  0  0  0
  142.8972   77.6008  218.9701 H   0  0  0  0  0  0  0  0  0  0  0  0
  143.7845   76.3086  219.9112 H   0  0  0  0  0  0  0  0  0  0  0  0
  141.6294   75.9015  217.8305 H   0  0  0  0  0  0  0  0  0  0  0  0
  143.3823   75.5330  217.6829 H   0  0  0  0  0  0  0  0  0  0  0  0
  141.9894   73.5013  218.2721 H   0  0  0  0  0  0  0  0  0  0  0  0
  145.4706   72.5047  221.9980 H   0  0  0  0  0  0  0  0  0  0  0  0
  146.8501   73.6777  220.0082 H   0  0  0  0  0  0  0  0  0  0  0  0
  145.1070   74.6590  218.3270 H   0  0  0  0  0  0  0  0  0  0  0  0
  138.9494   68.9620  223.0108 H   0  0  0  0  0  0  0  0  0  0  0  0
  139.4307   67.8713  225.1822 H   0  0  0  0  0  0  0  0  0  0  0  0
  140.2704   68.0886  227.5183 H   0  0  0  0  0  0  0  0  0  0  0  0
  141.2157   69.5467  229.3185 H   0  0  0  0  0  0  0  0  0  0  0  0
  141.6154   71.9471  228.8483 H   0  0  0  0  0  0  0  0  0  0  0  0
  141.0956   72.9186  226.6451 H   0  0  0  0  0  0  0  0  0  0  0  0
  1  2  2  0
  2  3  1  0
  3  4  1  0
  4  5  1  0
  5  6  2  0
  5  7  1  0
  7  8  1  0
  8  9  1  0
  9 10  1  0
 10 11  1  0
 11 12  1  0
 12 13  1  0
 13 14  2  0
 14 15  1  0
 15 16  2  0
 16 17  1  0
  2 18  1  0
 18 19  2  0
 19 20  1  0
 20 21  2  0
 21 22  1  0
 22 23  2  0
 23 24  1  0
 24 25  2  0
 25 26  1  0
 26 27  2  0
 12  7  1  0
 17 13  1  0
 27 18  1  0
 26 21  1  0
  3 28  1  0
  4 29  1  0
  4 30  1  0
  8 31  1  0
  8 32  1  0
  9 33  1  0
  9 34  1  0
 10 35  1  0
 10 36  1  0
 11 37  1  0
 11 38  1  0
 12 39  1  6
 15 40  1  0
 16 41  1  0
 17 42  1  0
 19 43  1  0
 20 44  1  0
 22 45  1  0
 23 46  1  0
 24 47  1  0
 25 48  1  0
M  END
>  <smiles>  (38) 
O=C(NCC(=O)N1CCCC[C@H]1c1ncc[nH]1)c1ccc2ccccc2n1

>  <score_type>  (38) 
oracle

>  <origin>  (38) 
autodockgpu

>  <m_score__min__energy>  (38) 
-8.5099999999999998

>  <m_primary>  (38) 
energy

>  <rmsd>  (38) 
3.47912344077821

>  <m_score__min__rmsd>  (38) 
3.47912344077821

>  <meeko>  (38) 
{"free_energy": -7.5, "intermolecular_energy": -8.99, "internal_energy": -1.71, "cluster_size": 13, "cluster_id": 2, "rank_in_cluster": 10}

>  <energy>  (38) 
-7.51

>  <cluster_rmsd>  (38) 
0.76

>  <cluster>  (38) 
2

$$$$

     RDKit          3D

 48 51  0  0  0  0  0  0  0  0999 V2000
  141.1200   73.2100  222.0920 O   0  0  0  0  0  0  0  0  0  0  0  0
  140.0610   72.8570  222.6530 C   0  0  0  0  0  0  0  0  0  0  0  0
  138.8480   73.5330  222.3460 N   0  0  0  0  0  0  0  0  0  0  0  0
  138.7660   74.6280  221.4000 C   0  0  0  0  0  0  0  0  0  0  0  0
  138.9660   75.9410  222.0370 C   0  0  0  0  0  0  0  0  0  0  0  0
  138.1750   76.4610  222.8650 O   0  0  0  0  0  0  0  0  0  0  0  0
  140.1350   76.6740  221.6910 N   0  0  0  0  0  0  0  0  0  0  0  0
  140.9780   77.1710  222.7410 C   0  0  0  0  0  0  0  0  0  0  0  0
  141.4570   78.5760  222.5040 C   0  0  0  0  0  0  0  0  0  0  0  0
  141.7740   78.9020  221.0830 C   0  0  0  0  0  0  0  0  0  0  0  0
  140.7440   78.4140  220.1100 C   0  0  0  0  0  0  0  0  0  0  0  0
  140.5110   76.9400  220.3160 C   0  0  1  0  0  0  0  0  0  0  0  0
  141.8170   76.2690  219.9910 C   0  0  0  0  0  0  0  0  0  0  0  0
  142.5370   76.4340  218.8570 N   0  0  0  0  0  0  0  0  0  0  0  0
  143.6550   75.6910  218.8800 C   0  0  0  0  0  0  0  0  0  0  0  0
  143.6350   75.0270  220.0900 C   0  0  0  0  0  0  0  0  0  0  0  0
  142.5060   75.3920  220.7540 N   0  0  0  0  0  0  0  0  0  0  0  0
  140.0090   71.7740  223.6220 C   0  0  0  0  0  0  0  0  0  0  0  0
  139.4170   70.5670  223.3030 C   0  0  0  0  0  0  0  0  0  0  0  0
  139.3500   69.5110  224.2050 C   0  0  0  0  0  0  0  0  0  0  0  0
  139.8890   69.6650  225.4660 C   0  0  0  0  0  0  0  0  0  0  0  0
  139.8660   68.6690  226.4220 C   0  0  0  0  0  0  0  0  0  0  0  0
  140.4300   68.8900  227.6790 C   0  0  0  0  0  0  0  0  0  0  0  0
  141.0080   70.1190  227.9420 C   0  0  0  0  0  0  0  0  0  0  0  0
  141.0400   71.1170  227.0070 C   0  0  0  0  0  0  0  0  0  0  0  0
  140.4800   70.8860  225.7680 C   0  0  0  0  0  0  0  0  0  0  0  0
  140.5230   71.8830  224.8630 N   0  0  0  0  0  0  0  0  0  0  0  0
  137.9540   73.2290  222.8270 H   0  0  0  0  0  0  0  0  0  0  0  0
  139.5395   74.4879  220.6306 H   0  0  0  0  0  0  0  0  0  0  0  0
  137.7557   74.6184  220.9649 H   0  0  0  0  0  0  0  0  0  0  0  0
  140.4112   77.1496  223.6835 H   0  0  0  0  0  0  0  0  0  0  0  0
  141.8677   76.5252  222.7778 H   0  0  0  0  0  0  0  0  0  0  0  0
  140.6719   79.2665  222.8457 H   0  0  0  0  0  0  0  0  0  0  0  0
  142.4002   78.6777  223.0609 H   0  0  0  0  0  0  0  0  0  0  0  0
  141.8530   79.9949  220.9865 H   0  0  0  0  0  0  0  0  0  0  0  0
  142.7165   78.3905  220.8378 H   0  0  0  0  0  0  0  0  0  0  0  0
  139.8021   78.9592  220.2701 H   0  0  0  0  0  0  0  0  0  0  0  0
  141.1005   78.5871  219.0839 H   0  0  0  0  0  0  0  0  0  0  0  0
  139.6948   76.5672  219.6798 H   0  0  0  0  0  0  0  0  0  0  0  0
  144.4258   75.6251  218.0980 H   0  0  0  0  0  0  0  0  0  0  0  0
  144.3995   74.3247  220.4538 H   0  0  0  0  0  0  0  0  0  0  0  0
  142.2240   75.0410  221.7120 H   0  0  0  0  0  0  0  0  0  0  0  0
  138.9836   70.4370  222.3004 H   0  0  0  0  0  0  0  0  0  0  0  0
  138.8725   68.5630  223.9165 H   0  0  0  0  0  0  0  0  0  0  0  0
  139.4018   67.6986  226.1920 H   0  0  0  0  0  0  0  0  0  0  0  0
  140.4153   68.1019  228.4463 H   0  0  0  0  0  0  0  0  0  0  0  0
  141.4545   70.2988  228.9311 H   0  0  0  0  0  0  0  0  0  0  0  0
  141.5043   72.0868  227.2393 H   0  0  0  0  0  0  0  0  0  0  0  0
  1  2  2  0
  2  3  1  0
  3  4  1  0
  4  5  1  0
  5  6  2  0
  5  7  1  0
  7  8  1  0
  8  9  1  0
  9 10  1  0
 10 11  1  0
 11 12  1  0
 12 13  1  0
 13 14  2  0
 14 15  1  0
 15 16  2  0
 16 17  1  0
  2 18  1  0
 18 19  2  0
 19 20  1  0
 20 21  2  0
 21 22  1  0
 22 23  2  0
 23 24  1  0
 24 25  2  0
 25 26  1  0
 26 27  2  0
 12  7  1  0
 17 13  1  0
 27 18  1  0
 26 21  1  0
  3 28  1  0
  4 29  1  0
  4 30  1  0
  8 31  1  0
  8 32  1  0
  9 33  1  0
  9 34  1  0
 10 35  1  0
 10 36  1  0
 11 37  1  0
 11 38  1  0
 12 39  1  6
 15 40  1  0
 16 41  1  0
 17 42  1  0
 19 43  1  0
 20 44  1  0
 22 45  1  0
 23 46  1  0
 24 47  1  0
 25 48  1  0
M  END
>  <smiles>  (39) 
O=C(NCC(=O)N1CCCC[C@H]1c1ncc[nH]1)c1ccc2ccccc2n1

>  <score_type>  (39) 
oracle

>  <origin>  (39) 
autodockgpu

>  <m_score__min__energy>  (39) 
-8.5099999999999998

>  <m_primary>  (39) 
energy

>  <rmsd>  (39) 
3.318506438862044

>  <m_score__min__rmsd>  (39) 
3.318506438862044

>  <meeko>  (39) 
{"free_energy": -7.64, "intermolecular_energy": -9.14, "internal_energy": -2.24, "cluster_size": 3, "cluster_id": 3, "rank_in_cluster": 1}

>  <energy>  (39) 
-7.5

>  <cluster_rmsd>  (39) 
1.21

>  <cluster>  (39) 
2

$$$$

     RDKit          3D

 48 51  0  0  0  0  0  0  0  0999 V2000
  140.6850   71.4160  221.2290 O   0  0  0  0  0  0  0  0  0  0  0  0
  140.2570   71.9630  222.2670 C   0  0  0  0  0  0  0  0  0  0  0  0
  139.8390   73.3220  222.2190 N   0  0  0  0  0  0  0  0  0  0  0  0
  139.8800   74.1250  221.0130 C   0  0  0  0  0  0  0  0  0  0  0  0
  140.7720   75.2900  221.1390 C   0  0  0  0  0  0  0  0  0  0  0  0
  142.0180   75.2580  220.9660 O   0  0  0  0  0  0  0  0  0  0  0  0
  140.1860   76.5400  221.4810 N   0  0  0  0  0  0  0  0  0  0  0  0
  139.0990   76.5630  222.4180 C   0  0  0  0  0  0  0  0  0  0  0  0
  137.9850   77.4890  222.0130 C   0  0  0  0  0  0  0  0  0  0  0  0
  138.4250   78.7540  221.3570 C   0  0  0  0  0  0  0  0  0  0  0  0
  139.4890   78.5570  220.3200 C   0  0  0  0  0  0  0  0  0  0  0  0
  140.6430   77.7960  220.9180 C   0  0  1  0  0  0  0  0  0  0  0  0
  141.2020   78.6810  221.9980 C   0  0  0  0  0  0  0  0  0  0  0  0
  141.2110   80.0340  221.9950 N   0  0  0  0  0  0  0  0  0  0  0  0
  141.7840   80.5190  223.1090 C   0  0  0  0  0  0  0  0  0  0  0  0
  142.1510   79.4130  223.8480 C   0  0  0  0  0  0  0  0  0  0  0  0
  141.7880   78.3010  223.1550 N   0  0  0  0  0  0  0  0  0  0  0  0
  140.1670   71.2690  223.5410 C   0  0  0  0  0  0  0  0  0  0  0  0
  139.6010   70.0110  223.6230 C   0  0  0  0  0  0  0  0  0  0  0  0
  139.4980   69.3190  224.8250 C   0  0  0  0  0  0  0  0  0  0  0  0
  139.9730   69.9020  225.9820 C   0  0  0  0  0  0  0  0  0  0  0  0
  139.9120   69.2860  227.2170 C   0  0  0  0  0  0  0  0  0  0  0  0
  140.4110   69.9310  228.3480 C   0  0  0  0  0  0  0  0  0  0  0  0
  140.9650   71.1910  228.2060 C   0  0  0  0  0  0  0  0  0  0  0  0
  141.0350   71.8160  226.9900 C   0  0  0  0  0  0  0  0  0  0  0  0
  140.5380   71.1680  225.8790 C   0  0  0  0  0  0  0  0  0  0  0  0
  140.6180   71.8020  224.6930 N   0  0  0  0  0  0  0  0  0  0  0  0
  139.4780   73.7800  223.1040 H   0  0  0  0  0  0  0  0  0  0  0  0
  140.2360   73.4967  220.1832 H   0  0  0  0  0  0  0  0  0  0  0  0
  138.8632   74.5020  220.8288 H   0  0  0  0  0  0  0  0  0  0  0  0
  138.6922   75.5448  222.5061 H   0  0  0  0  0  0  0  0  0  0  0  0
  139.4996   76.9330  223.3733 H   0  0  0  0  0  0  0  0  0  0  0  0
  137.3312   76.9501  221.3115 H   0  0  0  0  0  0  0  0  0  0  0  0
  137.4774   77.7850  222.9429 H   0  0  0  0  0  0  0  0  0  0  0  0
  137.5515   79.2170  220.8746 H   0  0  0  0  0  0  0  0  0  0  0  0
  138.8568   79.3904  222.1435 H   0  0  0  0  0  0  0  0  0  0  0  0
  139.0749   77.9887  219.4741 H   0  0  0  0  0  0  0  0  0  0  0  0
  139.8416   79.5376  219.9677 H   0  0  0  0  0  0  0  0  0  0  0  0
  141.4018   77.5526  220.1597 H   0  0  0  0  0  0  0  0  0  0  0  0
  141.9300   81.5761  223.3761 H   0  0  0  0  0  0  0  0  0  0  0  0
  142.6506   79.4283  224.8279 H   0  0  0  0  0  0  0  0  0  0  0  0
  141.9440   77.3050  223.4800 H   0  0  0  0  0  0  0  0  0  0  0  0
  139.2185   69.5404  222.7053 H   0  0  0  0  0  0  0  0  0  0  0  0
  139.0429   68.3180  224.8531 H   0  0  0  0  0  0  0  0  0  0  0  0
  139.4684   68.2836  227.3084 H   0  0  0  0  0  0  0  0  0  0  0  0
  140.3651   69.4472  229.3348 H   0  0  0  0  0  0  0  0  0  0  0  0
  141.3601   71.7047  229.0948 H   0  0  0  0  0  0  0  0  0  0  0  0
  141.4801   72.8180  226.9008 H   0  0  0  0  0  0  0  0  0  0  0  0
  1  2  2  0
  2  3  1  0
  3  4  1  0
  4  5  1  0
  5  6  2  0
  5  7  1  0
  7  8  1  0
  8  9  1  0
  9 10  1  0
 10 11  1  0
 11 12  1  0
 12 13  1  0
 13 14  2  0
 14 15  1  0
 15 16  2  0
 16 17  1  0
  2 18  1  0
 18 19  2  0
 19 20  1  0
 20 21  2  0
 21 22  1  0
 22 23  2  0
 23 24  1  0
 24 25  2  0
 25 26  1  0
 26 27  2  0
 12  7  1  0
 17 13  1  0
 27 18  1  0
 26 21  1  0
  3 28  1  0
  4 29  1  0
  4 30  1  0
  8 31  1  0
  8 32  1  0
  9 33  1  0
  9 34  1  0
 10 35  1  0
 10 36  1  0
 11 37  1  0
 11 38  1  0
 12 39  1  6
 15 40  1  0
 16 41  1  0
 17 42  1  0
 19 43  1  0
 20 44  1  0
 22 45  1  0
 23 46  1  0
 24 47  1  0
 25 48  1  0
M  END
>  <smiles>  (40) 
O=C(NCC(=O)N1CCCC[C@H]1c1ncc[nH]1)c1ccc2ccccc2n1

>  <score_type>  (40) 
oracle

>  <origin>  (40) 
autodockgpu

>  <m_score__min__energy>  (40) 
-8.5099999999999998

>  <m_primary>  (40) 
energy

>  <rmsd>  (40) 
2.436082274782884

>  <m_score__min__rmsd>  (40) 
2.436082274782884

>  <meeko>  (40) 
{"free_energy": -8.02, "intermolecular_energy": -9.51, "internal_energy": -1.47, "cluster_size": 29, "cluster_id": 1, "rank_in_cluster": 25}

>  <energy>  (40) 
-7.42

>  <cluster_rmsd>  (40) 
1.89

>  <cluster>  (40) 
2

$$$$

     RDKit          3D

 48 51  0  0  0  0  0  0  0  0999 V2000
  141.4310   72.4730  221.5470 O   0  0  0  0  0  0  0  0  0  0  0  0
  140.5420   72.6510  222.4060 C   0  0  0  0  0  0  0  0  0  0  0  0
  139.7430   73.8270  222.3520 N   0  0  0  0  0  0  0  0  0  0  0  0
  139.9040   74.8510  221.3380 C   0  0  0  0  0  0  0  0  0  0  0  0
  139.2620   76.1230  221.7130 C   0  0  0  0  0  0  0  0  0  0  0  0
  138.2090   76.2180  222.3950 O   0  0  0  0  0  0  0  0  0  0  0  0
  139.8750   77.3290  221.2730 N   0  0  0  0  0  0  0  0  0  0  0  0
  139.0560   78.3450  220.6760 C   0  0  0  0  0  0  0  0  0  0  0  0
  139.6800   78.9710  219.4600 C   0  0  0  0  0  0  0  0  0  0  0  0
  141.1570   79.1600  219.5360 C   0  0  0  0  0  0  0  0  0  0  0  0
  141.8890   77.9700  220.0770 C   0  0  0  0  0  0  0  0  0  0  0  0
  141.2980   77.5740  221.4050 C   0  0  1  0  0  0  0  0  0  0  0  0
  141.5470   78.7350  222.3270 C   0  0  0  0  0  0  0  0  0  0  0  0
  140.6350   79.3160  223.1400 N   0  0  0  0  0  0  0  0  0  0  0  0
  141.1790   80.3290  223.8350 C   0  0  0  0  0  0  0  0  0  0  0  0
  142.4990   80.3850  223.4360 C   0  0  0  0  0  0  0  0  0  0  0  0
  142.7050   79.4050  222.5170 N   0  0  0  0  0  0  0  0  0  0  0  0
  140.2800   71.7010  223.4750 C   0  0  0  0  0  0  0  0  0  0  0  0
  139.5830   70.5340  223.2300 C   0  0  0  0  0  0  0  0  0  0  0  0
  139.3150   69.6040  224.2290 C   0  0  0  0  0  0  0  0  0  0  0  0
  139.7570   69.8480  225.5140 C   0  0  0  0  0  0  0  0  0  0  0  0
  139.5350   68.9800  226.5650 C   0  0  0  0  0  0  0  0  0  0  0  0
  140.0090   69.2870  227.8400 C   0  0  0  0  0  0  0  0  0  0  0  0
  140.7000   70.4710  228.0260 C   0  0  0  0  0  0  0  0  0  0  0  0
  140.9290   71.3430  226.9970 C   0  0  0  0  0  0  0  0  0  0  0  0
  140.4560   71.0280  225.7400 C   0  0  0  0  0  0  0  0  0  0  0  0
  140.6930   71.9010  224.7420 N   0  0  0  0  0  0  0  0  0  0  0  0
  138.9910   73.9720  223.0840 H   0  0  0  0  0  0  0  0  0  0  0  0
  140.9785   75.0299  221.1850 H   0  0  0  0  0  0  0  0  0  0  0  0
  139.4189   74.4902  220.4190 H   0  0  0  0  0  0  0  0  0  0  0  0
  138.0967   77.8933  220.3832 H   0  0  0  0  0  0  0  0  0  0  0  0
  138.9270   79.1415  221.4236 H   0  0  0  0  0  0  0  0  0  0  0  0
  139.4625   78.3271  218.5951 H   0  0  0  0  0  0  0  0  0  0  0  0
  139.2453   79.9779  219.3754 H   0  0  0  0  0  0  0  0  0  0  0  0
  141.5331   79.3683  218.5235 H   0  0  0  0  0  0  0  0  0  0  0  0
  141.3393   79.9930  220.2309 H   0  0  0  0  0  0  0  0  0  0  0  0
  141.7972   77.1316  219.3708 H   0  0  0  0  0  0  0  0  0  0  0  0
  142.9509   78.2241  220.2109 H   0  0  0  0  0  0  0  0  0  0  0  0
  141.7508   76.6480  221.7890 H   0  0  0  0  0  0  0  0  0  0  0  0
  140.6775   80.9777  224.5683 H   0  0  0  0  0  0  0  0  0  0  0  0
  143.2533   81.0988  223.7987 H   0  0  0  0  0  0  0  0  0  0  0  0
  143.6280   79.2080  222.0340 H   0  0  0  0  0  0  0  0  0  0  0  0
  139.2272   70.3330  222.2087 H   0  0  0  0  0  0  0  0  0  0  0  0
  138.7572   68.6845  223.9978 H   0  0  0  0  0  0  0  0  0  0  0  0
  138.9827   68.0438  226.3959 H   0  0  0  0  0  0  0  0  0  0  0  0
  139.8367   68.6006  228.6821 H   0  0  0  0  0  0  0  0  0  0  0  0
  141.0760   70.7183  229.0297 H   0  0  0  0  0  0  0  0  0  0  0  0
  141.4807   72.2790  227.1690 H   0  0  0  0  0  0  0  0  0  0  0  0
  1  2  2  0
  2  3  1  0
  3  4  1  0
  4  5  1  0
  5  6  2  0
  5  7  1  0
  7  8  1  0
  8  9  1  0
  9 10  1  0
 10 11  1  0
 11 12  1  0
 12 13  1  0
 13 14  2  0
 14 15  1  0
 15 16  2  0
 16 17  1  0
  2 18  1  0
 18 19  2  0
 19 20  1  0
 20 21  2  0
 21 22  1  0
 22 23  2  0
 23 24  1  0
 24 25  2  0
 25 26  1  0
 26 27  2  0
 12  7  1  0
 17 13  1  0
 27 18  1  0
 26 21  1  0
  3 28  1  0
  4 29  1  0
  4 30  1  0
  8 31  1  0
  8 32  1  0
  9 33  1  0
  9 34  1  0
 10 35  1  0
 10 36  1  0
 11 37  1  0
 11 38  1  0
 12 39  1  1
 15 40  1  0
 16 41  1  0
 17 42  1  0
 19 43  1  0
 20 44  1  0
 22 45  1  0
 23 46  1  0
 24 47  1  0
 25 48  1  0
M  END
>  <smiles>  (41) 
O=C(NCC(=O)N1CCCC[C@H]1c1ncc[nH]1)c1ccc2ccccc2n1

>  <score_type>  (41) 
oracle

>  <origin>  (41) 
autodockgpu

>  <m_score__min__energy>  (41) 
-8.5099999999999998

>  <m_primary>  (41) 
energy

>  <rmsd>  (41) 
2.3234951811405167

>  <m_score__min__rmsd>  (41) 
2.3234951811405167

>  <meeko>  (41) 
{"free_energy": -8.35, "intermolecular_energy": -9.84, "internal_energy": -1.55, "cluster_size": 29, "cluster_id": 1, "rank_in_cluster": 12}

>  <energy>  (41) 
-7.32

>  <cluster_rmsd>  (41) 
1.62

>  <cluster>  (41) 
2

$$$$

     RDKit          3D

 48 51  0  0  0  0  0  0  0  0999 V2000
  139.9810   71.6440  221.0920 O   0  0  0  0  0  0  0  0  0  0  0  0
  139.8570   72.1550  222.2250 C   0  0  0  0  0  0  0  0  0  0  0  0
  139.6390   73.5560  222.3400 N   0  0  0  0  0  0  0  0  0  0  0  0
  139.5500   74.4430  221.1970 C   0  0  0  0  0  0  0  0  0  0  0  0
  140.7850   75.2170  220.9840 C   0  0  0  0  0  0  0  0  0  0  0  0
  141.9410   74.7210  220.9490 O   0  0  0  0  0  0  0  0  0  0  0  0
  140.6640   76.6230  220.8060 N   0  0  0  0  0  0  0  0  0  0  0  0
  139.3590   77.1880  220.6150 C   0  0  0  0  0  0  0  0  0  0  0  0
  139.3180   78.2370  219.5390 C   0  0  0  0  0  0  0  0  0  0  0  0
  140.5220   79.1140  219.4670 C   0  0  0  0  0  0  0  0  0  0  0  0
  141.8180   78.3660  219.5680 C   0  0  0  0  0  0  0  0  0  0  0  0
  141.8110   77.5110  220.8080 C   0  0  1  0  0  0  0  0  0  0  0  0
  141.7310   78.4670  221.9660 C   0  0  0  0  0  0  0  0  0  0  0  0
  140.7970   78.4560  222.9440 N   0  0  0  0  0  0  0  0  0  0  0  0
  141.0080   79.4450  223.8290 C   0  0  0  0  0  0  0  0  0  0  0  0
  142.1330   80.1080  223.3810 C   0  0  0  0  0  0  0  0  0  0  0  0
  142.5600   79.4970  222.2440 N   0  0  0  0  0  0  0  0  0  0  0  0
  139.9270   71.3760  223.4510 C   0  0  0  0  0  0  0  0  0  0  0  0
  139.5150   70.0570  223.4770 C   0  0  0  0  0  0  0  0  0  0  0  0
  139.5680   69.2840  224.6310 C   0  0  0  0  0  0  0  0  0  0  0  0
  140.0470   69.8450  225.7980 C   0  0  0  0  0  0  0  0  0  0  0  0
  140.1340   69.1500  226.9880 C   0  0  0  0  0  0  0  0  0  0  0  0
  140.6280   69.7770  228.1320 C   0  0  0  0  0  0  0  0  0  0  0  0
  141.0250   71.1000  228.0470 C   0  0  0  0  0  0  0  0  0  0  0  0
  140.9460   71.8040  226.8760 C   0  0  0  0  0  0  0  0  0  0  0  0
  140.4560   71.1730  225.7520 C   0  0  0  0  0  0  0  0  0  0  0  0
  140.3870   71.8850  224.6110 N   0  0  0  0  0  0  0  0  0  0  0  0
  139.5360   73.9830  223.3050 H   0  0  0  0  0  0  0  0  0  0  0  0
  139.3521   73.8407  220.2981 H   0  0  0  0  0  0  0  0  0  0  0  0
  138.7376   75.1584  221.3926 H   0  0  0  0  0  0  0  0  0  0  0  0
  138.6650   76.3796  220.3414 H   0  0  0  0  0  0  0  0  0  0  0  0
  139.0739   77.6768  221.5583 H   0  0  0  0  0  0  0  0  0  0  0  0
  139.2084   77.7278  218.5701 H   0  0  0  0  0  0  0  0  0  0  0  0
  138.4721   78.8960  219.7845 H   0  0  0  0  0  0  0  0  0  0  0  0
  140.5043   79.6505  218.5068 H   0  0  0  0  0  0  0  0  0  0  0  0
  140.4757   79.7959  220.3289 H   0  0  0  0  0  0  0  0  0  0  0  0
  141.9414   77.7256  218.6822 H   0  0  0  0  0  0  0  0  0  0  0  0
  142.6508   79.0826  219.6223 H   0  0  0  0  0  0  0  0  0  0  0  0
  142.7090   76.8784  220.8664 H   0  0  0  0  0  0  0  0  0  0  0  0
  140.4100   79.6774  224.7225 H   0  0  0  0  0  0  0  0  0  0  0  0
  142.6025   80.9795  223.8607 H   0  0  0  0  0  0  0  0  0  0  0  0
  143.4060   79.7900  221.6780 H   0  0  0  0  0  0  0  0  0  0  0  0
  139.1315   69.6028  222.5515 H   0  0  0  0  0  0  0  0  0  0  0  0
  139.2320   68.2367  224.6146 H   0  0  0  0  0  0  0  0  0  0  0  0
  139.8128   68.0989  227.0340 H   0  0  0  0  0  0  0  0  0  0  0  0
  140.7006   69.2302  229.0837 H   0  0  0  0  0  0  0  0  0  0  0  0
  141.4150   71.5998  228.9459 H   0  0  0  0  0  0  0  0  0  0  0  0
  141.2678   72.8550  226.8322 H   0  0  0  0  0  0  0  0  0  0  0  0
  1  2  2  0
  2  3  1  0
  3  4  1  0
  4  5  1  0
  5  6  2  0
  5  7  1  0
  7  8  1  0
  8  9  1  0
  9 10  1  0
 10 11  1  0
 11 12  1  0
 12 13  1  0
 13 14  2  0
 14 15  1  0
 15 16  2  0
 16 17  1  0
  2 18  1  0
 18 19  2  0
 19 20  1  0
 20 21  2  0
 21 22  1  0
 22 23  2  0
 23 24  1  0
 24 25  2  0
 25 26  1  0
 26 27  2  0
 12  7  1  0
 17 13  1  0
 27 18  1  0
 26 21  1  0
  3 28  1  0
  4 29  1  0
  4 30  1  0
  8 31  1  0
  8 32  1  0
  9 33  1  0
  9 34  1  0
 10 35  1  0
 10 36  1  0
 11 37  1  0
 11 38  1  0
 12 39  1  1
 15 40  1  0
 16 41  1  0
 17 42  1  0
 19 43  1  0
 20 44  1  0
 22 45  1  0
 23 46  1  0
 24 47  1  0
 25 48  1  0
M  END
>  <smiles>  (42) 
O=C(NCC(=O)N1CCCC[C@H]1c1ncc[nH]1)c1ccc2ccccc2n1

>  <score_type>  (42) 
oracle

>  <origin>  (42) 
autodockgpu

>  <m_score__min__energy>  (42) 
-8.5099999999999998

>  <m_primary>  (42) 
energy

>  <rmsd>  (42) 
1.9184268495686445

>  <m_score__min__rmsd>  (42) 
1.9184268495686445

>  <meeko>  (42) 
{"free_energy": -8.08, "intermolecular_energy": -9.57, "internal_energy": -1.47, "cluster_size": 29, "cluster_id": 1, "rank_in_cluster": 23}

>  <energy>  (42) 
-7.0

>  <cluster_rmsd>  (42) 
0.99

>  <cluster>  (42) 
2

$$$$

     RDKit          3D

 48 51  0  0  0  0  0  0  0  0999 V2000
  141.3070   72.2260  221.7050 O   0  0  0  0  0  0  0  0  0  0  0  0
  140.3830   72.3770  222.5310 C   0  0  0  0  0  0  0  0  0  0  0  0
  139.4270   73.4110  222.3310 N   0  0  0  0  0  0  0  0  0  0  0  0
  139.4630   74.3190  221.2010 C   0  0  0  0  0  0  0  0  0  0  0  0
  140.4150   75.4260  221.3960 C   0  0  0  0  0  0  0  0  0  0  0  0
  140.2980   76.3230  222.2690 O   0  0  0  0  0  0  0  0  0  0  0  0
  141.5470   75.4850  220.5370 N   0  0  0  0  0  0  0  0  0  0  0  0
  142.1990   76.7480  220.3330 C   0  0  0  0  0  0  0  0  0  0  0  0
  142.5730   76.9980  218.8990 C   0  0  0  0  0  0  0  0  0  0  0  0
  143.0400   75.7950  218.1510 C   0  0  0  0  0  0  0  0  0  0  0  0
  142.1930   74.5790  218.3770 C   0  0  0  0  0  0  0  0  0  0  0  0
  142.0720   74.3170  219.8560 C   0  0  1  0  0  0  0  0  0  0  0  0
  143.4640   74.0130  220.3340 C   0  0  0  0  0  0  0  0  0  0  0  0
  144.5140   74.8660  220.3250 N   0  0  0  0  0  0  0  0  0  0  0  0
  145.6180   74.2840  220.8210 C   0  0  0  0  0  0  0  0  0  0  0  0
  145.2400   73.0000  221.1590 C   0  0  0  0  0  0  0  0  0  0  0  0
  143.9230   72.8530  220.8550 N   0  0  0  0  0  0  0  0  0  0  0  0
  140.2350   71.5330  223.7070 C   0  0  0  0  0  0  0  0  0  0  0  0
  139.6120   70.3030  223.6210 C   0  0  0  0  0  0  0  0  0  0  0  0
  139.4530   69.4720  224.7250 C   0  0  0  0  0  0  0  0  0  0  0  0
  139.9310   69.8830  225.9530 C   0  0  0  0  0  0  0  0  0  0  0  0
  139.8160   69.1220  227.1000 C   0  0  0  0  0  0  0  0  0  0  0  0
  140.3200   69.5960  228.3100 C   0  0  0  0  0  0  0  0  0  0  0  0
  140.9340   70.8360  228.3350 C   0  0  0  0  0  0  0  0  0  0  0  0
  141.0570   71.6040  227.2090 C   0  0  0  0  0  0  0  0  0  0  0  0
  140.5540   71.1240  226.0180 C   0  0  0  0  0  0  0  0  0  0  0  0
  140.6860   71.8970  224.9230 N   0  0  0  0  0  0  0  0  0  0  0  0
  138.6460   73.5330  223.0360 H   0  0  0  0  0  0  0  0  0  0  0  0
  139.7577   73.7543  220.3042 H   0  0  0  0  0  0  0  0  0  0  0  0
  138.4597   74.7567  221.0923 H   0  0  0  0  0  0  0  0  0  0  0  0
  141.5202   77.5487  220.6617 H   0  0  0  0  0  0  0  0  0  0  0  0
  143.1320   76.7313  220.9154 H   0  0  0  0  0  0  0  0  0  0  0  0
  141.6899   77.4004  218.3811 H   0  0  0  0  0  0  0  0  0  0  0  0
  143.4226   77.6963  218.9199 H   0  0  0  0  0  0  0  0  0  0  0  0
  143.0316   76.0293  217.0763 H   0  0  0  0  0  0  0  0  0  0  0  0
  144.0485   75.5578  218.5208 H   0  0  0  0  0  0  0  0  0  0  0  0
  141.1924   74.7452  217.9513 H   0  0  0  0  0  0  0  0  0  0  0  0
  142.6606   73.7113  217.8886 H   0  0  0  0  0  0  0  0  0  0  0  0
  141.3823   73.4856  220.0635 H   0  0  0  0  0  0  0  0  0  0  0  0
  146.6146   74.7357  220.9342 H   0  0  0  0  0  0  0  0  0  0  0  0
  145.8912   72.2297  221.5980 H   0  0  0  0  0  0  0  0  0  0  0  0
  143.3590   71.9690  221.0060 H   0  0  0  0  0  0  0  0  0  0  0  0
  139.2284   69.9692  222.6456 H   0  0  0  0  0  0  0  0  0  0  0  0
  138.9520   68.4983  224.6207 H   0  0  0  0  0  0  0  0  0  0  0  0
  139.3250   68.1386  227.0584 H   0  0  0  0  0  0  0  0  0  0  0  0
  140.2314   68.9959  229.2276 H   0  0  0  0  0  0  0  0  0  0  0  0
  141.3345   71.2150  229.2868 H   0  0  0  0  0  0  0  0  0  0  0  0
  141.5485   72.5871  227.2531 H   0  0  0  0  0  0  0  0  0  0  0  0
  1  2  2  0
  2  3  1  0
  3  4  1  0
  4  5  1  0
  5  6  2  0
  5  7  1  0
  7  8  1  0
  8  9  1  0
  9 10  1  0
 10 11  1  0
 11 12  1  0
 12 13  1  0
 13 14  2  0
 14 15  1  0
 15 16  2  0
 16 17  1  0
  2 18  1  0
 18 19  2  0
 19 20  1  0
 20 21  2  0
 21 22  1  0
 22 23  2  0
 23 24  1  0
 24 25  2  0
 25 26  1  0
 26 27  2  0
 12  7  1  0
 17 13  1  0
 27 18  1  0
 26 21  1  0
  3 28  1  0
  4 29  1  0
  4 30  1  0
  8 31  1  0
  8 32  1  0
  9 33  1  0
  9 34  1  0
 10 35  1  0
 10 36  1  0
 11 37  1  0
 11 38  1  0
 12 39  1  6
 15 40  1  0
 16 41  1  0
 17 42  1  0
 19 43  1  0
 20 44  1  0
 22 45  1  0
 23 46  1  0
 24 47  1  0
 25 48  1  0
M  END
>  <smiles>  (43) 
O=C(NCC(=O)N1CCCC[C@H]1c1ncc[nH]1)c1ccc2ccccc2n1

>  <score_type>  (43) 
oracle

>  <origin>  (43) 
autodockgpu

>  <m_score__min__energy>  (43) 
-8.5099999999999998

>  <m_primary>  (43) 
energy

>  <rmsd>  (43) 
3.4697759382349234

>  <m_score__min__rmsd>  (43) 
3.4697759382349234

>  <meeko>  (43) 
{"free_energy": -7.94, "intermolecular_energy": -9.43, "internal_energy": -1.99, "cluster_size": 13, "cluster_id": 2, "rank_in_cluster": 4}

>  <energy>  (43) 
-7.64

>  <cluster_rmsd>  (43) 
0.0

>  <cluster>  (43) 
3

$$$$

     RDKit          3D

 48 51  0  0  0  0  0  0  0  0999 V2000
  140.1590   71.7020  221.1100 O   0  0  0  0  0  0  0  0  0  0  0  0
  139.9730   72.1930  222.2430 C   0  0  0  0  0  0  0  0  0  0  0  0
  139.7160   73.5860  222.3680 N   0  0  0  0  0  0  0  0  0  0  0  0
  139.6550   74.4880  221.2340 C   0  0  0  0  0  0  0  0  0  0  0  0
  140.6760   75.5480  221.3010 C   0  0  0  0  0  0  0  0  0  0  0  0
  141.9160   75.3520  221.2160 O   0  0  0  0  0  0  0  0  0  0  0  0
  140.2300   76.8880  221.4720 N   0  0  0  0  0  0  0  0  0  0  0  0
  139.1450   77.1480  222.3740 C   0  0  0  0  0  0  0  0  0  0  0  0
  138.1460   78.1320  221.8330 C   0  0  0  0  0  0  0  0  0  0  0  0
  138.7300   79.2490  221.0360 C   0  0  0  0  0  0  0  0  0  0  0  0
  139.7740   78.8070  220.0550 C   0  0  0  0  0  0  0  0  0  0  0  0
  140.8310   78.0060  220.7690 C   0  0  1  0  0  0  0  0  0  0  0  0
  141.4760   78.9520  221.7430 C   0  0  0  0  0  0  0  0  0  0  0  0
  141.5470   80.2970  221.6190 N   0  0  0  0  0  0  0  0  0  0  0  0
  142.1890   80.8480  222.6630 C   0  0  0  0  0  0  0  0  0  0  0  0
  142.5370   79.7930  223.4820 C   0  0  0  0  0  0  0  0  0  0  0  0
  142.0930   78.6450  222.9060 N   0  0  0  0  0  0  0  0  0  0  0  0
  140.0080   71.3970  223.4600 C   0  0  0  0  0  0  0  0  0  0  0  0
  139.5590   70.0900  223.4640 C   0  0  0  0  0  0  0  0  0  0  0  0
  139.5780   69.3020  224.6090 C   0  0  0  0  0  0  0  0  0  0  0  0
  140.0600   69.8350  225.7880 C   0  0  0  0  0  0  0  0  0  0  0  0
  140.1150   69.1230  226.9700 C   0  0  0  0  0  0  0  0  0  0  0  0
  140.6140   69.7210  228.1270 C   0  0  0  0  0  0  0  0  0  0  0  0
  141.0490   71.0330  228.0620 C   0  0  0  0  0  0  0  0  0  0  0  0
  141.0030   71.7540  226.9000 C   0  0  0  0  0  0  0  0  0  0  0  0
  140.5070   71.1510  225.7630 C   0  0  0  0  0  0  0  0  0  0  0  0
  140.4700   71.8790  224.6300 N   0  0  0  0  0  0  0  0  0  0  0  0
  139.5590   73.9960  223.3330 H   0  0  0  0  0  0  0  0  0  0  0  0
  139.8093   73.9073  220.3126 H   0  0  0  0  0  0  0  0  0  0  0  0
  138.6679   74.9733  221.2455 H   0  0  0  0  0  0  0  0  0  0  0  0
  138.6260   76.2000  222.5785 H   0  0  0  0  0  0  0  0  0  0  0  0
  139.5765   77.5887  223.2848 H   0  0  0  0  0  0  0  0  0  0  0  0
  137.4423   77.5846  221.1887 H   0  0  0  0  0  0  0  0  0  0  0  0
  137.6668   78.5961  222.7076 H   0  0  0  0  0  0  0  0  0  0  0  0
  137.9179   79.7413  220.4809 H   0  0  0  0  0  0  0  0  0  0  0  0
  139.2235   79.9279  221.7470 H   0  0  0  0  0  0  0  0  0  0  0  0
  139.3061   78.1851  219.2777 H   0  0  0  0  0  0  0  0  0  0  0  0
  140.2365   79.6905  219.5906 H   0  0  0  0  0  0  0  0  0  0  0  0
  141.5656   77.5882  220.0648 H   0  0  0  0  0  0  0  0  0  0  0  0
  142.3941   81.9157  222.8298 H   0  0  0  0  0  0  0  0  0  0  0  0
  143.0798   79.8684  224.4358 H   0  0  0  0  0  0  0  0  0  0  0  0
  142.2170   77.6740  223.3110 H   0  0  0  0  0  0  0  0  0  0  0  0
  139.1732   69.6583  222.5287 H   0  0  0  0  0  0  0  0  0  0  0  0
  139.2129   68.2649  224.5761 H   0  0  0  0  0  0  0  0  0  0  0  0
  139.7641   68.0809  226.9991 H   0  0  0  0  0  0  0  0  0  0  0  0
  140.6608   69.1608  229.0725 H   0  0  0  0  0  0  0  0  0  0  0  0
  141.4433   71.5103  228.9712 H   0  0  0  0  0  0  0  0  0  0  0  0
  141.3552   72.7957  226.8731 H   0  0  0  0  0  0  0  0  0  0  0  0
  1  2  2  0
  2  3  1  0
  3  4  1  0
  4  5  1  0
  5  6  2  0
  5  7  1  0
  7  8  1  0
  8  9  1  0
  9 10  1  0
 10 11  1  0
 11 12  1  0
 12 13  1  0
 13 14  2  0
 14 15  1  0
 15 16  2  0
 16 17  1  0
  2 18  1  0
 18 19  2  0
 19 20  1  0
 20 21  2  0
 21 22  1  0
 22 23  2  0
 23 24  1  0
 24 25  2  0
 25 26  1  0
 26 27  2  0
 12  7  1  0
 17 13  1  0
 27 18  1  0
 26 21  1  0
  3 28  1  0
  4 29  1  0
  4 30  1  0
  8 31  1  0
  8 32  1  0
  9 33  1  0
  9 34  1  0
 10 35  1  0
 10 36  1  0
 11 37  1  0
 11 38  1  0
 12 39  1  6
 15 40  1  0
 16 41  1  0
 17 42  1  0
 19 43  1  0
 20 44  1  0
 22 45  1  0
 23 46  1  0
 24 47  1  0
 25 48  1  0
M  END
>  <smiles>  (44) 
O=C(NCC(=O)N1CCCC[C@H]1c1ncc[nH]1)c1ccc2ccccc2n1

>  <score_type>  (44) 
oracle

>  <origin>  (44) 
autodockgpu

>  <m_score__min__energy>  (44) 
-8.5099999999999998

>  <m_primary>  (44) 
energy

>  <rmsd>  (44) 
2.4372184863526036

>  <m_score__min__rmsd>  (44) 
2.4372184863526036

>  <meeko>  (44) 
{"free_energy": -7.87, "intermolecular_energy": -9.37, "internal_energy": -1.52, "cluster_size": 29, "cluster_id": 1, "rank_in_cluster": 26}

>  <energy>  (44) 
-7.62

>  <cluster_rmsd>  (44) 
0.14

>  <cluster>  (44) 
3

$$$$

     RDKit          3D

 48 51  0  0  0  0  0  0  0  0999 V2000
  141.3890   72.1620  221.7050 O   0  0  0  0  0  0  0  0  0  0  0  0
  140.4480   72.3220  222.5110 C   0  0  0  0  0  0  0  0  0  0  0  0
  139.4850   73.3410  222.2680 N   0  0  0  0  0  0  0  0  0  0  0  0
  139.5320   74.2210  221.1170 C   0  0  0  0  0  0  0  0  0  0  0  0
  140.4040   75.3880  221.3340 C   0  0  0  0  0  0  0  0  0  0  0  0
  140.1960   76.2870  222.1890 O   0  0  0  0  0  0  0  0  0  0  0  0
  141.5640   75.5090  220.5190 N   0  0  0  0  0  0  0  0  0  0  0  0
  142.2040   76.7880  220.4080 C   0  0  0  0  0  0  0  0  0  0  0  0
  142.6240   77.1230  219.0040 C   0  0  0  0  0  0  0  0  0  0  0  0
  143.1320   75.9690  218.2070 C   0  0  0  0  0  0  0  0  0  0  0  0
  142.2950   74.7330  218.3360 C   0  0  0  0  0  0  0  0  0  0  0  0
  142.1270   74.3860  219.7920 C   0  0  1  0  0  0  0  0  0  0  0  0
  143.5070   74.0720  220.3010 C   0  0  0  0  0  0  0  0  0  0  0  0
  144.5530   74.9280  220.3460 N   0  0  0  0  0  0  0  0  0  0  0  0
  145.6450   74.3350  220.8570 C   0  0  0  0  0  0  0  0  0  0  0  0
  145.2620   73.0410  221.1470 C   0  0  0  0  0  0  0  0  0  0  0  0
  143.9540   72.8990  220.8020 N   0  0  0  0  0  0  0  0  0  0  0  0
  140.2880   71.5060  223.7040 C   0  0  0  0  0  0  0  0  0  0  0  0
  139.6370   70.2890  223.6470 C   0  0  0  0  0  0  0  0  0  0  0  0
  139.4660   69.4840  224.7680 C   0  0  0  0  0  0  0  0  0  0  0  0
  139.9600   69.9080  225.9850 C   0  0  0  0  0  0  0  0  0  0  0  0
  139.8340   69.1730  227.1470 C   0  0  0  0  0  0  0  0  0  0  0  0
  140.3560   69.6600  228.3450 C   0  0  0  0  0  0  0  0  0  0  0  0
  140.9980   70.8860  228.3420 C   0  0  0  0  0  0  0  0  0  0  0  0
  141.1310   71.6280  227.2000 C   0  0  0  0  0  0  0  0  0  0  0  0
  140.6110   71.1360  226.0210 C   0  0  0  0  0  0  0  0  0  0  0  0
  140.7540   71.8840  224.9100 N   0  0  0  0  0  0  0  0  0  0  0  0
  138.6900   73.4710  222.9570 H   0  0  0  0  0  0  0  0  0  0  0  0
  139.9107   73.6533  220.2543 H   0  0  0  0  0  0  0  0  0  0  0  0
  138.5125   74.5941  220.9399 H   0  0  0  0  0  0  0  0  0  0  0  0
  141.5028   77.5607  220.7564 H   0  0  0  0  0  0  0  0  0  0  0  0
  143.1167   76.7498  221.0207 H   0  0  0  0  0  0  0  0  0  0  0  0
  141.7542   77.5443  218.4787 H   0  0  0  0  0  0  0  0  0  0  0  0
  143.4631   77.8286  219.0936 H   0  0  0  0  0  0  0  0  0  0  0  0
  143.1565   76.2628  217.1472 H   0  0  0  0  0  0  0  0  0  0  0  0
  144.1305   75.7233  218.5976 H   0  0  0  0  0  0  0  0  0  0  0  0
  141.3073   74.9112  217.8858 H   0  0  0  0  0  0  0  0  0  0  0  0
  142.7915   73.8999  217.8169 H   0  0  0  0  0  0  0  0  0  0  0  0
  141.4419   73.5362  219.9281 H   0  0  0  0  0  0  0  0  0  0  0  0
  146.6363   74.7861  221.0118 H   0  0  0  0  0  0  0  0  0  0  0  0
  145.9033   72.2601  221.5817 H   0  0  0  0  0  0  0  0  0  0  0  0
  143.3900   72.0100  220.9120 H   0  0  0  0  0  0  0  0  0  0  0  0
  139.2398   69.9445  222.6808 H   0  0  0  0  0  0  0  0  0  0  0  0
  138.9428   68.5199  224.6857 H   0  0  0  0  0  0  0  0  0  0  0  0
  139.3204   68.2005  227.1278 H   0  0  0  0  0  0  0  0  0  0  0  0
  140.2593   69.0805  229.2750 H   0  0  0  0  0  0  0  0  0  0  0  0
  141.4128   71.2747  229.2837 H   0  0  0  0  0  0  0  0  0  0  0  0
  141.6441   72.6007  227.2219 H   0  0  0  0  0  0  0  0  0  0  0  0
  1  2  2  0
  2  3  1  0
  3  4  1  0
  4  5  1  0
  5  6  2  0
  5  7  1  0
  7  8  1  0
  8  9  1  0
  9 10  1  0
 10 11  1  0
 11 12  1  0
 12 13  1  0
 13 14  2  0
 14 15  1  0
 15 16  2  0
 16 17  1  0
  2 18  1  0
 18 19  2  0
 19 20  1  0
 20 21  2  0
 21 22  1  0
 22 23  2  0
 23 24  1  0
 24 25  2  0
 25 26  1  0
 26 27  2  0
 12  7  1  0
 17 13  1  0
 27 18  1  0
 26 21  1  0
  3 28  1  0
  4 29  1  0
  4 30  1  0
  8 31  1  0
  8 32  1  0
  9 33  1  0
  9 34  1  0
 10 35  1  0
 10 36  1  0
 11 37  1  0
 11 38  1  0
 12 39  1  6
 15 40  1  0
 16 41  1  0
 17 42  1  0
 19 43  1  0
 20 44  1  0
 22 45  1  0
 23 46  1  0
 24 47  1  0
 25 48  1  0
M  END
>  <smiles>  (45) 
O=C(NCC(=O)N1CCCC[C@H]1c1ncc[nH]1)c1ccc2ccccc2n1

>  <score_type>  (45) 
oracle

>  <origin>  (45) 
autodockgpu

>  <m_score__min__energy>  (45) 
-8.5099999999999998

>  <m_primary>  (45) 
energy

>  <rmsd>  (45) 
3.469457010420789

>  <m_score__min__rmsd>  (45) 
3.469457010420789

>  <meeko>  (45) 
{"free_energy": -7.89, "intermolecular_energy": -9.38, "internal_energy": -2.0, "cluster_size": 13, "cluster_id": 2, "rank_in_cluster": 5}

>  <energy>  (45) 
-7.51

>  <cluster_rmsd>  (45) 
0.73

>  <cluster>  (45) 
3

$$$$

     RDKit          3D

 48 51  0  0  0  0  0  0  0  0999 V2000
  141.7660   72.3580  221.6680 O   0  0  0  0  0  0  0  0  0  0  0  0
  140.7620   72.5670  222.3800 C   0  0  0  0  0  0  0  0  0  0  0  0
  139.9660   73.7230  222.1460 N   0  0  0  0  0  0  0  0  0  0  0  0
  140.2580   74.6920  221.1080 C   0  0  0  0  0  0  0  0  0  0  0  0
  140.6770   74.0590  219.8460 C   0  0  0  0  0  0  0  0  0  0  0  0
  139.9910   73.2230  219.2040 O   0  0  0  0  0  0  0  0  0  0  0  0
  141.9470   74.4180  219.3140 N   0  0  0  0  0  0  0  0  0  0  0  0
  142.3460   75.7960  219.3410 C   0  0  0  0  0  0  0  0  0  0  0  0
  143.0010   76.2500  218.0660 C   0  0  0  0  0  0  0  0  0  0  0  0
  143.8800   75.2360  217.4140 C   0  0  0  0  0  0  0  0  0  0  0  0
  143.2800   73.8640  217.3610 C   0  0  0  0  0  0  0  0  0  0  0  0
  142.8570   73.4430  218.7430 C   0  0  1  0  0  0  0  0  0  0  0  0
  144.1210   73.3690  219.5550 C   0  0  0  0  0  0  0  0  0  0  0  0
  145.3650   73.1420  219.0730 N   0  0  0  0  0  0  0  0  0  0  0  0
  146.2750   73.1380  220.0600 C   0  0  0  0  0  0  0  0  0  0  0  0
  145.5650   73.3750  221.2200 C   0  0  0  0  0  0  0  0  0  0  0  0
  144.2530   73.5130  220.8920 N   0  0  0  0  0  0  0  0  0  0  0  0
  140.3600   71.6720  223.4550 C   0  0  0  0  0  0  0  0  0  0  0  0
  139.5970   70.5500  223.1940 C   0  0  0  0  0  0  0  0  0  0  0  0
  139.1970   69.6750  224.1970 C   0  0  0  0  0  0  0  0  0  0  0  0
  139.5680   69.9280  225.5020 C   0  0  0  0  0  0  0  0  0  0  0  0
  139.2140   69.1120  226.5580 C   0  0  0  0  0  0  0  0  0  0  0  0
  139.6230   69.4250  227.8540 C   0  0  0  0  0  0  0  0  0  0  0  0
  140.3850   70.5620  228.0550 C   0  0  0  0  0  0  0  0  0  0  0  0
  140.7450   71.3820  227.0210 C   0  0  0  0  0  0  0  0  0  0  0  0
  140.3350   71.0620  225.7430 C   0  0  0  0  0  0  0  0  0  0  0  0
  140.7020   71.8830  224.7410 N   0  0  0  0  0  0  0  0  0  0  0  0
  139.1150   73.8930  222.7550 H   0  0  0  0  0  0  0  0  0  0  0  0
  139.3541   75.2899  220.9195 H   0  0  0  0  0  0  0  0  0  0  0  0
  141.0912   75.3178  221.4603 H   0  0  0  0  0  0  0  0  0  0  0  0
  141.4532   76.4148  219.5146 H   0  0  0  0  0  0  0  0  0  0  0  0
  143.0882   75.9049  220.1456 H   0  0  0  0  0  0  0  0  0  0  0  0
  142.2086   76.5235  217.3537 H   0  0  0  0  0  0  0  0  0  0  0  0
  143.6530   77.0931  218.3381 H   0  0  0  0  0  0  0  0  0  0  0  0
  144.0857   75.5651  216.3847 H   0  0  0  0  0  0  0  0  0  0  0  0
  144.7938   75.1640  218.0221 H   0  0  0  0  0  0  0  0  0  0  0  0
  142.4031   73.8735  216.6969 H   0  0  0  0  0  0  0  0  0  0  0  0
  144.0266   73.1539  216.9757 H   0  0  0  0  0  0  0  0  0  0  0  0
  142.3288   72.4782  218.7266 H   0  0  0  0  0  0  0  0  0  0  0  0
  147.3593   72.9792  219.9644 H   0  0  0  0  0  0  0  0  0  0  0  0
  145.9875   73.4407  222.2335 H   0  0  0  0  0  0  0  0  0  0  0  0
  143.4710   73.7030  221.5800 H   0  0  0  0  0  0  0  0  0  0  0  0
  139.2958   70.3421  222.1567 H   0  0  0  0  0  0  0  0  0  0  0  0
  138.5910   68.7900  223.9532 H   0  0  0  0  0  0  0  0  0  0  0  0
  138.6076   68.2124  226.3765 H   0  0  0  0  0  0  0  0  0  0  0  0
  139.3449   68.7799  228.7005 H   0  0  0  0  0  0  0  0  0  0  0  0
  140.7106   70.8138  229.0751 H   0  0  0  0  0  0  0  0  0  0  0  0
  141.3511   72.2813  227.2052 H   0  0  0  0  0  0  0  0  0  0  0  0
  1  2  2  0
  2  3  1  0
  3  4  1  0
  4  5  1  0
  5  6  2  0
  5  7  1  0
  7  8  1  0
  8  9  1  0
  9 10  1  0
 10 11  1  0
 11 12  1  0
 12 13  1  0
 13 14  2  0
 14 15  1  0
 15 16  2  0
 16 17  1  0
  2 18  1  0
 18 19  2  0
 19 20  1  0
 20 21  2  0
 21 22  1  0
 22 23  2  0
 23 24  1  0
 24 25  2  0
 25 26  1  0
 26 27  2  0
 12  7  1  0
 17 13  1  0
 27 18  1  0
 26 21  1  0
  3 28  1  0
  4 29  1  0
  4 30  1  0
  8 31  1  0
  8 32  1  0
  9 33  1  0
  9 34  1  0
 10 35  1  0
 10 36  1  0
 11 37  1  0
 11 38  1  0
 12 39  1  6
 15 40  1  0
 16 41  1  0
 17 42  1  0
 19 43  1  0
 20 44  1  0
 22 45  1  0
 23 46  1  0
 24 47  1  0
 25 48  1  0
M  END
>  <smiles>  (46) 
O=C(NCC(=O)N1CCCC[C@H]1c1ncc[nH]1)c1ccc2ccccc2n1

>  <score_type>  (46) 
oracle

>  <origin>  (46) 
autodockgpu

>  <m_score__min__energy>  (46) 
-8.5099999999999998

>  <m_primary>  (46) 
energy

>  <rmsd>  (46) 
3.7918913184436454

>  <m_score__min__rmsd>  (46) 
3.7918913184436454

>  <meeko>  (46) 
{"free_energy": -7.0, "intermolecular_energy": -8.49, "internal_energy": -2.15, "cluster_size": 13, "cluster_id": 2, "rank_in_cluster": 13}

>  <energy>  (46) 
-6.89

>  <cluster_rmsd>  (46) 
0.0

>  <cluster>  (46) 
4

$$$$

     RDKit          3D

 48 51  0  0  0  0  0  0  0  0999 V2000
  141.0970   71.6780  221.3880 O   0  0  0  0  0  0  0  0  0  0  0  0
  140.4480   72.1250  222.3570 C   0  0  0  0  0  0  0  0  0  0  0  0
  139.8490   73.4120  222.2630 N   0  0  0  0  0  0  0  0  0  0  0  0
  139.9510   74.2530  221.0870 C   0  0  0  0  0  0  0  0  0  0  0  0
  141.0280   75.2510  221.1960 C   0  0  0  0  0  0  0  0  0  0  0  0
  141.0790   76.1550  222.0700 O   0  0  0  0  0  0  0  0  0  0  0  0
  142.0870   75.1900  220.2480 N   0  0  0  0  0  0  0  0  0  0  0  0
  142.7190   76.4100  219.8330 C   0  0  0  0  0  0  0  0  0  0  0  0
  142.9760   76.4720  218.3540 C   0  0  0  0  0  0  0  0  0  0  0  0
  143.3810   75.1790  217.7300 C   0  0  0  0  0  0  0  0  0  0  0  0
  142.5560   74.0100  218.1770 C   0  0  0  0  0  0  0  0  0  0  0  0
  142.5550   73.9390  219.6820 C   0  0  1  0  0  0  0  0  0  0  0  0
  143.9820   73.6850  220.0820 C   0  0  0  0  0  0  0  0  0  0  0  0
  144.7100   72.5850  219.7810 N   0  0  0  0  0  0  0  0  0  0  0  0
  145.9510   72.6700  220.2870 C   0  0  0  0  0  0  0  0  0  0  0  0
  146.0030   73.8860  220.9390 C   0  0  0  0  0  0  0  0  0  0  0  0
  144.7930   74.4910  220.8020 N   0  0  0  0  0  0  0  0  0  0  0  0
  140.2720   71.3820  223.5950 C   0  0  0  0  0  0  0  0  0  0  0  0
  139.6460   70.1500  223.5980 C   0  0  0  0  0  0  0  0  0  0  0  0
  139.4620   69.4140  224.7630 C   0  0  0  0  0  0  0  0  0  0  0  0
  139.9150   69.9240  225.9630 C   0  0  0  0  0  0  0  0  0  0  0  0
  139.7730   69.2600  227.1660 C   0  0  0  0  0  0  0  0  0  0  0  0
  140.2540   69.8320  228.3430 C   0  0  0  0  0  0  0  0  0  0  0  0
  140.8710   71.0690  228.2790 C   0  0  0  0  0  0  0  0  0  0  0  0
  141.0210   71.7410  227.0960 C   0  0  0  0  0  0  0  0  0  0  0  0
  140.5410   71.1650  225.9380 C   0  0  0  0  0  0  0  0  0  0  0  0
  140.6990   71.8440  224.7860 N   0  0  0  0  0  0  0  0  0  0  0  0
  139.3000   73.7850  223.0900 H   0  0  0  0  0  0  0  0  0  0  0  0
  140.1495   73.6145  220.2135 H   0  0  0  0  0  0  0  0  0  0  0  0
  139.0011   74.7980  220.9839 H   0  0  0  0  0  0  0  0  0  0  0  0
  142.0681   77.2524  220.1100 H   0  0  0  0  0  0  0  0  0  0  0  0
  143.6960   76.4588  220.3361 H   0  0  0  0  0  0  0  0  0  0  0  0
  142.0540   76.8147  217.8615 H   0  0  0  0  0  0  0  0  0  0  0  0
  143.8248   77.1583  218.2179 H   0  0  0  0  0  0  0  0  0  0  0  0
  143.2847   75.2749  216.6384 H   0  0  0  0  0  0  0  0  0  0  0  0
  144.4164   74.9807  218.0440 H   0  0  0  0  0  0  0  0  0  0  0  0
  141.5241   74.1303  217.8154 H   0  0  0  0  0  0  0  0  0  0  0  0
  142.9835   73.0829  217.7675 H   0  0  0  0  0  0  0  0  0  0  0  0
  141.8847   73.1475  220.0483 H   0  0  0  0  0  0  0  0  0  0  0  0
  146.7572   71.9267  220.2002 H   0  0  0  0  0  0  0  0  0  0  0  0
  146.8720   74.2943  221.4758 H   0  0  0  0  0  0  0  0  0  0  0  0
  144.5390   75.4390  221.2000 H   0  0  0  0  0  0  0  0  0  0  0  0
  139.2807   69.7375  222.6459 H   0  0  0  0  0  0  0  0  0  0  0  0
  138.9607   68.4355  224.7288 H   0  0  0  0  0  0  0  0  0  0  0  0
  139.2792   68.2775  227.1954 H   0  0  0  0  0  0  0  0  0  0  0  0
  140.1450   69.3096  229.3049 H   0  0  0  0  0  0  0  0  0  0  0  0
  141.2516   71.5251  229.2048 H   0  0  0  0  0  0  0  0  0  0  0  0
  141.5156   72.7231  227.0691 H   0  0  0  0  0  0  0  0  0  0  0  0
  1  2  2  0
  2  3  1  0
  3  4  1  0
  4  5  1  0
  5  6  2  0
  5  7  1  0
  7  8  1  0
  8  9  1  0
  9 10  1  0
 10 11  1  0
 11 12  1  0
 12 13  1  0
 13 14  2  0
 14 15  1  0
 15 16  2  0
 16 17  1  0
  2 18  1  0
 18 19  2  0
 19 20  1  0
 20 21  2  0
 21 22  1  0
 22 23  2  0
 23 24  1  0
 24 25  2  0
 25 26  1  0
 26 27  2  0
 12  7  1  0
 17 13  1  0
 27 18  1  0
 26 21  1  0
  3 28  1  0
  4 29  1  0
  4 30  1  0
  8 31  1  0
  8 32  1  0
  9 33  1  0
  9 34  1  0
 10 35  1  0
 10 36  1  0
 11 37  1  0
 11 38  1  0
 12 39  1  6
 15 40  1  0
 16 41  1  0
 17 42  1  0
 19 43  1  0
 20 44  1  0
 22 45  1  0
 23 46  1  0
 24 47  1  0
 25 48  1  0
M  END
>  <smiles>  (47) 
O=C(NCC(=O)N1CCCC[C@H]1c1ncc[nH]1)c1ccc2ccccc2n1

>  <score_type>  (47) 
oracle

>  <origin>  (47) 
autodockgpu

>  <m_score__min__energy>  (47) 
-8.5099999999999998

>  <m_primary>  (47) 
energy

>  <rmsd>  (47) 
3.6387889822144657

>  <m_score__min__rmsd>  (47) 
3.6387889822144657

>  <meeko>  (47) 
{"free_energy": -8.01, "intermolecular_energy": -9.5, "internal_energy": -1.63, "cluster_size": 13, "cluster_id": 2, "rank_in_cluster": 1}

>  <energy>  (47) 
-6.81

>  <cluster_rmsd>  (47) 
0.0

>  <cluster>  (47) 
5

$$$$

     RDKit          3D

 48 51  0  0  0  0  0  0  0  0999 V2000
  139.5480   71.2180  221.2410 O   0  0  0  0  0  0  0  0  0  0  0  0
  139.6560   71.8600  222.3070 C   0  0  0  0  0  0  0  0  0  0  0  0
  139.5680   73.2790  222.2810 N   0  0  0  0  0  0  0  0  0  0  0  0
  139.3550   74.0400  221.0650 C   0  0  0  0  0  0  0  0  0  0  0  0
  140.2980   73.6720  219.9960 C   0  0  0  0  0  0  0  0  0  0  0  0
  140.1080   72.7510  219.1610 O   0  0  0  0  0  0  0  0  0  0  0  0
  141.5110   74.4100  219.9000 N   0  0  0  0  0  0  0  0  0  0  0  0
  141.7130   75.5300  220.7740 C   0  0  0  0  0  0  0  0  0  0  0  0
  142.3110   76.7240  220.0820 C   0  0  0  0  0  0  0  0  0  0  0  0
  143.3300   76.4030  219.0410 C   0  0  0  0  0  0  0  0  0  0  0  0
  142.9280   75.2820  218.1300 C   0  0  0  0  0  0  0  0  0  0  0  0
  142.5540   74.0750  218.9490 C   0  0  1  0  0  0  0  0  0  0  0  0
  143.8080   73.6650  219.6720 C   0  0  0  0  0  0  0  0  0  0  0  0
  143.8680   73.0080  220.8530 N   0  0  0  0  0  0  0  0  0  0  0  0
  145.1410   72.7920  221.2250 C   0  0  0  0  0  0  0  0  0  0  0  0
  145.9170   73.3410  220.2240 C   0  0  0  0  0  0  0  0  0  0  0  0
  145.0870   73.8690  219.2850 N   0  0  0  0  0  0  0  0  0  0  0  0
  139.8730   71.2160  223.5940 C   0  0  0  0  0  0  0  0  0  0  0  0
  139.5900   69.8750  223.7710 C   0  0  0  0  0  0  0  0  0  0  0  0
  139.7850   69.2290  224.9860 C   0  0  0  0  0  0  0  0  0  0  0  0
  140.2770   69.9440  226.0600 C   0  0  0  0  0  0  0  0  0  0  0  0
  140.5000   69.3820  227.3010 C   0  0  0  0  0  0  0  0  0  0  0  0
  140.9990   70.1620  228.3450 C   0  0  0  0  0  0  0  0  0  0  0  0
  141.2630   71.4990  228.1090 C   0  0  0  0  0  0  0  0  0  0  0  0
  141.0480   72.0730  226.8850 C   0  0  0  0  0  0  0  0  0  0  0  0
  140.5550   71.2920  225.8610 C   0  0  0  0  0  0  0  0  0  0  0  0
  140.3510   71.8780  224.6660 N   0  0  0  0  0  0  0  0  0  0  0  0
  139.6610   73.8170  223.1890 H   0  0  0  0  0  0  0  0  0  0  0  0
  138.3302   73.8571  220.7095 H   0  0  0  0  0  0  0  0  0  0  0  0
  139.5177   75.1016  221.3028 H   0  0  0  0  0  0  0  0  0  0  0  0
  140.7407   75.8224  221.1973 H   0  0  0  0  0  0  0  0  0  0  0  0
  142.4246   75.2132  221.5507 H   0  0  0  0  0  0  0  0  0  0  0  0
  141.4955   77.2835  219.6005 H   0  0  0  0  0  0  0  0  0  0  0  0
  142.8353   77.2996  220.8590 H   0  0  0  0  0  0  0  0  0  0  0  0
  143.4988   77.3027  218.4311 H   0  0  0  0  0  0  0  0  0  0  0  0
  144.2383   76.0780  219.5695 H   0  0  0  0  0  0  0  0  0  0  0  0
  142.0651   75.5946  217.5236 H   0  0  0  0  0  0  0  0  0  0  0  0
  143.7700   75.0285  217.4691 H   0  0  0  0  0  0  0  0  0  0  0  0
  142.1662   73.2630  218.3163 H   0  0  0  0  0  0  0  0  0  0  0  0
  145.4912   72.2843  222.1359 H   0  0  0  0  0  0  0  0  0  0  0  0
  147.0165   73.3499  220.1915 H   0  0  0  0  0  0  0  0  0  0  0  0
  145.4020   74.3570  218.4000 H   0  0  0  0  0  0  0  0  0  0  0  0
  139.1967   69.2988  222.9206 H   0  0  0  0  0  0  0  0  0  0  0  0
  139.5499   68.1595  225.0910 H   0  0  0  0  0  0  0  0  0  0  0  0
  140.2838   68.3164  227.4674 H   0  0  0  0  0  0  0  0  0  0  0  0
  141.1790   69.7218  229.3369 H   0  0  0  0  0  0  0  0  0  0  0  0
  141.6569   72.1186  228.9281 H   0  0  0  0  0  0  0  0  0  0  0  0
  141.2648   73.1389  226.7211 H   0  0  0  0  0  0  0  0  0  0  0  0
  1  2  2  0
  2  3  1  0
  3  4  1  0
  4  5  1  0
  5  6  2  0
  5  7  1  0
  7  8  1  0
  8  9  1  0
  9 10  1  0
 10 11  1  0
 11 12  1  0
 12 13  1  0
 13 14  2  0
 14 15  1  0
 15 16  2  0
 16 17  1  0
  2 18  1  0
 18 19  2  0
 19 20  1  0
 20 21  2  0
 21 22  1  0
 22 23  2  0
 23 24  1  0
 24 25  2  0
 25 26  1  0
 26 27  2  0
 12  7  1  0
 17 13  1  0
 27 18  1  0
 26 21  1  0
  3 28  1  0
  4 29  1  0
  4 30  1  0
  8 31  1  0
  8 32  1  0
  9 33  1  0
  9 34  1  0
 10 35  1  0
 10 36  1  0
 11 37  1  0
 11 38  1  0
 12 39  1  6
 15 40  1  0
 16 41  1  0
 17 42  1  0
 19 43  1  0
 20 44  1  0
 22 45  1  0
 23 46  1  0
 24 47  1  0
 25 48  1  0
M  END
>  <smiles>  (48) 
O=C(NCC(=O)N1CCCC[C@H]1c1ncc[nH]1)c1ccc2ccccc2n1

>  <score_type>  (48) 
oracle

>  <origin>  (48) 
autodockgpu

>  <m_score__min__energy>  (48) 
-8.5099999999999998

>  <m_primary>  (48) 
energy

>  <rmsd>  (48) 
3.6363781353675764

>  <m_score__min__rmsd>  (48) 
3.6363781353675764

>  <meeko>  (48) 
{"free_energy": -7.66, "intermolecular_energy": -9.15, "internal_energy": -1.64, "cluster_size": 13, "cluster_id": 2, "rank_in_cluster": 8}

>  <energy>  (48) 
-6.59

>  <cluster_rmsd>  (48) 
1.05

>  <cluster>  (48) 
5

$$$$

     RDKit          3D

 48 51  0  0  0  0  0  0  0  0999 V2000
  141.3410   72.2820  221.7100 O   0  0  0  0  0  0  0  0  0  0  0  0
  140.4170   72.4440  222.5340 C   0  0  0  0  0  0  0  0  0  0  0  0
  139.4970   73.5140  222.3520 N   0  0  0  0  0  0  0  0  0  0  0  0
  139.5710   74.4450  221.2430 C   0  0  0  0  0  0  0  0  0  0  0  0
  140.5620   75.5110  221.4660 C   0  0  0  0  0  0  0  0  0  0  0  0
  141.8080   75.3410  221.4540 O   0  0  0  0  0  0  0  0  0  0  0  0
  140.0780   76.8260  221.7110 N   0  0  0  0  0  0  0  0  0  0  0  0
  139.0700   77.0190  222.7150 C   0  0  0  0  0  0  0  0  0  0  0  0
  137.9850   77.9690  222.2930 C   0  0  0  0  0  0  0  0  0  0  0  0
  138.4450   79.1270  221.4740 C   0  0  0  0  0  0  0  0  0  0  0  0
  139.4110   78.7530  220.3910 C   0  0  0  0  0  0  0  0  0  0  0  0
  140.5620   77.9840  220.9840 C   0  0  1  0  0  0  0  0  0  0  0  0
  141.2540   78.9370  221.9190 C   0  0  0  0  0  0  0  0  0  0  0  0
  141.2510   80.2870  221.8270 N   0  0  0  0  0  0  0  0  0  0  0  0
  141.9640   80.8440  222.8200 C   0  0  0  0  0  0  0  0  0  0  0  0
  142.4380   79.7880  223.5720 C   0  0  0  0  0  0  0  0  0  0  0  0
  141.9950   78.6330  223.0080 N   0  0  0  0  0  0  0  0  0  0  0  0
  140.2340   71.5800  223.6900 C   0  0  0  0  0  0  0  0  0  0  0  0
  139.5580   70.3800  223.5760 C   0  0  0  0  0  0  0  0  0  0  0  0
  139.3650   69.5310  224.6600 C   0  0  0  0  0  0  0  0  0  0  0  0
  139.8610   69.8910  225.8970 C   0  0  0  0  0  0  0  0  0  0  0  0
  139.7150   69.1080  227.0250 C   0  0  0  0  0  0  0  0  0  0  0  0
  140.2400   69.5310  228.2450 C   0  0  0  0  0  0  0  0  0  0  0  0
  140.9070   70.7420  228.2990 C   0  0  0  0  0  0  0  0  0  0  0  0
  141.0620   71.5310  227.1910 C   0  0  0  0  0  0  0  0  0  0  0  0
  140.5370   71.1020  225.9900 C   0  0  0  0  0  0  0  0  0  0  0  0
  140.7020   71.8940  224.9130 N   0  0  0  0  0  0  0  0  0  0  0  0
  138.7160   73.6460  223.0560 H   0  0  0  0  0  0  0  0  0  0  0  0
  139.8484   73.8901  220.3346 H   0  0  0  0  0  0  0  0  0  0  0  0
  138.5850   74.9218  221.1408 H   0  0  0  0  0  0  0  0  0  0  0  0
  138.6123   76.0448  222.9420 H   0  0  0  0  0  0  0  0  0  0  0  0
  139.5650   77.4591  223.5932 H   0  0  0  0  0  0  0  0  0  0  0  0
  137.2480   77.4048  221.7026 H   0  0  0  0  0  0  0  0  0  0  0  0
  137.5701   78.3930  223.2193 H   0  0  0  0  0  0  0  0  0  0  0  0
  137.5649   79.5943  221.0081 H   0  0  0  0  0  0  0  0  0  0  0  0
  138.9734   79.8117  222.1537 H   0  0  0  0  0  0  0  0  0  0  0  0
  138.8995   78.1282  219.6440 H   0  0  0  0  0  0  0  0  0  0  0  0
  139.7912   79.6660  219.9094 H   0  0  0  0  0  0  0  0  0  0  0  0
  141.2440   77.6140  220.2042 H   0  0  0  0  0  0  0  0  0  0  0  0
  142.1343   81.9163  222.9967 H   0  0  0  0  0  0  0  0  0  0  0  0
  143.0656   79.8673  224.4719 H   0  0  0  0  0  0  0  0  0  0  0  0
  142.2020   77.6600  223.3710 H   0  0  0  0  0  0  0  0  0  0  0  0
  139.1589   70.0865  222.5939 H   0  0  0  0  0  0  0  0  0  0  0  0
  138.8228   68.5824  224.5333 H   0  0  0  0  0  0  0  0  0  0  0  0
  139.1827   68.1475  226.9606 H   0  0  0  0  0  0  0  0  0  0  0  0
  140.1261   68.9134  229.1481 H   0  0  0  0  0  0  0  0  0  0  0  0
  141.3243   71.0802  229.2589 H   0  0  0  0  0  0  0  0  0  0  0  0
  141.5960   72.4904  227.2575 H   0  0  0  0  0  0  0  0  0  0  0  0
  1  2  2  0
  2  3  1  0
  3  4  1  0
  4  5  1  0
  5  6  2  0
  5  7  1  0
  7  8  1  0
  8  9  1  0
  9 10  1  0
 10 11  1  0
 11 12  1  0
 12 13  1  0
 13 14  2  0
 14 15  1  0
 15 16  2  0
 16 17  1  0
  2 18  1  0
 18 19  2  0
 19 20  1  0
 20 21  2  0
 21 22  1  0
 22 23  2  0
 23 24  1  0
 24 25  2  0
 25 26  1  0
 26 27  2  0
 12  7  1  0
 17 13  1  0
 27 18  1  0
 26 21  1  0
  3 28  1  0
  4 29  1  0
  4 30  1  0
  8 31  1  0
  8 32  1  0
  9 33  1  0
  9 34  1  0
 10 35  1  0
 10 36  1  0
 11 37  1  0
 11 38  1  0
 12 39  1  6
 15 40  1  0
 16 41  1  0
 17 42  1  0
 19 43  1  0
 20 44  1  0
 22 45  1  0
 23 46  1  0
 24 47  1  0
 25 48  1  0
M  END
>  <smiles>  (49) 
O=C(NCC(=O)N1CCCC[C@H]1c1ncc[nH]1)c1ccc2ccccc2n1

>  <score_type>  (49) 
oracle

>  <origin>  (49) 
autodockgpu

>  <m_score__min__energy>  (49) 
-8.5099999999999998

>  <m_primary>  (49) 
energy

>  <rmsd>  (49) 
2.611193194633525

>  <m_score__min__rmsd>  (49) 
2.611193194633525

>  <meeko>  (49) 
{"free_energy": -8.11, "intermolecular_energy": -9.6, "internal_energy": -1.39, "cluster_size": 29, "cluster_id": 1, "rank_in_cluster": 20}

>  <energy>  (49) 
-6.59

>  <cluster_rmsd>  (49) 
1.05

>  <cluster>  (49) 
5

$$$$

     RDKit          3D

 48 51  0  0  0  0  0  0  0  0999 V2000
  141.0720   73.1710  222.0080 O   0  0  0  0  0  0  0  0  0  0  0  0
  140.0180   72.8590  222.6020 C   0  0  0  0  0  0  0  0  0  0  0  0
  138.8240   73.5850  222.3370 N   0  0  0  0  0  0  0  0  0  0  0  0
  138.7570   74.6880  221.3990 C   0  0  0  0  0  0  0  0  0  0  0  0
  138.7840   76.0000  222.0670 C   0  0  0  0  0  0  0  0  0  0  0  0
  138.1200   76.2920  223.0950 O   0  0  0  0  0  0  0  0  0  0  0  0
  139.6190   77.0090  221.5120 N   0  0  0  0  0  0  0  0  0  0  0  0
  139.0350   77.9950  220.6470 C   0  0  0  0  0  0  0  0  0  0  0  0
  139.8720   78.2920  219.4340 C   0  0  0  0  0  0  0  0  0  0  0  0
  141.3450   78.2930  219.6700 C   0  0  0  0  0  0  0  0  0  0  0  0
  141.8220   77.1380  220.4980 C   0  0  0  0  0  0  0  0  0  0  0  0
  141.0420   77.0820  221.7850 C   0  0  1  0  0  0  0  0  0  0  0  0
  141.3690   78.3520  222.5200 C   0  0  0  0  0  0  0  0  0  0  0  0
  140.5350   79.0410  223.3310 N   0  0  0  0  0  0  0  0  0  0  0  0
  141.1360   80.1330  223.8330 C   0  0  0  0  0  0  0  0  0  0  0  0
  142.4130   80.1260  223.3090 C   0  0  0  0  0  0  0  0  0  0  0  0
  142.5370   79.0320  222.5110 N   0  0  0  0  0  0  0  0  0  0  0  0
  139.9530   71.7720  223.5670 C   0  0  0  0  0  0  0  0  0  0  0  0
  139.3220   70.5840  223.2540 C   0  0  0  0  0  0  0  0  0  0  0  0
  139.2410   69.5260  224.1520 C   0  0  0  0  0  0  0  0  0  0  0  0
  139.8070   69.6590  225.4040 C   0  0  0  0  0  0  0  0  0  0  0  0
  139.7730   68.6600  226.3570 C   0  0  0  0  0  0  0  0  0  0  0  0
  140.3640   68.8590  227.6040 C   0  0  0  0  0  0  0  0  0  0  0  0
  140.9810   70.0700  227.8620 C   0  0  0  0  0  0  0  0  0  0  0  0
  141.0250   71.0720  226.9300 C   0  0  0  0  0  0  0  0  0  0  0  0
  140.4360   70.8620  225.7000 C   0  0  0  0  0  0  0  0  0  0  0  0
  140.4920   71.8620  224.7990 N   0  0  0  0  0  0  0  0  0  0  0  0
  137.9340   73.3140  222.8450 H   0  0  0  0  0  0  0  0  0  0  0  0
  139.6166   74.6225  220.7157 H   0  0  0  0  0  0  0  0  0  0  0  0
  137.8026   74.6085  220.8579 H   0  0  0  0  0  0  0  0  0  0  0  0
  138.0532   77.6286  220.3126 H   0  0  0  0  0  0  0  0  0  0  0  0
  138.9545   78.9281  221.2239 H   0  0  0  0  0  0  0  0  0  0  0  0
  139.6491   77.5317  218.6710 H   0  0  0  0  0  0  0  0  0  0  0  0
  139.6097   79.3136  219.1218 H   0  0  0  0  0  0  0  0  0  0  0  0
  141.8532   78.2551  218.6952 H   0  0  0  0  0  0  0  0  0  0  0  0
  141.5808   79.2099  220.2300 H   0  0  0  0  0  0  0  0  0  0  0  0
  141.6745   76.2018  219.9396 H   0  0  0  0  0  0  0  0  0  0  0  0
  142.8907   77.2677  220.7242 H   0  0  0  0  0  0  0  0  0  0  0  0
  141.3044   76.1929  222.3772 H   0  0  0  0  0  0  0  0  0  0  0  0
  140.7016   80.8763  224.5177 H   0  0  0  0  0  0  0  0  0  0  0  0
  143.1946   80.8753  223.5032 H   0  0  0  0  0  0  0  0  0  0  0  0
  143.4110   78.7670  221.9750 H   0  0  0  0  0  0  0  0  0  0  0  0
  138.8674   70.4710  222.2587 H   0  0  0  0  0  0  0  0  0  0  0  0
  138.7316   68.5933  223.8681 H   0  0  0  0  0  0  0  0  0  0  0  0
  139.2779   67.7040  226.1314 H   0  0  0  0  0  0  0  0  0  0  0  0
  140.3401   68.0681  228.3682 H   0  0  0  0  0  0  0  0  0  0  0  0
  141.4496   70.2325  228.8438 H   0  0  0  0  0  0  0  0  0  0  0  0
  141.5209   72.0271  227.1576 H   0  0  0  0  0  0  0  0  0  0  0  0
  1  2  2  0
  2  3  1  0
  3  4  1  0
  4  5  1  0
  5  6  2  0
  5  7  1  0
  7  8  1  0
  8  9  1  0
  9 10  1  0
 10 11  1  0
 11 12  1  0
 12 13  1  0
 13 14  2  0
 14 15  1  0
 15 16  2  0
 16 17  1  0
  2 18  1  0
 18 19  2  0
 19 20  1  0
 20 21  2  0
 21 22  1  0
 22 23  2  0
 23 24  1  0
 24 25  2  0
 25 26  1  0
 26 27  2  0
 12  7  1  0
 17 13  1  0
 27 18  1  0
 26 21  1  0
  3 28  1  0
  4 29  1  0
  4 30  1  0
  8 31  1  0
  8 32  1  0
  9 33  1  0
  9 34  1  0
 10 35  1  0
 10 36  1  0
 11 37  1  0
 11 38  1  0
 12 39  1  1
 15 40  1  0
 16 41  1  0
 17 42  1  0
 19 43  1  0
 20 44  1  0
 22 45  1  0
 23 46  1  0
 24 47  1  0
 25 48  1  0
M  END
>  <smiles>  (50) 
O=C(NCC(=O)N1CCCC[C@H]1c1ncc[nH]1)c1ccc2ccccc2n1

>  <score_type>  (50) 
oracle

>  <origin>  (50) 
autodockgpu

>  <m_score__min__energy>  (50) 
-8.5099999999999998

>  <m_primary>  (50) 
energy

>  <rmsd>  (50) 
2.1599212649017203

>  <m_score__min__rmsd>  (50) 
2.1599212649017203

>  <meeko>  (50) 
{"free_energy": -8.35, "intermolecular_energy": -9.85, "internal_energy": -1.43, "cluster_size": 29, "cluster_id": 1, "rank_in_cluster": 10}

>  <energy>  (50) 
-6.53

>  <cluster_rmsd>  (50) 
1.06

>  <cluster>  (50) 
5

$$$$
