
     RDKit          3D

 48 51  0  0  0  0  0  0  0  0999 V2000
  138.8690   70.8240  221.4930 O   0  0  0  0  0  0  0  0  0  0  0  0
  139.1850   71.3010  222.5960 C   0  0  0  0  0  0  0  0  0  0  0  0
  139.3430   72.6940  222.7320 N   0  0  0  0  0  0  0  0  0  0  0  0
  139.1430   73.5790  221.5980 C   0  0  0  0  0  0  0  0  0  0  0  0
  140.2530   74.5410  221.5810 C   0  0  0  0  0  0  0  0  0  0  0  0
  141.4520   74.2520  221.8270 O   0  0  0  0  0  0  0  0  0  0  0  0
  139.9790   75.9020  221.2670 N   0  0  0  0  0  0  0  0  0  0  0  0
  138.7760   76.6790  221.5240 C   0  0  0  0  0  0  0  0  0  0  0  0
  138.5730   77.3460  220.1800 C   0  0  0  0  0  0  0  0  0  0  0  0
  139.9190   77.3170  219.5040 C   0  0  0  0  0  0  0  0  0  0  0  0
  140.8760   76.8610  220.5890 C   0  0  1  0  0  0  0  0  0  0  0  0
  141.2710   77.9360  221.5150 C   0  0  0  0  0  0  0  0  0  0  0  0
  141.3570   77.8220  222.8720 C   0  0  0  0  0  0  0  0  0  0  0  0
  141.7360   78.8690  223.7090 C   0  0  0  0  0  0  0  0  0  0  0  0
  142.0410   80.0800  223.1540 C   0  0  0  0  0  0  0  0  0  0  0  0
  142.5140   81.3860  224.2090 Cl  0  0  0  0  0  0  0  0  0  0  0  0
  141.9620   80.2230  221.7830 C   0  0  0  0  0  0  0  0  0  0  0  0
  141.5820   79.1720  220.9520 C   0  0  0  0  0  0  0  0  0  0  0  0
  139.3870   70.4200  223.7400 C   0  0  0  0  0  0  0  0  0  0  0  0
  138.9820   69.1000  223.7030 C   0  0  0  0  0  0  0  0  0  0  0  0
  139.2090   68.3130  224.8350 C   0  0  0  0  0  0  0  0  0  0  0  0
  139.8210   68.8530  225.9550 C   0  0  0  0  0  0  0  0  0  0  0  0
  140.0690   68.1250  227.0990 C   0  0  0  0  0  0  0  0  0  0  0  0
  140.6800   68.6620  228.2190 C   0  0  0  0  0  0  0  0  0  0  0  0
  140.9180   67.9290  229.3390 F   0  0  0  0  0  0  0  0  0  0  0  0
  141.0590   69.9840  228.1870 C   0  0  0  0  0  0  0  0  0  0  0  0
  140.8210   70.7260  227.0620 C   0  0  0  0  0  0  0  0  0  0  0  0
  140.2110   70.1730  225.9550 C   0  0  0  0  0  0  0  0  0  0  0  0
  139.9810   70.8970  224.8590 N   0  0  0  0  0  0  0  0  0  0  0  0
  139.6110   73.0470  223.6890 H   0  0  0  0  0  0  0  0  0  0  0  0
  139.1375   72.9967  220.6648 H   0  0  0  0  0  0  0  0  0  0  0  0
  138.1799   74.1035  221.6838 H   0  0  0  0  0  0  0  0  0  0  0  0
  137.9257   76.0326  221.7872 H   0  0  0  0  0  0  0  0  0  0  0  0
  138.8583   77.3773  222.3699 H   0  0  0  0  0  0  0  0  0  0  0  0
  137.8326   76.7917  219.5845 H   0  0  0  0  0  0  0  0  0  0  0  0
  138.1952   78.3733  220.2891 H   0  0  0  0  0  0  0  0  0  0  0  0
  139.9172   76.6077  218.6632 H   0  0  0  0  0  0  0  0  0  0  0  0
  140.1977   78.2940  219.0824 H   0  0  0  0  0  0  0  0  0  0  0  0
  141.8399   76.4817  220.2190 H   0  0  0  0  0  0  0  0  0  0  0  0
  141.1141   76.8515  223.3294 H   0  0  0  0  0  0  0  0  0  0  0  0
  141.7889   78.7235  224.7981 H   0  0  0  0  0  0  0  0  0  0  0  0
  142.2067   81.1967  221.3334 H   0  0  0  0  0  0  0  0  0  0  0  0
  141.5280   79.3161  219.8628 H   0  0  0  0  0  0  0  0  0  0  0  0
  138.4956   68.6811  222.8097 H   0  0  0  0  0  0  0  0  0  0  0  0
  138.8998   67.2574  224.8372 H   0  0  0  0  0  0  0  0  0  0  0  0
  139.7671   67.0675  227.1230 H   0  0  0  0  0  0  0  0  0  0  0  0
  141.5496   70.4412  229.0590 H   0  0  0  0  0  0  0  0  0  0  0  0
  141.1219   71.7838  227.0399 H   0  0  0  0  0  0  0  0  0  0  0  0
  1  2  2  0
  2  3  1  0
  3  4  1  0
  4  5  1  0
  5  6  2  0
  5  7  1  0
  7  8  1  0
  8  9  1  0
  9 10  1  0
 10 11  1  0
 11 12  1  0
 12 13  2  0
 13 14  1  0
 14 15  2  0
 15 16  1  0
 15 17  1  0
 17 18  2  0
  2 19  1  0
 19 20  2  0
 20 21  1  0
 21 22  2  0
 22 23  1  0
 23 24  2  0
 24 25  1  0
 24 26  1  0
 26 27  2  0
 27 28  1  0
 28 29  2  0
 11  7  1  0
 18 12  1  0
 29 19  1  0
 28 22  1  0
  3 30  1  0
  4 31  1  0
  4 32  1  0
  8 33  1  0
  8 34  1  0
  9 35  1  0
  9 36  1  0
 10 37  1  0
 10 38  1  0
 11 39  1  6
 13 40  1  0
 14 41  1  0
 17 42  1  0
 18 43  1  0
 20 44  1  0
 21 45  1  0
 23 46  1  0
 26 47  1  0
 27 48  1  0
M  END
>  <smiles>  (1) 
O=C(NCC(=O)N1CCC[C@H]1c1ccc(Cl)cc1)c1ccc2cc(F)ccc2n1

>  <score_type>  (1) 
oracle

>  <origin>  (1) 
autodockgpu

>  <m_score__min__energy>  (1) 
-9.1099999999999994

>  <m_primary>  (1) 
energy

>  <rmsd>  (1) 
1.6543064197013662

>  <m_score__min__rmsd>  (1) 
1.6543064197013662

>  <meeko>  (1) 
{"free_energy": -8.65, "intermolecular_energy": -10.14, "internal_energy": -1.51, "cluster_size": 27, "cluster_id": 1, "rank_in_cluster": 8}

>  <energy>  (1) 
-9.11

>  <cluster_rmsd>  (1) 
0.0

>  <cluster>  (1) 
1

$$$$

     RDKit          3D

 48 51  0  0  0  0  0  0  0  0999 V2000
  138.7850   71.2960  221.2100 O   0  0  0  0  0  0  0  0  0  0  0  0
  139.1320   71.8170  222.2840 C   0  0  0  0  0  0  0  0  0  0  0  0
  139.2440   73.2180  222.3740 N   0  0  0  0  0  0  0  0  0  0  0  0
  138.9610   74.0620  221.2270 C   0  0  0  0  0  0  0  0  0  0  0  0
  138.8360   75.4430  221.7070 C   0  0  0  0  0  0  0  0  0  0  0  0
  138.1030   75.8030  222.6650 O   0  0  0  0  0  0  0  0  0  0  0  0
  139.5870   76.4670  221.0630 N   0  0  0  0  0  0  0  0  0  0  0  0
  139.1160   77.5660  220.2350 C   0  0  0  0  0  0  0  0  0  0  0  0
  140.0810   77.4800  219.0710 C   0  0  0  0  0  0  0  0  0  0  0  0
  141.2820   76.7360  219.5920 C   0  0  0  0  0  0  0  0  0  0  0  0
  141.0520   76.6510  221.0890 C   0  0  1  0  0  0  0  0  0  0  0  0
  141.4010   77.8890  221.8090 C   0  0  0  0  0  0  0  0  0  0  0  0
  141.8340   79.0470  221.2320 C   0  0  0  0  0  0  0  0  0  0  0  0
  142.1530   80.1930  221.9540 C   0  0  0  0  0  0  0  0  0  0  0  0
  142.0300   80.1700  223.3150 C   0  0  0  0  0  0  0  0  0  0  0  0
  142.4320   81.6120  224.2130 Cl  0  0  0  0  0  0  0  0  0  0  0  0
  141.5950   79.0120  223.9250 C   0  0  0  0  0  0  0  0  0  0  0  0
  141.2780   77.8680  223.1960 C   0  0  0  0  0  0  0  0  0  0  0  0
  139.4170   70.9780  223.4410 C   0  0  0  0  0  0  0  0  0  0  0  0
  139.1710   69.6190  223.4150 C   0  0  0  0  0  0  0  0  0  0  0  0
  139.4690   68.8760  224.5600 C   0  0  0  0  0  0  0  0  0  0  0  0
  139.9960   69.4960  225.6810 C   0  0  0  0  0  0  0  0  0  0  0  0
  140.3090   68.8130  226.8380 C   0  0  0  0  0  0  0  0  0  0  0  0
  140.8370   69.4300  227.9600 C   0  0  0  0  0  0  0  0  0  0  0  0
  141.1410   68.7420  229.0920 F   0  0  0  0  0  0  0  0  0  0  0  0
  141.0580   70.7870  227.9180 C   0  0  0  0  0  0  0  0  0  0  0  0
  140.7540   71.4840  226.7800 C   0  0  0  0  0  0  0  0  0  0  0  0
  140.2300   70.8510  225.6710 C   0  0  0  0  0  0  0  0  0  0  0  0
  139.9340   71.5320  224.5630 N   0  0  0  0  0  0  0  0  0  0  0  0
  139.5410   73.6080  223.3080 H   0  0  0  0  0  0  0  0  0  0  0  0
  139.7825   73.9917  220.4988 H   0  0  0  0  0  0  0  0  0  0  0  0
  138.0319   73.7410  220.7333 H   0  0  0  0  0  0  0  0  0  0  0  0
  138.0763   77.4116  219.9108 H   0  0  0  0  0  0  0  0  0  0  0  0
  139.0998   78.5425  220.7412 H   0  0  0  0  0  0  0  0  0  0  0  0
  139.6241   76.9323  218.2336 H   0  0  0  0  0  0  0  0  0  0  0  0
  140.3529   78.4771  218.6943 H   0  0  0  0  0  0  0  0  0  0  0  0
  141.3395   75.7307  219.1492 H   0  0  0  0  0  0  0  0  0  0  0  0
  142.2280   77.2379  219.3407 H   0  0  0  0  0  0  0  0  0  0  0  0
  141.6518   75.8846  221.6017 H   0  0  0  0  0  0  0  0  0  0  0  0
  141.9364   79.0763  220.1372 H   0  0  0  0  0  0  0  0  0  0  0  0
  142.4981   81.1014  221.4385 H   0  0  0  0  0  0  0  0  0  0  0  0
  141.4954   78.9911  225.0203 H   0  0  0  0  0  0  0  0  0  0  0  0
  140.9344   76.9583  223.7102 H   0  0  0  0  0  0  0  0  0  0  0  0
  138.7529   69.1362  222.5194 H   0  0  0  0  0  0  0  0  0  0  0  0
  139.2839   67.7917  224.5714 H   0  0  0  0  0  0  0  0  0  0  0  0
  140.1310   67.7280  226.8710 H   0  0  0  0  0  0  0  0  0  0  0  0
  141.4758   71.3079  228.7921 H   0  0  0  0  0  0  0  0  0  0  0  0
  140.9306   72.5693  226.7486 H   0  0  0  0  0  0  0  0  0  0  0  0
  1  2  2  0
  2  3  1  0
  3  4  1  0
  4  5  1  0
  5  6  2  0
  5  7  1  0
  7  8  1  0
  8  9  1  0
  9 10  1  0
 10 11  1  0
 11 12  1  0
 12 13  2  0
 13 14  1  0
 14 15  2  0
 15 16  1  0
 15 17  1  0
 17 18  2  0
  2 19  1  0
 19 20  2  0
 20 21  1  0
 21 22  2  0
 22 23  1  0
 23 24  2  0
 24 25  1  0
 24 26  1  0
 26 27  2  0
 27 28  1  0
 28 29  2  0
 11  7  1  0
 18 12  1  0
 29 19  1  0
 28 22  1  0
  3 30  1  0
  4 31  1  0
  4 32  1  0
  8 33  1  0
  8 34  1  0
  9 35  1  0
  9 36  1  0
 10 37  1  0
 10 38  1  0
 11 39  1  1
 13 40  1  0
 14 41  1  0
 17 42  1  0
 18 43  1  0
 20 44  1  0
 21 45  1  0
 23 46  1  0
 26 47  1  0
 27 48  1  0
M  END
>  <smiles>  (2) 
O=C(NCC(=O)N1CCC[C@H]1c1ccc(Cl)cc1)c1ccc2cc(F)ccc2n1

>  <score_type>  (2) 
oracle

>  <origin>  (2) 
autodockgpu

>  <m_score__min__energy>  (2) 
-9.1099999999999994

>  <m_primary>  (2) 
energy

>  <rmsd>  (2) 
1.5380855756729146

>  <m_score__min__rmsd>  (2) 
1.5380855756729146

>  <meeko>  (2) 
{"free_energy": -8.48, "intermolecular_energy": -9.97, "internal_energy": -1.6, "cluster_size": 27, "cluster_id": 1, "rank_in_cluster": 21}

>  <energy>  (2) 
-9.06

>  <cluster_rmsd>  (2) 
0.08

>  <cluster>  (2) 
1

$$$$

     RDKit          3D

 48 51  0  0  0  0  0  0  0  0999 V2000
  139.9720   73.5990  222.3250 O   0  0  0  0  0  0  0  0  0  0  0  0
  140.5080   72.4780  222.3270 C   0  0  0  0  0  0  0  0  0  0  0  0
  141.3290   72.0980  221.2470 N   0  0  0  0  0  0  0  0  0  0  0  0
  141.5560   72.9990  220.1320 C   0  0  0  0  0  0  0  0  0  0  0  0
  142.7650   73.7790  220.4250 C   0  0  0  0  0  0  0  0  0  0  0  0
  142.7650   74.9710  220.8300 O   0  0  0  0  0  0  0  0  0  0  0  0
  144.0380   73.1680  220.2480 N   0  0  0  0  0  0  0  0  0  0  0  0
  145.0880   72.9360  221.2280 C   0  0  0  0  0  0  0  0  0  0  0  0
  146.3030   73.4200  220.4640 C   0  0  0  0  0  0  0  0  0  0  0  0
  145.9190   73.3620  219.0090 C   0  0  0  0  0  0  0  0  0  0  0  0
  144.5980   72.6160  218.9980 C   0  0  1  0  0  0  0  0  0  0  0  0
  144.7470   71.1540  219.1030 C   0  0  0  0  0  0  0  0  0  0  0  0
  143.8160   70.2970  219.6140 C   0  0  0  0  0  0  0  0  0  0  0  0
  144.0020   68.9200  219.6930 C   0  0  0  0  0  0  0  0  0  0  0  0
  145.1750   68.3840  219.2390 C   0  0  0  0  0  0  0  0  0  0  0  0
  145.3990   66.6570  219.3420 Cl  0  0  0  0  0  0  0  0  0  0  0  0
  146.1340   69.2290  218.7180 C   0  0  0  0  0  0  0  0  0  0  0  0
  145.9410   70.6060  218.6410 C   0  0  0  0  0  0  0  0  0  0  0  0
  140.2860   71.5670  223.4430 C   0  0  0  0  0  0  0  0  0  0  0  0
  139.6160   70.3730  223.2660 C   0  0  0  0  0  0  0  0  0  0  0  0
  139.4410   69.5470  224.3800 C   0  0  0  0  0  0  0  0  0  0  0  0
  139.9290   69.9280  225.6190 C   0  0  0  0  0  0  0  0  0  0  0  0
  139.7850   69.1550  226.7520 C   0  0  0  0  0  0  0  0  0  0  0  0
  140.2720   69.5340  227.9920 C   0  0  0  0  0  0  0  0  0  0  0  0
  140.1220   68.7590  229.0990 F   0  0  0  0  0  0  0  0  0  0  0  0
  140.9310   70.7360  228.0970 C   0  0  0  0  0  0  0  0  0  0  0  0
  141.0850   71.5200  226.9850 C   0  0  0  0  0  0  0  0  0  0  0  0
  140.5930   71.1260  225.7580 C   0  0  0  0  0  0  0  0  0  0  0  0
  140.7430   71.8900  224.6750 N   0  0  0  0  0  0  0  0  0  0  0  0
  141.7590   71.1360  221.2980 H   0  0  0  0  0  0  0  0  0  0  0  0
  141.6984   72.4212  219.2069 H   0  0  0  0  0  0  0  0  0  0  0  0
  140.6921   73.6659  219.9945 H   0  0  0  0  0  0  0  0  0  0  0  0
  144.9246   73.5243  222.1430 H   0  0  0  0  0  0  0  0  0  0  0  0
  145.1578   71.8971  221.5827 H   0  0  0  0  0  0  0  0  0  0  0  0
  146.5527   74.4513  220.7540 H   0  0  0  0  0  0  0  0  0  0  0  0
  147.1882   72.8021  220.6753 H   0  0  0  0  0  0  0  0  0  0  0  0
  145.7977   74.3749  218.5976 H   0  0  0  0  0  0  0  0  0  0  0  0
  146.6847   72.8688  218.3922 H   0  0  0  0  0  0  0  0  0  0  0  0
  144.0085   72.7421  218.0779 H   0  0  0  0  0  0  0  0  0  0  0  0
  142.8685   70.7167  219.9829 H   0  0  0  0  0  0  0  0  0  0  0  0
  143.2180   68.2734  220.1139 H   0  0  0  0  0  0  0  0  0  0  0  0
  147.0795   68.8017  218.3525 H   0  0  0  0  0  0  0  0  0  0  0  0
  146.7235   71.2541  218.2196 H   0  0  0  0  0  0  0  0  0  0  0  0
  139.2314   70.0804  222.2779 H   0  0  0  0  0  0  0  0  0  0  0  0
  138.9124   68.5884  224.2720 H   0  0  0  0  0  0  0  0  0  0  0  0
  139.2589   68.1927  226.6669 H   0  0  0  0  0  0  0  0  0  0  0  0
  141.3315   71.0654  229.0671 H   0  0  0  0  0  0  0  0  0  0  0  0
  141.6110   72.4822  227.0718 H   0  0  0  0  0  0  0  0  0  0  0  0
  1  2  2  0
  2  3  1  0
  3  4  1  0
  4  5  1  0
  5  6  2  0
  5  7  1  0
  7  8  1  0
  8  9  1  0
  9 10  1  0
 10 11  1  0
 11 12  1  0
 12 13  2  0
 13 14  1  0
 14 15  2  0
 15 16  1  0
 15 17  1  0
 17 18  2  0
  2 19  1  0
 19 20  2  0
 20 21  1  0
 21 22  2  0
 22 23  1  0
 23 24  2  0
 24 25  1  0
 24 26  1  0
 26 27  2  0
 27 28  1  0
 28 29  2  0
 11  7  1  0
 18 12  1  0
 29 19  1  0
 28 22  1  0
  3 30  1  0
  4 31  1  0
  4 32  1  0
  8 33  1  0
  8 34  1  0
  9 35  1  0
  9 36  1  0
 10 37  1  0
 10 38  1  0
 11 39  1  6
 13 40  1  0
 14 41  1  0
 17 42  1  0
 18 43  1  0
 20 44  1  0
 21 45  1  0
 23 46  1  0
 26 47  1  0
 27 48  1  0
M  END
>  <smiles>  (3) 
O=C(NCC(=O)N1CCC[C@H]1c1ccc(Cl)cc1)c1ccc2cc(F)ccc2n1

>  <score_type>  (3) 
oracle

>  <origin>  (3) 
autodockgpu

>  <m_score__min__energy>  (3) 
-9.1099999999999994

>  <m_primary>  (3) 
energy

>  <rmsd>  (3) 
4.176841906794341

>  <m_score__min__rmsd>  (3) 
4.176841906794341

>  <meeko>  (3) 
{"free_energy": -8.52, "intermolecular_energy": -10.01, "internal_energy": -1.43, "cluster_size": 1, "cluster_id": 3, "rank_in_cluster": 1}

>  <energy>  (3) 
-9.0

>  <cluster_rmsd>  (3) 
0.19

>  <cluster>  (3) 
1

$$$$

     RDKit          3D

 48 51  0  0  0  0  0  0  0  0999 V2000
  137.8020   70.4200  221.4830 O   0  0  0  0  0  0  0  0  0  0  0  0
  138.2250   71.0770  222.4500 C   0  0  0  0  0  0  0  0  0  0  0  0
  138.1640   72.4830  222.4140 N   0  0  0  0  0  0  0  0  0  0  0  0
  137.6140   73.1750  221.2620 C   0  0  0  0  0  0  0  0  0  0  0  0
  138.7070   73.3920  220.3060 C   0  0  0  0  0  0  0  0  0  0  0  0
  138.8070   72.8150  219.1930 O   0  0  0  0  0  0  0  0  0  0  0  0
  139.7390   74.3140  220.6380 N   0  0  0  0  0  0  0  0  0  0  0  0
  140.0610   74.9060  221.9280 C   0  0  0  0  0  0  0  0  0  0  0  0
  140.2280   76.3600  221.5410 C   0  0  0  0  0  0  0  0  0  0  0  0
  140.5170   76.3580  220.0630 C   0  0  0  0  0  0  0  0  0  0  0  0
  140.7450   74.8960  219.7270 C   0  0  1  0  0  0  0  0  0  0  0  0
  142.0930   74.4160  220.0750 C   0  0  0  0  0  0  0  0  0  0  0  0
  142.4020   73.1540  220.4900 C   0  0  0  0  0  0  0  0  0  0  0  0
  143.6940   72.7450  220.8100 C   0  0  0  0  0  0  0  0  0  0  0  0
  144.7170   73.6460  220.7060 C   0  0  0  0  0  0  0  0  0  0  0  0
  146.3330   73.1240  221.1080 Cl  0  0  0  0  0  0  0  0  0  0  0  0
  144.4320   74.9300  220.2880 C   0  0  0  0  0  0  0  0  0  0  0  0
  143.1370   75.3320  219.9700 C   0  0  0  0  0  0  0  0  0  0  0  0
  138.7780   70.3910  223.6110 C   0  0  0  0  0  0  0  0  0  0  0  0
  138.6960   69.0180  223.7340 C   0  0  0  0  0  0  0  0  0  0  0  0
  139.2490   68.4270  224.8730 C   0  0  0  0  0  0  0  0  0  0  0  0
  139.8590   69.2070  225.8420 C   0  0  0  0  0  0  0  0  0  0  0  0
  140.4200   68.6790  226.9860 C   0  0  0  0  0  0  0  0  0  0  0  0
  141.0310   69.4560  227.9560 C   0  0  0  0  0  0  0  0  0  0  0  0
  141.5810   68.9190  229.0770 F   0  0  0  0  0  0  0  0  0  0  0  0
  141.0790   70.8170  227.7690 C   0  0  0  0  0  0  0  0  0  0  0  0
  140.5270   71.3630  226.6420 C   0  0  0  0  0  0  0  0  0  0  0  0
  139.9230   70.5720  225.6860 C   0  0  0  0  0  0  0  0  0  0  0  0
  139.3860   71.1050  224.5870 N   0  0  0  0  0  0  0  0  0  0  0  0
  138.5360   72.9930  223.2600 H   0  0  0  0  0  0  0  0  0  0  0  0
  136.8269   72.5625  220.7980 H   0  0  0  0  0  0  0  0  0  0  0  0
  137.1719   74.1355  221.5652 H   0  0  0  0  0  0  0  0  0  0  0  0
  139.2427   74.7711  222.6506 H   0  0  0  0  0  0  0  0  0  0  0  0
  140.9372   74.4642  222.4251 H   0  0  0  0  0  0  0  0  0  0  0  0
  139.3053   76.9210  221.7506 H   0  0  0  0  0  0  0  0  0  0  0  0
  141.0355   76.8418  222.1118 H   0  0  0  0  0  0  0  0  0  0  0  0
  139.6623   76.7588  219.4984 H   0  0  0  0  0  0  0  0  0  0  0  0
  141.3802   76.9883  219.8029 H   0  0  0  0  0  0  0  0  0  0  0  0
  140.6615   74.6537  218.6573 H   0  0  0  0  0  0  0  0  0  0  0  0
  141.5871   72.4202  220.5765 H   0  0  0  0  0  0  0  0  0  0  0  0
  143.8883   71.7141  221.1410 H   0  0  0  0  0  0  0  0  0  0  0  0
  145.2524   75.6579  220.2034 H   0  0  0  0  0  0  0  0  0  0  0  0
  142.9407   76.3626  219.6393 H   0  0  0  0  0  0  0  0  0  0  0  0
  138.2099   68.4078  222.9585 H   0  0  0  0  0  0  0  0  0  0  0  0
  139.1997   67.3356  225.0011 H   0  0  0  0  0  0  0  0  0  0  0  0
  140.3803   67.5899  227.1349 H   0  0  0  0  0  0  0  0  0  0  0  0
  141.5577   71.4627  228.5199 H   0  0  0  0  0  0  0  0  0  0  0  0
  140.5655   72.4525  226.4955 H   0  0  0  0  0  0  0  0  0  0  0  0
  1  2  2  0
  2  3  1  0
  3  4  1  0
  4  5  1  0
  5  6  2  0
  5  7  1  0
  7  8  1  0
  8  9  1  0
  9 10  1  0
 10 11  1  0
 11 12  1  0
 12 13  2  0
 13 14  1  0
 14 15  2  0
 15 16  1  0
 15 17  1  0
 17 18  2  0
  2 19  1  0
 19 20  2  0
 20 21  1  0
 21 22  2  0
 22 23  1  0
 23 24  2  0
 24 25  1  0
 24 26  1  0
 26 27  2  0
 27 28  1  0
 28 29  2  0
 11  7  1  0
 18 12  1  0
 29 19  1  0
 28 22  1  0
  3 30  1  0
  4 31  1  0
  4 32  1  0
  8 33  1  0
  8 34  1  0
  9 35  1  0
  9 36  1  0
 10 37  1  0
 10 38  1  0
 11 39  1  6
 13 40  1  0
 14 41  1  0
 17 42  1  0
 18 43  1  0
 20 44  1  0
 21 45  1  0
 23 46  1  0
 26 47  1  0
 27 48  1  0
M  END
>  <smiles>  (4) 
O=C(NCC(=O)N1CCC[C@H]1c1ccc(Cl)cc1)c1ccc2cc(F)ccc2n1

>  <score_type>  (4) 
oracle

>  <origin>  (4) 
autodockgpu

>  <m_score__min__energy>  (4) 
-9.1099999999999994

>  <m_primary>  (4) 
energy

>  <rmsd>  (4) 
2.0706910091284536

>  <m_score__min__rmsd>  (4) 
2.0706910091284536

>  <meeko>  (4) 
{"free_energy": -7.55, "intermolecular_energy": -9.04, "internal_energy": -1.76, "cluster_size": 7, "cluster_id": 4, "rank_in_cluster": 7}

>  <energy>  (4) 
-8.72

>  <cluster_rmsd>  (4) 
1.12

>  <cluster>  (4) 
1

$$$$

     RDKit          3D

 48 51  0  0  0  0  0  0  0  0999 V2000
  137.3160   75.6290  222.1460 O   0  0  0  0  0  0  0  0  0  0  0  0
  138.5350   75.8710  222.1890 C   0  0  0  0  0  0  0  0  0  0  0  0
  139.4580   74.8440  221.9120 N   0  0  0  0  0  0  0  0  0  0  0  0
  139.0040   73.5060  221.5770 C   0  0  0  0  0  0  0  0  0  0  0  0
  139.8610   72.5510  222.2900 C   0  0  0  0  0  0  0  0  0  0  0  0
  141.0810   72.7360  222.5420 O   0  0  0  0  0  0  0  0  0  0  0  0
  139.2990   71.3230  222.7380 N   0  0  0  0  0  0  0  0  0  0  0  0
  139.5060   69.9770  222.2240 C   0  0  0  0  0  0  0  0  0  0  0  0
  138.0790   69.4760  222.1530 C   0  0  0  0  0  0  0  0  0  0  0  0
  137.2960   70.3420  223.1050 C   0  0  0  0  0  0  0  0  0  0  0  0
  138.3530   71.1280  223.8560 C   0  0  1  0  0  0  0  0  0  0  0  0
  138.9930   70.3650  224.9420 C   0  0  0  0  0  0  0  0  0  0  0  0
  138.6430   69.1080  225.3410 C   0  0  0  0  0  0  0  0  0  0  0  0
  139.2780   68.4260  226.3760 C   0  0  0  0  0  0  0  0  0  0  0  0
  140.3080   69.0360  227.0340 C   0  0  0  0  0  0  0  0  0  0  0  0
  141.0980   68.1740  228.3300 Cl  0  0  0  0  0  0  0  0  0  0  0  0
  140.6820   70.3080  226.6510 C   0  0  0  0  0  0  0  0  0  0  0  0
  140.0430   70.9850  225.6160 C   0  0  0  0  0  0  0  0  0  0  0  0
  139.0000   77.2110  222.5240 C   0  0  0  0  0  0  0  0  0  0  0  0
  138.1090   78.2510  222.7000 C   0  0  0  0  0  0  0  0  0  0  0  0
  138.6250   79.5100  223.0210 C   0  0  0  0  0  0  0  0  0  0  0  0
  139.9920   79.6950  223.1540 C   0  0  0  0  0  0  0  0  0  0  0  0
  140.5560   80.9130  223.4680 C   0  0  0  0  0  0  0  0  0  0  0  0
  141.9220   81.1000  223.6030 C   0  0  0  0  0  0  0  0  0  0  0  0
  142.4630   82.3080  223.9140 F   0  0  0  0  0  0  0  0  0  0  0  0
  142.7520   80.0210  223.4140 C   0  0  0  0  0  0  0  0  0  0  0  0
  142.2130   78.8020  223.1010 C   0  0  0  0  0  0  0  0  0  0  0  0
  140.8490   78.6350  222.9720 C   0  0  0  0  0  0  0  0  0  0  0  0
  140.3250   77.4470  222.6670 N   0  0  0  0  0  0  0  0  0  0  0  0
  140.4790   75.1020  221.9620 H   0  0  0  0  0  0  0  0  0  0  0  0
  137.9575   73.3763  221.8902 H   0  0  0  0  0  0  0  0  0  0  0  0
  139.0635   73.3401  220.4912 H   0  0  0  0  0  0  0  0  0  0  0  0
  139.9795   69.9915  221.2312 H   0  0  0  0  0  0  0  0  0  0  0  0
  140.1765   69.3549  222.8351 H   0  0  0  0  0  0  0  0  0  0  0  0
  137.6869   69.5782  221.1304 H   0  0  0  0  0  0  0  0  0  0  0  0
  138.0083   68.4113  222.4204 H   0  0  0  0  0  0  0  0  0  0  0  0
  136.6258   71.0185  222.5544 H   0  0  0  0  0  0  0  0  0  0  0  0
  136.6550   69.7528  223.7773 H   0  0  0  0  0  0  0  0  0  0  0  0
  137.9778   72.0265  224.3678 H   0  0  0  0  0  0  0  0  0  0  0  0
  137.8155   68.6068  224.8175 H   0  0  0  0  0  0  0  0  0  0  0  0
  138.9555   67.4131  226.6589 H   0  0  0  0  0  0  0  0  0  0  0  0
  141.5104   70.8021  227.1798 H   0  0  0  0  0  0  0  0  0  0  0  0
  140.3636   71.9986  225.3333 H   0  0  0  0  0  0  0  0  0  0  0  0
  137.0258   78.0936  222.5909 H   0  0  0  0  0  0  0  0  0  0  0  0
  137.9416   80.3592  223.1689 H   0  0  0  0  0  0  0  0  0  0  0  0
  139.8908   81.7761  223.6183 H   0  0  0  0  0  0  0  0  0  0  0  0
  143.8414   80.1360  223.5135 H   0  0  0  0  0  0  0  0  0  0  0  0
  142.8792   77.9399  222.9496 H   0  0  0  0  0  0  0  0  0  0  0  0
  1  2  2  0
  2  3  1  0
  3  4  1  0
  4  5  1  0
  5  6  2  0
  5  7  1  0
  7  8  1  0
  8  9  1  0
  9 10  1  0
 10 11  1  0
 11 12  1  0
 12 13  2  0
 13 14  1  0
 14 15  2  0
 15 16  1  0
 15 17  1  0
 17 18  2  0
  2 19  1  0
 19 20  2  0
 20 21  1  0
 21 22  2  0
 22 23  1  0
 23 24  2  0
 24 25  1  0
 24 26  1  0
 26 27  2  0
 27 28  1  0
 28 29  2  0
 11  7  1  0
 18 12  1  0
 29 19  1  0
 28 22  1  0
  3 30  1  0
  4 31  1  0
  4 32  1  0
  8 33  1  0
  8 34  1  0
  9 35  1  0
  9 36  1  0
 10 37  1  0
 10 38  1  0
 11 39  1  1
 13 40  1  0
 14 41  1  0
 17 42  1  0
 18 43  1  0
 20 44  1  0
 21 45  1  0
 23 46  1  0
 26 47  1  0
 27 48  1  0
M  END
>  <smiles>  (5) 
O=C(NCC(=O)N1CCC[C@H]1c1ccc(Cl)cc1)c1ccc2cc(F)ccc2n1

>  <score_type>  (5) 
oracle

>  <origin>  (5) 
autodockgpu

>  <m_score__min__energy>  (5) 
-9.1099999999999994

>  <m_primary>  (5) 
energy

>  <rmsd>  (5) 
8.46110375606243

>  <m_score__min__rmsd>  (5) 
8.46110375606243

>  <meeko>  (5) 
{"free_energy": -8.2, "intermolecular_energy": -9.69, "internal_energy": -1.81, "cluster_size": 14, "cluster_id": 2, "rank_in_cluster": 13}

>  <energy>  (5) 
-8.69

>  <cluster_rmsd>  (5) 
1.15

>  <cluster>  (5) 
1

$$$$

     RDKit          3D

 48 51  0  0  0  0  0  0  0  0999 V2000
  137.2730   75.9070  222.0510 O   0  0  0  0  0  0  0  0  0  0  0  0
  138.4820   76.0680  222.2910 C   0  0  0  0  0  0  0  0  0  0  0  0
  139.3640   74.9750  222.1780 N   0  0  0  0  0  0  0  0  0  0  0  0
  138.8790   73.6640  221.7870 C   0  0  0  0  0  0  0  0  0  0  0  0
  139.8010   72.6630  222.3380 C   0  0  0  0  0  0  0  0  0  0  0  0
  141.0410   72.8310  222.4720 O   0  0  0  0  0  0  0  0  0  0  0  0
  139.2820   71.4060  222.7560 N   0  0  0  0  0  0  0  0  0  0  0  0
  139.5580   70.0780  222.2310 C   0  0  0  0  0  0  0  0  0  0  0  0
  138.1560   69.5170  222.1180 C   0  0  0  0  0  0  0  0  0  0  0  0
  137.3140   70.3360  223.0620 C   0  0  0  0  0  0  0  0  0  0  0  0
  138.3190   71.1560  223.8480 C   0  0  1  0  0  0  0  0  0  0  0  0
  138.9640   70.4060  224.9410 C   0  0  0  0  0  0  0  0  0  0  0  0
  138.6250   69.1490  225.3480 C   0  0  0  0  0  0  0  0  0  0  0  0
  139.2650   68.4790  226.3870 C   0  0  0  0  0  0  0  0  0  0  0  0
  140.2900   69.1030  227.0420 C   0  0  0  0  0  0  0  0  0  0  0  0
  141.0860   68.2570  228.3440 Cl  0  0  0  0  0  0  0  0  0  0  0  0
  140.6530   70.3760  226.6510 C   0  0  0  0  0  0  0  0  0  0  0  0
  140.0080   71.0400  225.6100 C   0  0  0  0  0  0  0  0  0  0  0  0
  138.9780   77.3800  222.6840 C   0  0  0  0  0  0  0  0  0  0  0  0
  138.1090   78.4070  222.9950 C   0  0  0  0  0  0  0  0  0  0  0  0
  138.6550   79.6400  223.3650 C   0  0  0  0  0  0  0  0  0  0  0  0
  140.0290   79.8120  223.4130 C   0  0  0  0  0  0  0  0  0  0  0  0
  140.6230   81.0050  223.7700 C   0  0  0  0  0  0  0  0  0  0  0  0
  141.9960   81.1800  223.8200 C   0  0  0  0  0  0  0  0  0  0  0  0
  142.5650   82.3620  224.1750 F   0  0  0  0  0  0  0  0  0  0  0  0
  142.8040   80.1140  223.4990 C   0  0  0  0  0  0  0  0  0  0  0  0
  142.2350   78.9220  223.1400 C   0  0  0  0  0  0  0  0  0  0  0  0
  140.8650   78.7660  223.0970 C   0  0  0  0  0  0  0  0  0  0  0  0
  140.3120   77.6030  222.7490 N   0  0  0  0  0  0  0  0  0  0  0  0
  140.3800   75.1660  222.3920 H   0  0  0  0  0  0  0  0  0  0  0  0
  137.8679   73.5035  222.1895 H   0  0  0  0  0  0  0  0  0  0  0  0
  138.8324   73.5821  220.6910 H   0  0  0  0  0  0  0  0  0  0  0  0
  140.0545   70.1260  221.2506 H   0  0  0  0  0  0  0  0  0  0  0  0
  140.2391   69.4769  222.8513 H   0  0  0  0  0  0  0  0  0  0  0  0
  137.7846   69.6166  221.0874 H   0  0  0  0  0  0  0  0  0  0  0  0
  138.1247   68.4465  222.3693 H   0  0  0  0  0  0  0  0  0  0  0  0
  136.6285   70.9908  222.5040 H   0  0  0  0  0  0  0  0  0  0  0  0
  136.6830   69.7111  223.7111 H   0  0  0  0  0  0  0  0  0  0  0  0
  137.8945   72.0314  224.3613 H   0  0  0  0  0  0  0  0  0  0  0  0
  137.8020   68.6374  224.8275 H   0  0  0  0  0  0  0  0  0  0  0  0
  138.9514   67.4650  226.6759 H   0  0  0  0  0  0  0  0  0  0  0  0
  141.4763   70.8813  227.1772 H   0  0  0  0  0  0  0  0  0  0  0  0
  140.3199   72.0541  225.3196 H   0  0  0  0  0  0  0  0  0  0  0  0
  137.0197   78.2596  222.9529 H   0  0  0  0  0  0  0  0  0  0  0  0
  137.9898   80.4783  223.6195 H   0  0  0  0  0  0  0  0  0  0  0  0
  139.9761   81.8567  224.0269 H   0  0  0  0  0  0  0  0  0  0  0  0
  143.8986   80.2187  223.5305 H   0  0  0  0  0  0  0  0  0  0  0  0
  142.8829   78.0717  222.8807 H   0  0  0  0  0  0  0  0  0  0  0  0
  1  2  2  0
  2  3  1  0
  3  4  1  0
  4  5  1  0
  5  6  2  0
  5  7  1  0
  7  8  1  0
  8  9  1  0
  9 10  1  0
 10 11  1  0
 11 12  1  0
 12 13  2  0
 13 14  1  0
 14 15  2  0
 15 16  1  0
 15 17  1  0
 17 18  2  0
  2 19  1  0
 19 20  2  0
 20 21  1  0
 21 22  2  0
 22 23  1  0
 23 24  2  0
 24 25  1  0
 24 26  1  0
 26 27  2  0
 27 28  1  0
 28 29  2  0
 11  7  1  0
 18 12  1  0
 29 19  1  0
 28 22  1  0
  3 30  1  0
  4 31  1  0
  4 32  1  0
  8 33  1  0
  8 34  1  0
  9 35  1  0
  9 36  1  0
 10 37  1  0
 10 38  1  0
 11 39  1  1
 13 40  1  0
 14 41  1  0
 17 42  1  0
 18 43  1  0
 20 44  1  0
 21 45  1  0
 23 46  1  0
 26 47  1  0
 27 48  1  0
M  END
>  <smiles>  (6) 
O=C(NCC(=O)N1CCC[C@H]1c1ccc(Cl)cc1)c1ccc2cc(F)ccc2n1

>  <score_type>  (6) 
oracle

>  <origin>  (6) 
autodockgpu

>  <m_score__min__energy>  (6) 
-9.1099999999999994

>  <m_primary>  (6) 
energy

>  <rmsd>  (6) 
8.492882981360491

>  <m_score__min__rmsd>  (6) 
8.492882981360491

>  <meeko>  (6) 
{"free_energy": -8.28, "intermolecular_energy": -9.77, "internal_energy": -1.86, "cluster_size": 14, "cluster_id": 2, "rank_in_cluster": 5}

>  <energy>  (6) 
-8.67

>  <cluster_rmsd>  (6) 
1.21

>  <cluster>  (6) 
1

$$$$

     RDKit          3D

 48 51  0  0  0  0  0  0  0  0999 V2000
  137.1900   75.9030  222.1440 O   0  0  0  0  0  0  0  0  0  0  0  0
  138.4090   76.0700  222.3200 C   0  0  0  0  0  0  0  0  0  0  0  0
  139.2850   74.9730  222.2050 N   0  0  0  0  0  0  0  0  0  0  0  0
  138.7810   73.6490  221.8860 C   0  0  0  0  0  0  0  0  0  0  0  0
  139.7890   72.6710  222.3140 C   0  0  0  0  0  0  0  0  0  0  0  0
  141.0300   72.8810  222.3190 O   0  0  0  0  0  0  0  0  0  0  0  0
  139.3590   71.3900  222.7590 N   0  0  0  0  0  0  0  0  0  0  0  0
  139.7390   70.0730  222.2680 C   0  0  0  0  0  0  0  0  0  0  0  0
  138.3830   69.4080  222.1570 C   0  0  0  0  0  0  0  0  0  0  0  0
  137.4720   70.1840  223.0720 C   0  0  0  0  0  0  0  0  0  0  0  0
  138.4050   71.0950  223.8470 C   0  0  1  0  0  0  0  0  0  0  0  0
  139.0920   70.4210  224.9640 C   0  0  0  0  0  0  0  0  0  0  0  0
  140.1600   70.9180  225.6520 C   0  0  0  0  0  0  0  0  0  0  0  0
  140.7770   70.2440  226.7020 C   0  0  0  0  0  0  0  0  0  0  0  0
  140.2970   69.0190  227.0740 C   0  0  0  0  0  0  0  0  0  0  0  0
  141.0770   68.1820  228.3910 Cl  0  0  0  0  0  0  0  0  0  0  0  0
  139.2170   68.4940  226.3940 C   0  0  0  0  0  0  0  0  0  0  0  0
  138.6040   69.1730  225.3440 C   0  0  0  0  0  0  0  0  0  0  0  0
  138.9240   77.3950  222.6400 C   0  0  0  0  0  0  0  0  0  0  0  0
  138.0740   78.4730  222.7940 C   0  0  0  0  0  0  0  0  0  0  0  0
  138.6370   79.7140  223.1020 C   0  0  0  0  0  0  0  0  0  0  0  0
  140.0080   79.8460  223.2460 C   0  0  0  0  0  0  0  0  0  0  0  0
  140.6180   81.0460  223.5490 C   0  0  0  0  0  0  0  0  0  0  0  0
  141.9890   81.1800  223.6940 C   0  0  0  0  0  0  0  0  0  0  0  0
  142.5740   82.3700  223.9940 F   0  0  0  0  0  0  0  0  0  0  0  0
  142.7770   80.0660  223.5280 C   0  0  0  0  0  0  0  0  0  0  0  0
  142.1930   78.8660  223.2270 C   0  0  0  0  0  0  0  0  0  0  0  0
  140.8250   78.7510  223.0870 C   0  0  0  0  0  0  0  0  0  0  0  0
  140.2560   77.5800  222.7930 N   0  0  0  0  0  0  0  0  0  0  0  0
  140.3090   75.1690  222.3640 H   0  0  0  0  0  0  0  0  0  0  0  0
  137.8356   73.4699  222.4190 H   0  0  0  0  0  0  0  0  0  0  0  0
  138.5922   73.5592  220.8061 H   0  0  0  0  0  0  0  0  0  0  0  0
  140.2406   70.1347  221.2910 H   0  0  0  0  0  0  0  0  0  0  0  0
  140.4568   69.5386  222.9078 H   0  0  0  0  0  0  0  0  0  0  0  0
  138.0165   69.4550  221.1209 H   0  0  0  0  0  0  0  0  0  0  0  0
  138.4283   68.3448  222.4355 H   0  0  0  0  0  0  0  0  0  0  0  0
  136.7462   70.7725  222.4916 H   0  0  0  0  0  0  0  0  0  0  0  0
  136.8815   69.5297  223.7302 H   0  0  0  0  0  0  0  0  0  0  0  0
  137.9108   71.9483  224.3344 H   0  0  0  0  0  0  0  0  0  0  0  0
  140.5543   71.9030  225.3617 H   0  0  0  0  0  0  0  0  0  0  0  0
  141.6367   70.6896  227.2239 H   0  0  0  0  0  0  0  0  0  0  0  0
  138.8283   67.5086  226.6906 H   0  0  0  0  0  0  0  0  0  0  0  0
  137.7444   68.7289  224.8208 H   0  0  0  0  0  0  0  0  0  0  0  0
  136.9863   78.3577  222.6776 H   0  0  0  0  0  0  0  0  0  0  0  0
  137.9870   80.5920  223.2310 H   0  0  0  0  0  0  0  0  0  0  0  0
  139.9866   81.9370  223.6814 H   0  0  0  0  0  0  0  0  0  0  0  0
  143.8692   80.1389  223.6364 H   0  0  0  0  0  0  0  0  0  0  0  0
  142.8258   77.9761  223.0941 H   0  0  0  0  0  0  0  0  0  0  0  0
  1  2  2  0
  2  3  1  0
  3  4  1  0
  4  5  1  0
  5  6  2  0
  5  7  1  0
  7  8  1  0
  8  9  1  0
  9 10  1  0
 10 11  1  0
 11 12  1  0
 12 13  2  0
 13 14  1  0
 14 15  2  0
 15 16  1  0
 15 17  1  0
 17 18  2  0
  2 19  1  0
 19 20  2  0
 20 21  1  0
 21 22  2  0
 22 23  1  0
 23 24  2  0
 24 25  1  0
 24 26  1  0
 26 27  2  0
 27 28  1  0
 28 29  2  0
 11  7  1  0
 18 12  1  0
 29 19  1  0
 28 22  1  0
  3 30  1  0
  4 31  1  0
  4 32  1  0
  8 33  1  0
  8 34  1  0
  9 35  1  0
  9 36  1  0
 10 37  1  0
 10 38  1  0
 11 39  1  1
 13 40  1  0
 14 41  1  0
 17 42  1  0
 18 43  1  0
 20 44  1  0
 21 45  1  0
 23 46  1  0
 26 47  1  0
 27 48  1  0
M  END
>  <smiles>  (7) 
O=C(NCC(=O)N1CCC[C@H]1c1ccc(Cl)cc1)c1ccc2cc(F)ccc2n1

>  <score_type>  (7) 
oracle

>  <origin>  (7) 
autodockgpu

>  <m_score__min__energy>  (7) 
-9.1099999999999994

>  <m_primary>  (7) 
energy

>  <rmsd>  (7) 
8.52515252970188

>  <m_score__min__rmsd>  (7) 
8.52515252970188

>  <meeko>  (7) 
{"free_energy": -8.21, "intermolecular_energy": -9.7, "internal_energy": -1.87, "cluster_size": 14, "cluster_id": 2, "rank_in_cluster": 12}

>  <energy>  (7) 
-8.66

>  <cluster_rmsd>  (7) 
0.6

>  <cluster>  (7) 
1

$$$$

     RDKit          3D

 48 51  0  0  0  0  0  0  0  0999 V2000
  141.2300   71.6590  221.5190 O   0  0  0  0  0  0  0  0  0  0  0  0
  140.4650   72.0170  222.4310 C   0  0  0  0  0  0  0  0  0  0  0  0
  139.8300   73.2720  222.3530 N   0  0  0  0  0  0  0  0  0  0  0  0
  140.0580   74.1530  221.2210 C   0  0  0  0  0  0  0  0  0  0  0  0
  139.1120   75.2710  221.3260 C   0  0  0  0  0  0  0  0  0  0  0  0
  137.9780   75.1980  221.8660 O   0  0  0  0  0  0  0  0  0  0  0  0
  139.4790   76.5360  220.7880 N   0  0  0  0  0  0  0  0  0  0  0  0
  138.6350   77.6770  220.4690 C   0  0  0  0  0  0  0  0  0  0  0  0
  139.1490   78.0360  219.0900 C   0  0  0  0  0  0  0  0  0  0  0  0
  140.5310   77.4440  219.0040 C   0  0  0  0  0  0  0  0  0  0  0  0
  140.8360   76.9900  220.4190 C   0  0  1  0  0  0  0  0  0  0  0  0
  141.2690   78.0840  221.3070 C   0  0  0  0  0  0  0  0  0  0  0  0
  141.7810   79.2810  220.8980 C   0  0  0  0  0  0  0  0  0  0  0  0
  142.1780   80.2860  221.7760 C   0  0  0  0  0  0  0  0  0  0  0  0
  142.0530   80.0760  223.1200 C   0  0  0  0  0  0  0  0  0  0  0  0
  142.5540   81.3410  224.2130 Cl  0  0  0  0  0  0  0  0  0  0  0  0
  141.5390   78.8740  223.5610 C   0  0  0  0  0  0  0  0  0  0  0  0
  141.1440   77.8720  222.6770 C   0  0  0  0  0  0  0  0  0  0  0  0
  140.2290   71.1400  223.5700 C   0  0  0  0  0  0  0  0  0  0  0  0
  139.5690   69.9360  223.4190 C   0  0  0  0  0  0  0  0  0  0  0  0
  139.3790   69.1440  224.5550 C   0  0  0  0  0  0  0  0  0  0  0  0
  139.8430   69.5670  225.7900 C   0  0  0  0  0  0  0  0  0  0  0  0
  139.6830   68.8280  226.9440 C   0  0  0  0  0  0  0  0  0  0  0  0
  140.1460   69.2480  228.1790 C   0  0  0  0  0  0  0  0  0  0  0  0
  139.9810   68.5070  229.3070 F   0  0  0  0  0  0  0  0  0  0  0  0
  140.7960   70.4570  228.2590 C   0  0  0  0  0  0  0  0  0  0  0  0
  140.9640   71.2070  227.1270 C   0  0  0  0  0  0  0  0  0  0  0  0
  140.4970   70.7720  225.9040 C   0  0  0  0  0  0  0  0  0  0  0  0
  140.6620   71.5030  224.8000 N   0  0  0  0  0  0  0  0  0  0  0  0
  139.1900   73.5270  223.1520 H   0  0  0  0  0  0  0  0  0  0  0  0
  141.0902   74.5326  221.2439 H   0  0  0  0  0  0  0  0  0  0  0  0
  139.9093   73.6108  220.2755 H   0  0  0  0  0  0  0  0  0  0  0  0
  137.5710   77.3988  220.4443 H   0  0  0  0  0  0  0  0  0  0  0  0
  138.6839   78.4973  221.2002 H   0  0  0  0  0  0  0  0  0  0  0  0
  138.4985   77.6060  218.3142 H   0  0  0  0  0  0  0  0  0  0  0  0
  139.1628   79.1246  218.9323 H   0  0  0  0  0  0  0  0  0  0  0  0
  140.5465   76.5909  218.3097 H   0  0  0  0  0  0  0  0  0  0  0  0
  141.2723   78.1632  218.6256 H   0  0  0  0  0  0  0  0  0  0  0  0
  141.6558   76.2609  220.4991 H   0  0  0  0  0  0  0  0  0  0  0  0
  141.8856   79.4613  219.8179 H   0  0  0  0  0  0  0  0  0  0  0  0
  142.5856   81.2335  221.3937 H   0  0  0  0  0  0  0  0  0  0  0  0
  141.4380   78.7015  224.6427 H   0  0  0  0  0  0  0  0  0  0  0  0
  140.7376   76.9234  223.0578 H   0  0  0  0  0  0  0  0  0  0  0  0
  139.2037   69.6101  222.4339 H   0  0  0  0  0  0  0  0  0  0  0  0
  138.8580   68.1791  224.4679 H   0  0  0  0  0  0  0  0  0  0  0  0
  139.1636   67.8605  226.8797 H   0  0  0  0  0  0  0  0  0  0  0  0
  141.1779   70.8183  229.2252 H   0  0  0  0  0  0  0  0  0  0  0  0
  141.4814   72.1754  227.1934 H   0  0  0  0  0  0  0  0  0  0  0  0
  1  2  2  0
  2  3  1  0
  3  4  1  0
  4  5  1  0
  5  6  2  0
  5  7  1  0
  7  8  1  0
  8  9  1  0
  9 10  1  0
 10 11  1  0
 11 12  1  0
 12 13  2  0
 13 14  1  0
 14 15  2  0
 15 16  1  0
 15 17  1  0
 17 18  2  0
  2 19  1  0
 19 20  2  0
 20 21  1  0
 21 22  2  0
 22 23  1  0
 23 24  2  0
 24 25  1  0
 24 26  1  0
 26 27  2  0
 27 28  1  0
 28 29  2  0
 11  7  1  0
 18 12  1  0
 29 19  1  0
 28 22  1  0
  3 30  1  0
  4 31  1  0
  4 32  1  0
  8 33  1  0
  8 34  1  0
  9 35  1  0
  9 36  1  0
 10 37  1  0
 10 38  1  0
 11 39  1  6
 13 40  1  0
 14 41  1  0
 17 42  1  0
 18 43  1  0
 20 44  1  0
 21 45  1  0
 23 46  1  0
 26 47  1  0
 27 48  1  0
M  END
>  <smiles>  (8) 
O=C(NCC(=O)N1CCC[C@H]1c1ccc(Cl)cc1)c1ccc2cc(F)ccc2n1

>  <score_type>  (8) 
oracle

>  <origin>  (8) 
autodockgpu

>  <m_score__min__energy>  (8) 
-9.1099999999999994

>  <m_primary>  (8) 
energy

>  <rmsd>  (8) 
1.8031430837513651

>  <m_score__min__rmsd>  (8) 
1.8031430837513651

>  <meeko>  (8) 
{"free_energy": -8.51, "intermolecular_energy": -10.0, "internal_energy": -1.57, "cluster_size": 27, "cluster_id": 1, "rank_in_cluster": 17}

>  <energy>  (8) 
-8.65

>  <cluster_rmsd>  (8) 
0.84

>  <cluster>  (8) 
1

$$$$

     RDKit          3D

 48 51  0  0  0  0  0  0  0  0999 V2000
  138.0590   70.9170  221.9810 O   0  0  0  0  0  0  0  0  0  0  0  0
  138.7910   71.3060  222.9080 C   0  0  0  0  0  0  0  0  0  0  0  0
  139.2840   72.6250  222.8980 N   0  0  0  0  0  0  0  0  0  0  0  0
  138.9500   73.5360  221.8180 C   0  0  0  0  0  0  0  0  0  0  0  0
  139.9060   74.6500  221.8610 C   0  0  0  0  0  0  0  0  0  0  0  0
  141.1540   74.5160  221.9550 O   0  0  0  0  0  0  0  0  0  0  0  0
  139.4130   75.9830  221.7920 N   0  0  0  0  0  0  0  0  0  0  0  0
  138.3560   76.6120  222.5690 C   0  0  0  0  0  0  0  0  0  0  0  0
  137.5700   77.3040  221.4750 C   0  0  0  0  0  0  0  0  0  0  0  0
  138.5240   77.4500  220.3190 C   0  0  0  0  0  0  0  0  0  0  0  0
  139.8730   77.0610  220.8920 C   0  0  1  0  0  0  0  0  0  0  0  0
  140.5160   78.1370  221.6670 C   0  0  0  0  0  0  0  0  0  0  0  0
  140.4920   79.4640  221.3510 C   0  0  0  0  0  0  0  0  0  0  0  0
  141.1160   80.4470  222.1150 C   0  0  0  0  0  0  0  0  0  0  0  0
  141.7910   80.0760  223.2450 C   0  0  0  0  0  0  0  0  0  0  0  0
  142.5690   81.3140  224.1960 Cl  0  0  0  0  0  0  0  0  0  0  0  0
  141.8310   78.7390  223.5870 C   0  0  0  0  0  0  0  0  0  0  0  0
  141.2050   77.7610  222.8180 C   0  0  0  0  0  0  0  0  0  0  0  0
  139.1310   70.3980  223.9960 C   0  0  0  0  0  0  0  0  0  0  0  0
  138.8420   69.0500  223.9170 C   0  0  0  0  0  0  0  0  0  0  0  0
  139.1970   68.2380  224.9970 C   0  0  0  0  0  0  0  0  0  0  0  0
  139.8210   68.7820  226.1090 C   0  0  0  0  0  0  0  0  0  0  0  0
  140.1940   68.0300  227.2030 C   0  0  0  0  0  0  0  0  0  0  0  0
  140.8170   68.5710  228.3140 C   0  0  0  0  0  0  0  0  0  0  0  0
  141.1790   67.8150  229.3850 F   0  0  0  0  0  0  0  0  0  0  0  0
  141.0770   69.9210  228.3270 C   0  0  0  0  0  0  0  0  0  0  0  0
  140.7140   70.6870  227.2520 C   0  0  0  0  0  0  0  0  0  0  0  0
  140.0940   70.1300  226.1520 C   0  0  0  0  0  0  0  0  0  0  0  0
  139.7420   70.8770  225.1050 N   0  0  0  0  0  0  0  0  0  0  0  0
  139.9000   72.9040  223.7080 H   0  0  0  0  0  0  0  0  0  0  0  0
  139.0250   73.0152  220.8520 H   0  0  0  0  0  0  0  0  0  0  0  0
  137.9208   73.9073  221.9319 H   0  0  0  0  0  0  0  0  0  0  0  0
  137.7437   75.8662  223.0971 H   0  0  0  0  0  0  0  0  0  0  0  0
  138.7139   77.2818  223.3648 H   0  0  0  0  0  0  0  0  0  0  0  0
  136.7024   76.6947  221.1818 H   0  0  0  0  0  0  0  0  0  0  0  0
  137.1822   78.2783  221.8074 H   0  0  0  0  0  0  0  0  0  0  0  0
  138.2427   76.7779  219.4949 H   0  0  0  0  0  0  0  0  0  0  0  0
  138.5236   78.4674  219.9009 H   0  0  0  0  0  0  0  0  0  0  0  0
  140.6332   76.8053  220.1392 H   0  0  0  0  0  0  0  0  0  0  0  0
  139.9511   79.7739  220.4447 H   0  0  0  0  0  0  0  0  0  0  0  0
  141.0668   81.5040  221.8146 H   0  0  0  0  0  0  0  0  0  0  0  0
  142.3739   78.4369  224.4947 H   0  0  0  0  0  0  0  0  0  0  0  0
  141.2541   76.7033  223.1161 H   0  0  0  0  0  0  0  0  0  0  0  0
  138.3469   68.6280  223.0300 H   0  0  0  0  0  0  0  0  0  0  0  0
  138.9800   67.1601  224.9648 H   0  0  0  0  0  0  0  0  0  0  0  0
  139.9867   66.9498  227.1921 H   0  0  0  0  0  0  0  0  0  0  0  0
  141.5727   70.3819  229.1941 H   0  0  0  0  0  0  0  0  0  0  0  0
  140.9205   71.7674  227.2652 H   0  0  0  0  0  0  0  0  0  0  0  0
  1  2  2  0
  2  3  1  0
  3  4  1  0
  4  5  1  0
  5  6  2  0
  5  7  1  0
  7  8  1  0
  8  9  1  0
  9 10  1  0
 10 11  1  0
 11 12  1  0
 12 13  2  0
 13 14  1  0
 14 15  2  0
 15 16  1  0
 15 17  1  0
 17 18  2  0
  2 19  1  0
 19 20  2  0
 20 21  1  0
 21 22  2  0
 22 23  1  0
 23 24  2  0
 24 25  1  0
 24 26  1  0
 26 27  2  0
 27 28  1  0
 28 29  2  0
 11  7  1  0
 18 12  1  0
 29 19  1  0
 28 22  1  0
  3 30  1  0
  4 31  1  0
  4 32  1  0
  8 33  1  0
  8 34  1  0
  9 35  1  0
  9 36  1  0
 10 37  1  0
 10 38  1  0
 11 39  1  6
 13 40  1  0
 14 41  1  0
 17 42  1  0
 18 43  1  0
 20 44  1  0
 21 45  1  0
 23 46  1  0
 26 47  1  0
 27 48  1  0
M  END
>  <smiles>  (9) 
O=C(NCC(=O)N1CCC[C@H]1c1ccc(Cl)cc1)c1ccc2cc(F)ccc2n1

>  <score_type>  (9) 
oracle

>  <origin>  (9) 
autodockgpu

>  <m_score__min__energy>  (9) 
-9.1099999999999994

>  <m_primary>  (9) 
energy

>  <rmsd>  (9) 
2.2690872416029664

>  <m_score__min__rmsd>  (9) 
2.2690872416029664

>  <meeko>  (9) 
{"free_energy": -8.57, "intermolecular_energy": -10.07, "internal_energy": -1.56, "cluster_size": 27, "cluster_id": 1, "rank_in_cluster": 12}

>  <energy>  (9) 
-8.64

>  <cluster_rmsd>  (9) 
0.67

>  <cluster>  (9) 
1

$$$$

     RDKit          3D

 48 51  0  0  0  0  0  0  0  0999 V2000
  140.2710   71.8570  221.1850 O   0  0  0  0  0  0  0  0  0  0  0  0
  139.5940   72.0850  222.2020 C   0  0  0  0  0  0  0  0  0  0  0  0
  138.7120   73.1830  222.2170 N   0  0  0  0  0  0  0  0  0  0  0  0
  138.5850   74.0520  221.0600 C   0  0  0  0  0  0  0  0  0  0  0  0
  138.7040   75.4390  221.5270 C   0  0  0  0  0  0  0  0  0  0  0  0
  137.7670   76.1020  222.0430 O   0  0  0  0  0  0  0  0  0  0  0  0
  139.9560   76.1030  221.3970 N   0  0  0  0  0  0  0  0  0  0  0  0
  140.7480   76.7760  222.4160 C   0  0  0  0  0  0  0  0  0  0  0  0
  141.0970   78.0650  221.7020 C   0  0  0  0  0  0  0  0  0  0  0  0
  140.9450   77.7700  220.2330 C   0  0  0  0  0  0  0  0  0  0  0  0
  140.7580   76.2660  220.1670 C   0  0  1  0  0  0  0  0  0  0  0  0
  142.0200   75.5120  220.2740 C   0  0  0  0  0  0  0  0  0  0  0  0
  143.2610   75.9990  219.9860 C   0  0  0  0  0  0  0  0  0  0  0  0
  144.4270   75.2460  220.1010 C   0  0  0  0  0  0  0  0  0  0  0  0
  144.3370   73.9500  220.5250 C   0  0  0  0  0  0  0  0  0  0  0  0
  145.8040   73.0150  220.6670 Cl  0  0  0  0  0  0  0  0  0  0  0  0
  143.0930   73.4320  220.8230 C   0  0  0  0  0  0  0  0  0  0  0  0
  141.9310   74.1900  220.7050 C   0  0  0  0  0  0  0  0  0  0  0  0
  139.7150   71.2190  223.3670 C   0  0  0  0  0  0  0  0  0  0  0  0
  139.3250   69.8950  223.3150 C   0  0  0  0  0  0  0  0  0  0  0  0
  139.4710   69.1220  224.4700 C   0  0  0  0  0  0  0  0  0  0  0  0
  139.9910   69.6800  225.6270 C   0  0  0  0  0  0  0  0  0  0  0  0
  140.1570   68.9660  226.7950 C   0  0  0  0  0  0  0  0  0  0  0  0
  140.6770   69.5210  227.9520 C   0  0  0  0  0  0  0  0  0  0  0  0
  140.8340   68.8030  229.0960 F   0  0  0  0  0  0  0  0  0  0  0  0
  141.0460   70.8460  227.9340 C   0  0  0  0  0  0  0  0  0  0  0  0
  140.8900   71.5730  226.7860 C   0  0  0  0  0  0  0  0  0  0  0  0
  140.3700   71.0030  225.6420 C   0  0  0  0  0  0  0  0  0  0  0  0
  140.2180   71.7130  224.5230 N   0  0  0  0  0  0  0  0  0  0  0  0
  138.1610   73.3330  223.1040 H   0  0  0  0  0  0  0  0  0  0  0  0
  139.3832   73.8308  220.3361 H   0  0  0  0  0  0  0  0  0  0  0  0
  137.6154   73.8945  220.5649 H   0  0  0  0  0  0  0  0  0  0  0  0
  140.1600   76.9643  223.3264 H   0  0  0  0  0  0  0  0  0  0  0  0
  141.6175   76.2019  222.7686 H   0  0  0  0  0  0  0  0  0  0  0  0
  140.4106   78.8694  222.0049 H   0  0  0  0  0  0  0  0  0  0  0  0
  142.1155   78.4017  221.9457 H   0  0  0  0  0  0  0  0  0  0  0  0
  140.0677   78.2897  219.8205 H   0  0  0  0  0  0  0  0  0  0  0  0
  141.8102   78.1109  219.6454 H   0  0  0  0  0  0  0  0  0  0  0  0
  140.3244   75.8990  219.2250 H   0  0  0  0  0  0  0  0  0  0  0  0
  143.3454   77.0414  219.6449 H   0  0  0  0  0  0  0  0  0  0  0  0
  145.4041   75.6871  219.8546 H   0  0  0  0  0  0  0  0  0  0  0  0
  143.0172   72.3889  221.1640 H   0  0  0  0  0  0  0  0  0  0  0  0
  140.9530   73.7498  220.9495 H   0  0  0  0  0  0  0  0  0  0  0  0
  138.9119   69.4620  222.3921 H   0  0  0  0  0  0  0  0  0  0  0  0
  139.1712   68.0637  224.4607 H   0  0  0  0  0  0  0  0  0  0  0  0
  139.8626   67.9062  226.8081 H   0  0  0  0  0  0  0  0  0  0  0  0
  141.4634   71.3173  228.8360 H   0  0  0  0  0  0  0  0  0  0  0  0
  141.1848   72.6327  226.7745 H   0  0  0  0  0  0  0  0  0  0  0  0
  1  2  2  0
  2  3  1  0
  3  4  1  0
  4  5  1  0
  5  6  2  0
  5  7  1  0
  7  8  1  0
  8  9  1  0
  9 10  1  0
 10 11  1  0
 11 12  1  0
 12 13  2  0
 13 14  1  0
 14 15  2  0
 15 16  1  0
 15 17  1  0
 17 18  2  0
  2 19  1  0
 19 20  2  0
 20 21  1  0
 21 22  2  0
 22 23  1  0
 23 24  2  0
 24 25  1  0
 24 26  1  0
 26 27  2  0
 27 28  1  0
 28 29  2  0
 11  7  1  0
 18 12  1  0
 29 19  1  0
 28 22  1  0
  3 30  1  0
  4 31  1  0
  4 32  1  0
  8 33  1  0
  8 34  1  0
  9 35  1  0
  9 36  1  0
 10 37  1  0
 10 38  1  0
 11 39  1  6
 13 40  1  0
 14 41  1  0
 17 42  1  0
 18 43  1  0
 20 44  1  0
 21 45  1  0
 23 46  1  0
 26 47  1  0
 27 48  1  0
M  END
>  <smiles>  (10) 
O=C(NCC(=O)N1CCC[C@H]1c1ccc(Cl)cc1)c1ccc2cc(F)ccc2n1

>  <score_type>  (10) 
oracle

>  <origin>  (10) 
autodockgpu

>  <m_score__min__energy>  (10) 
-9.1099999999999994

>  <m_primary>  (10) 
energy

>  <rmsd>  (10) 
2.23867737900452

>  <m_score__min__rmsd>  (10) 
2.23867737900452

>  <meeko>  (10) 
{"free_energy": -8.39, "intermolecular_energy": -9.88, "internal_energy": -1.69, "cluster_size": 7, "cluster_id": 4, "rank_in_cluster": 3}

>  <energy>  (10) 
-8.59

>  <cluster_rmsd>  (10) 
0.95

>  <cluster>  (10) 
1

$$$$

     RDKit          3D

 48 51  0  0  0  0  0  0  0  0999 V2000
  141.3900   72.2140  221.9150 O   0  0  0  0  0  0  0  0  0  0  0  0
  140.3680   72.2490  222.6210 C   0  0  0  0  0  0  0  0  0  0  0  0
  139.3810   73.2220  222.3680 N   0  0  0  0  0  0  0  0  0  0  0  0
  139.5440   74.1850  221.2940 C   0  0  0  0  0  0  0  0  0  0  0  0
  138.7220   75.3590  221.6180 C   0  0  0  0  0  0  0  0  0  0  0  0
  137.6950   75.3330  222.3440 O   0  0  0  0  0  0  0  0  0  0  0  0
  139.0930   76.6250  221.0850 N   0  0  0  0  0  0  0  0  0  0  0  0
  138.2910   77.8320  220.9450 C   0  0  0  0  0  0  0  0  0  0  0  0
  138.6210   78.2310  219.5220 C   0  0  0  0  0  0  0  0  0  0  0  0
  139.9320   77.5600  219.2050 C   0  0  0  0  0  0  0  0  0  0  0  0
  140.4080   77.0150  220.5380 C   0  0  1  0  0  0  0  0  0  0  0  0
  141.0400   78.0320  221.3980 C   0  0  0  0  0  0  0  0  0  0  0  0
  141.5820   79.2080  220.9670 C   0  0  0  0  0  0  0  0  0  0  0  0
  142.1700   80.1400  221.8180 C   0  0  0  0  0  0  0  0  0  0  0  0
  142.2120   79.8760  223.1580 C   0  0  0  0  0  0  0  0  0  0  0  0
  142.9510   81.0500  224.2170 Cl  0  0  0  0  0  0  0  0  0  0  0  0
  141.6710   78.6930  223.6200 C   0  0  0  0  0  0  0  0  0  0  0  0
  141.0850   77.7650  222.7640 C   0  0  0  0  0  0  0  0  0  0  0  0
  140.1960   71.2860  223.7010 C   0  0  0  0  0  0  0  0  0  0  0  0
  139.5590   70.0800  223.4860 C   0  0  0  0  0  0  0  0  0  0  0  0
  139.4310   69.2030  224.5670 C   0  0  0  0  0  0  0  0  0  0  0  0
  139.9310   69.5470  225.8130 C   0  0  0  0  0  0  0  0  0  0  0  0
  139.8330   68.7240  226.9140 C   0  0  0  0  0  0  0  0  0  0  0  0
  140.3320   69.0650  228.1600 C   0  0  0  0  0  0  0  0  0  0  0  0
  140.2280   68.2400  229.2360 F   0  0  0  0  0  0  0  0  0  0  0  0
  140.9560   70.2820  228.3040 C   0  0  0  0  0  0  0  0  0  0  0  0
  141.0640   71.1160  227.2240 C   0  0  0  0  0  0  0  0  0  0  0  0
  140.5610   70.7580  225.9900 C   0  0  0  0  0  0  0  0  0  0  0  0
  140.6670   71.5710  224.9380 N   0  0  0  0  0  0  0  0  0  0  0  0
  138.5340   73.2080  222.9970 H   0  0  0  0  0  0  0  0  0  0  0  0
  140.6008   74.4788  221.2115 H   0  0  0  0  0  0  0  0  0  0  0  0
  139.2307   73.7484  220.3342 H   0  0  0  0  0  0  0  0  0  0  0  0
  137.2183   77.6214  221.0676 H   0  0  0  0  0  0  0  0  0  0  0  0
  138.5025   78.6080  221.6954 H   0  0  0  0  0  0  0  0  0  0  0  0
  137.8360   77.8836  218.8342 H   0  0  0  0  0  0  0  0  0  0  0  0
  138.6864   79.3234  219.4111 H   0  0  0  0  0  0  0  0  0  0  0  0
  139.7871   76.7451  218.4805 H   0  0  0  0  0  0  0  0  0  0  0  0
  140.6578   78.2506  218.7508 H   0  0  0  0  0  0  0  0  0  0  0  0
  141.1793   76.2343  220.4635 H   0  0  0  0  0  0  0  0  0  0  0  0
  141.5528   79.4314  219.8903 H   0  0  0  0  0  0  0  0  0  0  0  0
  142.5936   81.0732  221.4183 H   0  0  0  0  0  0  0  0  0  0  0  0
  141.7041   78.4770  224.6981 H   0  0  0  0  0  0  0  0  0  0  0  0
  140.6621   76.8309  223.1622 H   0  0  0  0  0  0  0  0  0  0  0  0
  139.1640   69.8171  222.4936 H   0  0  0  0  0  0  0  0  0  0  0  0
  138.9302   68.2336  224.4278 H   0  0  0  0  0  0  0  0  0  0  0  0
  139.3349   67.7502  226.7976 H   0  0  0  0  0  0  0  0  0  0  0  0
  141.3652   70.5829  229.2797 H   0  0  0  0  0  0  0  0  0  0  0  0
  141.5612   72.0901  227.3421 H   0  0  0  0  0  0  0  0  0  0  0  0
  1  2  2  0
  2  3  1  0
  3  4  1  0
  4  5  1  0
  5  6  2  0
  5  7  1  0
  7  8  1  0
  8  9  1  0
  9 10  1  0
 10 11  1  0
 11 12  1  0
 12 13  2  0
 13 14  1  0
 14 15  2  0
 15 16  1  0
 15 17  1  0
 17 18  2  0
  2 19  1  0
 19 20  2  0
 20 21  1  0
 21 22  2  0
 22 23  1  0
 23 24  2  0
 24 25  1  0
 24 26  1  0
 26 27  2  0
 27 28  1  0
 28 29  2  0
 11  7  1  0
 18 12  1  0
 29 19  1  0
 28 22  1  0
  3 30  1  0
  4 31  1  0
  4 32  1  0
  8 33  1  0
  8 34  1  0
  9 35  1  0
  9 36  1  0
 10 37  1  0
 10 38  1  0
 11 39  1  6
 13 40  1  0
 14 41  1  0
 17 42  1  0
 18 43  1  0
 20 44  1  0
 21 45  1  0
 23 46  1  0
 26 47  1  0
 27 48  1  0
M  END
>  <smiles>  (11) 
O=C(NCC(=O)N1CCC[C@H]1c1ccc(Cl)cc1)c1ccc2cc(F)ccc2n1

>  <score_type>  (11) 
oracle

>  <origin>  (11) 
autodockgpu

>  <m_score__min__energy>  (11) 
-9.1099999999999994

>  <m_primary>  (11) 
energy

>  <rmsd>  (11) 
1.9696080824199032

>  <m_score__min__rmsd>  (11) 
1.9696080824199032

>  <meeko>  (11) 
{"free_energy": -8.56, "intermolecular_energy": -10.05, "internal_energy": -1.6, "cluster_size": 27, "cluster_id": 1, "rank_in_cluster": 14}

>  <energy>  (11) 
-8.59

>  <cluster_rmsd>  (11) 
1.22

>  <cluster>  (11) 
1

$$$$

     RDKit          3D

 48 51  0  0  0  0  0  0  0  0999 V2000
  139.7700   72.0730  220.8850 O   0  0  0  0  0  0  0  0  0  0  0  0
  139.7260   72.4710  222.0610 C   0  0  0  0  0  0  0  0  0  0  0  0
  139.6140   73.8500  222.3240 N   0  0  0  0  0  0  0  0  0  0  0  0
  139.5510   74.8120  221.2390 C   0  0  0  0  0  0  0  0  0  0  0  0
  140.8140   75.5610  221.2310 C   0  0  0  0  0  0  0  0  0  0  0  0
  141.9570   75.0340  221.2400 O   0  0  0  0  0  0  0  0  0  0  0  0
  140.7710   76.9830  221.2110 N   0  0  0  0  0  0  0  0  0  0  0  0
  140.4010   77.8750  220.1230 C   0  0  0  0  0  0  0  0  0  0  0  0
  141.5280   78.8850  220.1840 C   0  0  0  0  0  0  0  0  0  0  0  0
  142.0880   78.7830  221.5790 C   0  0  0  0  0  0  0  0  0  0  0  0
  141.1000   77.9030  222.3190 C   0  0  1  0  0  0  0  0  0  0  0  0
  139.8930   78.6210  222.7670 C   0  0  0  0  0  0  0  0  0  0  0  0
  138.6090   78.1890  222.6070 C   0  0  0  0  0  0  0  0  0  0  0  0
  137.4980   78.9030  223.0470 C   0  0  0  0  0  0  0  0  0  0  0  0
  137.6900   80.1010  223.6750 C   0  0  0  0  0  0  0  0  0  0  0  0
  136.2910   80.9900  224.2230 Cl  0  0  0  0  0  0  0  0  0  0  0  0
  138.9790   80.5620  223.8490 C   0  0  0  0  0  0  0  0  0  0  0  0
  140.0860   79.8430  223.4060 C   0  0  0  0  0  0  0  0  0  0  0  0
  139.7870   71.5130  223.1570 C   0  0  0  0  0  0  0  0  0  0  0  0
  139.3290   70.2190  223.0000 C   0  0  0  0  0  0  0  0  0  0  0  0
  139.4200   69.3540  224.0940 C   0  0  0  0  0  0  0  0  0  0  0  0
  139.9560   69.7930  225.2940 C   0  0  0  0  0  0  0  0  0  0  0  0
  140.0700   68.9840  226.4050 C   0  0  0  0  0  0  0  0  0  0  0  0
  140.6050   69.4200  227.6050 C   0  0  0  0  0  0  0  0  0  0  0  0
  140.7110   68.6090  228.6910 F   0  0  0  0  0  0  0  0  0  0  0  0
  141.0440   70.7210  227.6920 C   0  0  0  0  0  0  0  0  0  0  0  0
  140.9390   71.5420  226.6020 C   0  0  0  0  0  0  0  0  0  0  0  0
  140.4030   71.0880  225.4140 C   0  0  0  0  0  0  0  0  0  0  0  0
  140.3020   71.8890  224.3510 N   0  0  0  0  0  0  0  0  0  0  0  0
  139.5800   74.1350  223.3390 H   0  0  0  0  0  0  0  0  0  0  0  0
  139.4205   74.2877  220.2808 H   0  0  0  0  0  0  0  0  0  0  0  0
  138.6998   75.4945  221.3789 H   0  0  0  0  0  0  0  0  0  0  0  0
  140.3818   77.3485  219.1574 H   0  0  0  0  0  0  0  0  0  0  0  0
  139.3952   78.3107  220.2150 H   0  0  0  0  0  0  0  0  0  0  0  0
  142.3018   78.6423  219.4408 H   0  0  0  0  0  0  0  0  0  0  0  0
  141.1753   79.9026  219.9603 H   0  0  0  0  0  0  0  0  0  0  0  0
  143.0861   78.3209  221.5648 H   0  0  0  0  0  0  0  0  0  0  0  0
  142.2104   79.7673  222.0545 H   0  0  0  0  0  0  0  0  0  0  0  0
  141.4878   77.4605  223.2484 H   0  0  0  0  0  0  0  0  0  0  0  0
  138.4427   77.2252  222.1035 H   0  0  0  0  0  0  0  0  0  0  0  0
  136.4827   78.5093  222.8917 H   0  0  0  0  0  0  0  0  0  0  0  0
  139.1367   81.5269  224.3530 H   0  0  0  0  0  0  0  0  0  0  0  0
  141.1019   80.2360  223.5592 H   0  0  0  0  0  0  0  0  0  0  0  0
  138.9056   69.8799  222.0431 H   0  0  0  0  0  0  0  0  0  0  0  0
  139.0636   68.3174  224.0018 H   0  0  0  0  0  0  0  0  0  0  0  0
  139.7195   67.9437  226.3343 H   0  0  0  0  0  0  0  0  0  0  0  0
  141.4761   71.0985  228.6305 H   0  0  0  0  0  0  0  0  0  0  0  0
  141.2881   72.5826  226.6741 H   0  0  0  0  0  0  0  0  0  0  0  0
  1  2  2  0
  2  3  1  0
  3  4  1  0
  4  5  1  0
  5  6  2  0
  5  7  1  0
  7  8  1  0
  8  9  1  0
  9 10  1  0
 10 11  1  0
 11 12  1  0
 12 13  2  0
 13 14  1  0
 14 15  2  0
 15 16  1  0
 15 17  1  0
 17 18  2  0
  2 19  1  0
 19 20  2  0
 20 21  1  0
 21 22  2  0
 22 23  1  0
 23 24  2  0
 24 25  1  0
 24 26  1  0
 26 27  2  0
 27 28  1  0
 28 29  2  0
 11  7  1  0
 18 12  1  0
 29 19  1  0
 28 22  1  0
  3 30  1  0
  4 31  1  0
  4 32  1  0
  8 33  1  0
  8 34  1  0
  9 35  1  0
  9 36  1  0
 10 37  1  0
 10 38  1  0
 11 39  1  1
 13 40  1  0
 14 41  1  0
 17 42  1  0
 18 43  1  0
 20 44  1  0
 21 45  1  0
 23 46  1  0
 26 47  1  0
 27 48  1  0
M  END
>  <smiles>  (12) 
O=C(NCC(=O)N1CCC[C@H]1c1ccc(Cl)cc1)c1ccc2cc(F)ccc2n1

>  <score_type>  (12) 
oracle

>  <origin>  (12) 
autodockgpu

>  <m_score__min__energy>  (12) 
-9.1099999999999994

>  <m_primary>  (12) 
energy

>  <rmsd>  (12) 
2.2915687433525753

>  <m_score__min__rmsd>  (12) 
2.2915687433525753

>  <meeko>  (12) 
{"free_energy": -7.98, "intermolecular_energy": -9.47, "internal_energy": -1.41, "cluster_size": 1, "cluster_id": 5, "rank_in_cluster": 1}

>  <energy>  (12) 
-8.57

>  <cluster_rmsd>  (12) 
0.71

>  <cluster>  (12) 
1

$$$$

     RDKit          3D

 48 51  0  0  0  0  0  0  0  0999 V2000
  140.0740   71.3160  221.2600 O   0  0  0  0  0  0  0  0  0  0  0  0
  139.4980   71.6130  222.3200 C   0  0  0  0  0  0  0  0  0  0  0  0
  138.7480   72.8040  222.3930 N   0  0  0  0  0  0  0  0  0  0  0  0
  138.6400   73.6870  221.2460 C   0  0  0  0  0  0  0  0  0  0  0  0
  138.7500   75.0680  221.7320 C   0  0  0  0  0  0  0  0  0  0  0  0
  137.8590   75.6670  222.3880 O   0  0  0  0  0  0  0  0  0  0  0  0
  139.9380   75.8020  221.4570 N   0  0  0  0  0  0  0  0  0  0  0  0
  140.7360   76.6260  222.3520 C   0  0  0  0  0  0  0  0  0  0  0  0
  140.9420   77.8590  221.4980 C   0  0  0  0  0  0  0  0  0  0  0  0
  140.7250   77.4100  220.0760 C   0  0  0  0  0  0  0  0  0  0  0  0
  140.6500   75.8980  220.1660 C   0  0  1  0  0  0  0  0  0  0  0  0
  141.9700   75.2480  220.2580 C   0  0  0  0  0  0  0  0  0  0  0  0
  143.1670   75.8410  219.9810 C   0  0  0  0  0  0  0  0  0  0  0  0
  144.3910   75.1860  220.0830 C   0  0  0  0  0  0  0  0  0  0  0  0
  144.4080   73.8780  220.4810 C   0  0  0  0  0  0  0  0  0  0  0  0
  145.9470   73.0640  220.6050 Cl  0  0  0  0  0  0  0  0  0  0  0  0
  143.2110   73.2540  220.7670 C   0  0  0  0  0  0  0  0  0  0  0  0
  141.9900   73.9160  220.6630 C   0  0  0  0  0  0  0  0  0  0  0  0
  139.5990   70.7330  223.4760 C   0  0  0  0  0  0  0  0  0  0  0  0
  139.1350   69.4330  223.4260 C   0  0  0  0  0  0  0  0  0  0  0  0
  139.2660   68.6450  224.5720 C   0  0  0  0  0  0  0  0  0  0  0  0
  139.8460   69.1630  225.7190 C   0  0  0  0  0  0  0  0  0  0  0  0
  140.0010   68.4320  226.8780 C   0  0  0  0  0  0  0  0  0  0  0  0
  140.5810   68.9480  228.0240 C   0  0  0  0  0  0  0  0  0  0  0  0
  140.7260   68.2130  229.1590 F   0  0  0  0  0  0  0  0  0  0  0  0
  141.0230   70.2500  228.0050 C   0  0  0  0  0  0  0  0  0  0  0  0
  140.8780   70.9940  226.8660 C   0  0  0  0  0  0  0  0  0  0  0  0
  140.2980   70.4630  225.7320 C   0  0  0  0  0  0  0  0  0  0  0  0
  140.1590   71.1880  224.6220 N   0  0  0  0  0  0  0  0  0  0  0  0
  138.2790   73.0090  223.3150 H   0  0  0  0  0  0  0  0  0  0  0  0
  139.4505   73.4754  220.5330 H   0  0  0  0  0  0  0  0  0  0  0  0
  137.6789   73.5352  220.7329 H   0  0  0  0  0  0  0  0  0  0  0  0
  140.1912   76.8618  223.2781 H   0  0  0  0  0  0  0  0  0  0  0  0
  141.6664   76.1519  222.6978 H   0  0  0  0  0  0  0  0  0  0  0  0
  140.2155   78.6392  221.7691 H   0  0  0  0  0  0  0  0  0  0  0  0
  141.9446   78.2887  221.6399 H   0  0  0  0  0  0  0  0  0  0  0  0
  139.7873   77.8233  219.6760 H   0  0  0  0  0  0  0  0  0  0  0  0
  141.5244   77.7511  219.4017 H   0  0  0  0  0  0  0  0  0  0  0  0
  140.1898   75.4098  219.2943 H   0  0  0  0  0  0  0  0  0  0  0  0
  143.1648   76.8931  219.6599 H   0  0  0  0  0  0  0  0  0  0  0  0
  145.3282   75.7115  219.8475 H   0  0  0  0  0  0  0  0  0  0  0  0
  143.2214   72.2016  221.0869 H   0  0  0  0  0  0  0  0  0  0  0  0
  141.0517   73.3922  220.8982 H   0  0  0  0  0  0  0  0  0  0  0  0
  138.6760   69.0302  222.5111 H   0  0  0  0  0  0  0  0  0  0  0  0
  138.9061   67.6056  224.5639 H   0  0  0  0  0  0  0  0  0  0  0  0
  139.6473   67.3905  226.8925 H   0  0  0  0  0  0  0  0  0  0  0  0
  141.4896   70.6900  228.8987 H   0  0  0  0  0  0  0  0  0  0  0  0
  141.2307   72.0359  226.8539 H   0  0  0  0  0  0  0  0  0  0  0  0
  1  2  2  0
  2  3  1  0
  3  4  1  0
  4  5  1  0
  5  6  2  0
  5  7  1  0
  7  8  1  0
  8  9  1  0
  9 10  1  0
 10 11  1  0
 11 12  1  0
 12 13  2  0
 13 14  1  0
 14 15  2  0
 15 16  1  0
 15 17  1  0
 17 18  2  0
  2 19  1  0
 19 20  2  0
 20 21  1  0
 21 22  2  0
 22 23  1  0
 23 24  2  0
 24 25  1  0
 24 26  1  0
 26 27  2  0
 27 28  1  0
 28 29  2  0
 11  7  1  0
 18 12  1  0
 29 19  1  0
 28 22  1  0
  3 30  1  0
  4 31  1  0
  4 32  1  0
  8 33  1  0
  8 34  1  0
  9 35  1  0
  9 36  1  0
 10 37  1  0
 10 38  1  0
 11 39  1  6
 13 40  1  0
 14 41  1  0
 17 42  1  0
 18 43  1  0
 20 44  1  0
 21 45  1  0
 23 46  1  0
 26 47  1  0
 27 48  1  0
M  END
>  <smiles>  (13) 
O=C(NCC(=O)N1CCC[C@H]1c1ccc(Cl)cc1)c1ccc2cc(F)ccc2n1

>  <score_type>  (13) 
oracle

>  <origin>  (13) 
autodockgpu

>  <m_score__min__energy>  (13) 
-9.1099999999999994

>  <m_primary>  (13) 
energy

>  <rmsd>  (13) 
2.1362353292907

>  <m_score__min__rmsd>  (13) 
2.1362353292907

>  <meeko>  (13) 
{"free_energy": -8.38, "intermolecular_energy": -9.87, "internal_energy": -1.66, "cluster_size": 7, "cluster_id": 4, "rank_in_cluster": 4}

>  <energy>  (13) 
-8.57

>  <cluster_rmsd>  (13) 
1.07

>  <cluster>  (13) 
1

$$$$

     RDKit          3D

 48 51  0  0  0  0  0  0  0  0999 V2000
  140.7380   71.7050  221.8850 O   0  0  0  0  0  0  0  0  0  0  0  0
  139.8040   71.7320  222.7040 C   0  0  0  0  0  0  0  0  0  0  0  0
  138.7620   72.6660  222.5400 N   0  0  0  0  0  0  0  0  0  0  0  0
  138.7670   73.5980  221.4270 C   0  0  0  0  0  0  0  0  0  0  0  0
  139.6880   74.6910  221.7620 C   0  0  0  0  0  0  0  0  0  0  0  0
  140.9160   74.5440  221.9940 O   0  0  0  0  0  0  0  0  0  0  0  0
  139.1820   76.0190  221.8360 N   0  0  0  0  0  0  0  0  0  0  0  0
  138.2200   76.5840  222.7700 C   0  0  0  0  0  0  0  0  0  0  0  0
  137.3070   77.3320  221.8220 C   0  0  0  0  0  0  0  0  0  0  0  0
  138.1170   77.5630  220.5740 C   0  0  0  0  0  0  0  0  0  0  0  0
  139.5270   77.1570  220.9590 C   0  0  1  0  0  0  0  0  0  0  0  0
  140.2500   78.1910  221.7200 C   0  0  0  0  0  0  0  0  0  0  0  0
  140.1280   79.5380  221.5400 C   0  0  0  0  0  0  0  0  0  0  0  0
  140.8340   80.4790  222.2840 C   0  0  0  0  0  0  0  0  0  0  0  0
  141.6970   80.0440  223.2510 C   0  0  0  0  0  0  0  0  0  0  0  0
  142.5770   81.2310  224.1790 Cl  0  0  0  0  0  0  0  0  0  0  0  0
  141.8390   78.6870  223.4540 C   0  0  0  0  0  0  0  0  0  0  0  0
  141.1300   77.7500  222.7050 C   0  0  0  0  0  0  0  0  0  0  0  0
  139.7910   70.8000  223.8240 C   0  0  0  0  0  0  0  0  0  0  0  0
  139.2040   69.5550  223.7080 C   0  0  0  0  0  0  0  0  0  0  0  0
  139.2290   68.7120  224.8230 C   0  0  0  0  0  0  0  0  0  0  0  0
  139.8270   69.1250  226.0020 C   0  0  0  0  0  0  0  0  0  0  0  0
  139.8810   68.3370  227.1320 C   0  0  0  0  0  0  0  0  0  0  0  0
  140.4790   68.7470  228.3120 C   0  0  0  0  0  0  0  0  0  0  0  0
  140.5250   67.9570  229.4170 F   0  0  0  0  0  0  0  0  0  0  0  0
  141.0460   69.9990  228.3570 C   0  0  0  0  0  0  0  0  0  0  0  0
  141.0030   70.7990  227.2470 C   0  0  0  0  0  0  0  0  0  0  0  0
  140.4030   70.3720  226.0800 C   0  0  0  0  0  0  0  0  0  0  0  0
  140.3620   71.1520  224.9990 N   0  0  0  0  0  0  0  0  0  0  0  0
  137.9940   72.6460  223.2620 H   0  0  0  0  0  0  0  0  0  0  0  0
  139.1074   73.0884  220.5135 H   0  0  0  0  0  0  0  0  0  0  0  0
  137.7546   73.9893  221.2486 H   0  0  0  0  0  0  0  0  0  0  0  0
  137.6786   75.7985  223.3176 H   0  0  0  0  0  0  0  0  0  0  0  0
  138.6650   77.2074  223.5595 H   0  0  0  0  0  0  0  0  0  0  0  0
  136.4146   76.7305  221.5943 H   0  0  0  0  0  0  0  0  0  0  0  0
  136.9553   78.2783  222.2589 H   0  0  0  0  0  0  0  0  0  0  0  0
  137.7446   76.9401  219.7474 H   0  0  0  0  0  0  0  0  0  0  0  0
  138.0612   78.6045  220.2246 H   0  0  0  0  0  0  0  0  0  0  0  0
  140.1952   76.9590  220.1080 H   0  0  0  0  0  0  0  0  0  0  0  0
  139.4350   79.8994  220.7659 H   0  0  0  0  0  0  0  0  0  0  0  0
  140.6998   81.5547  222.0970 H   0  0  0  0  0  0  0  0  0  0  0  0
  142.5331   78.3338  224.2308 H   0  0  0  0  0  0  0  0  0  0  0  0
  141.2640   76.6739  222.8898 H   0  0  0  0  0  0  0  0  0  0  0  0
  138.7313   69.2366  222.7671 H   0  0  0  0  0  0  0  0  0  0  0  0
  138.7706   67.7138  224.7635 H   0  0  0  0  0  0  0  0  0  0  0  0
  139.4277   67.3354  227.0946 H   0  0  0  0  0  0  0  0  0  0  0  0
  141.5305   70.3550  229.2781 H   0  0  0  0  0  0  0  0  0  0  0  0
  141.4552   71.8010  227.2860 H   0  0  0  0  0  0  0  0  0  0  0  0
  1  2  2  0
  2  3  1  0
  3  4  1  0
  4  5  1  0
  5  6  2  0
  5  7  1  0
  7  8  1  0
  8  9  1  0
  9 10  1  0
 10 11  1  0
 11 12  1  0
 12 13  2  0
 13 14  1  0
 14 15  2  0
 15 16  1  0
 15 17  1  0
 17 18  2  0
  2 19  1  0
 19 20  2  0
 20 21  1  0
 21 22  2  0
 22 23  1  0
 23 24  2  0
 24 25  1  0
 24 26  1  0
 26 27  2  0
 27 28  1  0
 28 29  2  0
 11  7  1  0
 18 12  1  0
 29 19  1  0
 28 22  1  0
  3 30  1  0
  4 31  1  0
  4 32  1  0
  8 33  1  0
  8 34  1  0
  9 35  1  0
  9 36  1  0
 10 37  1  0
 10 38  1  0
 11 39  1  6
 13 40  1  0
 14 41  1  0
 17 42  1  0
 18 43  1  0
 20 44  1  0
 21 45  1  0
 23 46  1  0
 26 47  1  0
 27 48  1  0
M  END
>  <smiles>  (14) 
O=C(NCC(=O)N1CCC[C@H]1c1ccc(Cl)cc1)c1ccc2cc(F)ccc2n1

>  <score_type>  (14) 
oracle

>  <origin>  (14) 
autodockgpu

>  <m_score__min__energy>  (14) 
-9.1099999999999994

>  <m_primary>  (14) 
energy

>  <rmsd>  (14) 
2.414760905538731

>  <m_score__min__rmsd>  (14) 
2.414760905538731

>  <meeko>  (14) 
{"free_energy": -9.0, "intermolecular_energy": -10.49, "internal_energy": -1.19, "cluster_size": 27, "cluster_id": 1, "rank_in_cluster": 3}

>  <energy>  (14) 
-8.56

>  <cluster_rmsd>  (14) 
1.05

>  <cluster>  (14) 
1

$$$$

     RDKit          3D

 48 51  0  0  0  0  0  0  0  0999 V2000
  140.2210   74.1790  220.2430 O   0  0  0  0  0  0  0  0  0  0  0  0
  139.9810   74.8820  221.2390 C   0  0  0  0  0  0  0  0  0  0  0  0
  139.1360   74.3880  222.2520 N   0  0  0  0  0  0  0  0  0  0  0  0
  138.5410   73.0680  222.1460 C   0  0  0  0  0  0  0  0  0  0  0  0
  139.5870   72.0810  222.4420 C   0  0  0  0  0  0  0  0  0  0  0  0
  140.8130   72.2480  222.2120 O   0  0  0  0  0  0  0  0  0  0  0  0
  139.2150   70.8400  223.0320 N   0  0  0  0  0  0  0  0  0  0  0  0
  139.5760   69.4890  222.6300 C   0  0  0  0  0  0  0  0  0  0  0  0
  138.2260   68.8040  222.6880 C   0  0  0  0  0  0  0  0  0  0  0  0
  137.3800   69.6500  223.6030 C   0  0  0  0  0  0  0  0  0  0  0  0
  138.3570   70.6350  224.2160 C   0  0  1  0  0  0  0  0  0  0  0  0
  139.1420   70.0700  225.3280 C   0  0  0  0  0  0  0  0  0  0  0  0
  140.1530   70.7050  225.9870 C   0  0  0  0  0  0  0  0  0  0  0  0
  140.8690   70.1300  227.0340 C   0  0  0  0  0  0  0  0  0  0  0  0
  140.5500   68.8620  227.4330 C   0  0  0  0  0  0  0  0  0  0  0  0
  141.4520   68.1490  228.7450 Cl  0  0  0  0  0  0  0  0  0  0  0  0
  139.5310   68.1960  226.7820 C   0  0  0  0  0  0  0  0  0  0  0  0
  138.8200   68.7780  225.7350 C   0  0  0  0  0  0  0  0  0  0  0  0
  140.5740   76.2080  221.3540 C   0  0  0  0  0  0  0  0  0  0  0  0
  141.5040   76.6550  220.4370 C   0  0  0  0  0  0  0  0  0  0  0  0
  142.0310   77.9390  220.6080 C   0  0  0  0  0  0  0  0  0  0  0  0
  141.6230   78.7280  221.6700 C   0  0  0  0  0  0  0  0  0  0  0  0
  142.1080   80.0010  221.8890 C   0  0  0  0  0  0  0  0  0  0  0  0
  141.7010   80.7920  222.9500 C   0  0  0  0  0  0  0  0  0  0  0  0
  142.1890   82.0450  223.1500 F   0  0  0  0  0  0  0  0  0  0  0  0
  140.7700   80.2850  223.8260 C   0  0  0  0  0  0  0  0  0  0  0  0
  140.2760   79.0240  223.6280 C   0  0  0  0  0  0  0  0  0  0  0  0
  140.6930   78.2510  222.5650 C   0  0  0  0  0  0  0  0  0  0  0  0
  140.2100   77.0220  222.3730 N   0  0  0  0  0  0  0  0  0  0  0  0
  138.9650   75.0250  223.0750 H   0  0  0  0  0  0  0  0  0  0  0  0
  137.7176   72.9692  222.8687 H   0  0  0  0  0  0  0  0  0  0  0  0
  138.1358   72.9084  221.1359 H   0  0  0  0  0  0  0  0  0  0  0  0
  139.9971   69.4680  221.6140 H   0  0  0  0  0  0  0  0  0  0  0  0
  140.3512   69.0204  223.2541 H   0  0  0  0  0  0  0  0  0  0  0  0
  137.7766   68.7561  221.6851 H   0  0  0  0  0  0  0  0  0  0  0  0
  138.3103   67.7698  223.0531 H   0  0  0  0  0  0  0  0  0  0  0  0
  136.6001   70.1779  223.0346 H   0  0  0  0  0  0  0  0  0  0  0  0
  136.8560   69.0512  224.3625 H   0  0  0  0  0  0  0  0  0  0  0  0
  137.8900   71.5240  224.6650 H   0  0  0  0  0  0  0  0  0  0  0  0
  140.4171   71.7262  225.6748 H   0  0  0  0  0  0  0  0  0  0  0  0
  141.6772   70.6864  227.5313 H   0  0  0  0  0  0  0  0  0  0  0  0
  139.2727   67.1750  227.0996 H   0  0  0  0  0  0  0  0  0  0  0  0
  138.0127   68.2227  225.2351 H   0  0  0  0  0  0  0  0  0  0  0  0
  141.8211   76.0200  219.5966 H   0  0  0  0  0  0  0  0  0  0  0  0
  142.7742   78.3244  219.8945 H   0  0  0  0  0  0  0  0  0  0  0  0
  142.8526   80.4063  221.1881 H   0  0  0  0  0  0  0  0  0  0  0  0
  140.4251   80.8880  224.6789 H   0  0  0  0  0  0  0  0  0  0  0  0
  139.5322   78.6195  224.3302 H   0  0  0  0  0  0  0  0  0  0  0  0
  1  2  2  0
  2  3  1  0
  3  4  1  0
  4  5  1  0
  5  6  2  0
  5  7  1  0
  7  8  1  0
  8  9  1  0
  9 10  1  0
 10 11  1  0
 11 12  1  0
 12 13  2  0
 13 14  1  0
 14 15  2  0
 15 16  1  0
 15 17  1  0
 17 18  2  0
  2 19  1  0
 19 20  2  0
 20 21  1  0
 21 22  2  0
 22 23  1  0
 23 24  2  0
 24 25  1  0
 24 26  1  0
 26 27  2  0
 27 28  1  0
 28 29  2  0
 11  7  1  0
 18 12  1  0
 29 19  1  0
 28 22  1  0
  3 30  1  0
  4 31  1  0
  4 32  1  0
  8 33  1  0
  8 34  1  0
  9 35  1  0
  9 36  1  0
 10 37  1  0
 10 38  1  0
 11 39  1  1
 13 40  1  0
 14 41  1  0
 17 42  1  0
 18 43  1  0
 20 44  1  0
 21 45  1  0
 23 46  1  0
 26 47  1  0
 27 48  1  0
M  END
>  <smiles>  (15) 
O=C(NCC(=O)N1CCC[C@H]1c1ccc(Cl)cc1)c1ccc2cc(F)ccc2n1

>  <score_type>  (15) 
oracle

>  <origin>  (15) 
autodockgpu

>  <m_score__min__energy>  (15) 
-9.1099999999999994

>  <m_primary>  (15) 
energy

>  <rmsd>  (15) 
8.47608313764775

>  <m_score__min__rmsd>  (15) 
8.47608313764775

>  <meeko>  (15) 
{"free_energy": -8.23, "intermolecular_energy": -9.72, "internal_energy": -1.45, "cluster_size": 14, "cluster_id": 2, "rank_in_cluster": 8}

>  <energy>  (15) 
-8.56

>  <cluster_rmsd>  (15) 
1.21

>  <cluster>  (15) 
1

$$$$

     RDKit          3D

 48 51  0  0  0  0  0  0  0  0999 V2000
  141.4740   72.0810  221.7080 O   0  0  0  0  0  0  0  0  0  0  0  0
  140.5540   72.3210  222.5090 C   0  0  0  0  0  0  0  0  0  0  0  0
  139.7700   73.4790  222.3390 N   0  0  0  0  0  0  0  0  0  0  0  0
  140.0220   74.3950  221.2410 C   0  0  0  0  0  0  0  0  0  0  0  0
  139.1080   75.5340  221.3900 C   0  0  0  0  0  0  0  0  0  0  0  0
  137.9960   75.4850  221.9770 O   0  0  0  0  0  0  0  0  0  0  0  0
  139.4800   76.7920  220.8390 N   0  0  0  0  0  0  0  0  0  0  0  0
  138.6420   77.9350  220.5100 C   0  0  0  0  0  0  0  0  0  0  0  0
  139.1560   78.2790  219.1280 C   0  0  0  0  0  0  0  0  0  0  0  0
  140.5350   77.6790  219.0460 C   0  0  0  0  0  0  0  0  0  0  0  0
  140.8380   77.2370  220.4650 C   0  0  1  0  0  0  0  0  0  0  0  0
  141.2780   78.3370  221.3420 C   0  0  0  0  0  0  0  0  0  0  0  0
  141.7990   79.5260  220.9230 C   0  0  0  0  0  0  0  0  0  0  0  0
  142.2020   80.5370  221.7910 C   0  0  0  0  0  0  0  0  0  0  0  0
  142.0720   80.3420  223.1370 C   0  0  0  0  0  0  0  0  0  0  0  0
  142.5790   81.6150  224.2180 Cl  0  0  0  0  0  0  0  0  0  0  0  0
  141.5480   79.1480  223.5890 C   0  0  0  0  0  0  0  0  0  0  0  0
  141.1480   78.1400  222.7150 C   0  0  0  0  0  0  0  0  0  0  0  0
  140.2930   71.4070  223.6130 C   0  0  0  0  0  0  0  0  0  0  0  0
  139.6040   70.2270  223.4130 C   0  0  0  0  0  0  0  0  0  0  0  0
  139.3900   69.3970  224.5180 C   0  0  0  0  0  0  0  0  0  0  0  0
  139.8610   69.7600  225.7690 C   0  0  0  0  0  0  0  0  0  0  0  0
  139.6790   68.9820  226.8930 C   0  0  0  0  0  0  0  0  0  0  0  0
  140.1480   69.3420  228.1450 C   0  0  0  0  0  0  0  0  0  0  0  0
  139.9610   68.5630  229.2440 F   0  0  0  0  0  0  0  0  0  0  0  0
  140.8270   70.5310  228.2730 C   0  0  0  0  0  0  0  0  0  0  0  0
  141.0190   71.3190  227.1700 C   0  0  0  0  0  0  0  0  0  0  0  0
  140.5440   70.9430  225.9310 C   0  0  0  0  0  0  0  0  0  0  0  0
  140.7310   71.7120  224.8560 N   0  0  0  0  0  0  0  0  0  0  0  0
  139.0020   73.6360  223.0460 H   0  0  0  0  0  0  0  0  0  0  0  0
  141.0645   74.7443  221.2765 H   0  0  0  0  0  0  0  0  0  0  0  0
  139.8577   73.8934  220.2759 H   0  0  0  0  0  0  0  0  0  0  0  0
  137.5765   77.6624  220.4888 H   0  0  0  0  0  0  0  0  0  0  0  0
  138.6965   78.7616  221.2337 H   0  0  0  0  0  0  0  0  0  0  0  0
  138.5025   77.8455  218.3567 H   0  0  0  0  0  0  0  0  0  0  0  0
  139.1752   79.3660  218.9605 H   0  0  0  0  0  0  0  0  0  0  0  0
  140.5455   76.8194  218.3597 H   0  0  0  0  0  0  0  0  0  0  0  0
  141.2799   78.3904  218.6599 H   0  0  0  0  0  0  0  0  0  0  0  0
  141.6541   76.5046  220.5519 H   0  0  0  0  0  0  0  0  0  0  0  0
  141.9064   79.6950  219.8414 H   0  0  0  0  0  0  0  0  0  0  0  0
  142.6181   81.4771  221.3997 H   0  0  0  0  0  0  0  0  0  0  0  0
  141.4431   78.9875  224.6722 H   0  0  0  0  0  0  0  0  0  0  0  0
  140.7338   77.1984  223.1047 H   0  0  0  0  0  0  0  0  0  0  0  0
  139.2348   69.9484  222.4150 H   0  0  0  0  0  0  0  0  0  0  0  0
  138.8443   68.4501  224.3929 H   0  0  0  0  0  0  0  0  0  0  0  0
  139.1359   68.0310  226.7901 H   0  0  0  0  0  0  0  0  0  0  0  0
  141.2127   70.8464  229.2537 H   0  0  0  0  0  0  0  0  0  0  0  0
  141.5623   72.2698  227.2739 H   0  0  0  0  0  0  0  0  0  0  0  0
  1  2  2  0
  2  3  1  0
  3  4  1  0
  4  5  1  0
  5  6  2  0
  5  7  1  0
  7  8  1  0
  8  9  1  0
  9 10  1  0
 10 11  1  0
 11 12  1  0
 12 13  2  0
 13 14  1  0
 14 15  2  0
 15 16  1  0
 15 17  1  0
 17 18  2  0
  2 19  1  0
 19 20  2  0
 20 21  1  0
 21 22  2  0
 22 23  1  0
 23 24  2  0
 24 25  1  0
 24 26  1  0
 26 27  2  0
 27 28  1  0
 28 29  2  0
 11  7  1  0
 18 12  1  0
 29 19  1  0
 28 22  1  0
  3 30  1  0
  4 31  1  0
  4 32  1  0
  8 33  1  0
  8 34  1  0
  9 35  1  0
  9 36  1  0
 10 37  1  0
 10 38  1  0
 11 39  1  6
 13 40  1  0
 14 41  1  0
 17 42  1  0
 18 43  1  0
 20 44  1  0
 21 45  1  0
 23 46  1  0
 26 47  1  0
 27 48  1  0
M  END
>  <smiles>  (16) 
O=C(NCC(=O)N1CCC[C@H]1c1ccc(Cl)cc1)c1ccc2cc(F)ccc2n1

>  <score_type>  (16) 
oracle

>  <origin>  (16) 
autodockgpu

>  <m_score__min__energy>  (16) 
-9.1099999999999994

>  <m_primary>  (16) 
energy

>  <rmsd>  (16) 
1.9297988640281791

>  <m_score__min__rmsd>  (16) 
1.9297988640281791

>  <meeko>  (16) 
{"free_energy": -8.59, "intermolecular_energy": -10.09, "internal_energy": -1.62, "cluster_size": 27, "cluster_id": 1, "rank_in_cluster": 11}

>  <energy>  (16) 
-8.55

>  <cluster_rmsd>  (16) 
1.16

>  <cluster>  (16) 
1

$$$$

     RDKit          3D

 48 51  0  0  0  0  0  0  0  0999 V2000
  140.5020   71.6070  221.8800 O   0  0  0  0  0  0  0  0  0  0  0  0
  139.6260   71.6510  222.7600 C   0  0  0  0  0  0  0  0  0  0  0  0
  138.6020   72.6140  222.6740 N   0  0  0  0  0  0  0  0  0  0  0  0
  138.5570   73.5560  221.5710 C   0  0  0  0  0  0  0  0  0  0  0  0
  139.5470   74.6070  221.8400 C   0  0  0  0  0  0  0  0  0  0  0  0
  140.7770   74.4030  222.0090 O   0  0  0  0  0  0  0  0  0  0  0  0
  139.1110   75.9590  221.9200 N   0  0  0  0  0  0  0  0  0  0  0  0
  138.1570   76.5630  222.8390 C   0  0  0  0  0  0  0  0  0  0  0  0
  137.3080   77.3700  221.8800 C   0  0  0  0  0  0  0  0  0  0  0  0
  138.1600   77.5730  220.6540 C   0  0  0  0  0  0  0  0  0  0  0  0
  139.5360   77.0880  221.0670 C   0  0  1  0  0  0  0  0  0  0  0  0
  140.2940   78.0730  221.8590 C   0  0  0  0  0  0  0  0  0  0  0  0
  141.1280   77.7810  222.8990 C   0  0  0  0  0  0  0  0  0  0  0  0
  141.8240   78.7470  223.6190 C   0  0  0  0  0  0  0  0  0  0  0  0
  141.6740   80.0620  223.2760 C   0  0  0  0  0  0  0  0  0  0  0  0
  142.5510   81.2660  224.1850 Cl  0  0  0  0  0  0  0  0  0  0  0  0
  140.8370   80.3850  222.2280 C   0  0  0  0  0  0  0  0  0  0  0  0
  140.1420   79.4130  221.5120 C   0  0  0  0  0  0  0  0  0  0  0  0
  139.6620   70.7080  223.8710 C   0  0  0  0  0  0  0  0  0  0  0  0
  139.0880   69.4560  223.7630 C   0  0  0  0  0  0  0  0  0  0  0  0
  139.1610   68.6040  224.8670 C   0  0  0  0  0  0  0  0  0  0  0  0
  139.7920   69.0140  226.0300 C   0  0  0  0  0  0  0  0  0  0  0  0
  139.8940   68.2160  227.1500 C   0  0  0  0  0  0  0  0  0  0  0  0
  140.5250   68.6230  228.3130 C   0  0  0  0  0  0  0  0  0  0  0  0
  140.6170   67.8230  229.4090 F   0  0  0  0  0  0  0  0  0  0  0  0
  141.0760   69.8830  228.3530 C   0  0  0  0  0  0  0  0  0  0  0  0
  140.9860   70.6920  227.2530 C   0  0  0  0  0  0  0  0  0  0  0  0
  140.3540   70.2680  226.1020 C   0  0  0  0  0  0  0  0  0  0  0  0
  140.2670   71.0570  225.0300 N   0  0  0  0  0  0  0  0  0  0  0  0
  137.8830   72.6080  223.4460 H   0  0  0  0  0  0  0  0  0  0  0  0
  138.8023   73.0425  220.6297 H   0  0  0  0  0  0  0  0  0  0  0  0
  137.5507   73.9901  221.4762 H   0  0  0  0  0  0  0  0  0  0  0  0
  137.5618   75.8006  223.3629 H   0  0  0  0  0  0  0  0  0  0  0  0
  138.6148   77.1523  223.6472 H   0  0  0  0  0  0  0  0  0  0  0  0
  136.3909   76.8196  221.6231 H   0  0  0  0  0  0  0  0  0  0  0  0
  136.9960   78.3282  222.3212 H   0  0  0  0  0  0  0  0  0  0  0  0
  137.7755   76.9810  219.8104 H   0  0  0  0  0  0  0  0  0  0  0  0
  138.1679   78.6202  220.3174 H   0  0  0  0  0  0  0  0  0  0  0  0
  140.2131   76.8652  220.2292 H   0  0  0  0  0  0  0  0  0  0  0  0
  141.2568   76.7262  223.1831 H   0  0  0  0  0  0  0  0  0  0  0  0
  142.4838   78.4576  224.4502 H   0  0  0  0  0  0  0  0  0  0  0  0
  140.7147   81.4421  221.9493 H   0  0  0  0  0  0  0  0  0  0  0  0
  139.4804   79.7008  220.6817 H   0  0  0  0  0  0  0  0  0  0  0  0
  138.5885   69.1398  222.8353 H   0  0  0  0  0  0  0  0  0  0  0  0
  138.7143   67.6003  224.8127 H   0  0  0  0  0  0  0  0  0  0  0  0
  139.4532   67.2087  227.1178 H   0  0  0  0  0  0  0  0  0  0  0  0
  141.5847   70.2372  229.2617 H   0  0  0  0  0  0  0  0  0  0  0  0
  141.4259   71.6996  227.2870 H   0  0  0  0  0  0  0  0  0  0  0  0
  1  2  2  0
  2  3  1  0
  3  4  1  0
  4  5  1  0
  5  6  2  0
  5  7  1  0
  7  8  1  0
  8  9  1  0
  9 10  1  0
 10 11  1  0
 11 12  1  0
 12 13  2  0
 13 14  1  0
 14 15  2  0
 15 16  1  0
 15 17  1  0
 17 18  2  0
  2 19  1  0
 19 20  2  0
 20 21  1  0
 21 22  2  0
 22 23  1  0
 23 24  2  0
 24 25  1  0
 24 26  1  0
 26 27  2  0
 27 28  1  0
 28 29  2  0
 11  7  1  0
 18 12  1  0
 29 19  1  0
 28 22  1  0
  3 30  1  0
  4 31  1  0
  4 32  1  0
  8 33  1  0
  8 34  1  0
  9 35  1  0
  9 36  1  0
 10 37  1  0
 10 38  1  0
 11 39  1  6
 13 40  1  0
 14 41  1  0
 17 42  1  0
 18 43  1  0
 20 44  1  0
 21 45  1  0
 23 46  1  0
 26 47  1  0
 27 48  1  0
M  END
>  <smiles>  (17) 
O=C(NCC(=O)N1CCC[C@H]1c1ccc(Cl)cc1)c1ccc2cc(F)ccc2n1

>  <score_type>  (17) 
oracle

>  <origin>  (17) 
autodockgpu

>  <m_score__min__energy>  (17) 
-9.1099999999999994

>  <m_primary>  (17) 
energy

>  <rmsd>  (17) 
2.433855884049755

>  <m_score__min__rmsd>  (17) 
2.433855884049755

>  <meeko>  (17) 
{"free_energy": -9.06, "intermolecular_energy": -10.55, "internal_energy": -1.2, "cluster_size": 27, "cluster_id": 1, "rank_in_cluster": 2}

>  <energy>  (17) 
-8.51

>  <cluster_rmsd>  (17) 
1.15

>  <cluster>  (17) 
1

$$$$

     RDKit          3D

 48 51  0  0  0  0  0  0  0  0999 V2000
  137.8580   71.0940  222.1330 O   0  0  0  0  0  0  0  0  0  0  0  0
  138.7310   71.4000  222.9630 C   0  0  0  0  0  0  0  0  0  0  0  0
  139.3730   72.6500  222.8670 N   0  0  0  0  0  0  0  0  0  0  0  0
  139.0300   73.5850  221.8110 C   0  0  0  0  0  0  0  0  0  0  0  0
  140.1730   74.4860  221.6210 C   0  0  0  0  0  0  0  0  0  0  0  0
  141.3790   74.1460  221.7430 O   0  0  0  0  0  0  0  0  0  0  0  0
  139.9280   75.8440  221.2740 N   0  0  0  0  0  0  0  0  0  0  0  0
  138.7300   76.6430  221.4810 C   0  0  0  0  0  0  0  0  0  0  0  0
  138.5770   77.2880  220.1200 C   0  0  0  0  0  0  0  0  0  0  0  0
  139.9430   77.2280  219.4860 C   0  0  0  0  0  0  0  0  0  0  0  0
  140.8590   76.7780  220.6080 C   0  0  1  0  0  0  0  0  0  0  0  0
  141.2410   77.8650  221.5270 C   0  0  0  0  0  0  0  0  0  0  0  0
  141.1920   77.8060  222.8890 C   0  0  0  0  0  0  0  0  0  0  0  0
  141.5640   78.8610  223.7180 C   0  0  0  0  0  0  0  0  0  0  0  0
  142.0050   80.0230  223.1490 C   0  0  0  0  0  0  0  0  0  0  0  0
  142.4690   81.3400  224.1960 Cl  0  0  0  0  0  0  0  0  0  0  0  0
  142.0640   80.1100  221.7730 C   0  0  0  0  0  0  0  0  0  0  0  0
  141.6900   79.0500  220.9500 C   0  0  0  0  0  0  0  0  0  0  0  0
  139.0820   70.4690  224.0270 C   0  0  0  0  0  0  0  0  0  0  0  0
  138.8020   69.1210  223.9160 C   0  0  0  0  0  0  0  0  0  0  0  0
  139.1690   68.2850  224.9740 C   0  0  0  0  0  0  0  0  0  0  0  0
  139.7930   68.8060  226.0960 C   0  0  0  0  0  0  0  0  0  0  0  0
  140.1750   68.0300  227.1700 C   0  0  0  0  0  0  0  0  0  0  0  0
  140.8000   68.5480  228.2920 C   0  0  0  0  0  0  0  0  0  0  0  0
  141.1710   67.7690  229.3420 F   0  0  0  0  0  0  0  0  0  0  0  0
  141.0490   69.9000  228.3370 C   0  0  0  0  0  0  0  0  0  0  0  0
  140.6770   70.6890  227.2820 C   0  0  0  0  0  0  0  0  0  0  0  0
  140.0570   70.1540  226.1720 C   0  0  0  0  0  0  0  0  0  0  0  0
  139.6950   70.9240  225.1440 N   0  0  0  0  0  0  0  0  0  0  0  0
  140.1060   72.8600  223.5960 H   0  0  0  0  0  0  0  0  0  0  0  0
  138.8256   73.0381  220.8787 H   0  0  0  0  0  0  0  0  0  0  0  0
  138.1304   74.1573  222.0816 H   0  0  0  0  0  0  0  0  0  0  0  0
  137.8626   76.0141  221.7302 H   0  0  0  0  0  0  0  0  0  0  0  0
  138.7978   77.3554  222.3164 H   0  0  0  0  0  0  0  0  0  0  0  0
  137.8471   76.7332  219.5122 H   0  0  0  0  0  0  0  0  0  0  0  0
  138.2105   78.3221  220.1990 H   0  0  0  0  0  0  0  0  0  0  0  0
  139.9566   76.5039  218.6581 H   0  0  0  0  0  0  0  0  0  0  0  0
  140.2489   78.1931  219.0560 H   0  0  0  0  0  0  0  0  0  0  0  0
  141.8283   76.3783  220.2753 H   0  0  0  0  0  0  0  0  0  0  0  0
  140.8398   76.8751  223.3574 H   0  0  0  0  0  0  0  0  0  0  0  0
  141.5040   78.7611  224.8118 H   0  0  0  0  0  0  0  0  0  0  0  0
  142.4169   81.0444  221.3122 H   0  0  0  0  0  0  0  0  0  0  0  0
  141.7488   79.1482  219.8560 H   0  0  0  0  0  0  0  0  0  0  0  0
  138.3049   68.7175  223.0215 H   0  0  0  0  0  0  0  0  0  0  0  0
  138.9611   67.2064  224.9156 H   0  0  0  0  0  0  0  0  0  0  0  0
  139.9739   66.9491  227.1338 H   0  0  0  0  0  0  0  0  0  0  0  0
  141.5432   70.3437  229.2139 H   0  0  0  0  0  0  0  0  0  0  0  0
  140.8763   71.7701  227.3201 H   0  0  0  0  0  0  0  0  0  0  0  0
  1  2  2  0
  2  3  1  0
  3  4  1  0
  4  5  1  0
  5  6  2  0
  5  7  1  0
  7  8  1  0
  8  9  1  0
  9 10  1  0
 10 11  1  0
 11 12  1  0
 12 13  2  0
 13 14  1  0
 14 15  2  0
 15 16  1  0
 15 17  1  0
 17 18  2  0
  2 19  1  0
 19 20  2  0
 20 21  1  0
 21 22  2  0
 22 23  1  0
 23 24  2  0
 24 25  1  0
 24 26  1  0
 26 27  2  0
 27 28  1  0
 28 29  2  0
 11  7  1  0
 18 12  1  0
 29 19  1  0
 28 22  1  0
  3 30  1  0
  4 31  1  0
  4 32  1  0
  8 33  1  0
  8 34  1  0
  9 35  1  0
  9 36  1  0
 10 37  1  0
 10 38  1  0
 11 39  1  6
 13 40  1  0
 14 41  1  0
 17 42  1  0
 18 43  1  0
 20 44  1  0
 21 45  1  0
 23 46  1  0
 26 47  1  0
 27 48  1  0
M  END
>  <smiles>  (18) 
O=C(NCC(=O)N1CCC[C@H]1c1ccc(Cl)cc1)c1ccc2cc(F)ccc2n1

>  <score_type>  (18) 
oracle

>  <origin>  (18) 
autodockgpu

>  <m_score__min__energy>  (18) 
-9.1099999999999994

>  <m_primary>  (18) 
energy

>  <rmsd>  (18) 
1.7087092263871675

>  <m_score__min__rmsd>  (18) 
1.7087092263871675

>  <meeko>  (18) 
{"free_energy": -8.49, "intermolecular_energy": -9.98, "internal_energy": -1.57, "cluster_size": 27, "cluster_id": 1, "rank_in_cluster": 19}

>  <energy>  (18) 
-8.51

>  <cluster_rmsd>  (18) 
1.04

>  <cluster>  (18) 
1

$$$$

     RDKit          3D

 48 51  0  0  0  0  0  0  0  0999 V2000
  139.8120   71.1710  221.0310 O   0  0  0  0  0  0  0  0  0  0  0  0
  139.7350   71.6880  222.1590 C   0  0  0  0  0  0  0  0  0  0  0  0
  139.6550   73.0890  222.2770 N   0  0  0  0  0  0  0  0  0  0  0  0
  139.6630   73.9370  221.0980 C   0  0  0  0  0  0  0  0  0  0  0  0
  140.0320   75.2920  221.5250 C   0  0  0  0  0  0  0  0  0  0  0  0
  139.9530   75.7150  222.7080 O   0  0  0  0  0  0  0  0  0  0  0  0
  140.5150   76.2120  220.5520 N   0  0  0  0  0  0  0  0  0  0  0  0
  139.8460   76.7320  219.3690 C   0  0  0  0  0  0  0  0  0  0  0  0
  140.9350   76.5680  218.3300 C   0  0  0  0  0  0  0  0  0  0  0  0
  142.2260   76.4940  219.1020 C   0  0  0  0  0  0  0  0  0  0  0  0
  141.8390   76.8660  220.5200 C   0  0  1  0  0  0  0  0  0  0  0  0
  141.6990   78.3180  220.7300 C   0  0  0  0  0  0  0  0  0  0  0  0
  141.8140   79.2740  219.7630 C   0  0  0  0  0  0  0  0  0  0  0  0
  141.6740   80.6370  220.0090 C   0  0  0  0  0  0  0  0  0  0  0  0
  141.4070   81.0530  221.2830 C   0  0  0  0  0  0  0  0  0  0  0  0
  141.2330   82.7640  221.5820 Cl  0  0  0  0  0  0  0  0  0  0  0  0
  141.2860   80.1080  222.2800 C   0  0  0  0  0  0  0  0  0  0  0  0
  141.4270   78.7450  222.0270 C   0  0  0  0  0  0  0  0  0  0  0  0
  139.7250   70.8450  223.3480 C   0  0  0  0  0  0  0  0  0  0  0  0
  139.2310   69.5560  223.3040 C   0  0  0  0  0  0  0  0  0  0  0  0
  139.2550   68.8040  224.4810 C   0  0  0  0  0  0  0  0  0  0  0  0
  139.7600   69.3470  225.6510 C   0  0  0  0  0  0  0  0  0  0  0  0
  139.8070   68.6530  226.8420 C   0  0  0  0  0  0  0  0  0  0  0  0
  140.3120   69.1940  228.0120 C   0  0  0  0  0  0  0  0  0  0  0  0
  140.3520   68.4950  229.1780 F   0  0  0  0  0  0  0  0  0  0  0  0
  140.7890   70.4830  227.9850 C   0  0  0  0  0  0  0  0  0  0  0  0
  140.7510   71.1910  226.8140 C   0  0  0  0  0  0  0  0  0  0  0  0
  140.2440   70.6350  225.6580 C   0  0  0  0  0  0  0  0  0  0  0  0
  140.2080   71.3260  224.5170 N   0  0  0  0  0  0  0  0  0  0  0  0
  139.5910   73.4770  223.2560 H   0  0  0  0  0  0  0  0  0  0  0  0
  140.3973   73.5604  220.3707 H   0  0  0  0  0  0  0  0  0  0  0  0
  138.6726   73.9404  220.6193 H   0  0  0  0  0  0  0  0  0  0  0  0
  138.9534   76.1408  219.1163 H   0  0  0  0  0  0  0  0  0  0  0  0
  139.4692   77.7601  219.4746 H   0  0  0  0  0  0  0  0  0  0  0  0
  140.7792   75.6442  217.7535 H   0  0  0  0  0  0  0  0  0  0  0  0
  140.9389   77.4002  217.6107 H   0  0  0  0  0  0  0  0  0  0  0  0
  142.6431   75.4768  219.0664 H   0  0  0  0  0  0  0  0  0  0  0  0
  142.9996   77.1589  218.6903 H   0  0  0  0  0  0  0  0  0  0  0  0
  142.5707   76.5707  221.2864 H   0  0  0  0  0  0  0  0  0  0  0  0
  142.0288   78.9502  218.7339 H   0  0  0  0  0  0  0  0  0  0  0  0
  141.7765   81.3665  219.1921 H   0  0  0  0  0  0  0  0  0  0  0  0
  141.0716   80.4404  223.3064 H   0  0  0  0  0  0  0  0  0  0  0  0
  141.3245   78.0145  222.8430 H   0  0  0  0  0  0  0  0  0  0  0  0
  138.8307   69.1342  222.3703 H   0  0  0  0  0  0  0  0  0  0  0  0
  138.8702   67.7735  224.4787 H   0  0  0  0  0  0  0  0  0  0  0  0
  139.4254   67.6215  226.8632 H   0  0  0  0  0  0  0  0  0  0  0  0
  141.1980   70.9419  228.8972 H   0  0  0  0  0  0  0  0  0  0  0  0
  141.1320   72.2227  226.7946 H   0  0  0  0  0  0  0  0  0  0  0  0
  1  2  2  0
  2  3  1  0
  3  4  1  0
  4  5  1  0
  5  6  2  0
  5  7  1  0
  7  8  1  0
  8  9  1  0
  9 10  1  0
 10 11  1  0
 11 12  1  0
 12 13  2  0
 13 14  1  0
 14 15  2  0
 15 16  1  0
 15 17  1  0
 17 18  2  0
  2 19  1  0
 19 20  2  0
 20 21  1  0
 21 22  2  0
 22 23  1  0
 23 24  2  0
 24 25  1  0
 24 26  1  0
 26 27  2  0
 27 28  1  0
 28 29  2  0
 11  7  1  0
 18 12  1  0
 29 19  1  0
 28 22  1  0
  3 30  1  0
  4 31  1  0
  4 32  1  0
  8 33  1  0
  8 34  1  0
  9 35  1  0
  9 36  1  0
 10 37  1  0
 10 38  1  0
 11 39  1  1
 13 40  1  0
 14 41  1  0
 17 42  1  0
 18 43  1  0
 20 44  1  0
 21 45  1  0
 23 46  1  0
 26 47  1  0
 27 48  1  0
M  END
>  <smiles>  (19) 
O=C(NCC(=O)N1CCC[C@H]1c1ccc(Cl)cc1)c1ccc2cc(F)ccc2n1

>  <score_type>  (19) 
oracle

>  <origin>  (19) 
autodockgpu

>  <m_score__min__energy>  (19) 
-9.1099999999999994

>  <m_primary>  (19) 
energy

>  <rmsd>  (19) 
1.3127594781084495

>  <m_score__min__rmsd>  (19) 
1.3127594781084495

>  <meeko>  (19) 
{"free_energy": -7.95, "intermolecular_energy": -9.44, "internal_energy": -1.79, "cluster_size": 27, "cluster_id": 1, "rank_in_cluster": 27}

>  <energy>  (19) 
-8.49

>  <cluster_rmsd>  (19) 
0.98

>  <cluster>  (19) 
1

$$$$

     RDKit          3D

 48 51  0  0  0  0  0  0  0  0999 V2000
  140.3080   71.2860  221.2100 O   0  0  0  0  0  0  0  0  0  0  0  0
  139.8800   71.7180  222.2950 C   0  0  0  0  0  0  0  0  0  0  0  0
  139.4370   73.0520  222.3850 N   0  0  0  0  0  0  0  0  0  0  0  0
  139.4740   73.9290  221.2290 C   0  0  0  0  0  0  0  0  0  0  0  0
  139.0920   75.2750  221.6750 C   0  0  0  0  0  0  0  0  0  0  0  0
  138.2730   75.5150  222.5990 O   0  0  0  0  0  0  0  0  0  0  0  0
  139.6740   76.4030  221.0330 N   0  0  0  0  0  0  0  0  0  0  0  0
  139.0220   77.4920  220.3220 C   0  0  0  0  0  0  0  0  0  0  0  0
  139.8760   77.5700  219.0730 C   0  0  0  0  0  0  0  0  0  0  0  0
  141.1880   76.9260  219.4370 C   0  0  0  0  0  0  0  0  0  0  0  0
  141.1110   76.7360  220.9400 C   0  0  1  0  0  0  0  0  0  0  0  0
  141.4040   77.9620  221.7040 C   0  0  0  0  0  0  0  0  0  0  0  0
  141.8130   79.1490  221.1710 C   0  0  0  0  0  0  0  0  0  0  0  0
  142.0790   80.2830  221.9340 C   0  0  0  0  0  0  0  0  0  0  0  0
  141.9260   80.2160  223.2910 C   0  0  0  0  0  0  0  0  0  0  0  0
  142.2620   81.6420  224.2390 Cl  0  0  0  0  0  0  0  0  0  0  0  0
  141.5130   79.0270  223.8560 C   0  0  0  0  0  0  0  0  0  0  0  0
  141.2490   77.8960  223.0860 C   0  0  0  0  0  0  0  0  0  0  0  0
  139.8390   70.8450  223.4610 C   0  0  0  0  0  0  0  0  0  0  0  0
  139.2530   69.5960  223.3960 C   0  0  0  0  0  0  0  0  0  0  0  0
  139.2510   68.8120  224.5530 C   0  0  0  0  0  0  0  0  0  0  0  0
  139.8210   69.2860  225.7230 C   0  0  0  0  0  0  0  0  0  0  0  0
  139.8470   68.5570  226.8930 C   0  0  0  0  0  0  0  0  0  0  0  0
  140.4170   69.0280  228.0640 C   0  0  0  0  0  0  0  0  0  0  0  0
  140.4350   68.2960  229.2100 F   0  0  0  0  0  0  0  0  0  0  0  0
  140.9840   70.2810  228.0580 C   0  0  0  0  0  0  0  0  0  0  0  0
  140.9690   71.0220  226.9080 C   0  0  0  0  0  0  0  0  0  0  0  0
  140.3970   70.5350  225.7500 C   0  0  0  0  0  0  0  0  0  0  0  0
  140.3830   71.2580  224.6290 N   0  0  0  0  0  0  0  0  0  0  0  0
  139.0840   73.3680  223.3280 H   0  0  0  0  0  0  0  0  0  0  0  0
  140.4895   73.9488  220.8066 H   0  0  0  0  0  0  0  0  0  0  0  0
  138.7825   73.5706  220.4522 H   0  0  0  0  0  0  0  0  0  0  0  0
  137.9761   77.2497  220.0824 H   0  0  0  0  0  0  0  0  0  0  0  0
  138.9594   78.4323  220.8894 H   0  0  0  0  0  0  0  0  0  0  0  0
  139.3973   77.0249  218.2461 H   0  0  0  0  0  0  0  0  0  0  0  0
  140.0122   78.6088  218.7379 H   0  0  0  0  0  0  0  0  0  0  0  0
  141.3009   75.9576  218.9275 H   0  0  0  0  0  0  0  0  0  0  0  0
  142.0523   77.5358  219.1352 H   0  0  0  0  0  0  0  0  0  0  0  0
  141.8291   76.0089  221.3470 H   0  0  0  0  0  0  0  0  0  0  0  0
  141.9395   79.2139  220.0802 H   0  0  0  0  0  0  0  0  0  0  0  0
  142.4066   81.2166  221.4533 H   0  0  0  0  0  0  0  0  0  0  0  0
  141.3883   78.9701  224.9474 H   0  0  0  0  0  0  0  0  0  0  0  0
  140.9217   76.9613  223.5648 H   0  0  0  0  0  0  0  0  0  0  0  0
  138.8017   69.2295  222.4622 H   0  0  0  0  0  0  0  0  0  0  0  0
  138.7937   67.8117  224.5343 H   0  0  0  0  0  0  0  0  0  0  0  0
  139.3939   67.5546  226.8965 H   0  0  0  0  0  0  0  0  0  0  0  0
  141.4461   70.6844  228.9711 H   0  0  0  0  0  0  0  0  0  0  0  0
  141.4213   72.0247  226.9062 H   0  0  0  0  0  0  0  0  0  0  0  0
  1  2  2  0
  2  3  1  0
  3  4  1  0
  4  5  1  0
  5  6  2  0
  5  7  1  0
  7  8  1  0
  8  9  1  0
  9 10  1  0
 10 11  1  0
 11 12  1  0
 12 13  2  0
 13 14  1  0
 14 15  2  0
 15 16  1  0
 15 17  1  0
 17 18  2  0
  2 19  1  0
 19 20  2  0
 20 21  1  0
 21 22  2  0
 22 23  1  0
 23 24  2  0
 24 25  1  0
 24 26  1  0
 26 27  2  0
 27 28  1  0
 28 29  2  0
 11  7  1  0
 18 12  1  0
 29 19  1  0
 28 22  1  0
  3 30  1  0
  4 31  1  0
  4 32  1  0
  8 33  1  0
  8 34  1  0
  9 35  1  0
  9 36  1  0
 10 37  1  0
 10 38  1  0
 11 39  1  1
 13 40  1  0
 14 41  1  0
 17 42  1  0
 18 43  1  0
 20 44  1  0
 21 45  1  0
 23 46  1  0
 26 47  1  0
 27 48  1  0
M  END
>  <smiles>  (20) 
O=C(NCC(=O)N1CCC[C@H]1c1ccc(Cl)cc1)c1ccc2cc(F)ccc2n1

>  <score_type>  (20) 
oracle

>  <origin>  (20) 
autodockgpu

>  <m_score__min__energy>  (20) 
-9.1099999999999994

>  <m_primary>  (20) 
energy

>  <rmsd>  (20) 
1.5535444629520998

>  <m_score__min__rmsd>  (20) 
1.5535444629520998

>  <meeko>  (20) 
{"free_energy": -8.57, "intermolecular_energy": -10.06, "internal_energy": -1.62, "cluster_size": 27, "cluster_id": 1, "rank_in_cluster": 13}

>  <energy>  (20) 
-8.48

>  <cluster_rmsd>  (20) 
1.2

>  <cluster>  (20) 
1

$$$$

     RDKit          3D

 48 51  0  0  0  0  0  0  0  0999 V2000
  138.1510   71.2320  221.7050 O   0  0  0  0  0  0  0  0  0  0  0  0
  138.8470   71.5860  222.6720 C   0  0  0  0  0  0  0  0  0  0  0  0
  139.3530   72.9000  222.7190 N   0  0  0  0  0  0  0  0  0  0  0  0
  139.0730   73.8450  221.6530 C   0  0  0  0  0  0  0  0  0  0  0  0
  140.2170   74.7590  221.5530 C   0  0  0  0  0  0  0  0  0  0  0  0
  141.4080   74.4430  221.8060 O   0  0  0  0  0  0  0  0  0  0  0  0
  139.9900   76.1030  221.1430 N   0  0  0  0  0  0  0  0  0  0  0  0
  138.7950   76.9190  221.2940 C   0  0  0  0  0  0  0  0  0  0  0  0
  138.6710   77.5050  219.9030 C   0  0  0  0  0  0  0  0  0  0  0  0
  140.0450   77.4060  219.2960 C   0  0  0  0  0  0  0  0  0  0  0  0
  140.9390   76.9990  220.4510 C   0  0  1  0  0  0  0  0  0  0  0  0
  141.3170   78.1220  221.3270 C   0  0  0  0  0  0  0  0  0  0  0  0
  141.6300   79.3830  220.9090 C   0  0  0  0  0  0  0  0  0  0  0  0
  141.9810   80.4140  221.7760 C   0  0  0  0  0  0  0  0  0  0  0  0
  142.0170   80.1640  223.1190 C   0  0  0  0  0  0  0  0  0  0  0  0
  142.4590   81.4630  224.1980 Cl  0  0  0  0  0  0  0  0  0  0  0  0
  141.7050   78.8970  223.5690 C   0  0  0  0  0  0  0  0  0  0  0  0
  141.3550   77.8700  222.6960 C   0  0  0  0  0  0  0  0  0  0  0  0
  139.1330   70.6450  223.7470 C   0  0  0  0  0  0  0  0  0  0  0  0
  138.7780   69.3150  223.6430 C   0  0  0  0  0  0  0  0  0  0  0  0
  139.0850   68.4690  224.7120 C   0  0  0  0  0  0  0  0  0  0  0  0
  139.7260   68.9630  225.8370 C   0  0  0  0  0  0  0  0  0  0  0  0
  140.0520   68.1750  226.9210 C   0  0  0  0  0  0  0  0  0  0  0  0
  140.6930   68.6670  228.0460 C   0  0  0  0  0  0  0  0  0  0  0  0
  141.0090   67.8760  229.1060 F   0  0  0  0  0  0  0  0  0  0  0  0
  141.0190   70.0020  228.0830 C   0  0  0  0  0  0  0  0  0  0  0  0
  140.7030   70.8030  227.0180 C   0  0  0  0  0  0  0  0  0  0  0  0
  140.0650   70.2950  225.9050 C   0  0  0  0  0  0  0  0  0  0  0  0
  139.7590   71.0750  224.8680 N   0  0  0  0  0  0  0  0  0  0  0  0
  139.9380   73.1500  223.5610 H   0  0  0  0  0  0  0  0  0  0  0  0
  138.9386   73.3080  220.7024 H   0  0  0  0  0  0  0  0  0  0  0  0
  138.1509   74.4050  221.8678 H   0  0  0  0  0  0  0  0  0  0  0  0
  137.9184   76.3080  221.5551 H   0  0  0  0  0  0  0  0  0  0  0  0
  138.8539   77.6667  222.0986 H   0  0  0  0  0  0  0  0  0  0  0  0
  137.9463   76.9302  219.3077 H   0  0  0  0  0  0  0  0  0  0  0  0
  138.3130   78.5448  219.9306 H   0  0  0  0  0  0  0  0  0  0  0  0
  140.0656   76.6458  218.5012 H   0  0  0  0  0  0  0  0  0  0  0  0
  140.3661   78.3489  218.8292 H   0  0  0  0  0  0  0  0  0  0  0  0
  141.9097   76.5771  220.1513 H   0  0  0  0  0  0  0  0  0  0  0  0
  141.6035   79.5958  219.8301 H   0  0  0  0  0  0  0  0  0  0  0  0
  142.2253   81.4133  221.3865 H   0  0  0  0  0  0  0  0  0  0  0  0
  141.7337   78.6924  224.6494 H   0  0  0  0  0  0  0  0  0  0  0  0
  141.1110   76.8700  223.0839 H   0  0  0  0  0  0  0  0  0  0  0  0
  138.2689   68.9328  222.7459 H   0  0  0  0  0  0  0  0  0  0  0  0
  138.8160   67.4036  224.6602 H   0  0  0  0  0  0  0  0  0  0  0  0
  139.7910   67.1068  226.8907 H   0  0  0  0  0  0  0  0  0  0  0  0
  141.5298   70.4236  228.9613 H   0  0  0  0  0  0  0  0  0  0  0  0
  140.9627   71.8714  227.0505 H   0  0  0  0  0  0  0  0  0  0  0  0
  1  2  2  0
  2  3  1  0
  3  4  1  0
  4  5  1  0
  5  6  2  0
  5  7  1  0
  7  8  1  0
  8  9  1  0
  9 10  1  0
 10 11  1  0
 11 12  1  0
 12 13  2  0
 13 14  1  0
 14 15  2  0
 15 16  1  0
 15 17  1  0
 17 18  2  0
  2 19  1  0
 19 20  2  0
 20 21  1  0
 21 22  2  0
 22 23  1  0
 23 24  2  0
 24 25  1  0
 24 26  1  0
 26 27  2  0
 27 28  1  0
 28 29  2  0
 11  7  1  0
 18 12  1  0
 29 19  1  0
 28 22  1  0
  3 30  1  0
  4 31  1  0
  4 32  1  0
  8 33  1  0
  8 34  1  0
  9 35  1  0
  9 36  1  0
 10 37  1  0
 10 38  1  0
 11 39  1  6
 13 40  1  0
 14 41  1  0
 17 42  1  0
 18 43  1  0
 20 44  1  0
 21 45  1  0
 23 46  1  0
 26 47  1  0
 27 48  1  0
M  END
>  <smiles>  (21) 
O=C(NCC(=O)N1CCC[C@H]1c1ccc(Cl)cc1)c1ccc2cc(F)ccc2n1

>  <score_type>  (21) 
oracle

>  <origin>  (21) 
autodockgpu

>  <m_score__min__energy>  (21) 
-9.1099999999999994

>  <m_primary>  (21) 
energy

>  <rmsd>  (21) 
1.6052025638044962

>  <m_score__min__rmsd>  (21) 
1.6052025638044962

>  <meeko>  (21) 
{"free_energy": -8.46, "intermolecular_energy": -9.95, "internal_energy": -1.6, "cluster_size": 27, "cluster_id": 1, "rank_in_cluster": 22}

>  <energy>  (21) 
-8.48

>  <cluster_rmsd>  (21) 
1.22

>  <cluster>  (21) 
1

$$$$

     RDKit          3D

 48 51  0  0  0  0  0  0  0  0999 V2000
  140.7280   73.3220  222.3480 O   0  0  0  0  0  0  0  0  0  0  0  0
  139.7170   72.6590  222.6330 C   0  0  0  0  0  0  0  0  0  0  0  0
  138.5010   72.9270  221.9740 N   0  0  0  0  0  0  0  0  0  0  0  0
  138.4150   73.9690  220.9670 C   0  0  0  0  0  0  0  0  0  0  0  0
  138.7260   75.2480  221.6180 C   0  0  0  0  0  0  0  0  0  0  0  0
  138.2460   75.6240  222.7180 O   0  0  0  0  0  0  0  0  0  0  0  0
  139.6300   76.1430  220.9800 N   0  0  0  0  0  0  0  0  0  0  0  0
  139.3700   77.1170  219.9300 C   0  0  0  0  0  0  0  0  0  0  0  0
  140.5180   76.8310  218.9850 C   0  0  0  0  0  0  0  0  0  0  0  0
  141.5690   76.1440  219.8170 C   0  0  0  0  0  0  0  0  0  0  0  0
  141.0760   76.2910  221.2430 C   0  0  1  0  0  0  0  0  0  0  0  0
  141.3580   77.6130  221.8300 C   0  0  0  0  0  0  0  0  0  0  0  0
  141.8500   78.6920  221.1540 C   0  0  0  0  0  0  0  0  0  0  0  0
  142.1010   79.9240  221.7510 C   0  0  0  0  0  0  0  0  0  0  0  0
  141.8460   80.0740  223.0860 C   0  0  0  0  0  0  0  0  0  0  0  0
  142.1640   81.6220  223.8270 Cl  0  0  0  0  0  0  0  0  0  0  0  0
  141.3480   78.9990  223.7930 C   0  0  0  0  0  0  0  0  0  0  0  0
  141.0990   77.7690  223.1890 C   0  0  0  0  0  0  0  0  0  0  0  0
  139.7940   71.6110  223.6430 C   0  0  0  0  0  0  0  0  0  0  0  0
  139.3660   70.3260  223.3710 C   0  0  0  0  0  0  0  0  0  0  0  0
  139.4710   69.3720  224.3860 C   0  0  0  0  0  0  0  0  0  0  0  0
  139.9890   69.7170  225.6240 C   0  0  0  0  0  0  0  0  0  0  0  0
  140.1150   68.8180  226.6620 C   0  0  0  0  0  0  0  0  0  0  0  0
  140.6330   69.1600  227.8990 C   0  0  0  0  0  0  0  0  0  0  0  0
  140.7520   68.2610  228.9120 F   0  0  0  0  0  0  0  0  0  0  0  0
  141.0410   70.4580  228.1020 C   0  0  0  0  0  0  0  0  0  0  0  0
  140.9250   71.3670  227.0860 C   0  0  0  0  0  0  0  0  0  0  0  0
  140.4060   71.0070  225.8590 C   0  0  0  0  0  0  0  0  0  0  0  0
  140.2930   71.8940  224.8690 N   0  0  0  0  0  0  0  0  0  0  0  0
  137.6730   72.3360  222.2540 H   0  0  0  0  0  0  0  0  0  0  0  0
  139.1389   73.7727  220.1624 H   0  0  0  0  0  0  0  0  0  0  0  0
  137.4072   73.9964  220.5271 H   0  0  0  0  0  0  0  0  0  0  0  0
  138.3965   76.9426  219.4484 H   0  0  0  0  0  0  0  0  0  0  0  0
  139.3169   78.1588  220.2790 H   0  0  0  0  0  0  0  0  0  0  0  0
  140.1869   76.1746  218.1668 H   0  0  0  0  0  0  0  0  0  0  0  0
  140.9034   77.7522  218.5237 H   0  0  0  0  0  0  0  0  0  0  0  0
  141.6514   75.0824  219.5411 H   0  0  0  0  0  0  0  0  0  0  0  0
  142.5690   76.5786  219.6720 H   0  0  0  0  0  0  0  0  0  0  0  0
  141.5360   75.5947  221.9597 H   0  0  0  0  0  0  0  0  0  0  0  0
  142.0594   78.5819  220.0797 H   0  0  0  0  0  0  0  0  0  0  0  0
  142.4975   80.7622  221.1593 H   0  0  0  0  0  0  0  0  0  0  0  0
  141.1412   79.1170  224.8669 H   0  0  0  0  0  0  0  0  0  0  0  0
  140.7020   76.9299  223.7793 H   0  0  0  0  0  0  0  0  0  0  0  0
  138.9551   70.0621  222.3853 H   0  0  0  0  0  0  0  0  0  0  0  0
  139.1400   68.3394  224.2011 H   0  0  0  0  0  0  0  0  0  0  0  0
  139.7885   67.7803  226.4992 H   0  0  0  0  0  0  0  0  0  0  0  0
  141.4572   70.7627  229.0736 H   0  0  0  0  0  0  0  0  0  0  0  0
  141.2516   72.4045  227.2503 H   0  0  0  0  0  0  0  0  0  0  0  0
  1  2  2  0
  2  3  1  0
  3  4  1  0
  4  5  1  0
  5  6  2  0
  5  7  1  0
  7  8  1  0
  8  9  1  0
  9 10  1  0
 10 11  1  0
 11 12  1  0
 12 13  2  0
 13 14  1  0
 14 15  2  0
 15 16  1  0
 15 17  1  0
 17 18  2  0
  2 19  1  0
 19 20  2  0
 20 21  1  0
 21 22  2  0
 22 23  1  0
 23 24  2  0
 24 25  1  0
 24 26  1  0
 26 27  2  0
 27 28  1  0
 28 29  2  0
 11  7  1  0
 18 12  1  0
 29 19  1  0
 28 22  1  0
  3 30  1  0
  4 31  1  0
  4 32  1  0
  8 33  1  0
  8 34  1  0
  9 35  1  0
  9 36  1  0
 10 37  1  0
 10 38  1  0
 11 39  1  1
 13 40  1  0
 14 41  1  0
 17 42  1  0
 18 43  1  0
 20 44  1  0
 21 45  1  0
 23 46  1  0
 26 47  1  0
 27 48  1  0
M  END
>  <smiles>  (22) 
O=C(NCC(=O)N1CCC[C@H]1c1ccc(Cl)cc1)c1ccc2cc(F)ccc2n1

>  <score_type>  (22) 
oracle

>  <origin>  (22) 
autodockgpu

>  <m_score__min__energy>  (22) 
-9.1099999999999994

>  <m_primary>  (22) 
energy

>  <rmsd>  (22) 
1.633273735354815

>  <m_score__min__rmsd>  (22) 
1.633273735354815

>  <meeko>  (22) 
{"free_energy": -8.56, "intermolecular_energy": -10.05, "internal_energy": -1.34, "cluster_size": 27, "cluster_id": 1, "rank_in_cluster": 15}

>  <energy>  (22) 
-8.46

>  <cluster_rmsd>  (22) 
0.96

>  <cluster>  (22) 
1

$$$$

     RDKit          3D

 48 51  0  0  0  0  0  0  0  0999 V2000
  138.1790   70.9490  221.4170 O   0  0  0  0  0  0  0  0  0  0  0  0
  138.6980   71.4660  222.4210 C   0  0  0  0  0  0  0  0  0  0  0  0
  138.9070   72.8580  222.4570 N   0  0  0  0  0  0  0  0  0  0  0  0
  138.5250   73.6970  221.3350 C   0  0  0  0  0  0  0  0  0  0  0  0
  138.6830   75.0970  221.7490 C   0  0  0  0  0  0  0  0  0  0  0  0
  137.8000   75.7690  222.3440 O   0  0  0  0  0  0  0  0  0  0  0  0
  139.9090   75.7630  221.4710 N   0  0  0  0  0  0  0  0  0  0  0  0
  140.7350   76.5720  222.3550 C   0  0  0  0  0  0  0  0  0  0  0  0
  141.0140   77.7680  221.4690 C   0  0  0  0  0  0  0  0  0  0  0  0
  140.7940   77.2900  220.0580 C   0  0  0  0  0  0  0  0  0  0  0  0
  140.6430   75.7860  220.1890 C   0  0  1  0  0  0  0  0  0  0  0  0
  141.9270   75.0750  220.3190 C   0  0  0  0  0  0  0  0  0  0  0  0
  142.0790   73.7830  220.7330 C   0  0  0  0  0  0  0  0  0  0  0  0
  143.3150   73.1520  220.8410 C   0  0  0  0  0  0  0  0  0  0  0  0
  144.4440   73.8510  220.5170 C   0  0  0  0  0  0  0  0  0  0  0  0
  145.9890   73.0520  220.6550 Cl  0  0  0  0  0  0  0  0  0  0  0  0
  144.3180   75.1590  220.0960 C   0  0  0  0  0  0  0  0  0  0  0  0
  143.0780   75.7850  219.9910 C   0  0  0  0  0  0  0  0  0  0  0  0
  139.0840   70.6310  223.5520 C   0  0  0  0  0  0  0  0  0  0  0  0
  138.8800   69.2660  223.5330 C   0  0  0  0  0  0  0  0  0  0  0  0
  139.2760   68.5280  224.6510 C   0  0  0  0  0  0  0  0  0  0  0  0
  139.8530   69.1600  225.7410 C   0  0  0  0  0  0  0  0  0  0  0  0
  140.2620   68.4830  226.8710 C   0  0  0  0  0  0  0  0  0  0  0  0
  140.8390   69.1120  227.9610 C   0  0  0  0  0  0  0  0  0  0  0  0
  141.2380   68.4300  229.0670 F   0  0  0  0  0  0  0  0  0  0  0  0
  141.0140   70.4750  227.9130 C   0  0  0  0  0  0  0  0  0  0  0  0
  140.6150   71.1670  226.8020 C   0  0  0  0  0  0  0  0  0  0  0  0
  140.0410   70.5220  225.7250 C   0  0  0  0  0  0  0  0  0  0  0  0
  139.6530   71.1980  224.6410 N   0  0  0  0  0  0  0  0  0  0  0  0
  139.3500   73.2460  223.3320 H   0  0  0  0  0  0  0  0  0  0  0  0
  139.1736   73.4862  220.4719 H   0  0  0  0  0  0  0  0  0  0  0  0
  137.4836   73.4974  221.0423 H   0  0  0  0  0  0  0  0  0  0  0  0
  140.1900   76.8614  223.2656 H   0  0  0  0  0  0  0  0  0  0  0  0
  141.6355   76.0627  222.7287 H   0  0  0  0  0  0  0  0  0  0  0  0
  140.3241   78.5910  221.7071 H   0  0  0  0  0  0  0  0  0  0  0  0
  142.0351   78.1508  221.6134 H   0  0  0  0  0  0  0  0  0  0  0  0
  139.8833   77.7372  219.6330 H   0  0  0  0  0  0  0  0  0  0  0  0
  141.6181   77.5720  219.3862 H   0  0  0  0  0  0  0  0  0  0  0  0
  140.1716   75.2957  219.3245 H   0  0  0  0  0  0  0  0  0  0  0  0
  141.1771   73.2104  220.9951 H   0  0  0  0  0  0  0  0  0  0  0  0
  143.3821   72.1082  221.1814 H   0  0  0  0  0  0  0  0  0  0  0  0
  145.2246   75.7248  219.8353 H   0  0  0  0  0  0  0  0  0  0  0  0
  143.0094   76.8294  219.6524 H   0  0  0  0  0  0  0  0  0  0  0  0
  138.4194   68.7741  222.6636 H   0  0  0  0  0  0  0  0  0  0  0  0
  139.1289   67.4380  224.6663 H   0  0  0  0  0  0  0  0  0  0  0  0
  140.1232   67.3924  226.9078 H   0  0  0  0  0  0  0  0  0  0  0  0
  141.4714   71.0051  228.7614 H   0  0  0  0  0  0  0  0  0  0  0  0
  140.7543   72.2576  226.7665 H   0  0  0  0  0  0  0  0  0  0  0  0
  1  2  2  0
  2  3  1  0
  3  4  1  0
  4  5  1  0
  5  6  2  0
  5  7  1  0
  7  8  1  0
  8  9  1  0
  9 10  1  0
 10 11  1  0
 11 12  1  0
 12 13  2  0
 13 14  1  0
 14 15  2  0
 15 16  1  0
 15 17  1  0
 17 18  2  0
  2 19  1  0
 19 20  2  0
 20 21  1  0
 21 22  2  0
 22 23  1  0
 23 24  2  0
 24 25  1  0
 24 26  1  0
 26 27  2  0
 27 28  1  0
 28 29  2  0
 11  7  1  0
 18 12  1  0
 29 19  1  0
 28 22  1  0
  3 30  1  0
  4 31  1  0
  4 32  1  0
  8 33  1  0
  8 34  1  0
  9 35  1  0
  9 36  1  0
 10 37  1  0
 10 38  1  0
 11 39  1  6
 13 40  1  0
 14 41  1  0
 17 42  1  0
 18 43  1  0
 20 44  1  0
 21 45  1  0
 23 46  1  0
 26 47  1  0
 27 48  1  0
M  END
>  <smiles>  (23) 
O=C(NCC(=O)N1CCC[C@H]1c1ccc(Cl)cc1)c1ccc2cc(F)ccc2n1

>  <score_type>  (23) 
oracle

>  <origin>  (23) 
autodockgpu

>  <m_score__min__energy>  (23) 
-9.1099999999999994

>  <m_primary>  (23) 
energy

>  <rmsd>  (23) 
2.128551993967422

>  <m_score__min__rmsd>  (23) 
2.128551993967422

>  <meeko>  (23) 
{"free_energy": -8.2, "intermolecular_energy": -9.7, "internal_energy": -1.73, "cluster_size": 7, "cluster_id": 4, "rank_in_cluster": 5}

>  <energy>  (23) 
-8.44

>  <cluster_rmsd>  (23) 
1.03

>  <cluster>  (23) 
1

$$$$

     RDKit          3D

 48 51  0  0  0  0  0  0  0  0999 V2000
  137.2290   75.8110  222.1420 O   0  0  0  0  0  0  0  0  0  0  0  0
  138.4510   76.0190  222.2360 C   0  0  0  0  0  0  0  0  0  0  0  0
  139.3540   74.9610  222.0150 N   0  0  0  0  0  0  0  0  0  0  0  0
  138.8770   73.6320  221.6800 C   0  0  0  0  0  0  0  0  0  0  0  0
  139.8280   72.6620  222.2370 C   0  0  0  0  0  0  0  0  0  0  0  0
  141.0690   72.8480  222.3250 O   0  0  0  0  0  0  0  0  0  0  0  0
  139.3370   71.4150  222.7180 N   0  0  0  0  0  0  0  0  0  0  0  0
  139.6130   70.0720  222.2340 C   0  0  0  0  0  0  0  0  0  0  0  0
  138.2150   69.4920  222.1860 C   0  0  0  0  0  0  0  0  0  0  0  0
  137.3930   70.3350  223.1250 C   0  0  0  0  0  0  0  0  0  0  0  0
  138.4110   71.1960  223.8480 C   0  0  1  0  0  0  0  0  0  0  0  0
  139.1000   70.4950  224.9470 C   0  0  0  0  0  0  0  0  0  0  0  0
  140.1970   70.9530  225.6160 C   0  0  0  0  0  0  0  0  0  0  0  0
  140.8140   70.2550  226.6490 C   0  0  0  0  0  0  0  0  0  0  0  0
  140.3040   69.0440  227.0240 C   0  0  0  0  0  0  0  0  0  0  0  0
  141.0840   68.1740  228.3210 Cl  0  0  0  0  0  0  0  0  0  0  0  0
  139.1940   68.5560  226.3640 C   0  0  0  0  0  0  0  0  0  0  0  0
  138.5810   69.2600  225.3310 C   0  0  0  0  0  0  0  0  0  0  0  0
  138.9390   77.3500  222.5710 C   0  0  0  0  0  0  0  0  0  0  0  0
  138.0680   78.4100  222.7320 C   0  0  0  0  0  0  0  0  0  0  0  0
  138.6060   79.6590  223.0540 C   0  0  0  0  0  0  0  0  0  0  0  0
  139.9750   79.8160  223.2040 C   0  0  0  0  0  0  0  0  0  0  0  0
  140.5610   81.0230  223.5200 C   0  0  0  0  0  0  0  0  0  0  0  0
  141.9280   81.1820  223.6710 C   0  0  0  0  0  0  0  0  0  0  0  0
  142.4900   82.3800  223.9840 F   0  0  0  0  0  0  0  0  0  0  0  0
  142.7380   80.0850  223.4960 C   0  0  0  0  0  0  0  0  0  0  0  0
  142.1780   78.8770  223.1810 C   0  0  0  0  0  0  0  0  0  0  0  0
  140.8130   78.7370  223.0360 C   0  0  0  0  0  0  0  0  0  0  0  0
  140.2670   77.5590  222.7290 N   0  0  0  0  0  0  0  0  0  0  0  0
  140.3800   75.1910  222.1070 H   0  0  0  0  0  0  0  0  0  0  0  0
  137.8798   73.4712  222.1155 H   0  0  0  0  0  0  0  0  0  0  0  0
  138.8012   73.5139  220.5890 H   0  0  0  0  0  0  0  0  0  0  0  0
  140.0782   70.0890  221.2374 H   0  0  0  0  0  0  0  0  0  0  0  0
  140.3205   69.5019  222.8541 H   0  0  0  0  0  0  0  0  0  0  0  0
  137.8105   69.5496  221.1647 H   0  0  0  0  0  0  0  0  0  0  0  0
  138.2047   68.4313  222.4773 H   0  0  0  0  0  0  0  0  0  0  0  0
  136.6817   70.9602  222.5654 H   0  0  0  0  0  0  0  0  0  0  0  0
  136.7913   69.7270  223.8166 H   0  0  0  0  0  0  0  0  0  0  0  0
  137.9908   72.0850  224.3410 H   0  0  0  0  0  0  0  0  0  0  0  0
  140.6163   71.9268  225.3228 H   0  0  0  0  0  0  0  0  0  0  0  0
  141.6975   70.6708  227.1554 H   0  0  0  0  0  0  0  0  0  0  0  0
  138.7813   67.5813  226.6634 H   0  0  0  0  0  0  0  0  0  0  0  0
  137.6971   68.8461  224.8237 H   0  0  0  0  0  0  0  0  0  0  0  0
  136.9831   78.2750  222.6104 H   0  0  0  0  0  0  0  0  0  0  0  0
  137.9388   80.5230  223.1893 H   0  0  0  0  0  0  0  0  0  0  0  0
  139.9124   81.9006  223.6586 H   0  0  0  0  0  0  0  0  0  0  0  0
  143.8283   80.1778  223.6084 H   0  0  0  0  0  0  0  0  0  0  0  0
  142.8282   78.0009  223.0407 H   0  0  0  0  0  0  0  0  0  0  0  0
  1  2  2  0
  2  3  1  0
  3  4  1  0
  4  5  1  0
  5  6  2  0
  5  7  1  0
  7  8  1  0
  8  9  1  0
  9 10  1  0
 10 11  1  0
 11 12  1  0
 12 13  2  0
 13 14  1  0
 14 15  2  0
 15 16  1  0
 15 17  1  0
 17 18  2  0
  2 19  1  0
 19 20  2  0
 20 21  1  0
 21 22  2  0
 22 23  1  0
 23 24  2  0
 24 25  1  0
 24 26  1  0
 26 27  2  0
 27 28  1  0
 28 29  2  0
 11  7  1  0
 18 12  1  0
 29 19  1  0
 28 22  1  0
  3 30  1  0
  4 31  1  0
  4 32  1  0
  8 33  1  0
  8 34  1  0
  9 35  1  0
  9 36  1  0
 10 37  1  0
 10 38  1  0
 11 39  1  1
 13 40  1  0
 14 41  1  0
 17 42  1  0
 18 43  1  0
 20 44  1  0
 21 45  1  0
 23 46  1  0
 26 47  1  0
 27 48  1  0
M  END
>  <smiles>  (24) 
O=C(NCC(=O)N1CCC[C@H]1c1ccc(Cl)cc1)c1ccc2cc(F)ccc2n1

>  <score_type>  (24) 
oracle

>  <origin>  (24) 
autodockgpu

>  <m_score__min__energy>  (24) 
-9.1099999999999994

>  <m_primary>  (24) 
energy

>  <rmsd>  (24) 
8.498963858078106

>  <m_score__min__rmsd>  (24) 
8.498963858078106

>  <meeko>  (24) 
{"free_energy": -8.23, "intermolecular_energy": -9.72, "internal_energy": -1.82, "cluster_size": 14, "cluster_id": 2, "rank_in_cluster": 7}

>  <energy>  (24) 
-8.24

>  <cluster_rmsd>  (24) 
1.21

>  <cluster>  (24) 
1

$$$$

     RDKit          3D

 48 51  0  0  0  0  0  0  0  0999 V2000
  138.8420   71.3090  221.1910 O   0  0  0  0  0  0  0  0  0  0  0  0
  139.1610   71.8220  222.2770 C   0  0  0  0  0  0  0  0  0  0  0  0
  139.2640   73.2230  222.3810 N   0  0  0  0  0  0  0  0  0  0  0  0
  139.0030   74.0750  221.2350 C   0  0  0  0  0  0  0  0  0  0  0  0
  138.8480   75.4500  221.7260 C   0  0  0  0  0  0  0  0  0  0  0  0
  138.1220   75.7840  222.6980 O   0  0  0  0  0  0  0  0  0  0  0  0
  139.5590   76.4970  221.0750 N   0  0  0  0  0  0  0  0  0  0  0  0
  139.0420   77.6020  220.2820 C   0  0  0  0  0  0  0  0  0  0  0  0
  139.9690   77.5530  219.0850 C   0  0  0  0  0  0  0  0  0  0  0  0
  141.1990   76.8210  219.5530 C   0  0  0  0  0  0  0  0  0  0  0  0
  141.0210   76.7070  221.0550 C   0  0  1  0  0  0  0  0  0  0  0  0
  141.3730   77.9380  221.7850 C   0  0  0  0  0  0  0  0  0  0  0  0
  141.8210   79.0950  221.2170 C   0  0  0  0  0  0  0  0  0  0  0  0
  142.1420   80.2350  221.9490 C   0  0  0  0  0  0  0  0  0  0  0  0
  142.0060   80.2070  223.3080 C   0  0  0  0  0  0  0  0  0  0  0  0
  142.4100   81.6410  224.2180 Cl  0  0  0  0  0  0  0  0  0  0  0  0
  141.5550   79.0490  223.9080 C   0  0  0  0  0  0  0  0  0  0  0  0
  141.2360   77.9120  223.1700 C   0  0  0  0  0  0  0  0  0  0  0  0
  139.4240   70.9740  223.4330 C   0  0  0  0  0  0  0  0  0  0  0  0
  139.1600   69.6190  223.3980 C   0  0  0  0  0  0  0  0  0  0  0  0
  139.4390   68.8670  224.5430 C   0  0  0  0  0  0  0  0  0  0  0  0
  139.9630   69.4750  225.6720 C   0  0  0  0  0  0  0  0  0  0  0  0
  140.2560   68.7840  226.8290 C   0  0  0  0  0  0  0  0  0  0  0  0
  140.7810   69.3890  227.9580 C   0  0  0  0  0  0  0  0  0  0  0  0
  141.0650   68.6920  229.0900 F   0  0  0  0  0  0  0  0  0  0  0  0
  141.0210   70.7430  227.9240 C   0  0  0  0  0  0  0  0  0  0  0  0
  140.7360   71.4490  226.7860 C   0  0  0  0  0  0  0  0  0  0  0  0
  140.2140   70.8280  225.6700 C   0  0  0  0  0  0  0  0  0  0  0  0
  139.9380   71.5170  224.5610 N   0  0  0  0  0  0  0  0  0  0  0  0
  139.5380   73.6060  223.3250 H   0  0  0  0  0  0  0  0  0  0  0  0
  139.8452   74.0220  220.5294 H   0  0  0  0  0  0  0  0  0  0  0  0
  138.0922   73.7481  220.7119 H   0  0  0  0  0  0  0  0  0  0  0  0
  137.9948   77.4349  219.9897 H   0  0  0  0  0  0  0  0  0  0  0  0
  139.0264   78.5692  220.8057 H   0  0  0  0  0  0  0  0  0  0  0  0
  139.4937   77.0120  218.2535 H   0  0  0  0  0  0  0  0  0  0  0  0
  140.2113   78.5610  218.7172 H   0  0  0  0  0  0  0  0  0  0  0  0
  141.2582   75.8244  219.0912 H   0  0  0  0  0  0  0  0  0  0  0  0
  142.1276   77.3432  219.2791 H   0  0  0  0  0  0  0  0  0  0  0  0
  141.6511   75.9430  221.5338 H   0  0  0  0  0  0  0  0  0  0  0  0
  141.9345   79.1288  220.1234 H   0  0  0  0  0  0  0  0  0  0  0  0
  142.4992   81.1432  221.4414 H   0  0  0  0  0  0  0  0  0  0  0  0
  141.4441   79.0233  225.0021 H   0  0  0  0  0  0  0  0  0  0  0  0
  140.8795   77.0028  223.6762 H   0  0  0  0  0  0  0  0  0  0  0  0
  138.7430   69.1459  222.4968 H   0  0  0  0  0  0  0  0  0  0  0  0
  139.2410   67.7850  224.5474 H   0  0  0  0  0  0  0  0  0  0  0  0
  140.0635   67.7013  226.8560 H   0  0  0  0  0  0  0  0  0  0  0  0
  141.4385   71.2544  228.8039 H   0  0  0  0  0  0  0  0  0  0  0  0
  140.9268   72.5320  226.7610 H   0  0  0  0  0  0  0  0  0  0  0  0
  1  2  2  0
  2  3  1  0
  3  4  1  0
  4  5  1  0
  5  6  2  0
  5  7  1  0
  7  8  1  0
  8  9  1  0
  9 10  1  0
 10 11  1  0
 11 12  1  0
 12 13  2  0
 13 14  1  0
 14 15  2  0
 15 16  1  0
 15 17  1  0
 17 18  2  0
  2 19  1  0
 19 20  2  0
 20 21  1  0
 21 22  2  0
 22 23  1  0
 23 24  2  0
 24 25  1  0
 24 26  1  0
 26 27  2  0
 27 28  1  0
 28 29  2  0
 11  7  1  0
 18 12  1  0
 29 19  1  0
 28 22  1  0
  3 30  1  0
  4 31  1  0
  4 32  1  0
  8 33  1  0
  8 34  1  0
  9 35  1  0
  9 36  1  0
 10 37  1  0
 10 38  1  0
 11 39  1  1
 13 40  1  0
 14 41  1  0
 17 42  1  0
 18 43  1  0
 20 44  1  0
 21 45  1  0
 23 46  1  0
 26 47  1  0
 27 48  1  0
M  END
>  <smiles>  (25) 
O=C(NCC(=O)N1CCC[C@H]1c1ccc(Cl)cc1)c1ccc2cc(F)ccc2n1

>  <score_type>  (25) 
oracle

>  <origin>  (25) 
autodockgpu

>  <m_score__min__energy>  (25) 
-9.1099999999999994

>  <m_primary>  (25) 
energy

>  <rmsd>  (25) 
1.5418036564753326

>  <m_score__min__rmsd>  (25) 
1.5418036564753326

>  <meeko>  (25) 
{"free_energy": -8.48, "intermolecular_energy": -9.98, "internal_energy": -1.63, "cluster_size": 27, "cluster_id": 1, "rank_in_cluster": 20}

>  <energy>  (25) 
-8.04

>  <cluster_rmsd>  (25) 
1.22

>  <cluster>  (25) 
1

$$$$

     RDKit          3D

 48 51  0  0  0  0  0  0  0  0999 V2000
  140.2470   71.9690  221.4240 O   0  0  0  0  0  0  0  0  0  0  0  0
  139.4570   72.0550  222.3800 C   0  0  0  0  0  0  0  0  0  0  0  0
  138.4630   73.0530  222.3720 N   0  0  0  0  0  0  0  0  0  0  0  0
  138.3500   73.9820  221.2630 C   0  0  0  0  0  0  0  0  0  0  0  0
  138.5230   75.3390  221.7970 C   0  0  0  0  0  0  0  0  0  0  0  0
  137.6580   75.9560  222.4720 O   0  0  0  0  0  0  0  0  0  0  0  0
  139.7430   76.0270  221.5490 N   0  0  0  0  0  0  0  0  0  0  0  0
  140.5960   76.7490  222.4810 C   0  0  0  0  0  0  0  0  0  0  0  0
  140.8560   78.0220  221.7020 C   0  0  0  0  0  0  0  0  0  0  0  0
  140.5960   77.6770  220.2600 C   0  0  0  0  0  0  0  0  0  0  0  0
  140.4430   76.1680  220.2550 C   0  0  1  0  0  0  0  0  0  0  0  0
  141.7270   75.4460  220.2840 C   0  0  0  0  0  0  0  0  0  0  0  0
  141.9250   74.2010  220.8060 C   0  0  0  0  0  0  0  0  0  0  0  0
  143.1590   73.5580  220.8110 C   0  0  0  0  0  0  0  0  0  0  0  0
  144.2380   74.1950  220.2660 C   0  0  0  0  0  0  0  0  0  0  0  0
  145.7820   73.3810  220.2760 Cl  0  0  0  0  0  0  0  0  0  0  0  0
  144.0660   75.4550  219.7310 C   0  0  0  0  0  0  0  0  0  0  0  0
  142.8280   76.0940  219.7290 C   0  0  0  0  0  0  0  0  0  0  0  0
  139.5620   71.1250  223.4970 C   0  0  0  0  0  0  0  0  0  0  0  0
  139.1040   69.8270  223.3900 C   0  0  0  0  0  0  0  0  0  0  0  0
  139.2380   68.9900  224.5020 C   0  0  0  0  0  0  0  0  0  0  0  0
  139.8140   69.4620  225.6700 C   0  0  0  0  0  0  0  0  0  0  0  0
  139.9720   68.6820  226.7970 C   0  0  0  0  0  0  0  0  0  0  0  0
  140.5480   69.1510  227.9650 C   0  0  0  0  0  0  0  0  0  0  0  0
  140.6960   68.3690  229.0670 F   0  0  0  0  0  0  0  0  0  0  0  0
  140.9830   70.4550  228.0030 C   0  0  0  0  0  0  0  0  0  0  0  0
  140.8360   71.2470  226.8960 C   0  0  0  0  0  0  0  0  0  0  0  0
  140.2600   70.7620  225.7400 C   0  0  0  0  0  0  0  0  0  0  0  0
  140.1180   71.5340  224.6620 N   0  0  0  0  0  0  0  0  0  0  0  0
  137.8180   73.0820  223.2070 H   0  0  0  0  0  0  0  0  0  0  0  0
  139.1301   73.7710  220.5167 H   0  0  0  0  0  0  0  0  0  0  0  0
  137.3689   73.8822  220.7757 H   0  0  0  0  0  0  0  0  0  0  0  0
  140.0771   76.9537  223.4291 H   0  0  0  0  0  0  0  0  0  0  0  0
  141.5042   76.2057  222.7810 H   0  0  0  0  0  0  0  0  0  0  0  0
  140.1762   78.8205  222.0340 H   0  0  0  0  0  0  0  0  0  0  0  0
  141.8821   78.3883  221.8533 H   0  0  0  0  0  0  0  0  0  0  0  0
  139.6758   78.1628  219.9033 H   0  0  0  0  0  0  0  0  0  0  0  0
  141.4027   78.0189  219.5950 H   0  0  0  0  0  0  0  0  0  0  0  0
  139.9471   75.7608  219.3615 H   0  0  0  0  0  0  0  0  0  0  0  0
  141.0634   73.6778  221.2463 H   0  0  0  0  0  0  0  0  0  0  0  0
  143.2641   72.5534  221.2465 H   0  0  0  0  0  0  0  0  0  0  0  0
  144.9329   75.9709  219.2926 H   0  0  0  0  0  0  0  0  0  0  0  0
  142.7213   77.0987  219.2941 H   0  0  0  0  0  0  0  0  0  0  0  0
  138.6474   69.4623  222.4581 H   0  0  0  0  0  0  0  0  0  0  0  0
  138.8837   67.9500  224.4489 H   0  0  0  0  0  0  0  0  0  0  0  0
  139.6241   67.6389  226.7659 H   0  0  0  0  0  0  0  0  0  0  0  0
  141.4455   70.8586  228.9158 H   0  0  0  0  0  0  0  0  0  0  0  0
  141.1838   72.2900  226.9289 H   0  0  0  0  0  0  0  0  0  0  0  0
  1  2  2  0
  2  3  1  0
  3  4  1  0
  4  5  1  0
  5  6  2  0
  5  7  1  0
  7  8  1  0
  8  9  1  0
  9 10  1  0
 10 11  1  0
 11 12  1  0
 12 13  2  0
 13 14  1  0
 14 15  2  0
 15 16  1  0
 15 17  1  0
 17 18  2  0
  2 19  1  0
 19 20  2  0
 20 21  1  0
 21 22  2  0
 22 23  1  0
 23 24  2  0
 24 25  1  0
 24 26  1  0
 26 27  2  0
 27 28  1  0
 28 29  2  0
 11  7  1  0
 18 12  1  0
 29 19  1  0
 28 22  1  0
  3 30  1  0
  4 31  1  0
  4 32  1  0
  8 33  1  0
  8 34  1  0
  9 35  1  0
  9 36  1  0
 10 37  1  0
 10 38  1  0
 11 39  1  6
 13 40  1  0
 14 41  1  0
 17 42  1  0
 18 43  1  0
 20 44  1  0
 21 45  1  0
 23 46  1  0
 26 47  1  0
 27 48  1  0
M  END
>  <smiles>  (26) 
O=C(NCC(=O)N1CCC[C@H]1c1ccc(Cl)cc1)c1ccc2cc(F)ccc2n1

>  <score_type>  (26) 
oracle

>  <origin>  (26) 
autodockgpu

>  <m_score__min__energy>  (26) 
-9.1099999999999994

>  <m_primary>  (26) 
energy

>  <rmsd>  (26) 
2.2341041807303874

>  <m_score__min__rmsd>  (26) 
2.2341041807303874

>  <meeko>  (26) 
{"free_energy": -8.4, "intermolecular_energy": -9.89, "internal_energy": -1.62, "cluster_size": 7, "cluster_id": 4, "rank_in_cluster": 2}

>  <energy>  (26) 
-7.98

>  <cluster_rmsd>  (26) 
1.63

>  <cluster>  (26) 
1

$$$$

     RDKit          3D

 48 51  0  0  0  0  0  0  0  0999 V2000
  140.2240   71.7210  221.3830 O   0  0  0  0  0  0  0  0  0  0  0  0
  139.4760   71.8670  222.3640 C   0  0  0  0  0  0  0  0  0  0  0  0
  138.5480   72.9280  222.3780 N   0  0  0  0  0  0  0  0  0  0  0  0
  138.4570   73.8510  221.2620 C   0  0  0  0  0  0  0  0  0  0  0  0
  138.6940   75.2040  221.7800 C   0  0  0  0  0  0  0  0  0  0  0  0
  137.8760   75.8540  222.4820 O   0  0  0  0  0  0  0  0  0  0  0  0
  139.9270   75.8490  221.4830 N   0  0  0  0  0  0  0  0  0  0  0  0
  140.7730   76.6570  222.3490 C   0  0  0  0  0  0  0  0  0  0  0  0
  141.0610   77.8380  221.4460 C   0  0  0  0  0  0  0  0  0  0  0  0
  140.8210   77.3460  220.0430 C   0  0  0  0  0  0  0  0  0  0  0  0
  140.6490   75.8470  220.1940 C   0  0  1  0  0  0  0  0  0  0  0  0
  141.9240   75.1190  220.3200 C   0  0  0  0  0  0  0  0  0  0  0  0
  142.0590   73.8240  220.7300 C   0  0  0  0  0  0  0  0  0  0  0  0
  143.2870   73.1770  220.8340 C   0  0  0  0  0  0  0  0  0  0  0  0
  144.4250   73.8620  220.5120 C   0  0  0  0  0  0  0  0  0  0  0  0
  145.9600   73.0430  220.6460 Cl  0  0  0  0  0  0  0  0  0  0  0  0
  144.3160   75.1730  220.0950 C   0  0  0  0  0  0  0  0  0  0  0  0
  143.0840   75.8150  219.9930 C   0  0  0  0  0  0  0  0  0  0  0  0
  139.5600   70.9450  223.4880 C   0  0  0  0  0  0  0  0  0  0  0  0
  139.0790   69.6540  223.3890 C   0  0  0  0  0  0  0  0  0  0  0  0
  139.1940   68.8230  224.5070 C   0  0  0  0  0  0  0  0  0  0  0  0
  139.7740   69.2930  225.6740 C   0  0  0  0  0  0  0  0  0  0  0  0
  139.9140   68.5190  226.8070 C   0  0  0  0  0  0  0  0  0  0  0  0
  140.4940   68.9860  227.9740 C   0  0  0  0  0  0  0  0  0  0  0  0
  140.6240   68.2090  229.0820 F   0  0  0  0  0  0  0  0  0  0  0  0
  140.9530   70.2820  228.0040 C   0  0  0  0  0  0  0  0  0  0  0  0
  140.8240   71.0680  226.8910 C   0  0  0  0  0  0  0  0  0  0  0  0
  140.2430   70.5850  225.7360 C   0  0  0  0  0  0  0  0  0  0  0  0
  140.1190   71.3520  224.6520 N   0  0  0  0  0  0  0  0  0  0  0  0
  137.9370   73.0070  223.2340 H   0  0  0  0  0  0  0  0  0  0  0  0
  139.2163   73.6010  220.5064 H   0  0  0  0  0  0  0  0  0  0  0  0
  137.4653   73.7878  220.7902 H   0  0  0  0  0  0  0  0  0  0  0  0
  140.2408   76.9654  223.2610 H   0  0  0  0  0  0  0  0  0  0  0  0
  141.6697   76.1392  222.7203 H   0  0  0  0  0  0  0  0  0  0  0  0
  140.3852   78.6737  221.6803 H   0  0  0  0  0  0  0  0  0  0  0  0
  142.0887   78.2078  221.5764 H   0  0  0  0  0  0  0  0  0  0  0  0
  139.9132   77.8015  219.6206 H   0  0  0  0  0  0  0  0  0  0  0  0
  141.6430   77.6073  219.3604 H   0  0  0  0  0  0  0  0  0  0  0  0
  140.1616   75.3537  219.3401 H   0  0  0  0  0  0  0  0  0  0  0  0
  141.1500   73.2625  220.9918 H   0  0  0  0  0  0  0  0  0  0  0  0
  143.3407   72.1310  221.1700 H   0  0  0  0  0  0  0  0  0  0  0  0
  145.2296   75.7278  219.8353 H   0  0  0  0  0  0  0  0  0  0  0  0
  143.0285   76.8611  219.6575 H   0  0  0  0  0  0  0  0  0  0  0  0
  138.6192   69.2907  222.4581 H   0  0  0  0  0  0  0  0  0  0  0  0
  138.8215   67.7891  224.4599 H   0  0  0  0  0  0  0  0  0  0  0  0
  139.5476   67.4821  226.7821 H   0  0  0  0  0  0  0  0  0  0  0  0
  141.4201   70.6837  228.9153 H   0  0  0  0  0  0  0  0  0  0  0  0
  141.1905   72.1048  226.9175 H   0  0  0  0  0  0  0  0  0  0  0  0
  1  2  2  0
  2  3  1  0
  3  4  1  0
  4  5  1  0
  5  6  2  0
  5  7  1  0
  7  8  1  0
  8  9  1  0
  9 10  1  0
 10 11  1  0
 11 12  1  0
 12 13  2  0
 13 14  1  0
 14 15  2  0
 15 16  1  0
 15 17  1  0
 17 18  2  0
  2 19  1  0
 19 20  2  0
 20 21  1  0
 21 22  2  0
 22 23  1  0
 23 24  2  0
 24 25  1  0
 24 26  1  0
 26 27  2  0
 27 28  1  0
 28 29  2  0
 11  7  1  0
 18 12  1  0
 29 19  1  0
 28 22  1  0
  3 30  1  0
  4 31  1  0
  4 32  1  0
  8 33  1  0
  8 34  1  0
  9 35  1  0
  9 36  1  0
 10 37  1  0
 10 38  1  0
 11 39  1  6
 13 40  1  0
 14 41  1  0
 17 42  1  0
 18 43  1  0
 20 44  1  0
 21 45  1  0
 23 46  1  0
 26 47  1  0
 27 48  1  0
M  END
>  <smiles>  (27) 
O=C(NCC(=O)N1CCC[C@H]1c1ccc(Cl)cc1)c1ccc2cc(F)ccc2n1

>  <score_type>  (27) 
oracle

>  <origin>  (27) 
autodockgpu

>  <m_score__min__energy>  (27) 
-9.1099999999999994

>  <m_primary>  (27) 
energy

>  <rmsd>  (27) 
2.147897231892173

>  <m_score__min__rmsd>  (27) 
2.147897231892173

>  <meeko>  (27) 
{"free_energy": -8.49, "intermolecular_energy": -9.98, "internal_energy": -1.61, "cluster_size": 7, "cluster_id": 4, "rank_in_cluster": 1}

>  <energy>  (27) 
-7.95

>  <cluster_rmsd>  (27) 
1.6

>  <cluster>  (27) 
1

$$$$

     RDKit          3D

 48 51  0  0  0  0  0  0  0  0999 V2000
  137.1230   75.9560  222.1540 O   0  0  0  0  0  0  0  0  0  0  0  0
  138.3410   76.1090  222.3450 C   0  0  0  0  0  0  0  0  0  0  0  0
  139.2030   74.9970  222.2620 N   0  0  0  0  0  0  0  0  0  0  0  0
  138.6850   73.6760  221.9560 C   0  0  0  0  0  0  0  0  0  0  0  0
  139.7120   72.6950  222.3300 C   0  0  0  0  0  0  0  0  0  0  0  0
  140.9490   72.9270  222.3450 O   0  0  0  0  0  0  0  0  0  0  0  0
  139.3070   71.3840  222.7070 N   0  0  0  0  0  0  0  0  0  0  0  0
  139.7730   70.1000  222.2060 C   0  0  0  0  0  0  0  0  0  0  0  0
  138.4560   69.3860  221.9830 C   0  0  0  0  0  0  0  0  0  0  0  0
  137.4550   70.0960  222.8560 C   0  0  0  0  0  0  0  0  0  0  0  0
  138.2950   71.0180  223.7190 C   0  0  1  0  0  0  0  0  0  0  0  0
  138.9330   70.3370  224.8600 C   0  0  0  0  0  0  0  0  0  0  0  0
  138.6220   69.0880  225.3120 C   0  0  0  0  0  0  0  0  0  0  0  0
  139.2530   68.4840  226.3970 C   0  0  0  0  0  0  0  0  0  0  0  0
  140.2400   69.1680  227.0500 C   0  0  0  0  0  0  0  0  0  0  0  0
  141.0250   68.4040  228.4080 Cl  0  0  0  0  0  0  0  0  0  0  0  0
  140.5740   70.4330  226.6130 C   0  0  0  0  0  0  0  0  0  0  0  0
  139.9380   71.0320  225.5280 C   0  0  0  0  0  0  0  0  0  0  0  0
  138.8700   77.4310  222.6520 C   0  0  0  0  0  0  0  0  0  0  0  0
  138.0310   78.5200  222.7880 C   0  0  0  0  0  0  0  0  0  0  0  0
  138.6070   79.7590  223.0840 C   0  0  0  0  0  0  0  0  0  0  0  0
  139.9790   79.8770  223.2340 C   0  0  0  0  0  0  0  0  0  0  0  0
  140.6020   81.0730  223.5250 C   0  0  0  0  0  0  0  0  0  0  0  0
  141.9730   81.1930  223.6760 C   0  0  0  0  0  0  0  0  0  0  0  0
  142.5700   82.3800  223.9650 F   0  0  0  0  0  0  0  0  0  0  0  0
  142.7490   80.0680  223.5290 C   0  0  0  0  0  0  0  0  0  0  0  0
  142.1520   78.8710  223.2390 C   0  0  0  0  0  0  0  0  0  0  0  0
  140.7840   78.7700  223.0930 C   0  0  0  0  0  0  0  0  0  0  0  0
  140.2030   77.6030  222.8100 N   0  0  0  0  0  0  0  0  0  0  0  0
  140.2270   75.1820  222.4330 H   0  0  0  0  0  0  0  0  0  0  0  0
  137.7649   73.4923  222.5302 H   0  0  0  0  0  0  0  0  0  0  0  0
  138.4468   73.5946  220.8852 H   0  0  0  0  0  0  0  0  0  0  0  0
  140.3364   70.2120  221.2679 H   0  0  0  0  0  0  0  0  0  0  0  0
  140.4674   69.5743  222.8779 H   0  0  0  0  0  0  0  0  0  0  0  0
  138.1581   69.4518  220.9262 H   0  0  0  0  0  0  0  0  0  0  0  0
  138.5263   68.3169  222.2324 H   0  0  0  0  0  0  0  0  0  0  0  0
  136.7459   70.6736  222.2448 H   0  0  0  0  0  0  0  0  0  0  0  0
  136.8498   69.3982  223.4533 H   0  0  0  0  0  0  0  0  0  0  0  0
  137.7343   71.8353  224.1961 H   0  0  0  0  0  0  0  0  0  0  0  0
  137.8308   68.5281  224.7919 H   0  0  0  0  0  0  0  0  0  0  0  0
  138.9622   67.4744  226.7226 H   0  0  0  0  0  0  0  0  0  0  0  0
  141.3672   70.9859  227.1376 H   0  0  0  0  0  0  0  0  0  0  0  0
  140.2263   72.0424  225.2026 H   0  0  0  0  0  0  0  0  0  0  0  0
  136.9427   78.4154  222.6671 H   0  0  0  0  0  0  0  0  0  0  0  0
  137.9665   80.6459  223.1985 H   0  0  0  0  0  0  0  0  0  0  0  0
  139.9806   81.9731  223.6425 H   0  0  0  0  0  0  0  0  0  0  0  0
  143.8413   80.1292  223.6436 H   0  0  0  0  0  0  0  0  0  0  0  0
  142.7750   77.9723  223.1201 H   0  0  0  0  0  0  0  0  0  0  0  0
  1  2  2  0
  2  3  1  0
  3  4  1  0
  4  5  1  0
  5  6  2  0
  5  7  1  0
  7  8  1  0
  8  9  1  0
  9 10  1  0
 10 11  1  0
 11 12  1  0
 12 13  2  0
 13 14  1  0
 14 15  2  0
 15 16  1  0
 15 17  1  0
 17 18  2  0
  2 19  1  0
 19 20  2  0
 20 21  1  0
 21 22  2  0
 22 23  1  0
 23 24  2  0
 24 25  1  0
 24 26  1  0
 26 27  2  0
 27 28  1  0
 28 29  2  0
 11  7  1  0
 18 12  1  0
 29 19  1  0
 28 22  1  0
  3 30  1  0
  4 31  1  0
  4 32  1  0
  8 33  1  0
  8 34  1  0
  9 35  1  0
  9 36  1  0
 10 37  1  0
 10 38  1  0
 11 39  1  1
 13 40  1  0
 14 41  1  0
 17 42  1  0
 18 43  1  0
 20 44  1  0
 21 45  1  0
 23 46  1  0
 26 47  1  0
 27 48  1  0
M  END
>  <smiles>  (28) 
O=C(NCC(=O)N1CCC[C@H]1c1ccc(Cl)cc1)c1ccc2cc(F)ccc2n1

>  <score_type>  (28) 
oracle

>  <origin>  (28) 
autodockgpu

>  <m_score__min__energy>  (28) 
-9.1099999999999994

>  <m_primary>  (28) 
energy

>  <rmsd>  (28) 
8.531902549502881

>  <m_score__min__rmsd>  (28) 
8.531902549502881

>  <meeko>  (28) 
{"free_energy": -8.14, "intermolecular_energy": -9.63, "internal_energy": -1.94, "cluster_size": 14, "cluster_id": 2, "rank_in_cluster": 14}

>  <energy>  (28) 
-8.88

>  <cluster_rmsd>  (28) 
0.0

>  <cluster>  (28) 
2

$$$$

     RDKit          3D

 48 51  0  0  0  0  0  0  0  0999 V2000
  138.9410   70.6490  221.5400 O   0  0  0  0  0  0  0  0  0  0  0  0
  139.2080   71.1390  222.6510 C   0  0  0  0  0  0  0  0  0  0  0  0
  139.3210   72.5360  222.7850 N   0  0  0  0  0  0  0  0  0  0  0  0
  139.1310   73.4120  221.6420 C   0  0  0  0  0  0  0  0  0  0  0  0
  140.0560   74.5430  221.7870 C   0  0  0  0  0  0  0  0  0  0  0  0
  141.3070   74.4370  221.8690 O   0  0  0  0  0  0  0  0  0  0  0  0
  139.5250   75.8630  221.8400 N   0  0  0  0  0  0  0  0  0  0  0  0
  138.4940   76.4030  222.7130 C   0  0  0  0  0  0  0  0  0  0  0  0
  137.6340   77.1470  221.7140 C   0  0  0  0  0  0  0  0  0  0  0  0
  138.5220   77.4040  220.5250 C   0  0  0  0  0  0  0  0  0  0  0  0
  139.9090   77.0150  221.0000 C   0  0  1  0  0  0  0  0  0  0  0  0
  140.5630   78.0520  221.8180 C   0  0  0  0  0  0  0  0  0  0  0  0
  141.2180   77.8360  222.9950 C   0  0  0  0  0  0  0  0  0  0  0  0
  141.8220   78.8500  223.7350 C   0  0  0  0  0  0  0  0  0  0  0  0
  141.7640   80.1320  223.2670 C   0  0  0  0  0  0  0  0  0  0  0  0
  142.5240   81.3960  224.2010 Cl  0  0  0  0  0  0  0  0  0  0  0  0
  141.1080   80.3780  222.0790 C   0  0  0  0  0  0  0  0  0  0  0  0
  140.5050   79.3600  221.3440 C   0  0  0  0  0  0  0  0  0  0  0  0
  139.4000   70.2680  223.8030 C   0  0  0  0  0  0  0  0  0  0  0  0
  138.9800   68.9520  223.7810 C   0  0  0  0  0  0  0  0  0  0  0  0
  139.1980   68.1750  224.9210 C   0  0  0  0  0  0  0  0  0  0  0  0
  139.8160   68.7200  226.0350 C   0  0  0  0  0  0  0  0  0  0  0  0
  140.0560   68.0010  227.1870 C   0  0  0  0  0  0  0  0  0  0  0  0
  140.6740   68.5430  228.3010 C   0  0  0  0  0  0  0  0  0  0  0  0
  140.9030   67.8190  229.4290 F   0  0  0  0  0  0  0  0  0  0  0  0
  141.0670   69.8600  228.2550 C   0  0  0  0  0  0  0  0  0  0  0  0
  140.8380   70.5920  227.1220 C   0  0  0  0  0  0  0  0  0  0  0  0
  140.2210   70.0340  226.0210 C   0  0  0  0  0  0  0  0  0  0  0  0
  139.9990   70.7490  224.9170 N   0  0  0  0  0  0  0  0  0  0  0  0
  139.5500   72.9000  223.7490 H   0  0  0  0  0  0  0  0  0  0  0  0
  139.3490   72.8667  220.7119 H   0  0  0  0  0  0  0  0  0  0  0  0
  138.0912   73.7682  221.5985 H   0  0  0  0  0  0  0  0  0  0  0  0
  137.9301   75.6034  223.2156 H   0  0  0  0  0  0  0  0  0  0  0  0
  138.8755   77.0248  223.5363 H   0  0  0  0  0  0  0  0  0  0  0  0
  136.7686   76.5343  221.4213 H   0  0  0  0  0  0  0  0  0  0  0  0
  137.2385   78.0828  222.1357 H   0  0  0  0  0  0  0  0  0  0  0  0
  138.2156   76.7847  219.6691 H   0  0  0  0  0  0  0  0  0  0  0  0
  138.4732   78.4483  220.1827 H   0  0  0  0  0  0  0  0  0  0  0  0
  140.6357   76.8361  220.1938 H   0  0  0  0  0  0  0  0  0  0  0  0
  141.2721   76.8070  223.3800 H   0  0  0  0  0  0  0  0  0  0  0  0
  142.3368   78.6222  224.6800 H   0  0  0  0  0  0  0  0  0  0  0  0
  141.0595   81.4096  221.7004 H   0  0  0  0  0  0  0  0  0  0  0  0
  139.9887   79.5868  220.3996 H   0  0  0  0  0  0  0  0  0  0  0  0
  138.4887   68.5289  222.8924 H   0  0  0  0  0  0  0  0  0  0  0  0
  138.8768   67.1230  224.9345 H   0  0  0  0  0  0  0  0  0  0  0  0
  139.7417   66.9475  227.2225 H   0  0  0  0  0  0  0  0  0  0  0  0
  141.5617   70.3214  229.1224 H   0  0  0  0  0  0  0  0  0  0  0  0
  141.1518   71.6457  227.0881 H   0  0  0  0  0  0  0  0  0  0  0  0
  1  2  2  0
  2  3  1  0
  3  4  1  0
  4  5  1  0
  5  6  2  0
  5  7  1  0
  7  8  1  0
  8  9  1  0
  9 10  1  0
 10 11  1  0
 11 12  1  0
 12 13  2  0
 13 14  1  0
 14 15  2  0
 15 16  1  0
 15 17  1  0
 17 18  2  0
  2 19  1  0
 19 20  2  0
 20 21  1  0
 21 22  2  0
 22 23  1  0
 23 24  2  0
 24 25  1  0
 24 26  1  0
 26 27  2  0
 27 28  1  0
 28 29  2  0
 11  7  1  0
 18 12  1  0
 29 19  1  0
 28 22  1  0
  3 30  1  0
  4 31  1  0
  4 32  1  0
  8 33  1  0
  8 34  1  0
  9 35  1  0
  9 36  1  0
 10 37  1  0
 10 38  1  0
 11 39  1  6
 13 40  1  0
 14 41  1  0
 17 42  1  0
 18 43  1  0
 20 44  1  0
 21 45  1  0
 23 46  1  0
 26 47  1  0
 27 48  1  0
M  END
>  <smiles>  (29) 
O=C(NCC(=O)N1CCC[C@H]1c1ccc(Cl)cc1)c1ccc2cc(F)ccc2n1

>  <score_type>  (29) 
oracle

>  <origin>  (29) 
autodockgpu

>  <m_score__min__energy>  (29) 
-9.1099999999999994

>  <m_primary>  (29) 
energy

>  <rmsd>  (29) 
2.2875224738762205

>  <m_score__min__rmsd>  (29) 
2.2875224738762205

>  <meeko>  (29) 
{"free_energy": -8.66, "intermolecular_energy": -10.15, "internal_energy": -1.45, "cluster_size": 27, "cluster_id": 1, "rank_in_cluster": 7}

>  <energy>  (29) 
-8.83

>  <cluster_rmsd>  (29) 
0.24

>  <cluster>  (29) 
2

$$$$

     RDKit          3D

 48 51  0  0  0  0  0  0  0  0999 V2000
  140.8640   71.7580  221.2620 O   0  0  0  0  0  0  0  0  0  0  0  0
  140.1890   72.1020  222.2470 C   0  0  0  0  0  0  0  0  0  0  0  0
  139.5230   73.3430  222.2340 N   0  0  0  0  0  0  0  0  0  0  0  0
  139.6150   74.2250  221.0840 C   0  0  0  0  0  0  0  0  0  0  0  0
  139.0940   75.5380  221.4840 C   0  0  0  0  0  0  0  0  0  0  0  0
  138.1820   75.7160  222.3330 O   0  0  0  0  0  0  0  0  0  0  0  0
  139.6430   76.7070  220.8870 N   0  0  0  0  0  0  0  0  0  0  0  0
  138.9540   77.8580  220.3210 C   0  0  0  0  0  0  0  0  0  0  0  0
  139.7020   78.0240  219.0140 C   0  0  0  0  0  0  0  0  0  0  0  0
  141.0270   77.3370  219.2140 C   0  0  0  0  0  0  0  0  0  0  0  0
  141.0720   77.0290  220.6980 C   0  0  1  0  0  0  0  0  0  0  0  0
  141.4520   78.1860  221.5290 C   0  0  0  0  0  0  0  0  0  0  0  0
  141.8380   79.4060  221.0580 C   0  0  0  0  0  0  0  0  0  0  0  0
  142.1890   80.4720  221.8820 C   0  0  0  0  0  0  0  0  0  0  0  0
  142.1470   80.2990  223.2380 C   0  0  0  0  0  0  0  0  0  0  0  0
  142.5880   81.6400  224.2640 Cl  0  0  0  0  0  0  0  0  0  0  0  0
  141.7590   79.0740  223.7400 C   0  0  0  0  0  0  0  0  0  0  0  0
  141.4100   78.0120  222.9100 C   0  0  0  0  0  0  0  0  0  0  0  0
  140.0900   71.2230  223.4050 C   0  0  0  0  0  0  0  0  0  0  0  0
  139.5110   69.9740  223.3040 C   0  0  0  0  0  0  0  0  0  0  0  0
  139.4510   69.1830  224.4560 C   0  0  0  0  0  0  0  0  0  0  0  0
  139.9600   69.6520  225.6560 C   0  0  0  0  0  0  0  0  0  0  0  0
  139.9280   68.9170  226.8220 C   0  0  0  0  0  0  0  0  0  0  0  0
  140.4360   69.3830  228.0230 C   0  0  0  0  0  0  0  0  0  0  0  0
  140.3970   68.6450  229.1640 F   0  0  0  0  0  0  0  0  0  0  0  0
  141.0000   70.6370  228.0530 C   0  0  0  0  0  0  0  0  0  0  0  0
  141.0420   71.3840  226.9060 C   0  0  0  0  0  0  0  0  0  0  0  0
  140.5310   70.9020  225.7190 C   0  0  0  0  0  0  0  0  0  0  0  0
  140.5730   71.6310  224.6020 N   0  0  0  0  0  0  0  0  0  0  0  0
  138.9640   73.5870  223.0940 H   0  0  0  0  0  0  0  0  0  0  0  0
  140.6642   74.3192  220.7674 H   0  0  0  0  0  0  0  0  0  0  0  0
  139.0341   73.8209  220.2418 H   0  0  0  0  0  0  0  0  0  0  0  0
  137.8873   77.6486  220.1529 H   0  0  0  0  0  0  0  0  0  0  0  0
  138.9569   78.7510  220.9633 H   0  0  0  0  0  0  0  0  0  0  0  0
  139.1455   77.5522  218.1908 H   0  0  0  0  0  0  0  0  0  0  0  0
  139.8296   79.0843  218.7506 H   0  0  0  0  0  0  0  0  0  0  0  0
  141.0785   76.4110  218.6226 H   0  0  0  0  0  0  0  0  0  0  0  0
  141.8746   77.9581  218.8888 H   0  0  0  0  0  0  0  0  0  0  0  0
  141.8078   76.2629  220.9837 H   0  0  0  0  0  0  0  0  0  0  0  0
  141.8740   79.5560  219.9689 H   0  0  0  0  0  0  0  0  0  0  0  0
  142.4947   81.4363  221.4500 H   0  0  0  0  0  0  0  0  0  0  0  0
  141.7243   78.9318  224.8302 H   0  0  0  0  0  0  0  0  0  0  0  0
  141.1047   77.0467  223.3401 H   0  0  0  0  0  0  0  0  0  0  0  0
  139.1089   69.6117  222.3464 H   0  0  0  0  0  0  0  0  0  0  0  0
  138.9968   68.1823  224.4088 H   0  0  0  0  0  0  0  0  0  0  0  0
  139.4779   67.9136  226.7971 H   0  0  0  0  0  0  0  0  0  0  0  0
  141.4139   71.0366  228.9905 H   0  0  0  0  0  0  0  0  0  0  0  0
  141.4918   72.3875  226.9318 H   0  0  0  0  0  0  0  0  0  0  0  0
  1  2  2  0
  2  3  1  0
  3  4  1  0
  4  5  1  0
  5  6  2  0
  5  7  1  0
  7  8  1  0
  8  9  1  0
  9 10  1  0
 10 11  1  0
 11 12  1  0
 12 13  2  0
 13 14  1  0
 14 15  2  0
 15 16  1  0
 15 17  1  0
 17 18  2  0
  2 19  1  0
 19 20  2  0
 20 21  1  0
 21 22  2  0
 22 23  1  0
 23 24  2  0
 24 25  1  0
 24 26  1  0
 26 27  2  0
 27 28  1  0
 28 29  2  0
 11  7  1  0
 18 12  1  0
 29 19  1  0
 28 22  1  0
  3 30  1  0
  4 31  1  0
  4 32  1  0
  8 33  1  0
  8 34  1  0
  9 35  1  0
  9 36  1  0
 10 37  1  0
 10 38  1  0
 11 39  1  6
 13 40  1  0
 14 41  1  0
 17 42  1  0
 18 43  1  0
 20 44  1  0
 21 45  1  0
 23 46  1  0
 26 47  1  0
 27 48  1  0
M  END
>  <smiles>  (30) 
O=C(NCC(=O)N1CCC[C@H]1c1ccc(Cl)cc1)c1ccc2cc(F)ccc2n1

>  <score_type>  (30) 
oracle

>  <origin>  (30) 
autodockgpu

>  <m_score__min__energy>  (30) 
-9.1099999999999994

>  <m_primary>  (30) 
energy

>  <rmsd>  (30) 
1.7075385630499573

>  <m_score__min__rmsd>  (30) 
1.7075385630499573

>  <meeko>  (30) 
{"free_energy": -8.67, "intermolecular_energy": -10.16, "internal_energy": -1.61, "cluster_size": 27, "cluster_id": 1, "rank_in_cluster": 6}

>  <energy>  (30) 
-8.8

>  <cluster_rmsd>  (30) 
0.2

>  <cluster>  (30) 
2

$$$$

     RDKit          3D

 48 51  0  0  0  0  0  0  0  0999 V2000
  139.4860   75.8360  220.2790 O   0  0  0  0  0  0  0  0  0  0  0  0
  139.4940   75.9450  221.5170 C   0  0  0  0  0  0  0  0  0  0  0  0
  139.2150   74.8190  222.3160 N   0  0  0  0  0  0  0  0  0  0  0  0
  138.9170   73.5330  221.7110 C   0  0  0  0  0  0  0  0  0  0  0  0
  139.8370   72.5440  222.2860 C   0  0  0  0  0  0  0  0  0  0  0  0
  141.0800   72.7060  222.4000 O   0  0  0  0  0  0  0  0  0  0  0  0
  139.3120   71.3070  222.7550 N   0  0  0  0  0  0  0  0  0  0  0  0
  139.5690   69.9590  222.2720 C   0  0  0  0  0  0  0  0  0  0  0  0
  138.1610   69.4080  222.1980 C   0  0  0  0  0  0  0  0  0  0  0  0
  137.3390   70.2660  223.1240 C   0  0  0  0  0  0  0  0  0  0  0  0
  138.3620   71.1040  223.8680 C   0  0  1  0  0  0  0  0  0  0  0  0
  139.0150   70.3860  224.9760 C   0  0  0  0  0  0  0  0  0  0  0  0
  138.6890   69.1360  225.4130 C   0  0  0  0  0  0  0  0  0  0  0  0
  139.3360   68.4970  226.4680 C   0  0  0  0  0  0  0  0  0  0  0  0
  140.3550   69.1460  227.1070 C   0  0  0  0  0  0  0  0  0  0  0  0
  141.1610   68.3380  228.4270 Cl  0  0  0  0  0  0  0  0  0  0  0  0
  140.7060   70.4120  226.6850 C   0  0  0  0  0  0  0  0  0  0  0  0
  140.0540   71.0460  225.6300 C   0  0  0  0  0  0  0  0  0  0  0  0
  139.7920   77.2320  222.1330 C   0  0  0  0  0  0  0  0  0  0  0  0
  138.7910   78.0100  222.6790 C   0  0  0  0  0  0  0  0  0  0  0  0
  139.1500   79.2320  223.2550 C   0  0  0  0  0  0  0  0  0  0  0  0
  140.4750   79.6390  223.2690 C   0  0  0  0  0  0  0  0  0  0  0  0
  140.8860   80.8330  223.8220 C   0  0  0  0  0  0  0  0  0  0  0  0
  142.2090   81.2410  223.8390 C   0  0  0  0  0  0  0  0  0  0  0  0
  142.5990   82.4220  224.3890 F   0  0  0  0  0  0  0  0  0  0  0  0
  143.1560   80.4170  223.2780 C   0  0  0  0  0  0  0  0  0  0  0  0
  142.7690   79.2270  222.7230 C   0  0  0  0  0  0  0  0  0  0  0  0
  141.4460   78.8360  222.7160 C   0  0  0  0  0  0  0  0  0  0  0  0
  141.0700   77.6760  222.1750 N   0  0  0  0  0  0  0  0  0  0  0  0
  139.2340   74.9650  223.3600 H   0  0  0  0  0  0  0  0  0  0  0  0
  137.8771   73.2484  221.9294 H   0  0  0  0  0  0  0  0  0  0  0  0
  139.0400   73.5837  220.6191 H   0  0  0  0  0  0  0  0  0  0  0  0
  140.0519   69.9688  221.2837 H   0  0  0  0  0  0  0  0  0  0  0  0
  140.2536   69.3731  222.9029 H   0  0  0  0  0  0  0  0  0  0  0  0
  137.7762   69.4755  221.1697 H   0  0  0  0  0  0  0  0  0  0  0  0
  138.1241   68.3473  222.4871 H   0  0  0  0  0  0  0  0  0  0  0  0
  136.6514   70.9072  222.5530 H   0  0  0  0  0  0  0  0  0  0  0  0
  136.7117   69.6694  223.8026 H   0  0  0  0  0  0  0  0  0  0  0  0
  137.9525   72.0005  224.3563 H   0  0  0  0  0  0  0  0  0  0  0  0
  137.8712   68.6038  224.9050 H   0  0  0  0  0  0  0  0  0  0  0  0
  139.0321   67.4874  226.7815 H   0  0  0  0  0  0  0  0  0  0  0  0
  141.5258   70.9366  227.1975 H   0  0  0  0  0  0  0  0  0  0  0  0
  140.3557   72.0563  225.3165 H   0  0  0  0  0  0  0  0  0  0  0  0
  137.7423   77.6783  222.6614 H   0  0  0  0  0  0  0  0  0  0  0  0
  138.3761   79.8747  223.7000 H   0  0  0  0  0  0  0  0  0  0  0  0
  140.1279   81.4920  224.2704 H   0  0  0  0  0  0  0  0  0  0  0  0
  144.2158   80.7116  223.2752 H   0  0  0  0  0  0  0  0  0  0  0  0
  143.5279   78.5695  222.2737 H   0  0  0  0  0  0  0  0  0  0  0  0
  1  2  2  0
  2  3  1  0
  3  4  1  0
  4  5  1  0
  5  6  2  0
  5  7  1  0
  7  8  1  0
  8  9  1  0
  9 10  1  0
 10 11  1  0
 11 12  1  0
 12 13  2  0
 13 14  1  0
 14 15  2  0
 15 16  1  0
 15 17  1  0
 17 18  2  0
  2 19  1  0
 19 20  2  0
 20 21  1  0
 21 22  2  0
 22 23  1  0
 23 24  2  0
 24 25  1  0
 24 26  1  0
 26 27  2  0
 27 28  1  0
 28 29  2  0
 11  7  1  0
 18 12  1  0
 29 19  1  0
 28 22  1  0
  3 30  1  0
  4 31  1  0
  4 32  1  0
  8 33  1  0
  8 34  1  0
  9 35  1  0
  9 36  1  0
 10 37  1  0
 10 38  1  0
 11 39  1  1
 13 40  1  0
 14 41  1  0
 17 42  1  0
 18 43  1  0
 20 44  1  0
 21 45  1  0
 23 46  1  0
 26 47  1  0
 27 48  1  0
M  END
>  <smiles>  (31) 
O=C(NCC(=O)N1CCC[C@H]1c1ccc(Cl)cc1)c1ccc2cc(F)ccc2n1

>  <score_type>  (31) 
oracle

>  <origin>  (31) 
autodockgpu

>  <m_score__min__energy>  (31) 
-9.1099999999999994

>  <m_primary>  (31) 
energy

>  <rmsd>  (31) 
8.488489183804948

>  <m_score__min__rmsd>  (31) 
8.488489183804948

>  <meeko>  (31) 
{"free_energy": -8.83, "intermolecular_energy": -10.32, "internal_energy": -1.2, "cluster_size": 14, "cluster_id": 2, "rank_in_cluster": 2}

>  <energy>  (31) 
-8.78

>  <cluster_rmsd>  (31) 
0.21

>  <cluster>  (31) 
2

$$$$

     RDKit          3D

 48 51  0  0  0  0  0  0  0  0999 V2000
  140.1660   75.5710  220.5030 O   0  0  0  0  0  0  0  0  0  0  0  0
  139.7150   75.8410  221.6290 C   0  0  0  0  0  0  0  0  0  0  0  0
  138.9630   74.8750  222.3260 N   0  0  0  0  0  0  0  0  0  0  0  0
  138.7060   73.5700  221.7450 C   0  0  0  0  0  0  0  0  0  0  0  0
  139.6960   72.6340  222.2920 C   0  0  0  0  0  0  0  0  0  0  0  0
  140.9300   72.8670  222.3740 O   0  0  0  0  0  0  0  0  0  0  0  0
  139.2560   71.3680  222.7690 N   0  0  0  0  0  0  0  0  0  0  0  0
  139.5920   70.0370  222.2840 C   0  0  0  0  0  0  0  0  0  0  0  0
  138.2200   69.3990  222.2280 C   0  0  0  0  0  0  0  0  0  0  0  0
  137.3570   70.2050  223.1630 C   0  0  0  0  0  0  0  0  0  0  0  0
  138.3340   71.1070  223.8930 C   0  0  1  0  0  0  0  0  0  0  0  0
  139.0450   70.4350  224.9950 C   0  0  0  0  0  0  0  0  0  0  0  0
  140.1290   70.9300  225.6580 C   0  0  0  0  0  0  0  0  0  0  0  0
  140.7690   70.2570  226.6950 C   0  0  0  0  0  0  0  0  0  0  0  0
  140.2950   69.0350  227.0800 C   0  0  0  0  0  0  0  0  0  0  0  0
  141.1040   68.1980  228.3810 Cl  0  0  0  0  0  0  0  0  0  0  0  0
  139.1990   68.5100  226.4260 C   0  0  0  0  0  0  0  0  0  0  0  0
  138.5640   69.1880  225.3890 C   0  0  0  0  0  0  0  0  0  0  0  0
  139.9690   77.1480  222.2210 C   0  0  0  0  0  0  0  0  0  0  0  0
  138.9370   77.9130  222.7290 C   0  0  0  0  0  0  0  0  0  0  0  0
  139.2530   79.1560  223.2830 C   0  0  0  0  0  0  0  0  0  0  0  0
  140.5670   79.5970  223.3150 C   0  0  0  0  0  0  0  0  0  0  0  0
  140.9370   80.8140  223.8480 C   0  0  0  0  0  0  0  0  0  0  0  0
  142.2490   81.2560  223.8820 C   0  0  0  0  0  0  0  0  0  0  0  0
  142.5970   82.4580  224.4120 F   0  0  0  0  0  0  0  0  0  0  0  0
  143.2270   80.4430  223.3590 C   0  0  0  0  0  0  0  0  0  0  0  0
  142.8820   79.2310  222.8240 C   0  0  0  0  0  0  0  0  0  0  0  0
  141.5690   78.8070  222.8000 C   0  0  0  0  0  0  0  0  0  0  0  0
  141.2340   77.6260  222.2790 N   0  0  0  0  0  0  0  0  0  0  0  0
  138.6040   75.1550  223.2780 H   0  0  0  0  0  0  0  0  0  0  0  0
  137.6909   73.2368  222.0069 H   0  0  0  0  0  0  0  0  0  0  0  0
  138.7834   73.6148  220.6486 H   0  0  0  0  0  0  0  0  0  0  0  0
  140.0613   70.0752  221.2899 H   0  0  0  0  0  0  0  0  0  0  0  0
  140.3199   69.4963  222.9067 H   0  0  0  0  0  0  0  0  0  0  0  0
  137.8192   69.4406  221.2045 H   0  0  0  0  0  0  0  0  0  0  0  0
  138.2533   68.3387  222.5189 H   0  0  0  0  0  0  0  0  0  0  0  0
  136.6233   70.8005  222.5999 H   0  0  0  0  0  0  0  0  0  0  0  0
  136.7769   69.5714  223.8500 H   0  0  0  0  0  0  0  0  0  0  0  0
  137.8737   71.9766  224.3849 H   0  0  0  0  0  0  0  0  0  0  0  0
  140.5185   71.9138  225.3573 H   0  0  0  0  0  0  0  0  0  0  0  0
  141.6416   70.7016  227.1959 H   0  0  0  0  0  0  0  0  0  0  0  0
  138.8155   67.5259  226.7334 H   0  0  0  0  0  0  0  0  0  0  0  0
  137.6921   68.7441  224.8862 H   0  0  0  0  0  0  0  0  0  0  0  0
  137.8976   77.5542  222.6982 H   0  0  0  0  0  0  0  0  0  0  0  0
  138.4540   79.7889  223.6965 H   0  0  0  0  0  0  0  0  0  0  0  0
  140.1537   81.4637  224.2655 H   0  0  0  0  0  0  0  0  0  0  0  0
  144.2790   80.7642  223.3704 H   0  0  0  0  0  0  0  0  0  0  0  0
  143.6661   78.5830  222.4054 H   0  0  0  0  0  0  0  0  0  0  0  0
  1  2  2  0
  2  3  1  0
  3  4  1  0
  4  5  1  0
  5  6  2  0
  5  7  1  0
  7  8  1  0
  8  9  1  0
  9 10  1  0
 10 11  1  0
 11 12  1  0
 12 13  2  0
 13 14  1  0
 14 15  2  0
 15 16  1  0
 15 17  1  0
 17 18  2  0
  2 19  1  0
 19 20  2  0
 20 21  1  0
 21 22  2  0
 22 23  1  0
 23 24  2  0
 24 25  1  0
 24 26  1  0
 26 27  2  0
 27 28  1  0
 28 29  2  0
 11  7  1  0
 18 12  1  0
 29 19  1  0
 28 22  1  0
  3 30  1  0
  4 31  1  0
  4 32  1  0
  8 33  1  0
  8 34  1  0
  9 35  1  0
  9 36  1  0
 10 37  1  0
 10 38  1  0
 11 39  1  1
 13 40  1  0
 14 41  1  0
 17 42  1  0
 18 43  1  0
 20 44  1  0
 21 45  1  0
 23 46  1  0
 26 47  1  0
 27 48  1  0
M  END
>  <smiles>  (32) 
O=C(NCC(=O)N1CCC[C@H]1c1ccc(Cl)cc1)c1ccc2cc(F)ccc2n1

>  <score_type>  (32) 
oracle

>  <origin>  (32) 
autodockgpu

>  <m_score__min__energy>  (32) 
-9.1099999999999994

>  <m_primary>  (32) 
energy

>  <rmsd>  (32) 
8.469142141077475

>  <m_score__min__rmsd>  (32) 
8.469142141077475

>  <meeko>  (32) 
{"free_energy": -8.88, "intermolecular_energy": -10.37, "internal_energy": -1.17, "cluster_size": 14, "cluster_id": 2, "rank_in_cluster": 1}

>  <energy>  (32) 
-8.28

>  <cluster_rmsd>  (32) 
0.86

>  <cluster>  (32) 
2

$$$$

     RDKit          3D

 48 51  0  0  0  0  0  0  0  0999 V2000
  141.0490   71.8120  221.4620 O   0  0  0  0  0  0  0  0  0  0  0  0
  140.1990   72.0270  222.3430 C   0  0  0  0  0  0  0  0  0  0  0  0
  139.3480   73.1440  222.2300 N   0  0  0  0  0  0  0  0  0  0  0  0
  139.4540   74.0480  221.0980 C   0  0  0  0  0  0  0  0  0  0  0  0
  138.9680   75.3640  221.5300 C   0  0  0  0  0  0  0  0  0  0  0  0
  138.0490   75.5460  222.3710 O   0  0  0  0  0  0  0  0  0  0  0  0
  139.5600   76.5330  220.9740 N   0  0  0  0  0  0  0  0  0  0  0  0
  138.9150   77.7050  220.4020 C   0  0  0  0  0  0  0  0  0  0  0  0
  139.7160   77.8790  219.1290 C   0  0  0  0  0  0  0  0  0  0  0  0
  141.0200   77.1650  219.3680 C   0  0  0  0  0  0  0  0  0  0  0  0
  141.0010   76.8310  220.8480 C   0  0  1  0  0  0  0  0  0  0  0  0
  141.3680   77.9670  221.7120 C   0  0  0  0  0  0  0  0  0  0  0  0
  141.2810   77.9880  223.0730 C   0  0  0  0  0  0  0  0  0  0  0  0
  141.6400   79.0870  223.8490 C   0  0  0  0  0  0  0  0  0  0  0  0
  142.1070   80.2100  223.2260 C   0  0  0  0  0  0  0  0  0  0  0  0
  142.5540   81.5830  224.2070 Cl  0  0  0  0  0  0  0  0  0  0  0  0
  142.2050   80.2160  221.8500 C   0  0  0  0  0  0  0  0  0  0  0  0
  141.8440   79.1130  221.0800 C   0  0  0  0  0  0  0  0  0  0  0  0
  140.0850   71.1250  223.4820 C   0  0  0  0  0  0  0  0  0  0  0  0
  139.4870   69.8870  223.3540 C   0  0  0  0  0  0  0  0  0  0  0  0
  139.4140   69.0730  224.4880 C   0  0  0  0  0  0  0  0  0  0  0  0
  139.9300   69.5080  225.6980 C   0  0  0  0  0  0  0  0  0  0  0  0
  139.8860   68.7490  226.8480 C   0  0  0  0  0  0  0  0  0  0  0  0
  140.4010   69.1810  228.0590 C   0  0  0  0  0  0  0  0  0  0  0  0
  140.3500   68.4190  229.1840 F   0  0  0  0  0  0  0  0  0  0  0  0
  140.9850   70.4250  228.1150 C   0  0  0  0  0  0  0  0  0  0  0  0
  141.0390   71.1960  226.9860 C   0  0  0  0  0  0  0  0  0  0  0  0
  140.5200   70.7480  225.7880 C   0  0  0  0  0  0  0  0  0  0  0  0
  140.5740   71.4990  224.6870 N   0  0  0  0  0  0  0  0  0  0  0  0
  138.6450   73.2810  223.0040 H   0  0  0  0  0  0  0  0  0  0  0  0
  140.5031   74.1234  220.7759 H   0  0  0  0  0  0  0  0  0  0  0  0
  138.8580   73.6764  220.2514 H   0  0  0  0  0  0  0  0  0  0  0  0
  137.8521   77.5182  220.1888 H   0  0  0  0  0  0  0  0  0  0  0  0
  138.9087   78.5869  221.0594 H   0  0  0  0  0  0  0  0  0  0  0  0
  139.1840   77.4311  218.2767 H   0  0  0  0  0  0  0  0  0  0  0  0
  139.8724   78.9411  218.8894 H   0  0  0  0  0  0  0  0  0  0  0  0
  141.0786   76.2484  218.7627 H   0  0  0  0  0  0  0  0  0  0  0  0
  141.8905   77.7760  219.0870 H   0  0  0  0  0  0  0  0  0  0  0  0
  141.7107   76.0467  221.1499 H   0  0  0  0  0  0  0  0  0  0  0  0
  140.9074   77.0889  223.5848 H   0  0  0  0  0  0  0  0  0  0  0  0
  141.5492   79.0518  224.9447 H   0  0  0  0  0  0  0  0  0  0  0  0
  142.5795   81.1191  221.3458 H   0  0  0  0  0  0  0  0  0  0  0  0
  141.9339   79.1467  219.9842 H   0  0  0  0  0  0  0  0  0  0  0  0
  139.0803   69.5514  222.3886 H   0  0  0  0  0  0  0  0  0  0  0  0
  138.9440   68.0809  224.4193 H   0  0  0  0  0  0  0  0  0  0  0  0
  139.4201   67.7536  226.8017 H   0  0  0  0  0  0  0  0  0  0  0  0
  141.4056   70.7974  229.0607 H   0  0  0  0  0  0  0  0  0  0  0  0
  141.5047   72.1914  227.0339 H   0  0  0  0  0  0  0  0  0  0  0  0
  1  2  2  0
  2  3  1  0
  3  4  1  0
  4  5  1  0
  5  6  2  0
  5  7  1  0
  7  8  1  0
  8  9  1  0
  9 10  1  0
 10 11  1  0
 11 12  1  0
 12 13  2  0
 13 14  1  0
 14 15  2  0
 15 16  1  0
 15 17  1  0
 17 18  2  0
  2 19  1  0
 19 20  2  0
 20 21  1  0
 21 22  2  0
 22 23  1  0
 23 24  2  0
 24 25  1  0
 24 26  1  0
 26 27  2  0
 27 28  1  0
 28 29  2  0
 11  7  1  0
 18 12  1  0
 29 19  1  0
 28 22  1  0
  3 30  1  0
  4 31  1  0
  4 32  1  0
  8 33  1  0
  8 34  1  0
  9 35  1  0
  9 36  1  0
 10 37  1  0
 10 38  1  0
 11 39  1  6
 13 40  1  0
 14 41  1  0
 17 42  1  0
 18 43  1  0
 20 44  1  0
 21 45  1  0
 23 46  1  0
 26 47  1  0
 27 48  1  0
M  END
>  <smiles>  (33) 
O=C(NCC(=O)N1CCC[C@H]1c1ccc(Cl)cc1)c1ccc2cc(F)ccc2n1

>  <score_type>  (33) 
oracle

>  <origin>  (33) 
autodockgpu

>  <m_score__min__energy>  (33) 
-9.1099999999999994

>  <m_primary>  (33) 
energy

>  <rmsd>  (33) 
1.6777062416746582

>  <m_score__min__rmsd>  (33) 
1.6777062416746582

>  <meeko>  (33) 
{"free_energy": -8.72, "intermolecular_energy": -10.21, "internal_energy": -1.5, "cluster_size": 27, "cluster_id": 1, "rank_in_cluster": 4}

>  <energy>  (33) 
-8.24

>  <cluster_rmsd>  (33) 
0.89

>  <cluster>  (33) 
2

$$$$

     RDKit          3D

 48 51  0  0  0  0  0  0  0  0999 V2000
  138.8910   71.3980  221.1960 O   0  0  0  0  0  0  0  0  0  0  0  0
  139.1860   71.9160  222.2870 C   0  0  0  0  0  0  0  0  0  0  0  0
  139.2430   73.3190  222.3960 N   0  0  0  0  0  0  0  0  0  0  0  0
  138.9630   74.1670  221.2520 C   0  0  0  0  0  0  0  0  0  0  0  0
  140.2220   74.8080  220.8510 C   0  0  0  0  0  0  0  0  0  0  0  0
  141.3350   74.2240  220.7980 O   0  0  0  0  0  0  0  0  0  0  0  0
  140.2100   76.1850  220.4920 N   0  0  0  0  0  0  0  0  0  0  0  0
  139.0780   77.0910  220.3680 C   0  0  0  0  0  0  0  0  0  0  0  0
  139.3870   77.7550  219.0430 C   0  0  0  0  0  0  0  0  0  0  0  0
  140.8670   77.5710  218.8310 C   0  0  0  0  0  0  0  0  0  0  0  0
  141.3730   77.0310  220.1560 C   0  0  1  0  0  0  0  0  0  0  0  0
  141.5640   78.0730  221.1810 C   0  0  0  0  0  0  0  0  0  0  0  0
  141.4370   77.8920  222.5270 C   0  0  0  0  0  0  0  0  0  0  0  0
  141.6270   78.9090  223.4600 C   0  0  0  0  0  0  0  0  0  0  0  0
  141.9600   80.1580  223.0160 C   0  0  0  0  0  0  0  0  0  0  0  0
  142.1970   81.4250  224.1920 Cl  0  0  0  0  0  0  0  0  0  0  0  0
  142.0950   80.3680  221.6590 C   0  0  0  0  0  0  0  0  0  0  0  0
  141.9020   79.3470  220.7310 C   0  0  0  0  0  0  0  0  0  0  0  0
  139.4680   71.0730  223.4410 C   0  0  0  0  0  0  0  0  0  0  0  0
  139.2250   69.7140  223.4080 C   0  0  0  0  0  0  0  0  0  0  0  0
  139.5210   68.9670  224.5520 C   0  0  0  0  0  0  0  0  0  0  0  0
  140.0400   69.5830  225.6780 C   0  0  0  0  0  0  0  0  0  0  0  0
  140.3500   68.8970  226.8330 C   0  0  0  0  0  0  0  0  0  0  0  0
  140.8700   69.5100  227.9600 C   0  0  0  0  0  0  0  0  0  0  0  0
  141.1710   68.8190  229.0910 F   0  0  0  0  0  0  0  0  0  0  0  0
  141.0880   70.8680  227.9250 C   0  0  0  0  0  0  0  0  0  0  0  0
  140.7870   71.5690  226.7890 C   0  0  0  0  0  0  0  0  0  0  0  0
  140.2700   70.9400  225.6750 C   0  0  0  0  0  0  0  0  0  0  0  0
  139.9780   71.6240  224.5680 N   0  0  0  0  0  0  0  0  0  0  0  0
  139.4980   73.7080  223.3430 H   0  0  0  0  0  0  0  0  0  0  0  0
  138.5713   73.5597  220.4227 H   0  0  0  0  0  0  0  0  0  0  0  0
  138.2102   74.9261  221.5109 H   0  0  0  0  0  0  0  0  0  0  0  0
  138.1242   76.5442  220.3336 H   0  0  0  0  0  0  0  0  0  0  0  0
  138.9602   77.7892  221.2098 H   0  0  0  0  0  0  0  0  0  0  0  0
  138.8205   77.2744  218.2317 H   0  0  0  0  0  0  0  0  0  0  0  0
  139.1062   78.8185  219.0463 H   0  0  0  0  0  0  0  0  0  0  0  0
  141.0579   76.8532  218.0196 H   0  0  0  0  0  0  0  0  0  0  0  0
  141.3686   78.5057  218.5397 H   0  0  0  0  0  0  0  0  0  0  0  0
  142.3582   76.5442  220.1065 H   0  0  0  0  0  0  0  0  0  0  0  0
  141.1705   76.8903  222.8952 H   0  0  0  0  0  0  0  0  0  0  0  0
  141.5110   78.7102  224.5356 H   0  0  0  0  0  0  0  0  0  0  0  0
  142.3632   81.3722  221.2989 H   0  0  0  0  0  0  0  0  0  0  0  0
  142.0153   79.5448  219.6549 H   0  0  0  0  0  0  0  0  0  0  0  0
  138.8112   69.2339  222.5090 H   0  0  0  0  0  0  0  0  0  0  0  0
  139.3402   67.8820  224.5575 H   0  0  0  0  0  0  0  0  0  0  0  0
  140.1759   67.8112  226.8603 H   0  0  0  0  0  0  0  0  0  0  0  0
  141.5009   71.3861  228.8031 H   0  0  0  0  0  0  0  0  0  0  0  0
  140.9605   72.6549  226.7634 H   0  0  0  0  0  0  0  0  0  0  0  0
  1  2  2  0
  2  3  1  0
  3  4  1  0
  4  5  1  0
  5  6  2  0
  5  7  1  0
  7  8  1  0
  8  9  1  0
  9 10  1  0
 10 11  1  0
 11 12  1  0
 12 13  2  0
 13 14  1  0
 14 15  2  0
 15 16  1  0
 15 17  1  0
 17 18  2  0
  2 19  1  0
 19 20  2  0
 20 21  1  0
 21 22  2  0
 22 23  1  0
 23 24  2  0
 24 25  1  0
 24 26  1  0
 26 27  2  0
 27 28  1  0
 28 29  2  0
 11  7  1  0
 18 12  1  0
 29 19  1  0
 28 22  1  0
  3 30  1  0
  4 31  1  0
  4 32  1  0
  8 33  1  0
  8 34  1  0
  9 35  1  0
  9 36  1  0
 10 37  1  0
 10 38  1  0
 11 39  1  6
 13 40  1  0
 14 41  1  0
 17 42  1  0
 18 43  1  0
 20 44  1  0
 21 45  1  0
 23 46  1  0
 26 47  1  0
 27 48  1  0
M  END
>  <smiles>  (34) 
O=C(NCC(=O)N1CCC[C@H]1c1ccc(Cl)cc1)c1ccc2cc(F)ccc2n1

>  <score_type>  (34) 
oracle

>  <origin>  (34) 
autodockgpu

>  <m_score__min__energy>  (34) 
-9.1099999999999994

>  <m_primary>  (34) 
energy

>  <rmsd>  (34) 
1.3515643461830056

>  <m_score__min__rmsd>  (34) 
1.3515643461830056

>  <meeko>  (34) 
{"free_energy": -8.04, "intermolecular_energy": -9.53, "internal_energy": -1.55, "cluster_size": 27, "cluster_id": 1, "rank_in_cluster": 25}

>  <energy>  (34) 
-8.23

>  <cluster_rmsd>  (34) 
0.9

>  <cluster>  (34) 
2

$$$$

     RDKit          3D

 48 51  0  0  0  0  0  0  0  0999 V2000
  141.0730   71.9450  221.2500 O   0  0  0  0  0  0  0  0  0  0  0  0
  140.4390   72.3630  222.2340 C   0  0  0  0  0  0  0  0  0  0  0  0
  139.9500   73.6830  222.2350 N   0  0  0  0  0  0  0  0  0  0  0  0
  140.1770   74.5630  221.1020 C   0  0  0  0  0  0  0  0  0  0  0  0
  138.9050   75.2250  220.7880 C   0  0  0  0  0  0  0  0  0  0  0  0
  138.1070   74.8490  219.8910 O   0  0  0  0  0  0  0  0  0  0  0  0
  138.5260   76.3760  221.5340 N   0  0  0  0  0  0  0  0  0  0  0  0
  138.0580   76.4640  222.9090 C   0  0  0  0  0  0  0  0  0  0  0  0
  136.8630   77.3800  222.7470 C   0  0  0  0  0  0  0  0  0  0  0  0
  137.0920   78.1220  221.4560 C   0  0  0  0  0  0  0  0  0  0  0  0
  138.5180   77.7790  221.0720 C   0  0  1  0  0  0  0  0  0  0  0  0
  139.5300   78.5650  221.8010 C   0  0  0  0  0  0  0  0  0  0  0  0
  139.2770   79.6650  222.5680 C   0  0  0  0  0  0  0  0  0  0  0  0
  140.2680   80.3770  223.2390 C   0  0  0  0  0  0  0  0  0  0  0  0
  141.5650   79.9620  223.1330 C   0  0  0  0  0  0  0  0  0  0  0  0
  142.8000   80.8600  223.9780 Cl  0  0  0  0  0  0  0  0  0  0  0  0
  141.8480   78.8520  222.3640 C   0  0  0  0  0  0  0  0  0  0  0  0
  140.8530   78.1440  221.6940 C   0  0  0  0  0  0  0  0  0  0  0  0
  140.2060   71.4870  223.3750 C   0  0  0  0  0  0  0  0  0  0  0  0
  139.5600   70.2760  223.2240 C   0  0  0  0  0  0  0  0  0  0  0  0
  139.3710   69.4870  224.3620 C   0  0  0  0  0  0  0  0  0  0  0  0
  139.8220   69.9190  225.5980 C   0  0  0  0  0  0  0  0  0  0  0  0
  139.6630   69.1830  226.7540 C   0  0  0  0  0  0  0  0  0  0  0  0
  140.1150   69.6120  227.9900 C   0  0  0  0  0  0  0  0  0  0  0  0
  139.9500   68.8730  229.1200 F   0  0  0  0  0  0  0  0  0  0  0  0
  140.7510   70.8280  228.0690 C   0  0  0  0  0  0  0  0  0  0  0  0
  140.9190   71.5760  226.9350 C   0  0  0  0  0  0  0  0  0  0  0  0
  140.4630   71.1310  225.7110 C   0  0  0  0  0  0  0  0  0  0  0  0
  140.6280   71.8600  224.6060 N   0  0  0  0  0  0  0  0  0  0  0  0
  139.4190   73.9880  223.0940 H   0  0  0  0  0  0  0  0  0  0  0  0
  140.9373   75.3153  221.3586 H   0  0  0  0  0  0  0  0  0  0  0  0
  140.5366   73.9893  220.2351 H   0  0  0  0  0  0  0  0  0  0  0  0
  137.7624   75.4790  223.2993 H   0  0  0  0  0  0  0  0  0  0  0  0
  138.8128   76.8239  223.6237 H   0  0  0  0  0  0  0  0  0  0  0  0
  135.9342   76.7932  222.6928 H   0  0  0  0  0  0  0  0  0  0  0  0
  136.7599   78.0683  223.5988 H   0  0  0  0  0  0  0  0  0  0  0  0
  136.3880   77.7827  220.6818 H   0  0  0  0  0  0  0  0  0  0  0  0
  136.9352   79.2056  221.5616 H   0  0  0  0  0  0  0  0  0  0  0  0
  138.7654   77.9684  220.0171 H   0  0  0  0  0  0  0  0  0  0  0  0
  138.2357   80.0072  222.6611 H   0  0  0  0  0  0  0  0  0  0  0  0
  140.0106   81.2588  223.8442 H   0  0  0  0  0  0  0  0  0  0  0  0
  142.8917   78.5157  222.2773 H   0  0  0  0  0  0  0  0  0  0  0  0
  141.1093   77.2628  221.0876 H   0  0  0  0  0  0  0  0  0  0  0  0
  139.2049   69.9424  222.2378 H   0  0  0  0  0  0  0  0  0  0  0  0
  138.8606   68.5164  224.2753 H   0  0  0  0  0  0  0  0  0  0  0  0
  139.1534   68.2102  226.6906 H   0  0  0  0  0  0  0  0  0  0  0  0
  141.1222   71.1973  229.0364 H   0  0  0  0  0  0  0  0  0  0  0  0
  141.4268   72.5496  227.0006 H   0  0  0  0  0  0  0  0  0  0  0  0
  1  2  2  0
  2  3  1  0
  3  4  1  0
  4  5  1  0
  5  6  2  0
  5  7  1  0
  7  8  1  0
  8  9  1  0
  9 10  1  0
 10 11  1  0
 11 12  1  0
 12 13  2  0
 13 14  1  0
 14 15  2  0
 15 16  1  0
 15 17  1  0
 17 18  2  0
  2 19  1  0
 19 20  2  0
 20 21  1  0
 21 22  2  0
 22 23  1  0
 23 24  2  0
 24 25  1  0
 24 26  1  0
 26 27  2  0
 27 28  1  0
 28 29  2  0
 11  7  1  0
 18 12  1  0
 29 19  1  0
 28 22  1  0
  3 30  1  0
  4 31  1  0
  4 32  1  0
  8 33  1  0
  8 34  1  0
  9 35  1  0
  9 36  1  0
 10 37  1  0
 10 38  1  0
 11 39  1  6
 13 40  1  0
 14 41  1  0
 17 42  1  0
 18 43  1  0
 20 44  1  0
 21 45  1  0
 23 46  1  0
 26 47  1  0
 27 48  1  0
M  END
>  <smiles>  (35) 
O=C(NCC(=O)N1CCC[C@H]1c1ccc(Cl)cc1)c1ccc2cc(F)ccc2n1

>  <score_type>  (35) 
oracle

>  <origin>  (35) 
autodockgpu

>  <m_score__min__energy>  (35) 
-9.1099999999999994

>  <m_primary>  (35) 
energy

>  <rmsd>  (35) 
3.0613639390701612

>  <m_score__min__rmsd>  (35) 
3.0613639390701612

>  <meeko>  (35) 
{"free_energy": -8.24, "intermolecular_energy": -9.73, "internal_energy": -1.34, "cluster_size": 27, "cluster_id": 1, "rank_in_cluster": 24}

>  <energy>  (35) 
-8.23

>  <cluster_rmsd>  (35) 
1.04

>  <cluster>  (35) 
2

$$$$

     RDKit          3D

 48 51  0  0  0  0  0  0  0  0999 V2000
  137.2970   75.7780  222.2480 O   0  0  0  0  0  0  0  0  0  0  0  0
  138.5170   76.0050  222.3060 C   0  0  0  0  0  0  0  0  0  0  0  0
  139.4310   74.9740  222.0120 N   0  0  0  0  0  0  0  0  0  0  0  0
  138.9650   73.6500  221.6420 C   0  0  0  0  0  0  0  0  0  0  0  0
  139.8870   72.6710  222.2310 C   0  0  0  0  0  0  0  0  0  0  0  0
  141.1310   72.8320  222.3310 O   0  0  0  0  0  0  0  0  0  0  0  0
  139.3630   71.4450  222.7290 N   0  0  0  0  0  0  0  0  0  0  0  0
  139.5950   70.0880  222.2580 C   0  0  0  0  0  0  0  0  0  0  0  0
  138.1800   69.5500  222.2270 C   0  0  0  0  0  0  0  0  0  0  0  0
  137.3900   70.4280  223.1620 C   0  0  0  0  0  0  0  0  0  0  0  0
  138.4390   71.2660  223.8680 C   0  0  1  0  0  0  0  0  0  0  0  0
  139.1140   70.5570  224.9700 C   0  0  0  0  0  0  0  0  0  0  0  0
  140.2190   70.9980  225.6370 C   0  0  0  0  0  0  0  0  0  0  0  0
  140.8240   70.2920  226.6740 C   0  0  0  0  0  0  0  0  0  0  0  0
  140.2910   69.0930  227.0540 C   0  0  0  0  0  0  0  0  0  0  0  0
  141.0550   68.2150  228.3540 Cl  0  0  0  0  0  0  0  0  0  0  0  0
  139.1730   68.6230  226.3950 C   0  0  0  0  0  0  0  0  0  0  0  0
  138.5730   69.3340  225.3590 C   0  0  0  0  0  0  0  0  0  0  0  0
  138.9940   77.3320  222.6760 C   0  0  0  0  0  0  0  0  0  0  0  0
  138.1110   78.3590  222.9430 C   0  0  0  0  0  0  0  0  0  0  0  0
  138.6390   79.6040  223.2930 C   0  0  0  0  0  0  0  0  0  0  0  0
  140.0100   79.7900  223.3660 C   0  0  0  0  0  0  0  0  0  0  0  0
  140.5860   80.9960  223.7050 C   0  0  0  0  0  0  0  0  0  0  0  0
  141.9560   81.1840  223.7790 C   0  0  0  0  0  0  0  0  0  0  0  0
  142.5080   82.3800  224.1160 F   0  0  0  0  0  0  0  0  0  0  0  0
  142.7790   80.1180  223.5020 C   0  0  0  0  0  0  0  0  0  0  0  0
  142.2280   78.9120  223.1620 C   0  0  0  0  0  0  0  0  0  0  0  0
  140.8600   78.7440  223.0940 C   0  0  0  0  0  0  0  0  0  0  0  0
  140.3240   77.5680  222.7630 N   0  0  0  0  0  0  0  0  0  0  0  0
  140.4550   75.2200  222.0770 H   0  0  0  0  0  0  0  0  0  0  0  0
  137.9487   73.4884  222.0307 H   0  0  0  0  0  0  0  0  0  0  0  0
  138.9377   73.5433  220.5475 H   0  0  0  0  0  0  0  0  0  0  0  0
  140.0528   70.0798  221.2578 H   0  0  0  0  0  0  0  0  0  0  0  0
  140.2898   69.5038  222.8792 H   0  0  0  0  0  0  0  0  0  0  0  0
  137.7698   69.6079  221.2080 H   0  0  0  0  0  0  0  0  0  0  0  0
  138.1403   68.4936  222.5311 H   0  0  0  0  0  0  0  0  0  0  0  0
  136.6938   71.0680  222.6001 H   0  0  0  0  0  0  0  0  0  0  0  0
  136.7750   69.8464  223.8645 H   0  0  0  0  0  0  0  0  0  0  0  0
  138.0496   72.1729  224.3537 H   0  0  0  0  0  0  0  0  0  0  0  0
  140.6557   71.9629  225.3400 H   0  0  0  0  0  0  0  0  0  0  0  0
  141.7156   70.6930  227.1783 H   0  0  0  0  0  0  0  0  0  0  0  0
  138.7427   67.6569  226.6976 H   0  0  0  0  0  0  0  0  0  0  0  0
  137.6816   68.9342  224.8534 H   0  0  0  0  0  0  0  0  0  0  0  0
  137.0240   78.2016  222.8819 H   0  0  0  0  0  0  0  0  0  0  0  0
  137.9616   80.4425  223.5122 H   0  0  0  0  0  0  0  0  0  0  0  0
  139.9268   81.8482  223.9269 H   0  0  0  0  0  0  0  0  0  0  0  0
  143.8717   80.2334  223.5532 H   0  0  0  0  0  0  0  0  0  0  0  0
  142.8880   78.0608  222.9388 H   0  0  0  0  0  0  0  0  0  0  0  0
  1  2  2  0
  2  3  1  0
  3  4  1  0
  4  5  1  0
  5  6  2  0
  5  7  1  0
  7  8  1  0
  8  9  1  0
  9 10  1  0
 10 11  1  0
 11 12  1  0
 12 13  2  0
 13 14  1  0
 14 15  2  0
 15 16  1  0
 15 17  1  0
 17 18  2  0
  2 19  1  0
 19 20  2  0
 20 21  1  0
 21 22  2  0
 22 23  1  0
 23 24  2  0
 24 25  1  0
 24 26  1  0
 26 27  2  0
 27 28  1  0
 28 29  2  0
 11  7  1  0
 18 12  1  0
 29 19  1  0
 28 22  1  0
  3 30  1  0
  4 31  1  0
  4 32  1  0
  8 33  1  0
  8 34  1  0
  9 35  1  0
  9 36  1  0
 10 37  1  0
 10 38  1  0
 11 39  1  1
 13 40  1  0
 14 41  1  0
 17 42  1  0
 18 43  1  0
 20 44  1  0
 21 45  1  0
 23 46  1  0
 26 47  1  0
 27 48  1  0
M  END
>  <smiles>  (36) 
O=C(NCC(=O)N1CCC[C@H]1c1ccc(Cl)cc1)c1ccc2cc(F)ccc2n1

>  <score_type>  (36) 
oracle

>  <origin>  (36) 
autodockgpu

>  <m_score__min__energy>  (36) 
-9.1099999999999994

>  <m_primary>  (36) 
energy

>  <rmsd>  (36) 
8.47280395299478

>  <m_score__min__rmsd>  (36) 
8.47280395299478

>  <meeko>  (36) 
{"free_energy": -8.21, "intermolecular_energy": -9.7, "internal_energy": -1.79, "cluster_size": 14, "cluster_id": 2, "rank_in_cluster": 11}

>  <energy>  (36) 
-8.23

>  <cluster_rmsd>  (36) 
0.89

>  <cluster>  (36) 
2

$$$$

     RDKit          3D

 48 51  0  0  0  0  0  0  0  0999 V2000
  137.1580   75.9780  222.0960 O   0  0  0  0  0  0  0  0  0  0  0  0
  138.3760   76.1330  222.2880 C   0  0  0  0  0  0  0  0  0  0  0  0
  139.2440   75.0310  222.1690 N   0  0  0  0  0  0  0  0  0  0  0  0
  138.7340   73.7150  221.8260 C   0  0  0  0  0  0  0  0  0  0  0  0
  139.7090   72.7220  222.2940 C   0  0  0  0  0  0  0  0  0  0  0  0
  140.9490   72.9200  222.3730 O   0  0  0  0  0  0  0  0  0  0  0  0
  139.2440   71.4360  222.6910 N   0  0  0  0  0  0  0  0  0  0  0  0
  139.6060   70.1280  222.1670 C   0  0  0  0  0  0  0  0  0  0  0  0
  138.2400   69.4950  222.0100 C   0  0  0  0  0  0  0  0  0  0  0  0
  137.3280   70.2610  222.9320 C   0  0  0  0  0  0  0  0  0  0  0  0
  138.2640   71.1290  223.7520 C   0  0  1  0  0  0  0  0  0  0  0  0
  138.9150   70.4080  224.8600 C   0  0  0  0  0  0  0  0  0  0  0  0
  138.5880   69.1550  225.2910 C   0  0  0  0  0  0  0  0  0  0  0  0
  139.2330   68.5130  226.3440 C   0  0  0  0  0  0  0  0  0  0  0  0
  140.2500   69.1600  226.9890 C   0  0  0  0  0  0  0  0  0  0  0  0
  141.0520   68.3480  228.3080 Cl  0  0  0  0  0  0  0  0  0  0  0  0
  140.6000   70.4290  226.5730 C   0  0  0  0  0  0  0  0  0  0  0  0
  139.9500   71.0660  225.5190 C   0  0  0  0  0  0  0  0  0  0  0  0
  138.8970   77.4500  222.6320 C   0  0  0  0  0  0  0  0  0  0  0  0
  138.0500   78.5230  222.8280 C   0  0  0  0  0  0  0  0  0  0  0  0
  138.6190   79.7560  223.1570 C   0  0  0  0  0  0  0  0  0  0  0  0
  139.9930   79.8850  223.2780 C   0  0  0  0  0  0  0  0  0  0  0  0
  140.6090   81.0770  223.6000 C   0  0  0  0  0  0  0  0  0  0  0  0
  141.9820   81.2080  223.7220 C   0  0  0  0  0  0  0  0  0  0  0  0
  142.5730   82.3900  224.0410 F   0  0  0  0  0  0  0  0  0  0  0  0
  142.7670   80.0980  223.5140 C   0  0  0  0  0  0  0  0  0  0  0  0
  142.1770   78.9060  223.1930 C   0  0  0  0  0  0  0  0  0  0  0  0
  140.8060   78.7940  223.0760 C   0  0  0  0  0  0  0  0  0  0  0  0
  140.2320   77.6310  222.7640 N   0  0  0  0  0  0  0  0  0  0  0  0
  140.2680   75.2160  222.3420 H   0  0  0  0  0  0  0  0  0  0  0  0
  137.7645   73.5490  222.3185 H   0  0  0  0  0  0  0  0  0  0  0  0
  138.5889   73.6296  220.7390 H   0  0  0  0  0  0  0  0  0  0  0  0
  140.1276   70.2091  221.2019 H   0  0  0  0  0  0  0  0  0  0  0  0
  140.3001   69.5595  222.8035 H   0  0  0  0  0  0  0  0  0  0  0  0
  137.8943   69.5817  220.9693 H   0  0  0  0  0  0  0  0  0  0  0  0
  138.2585   68.4229  222.2554 H   0  0  0  0  0  0  0  0  0  0  0  0
  136.6250   70.8817  222.3571 H   0  0  0  0  0  0  0  0  0  0  0  0
  136.7127   69.5989  223.5589 H   0  0  0  0  0  0  0  0  0  0  0  0
  137.7783   71.9775  224.2561 H   0  0  0  0  0  0  0  0  0  0  0  0
  137.7716   68.6245  224.7791 H   0  0  0  0  0  0  0  0  0  0  0  0
  138.9295   67.5016  226.6522 H   0  0  0  0  0  0  0  0  0  0  0  0
  141.4174   70.9530  227.0900 H   0  0  0  0  0  0  0  0  0  0  0  0
  140.2510   72.0780  225.2104 H   0  0  0  0  0  0  0  0  0  0  0  0
  136.9603   78.4104  222.7281 H   0  0  0  0  0  0  0  0  0  0  0  0
  137.9716   80.6301  223.3210 H   0  0  0  0  0  0  0  0  0  0  0  0
  139.9804   81.9640  223.7675 H   0  0  0  0  0  0  0  0  0  0  0  0
  143.8610   80.1680  223.6051 H   0  0  0  0  0  0  0  0  0  0  0  0
  142.8070   78.0201  223.0249 H   0  0  0  0  0  0  0  0  0  0  0  0
  1  2  2  0
  2  3  1  0
  3  4  1  0
  4  5  1  0
  5  6  2  0
  5  7  1  0
  7  8  1  0
  8  9  1  0
  9 10  1  0
 10 11  1  0
 11 12  1  0
 12 13  2  0
 13 14  1  0
 14 15  2  0
 15 16  1  0
 15 17  1  0
 17 18  2  0
  2 19  1  0
 19 20  2  0
 20 21  1  0
 21 22  2  0
 22 23  1  0
 23 24  2  0
 24 25  1  0
 24 26  1  0
 26 27  2  0
 27 28  1  0
 28 29  2  0
 11  7  1  0
 18 12  1  0
 29 19  1  0
 28 22  1  0
  3 30  1  0
  4 31  1  0
  4 32  1  0
  8 33  1  0
  8 34  1  0
  9 35  1  0
  9 36  1  0
 10 37  1  0
 10 38  1  0
 11 39  1  1
 13 40  1  0
 14 41  1  0
 17 42  1  0
 18 43  1  0
 20 44  1  0
 21 45  1  0
 23 46  1  0
 26 47  1  0
 27 48  1  0
M  END
>  <smiles>  (37) 
O=C(NCC(=O)N1CCC[C@H]1c1ccc(Cl)cc1)c1ccc2cc(F)ccc2n1

>  <score_type>  (37) 
oracle

>  <origin>  (37) 
autodockgpu

>  <m_score__min__energy>  (37) 
-9.1099999999999994

>  <m_primary>  (37) 
energy

>  <rmsd>  (37) 
8.521023328723523

>  <m_score__min__rmsd>  (37) 
8.521023328723523

>  <meeko>  (37) 
{"free_energy": -8.22, "intermolecular_energy": -9.71, "internal_energy": -1.9, "cluster_size": 14, "cluster_id": 2, "rank_in_cluster": 10}

>  <energy>  (37) 
-8.22

>  <cluster_rmsd>  (37) 
0.9

>  <cluster>  (37) 
2

$$$$

     RDKit          3D

 48 51  0  0  0  0  0  0  0  0999 V2000
  139.3810   71.1440  221.1110 O   0  0  0  0  0  0  0  0  0  0  0  0
  139.3870   71.6210  222.2580 C   0  0  0  0  0  0  0  0  0  0  0  0
  139.2860   73.0150  222.4320 N   0  0  0  0  0  0  0  0  0  0  0  0
  139.1770   73.9020  221.2880 C   0  0  0  0  0  0  0  0  0  0  0  0
  140.3300   74.8110  221.3150 C   0  0  0  0  0  0  0  0  0  0  0  0
  141.5030   74.4680  221.6150 O   0  0  0  0  0  0  0  0  0  0  0  0
  140.1350   76.1800  220.9810 N   0  0  0  0  0  0  0  0  0  0  0  0
  138.9350   76.9940  221.1090 C   0  0  0  0  0  0  0  0  0  0  0  0
  138.9030   77.6710  219.7550 C   0  0  0  0  0  0  0  0  0  0  0  0
  140.3140   77.6020  219.2320 C   0  0  0  0  0  0  0  0  0  0  0  0
  141.1300   77.1130  220.4140 C   0  0  1  0  0  0  0  0  0  0  0  0
  141.4520   78.1730  221.3850 C   0  0  0  0  0  0  0  0  0  0  0  0
  141.4300   78.0370  222.7430 C   0  0  0  0  0  0  0  0  0  0  0  0
  141.7430   79.0700  223.6230 C   0  0  0  0  0  0  0  0  0  0  0  0
  142.0940   80.2880  223.1130 C   0  0  0  0  0  0  0  0  0  0  0  0
  142.4850   81.5760  224.2240 Cl  0  0  0  0  0  0  0  0  0  0  0  0
  142.1240   80.4520  221.7430 C   0  0  0  0  0  0  0  0  0  0  0  0
  141.8100   79.4160  220.8680 C   0  0  0  0  0  0  0  0  0  0  0  0
  139.4960   70.7390  223.4130 C   0  0  0  0  0  0  0  0  0  0  0  0
  139.0630   69.4290  223.3520 C   0  0  0  0  0  0  0  0  0  0  0  0
  139.1990   68.6390  224.4970 C   0  0  0  0  0  0  0  0  0  0  0  0
  139.7530   69.1670  225.6520 C   0  0  0  0  0  0  0  0  0  0  0  0
  139.9110   68.4350  226.8110 C   0  0  0  0  0  0  0  0  0  0  0  0
  140.4650   68.9610  227.9660 C   0  0  0  0  0  0  0  0  0  0  0  0
  140.6140   68.2250  229.1000 F   0  0  0  0  0  0  0  0  0  0  0  0
  140.8760   70.2730  227.9570 C   0  0  0  0  0  0  0  0  0  0  0  0
  140.7270   71.0180  226.8180 C   0  0  0  0  0  0  0  0  0  0  0  0
  140.1740   70.4770  225.6760 C   0  0  0  0  0  0  0  0  0  0  0  0
  140.0300   71.2030  224.5660 N   0  0  0  0  0  0  0  0  0  0  0  0
  139.2960   73.3680  223.4270 H   0  0  0  0  0  0  0  0  0  0  0  0
  139.1843   73.3155  220.3574 H   0  0  0  0  0  0  0  0  0  0  0  0
  138.2369   74.4715  221.3309 H   0  0  0  0  0  0  0  0  0  0  0  0
  138.0412   76.3740  221.2724 H   0  0  0  0  0  0  0  0  0  0  0  0
  138.9445   77.6867  221.9635 H   0  0  0  0  0  0  0  0  0  0  0  0
  138.2165   77.1419  219.0777 H   0  0  0  0  0  0  0  0  0  0  0  0
  138.5472   78.7093  219.8283 H   0  0  0  0  0  0  0  0  0  0  0  0
  140.3837   76.8955  218.3917 H   0  0  0  0  0  0  0  0  0  0  0  0
  140.6678   78.5709  218.8499 H   0  0  0  0  0  0  0  0  0  0  0  0
  142.1173   76.7051  220.1515 H   0  0  0  0  0  0  0  0  0  0  0  0
  141.1503   77.0602  223.1644 H   0  0  0  0  0  0  0  0  0  0  0  0
  141.7082   78.9080  224.7105 H   0  0  0  0  0  0  0  0  0  0  0  0
  142.4048   81.4320  221.3297 H   0  0  0  0  0  0  0  0  0  0  0  0
  141.8442   79.5770  219.7804 H   0  0  0  0  0  0  0  0  0  0  0  0
  138.6243   69.0196  222.4301 H   0  0  0  0  0  0  0  0  0  0  0  0
  138.8641   67.5914  224.4810 H   0  0  0  0  0  0  0  0  0  0  0  0
  139.5818   67.3854  226.8178 H   0  0  0  0  0  0  0  0  0  0  0  0
  141.3211   70.7206  228.8579 H   0  0  0  0  0  0  0  0  0  0  0  0
  141.0546   72.0681  226.8135 H   0  0  0  0  0  0  0  0  0  0  0  0
  1  2  2  0
  2  3  1  0
  3  4  1  0
  4  5  1  0
  5  6  2  0
  5  7  1  0
  7  8  1  0
  8  9  1  0
  9 10  1  0
 10 11  1  0
 11 12  1  0
 12 13  2  0
 13 14  1  0
 14 15  2  0
 15 16  1  0
 15 17  1  0
 17 18  2  0
  2 19  1  0
 19 20  2  0
 20 21  1  0
 21 22  2  0
 22 23  1  0
 23 24  2  0
 24 25  1  0
 24 26  1  0
 26 27  2  0
 27 28  1  0
 28 29  2  0
 11  7  1  0
 18 12  1  0
 29 19  1  0
 28 22  1  0
  3 30  1  0
  4 31  1  0
  4 32  1  0
  8 33  1  0
  8 34  1  0
  9 35  1  0
  9 36  1  0
 10 37  1  0
 10 38  1  0
 11 39  1  6
 13 40  1  0
 14 41  1  0
 17 42  1  0
 18 43  1  0
 20 44  1  0
 21 45  1  0
 23 46  1  0
 26 47  1  0
 27 48  1  0
M  END
>  <smiles>  (38) 
O=C(NCC(=O)N1CCC[C@H]1c1ccc(Cl)cc1)c1ccc2cc(F)ccc2n1

>  <score_type>  (38) 
oracle

>  <origin>  (38) 
autodockgpu

>  <m_score__min__energy>  (38) 
-9.1099999999999994

>  <m_primary>  (38) 
energy

>  <rmsd>  (38) 
1.493811772870801

>  <m_score__min__rmsd>  (38) 
1.493811772870801

>  <meeko>  (38) 
{"free_energy": -8.59, "intermolecular_energy": -10.09, "internal_energy": -1.44, "cluster_size": 27, "cluster_id": 1, "rank_in_cluster": 10}

>  <energy>  (38) 
-8.21

>  <cluster_rmsd>  (38) 
0.89

>  <cluster>  (38) 
2

$$$$

     RDKit          3D

 48 51  0  0  0  0  0  0  0  0999 V2000
  140.4320   71.6090  221.8480 O   0  0  0  0  0  0  0  0  0  0  0  0
  139.5770   71.6510  222.7490 C   0  0  0  0  0  0  0  0  0  0  0  0
  138.5510   72.6140  222.6900 N   0  0  0  0  0  0  0  0  0  0  0  0
  138.4810   73.5590  221.5900 C   0  0  0  0  0  0  0  0  0  0  0  0
  139.4980   74.5920  221.8220 C   0  0  0  0  0  0  0  0  0  0  0  0
  140.7250   74.3620  221.9880 O   0  0  0  0  0  0  0  0  0  0  0  0
  139.0970   75.9560  221.8670 N   0  0  0  0  0  0  0  0  0  0  0  0
  138.1210   76.5980  222.7350 C   0  0  0  0  0  0  0  0  0  0  0  0
  137.3380   77.4160  221.7300 C   0  0  0  0  0  0  0  0  0  0  0  0
  138.2470   77.5790  220.5410 C   0  0  0  0  0  0  0  0  0  0  0  0
  139.5900   77.0620  221.0200 C   0  0  1  0  0  0  0  0  0  0  0  0
  140.3400   78.0360  221.8330 C   0  0  0  0  0  0  0  0  0  0  0  0
  141.1020   77.7380  222.9240 C   0  0  0  0  0  0  0  0  0  0  0  0
  141.7940   78.6940  223.6630 C   0  0  0  0  0  0  0  0  0  0  0  0
  141.7140   80.0050  223.2850 C   0  0  0  0  0  0  0  0  0  0  0  0
  142.5840   81.1970  224.2160 Cl  0  0  0  0  0  0  0  0  0  0  0  0
  140.9490   80.3340  222.1840 C   0  0  0  0  0  0  0  0  0  0  0  0
  140.2590   79.3720  221.4500 C   0  0  0  0  0  0  0  0  0  0  0  0
  139.6400   70.7050  223.8560 C   0  0  0  0  0  0  0  0  0  0  0  0
  139.1000   69.4390  223.7440 C   0  0  0  0  0  0  0  0  0  0  0  0
  139.1970   68.5840  224.8450 C   0  0  0  0  0  0  0  0  0  0  0  0
  139.8180   69.0080  226.0100 C   0  0  0  0  0  0  0  0  0  0  0  0
  139.9420   68.2080  227.1270 C   0  0  0  0  0  0  0  0  0  0  0  0
  140.5620   68.6290  228.2910 C   0  0  0  0  0  0  0  0  0  0  0  0
  140.6770   67.8280  229.3830 F   0  0  0  0  0  0  0  0  0  0  0  0
  141.0780   69.9030  228.3350 C   0  0  0  0  0  0  0  0  0  0  0  0
  140.9660   70.7130  227.2370 C   0  0  0  0  0  0  0  0  0  0  0  0
  140.3450   70.2760  226.0850 C   0  0  0  0  0  0  0  0  0  0  0  0
  140.2360   71.0670  225.0160 N   0  0  0  0  0  0  0  0  0  0  0  0
  137.8510   72.6060  223.4790 H   0  0  0  0  0  0  0  0  0  0  0  0
  138.6817   73.0428  220.6396 H   0  0  0  0  0  0  0  0  0  0  0  0
  137.4796   74.0107  221.5340 H   0  0  0  0  0  0  0  0  0  0  0  0
  137.4819   75.8592  223.2408 H   0  0  0  0  0  0  0  0  0  0  0  0
  138.5594   77.1849  223.5556 H   0  0  0  0  0  0  0  0  0  0  0  0
  136.4176   76.8882  221.4397 H   0  0  0  0  0  0  0  0  0  0  0  0
  137.0349   78.3883  222.1457 H   0  0  0  0  0  0  0  0  0  0  0  0
  137.8832   76.9864  219.6886 H   0  0  0  0  0  0  0  0  0  0  0  0
  138.2987   78.6209  220.1922 H   0  0  0  0  0  0  0  0  0  0  0  0
  140.2964   76.8100  220.2153 H   0  0  0  0  0  0  0  0  0  0  0  0
  141.1738   76.6859  223.2370 H   0  0  0  0  0  0  0  0  0  0  0  0
  142.3947   78.3991  224.5360 H   0  0  0  0  0  0  0  0  0  0  0  0
  140.8823   81.3882  221.8769 H   0  0  0  0  0  0  0  0  0  0  0  0
  139.6567   79.6647  220.5773 H   0  0  0  0  0  0  0  0  0  0  0  0
  138.6081   69.1132  222.8156 H   0  0  0  0  0  0  0  0  0  0  0  0
  138.7782   67.5685  224.7871 H   0  0  0  0  0  0  0  0  0  0  0  0
  139.5294   67.1890  227.0911 H   0  0  0  0  0  0  0  0  0  0  0  0
  141.5766   70.2682  229.2450 H   0  0  0  0  0  0  0  0  0  0  0  0
  141.3791   71.7318  227.2739 H   0  0  0  0  0  0  0  0  0  0  0  0
  1  2  2  0
  2  3  1  0
  3  4  1  0
  4  5  1  0
  5  6  2  0
  5  7  1  0
  7  8  1  0
  8  9  1  0
  9 10  1  0
 10 11  1  0
 11 12  1  0
 12 13  2  0
 13 14  1  0
 14 15  2  0
 15 16  1  0
 15 17  1  0
 17 18  2  0
  2 19  1  0
 19 20  2  0
 20 21  1  0
 21 22  2  0
 22 23  1  0
 23 24  2  0
 24 25  1  0
 24 26  1  0
 26 27  2  0
 27 28  1  0
 28 29  2  0
 11  7  1  0
 18 12  1  0
 29 19  1  0
 28 22  1  0
  3 30  1  0
  4 31  1  0
  4 32  1  0
  8 33  1  0
  8 34  1  0
  9 35  1  0
  9 36  1  0
 10 37  1  0
 10 38  1  0
 11 39  1  6
 13 40  1  0
 14 41  1  0
 17 42  1  0
 18 43  1  0
 20 44  1  0
 21 45  1  0
 23 46  1  0
 26 47  1  0
 27 48  1  0
M  END
>  <smiles>  (39) 
O=C(NCC(=O)N1CCC[C@H]1c1ccc(Cl)cc1)c1ccc2cc(F)ccc2n1

>  <score_type>  (39) 
oracle

>  <origin>  (39) 
autodockgpu

>  <m_score__min__energy>  (39) 
-9.1099999999999994

>  <m_primary>  (39) 
energy

>  <rmsd>  (39) 
2.375419074479065

>  <m_score__min__rmsd>  (39) 
2.375419074479065

>  <meeko>  (39) 
{"free_energy": -9.11, "intermolecular_energy": -10.6, "internal_energy": -1.2, "cluster_size": 27, "cluster_id": 1, "rank_in_cluster": 1}

>  <energy>  (39) 
-8.21

>  <cluster_rmsd>  (39) 
0.89

>  <cluster>  (39) 
2

$$$$

     RDKit          3D

 48 51  0  0  0  0  0  0  0  0999 V2000
  138.5570   70.7700  221.6660 O   0  0  0  0  0  0  0  0  0  0  0  0
  139.0600   71.2140  222.7120 C   0  0  0  0  0  0  0  0  0  0  0  0
  139.3910   72.5810  222.7980 N   0  0  0  0  0  0  0  0  0  0  0  0
  139.1520   73.4760  221.6800 C   0  0  0  0  0  0  0  0  0  0  0  0
  140.0880   74.6010  221.8010 C   0  0  0  0  0  0  0  0  0  0  0  0
  141.3390   74.4850  221.8770 O   0  0  0  0  0  0  0  0  0  0  0  0
  139.5690   75.9260  221.8350 N   0  0  0  0  0  0  0  0  0  0  0  0
  138.5270   76.4820  222.6850 C   0  0  0  0  0  0  0  0  0  0  0  0
  137.6940   77.2290  221.6640 C   0  0  0  0  0  0  0  0  0  0  0  0
  138.6080   77.4690  220.4910 C   0  0  0  0  0  0  0  0  0  0  0  0
  139.9810   77.0690  220.9950 C   0  0  1  0  0  0  0  0  0  0  0  0
  140.6300   78.1050  221.8190 C   0  0  0  0  0  0  0  0  0  0  0  0
  141.2560   77.8910  223.0120 C   0  0  0  0  0  0  0  0  0  0  0  0
  141.8560   78.9030  223.7570 C   0  0  0  0  0  0  0  0  0  0  0  0
  141.8230   80.1830  223.2790 C   0  0  0  0  0  0  0  0  0  0  0  0
  142.5770   81.4450  224.2190 Cl  0  0  0  0  0  0  0  0  0  0  0  0
  141.1950   80.4270  222.0740 C   0  0  0  0  0  0  0  0  0  0  0  0
  140.5970   79.4100  221.3340 C   0  0  0  0  0  0  0  0  0  0  0  0
  139.3020   70.3230  223.8390 C   0  0  0  0  0  0  0  0  0  0  0  0
  138.9270   68.9950  223.7920 C   0  0  0  0  0  0  0  0  0  0  0  0
  139.1910   68.1980  224.9090 C   0  0  0  0  0  0  0  0  0  0  0  0
  139.8120   68.7370  226.0240 C   0  0  0  0  0  0  0  0  0  0  0  0
  140.0970   67.9990  227.1540 C   0  0  0  0  0  0  0  0  0  0  0  0
  140.7180   68.5350  228.2690 C   0  0  0  0  0  0  0  0  0  0  0  0
  140.9930   67.7930  229.3750 F   0  0  0  0  0  0  0  0  0  0  0  0
  141.0660   69.8650  228.2490 C   0  0  0  0  0  0  0  0  0  0  0  0
  140.7920   70.6170  227.1380 C   0  0  0  0  0  0  0  0  0  0  0  0
  140.1730   70.0650  226.0360 C   0  0  0  0  0  0  0  0  0  0  0  0
  139.9070   70.7980  224.9530 N   0  0  0  0  0  0  0  0  0  0  0  0
  139.8150   72.9060  223.7070 H   0  0  0  0  0  0  0  0  0  0  0  0
  139.3243   72.9455  220.7319 H   0  0  0  0  0  0  0  0  0  0  0  0
  138.1128   73.8365  221.6903 H   0  0  0  0  0  0  0  0  0  0  0  0
  137.9452   75.6914  223.1814 H   0  0  0  0  0  0  0  0  0  0  0  0
  138.8988   77.1048  223.5120 H   0  0  0  0  0  0  0  0  0  0  0  0
  136.8281   76.6235  221.3582 H   0  0  0  0  0  0  0  0  0  0  0  0
  137.3001   78.1716  222.0719 H   0  0  0  0  0  0  0  0  0  0  0  0
  138.3119   76.8474  219.6332 H   0  0  0  0  0  0  0  0  0  0  0  0
  138.5769   78.5115  220.1415 H   0  0  0  0  0  0  0  0  0  0  0  0
  140.7211   76.8773  220.2041 H   0  0  0  0  0  0  0  0  0  0  0  0
  141.2885   76.8646  223.4064 H   0  0  0  0  0  0  0  0  0  0  0  0
  142.3483   78.6760  224.7142 H   0  0  0  0  0  0  0  0  0  0  0  0
  141.1661   81.4561  221.6866 H   0  0  0  0  0  0  0  0  0  0  0  0
  140.1039   79.6351  220.3768 H   0  0  0  0  0  0  0  0  0  0  0  0
  138.4349   68.5768  222.9015 H   0  0  0  0  0  0  0  0  0  0  0  0
  138.9040   67.1361  224.9030 H   0  0  0  0  0  0  0  0  0  0  0  0
  139.8178   66.9351  227.1698 H   0  0  0  0  0  0  0  0  0  0  0  0
  141.5608   70.3215  229.1189 H   0  0  0  0  0  0  0  0  0  0  0  0
  141.0707   71.6810  227.1241 H   0  0  0  0  0  0  0  0  0  0  0  0
  1  2  2  0
  2  3  1  0
  3  4  1  0
  4  5  1  0
  5  6  2  0
  5  7  1  0
  7  8  1  0
  8  9  1  0
  9 10  1  0
 10 11  1  0
 11 12  1  0
 12 13  2  0
 13 14  1  0
 14 15  2  0
 15 16  1  0
 15 17  1  0
 17 18  2  0
  2 19  1  0
 19 20  2  0
 20 21  1  0
 21 22  2  0
 22 23  1  0
 23 24  2  0
 24 25  1  0
 24 26  1  0
 26 27  2  0
 27 28  1  0
 28 29  2  0
 11  7  1  0
 18 12  1  0
 29 19  1  0
 28 22  1  0
  3 30  1  0
  4 31  1  0
  4 32  1  0
  8 33  1  0
  8 34  1  0
  9 35  1  0
  9 36  1  0
 10 37  1  0
 10 38  1  0
 11 39  1  6
 13 40  1  0
 14 41  1  0
 17 42  1  0
 18 43  1  0
 20 44  1  0
 21 45  1  0
 23 46  1  0
 26 47  1  0
 27 48  1  0
M  END
>  <smiles>  (40) 
O=C(NCC(=O)N1CCC[C@H]1c1ccc(Cl)cc1)c1ccc2cc(F)ccc2n1

>  <score_type>  (40) 
oracle

>  <origin>  (40) 
autodockgpu

>  <m_score__min__energy>  (40) 
-9.1099999999999994

>  <m_primary>  (40) 
energy

>  <rmsd>  (40) 
2.2732634333892676

>  <m_score__min__rmsd>  (40) 
2.2732634333892676

>  <meeko>  (40) 
{"free_energy": -8.64, "intermolecular_energy": -10.13, "internal_energy": -1.52, "cluster_size": 27, "cluster_id": 1, "rank_in_cluster": 9}

>  <energy>  (40) 
-8.2

>  <cluster_rmsd>  (40) 
0.9

>  <cluster>  (40) 
2

$$$$

     RDKit          3D

 48 51  0  0  0  0  0  0  0  0999 V2000
  140.3300   75.3150  220.7760 O   0  0  0  0  0  0  0  0  0  0  0  0
  139.6700   75.7320  221.7430 C   0  0  0  0  0  0  0  0  0  0  0  0
  138.6830   74.9080  222.3180 N   0  0  0  0  0  0  0  0  0  0  0  0
  138.4270   73.5780  221.7950 C   0  0  0  0  0  0  0  0  0  0  0  0
  139.5270   72.7070  222.2290 C   0  0  0  0  0  0  0  0  0  0  0  0
  140.7390   73.0450  222.2490 O   0  0  0  0  0  0  0  0  0  0  0  0
  139.2290   71.3850  222.6600 N   0  0  0  0  0  0  0  0  0  0  0  0
  139.7680   70.1200  222.1830 C   0  0  0  0  0  0  0  0  0  0  0  0
  138.4990   69.3080  222.0280 C   0  0  0  0  0  0  0  0  0  0  0  0
  137.4790   69.9750  222.9130 C   0  0  0  0  0  0  0  0  0  0  0  0
  138.2790   70.9820  223.7180 C   0  0  1  0  0  0  0  0  0  0  0  0
  139.0010   70.3860  224.8560 C   0  0  0  0  0  0  0  0  0  0  0  0
  140.0330   70.9680  225.5320 C   0  0  0  0  0  0  0  0  0  0  0  0
  140.6860   70.3650  226.6040 C   0  0  0  0  0  0  0  0  0  0  0  0
  140.2800   69.1250  227.0110 C   0  0  0  0  0  0  0  0  0  0  0  0
  141.1040   68.3770  228.3550 Cl  0  0  0  0  0  0  0  0  0  0  0  0
  139.2380   68.5140  226.3440 C   0  0  0  0  0  0  0  0  0  0  0  0
  138.5890   69.1220  225.2720 C   0  0  0  0  0  0  0  0  0  0  0  0
  139.9200   77.0650  222.2750 C   0  0  0  0  0  0  0  0  0  0  0  0
  138.8840   77.8620  222.7190 C   0  0  0  0  0  0  0  0  0  0  0  0
  139.1970   79.1290  223.2180 C   0  0  0  0  0  0  0  0  0  0  0  0
  140.5130   79.5620  223.2590 C   0  0  0  0  0  0  0  0  0  0  0  0
  140.8810   80.8010  223.7390 C   0  0  0  0  0  0  0  0  0  0  0  0
  142.1950   81.2350  223.7820 C   0  0  0  0  0  0  0  0  0  0  0  0
  142.5410   82.4600  224.2600 F   0  0  0  0  0  0  0  0  0  0  0  0
  143.1780   80.3900  223.3240 C   0  0  0  0  0  0  0  0  0  0  0  0
  142.8360   79.1560  222.8420 C   0  0  0  0  0  0  0  0  0  0  0  0
  141.5200   78.7400  222.8080 C   0  0  0  0  0  0  0  0  0  0  0  0
  141.1870   77.5370  222.3390 N   0  0  0  0  0  0  0  0  0  0  0  0
  138.1510   75.3100  223.1360 H   0  0  0  0  0  0  0  0  0  0  0  0
  137.4719   73.1988  222.1874 H   0  0  0  0  0  0  0  0  0  0  0  0
  138.3651   73.6016  220.6970 H   0  0  0  0  0  0  0  0  0  0  0  0
  140.2912   70.2398  221.2228 H   0  0  0  0  0  0  0  0  0  0  0  0
  140.5191   69.6670  222.8468 H   0  0  0  0  0  0  0  0  0  0  0  0
  138.1630   69.3174  220.9806 H   0  0  0  0  0  0  0  0  0  0  0  0
  138.6533   68.2554  222.3075 H   0  0  0  0  0  0  0  0  0  0  0  0
  136.7113   70.4810  222.3093 H   0  0  0  0  0  0  0  0  0  0  0  0
  136.9446   69.2567  223.5522 H   0  0  0  0  0  0  0  0  0  0  0  0
  137.6771   71.7728  224.1894 H   0  0  0  0  0  0  0  0  0  0  0  0
  140.3671   71.9665  225.2135 H   0  0  0  0  0  0  0  0  0  0  0  0
  141.5144   70.8779  227.1145 H   0  0  0  0  0  0  0  0  0  0  0  0
  138.9097   67.5157  226.6690 H   0  0  0  0  0  0  0  0  0  0  0  0
  137.7609   68.6101  224.7599 H   0  0  0  0  0  0  0  0  0  0  0  0
  137.8426   77.5099  222.6811 H   0  0  0  0  0  0  0  0  0  0  0  0
  138.3937   79.7871  223.5807 H   0  0  0  0  0  0  0  0  0  0  0  0
  140.0936   81.4764  224.1050 H   0  0  0  0  0  0  0  0  0  0  0  0
  144.2321   80.7038  223.3449 H   0  0  0  0  0  0  0  0  0  0  0  0
  143.6245   78.4827  222.4746 H   0  0  0  0  0  0  0  0  0  0  0  0
  1  2  2  0
  2  3  1  0
  3  4  1  0
  4  5  1  0
  5  6  2  0
  5  7  1  0
  7  8  1  0
  8  9  1  0
  9 10  1  0
 10 11  1  0
 11 12  1  0
 12 13  2  0
 13 14  1  0
 14 15  2  0
 15 16  1  0
 15 17  1  0
 17 18  2  0
  2 19  1  0
 19 20  2  0
 20 21  1  0
 21 22  2  0
 22 23  1  0
 23 24  2  0
 24 25  1  0
 24 26  1  0
 26 27  2  0
 27 28  1  0
 28 29  2  0
 11  7  1  0
 18 12  1  0
 29 19  1  0
 28 22  1  0
  3 30  1  0
  4 31  1  0
  4 32  1  0
  8 33  1  0
  8 34  1  0
  9 35  1  0
  9 36  1  0
 10 37  1  0
 10 38  1  0
 11 39  1  1
 13 40  1  0
 14 41  1  0
 17 42  1  0
 18 43  1  0
 20 44  1  0
 21 45  1  0
 23 46  1  0
 26 47  1  0
 27 48  1  0
M  END
>  <smiles>  (41) 
O=C(NCC(=O)N1CCC[C@H]1c1ccc(Cl)cc1)c1ccc2cc(F)ccc2n1

>  <score_type>  (41) 
oracle

>  <origin>  (41) 
autodockgpu

>  <m_score__min__energy>  (41) 
-9.1099999999999994

>  <m_primary>  (41) 
energy

>  <rmsd>  (41) 
8.440402569504865

>  <m_score__min__rmsd>  (41) 
8.440402569504865

>  <meeko>  (41) 
{"free_energy": -8.78, "intermolecular_energy": -10.27, "internal_energy": -1.16, "cluster_size": 14, "cluster_id": 2, "rank_in_cluster": 4}

>  <energy>  (41) 
-8.14

>  <cluster_rmsd>  (41) 
0.91

>  <cluster>  (41) 
2

$$$$

     RDKit          3D

 48 51  0  0  0  0  0  0  0  0999 V2000
  137.2430   75.8480  222.1120 O   0  0  0  0  0  0  0  0  0  0  0  0
  138.4640   76.0400  222.2450 C   0  0  0  0  0  0  0  0  0  0  0  0
  139.3590   74.9670  222.0660 N   0  0  0  0  0  0  0  0  0  0  0  0
  138.8740   73.6410  221.7300 C   0  0  0  0  0  0  0  0  0  0  0  0
  139.7930   72.6630  222.3270 C   0  0  0  0  0  0  0  0  0  0  0  0
  141.0240   72.8560  222.5040 O   0  0  0  0  0  0  0  0  0  0  0  0
  139.2810   71.4030  222.7440 N   0  0  0  0  0  0  0  0  0  0  0  0
  139.5690   70.0760  222.2200 C   0  0  0  0  0  0  0  0  0  0  0  0
  138.1710   69.5060  222.1020 C   0  0  0  0  0  0  0  0  0  0  0  0
  137.3190   70.3180  223.0410 C   0  0  0  0  0  0  0  0  0  0  0  0
  138.3140   71.1460  223.8310 C   0  0  1  0  0  0  0  0  0  0  0  0
  138.9600   70.4020  224.9270 C   0  0  0  0  0  0  0  0  0  0  0  0
  138.6260   69.1430  225.3360 C   0  0  0  0  0  0  0  0  0  0  0  0
  139.2650   68.4790  226.3780 C   0  0  0  0  0  0  0  0  0  0  0  0
  140.2850   69.1090  227.0360 C   0  0  0  0  0  0  0  0  0  0  0  0
  141.0810   68.2690  228.3410 Cl  0  0  0  0  0  0  0  0  0  0  0  0
  140.6430   70.3830  226.6430 C   0  0  0  0  0  0  0  0  0  0  0  0
  139.9980   71.0420  225.5990 C   0  0  0  0  0  0  0  0  0  0  0  0
  138.9600   77.3670  222.5810 C   0  0  0  0  0  0  0  0  0  0  0  0
  138.0940   78.4290  222.7540 C   0  0  0  0  0  0  0  0  0  0  0  0
  138.6400   79.6750  223.0770 C   0  0  0  0  0  0  0  0  0  0  0  0
  140.0100   79.8260  223.2170 C   0  0  0  0  0  0  0  0  0  0  0  0
  140.6030   81.0300  223.5340 C   0  0  0  0  0  0  0  0  0  0  0  0
  141.9720   81.1840  223.6740 C   0  0  0  0  0  0  0  0  0  0  0  0
  142.5410   82.3780  223.9880 F   0  0  0  0  0  0  0  0  0  0  0  0
  142.7770   80.0840  223.4890 C   0  0  0  0  0  0  0  0  0  0  0  0
  142.2090   78.8790  223.1730 C   0  0  0  0  0  0  0  0  0  0  0  0
  140.8420   78.7450  223.0380 C   0  0  0  0  0  0  0  0  0  0  0  0
  140.2900   77.5710  222.7310 N   0  0  0  0  0  0  0  0  0  0  0  0
  140.3840   75.1830  222.1900 H   0  0  0  0  0  0  0  0  0  0  0  0
  137.8613   73.4990  222.1353 H   0  0  0  0  0  0  0  0  0  0  0  0
  138.8315   73.5122  220.6384 H   0  0  0  0  0  0  0  0  0  0  0  0
  140.0689   70.1272  221.2415 H   0  0  0  0  0  0  0  0  0  0  0  0
  140.2522   69.4796  222.8426 H   0  0  0  0  0  0  0  0  0  0  0  0
  137.8033   69.6027  221.0698 H   0  0  0  0  0  0  0  0  0  0  0  0
  138.1465   68.4357  222.3545 H   0  0  0  0  0  0  0  0  0  0  0  0
  136.6309   70.9672  222.4797 H   0  0  0  0  0  0  0  0  0  0  0  0
  136.6899   69.6885  223.6875 H   0  0  0  0  0  0  0  0  0  0  0  0
  137.8796   72.0183  224.3413 H   0  0  0  0  0  0  0  0  0  0  0  0
  137.8077   68.6259  224.8135 H   0  0  0  0  0  0  0  0  0  0  0  0
  138.9551   67.4642  226.6679 H   0  0  0  0  0  0  0  0  0  0  0  0
  141.4625   70.8932  227.1703 H   0  0  0  0  0  0  0  0  0  0  0  0
  140.3055   72.0574  225.3085 H   0  0  0  0  0  0  0  0  0  0  0  0
  137.0076   78.2985  222.6411 H   0  0  0  0  0  0  0  0  0  0  0  0
  137.9774   80.5411  223.2209 H   0  0  0  0  0  0  0  0  0  0  0  0
  139.9585   81.9090  223.6826 H   0  0  0  0  0  0  0  0  0  0  0  0
  143.8684   80.1718  223.5941 H   0  0  0  0  0  0  0  0  0  0  0  0
  142.8545   78.0009  223.0239 H   0  0  0  0  0  0  0  0  0  0  0  0
  1  2  2  0
  2  3  1  0
  3  4  1  0
  4  5  1  0
  5  6  2  0
  5  7  1  0
  7  8  1  0
  8  9  1  0
  9 10  1  0
 10 11  1  0
 11 12  1  0
 12 13  2  0
 13 14  1  0
 14 15  2  0
 15 16  1  0
 15 17  1  0
 17 18  2  0
  2 19  1  0
 19 20  2  0
 20 21  1  0
 21 22  2  0
 22 23  1  0
 23 24  2  0
 24 25  1  0
 24 26  1  0
 26 27  2  0
 27 28  1  0
 28 29  2  0
 11  7  1  0
 18 12  1  0
 29 19  1  0
 28 22  1  0
  3 30  1  0
  4 31  1  0
  4 32  1  0
  8 33  1  0
  8 34  1  0
  9 35  1  0
  9 36  1  0
 10 37  1  0
 10 38  1  0
 11 39  1  1
 13 40  1  0
 14 41  1  0
 17 42  1  0
 18 43  1  0
 20 44  1  0
 21 45  1  0
 23 46  1  0
 26 47  1  0
 27 48  1  0
M  END
>  <smiles>  (42) 
O=C(NCC(=O)N1CCC[C@H]1c1ccc(Cl)cc1)c1ccc2cc(F)ccc2n1

>  <score_type>  (42) 
oracle

>  <origin>  (42) 
autodockgpu

>  <m_score__min__energy>  (42) 
-9.1099999999999994

>  <m_primary>  (42) 
energy

>  <rmsd>  (42) 
8.50679900139019

>  <m_score__min__rmsd>  (42) 
8.50679900139019

>  <meeko>  (42) 
{"free_energy": -8.24, "intermolecular_energy": -9.73, "internal_energy": -1.87, "cluster_size": 14, "cluster_id": 2, "rank_in_cluster": 6}

>  <energy>  (42) 
-8.52

>  <cluster_rmsd>  (42) 
0.0

>  <cluster>  (42) 
3

$$$$

     RDKit          3D

 48 51  0  0  0  0  0  0  0  0999 V2000
  137.2270   75.8680  222.1670 O   0  0  0  0  0  0  0  0  0  0  0  0
  138.4500   76.0570  222.2790 C   0  0  0  0  0  0  0  0  0  0  0  0
  139.3400   74.9820  222.0890 N   0  0  0  0  0  0  0  0  0  0  0  0
  138.8460   73.6560  221.7640 C   0  0  0  0  0  0  0  0  0  0  0  0
  139.7780   72.6780  222.3390 C   0  0  0  0  0  0  0  0  0  0  0  0
  141.0110   72.8750  222.4990 O   0  0  0  0  0  0  0  0  0  0  0  0
  139.2780   71.4110  222.7530 N   0  0  0  0  0  0  0  0  0  0  0  0
  139.5870   70.0880  222.2320 C   0  0  0  0  0  0  0  0  0  0  0  0
  138.1980   69.5000  222.1030 C   0  0  0  0  0  0  0  0  0  0  0  0
  137.3280   70.3020  223.0350 C   0  0  0  0  0  0  0  0  0  0  0  0
  138.3070   71.1430  223.8330 C   0  0  1  0  0  0  0  0  0  0  0  0
  138.9530   70.4070  224.9340 C   0  0  0  0  0  0  0  0  0  0  0  0
  138.6200   69.1520  225.3520 C   0  0  0  0  0  0  0  0  0  0  0  0
  139.2600   68.4960  226.3990 C   0  0  0  0  0  0  0  0  0  0  0  0
  140.2790   69.1310  227.0520 C   0  0  0  0  0  0  0  0  0  0  0  0
  141.0760   68.3010  228.3640 Cl  0  0  0  0  0  0  0  0  0  0  0  0
  140.6360   70.4020  226.6500 C   0  0  0  0  0  0  0  0  0  0  0  0
  139.9910   71.0530  225.6010 C   0  0  0  0  0  0  0  0  0  0  0  0
  138.9550   77.3850  222.6040 C   0  0  0  0  0  0  0  0  0  0  0  0
  138.0980   78.4580  222.7460 C   0  0  0  0  0  0  0  0  0  0  0  0
  138.6520   79.7030  223.0590 C   0  0  0  0  0  0  0  0  0  0  0  0
  140.0210   79.8420  223.2190 C   0  0  0  0  0  0  0  0  0  0  0  0
  140.6220   81.0440  223.5270 C   0  0  0  0  0  0  0  0  0  0  0  0
  141.9900   81.1850  223.6880 C   0  0  0  0  0  0  0  0  0  0  0  0
  142.5670   82.3780  223.9930 F   0  0  0  0  0  0  0  0  0  0  0  0
  142.7860   80.0740  223.5330 C   0  0  0  0  0  0  0  0  0  0  0  0
  142.2100   78.8710  223.2260 C   0  0  0  0  0  0  0  0  0  0  0  0
  140.8450   78.7490  223.0700 C   0  0  0  0  0  0  0  0  0  0  0  0
  140.2840   77.5760  222.7720 N   0  0  0  0  0  0  0  0  0  0  0  0
  140.3670   75.1960  222.1950 H   0  0  0  0  0  0  0  0  0  0  0  0
  137.8430   73.5145  222.1930 H   0  0  0  0  0  0  0  0  0  0  0  0
  138.7774   73.5274  220.6737 H   0  0  0  0  0  0  0  0  0  0  0  0
  140.0940   70.1453  221.2575 H   0  0  0  0  0  0  0  0  0  0  0  0
  140.2727   69.5007  222.8604 H   0  0  0  0  0  0  0  0  0  0  0  0
  137.8374   69.5914  221.0678 H   0  0  0  0  0  0  0  0  0  0  0  0
  138.1851   68.4295  222.3558 H   0  0  0  0  0  0  0  0  0  0  0  0
  136.6365   70.9424  222.4678 H   0  0  0  0  0  0  0  0  0  0  0  0
  136.7014   69.6651  223.6767 H   0  0  0  0  0  0  0  0  0  0  0  0
  137.8589   72.0102  224.3400 H   0  0  0  0  0  0  0  0  0  0  0  0
  137.8017   68.6307  224.8337 H   0  0  0  0  0  0  0  0  0  0  0  0
  138.9509   67.4830  226.6962 H   0  0  0  0  0  0  0  0  0  0  0  0
  141.4549   70.9167  227.1739 H   0  0  0  0  0  0  0  0  0  0  0  0
  140.2981   72.0663  225.3027 H   0  0  0  0  0  0  0  0  0  0  0  0
  137.0123   78.3371  222.6168 H   0  0  0  0  0  0  0  0  0  0  0  0
  137.9963   80.5781  223.1790 H   0  0  0  0  0  0  0  0  0  0  0  0
  139.9851   81.9323  223.6506 H   0  0  0  0  0  0  0  0  0  0  0  0
  143.8765   80.1517  223.6548 H   0  0  0  0  0  0  0  0  0  0  0  0
  142.8483   77.9839  223.1012 H   0  0  0  0  0  0  0  0  0  0  0  0
  1  2  2  0
  2  3  1  0
  3  4  1  0
  4  5  1  0
  5  6  2  0
  5  7  1  0
  7  8  1  0
  8  9  1  0
  9 10  1  0
 10 11  1  0
 11 12  1  0
 12 13  2  0
 13 14  1  0
 14 15  2  0
 15 16  1  0
 15 17  1  0
 17 18  2  0
  2 19  1  0
 19 20  2  0
 20 21  1  0
 21 22  2  0
 22 23  1  0
 23 24  2  0
 24 25  1  0
 24 26  1  0
 26 27  2  0
 27 28  1  0
 28 29  2  0
 11  7  1  0
 18 12  1  0
 29 19  1  0
 28 22  1  0
  3 30  1  0
  4 31  1  0
  4 32  1  0
  8 33  1  0
  8 34  1  0
  9 35  1  0
  9 36  1  0
 10 37  1  0
 10 38  1  0
 11 39  1  1
 13 40  1  0
 14 41  1  0
 17 42  1  0
 18 43  1  0
 20 44  1  0
 21 45  1  0
 23 46  1  0
 26 47  1  0
 27 48  1  0
M  END
>  <smiles>  (43) 
O=C(NCC(=O)N1CCC[C@H]1c1ccc(Cl)cc1)c1ccc2cc(F)ccc2n1

>  <score_type>  (43) 
oracle

>  <origin>  (43) 
autodockgpu

>  <m_score__min__energy>  (43) 
-9.1099999999999994

>  <m_primary>  (43) 
energy

>  <rmsd>  (43) 
8.51192787957721

>  <m_score__min__rmsd>  (43) 
8.51192787957721

>  <meeko>  (43) 
{"free_energy": -8.23, "intermolecular_energy": -9.72, "internal_energy": -1.87, "cluster_size": 14, "cluster_id": 2, "rank_in_cluster": 9}

>  <energy>  (43) 
-8.49

>  <cluster_rmsd>  (43) 
0.0

>  <cluster>  (43) 
4

$$$$

     RDKit          3D

 48 51  0  0  0  0  0  0  0  0999 V2000
  141.4140   71.8750  221.6870 O   0  0  0  0  0  0  0  0  0  0  0  0
  140.5060   72.1110  222.5030 C   0  0  0  0  0  0  0  0  0  0  0  0
  139.7130   73.2650  222.3450 N   0  0  0  0  0  0  0  0  0  0  0  0
  139.9430   74.1810  221.2420 C   0  0  0  0  0  0  0  0  0  0  0  0
  139.1760   75.4040  221.5100 C   0  0  0  0  0  0  0  0  0  0  0  0
  138.1500   75.4590  222.2370 O   0  0  0  0  0  0  0  0  0  0  0  0
  139.6020   76.6260  220.9180 N   0  0  0  0  0  0  0  0  0  0  0  0
  138.8020   77.7580  220.4740 C   0  0  0  0  0  0  0  0  0  0  0  0
  139.4100   78.0210  219.1120 C   0  0  0  0  0  0  0  0  0  0  0  0
  140.7830   77.4020  219.1530 C   0  0  0  0  0  0  0  0  0  0  0  0
  140.9870   77.0360  220.6100 C   0  0  1  0  0  0  0  0  0  0  0  0
  141.3850   78.1770  221.4540 C   0  0  0  0  0  0  0  0  0  0  0  0
  141.8180   79.3870  220.9970 C   0  0  0  0  0  0  0  0  0  0  0  0
  142.1840   80.4380  221.8340 C   0  0  0  0  0  0  0  0  0  0  0  0
  142.1080   80.2610  223.1870 C   0  0  0  0  0  0  0  0  0  0  0  0
  142.5690   81.5830  224.2290 Cl  0  0  0  0  0  0  0  0  0  0  0  0
  141.6730   79.0460  223.6760 C   0  0  0  0  0  0  0  0  0  0  0  0
  141.3090   77.9980  222.8330 C   0  0  0  0  0  0  0  0  0  0  0  0
  140.2680   71.1970  223.6120 C   0  0  0  0  0  0  0  0  0  0  0  0
  139.5840   70.0120  223.4260 C   0  0  0  0  0  0  0  0  0  0  0  0
  139.3930   69.1830  224.5340 C   0  0  0  0  0  0  0  0  0  0  0  0
  139.8800   69.5510  225.7780 C   0  0  0  0  0  0  0  0  0  0  0  0
  139.7210   68.7740  226.9060 C   0  0  0  0  0  0  0  0  0  0  0  0
  140.2070   69.1390  228.1500 C   0  0  0  0  0  0  0  0  0  0  0  0
  140.0420   68.3610  229.2520 F   0  0  0  0  0  0  0  0  0  0  0  0
  140.8800   70.3330  228.2650 C   0  0  0  0  0  0  0  0  0  0  0  0
  141.0490   71.1210  227.1590 C   0  0  0  0  0  0  0  0  0  0  0  0
  140.5580   70.7390  225.9270 C   0  0  0  0  0  0  0  0  0  0  0  0
  140.7230   71.5080  224.8490 N   0  0  0  0  0  0  0  0  0  0  0  0
  138.9570   73.4190  223.0650 H   0  0  0  0  0  0  0  0  0  0  0  0
  141.0145   74.4190  221.1699 H   0  0  0  0  0  0  0  0  0  0  0  0
  139.6250   73.7273  220.2917 H   0  0  0  0  0  0  0  0  0  0  0  0
  137.7366   77.4951  220.3974 H   0  0  0  0  0  0  0  0  0  0  0  0
  138.8199   78.6221  221.1544 H   0  0  0  0  0  0  0  0  0  0  0  0
  138.8018   77.5536  218.3236 H   0  0  0  0  0  0  0  0  0  0  0  0
  139.4559   79.0971  218.8884 H   0  0  0  0  0  0  0  0  0  0  0  0
  140.8253   76.5057  218.5167 H   0  0  0  0  0  0  0  0  0  0  0  0
  141.5616   78.0826  218.7782 H   0  0  0  0  0  0  0  0  0  0  0  0
  141.7858   76.3013  220.7891 H   0  0  0  0  0  0  0  0  0  0  0  0
  141.8814   79.5408  219.9096 H   0  0  0  0  0  0  0  0  0  0  0  0
  142.5284   81.3943  221.4134 H   0  0  0  0  0  0  0  0  0  0  0  0
  141.6118   78.9005  224.7646 H   0  0  0  0  0  0  0  0  0  0  0  0
  140.9657   77.0405  223.2518 H   0  0  0  0  0  0  0  0  0  0  0  0
  139.2008   69.7291  222.4345 H   0  0  0  0  0  0  0  0  0  0  0  0
  138.8525   68.2320  224.4182 H   0  0  0  0  0  0  0  0  0  0  0  0
  139.1827   67.8192  226.8131 H   0  0  0  0  0  0  0  0  0  0  0  0
  141.2795   70.6522  229.2389 H   0  0  0  0  0  0  0  0  0  0  0  0
  141.5860   72.0763  227.2536 H   0  0  0  0  0  0  0  0  0  0  0  0
  1  2  2  0
  2  3  1  0
  3  4  1  0
  4  5  1  0
  5  6  2  0
  5  7  1  0
  7  8  1  0
  8  9  1  0
  9 10  1  0
 10 11  1  0
 11 12  1  0
 12 13  2  0
 13 14  1  0
 14 15  2  0
 15 16  1  0
 15 17  1  0
 17 18  2  0
  2 19  1  0
 19 20  2  0
 20 21  1  0
 21 22  2  0
 22 23  1  0
 23 24  2  0
 24 25  1  0
 24 26  1  0
 26 27  2  0
 27 28  1  0
 28 29  2  0
 11  7  1  0
 18 12  1  0
 29 19  1  0
 28 22  1  0
  3 30  1  0
  4 31  1  0
  4 32  1  0
  8 33  1  0
  8 34  1  0
  9 35  1  0
  9 36  1  0
 10 37  1  0
 10 38  1  0
 11 39  1  6
 13 40  1  0
 14 41  1  0
 17 42  1  0
 18 43  1  0
 20 44  1  0
 21 45  1  0
 23 46  1  0
 26 47  1  0
 27 48  1  0
M  END
>  <smiles>  (44) 
O=C(NCC(=O)N1CCC[C@H]1c1ccc(Cl)cc1)c1ccc2cc(F)ccc2n1

>  <score_type>  (44) 
oracle

>  <origin>  (44) 
autodockgpu

>  <m_score__min__energy>  (44) 
-9.1099999999999994

>  <m_primary>  (44) 
energy

>  <rmsd>  (44) 
1.8090713545154655

>  <m_score__min__rmsd>  (44) 
1.8090713545154655

>  <meeko>  (44) 
{"free_energy": -8.69, "intermolecular_energy": -10.18, "internal_energy": -1.64, "cluster_size": 27, "cluster_id": 1, "rank_in_cluster": 5}

>  <energy>  (44) 
-8.4

>  <cluster_rmsd>  (44) 
0.3

>  <cluster>  (44) 
4

$$$$

     RDKit          3D

 48 51  0  0  0  0  0  0  0  0999 V2000
  141.4410   72.1130  221.8970 O   0  0  0  0  0  0  0  0  0  0  0  0
  140.4470   72.2080  222.6370 C   0  0  0  0  0  0  0  0  0  0  0  0
  139.5150   73.2410  222.4190 N   0  0  0  0  0  0  0  0  0  0  0  0
  139.7010   74.1980  221.3430 C   0  0  0  0  0  0  0  0  0  0  0  0
  138.7560   75.3010  221.5560 C   0  0  0  0  0  0  0  0  0  0  0  0
  137.6390   75.1850  222.1250 O   0  0  0  0  0  0  0  0  0  0  0  0
  139.1030   76.6030  221.0970 N   0  0  0  0  0  0  0  0  0  0  0  0
  138.2730   77.7940  221.0020 C   0  0  0  0  0  0  0  0  0  0  0  0
  138.6220   78.2740  219.6090 C   0  0  0  0  0  0  0  0  0  0  0  0
  139.9560   77.6540  219.2860 C   0  0  0  0  0  0  0  0  0  0  0  0
  140.4190   77.0540  220.6000 C   0  0  1  0  0  0  0  0  0  0  0  0
  141.0070   78.0400  221.5230 C   0  0  0  0  0  0  0  0  0  0  0  0
  141.0670   77.9180  222.8810 C   0  0  0  0  0  0  0  0  0  0  0  0
  141.6330   78.8780  223.7140 C   0  0  0  0  0  0  0  0  0  0  0  0
  142.1610   80.0090  223.1560 C   0  0  0  0  0  0  0  0  0  0  0  0
  142.8680   81.2070  224.2090 Cl  0  0  0  0  0  0  0  0  0  0  0  0
  142.1120   80.1580  221.7850 C   0  0  0  0  0  0  0  0  0  0  0  0
  141.5450   79.1930  220.9570 C   0  0  0  0  0  0  0  0  0  0  0  0
  140.2510   71.2520  223.7190 C   0  0  0  0  0  0  0  0  0  0  0  0
  139.6100   70.0480  223.5000 C   0  0  0  0  0  0  0  0  0  0  0  0
  139.4580   69.1800  224.5840 C   0  0  0  0  0  0  0  0  0  0  0  0
  139.9400   69.5280  225.8360 C   0  0  0  0  0  0  0  0  0  0  0  0
  139.8180   68.7110  226.9400 C   0  0  0  0  0  0  0  0  0  0  0  0
  140.3000   69.0570  228.1920 C   0  0  0  0  0  0  0  0  0  0  0  0
  140.1720   68.2390  229.2710 F   0  0  0  0  0  0  0  0  0  0  0  0
  140.9290   70.2710  228.3390 C   0  0  0  0  0  0  0  0  0  0  0  0
  141.0600   71.0970  227.2560 C   0  0  0  0  0  0  0  0  0  0  0  0
  140.5740   70.7350  226.0170 C   0  0  0  0  0  0  0  0  0  0  0  0
  140.7030   71.5420  224.9610 N   0  0  0  0  0  0  0  0  0  0  0  0
  138.6890   73.2770  223.0750 H   0  0  0  0  0  0  0  0  0  0  0  0
  140.7322   74.5807  221.3565 H   0  0  0  0  0  0  0  0  0  0  0  0
  139.5214   73.7205  220.3684 H   0  0  0  0  0  0  0  0  0  0  0  0
  137.2040   77.5503  221.0900 H   0  0  0  0  0  0  0  0  0  0  0  0
  138.4480   78.5351  221.7958 H   0  0  0  0  0  0  0  0  0  0  0  0
  137.8606   77.9431  218.8874 H   0  0  0  0  0  0  0  0  0  0  0  0
  138.6614   79.3720  219.5562 H   0  0  0  0  0  0  0  0  0  0  0  0
  139.8473   76.8737  218.5183 H   0  0  0  0  0  0  0  0  0  0  0  0
  140.6722   78.3849  218.8824 H   0  0  0  0  0  0  0  0  0  0  0  0
  141.2122   76.2980  220.5037 H   0  0  0  0  0  0  0  0  0  0  0  0
  140.6454   77.0124  223.3415 H   0  0  0  0  0  0  0  0  0  0  0  0
  141.6553   78.7295  224.8037 H   0  0  0  0  0  0  0  0  0  0  0  0
  142.5340   81.0674  221.3323 H   0  0  0  0  0  0  0  0  0  0  0  0
  141.5222   79.3398  219.8671 H   0  0  0  0  0  0  0  0  0  0  0  0
  139.2309   69.7809  222.5025 H   0  0  0  0  0  0  0  0  0  0  0  0
  138.9521   68.2135  224.4429 H   0  0  0  0  0  0  0  0  0  0  0  0
  139.3149   67.7400  226.8213 H   0  0  0  0  0  0  0  0  0  0  0  0
  141.3237   70.5757  229.3195 H   0  0  0  0  0  0  0  0  0  0  0  0
  141.5624   72.0682  227.3758 H   0  0  0  0  0  0  0  0  0  0  0  0
  1  2  2  0
  2  3  1  0
  3  4  1  0
  4  5  1  0
  5  6  2  0
  5  7  1  0
  7  8  1  0
  8  9  1  0
  9 10  1  0
 10 11  1  0
 11 12  1  0
 12 13  2  0
 13 14  1  0
 14 15  2  0
 15 16  1  0
 15 17  1  0
 17 18  2  0
  2 19  1  0
 19 20  2  0
 20 21  1  0
 21 22  2  0
 22 23  1  0
 23 24  2  0
 24 25  1  0
 24 26  1  0
 26 27  2  0
 27 28  1  0
 28 29  2  0
 11  7  1  0
 18 12  1  0
 29 19  1  0
 28 22  1  0
  3 30  1  0
  4 31  1  0
  4 32  1  0
  8 33  1  0
  8 34  1  0
  9 35  1  0
  9 36  1  0
 10 37  1  0
 10 38  1  0
 11 39  1  6
 13 40  1  0
 14 41  1  0
 17 42  1  0
 18 43  1  0
 20 44  1  0
 21 45  1  0
 23 46  1  0
 26 47  1  0
 27 48  1  0
M  END
>  <smiles>  (45) 
O=C(NCC(=O)N1CCC[C@H]1c1ccc(Cl)cc1)c1ccc2cc(F)ccc2n1

>  <score_type>  (45) 
oracle

>  <origin>  (45) 
autodockgpu

>  <m_score__min__energy>  (45) 
-9.1099999999999994

>  <m_primary>  (45) 
energy

>  <rmsd>  (45) 
2.003645986078137

>  <m_score__min__rmsd>  (45) 
2.003645986078137

>  <meeko>  (45) 
{"free_energy": -8.51, "intermolecular_energy": -10.0, "internal_energy": -1.58, "cluster_size": 27, "cluster_id": 1, "rank_in_cluster": 18}

>  <energy>  (45) 
-8.39

>  <cluster_rmsd>  (45) 
0.39

>  <cluster>  (45) 
4

$$$$

     RDKit          3D

 48 51  0  0  0  0  0  0  0  0999 V2000
  140.5640   75.2470  220.7610 O   0  0  0  0  0  0  0  0  0  0  0  0
  139.8870   75.6290  221.7300 C   0  0  0  0  0  0  0  0  0  0  0  0
  138.9130   74.7710  222.2780 N   0  0  0  0  0  0  0  0  0  0  0  0
  138.6900   73.4480  221.7240 C   0  0  0  0  0  0  0  0  0  0  0  0
  139.6450   72.5310  222.3570 C   0  0  0  0  0  0  0  0  0  0  0  0
  140.8610   72.7890  222.5530 O   0  0  0  0  0  0  0  0  0  0  0  0
  139.1900   71.2530  222.7890 N   0  0  0  0  0  0  0  0  0  0  0  0
  139.5440   69.9350  222.2850 C   0  0  0  0  0  0  0  0  0  0  0  0
  138.1760   69.2970  222.1660 C   0  0  0  0  0  0  0  0  0  0  0  0
  137.2800   70.0810  223.0900 C   0  0  0  0  0  0  0  0  0  0  0  0
  138.2300   70.9660  223.8740 C   0  0  1  0  0  0  0  0  0  0  0  0
  138.9040   70.2680  224.9840 C   0  0  0  0  0  0  0  0  0  0  0  0
  138.5910   69.0210  225.4420 C   0  0  0  0  0  0  0  0  0  0  0  0
  139.2560   68.4010  226.4960 C   0  0  0  0  0  0  0  0  0  0  0  0
  140.2800   69.0650  227.1120 C   0  0  0  0  0  0  0  0  0  0  0  0
  141.1080   68.2800  228.4320 Cl  0  0  0  0  0  0  0  0  0  0  0  0
  140.6160   70.3280  226.6690 C   0  0  0  0  0  0  0  0  0  0  0  0
  139.9460   70.9430  225.6140 C   0  0  0  0  0  0  0  0  0  0  0  0
  140.1040   76.9550  222.2940 C   0  0  0  0  0  0  0  0  0  0  0  0
  139.0550   77.6940  222.8030 C   0  0  0  0  0  0  0  0  0  0  0  0
  139.3370   78.9580  223.3290 C   0  0  0  0  0  0  0  0  0  0  0  0
  140.6350   79.4430  223.3320 C   0  0  0  0  0  0  0  0  0  0  0  0
  140.9710   80.6820  223.8370 C   0  0  0  0  0  0  0  0  0  0  0  0
  142.2670   81.1680  223.8420 C   0  0  0  0  0  0  0  0  0  0  0  0
  142.5820   82.3920  224.3440 F   0  0  0  0  0  0  0  0  0  0  0  0
  143.2650   80.3790  223.3190 C   0  0  0  0  0  0  0  0  0  0  0  0
  142.9530   79.1470  222.8120 C   0  0  0  0  0  0  0  0  0  0  0  0
  141.6560   78.6780  222.8170 C   0  0  0  0  0  0  0  0  0  0  0  0
  141.3530   77.4760  222.3230 N   0  0  0  0  0  0  0  0  0  0  0  0
  138.3660   75.1440  223.1000 H   0  0  0  0  0  0  0  0  0  0  0  0
  137.6611   73.1219  221.9360 H   0  0  0  0  0  0  0  0  0  0  0  0
  138.8321   73.4587  220.6333 H   0  0  0  0  0  0  0  0  0  0  0  0
  140.0475   69.9971  221.3090 H   0  0  0  0  0  0  0  0  0  0  0  0
  140.2504   69.3803  222.9200 H   0  0  0  0  0  0  0  0  0  0  0  0
  137.8108   69.3624  221.1305 H   0  0  0  0  0  0  0  0  0  0  0  0
  138.2005   68.2300  222.4322 H   0  0  0  0  0  0  0  0  0  0  0  0
  136.5653   70.6892  222.5161 H   0  0  0  0  0  0  0  0  0  0  0  0
  136.6776   69.4311  223.7417 H   0  0  0  0  0  0  0  0  0  0  0  0
  137.7519   71.8237  224.3698 H   0  0  0  0  0  0  0  0  0  0  0  0
  137.7698   68.4772  224.9523 H   0  0  0  0  0  0  0  0  0  0  0  0
  138.9626   67.3940  226.8276 H   0  0  0  0  0  0  0  0  0  0  0  0
  141.4381   70.8655  227.1642 H   0  0  0  0  0  0  0  0  0  0  0  0
  140.2369   71.9507  225.2823 H   0  0  0  0  0  0  0  0  0  0  0  0
  138.0280   77.3000  222.7949 H   0  0  0  0  0  0  0  0  0  0  0  0
  138.5234   79.5716  223.7432 H   0  0  0  0  0  0  0  0  0  0  0  0
  140.1724   81.3126  224.2549 H   0  0  0  0  0  0  0  0  0  0  0  0
  144.3055   80.7356  223.3084 H   0  0  0  0  0  0  0  0  0  0  0  0
  143.7522   78.5184  222.3922 H   0  0  0  0  0  0  0  0  0  0  0  0
  1  2  2  0
  2  3  1  0
  3  4  1  0
  4  5  1  0
  5  6  2  0
  5  7  1  0
  7  8  1  0
  8  9  1  0
  9 10  1  0
 10 11  1  0
 11 12  1  0
 12 13  2  0
 13 14  1  0
 14 15  2  0
 15 16  1  0
 15 17  1  0
 17 18  2  0
  2 19  1  0
 19 20  2  0
 20 21  1  0
 21 22  2  0
 22 23  1  0
 23 24  2  0
 24 25  1  0
 24 26  1  0
 26 27  2  0
 27 28  1  0
 28 29  2  0
 11  7  1  0
 18 12  1  0
 29 19  1  0
 28 22  1  0
  3 30  1  0
  4 31  1  0
  4 32  1  0
  8 33  1  0
  8 34  1  0
  9 35  1  0
  9 36  1  0
 10 37  1  0
 10 38  1  0
 11 39  1  1
 13 40  1  0
 14 41  1  0
 17 42  1  0
 18 43  1  0
 20 44  1  0
 21 45  1  0
 23 46  1  0
 26 47  1  0
 27 48  1  0
M  END
>  <smiles>  (46) 
O=C(NCC(=O)N1CCC[C@H]1c1ccc(Cl)cc1)c1ccc2cc(F)ccc2n1

>  <score_type>  (46) 
oracle

>  <origin>  (46) 
autodockgpu

>  <m_score__min__energy>  (46) 
-9.1099999999999994

>  <m_primary>  (46) 
energy

>  <rmsd>  (46) 
8.428878021613297

>  <m_score__min__rmsd>  (46) 
8.428878021613297

>  <meeko>  (46) 
{"free_energy": -8.8, "intermolecular_energy": -10.29, "internal_energy": -1.21, "cluster_size": 14, "cluster_id": 2, "rank_in_cluster": 3}

>  <energy>  (46) 
-8.38

>  <cluster_rmsd>  (46) 
0.18

>  <cluster>  (46) 
4

$$$$

     RDKit          3D

 48 51  0  0  0  0  0  0  0  0999 V2000
  140.0890   71.1370  221.0230 O   0  0  0  0  0  0  0  0  0  0  0  0
  139.8890   71.6670  222.1290 C   0  0  0  0  0  0  0  0  0  0  0  0
  139.7480   73.0660  222.2130 N   0  0  0  0  0  0  0  0  0  0  0  0
  139.8340   73.8960  221.0250 C   0  0  0  0  0  0  0  0  0  0  0  0
  140.1190   75.2700  221.4590 C   0  0  0  0  0  0  0  0  0  0  0  0
  139.9770   75.6910  222.6360 O   0  0  0  0  0  0  0  0  0  0  0  0
  140.5890   76.2100  220.5000 N   0  0  0  0  0  0  0  0  0  0  0  0
  139.9190   76.7250  219.3150 C   0  0  0  0  0  0  0  0  0  0  0  0
  141.0220   76.5980  218.2850 C   0  0  0  0  0  0  0  0  0  0  0  0
  142.3070   76.5470  219.0690 C   0  0  0  0  0  0  0  0  0  0  0  0
  141.8970   76.8960  220.4870 C   0  0  1  0  0  0  0  0  0  0  0  0
  141.7200   78.3430  220.7090 C   0  0  0  0  0  0  0  0  0  0  0  0
  141.8230   79.3100  219.7520 C   0  0  0  0  0  0  0  0  0  0  0  0
  141.6480   80.6670  220.0100 C   0  0  0  0  0  0  0  0  0  0  0  0
  141.3570   81.0640  221.2850 C   0  0  0  0  0  0  0  0  0  0  0  0
  141.1390   82.7670  221.5980 Cl  0  0  0  0  0  0  0  0  0  0  0  0
  141.2480   80.1060  222.2720 C   0  0  0  0  0  0  0  0  0  0  0  0
  141.4240   78.7500  222.0070 C   0  0  0  0  0  0  0  0  0  0  0  0
  139.8010   70.8420  223.3270 C   0  0  0  0  0  0  0  0  0  0  0  0
  139.2370   69.5830  223.2850 C   0  0  0  0  0  0  0  0  0  0  0  0
  139.1860   68.8460  224.4720 C   0  0  0  0  0  0  0  0  0  0  0  0
  139.6900   69.3770  225.6480 C   0  0  0  0  0  0  0  0  0  0  0  0
  139.6670   68.6960  226.8480 C   0  0  0  0  0  0  0  0  0  0  0  0
  140.1700   69.2240  228.0250 C   0  0  0  0  0  0  0  0  0  0  0  0
  140.1400   68.5390  229.1990 F   0  0  0  0  0  0  0  0  0  0  0  0
  140.7200   70.4840  227.9950 C   0  0  0  0  0  0  0  0  0  0  0  0
  140.7520   71.1770  226.8160 C   0  0  0  0  0  0  0  0  0  0  0  0
  140.2460   70.6350  225.6520 C   0  0  0  0  0  0  0  0  0  0  0  0
  140.2790   71.3110  224.5030 N   0  0  0  0  0  0  0  0  0  0  0  0
  139.5790   73.4660  223.1750 H   0  0  0  0  0  0  0  0  0  0  0  0
  140.6425   73.5339  220.3729 H   0  0  0  0  0  0  0  0  0  0  0  0
  138.8909   73.8585  220.4601 H   0  0  0  0  0  0  0  0  0  0  0  0
  139.0438   76.1146  219.0478 H   0  0  0  0  0  0  0  0  0  0  0  0
  139.5162   77.7425  219.4266 H   0  0  0  0  0  0  0  0  0  0  0  0
  140.8942   75.6768  217.6976 H   0  0  0  0  0  0  0  0  0  0  0  0
  141.0128   77.4375  217.5743 H   0  0  0  0  0  0  0  0  0  0  0  0
  142.7485   75.5403  219.0279 H   0  0  0  0  0  0  0  0  0  0  0  0
  143.0687   77.2338  218.6714 H   0  0  0  0  0  0  0  0  0  0  0  0
  142.6280   76.6109  221.2580 H   0  0  0  0  0  0  0  0  0  0  0  0
  142.0566   79.0013  218.7224 H   0  0  0  0  0  0  0  0  0  0  0  0
  141.7423   81.4069  219.2015 H   0  0  0  0  0  0  0  0  0  0  0  0
  141.0150   80.4228  223.2993 H   0  0  0  0  0  0  0  0  0  0  0  0
  141.3301   78.0089  222.8144 H   0  0  0  0  0  0  0  0  0  0  0  0
  138.8394   69.1716  222.3455 H   0  0  0  0  0  0  0  0  0  0  0  0
  138.7433   67.8390  224.4721 H   0  0  0  0  0  0  0  0  0  0  0  0
  139.2289   67.6873  226.8705 H   0  0  0  0  0  0  0  0  0  0  0  0
  141.1311   70.9312  228.9121 H   0  0  0  0  0  0  0  0  0  0  0  0
  141.1896   72.1860  226.7953 H   0  0  0  0  0  0  0  0  0  0  0  0
  1  2  2  0
  2  3  1  0
  3  4  1  0
  4  5  1  0
  5  6  2  0
  5  7  1  0
  7  8  1  0
  8  9  1  0
  9 10  1  0
 10 11  1  0
 11 12  1  0
 12 13  2  0
 13 14  1  0
 14 15  2  0
 15 16  1  0
 15 17  1  0
 17 18  2  0
  2 19  1  0
 19 20  2  0
 20 21  1  0
 21 22  2  0
 22 23  1  0
 23 24  2  0
 24 25  1  0
 24 26  1  0
 26 27  2  0
 27 28  1  0
 28 29  2  0
 11  7  1  0
 18 12  1  0
 29 19  1  0
 28 22  1  0
  3 30  1  0
  4 31  1  0
  4 32  1  0
  8 33  1  0
  8 34  1  0
  9 35  1  0
  9 36  1  0
 10 37  1  0
 10 38  1  0
 11 39  1  1
 13 40  1  0
 14 41  1  0
 17 42  1  0
 18 43  1  0
 20 44  1  0
 21 45  1  0
 23 46  1  0
 26 47  1  0
 27 48  1  0
M  END
>  <smiles>  (47) 
O=C(NCC(=O)N1CCC[C@H]1c1ccc(Cl)cc1)c1ccc2cc(F)ccc2n1

>  <score_type>  (47) 
oracle

>  <origin>  (47) 
autodockgpu

>  <m_score__min__energy>  (47) 
-9.1099999999999994

>  <m_primary>  (47) 
energy

>  <rmsd>  (47) 
1.3582651260639402

>  <m_score__min__rmsd>  (47) 
1.3582651260639402

>  <meeko>  (47) 
{"free_energy": -7.98, "intermolecular_energy": -9.47, "internal_energy": -1.76, "cluster_size": 27, "cluster_id": 1, "rank_in_cluster": 26}

>  <energy>  (47) 
-8.2

>  <cluster_rmsd>  (47) 
0.57

>  <cluster>  (47) 
4

$$$$

     RDKit          3D

 48 51  0  0  0  0  0  0  0  0999 V2000
  139.3480   71.2900  221.0910 O   0  0  0  0  0  0  0  0  0  0  0  0
  139.4080   71.7890  222.2280 C   0  0  0  0  0  0  0  0  0  0  0  0
  139.3110   73.1860  222.3800 N   0  0  0  0  0  0  0  0  0  0  0  0
  139.1440   74.0500  221.2260 C   0  0  0  0  0  0  0  0  0  0  0  0
  138.9350   75.4180  221.7180 C   0  0  0  0  0  0  0  0  0  0  0  0
  138.2000   75.7210  222.6930 O   0  0  0  0  0  0  0  0  0  0  0  0
  139.5980   76.4930  221.0630 N   0  0  0  0  0  0  0  0  0  0  0  0
  139.0270   77.6100  220.3240 C   0  0  0  0  0  0  0  0  0  0  0  0
  139.8980   77.6070  219.0850 C   0  0  0  0  0  0  0  0  0  0  0  0
  141.1600   76.8850  219.4760 C   0  0  0  0  0  0  0  0  0  0  0  0
  141.0540   76.7290  220.9810 C   0  0  1  0  0  0  0  0  0  0  0  0
  141.4210   77.9460  221.7260 C   0  0  0  0  0  0  0  0  0  0  0  0
  141.8440   79.1180  221.1710 C   0  0  0  0  0  0  0  0  0  0  0  0
  142.1800   80.2440  221.9170 C   0  0  0  0  0  0  0  0  0  0  0  0
  142.0840   80.1860  223.2790 C   0  0  0  0  0  0  0  0  0  0  0  0
  142.5080   81.6020  224.2070 Cl  0  0  0  0  0  0  0  0  0  0  0  0
  141.6590   79.0120  223.8670 C   0  0  0  0  0  0  0  0  0  0  0  0
  141.3250   77.8890  223.1140 C   0  0  0  0  0  0  0  0  0  0  0  0
  139.5740   70.9290  223.3920 C   0  0  0  0  0  0  0  0  0  0  0  0
  139.2120   69.5970  223.3520 C   0  0  0  0  0  0  0  0  0  0  0  0
  139.4010   68.8300  224.5060 C   0  0  0  0  0  0  0  0  0  0  0  0
  139.9370   69.4030  225.6480 C   0  0  0  0  0  0  0  0  0  0  0  0
  140.1450   68.6960  226.8140 C   0  0  0  0  0  0  0  0  0  0  0  0
  140.6800   69.2650  227.9570 C   0  0  0  0  0  0  0  0  0  0  0  0
  140.8800   68.5540  229.0980 F   0  0  0  0  0  0  0  0  0  0  0  0
  141.0200   70.5980  227.9270 C   0  0  0  0  0  0  0  0  0  0  0  0
  140.8210   71.3180  226.7810 C   0  0  0  0  0  0  0  0  0  0  0  0
  140.2870   70.7330  225.6510 C   0  0  0  0  0  0  0  0  0  0  0  0
  140.0940   71.4360  224.5340 N   0  0  0  0  0  0  0  0  0  0  0  0
  139.3670   73.5570  223.3660 H   0  0  0  0  0  0  0  0  0  0  0  0
  140.0451   74.0121  220.5962 H   0  0  0  0  0  0  0  0  0  0  0  0
  138.2853   73.7230  220.6213 H   0  0  0  0  0  0  0  0  0  0  0  0
  137.9700   77.4330  220.0760 H   0  0  0  0  0  0  0  0  0  0  0  0
  139.0204   78.5631  220.8732 H   0  0  0  0  0  0  0  0  0  0  0  0
  139.3932   77.0790  218.2626 H   0  0  0  0  0  0  0  0  0  0  0  0
  140.1068   78.6280  218.7330 H   0  0  0  0  0  0  0  0  0  0  0  0
  141.2140   75.9019  218.9855 H   0  0  0  0  0  0  0  0  0  0  0  0
  142.0661   77.4304  219.1736 H   0  0  0  0  0  0  0  0  0  0  0  0
  141.7174   75.9636  221.4100 H   0  0  0  0  0  0  0  0  0  0  0  0
  141.9238   79.1764  220.0755 H   0  0  0  0  0  0  0  0  0  0  0  0
  142.5171   81.1649  221.4187 H   0  0  0  0  0  0  0  0  0  0  0  0
  141.5817   78.9617  224.9631 H   0  0  0  0  0  0  0  0  0  0  0  0
  140.9889   76.9667  223.6105 H   0  0  0  0  0  0  0  0  0  0  0  0
  138.7876   69.1525  222.4397 H   0  0  0  0  0  0  0  0  0  0  0  0
  139.1226   67.7658  224.5071 H   0  0  0  0  0  0  0  0  0  0  0  0
  139.8731   67.6304  226.8367 H   0  0  0  0  0  0  0  0  0  0  0  0
  141.4485   71.0809  228.8176 H   0  0  0  0  0  0  0  0  0  0  0  0
  141.0919   72.3839  226.7598 H   0  0  0  0  0  0  0  0  0  0  0  0
  1  2  2  0
  2  3  1  0
  3  4  1  0
  4  5  1  0
  5  6  2  0
  5  7  1  0
  7  8  1  0
  8  9  1  0
  9 10  1  0
 10 11  1  0
 11 12  1  0
 12 13  2  0
 13 14  1  0
 14 15  2  0
 15 16  1  0
 15 17  1  0
 17 18  2  0
  2 19  1  0
 19 20  2  0
 20 21  1  0
 21 22  2  0
 22 23  1  0
 23 24  2  0
 24 25  1  0
 24 26  1  0
 26 27  2  0
 27 28  1  0
 28 29  2  0
 11  7  1  0
 18 12  1  0
 29 19  1  0
 28 22  1  0
  3 30  1  0
  4 31  1  0
  4 32  1  0
  8 33  1  0
  8 34  1  0
  9 35  1  0
  9 36  1  0
 10 37  1  0
 10 38  1  0
 11 39  1  1
 13 40  1  0
 14 41  1  0
 17 42  1  0
 18 43  1  0
 20 44  1  0
 21 45  1  0
 23 46  1  0
 26 47  1  0
 27 48  1  0
M  END
>  <smiles>  (48) 
O=C(NCC(=O)N1CCC[C@H]1c1ccc(Cl)cc1)c1ccc2cc(F)ccc2n1

>  <score_type>  (48) 
oracle

>  <origin>  (48) 
autodockgpu

>  <m_score__min__energy>  (48) 
-9.1099999999999994

>  <m_primary>  (48) 
energy

>  <rmsd>  (48) 
1.5345031848204118

>  <m_score__min__rmsd>  (48) 
1.5345031848204118

>  <meeko>  (48) 
{"free_energy": -8.55, "intermolecular_energy": -10.05, "internal_energy": -1.65, "cluster_size": 27, "cluster_id": 1, "rank_in_cluster": 16}

>  <energy>  (48) 
-7.85

>  <cluster_rmsd>  (48) 
1.07

>  <cluster>  (48) 
4

$$$$

     RDKit          3D

 48 51  0  0  0  0  0  0  0  0999 V2000
  139.4700   70.8080  221.4660 O   0  0  0  0  0  0  0  0  0  0  0  0
  139.1500   71.4410  222.4860 C   0  0  0  0  0  0  0  0  0  0  0  0
  138.2640   72.5310  222.3780 N   0  0  0  0  0  0  0  0  0  0  0  0
  137.7210   72.9230  221.0900 C   0  0  0  0  0  0  0  0  0  0  0  0
  138.8500   73.1920  220.1910 C   0  0  0  0  0  0  0  0  0  0  0  0
  139.0540   72.5950  219.1020 O   0  0  0  0  0  0  0  0  0  0  0  0
  139.7950   74.1930  220.5530 N   0  0  0  0  0  0  0  0  0  0  0  0
  140.0270   74.8090  221.8510 C   0  0  0  0  0  0  0  0  0  0  0  0
  140.0920   76.2720  221.4660 C   0  0  0  0  0  0  0  0  0  0  0  0
  140.4270   76.2920  219.9980 C   0  0  0  0  0  0  0  0  0  0  0  0
  140.7800   74.8530  219.6730 C   0  0  1  0  0  0  0  0  0  0  0  0
  142.1510   74.4810  220.0660 C   0  0  0  0  0  0  0  0  0  0  0  0
  143.2290   75.3170  220.0730 C   0  0  0  0  0  0  0  0  0  0  0  0
  144.5080   74.9190  220.4520 C   0  0  0  0  0  0  0  0  0  0  0  0
  144.7070   73.6250  220.8420 C   0  0  0  0  0  0  0  0  0  0  0  0
  146.3140   73.1350  221.3170 Cl  0  0  0  0  0  0  0  0  0  0  0  0
  143.6340   72.7570  220.8440 C   0  0  0  0  0  0  0  0  0  0  0  0
  142.3570   73.1620  220.4630 C   0  0  0  0  0  0  0  0  0  0  0  0
  139.6900   71.0540  223.7830 C   0  0  0  0  0  0  0  0  0  0  0  0
  140.5700   71.8730  224.4620 C   0  0  0  0  0  0  0  0  0  0  0  0
  141.0470   71.4390  225.7020 C   0  0  0  0  0  0  0  0  0  0  0  0
  140.6400   70.2210  226.2230 C   0  0  0  0  0  0  0  0  0  0  0  0
  141.0780   69.7420  227.4400 C   0  0  0  0  0  0  0  0  0  0  0  0
  140.6730   68.5260  227.9630 C   0  0  0  0  0  0  0  0  0  0  0  0
  141.1130   68.0690  229.1650 F   0  0  0  0  0  0  0  0  0  0  0  0
  139.7930   67.7610  227.2340 C   0  0  0  0  0  0  0  0  0  0  0  0
  139.3460   68.2160  226.0230 C   0  0  0  0  0  0  0  0  0  0  0  0
  139.7610   69.4320  225.5190 C   0  0  0  0  0  0  0  0  0  0  0  0
  139.3250   69.8750  224.3380 N   0  0  0  0  0  0  0  0  0  0  0  0
  138.0250   73.0350  223.2730 H   0  0  0  0  0  0  0  0  0  0  0  0
  137.1026   72.1102  220.6814 H   0  0  0  0  0  0  0  0  0  0  0  0
  137.0909   73.8186  221.1947 H   0  0  0  0  0  0  0  0  0  0  0  0
  139.1985   74.6103  222.5468 H   0  0  0  0  0  0  0  0  0  0  0  0
  140.9185   74.4376  222.3775 H   0  0  0  0  0  0  0  0  0  0  0  0
  139.1221   76.7592  221.6448 H   0  0  0  0  0  0  0  0  0  0  0  0
  140.8406   76.8157  222.0609 H   0  0  0  0  0  0  0  0  0  0  0  0
  139.5617   76.6240  219.4056 H   0  0  0  0  0  0  0  0  0  0  0  0
  141.2459   76.9882  219.7638 H   0  0  0  0  0  0  0  0  0  0  0  0
  140.7498   74.6050  218.6017 H   0  0  0  0  0  0  0  0  0  0  0  0
  143.0796   76.3616  219.7625 H   0  0  0  0  0  0  0  0  0  0  0  0
  145.3438   75.6340  220.4377 H   0  0  0  0  0  0  0  0  0  0  0  0
  143.7921   71.7140  221.1558 H   0  0  0  0  0  0  0  0  0  0  0  0
  141.5203   72.4480  220.4755 H   0  0  0  0  0  0  0  0  0  0  0  0
  140.8863   72.8382  224.0397 H   0  0  0  0  0  0  0  0  0  0  0  0
  141.7498   72.0681  226.2679 H   0  0  0  0  0  0  0  0  0  0  0  0
  141.7820   70.3548  228.0221 H   0  0  0  0  0  0  0  0  0  0  0  0
  139.4507   66.7901  227.6214 H   0  0  0  0  0  0  0  0  0  0  0  0
  138.6434   67.6015  225.4410 H   0  0  0  0  0  0  0  0  0  0  0  0
  1  2  2  0
  2  3  1  0
  3  4  1  0
  4  5  1  0
  5  6  2  0
  5  7  1  0
  7  8  1  0
  8  9  1  0
  9 10  1  0
 10 11  1  0
 11 12  1  0
 12 13  2  0
 13 14  1  0
 14 15  2  0
 15 16  1  0
 15 17  1  0
 17 18  2  0
  2 19  1  0
 19 20  2  0
 20 21  1  0
 21 22  2  0
 22 23  1  0
 23 24  2  0
 24 25  1  0
 24 26  1  0
 26 27  2  0
 27 28  1  0
 28 29  2  0
 11  7  1  0
 18 12  1  0
 29 19  1  0
 28 22  1  0
  3 30  1  0
  4 31  1  0
  4 32  1  0
  8 33  1  0
  8 34  1  0
  9 35  1  0
  9 36  1  0
 10 37  1  0
 10 38  1  0
 11 39  1  6
 13 40  1  0
 14 41  1  0
 17 42  1  0
 18 43  1  0
 20 44  1  0
 21 45  1  0
 23 46  1  0
 26 47  1  0
 27 48  1  0
M  END
>  <smiles>  (49) 
O=C(NCC(=O)N1CCC[C@H]1c1ccc(Cl)cc1)c1ccc2cc(F)ccc2n1

>  <score_type>  (49) 
oracle

>  <origin>  (49) 
autodockgpu

>  <m_score__min__energy>  (49) 
-9.1099999999999994

>  <m_primary>  (49) 
energy

>  <rmsd>  (49) 
2.968635437563992

>  <m_score__min__rmsd>  (49) 
2.968635437563992

>  <meeko>  (49) 
{"free_energy": -7.85, "intermolecular_energy": -9.34, "internal_energy": -1.59, "cluster_size": 7, "cluster_id": 4, "rank_in_cluster": 6}

>  <energy>  (49) 
-7.55

>  <cluster_rmsd>  (49) 
1.1

>  <cluster>  (49) 
4

$$$$

     RDKit          3D

 48 51  0  0  0  0  0  0  0  0999 V2000
  138.4500   70.7410  221.7710 O   0  0  0  0  0  0  0  0  0  0  0  0
  138.9610   71.1900  222.8110 C   0  0  0  0  0  0  0  0  0  0  0  0
  139.2650   72.5620  222.9000 N   0  0  0  0  0  0  0  0  0  0  0  0
  138.9900   73.4580  221.7910 C   0  0  0  0  0  0  0  0  0  0  0  0
  140.2010   74.2530  221.5470 C   0  0  0  0  0  0  0  0  0  0  0  0
  141.3750   73.8470  221.7520 O   0  0  0  0  0  0  0  0  0  0  0  0
  140.0650   75.5770  221.0440 N   0  0  0  0  0  0  0  0  0  0  0  0
  138.8750   76.4090  220.9600 C   0  0  0  0  0  0  0  0  0  0  0  0
  138.9890   76.9290  219.5420 C   0  0  0  0  0  0  0  0  0  0  0  0
  140.4420   76.7890  219.1730 C   0  0  0  0  0  0  0  0  0  0  0  0
  141.1290   76.4310  220.4770 C   0  0  1  0  0  0  0  0  0  0  0  0
  141.3750   77.5920  221.3510 C   0  0  0  0  0  0  0  0  0  0  0  0
  141.2070   77.6150  222.7050 C   0  0  0  0  0  0  0  0  0  0  0  0
  141.4530   78.7380  223.4900 C   0  0  0  0  0  0  0  0  0  0  0  0
  141.8870   79.8840  222.8860 C   0  0  0  0  0  0  0  0  0  0  0  0
  142.1930   81.2870  223.8780 Cl  0  0  0  0  0  0  0  0  0  0  0  0
  142.0650   79.8880  221.5170 C   0  0  0  0  0  0  0  0  0  0  0  0
  141.8170   78.7610  220.7370 C   0  0  0  0  0  0  0  0  0  0  0  0
  139.2400   70.2980  223.9290 C   0  0  0  0  0  0  0  0  0  0  0  0
  138.9080   68.9590  223.8730 C   0  0  0  0  0  0  0  0  0  0  0  0
  139.2060   68.1610  224.9820 C   0  0  0  0  0  0  0  0  0  0  0  0
  139.8160   68.7110  226.0980 C   0  0  0  0  0  0  0  0  0  0  0  0
  140.1330   67.9730  227.2190 C   0  0  0  0  0  0  0  0  0  0  0  0
  140.7430   68.5200  228.3350 C   0  0  0  0  0  0  0  0  0  0  0  0
  141.0500   67.7780  229.4330 F   0  0  0  0  0  0  0  0  0  0  0  0
  141.0480   69.8610  228.3240 C   0  0  0  0  0  0  0  0  0  0  0  0
  140.7420   70.6120  227.2210 C   0  0  0  0  0  0  0  0  0  0  0  0
  140.1340   70.0500  226.1180 C   0  0  0  0  0  0  0  0  0  0  0  0
  139.8360   70.7820  225.0440 N   0  0  0  0  0  0  0  0  0  0  0  0
  139.6980   72.8920  223.8040 H   0  0  0  0  0  0  0  0  0  0  0  0
  138.7372   72.8755  220.8928 H   0  0  0  0  0  0  0  0  0  0  0  0
  138.1400   74.1146  222.0284 H   0  0  0  0  0  0  0  0  0  0  0  0
  137.9578   75.8185  221.1017 H   0  0  0  0  0  0  0  0  0  0  0  0
  138.8138   77.1937  221.7284 H   0  0  0  0  0  0  0  0  0  0  0  0
  138.3616   76.3328  218.8631 H   0  0  0  0  0  0  0  0  0  0  0  0
  138.6485   77.9720  219.4632 H   0  0  0  0  0  0  0  0  0  0  0  0
  140.5795   75.9909  218.4286 H   0  0  0  0  0  0  0  0  0  0  0  0
  140.8503   77.7052  218.7215 H   0  0  0  0  0  0  0  0  0  0  0  0
  142.1291   75.9880  220.3607 H   0  0  0  0  0  0  0  0  0  0  0  0
  140.8588   76.6978  223.2024 H   0  0  0  0  0  0  0  0  0  0  0  0
  141.3005   78.7032  224.5788 H   0  0  0  0  0  0  0  0  0  0  0  0
  142.4133   80.8093  221.0273 H   0  0  0  0  0  0  0  0  0  0  0  0
  141.9686   78.7941  219.6480 H   0  0  0  0  0  0  0  0  0  0  0  0
  138.4234   68.5325  222.9823 H   0  0  0  0  0  0  0  0  0  0  0  0
  138.9546   67.0902  224.9683 H   0  0  0  0  0  0  0  0  0  0  0  0
  139.8900   66.9002  227.2268 H   0  0  0  0  0  0  0  0  0  0  0  0
  141.5338   70.3263  229.1943 H   0  0  0  0  0  0  0  0  0  0  0  0
  140.9858   71.6846  227.2143 H   0  0  0  0  0  0  0  0  0  0  0  0
  1  2  2  0
  2  3  1  0
  3  4  1  0
  4  5  1  0
  5  6  2  0
  5  7  1  0
  7  8  1  0
  8  9  1  0
  9 10  1  0
 10 11  1  0
 11 12  1  0
 12 13  2  0
 13 14  1  0
 14 15  2  0
 15 16  1  0
 15 17  1  0
 17 18  2  0
  2 19  1  0
 19 20  2  0
 20 21  1  0
 21 22  2  0
 22 23  1  0
 23 24  2  0
 24 25  1  0
 24 26  1  0
 26 27  2  0
 27 28  1  0
 28 29  2  0
 11  7  1  0
 18 12  1  0
 29 19  1  0
 28 22  1  0
  3 30  1  0
  4 31  1  0
  4 32  1  0
  8 33  1  0
  8 34  1  0
  9 35  1  0
  9 36  1  0
 10 37  1  0
 10 38  1  0
 11 39  1  6
 13 40  1  0
 14 41  1  0
 17 42  1  0
 18 43  1  0
 20 44  1  0
 21 45  1  0
 23 46  1  0
 26 47  1  0
 27 48  1  0
M  END
>  <smiles>  (50) 
O=C(NCC(=O)N1CCC[C@H]1c1ccc(Cl)cc1)c1ccc2cc(F)ccc2n1

>  <score_type>  (50) 
oracle

>  <origin>  (50) 
autodockgpu

>  <m_score__min__energy>  (50) 
-9.1099999999999994

>  <m_primary>  (50) 
energy

>  <rmsd>  (50) 
1.4694687964410296

>  <m_score__min__rmsd>  (50) 
1.4694687964410296

>  <meeko>  (50) 
{"free_energy": -8.44, "intermolecular_energy": -9.93, "internal_energy": -1.57, "cluster_size": 27, "cluster_id": 1, "rank_in_cluster": 23}

>  <energy>  (50) 
-7.98

>  <cluster_rmsd>  (50) 
0.0

>  <cluster>  (50) 
5

$$$$
