
     RDKit          3D

 54 57  0  0  0  0  0  0  0  0999 V2000
  139.8710   71.0750  221.3690 O   0  0  0  0  0  0  0  0  0  0  0  0
  139.8050   71.6900  222.4870 C   0  0  0  0  0  0  0  0  0  0  0  0
  139.6250   73.1000  222.4570 N   0  0  0  0  0  0  0  0  0  0  0  0
  139.5160   73.8380  221.2110 C   0  0  0  0  0  0  0  0  0  0  0  0
  140.0000   75.2060  221.4720 C   0  0  0  0  0  0  0  0  0  0  0  0
  139.5220   75.9740  222.3460 O   0  0  0  0  0  0  0  0  0  0  0  0
  141.0800   75.7010  220.6880 N   0  0  0  0  0  0  0  0  0  0  0  0
  142.2960   74.9280  220.4640 C   0  0  0  0  0  0  0  0  0  0  0  0
  142.7040   74.9760  219.0070 C   0  0  0  0  0  0  0  0  0  0  0  0
  141.6270   75.5180  218.1150 C   0  0  0  0  0  0  0  0  0  0  0  0
  140.9910   76.7830  218.5960 C   0  0  0  0  0  0  0  0  0  0  0  0
  141.0330   77.0140  220.0610 C   0  0  2  0  0  0  0  0  0  0  0  0
  142.1650   77.8940  220.5200 C   0  0  0  0  0  0  0  0  0  0  0  0
  141.8730   78.7410  221.6730 C   0  0  0  0  0  0  0  0  0  0  0  0
  142.0820   80.1180  221.5320 C   0  0  0  0  0  0  0  0  0  0  0  0
  141.8160   80.9520  222.6000 C   0  0  0  0  0  0  0  0  0  0  0  0
  141.3490   80.4990  223.8160 C   0  0  0  0  0  0  0  0  0  0  0  0
  141.1400   79.1270  223.9570 C   0  0  0  0  0  0  0  0  0  0  0  0
  141.4060   78.2910  222.8910 C   0  0  0  0  0  0  0  0  0  0  0  0
  139.9140   70.9580  223.7590 C   0  0  0  0  0  0  0  0  0  0  0  0
  139.5120   69.6560  223.8050 C   0  0  0  0  0  0  0  0  0  0  0  0
  139.5620   68.8620  224.9360 C   0  0  0  0  0  0  0  0  0  0  0  0
  140.0660   69.4760  226.0840 C   0  0  0  0  0  0  0  0  0  0  0  0
  140.1450   68.7410  227.2490 C   0  0  0  0  0  0  0  0  0  0  0  0
  140.6440   69.3280  228.4140 C   0  0  0  0  0  0  0  0  0  0  0  0
  141.0470   70.6590  228.3350 C   0  0  0  0  0  0  0  0  0  0  0  0
  140.9630   71.3850  227.1610 C   0  0  0  0  0  0  0  0  0  0  0  0
  140.4710   70.8070  226.0130 C   0  0  0  0  0  0  0  0  0  0  0  0
  140.3920   71.5220  224.8730 N   0  0  0  0  0  0  0  0  0  0  0  0
  139.5740   73.5880  223.3920 H   0  0  0  0  0  0  0  0  0  0  0  0
  140.1331   73.3613  220.4352 H   0  0  0  0  0  0  0  0  0  0  0  0
  138.4753   73.8528  220.8552 H   0  0  0  0  0  0  0  0  0  0  0  0
  143.1068   75.3452  221.0793 H   0  0  0  0  0  0  0  0  0  0  0  0
  142.1039   73.8811  220.7416 H   0  0  0  0  0  0  0  0  0  0  0  0
  143.5929   75.6170  218.9127 H   0  0  0  0  0  0  0  0  0  0  0  0
  142.9072   73.9431  218.6878 H   0  0  0  0  0  0  0  0  0  0  0  0
  142.0673   75.7112  217.1257 H   0  0  0  0  0  0  0  0  0  0  0  0
  140.8307   74.7594  218.0955 H   0  0  0  0  0  0  0  0  0  0  0  0
  141.5036   77.6247  218.1074 H   0  0  0  0  0  0  0  0  0  0  0  0
  139.9249   76.6961  218.3392 H   0  0  0  0  0  0  0  0  0  0  0  0
  140.1357   77.5756  220.3600 H   0  0  0  0  0  0  0  0  0  0  0  0
  143.0141   77.2455  220.7818 H   0  0  0  0  0  0  0  0  0  0  0  0
  142.3728   78.5798  219.6855 H   0  0  0  0  0  0  0  0  0  0  0  0
  142.4535   80.5305  220.5823 H   0  0  0  0  0  0  0  0  0  0  0  0
  141.9850   82.0317  222.4746 H   0  0  0  0  0  0  0  0  0  0  0  0
  141.1486   81.1942  224.6445 H   0  0  0  0  0  0  0  0  0  0  0  0
  140.7675   78.7158  224.9068 H   0  0  0  0  0  0  0  0  0  0  0  0
  141.2371   77.2116  223.0191 H   0  0  0  0  0  0  0  0  0  0  0  0
  139.1215   69.2068  222.8799 H   0  0  0  0  0  0  0  0  0  0  0  0
  139.2264   67.8145  224.9314 H   0  0  0  0  0  0  0  0  0  0  0  0
  139.8147   67.6918  227.2603 H   0  0  0  0  0  0  0  0  0  0  0  0
  140.7158   68.7627  229.3549 H   0  0  0  0  0  0  0  0  0  0  0  0
  141.4451   71.1487  229.2360 H   0  0  0  0  0  0  0  0  0  0  0  0
  141.2925   72.4344  227.1446 H   0  0  0  0  0  0  0  0  0  0  0  0
  1  2  2  0
  2  3  1  0
  3  4  1  0
  4  5  1  0
  5  6  2  0
  5  7  1  0
  7  8  1  0
  8  9  1  0
  9 10  1  0
 10 11  1  0
 11 12  1  0
 12 13  1  0
 13 14  1  0
 14 15  2  0
 15 16  1  0
 16 17  2  0
 17 18  1  0
 18 19  2  0
  2 20  1  0
 20 21  2  0
 21 22  1  0
 22 23  2  0
 23 24  1  0
 24 25  2  0
 25 26  1  0
 26 27  2  0
 27 28  1  0
 28 29  2  0
 12  7  1  0
 19 14  1  0
 29 20  1  0
 28 23  1  0
  3 30  1  0
  4 31  1  0
  4 32  1  0
  8 33  1  0
  8 34  1  0
  9 35  1  0
  9 36  1  0
 10 37  1  0
 10 38  1  0
 11 39  1  0
 11 40  1  0
 12 41  1  1
 13 42  1  0
 13 43  1  0
 15 44  1  0
 16 45  1  0
 17 46  1  0
 18 47  1  0
 19 48  1  0
 21 49  1  0
 22 50  1  0
 24 51  1  0
 25 52  1  0
 26 53  1  0
 27 54  1  0
M  END
>  <smiles>  (1) 
O=C(NCC(=O)N1CCCCC1Cc1ccccc1)c1ccc2ccccc2n1

>  <score_type>  (1) 
oracle

>  <origin>  (1) 
autodockgpu

>  <m_score__min__energy>  (1) 
-9.3399999999999999

>  <m_primary>  (1) 
energy

>  <rmsd>  (1) 
1.9897738950979895

>  <m_score__min__rmsd>  (1) 
1.9897738950979895

>  <meeko>  (1) 
{"free_energy": -8.79, "intermolecular_energy": -10.58, "internal_energy": -1.76, "cluster_size": 35, "cluster_id": 1, "rank_in_cluster": 26}

>  <energy>  (1) 
-9.34

>  <cluster_rmsd>  (1) 
0.0

>  <cluster>  (1) 
1

$$$$

     RDKit          3D

 54 57  0  0  0  0  0  0  0  0999 V2000
  141.7470   73.1250  220.9720 O   0  0  0  0  0  0  0  0  0  0  0  0
  140.9400   73.9400  221.5360 C   0  0  0  0  0  0  0  0  0  0  0  0
  139.8450   73.3910  222.2580 N   0  0  0  0  0  0  0  0  0  0  0  0
  139.6310   71.9590  222.3660 C   0  0  0  0  0  0  0  0  0  0  0  0
  138.2920   71.7620  222.9510 C   0  0  0  0  0  0  0  0  0  0  0  0
  137.4050   72.6520  223.0120 O   0  0  0  0  0  0  0  0  0  0  0  0
  137.9700   70.4820  223.4850 N   0  0  0  0  0  0  0  0  0  0  0  0
  136.6050   70.1080  223.8390 C   0  0  0  0  0  0  0  0  0  0  0  0
  136.2770   68.7210  223.3280 C   0  0  0  0  0  0  0  0  0  0  0  0
  137.2820   68.2100  222.3390 C   0  0  0  0  0  0  0  0  0  0  0  0
  138.7100   68.3670  222.7570 C   0  0  0  0  0  0  0  0  0  0  0  0
  138.9890   69.4670  223.7110 C   0  0  2  0  0  0  0  0  0  0  0  0
  139.0440   69.0410  225.1540 C   0  0  0  0  0  0  0  0  0  0  0  0
  139.7310   69.9630  226.0540 C   0  0  0  0  0  0  0  0  0  0  0  0
  139.5980   69.7410  227.4300 C   0  0  0  0  0  0  0  0  0  0  0  0
  140.2340   70.5910  228.3140 C   0  0  0  0  0  0  0  0  0  0  0  0
  141.0040   71.6620  227.9120 C   0  0  0  0  0  0  0  0  0  0  0  0
  141.1380   71.8830  226.5410 C   0  0  0  0  0  0  0  0  0  0  0  0
  140.5030   71.0350  225.6560 C   0  0  0  0  0  0  0  0  0  0  0  0
  141.1430   75.3940  221.4380 C   0  0  0  0  0  0  0  0  0  0  0  0
  141.8400   75.8910  220.3780 C   0  0  0  0  0  0  0  0  0  0  0  0
  142.0980   77.2340  220.1720 C   0  0  0  0  0  0  0  0  0  0  0  0
  141.5900   78.1020  221.1400 C   0  0  0  0  0  0  0  0  0  0  0  0
  141.8100   79.4570  220.9970 C   0  0  0  0  0  0  0  0  0  0  0  0
  141.3150   80.3500  221.9490 C   0  0  0  0  0  0  0  0  0  0  0  0
  140.6070   79.8120  223.0210 C   0  0  0  0  0  0  0  0  0  0  0  0
  140.3940   78.4520  223.1530 C   0  0  0  0  0  0  0  0  0  0  0  0
  140.8810   77.5710  222.2150 C   0  0  0  0  0  0  0  0  0  0  0  0
  140.6680   76.2470  222.3510 N   0  0  0  0  0  0  0  0  0  0  0  0
  139.1900   74.0810  222.7170 H   0  0  0  0  0  0  0  0  0  0  0  0
  139.6794   71.4944  221.3701 H   0  0  0  0  0  0  0  0  0  0  0  0
  140.4046   71.4946  222.9952 H   0  0  0  0  0  0  0  0  0  0  0  0
  136.4995   70.1231  224.9338 H   0  0  0  0  0  0  0  0  0  0  0  0
  135.9119   70.8266  223.3772 H   0  0  0  0  0  0  0  0  0  0  0  0
  136.2443   68.0305  224.1836 H   0  0  0  0  0  0  0  0  0  0  0  0
  135.3073   68.7803  222.8121 H   0  0  0  0  0  0  0  0  0  0  0  0
  137.0887   67.1393  222.1770 H   0  0  0  0  0  0  0  0  0  0  0  0
  137.1573   68.8163  221.4297 H   0  0  0  0  0  0  0  0  0  0  0  0
  139.0291   67.4248  223.2265 H   0  0  0  0  0  0  0  0  0  0  0  0
  139.2619   68.6214  221.8401 H   0  0  0  0  0  0  0  0  0  0  0  0
  140.0002   69.8562  223.5213 H   0  0  0  0  0  0  0  0  0  0  0  0
  138.0108   68.9235  225.5127 H   0  0  0  0  0  0  0  0  0  0  0  0
  139.6274   68.1086  225.1725 H   0  0  0  0  0  0  0  0  0  0  0  0
  138.9946   68.9001  227.8026 H   0  0  0  0  0  0  0  0  0  0  0  0
  140.1205   70.4042  229.3921 H   0  0  0  0  0  0  0  0  0  0  0  0
  141.4948   72.3183  228.6457 H   0  0  0  0  0  0  0  0  0  0  0  0
  141.7428   72.7234  226.1695 H   0  0  0  0  0  0  0  0  0  0  0  0
  140.6184   71.2236  224.5784 H   0  0  0  0  0  0  0  0  0  0  0  0
  142.2235   75.1755  219.6357 H   0  0  0  0  0  0  0  0  0  0  0  0
  142.6665   77.5947  219.3021 H   0  0  0  0  0  0  0  0  0  0  0  0
  142.3759   79.8336  220.1321 H   0  0  0  0  0  0  0  0  0  0  0  0
  141.4774   81.4340  221.8563 H   0  0  0  0  0  0  0  0  0  0  0  0
  140.2043   80.4907  223.7873 H   0  0  0  0  0  0  0  0  0  0  0  0
  139.8295   78.0707  224.0167 H   0  0  0  0  0  0  0  0  0  0  0  0
  1  2  2  0
  2  3  1  0
  3  4  1  0
  4  5  1  0
  5  6  2  0
  5  7  1  0
  7  8  1  0
  8  9  1  0
  9 10  1  0
 10 11  1  0
 11 12  1  0
 12 13  1  0
 13 14  1  0
 14 15  2  0
 15 16  1  0
 16 17  2  0
 17 18  1  0
 18 19  2  0
  2 20  1  0
 20 21  2  0
 21 22  1  0
 22 23  2  0
 23 24  1  0
 24 25  2  0
 25 26  1  0
 26 27  2  0
 27 28  1  0
 28 29  2  0
 12  7  1  0
 19 14  1  0
 29 20  1  0
 28 23  1  0
  3 30  1  0
  4 31  1  0
  4 32  1  0
  8 33  1  0
  8 34  1  0
  9 35  1  0
  9 36  1  0
 10 37  1  0
 10 38  1  0
 11 39  1  0
 11 40  1  0
 12 41  1  6
 13 42  1  0
 13 43  1  0
 15 44  1  0
 16 45  1  0
 17 46  1  0
 18 47  1  0
 19 48  1  0
 21 49  1  0
 22 50  1  0
 24 51  1  0
 25 52  1  0
 26 53  1  0
 27 54  1  0
M  END
>  <smiles>  (2) 
O=C(NCC(=O)N1CCCCC1Cc1ccccc1)c1ccc2ccccc2n1

>  <score_type>  (2) 
oracle

>  <origin>  (2) 
autodockgpu

>  <m_score__min__energy>  (2) 
-9.3399999999999999

>  <m_primary>  (2) 
energy

>  <rmsd>  (2) 
8.49209557448035

>  <m_score__min__rmsd>  (2) 
8.49209557448035

>  <meeko>  (2) 
{"free_energy": -8.22, "intermolecular_energy": -10.01, "internal_energy": -2.15, "cluster_size": 9, "cluster_id": 2, "rank_in_cluster": 8}

>  <energy>  (2) 
-9.33

>  <cluster_rmsd>  (2) 
0.08

>  <cluster>  (2) 
1

$$$$

     RDKit          3D

 54 57  0  0  0  0  0  0  0  0999 V2000
  140.3780   71.4280  221.2560 O   0  0  0  0  0  0  0  0  0  0  0  0
  139.9590   71.9940  222.3220 C   0  0  0  0  0  0  0  0  0  0  0  0
  139.4240   73.3070  222.2060 N   0  0  0  0  0  0  0  0  0  0  0  0
  139.3440   73.9990  220.9320 C   0  0  0  0  0  0  0  0  0  0  0  0
  138.4280   75.1400  221.1120 C   0  0  0  0  0  0  0  0  0  0  0  0
  137.1860   75.0330  221.2820 O   0  0  0  0  0  0  0  0  0  0  0  0
  138.9740   76.4540  221.0950 N   0  0  0  0  0  0  0  0  0  0  0  0
  138.8880   77.3160  219.9220 C   0  0  0  0  0  0  0  0  0  0  0  0
  138.4690   78.7180  220.3130 C   0  0  0  0  0  0  0  0  0  0  0  0
  137.9500   78.8020  221.7170 C   0  0  0  0  0  0  0  0  0  0  0  0
  138.8040   78.1280  222.7450 C   0  0  0  0  0  0  0  0  0  0  0  0
  139.6540   77.0170  222.2530 C   0  0  2  0  0  0  0  0  0  0  0  0
  141.0710   77.4120  221.9320 C   0  0  0  0  0  0  0  0  0  0  0  0
  141.4620   78.7490  222.3680 C   0  0  0  0  0  0  0  0  0  0  0  0
  141.8500   78.9050  223.7050 C   0  0  0  0  0  0  0  0  0  0  0  0
  142.2280   80.1550  224.1550 C   0  0  0  0  0  0  0  0  0  0  0  0
  142.2470   81.2750  223.3500 C   0  0  0  0  0  0  0  0  0  0  0  0
  141.8630   81.1200  222.0180 C   0  0  0  0  0  0  0  0  0  0  0  0
  141.4830   79.8720  221.5660 C   0  0  0  0  0  0  0  0  0  0  0  0
  140.0310   71.3080  223.6210 C   0  0  0  0  0  0  0  0  0  0  0  0
  139.5920   70.0210  223.7100 C   0  0  0  0  0  0  0  0  0  0  0  0
  139.6060   69.2680  224.8700 C   0  0  0  0  0  0  0  0  0  0  0  0
  140.1130   69.9110  226.0010 C   0  0  0  0  0  0  0  0  0  0  0  0
  140.1570   69.2180  227.1930 C   0  0  0  0  0  0  0  0  0  0  0  0
  140.6580   69.8340  228.3420 C   0  0  0  0  0  0  0  0  0  0  0  0
  141.0990   71.1490  228.2190 C   0  0  0  0  0  0  0  0  0  0  0  0
  141.0500   71.8330  227.0190 C   0  0  0  0  0  0  0  0  0  0  0  0
  140.5560   71.2260  225.8860 C   0  0  0  0  0  0  0  0  0  0  0  0
  140.5110   71.9000  224.7190 N   0  0  0  0  0  0  0  0  0  0  0  0
  139.0830   73.7570  223.0980 H   0  0  0  0  0  0  0  0  0  0  0  0
  140.3403   74.3588  220.6354 H   0  0  0  0  0  0  0  0  0  0  0  0
  138.9775   73.3248  220.1439 H   0  0  0  0  0  0  0  0  0  0  0  0
  139.8720   77.3573  219.4322 H   0  0  0  0  0  0  0  0  0  0  0  0
  138.1349   76.9021  219.2353 H   0  0  0  0  0  0  0  0  0  0  0  0
  139.3401   79.3832  220.2205 H   0  0  0  0  0  0  0  0  0  0  0  0
  137.6516   79.0177  219.6406 H   0  0  0  0  0  0  0  0  0  0  0  0
  137.8648   79.8650  221.9869 H   0  0  0  0  0  0  0  0  0  0  0  0
  136.9854   78.2733  221.7219 H   0  0  0  0  0  0  0  0  0  0  0  0
  139.4652   78.8888  223.1853 H   0  0  0  0  0  0  0  0  0  0  0  0
  138.1043   77.6729  223.4615 H   0  0  0  0  0  0  0  0  0  0  0  0
  139.7717   76.2750  223.0565 H   0  0  0  0  0  0  0  0  0  0  0  0
  141.7431   76.6874  222.4150 H   0  0  0  0  0  0  0  0  0  0  0  0
  141.1429   77.4179  220.8344 H   0  0  0  0  0  0  0  0  0  0  0  0
  141.8536   78.0427  224.3880 H   0  0  0  0  0  0  0  0  0  0  0  0
  142.5288   80.2627  225.2076 H   0  0  0  0  0  0  0  0  0  0  0  0
  142.5539   82.2550  223.7443 H   0  0  0  0  0  0  0  0  0  0  0  0
  141.8630   81.9825  221.3353 H   0  0  0  0  0  0  0  0  0  0  0  0
  141.1817   79.7674  220.5132 H   0  0  0  0  0  0  0  0  0  0  0  0
  139.1998   69.5489  222.7971 H   0  0  0  0  0  0  0  0  0  0  0  0
  139.2416   68.2305  224.8997 H   0  0  0  0  0  0  0  0  0  0  0  0
  139.7972   68.1795  227.2386 H   0  0  0  0  0  0  0  0  0  0  0  0
  140.7024   69.3025  229.3040 H   0  0  0  0  0  0  0  0  0  0  0  0
  141.4998   71.6605  229.1065 H   0  0  0  0  0  0  0  0  0  0  0  0
  141.4089   72.8716  226.9686 H   0  0  0  0  0  0  0  0  0  0  0  0
  1  2  2  0
  2  3  1  0
  3  4  1  0
  4  5  1  0
  5  6  2  0
  5  7  1  0
  7  8  1  0
  8  9  1  0
  9 10  1  0
 10 11  1  0
 11 12  1  0
 12 13  1  0
 13 14  1  0
 14 15  2  0
 15 16  1  0
 16 17  2  0
 17 18  1  0
 18 19  2  0
  2 20  1  0
 20 21  2  0
 21 22  1  0
 22 23  2  0
 23 24  1  0
 24 25  2  0
 25 26  1  0
 26 27  2  0
 27 28  1  0
 28 29  2  0
 12  7  1  0
 19 14  1  0
 29 20  1  0
 28 23  1  0
  3 30  1  0
  4 31  1  0
  4 32  1  0
  8 33  1  0
  8 34  1  0
  9 35  1  0
  9 36  1  0
 10 37  1  0
 10 38  1  0
 11 39  1  0
 11 40  1  0
 12 41  1  1
 13 42  1  0
 13 43  1  0
 15 44  1  0
 16 45  1  0
 17 46  1  0
 18 47  1  0
 19 48  1  0
 21 49  1  0
 22 50  1  0
 24 51  1  0
 25 52  1  0
 26 53  1  0
 27 54  1  0
M  END
>  <smiles>  (3) 
O=C(NCC(=O)N1CCCCC1Cc1ccccc1)c1ccc2ccccc2n1

>  <score_type>  (3) 
oracle

>  <origin>  (3) 
autodockgpu

>  <m_score__min__energy>  (3) 
-9.3399999999999999

>  <m_primary>  (3) 
energy

>  <rmsd>  (3) 
2.484604751427003

>  <m_score__min__rmsd>  (3) 
2.484604751427003

>  <meeko>  (3) 
{"free_energy": -8.77, "intermolecular_energy": -10.56, "internal_energy": -1.58, "cluster_size": 35, "cluster_id": 1, "rank_in_cluster": 28}

>  <energy>  (3) 
-9.29

>  <cluster_rmsd>  (3) 
0.12

>  <cluster>  (3) 
1

$$$$

     RDKit          3D

 54 57  0  0  0  0  0  0  0  0999 V2000
  141.0440   71.9860  221.5690 O   0  0  0  0  0  0  0  0  0  0  0  0
  140.2100   72.2720  222.4930 C   0  0  0  0  0  0  0  0  0  0  0  0
  139.3470   73.3830  222.2830 N   0  0  0  0  0  0  0  0  0  0  0  0
  139.3920   74.1780  221.0690 C   0  0  0  0  0  0  0  0  0  0  0  0
  140.4870   75.1520  221.2270 C   0  0  0  0  0  0  0  0  0  0  0  0
  140.9700   75.5040  222.3340 O   0  0  0  0  0  0  0  0  0  0  0  0
  141.0430   75.7400  220.0560 N   0  0  0  0  0  0  0  0  0  0  0  0
  140.4540   75.5480  218.7360 C   0  0  0  0  0  0  0  0  0  0  0  0
  140.3750   76.8610  217.9850 C   0  0  0  0  0  0  0  0  0  0  0  0
  140.6130   78.0520  218.8640 C   0  0  0  0  0  0  0  0  0  0  0  0
  141.8120   77.9470  219.7540 C   0  0  0  0  0  0  0  0  0  0  0  0
  142.2370   76.5710  220.1080 C   0  0  2  0  0  0  0  0  0  0  0  0
  143.3410   76.0190  219.2460 C   0  0  0  0  0  0  0  0  0  0  0  0
  143.9080   74.7500  219.6910 C   0  0  0  0  0  0  0  0  0  0  0  0
  143.2710   73.5750  219.2710 C   0  0  0  0  0  0  0  0  0  0  0  0
  143.7780   72.3540  219.6700 C   0  0  0  0  0  0  0  0  0  0  0  0
  144.8930   72.2240  220.4700 C   0  0  0  0  0  0  0  0  0  0  0  0
  145.5290   73.3930  220.8880 C   0  0  0  0  0  0  0  0  0  0  0  0
  145.0240   74.6140  220.4920 C   0  0  0  0  0  0  0  0  0  0  0  0
  140.1490   71.4770  223.7300 C   0  0  0  0  0  0  0  0  0  0  0  0
  139.5770   70.2410  223.6890 C   0  0  0  0  0  0  0  0  0  0  0  0
  139.4580   69.3980  224.7800 C   0  0  0  0  0  0  0  0  0  0  0  0
  139.9750   69.8880  225.9810 C   0  0  0  0  0  0  0  0  0  0  0  0
  139.8910   69.0980  227.1090 C   0  0  0  0  0  0  0  0  0  0  0  0
  140.3990   69.5610  228.3250 C   0  0  0  0  0  0  0  0  0  0  0  0
  140.9780   70.8270  228.3340 C   0  0  0  0  0  0  0  0  0  0  0  0
  141.0560   71.6090  227.1960 C   0  0  0  0  0  0  0  0  0  0  0  0
  140.5560   71.1540  225.9970 C   0  0  0  0  0  0  0  0  0  0  0  0
  140.6360   71.9220  224.8930 N   0  0  0  0  0  0  0  0  0  0  0  0
  138.6650   73.6020  223.0590 H   0  0  0  0  0  0  0  0  0  0  0  0
  139.5858   73.5304  220.2012 H   0  0  0  0  0  0  0  0  0  0  0  0
  138.4335   74.6913  220.9023 H   0  0  0  0  0  0  0  0  0  0  0  0
  141.0741   74.8422  218.1638 H   0  0  0  0  0  0  0  0  0  0  0  0
  139.4356   75.1509  218.8592 H   0  0  0  0  0  0  0  0  0  0  0  0
  141.1335   76.8557  217.1884 H   0  0  0  0  0  0  0  0  0  0  0  0
  139.3560   76.9484  217.5800 H   0  0  0  0  0  0  0  0  0  0  0  0
  140.7424   78.9331  218.2184 H   0  0  0  0  0  0  0  0  0  0  0  0
  139.7398   78.1250  219.5289 H   0  0  0  0  0  0  0  0  0  0  0  0
  142.6538   78.4394  219.2450 H   0  0  0  0  0  0  0  0  0  0  0  0
  141.5213   78.4222  220.7025 H   0  0  0  0  0  0  0  0  0  0  0  0
  142.6808   76.5825  221.1144 H   0  0  0  0  0  0  0  0  0  0  0  0
  142.9397   75.8744  218.2321 H   0  0  0  0  0  0  0  0  0  0  0  0
  144.1602   76.7513  219.2971 H   0  0  0  0  0  0  0  0  0  0  0  0
  142.3777   73.6244  218.6311 H   0  0  0  0  0  0  0  0  0  0  0  0
  143.2669   71.4402  219.3328 H   0  0  0  0  0  0  0  0  0  0  0  0
  145.2679   71.2337  220.7681 H   0  0  0  0  0  0  0  0  0  0  0  0
  146.4234   73.3417  221.5264 H   0  0  0  0  0  0  0  0  0  0  0  0
  145.5368   75.5259  220.8319 H   0  0  0  0  0  0  0  0  0  0  0  0
  139.1833   69.8896  222.7238 H   0  0  0  0  0  0  0  0  0  0  0  0
  138.9869   68.4067  224.7059 H   0  0  0  0  0  0  0  0  0  0  0  0
  139.4241   68.1037  227.0507 H   0  0  0  0  0  0  0  0  0  0  0  0
  140.3438   68.9502  229.2382 H   0  0  0  0  0  0  0  0  0  0  0  0
  141.3869   71.2182  229.2773 H   0  0  0  0  0  0  0  0  0  0  0  0
  141.5220   72.6040  227.2495 H   0  0  0  0  0  0  0  0  0  0  0  0
  1  2  2  0
  2  3  1  0
  3  4  1  0
  4  5  1  0
  5  6  2  0
  5  7  1  0
  7  8  1  0
  8  9  1  0
  9 10  1  0
 10 11  1  0
 11 12  1  0
 12 13  1  0
 13 14  1  0
 14 15  2  0
 15 16  1  0
 16 17  2  0
 17 18  1  0
 18 19  2  0
  2 20  1  0
 20 21  2  0
 21 22  1  0
 22 23  2  0
 23 24  1  0
 24 25  2  0
 25 26  1  0
 26 27  2  0
 27 28  1  0
 28 29  2  0
 12  7  1  0
 19 14  1  0
 29 20  1  0
 28 23  1  0
  3 30  1  0
  4 31  1  0
  4 32  1  0
  8 33  1  0
  8 34  1  0
  9 35  1  0
  9 36  1  0
 10 37  1  0
 10 38  1  0
 11 39  1  0
 11 40  1  0
 12 41  1  1
 13 42  1  0
 13 43  1  0
 15 44  1  0
 16 45  1  0
 17 46  1  0
 18 47  1  0
 19 48  1  0
 21 49  1  0
 22 50  1  0
 24 51  1  0
 25 52  1  0
 26 53  1  0
 27 54  1  0
M  END
>  <smiles>  (4) 
O=C(NCC(=O)N1CCCCC1Cc1ccccc1)c1ccc2ccccc2n1

>  <score_type>  (4) 
oracle

>  <origin>  (4) 
autodockgpu

>  <m_score__min__energy>  (4) 
-9.3399999999999999

>  <m_primary>  (4) 
energy

>  <rmsd>  (4) 
1.5682301910959693

>  <m_score__min__rmsd>  (4) 
1.5682301910959693

>  <meeko>  (4) 
{"free_energy": -8.49, "intermolecular_energy": -10.28, "internal_energy": -1.92, "cluster_size": 5, "cluster_id": 3, "rank_in_cluster": 1}

>  <energy>  (4) 
-9.29

>  <cluster_rmsd>  (4) 
0.57

>  <cluster>  (4) 
1

$$$$

     RDKit          3D

 54 57  0  0  0  0  0  0  0  0999 V2000
  140.1290   71.3290  221.2400 O   0  0  0  0  0  0  0  0  0  0  0  0
  139.9600   71.9470  222.3460 C   0  0  0  0  0  0  0  0  0  0  0  0
  139.7080   73.3450  222.2900 N   0  0  0  0  0  0  0  0  0  0  0  0
  139.6410   74.0680  221.0320 C   0  0  0  0  0  0  0  0  0  0  0  0
  140.4470   75.2930  221.1900 C   0  0  0  0  0  0  0  0  0  0  0  0
  140.6680   75.8600  222.2910 O   0  0  0  0  0  0  0  0  0  0  0  0
  141.0180   75.8800  220.0260 N   0  0  0  0  0  0  0  0  0  0  0  0
  140.4140   75.7360  218.7060 C   0  0  0  0  0  0  0  0  0  0  0  0
  140.3820   77.0650  217.9810 C   0  0  0  0  0  0  0  0  0  0  0  0
  140.6720   78.2290  218.8800 C   0  0  0  0  0  0  0  0  0  0  0  0
  141.8710   78.0600  219.7590 C   0  0  0  0  0  0  0  0  0  0  0  0
  142.2440   76.6620  220.0850 C   0  0  2  0  0  0  0  0  0  0  0  0
  143.3200   76.0830  219.2050 C   0  0  0  0  0  0  0  0  0  0  0  0
  143.8860   74.8160  219.6590 C   0  0  0  0  0  0  0  0  0  0  0  0
  143.2590   73.6390  219.2290 C   0  0  0  0  0  0  0  0  0  0  0  0
  143.7640   72.4200  219.6360 C   0  0  0  0  0  0  0  0  0  0  0  0
  144.8690   72.2940  220.4520 C   0  0  0  0  0  0  0  0  0  0  0  0
  145.4940   73.4650  220.8790 C   0  0  0  0  0  0  0  0  0  0  0  0
  144.9900   74.6850  220.4750 C   0  0  0  0  0  0  0  0  0  0  0  0
  140.0240   71.2300  223.6290 C   0  0  0  0  0  0  0  0  0  0  0  0
  139.5720   69.9460  223.6890 C   0  0  0  0  0  0  0  0  0  0  0  0
  139.5770   69.1670  224.8320 C   0  0  0  0  0  0  0  0  0  0  0  0
  140.0910   69.7780  225.9770 C   0  0  0  0  0  0  0  0  0  0  0  0
  140.1270   69.0580  227.1530 C   0  0  0  0  0  0  0  0  0  0  0  0
  140.6350   69.6430  228.3150 C   0  0  0  0  0  0  0  0  0  0  0  0
  141.0890   70.9560  228.2230 C   0  0  0  0  0  0  0  0  0  0  0  0
  141.0480   71.6670  227.0380 C   0  0  0  0  0  0  0  0  0  0  0  0
  140.5480   71.0910  225.8920 C   0  0  0  0  0  0  0  0  0  0  0  0
  140.5100   71.7920  224.7410 N   0  0  0  0  0  0  0  0  0  0  0  0
  139.5720   73.8360  223.2140 H   0  0  0  0  0  0  0  0  0  0  0  0
  140.0504   73.4496  220.2196 H   0  0  0  0  0  0  0  0  0  0  0  0
  138.5996   74.3156  220.7787 H   0  0  0  0  0  0  0  0  0  0  0  0
  141.0028   75.0178  218.1165 H   0  0  0  0  0  0  0  0  0  0  0  0
  139.3817   75.3762  218.8281 H   0  0  0  0  0  0  0  0  0  0  0  0
  141.1347   77.0452  217.1791 H   0  0  0  0  0  0  0  0  0  0  0  0
  139.3645   77.1999  217.5854 H   0  0  0  0  0  0  0  0  0  0  0  0
  140.8320   79.1164  218.2499 H   0  0  0  0  0  0  0  0  0  0  0  0
  139.8064   78.3241  219.5522 H   0  0  0  0  0  0  0  0  0  0  0  0
  142.7283   78.5282  219.2532 H   0  0  0  0  0  0  0  0  0  0  0  0
  141.6050   78.5282  220.7182 H   0  0  0  0  0  0  0  0  0  0  0  0
  142.6945   76.6374  221.0882 H   0  0  0  0  0  0  0  0  0  0  0  0
  142.8912   75.9240  218.2046 H   0  0  0  0  0  0  0  0  0  0  0  0
  144.1474   76.8077  219.2213 H   0  0  0  0  0  0  0  0  0  0  0  0
  142.3755   73.6855  218.5754 H   0  0  0  0  0  0  0  0  0  0  0  0
  143.2604   71.5043  219.2926 H   0  0  0  0  0  0  0  0  0  0  0  0
  145.2437   71.3052  220.7550 H   0  0  0  0  0  0  0  0  0  0  0  0
  146.3789   73.4172  221.5306 H   0  0  0  0  0  0  0  0  0  0  0  0
  145.4946   75.5990  220.8215 H   0  0  0  0  0  0  0  0  0  0  0  0
  139.1761   69.4984  222.7655 H   0  0  0  0  0  0  0  0  0  0  0  0
  139.2005   68.1335  224.8383 H   0  0  0  0  0  0  0  0  0  0  0  0
  139.7555   68.0229  227.1756 H   0  0  0  0  0  0  0  0  0  0  0  0
  140.6748   69.0889  229.2644 H   0  0  0  0  0  0  0  0  0  0  0  0
  141.4934   71.4435  229.1223 H   0  0  0  0  0  0  0  0  0  0  0  0
  141.4183   72.7024  227.0106 H   0  0  0  0  0  0  0  0  0  0  0  0
  1  2  2  0
  2  3  1  0
  3  4  1  0
  4  5  1  0
  5  6  2  0
  5  7  1  0
  7  8  1  0
  8  9  1  0
  9 10  1  0
 10 11  1  0
 11 12  1  0
 12 13  1  0
 13 14  1  0
 14 15  2  0
 15 16  1  0
 16 17  2  0
 17 18  1  0
 18 19  2  0
  2 20  1  0
 20 21  2  0
 21 22  1  0
 22 23  2  0
 23 24  1  0
 24 25  2  0
 25 26  1  0
 26 27  2  0
 27 28  1  0
 28 29  2  0
 12  7  1  0
 19 14  1  0
 29 20  1  0
 28 23  1  0
  3 30  1  0
  4 31  1  0
  4 32  1  0
  8 33  1  0
  8 34  1  0
  9 35  1  0
  9 36  1  0
 10 37  1  0
 10 38  1  0
 11 39  1  0
 11 40  1  0
 12 41  1  1
 13 42  1  0
 13 43  1  0
 15 44  1  0
 16 45  1  0
 17 46  1  0
 18 47  1  0
 19 48  1  0
 21 49  1  0
 22 50  1  0
 24 51  1  0
 25 52  1  0
 26 53  1  0
 27 54  1  0
M  END
>  <smiles>  (5) 
O=C(NCC(=O)N1CCCCC1Cc1ccccc1)c1ccc2ccccc2n1

>  <score_type>  (5) 
oracle

>  <origin>  (5) 
autodockgpu

>  <m_score__min__energy>  (5) 
-9.3399999999999999

>  <m_primary>  (5) 
energy

>  <rmsd>  (5) 
1.5383878940266615

>  <m_score__min__rmsd>  (5) 
1.5383878940266615

>  <meeko>  (5) 
{"free_energy": -8.36, "intermolecular_energy": -10.15, "internal_energy": -2.12, "cluster_size": 5, "cluster_id": 3, "rank_in_cluster": 4}

>  <energy>  (5) 
-9.27

>  <cluster_rmsd>  (5) 
0.75

>  <cluster>  (5) 
1

$$$$

     RDKit          3D

 54 57  0  0  0  0  0  0  0  0999 V2000
  140.7420   71.4710  221.3080 O   0  0  0  0  0  0  0  0  0  0  0  0
  140.3050   72.0660  222.3510 C   0  0  0  0  0  0  0  0  0  0  0  0
  139.9460   73.4370  222.2270 N   0  0  0  0  0  0  0  0  0  0  0  0
  140.0610   74.1540  220.9700 C   0  0  0  0  0  0  0  0  0  0  0  0
  140.3460   75.5640  221.2980 C   0  0  0  0  0  0  0  0  0  0  0  0
  140.0490   76.1120  222.3910 O   0  0  0  0  0  0  0  0  0  0  0  0
  141.0010   76.3650  220.3210 N   0  0  0  0  0  0  0  0  0  0  0  0
  142.0660   75.8420  219.4730 C   0  0  0  0  0  0  0  0  0  0  0  0
  141.8610   76.2570  218.0320 C   0  0  0  0  0  0  0  0  0  0  0  0
  140.4920   76.8140  217.7730 C   0  0  0  0  0  0  0  0  0  0  0  0
  140.0360   77.8430  218.7590 C   0  0  0  0  0  0  0  0  0  0  0  0
  140.6440   77.7610  220.1100 C   0  0  2  0  0  0  0  0  0  0  0  0
  141.8200   78.6770  220.3210 C   0  0  0  0  0  0  0  0  0  0  0  0
  141.7840   79.4700  221.5460 C   0  0  0  0  0  0  0  0  0  0  0  0
  141.4940   80.8350  221.4230 C   0  0  0  0  0  0  0  0  0  0  0  0
  141.4500   81.6180  222.5600 C   0  0  0  0  0  0  0  0  0  0  0  0
  141.6780   81.1260  223.8270 C   0  0  0  0  0  0  0  0  0  0  0  0
  141.9660   79.7670  223.9500 C   0  0  0  0  0  0  0  0  0  0  0  0
  142.0120   78.9820  222.8160 C   0  0  0  0  0  0  0  0  0  0  0  0
  140.1810   71.3540  223.6320 C   0  0  0  0  0  0  0  0  0  0  0  0
  139.5490   70.1470  223.6550 C   0  0  0  0  0  0  0  0  0  0  0  0
  139.3680   69.3800  224.7930 C   0  0  0  0  0  0  0  0  0  0  0  0
  139.8850   69.9190  225.9730 C   0  0  0  0  0  0  0  0  0  0  0  0
  139.7400   69.2070  227.1450 C   0  0  0  0  0  0  0  0  0  0  0  0
  140.2450   69.7200  228.3420 C   0  0  0  0  0  0  0  0  0  0  0  0
  140.8860   70.9550  228.2860 C   0  0  0  0  0  0  0  0  0  0  0  0
  141.0240   71.6590  227.1040 C   0  0  0  0  0  0  0  0  0  0  0  0
  140.5260   71.1540  225.9240 C   0  0  0  0  0  0  0  0  0  0  0  0
  140.6660   71.8470  224.7770 N   0  0  0  0  0  0  0  0  0  0  0  0
  139.5870   73.9100  223.1000 H   0  0  0  0  0  0  0  0  0  0  0  0
  140.8811   73.7333  220.3696 H   0  0  0  0  0  0  0  0  0  0  0  0
  139.1336   74.0684  220.3847 H   0  0  0  0  0  0  0  0  0  0  0  0
  143.0320   76.2318  219.8262 H   0  0  0  0  0  0  0  0  0  0  0  0
  142.0521   74.7435  219.5281 H   0  0  0  0  0  0  0  0  0  0  0  0
  142.6061   77.0256  217.7789 H   0  0  0  0  0  0  0  0  0  0  0  0
  141.9736   75.3565  217.4103 H   0  0  0  0  0  0  0  0  0  0  0  0
  140.4933   77.2744  216.7740 H   0  0  0  0  0  0  0  0  0  0  0  0
  139.7926   75.9696  217.8610 H   0  0  0  0  0  0  0  0  0  0  0  0
  140.2699   78.8344  218.3439 H   0  0  0  0  0  0  0  0  0  0  0  0
  138.9613   77.6595  218.9049 H   0  0  0  0  0  0  0  0  0  0  0  0
  139.9120   78.1112  220.8527 H   0  0  0  0  0  0  0  0  0  0  0  0
  142.7308   78.0605  220.3424 H   0  0  0  0  0  0  0  0  0  0  0  0
  141.7944   79.3991  219.4916 H   0  0  0  0  0  0  0  0  0  0  0  0
  141.3039   81.2774  220.4340 H   0  0  0  0  0  0  0  0  0  0  0  0
  141.2215   82.6882  222.4486 H   0  0  0  0  0  0  0  0  0  0  0  0
  141.6344   81.7815  224.7093 H   0  0  0  0  0  0  0  0  0  0  0  0
  142.1544   79.3258  224.9399 H   0  0  0  0  0  0  0  0  0  0  0  0
  142.2422   77.9125  222.9306 H   0  0  0  0  0  0  0  0  0  0  0  0
  139.1561   69.7557  222.7050 H   0  0  0  0  0  0  0  0  0  0  0  0
  138.8508   68.4095  224.7694 H   0  0  0  0  0  0  0  0  0  0  0  0
  139.2263   68.2344  227.1372 H   0  0  0  0  0  0  0  0  0  0  0  0
  140.1407   69.1712  229.2896 H   0  0  0  0  0  0  0  0  0  0  0  0
  141.2958   71.3844  229.2121 H   0  0  0  0  0  0  0  0  0  0  0  0
  141.5368   72.6322  227.1065 H   0  0  0  0  0  0  0  0  0  0  0  0
  1  2  2  0
  2  3  1  0
  3  4  1  0
  4  5  1  0
  5  6  2  0
  5  7  1  0
  7  8  1  0
  8  9  1  0
  9 10  1  0
 10 11  1  0
 11 12  1  0
 12 13  1  0
 13 14  1  0
 14 15  2  0
 15 16  1  0
 16 17  2  0
 17 18  1  0
 18 19  2  0
  2 20  1  0
 20 21  2  0
 21 22  1  0
 22 23  2  0
 23 24  1  0
 24 25  2  0
 25 26  1  0
 26 27  2  0
 27 28  1  0
 28 29  2  0
 12  7  1  0
 19 14  1  0
 29 20  1  0
 28 23  1  0
  3 30  1  0
  4 31  1  0
  4 32  1  0
  8 33  1  0
  8 34  1  0
  9 35  1  0
  9 36  1  0
 10 37  1  0
 10 38  1  0
 11 39  1  0
 11 40  1  0
 12 41  1  1
 13 42  1  0
 13 43  1  0
 15 44  1  0
 16 45  1  0
 17 46  1  0
 18 47  1  0
 19 48  1  0
 21 49  1  0
 22 50  1  0
 24 51  1  0
 25 52  1  0
 26 53  1  0
 27 54  1  0
M  END
>  <smiles>  (6) 
O=C(NCC(=O)N1CCCCC1Cc1ccccc1)c1ccc2ccccc2n1

>  <score_type>  (6) 
oracle

>  <origin>  (6) 
autodockgpu

>  <m_score__min__energy>  (6) 
-9.3399999999999999

>  <m_primary>  (6) 
energy

>  <rmsd>  (6) 
1.9638630108759294

>  <m_score__min__rmsd>  (6) 
1.9638630108759294

>  <meeko>  (6) 
{"free_energy": -8.84, "intermolecular_energy": -10.63, "internal_energy": -1.83, "cluster_size": 35, "cluster_id": 1, "rank_in_cluster": 25}

>  <energy>  (6) 
-9.24

>  <cluster_rmsd>  (6) 
0.77

>  <cluster>  (6) 
1

$$$$

     RDKit          3D

 54 57  0  0  0  0  0  0  0  0999 V2000
  141.2560   71.7270  221.4740 O   0  0  0  0  0  0  0  0  0  0  0  0
  140.5930   72.2440  222.4370 C   0  0  0  0  0  0  0  0  0  0  0  0
  140.1420   73.5840  222.2830 N   0  0  0  0  0  0  0  0  0  0  0  0
  140.4110   74.3560  221.0830 C   0  0  0  0  0  0  0  0  0  0  0  0
  140.2850   75.7800  221.4450 C   0  0  0  0  0  0  0  0  0  0  0  0
  139.8160   76.1970  222.5360 O   0  0  0  0  0  0  0  0  0  0  0  0
  140.7190   76.7570  220.5050 N   0  0  0  0  0  0  0  0  0  0  0  0
  142.1100   76.8640  220.0810 C   0  0  0  0  0  0  0  0  0  0  0  0
  142.2050   77.0200  218.5780 C   0  0  0  0  0  0  0  0  0  0  0  0
  140.9160   76.7150  217.8760 C   0  0  0  0  0  0  0  0  0  0  0  0
  139.7090   77.3730  218.4670 C   0  0  0  0  0  0  0  0  0  0  0  0
  139.7950   77.7110  219.9080 C   0  0  2  0  0  0  0  0  0  0  0  0
  140.1980   79.1330  220.1910 C   0  0  0  0  0  0  0  0  0  0  0  0
  140.9130   79.3430  221.4470 C   0  0  0  0  0  0  0  0  0  0  0  0
  140.2240   79.0710  222.6350 C   0  0  0  0  0  0  0  0  0  0  0  0
  140.8670   79.2570  223.8430 C   0  0  0  0  0  0  0  0  0  0  0  0
  142.1680   79.7010  223.9480 C   0  0  0  0  0  0  0  0  0  0  0  0
  142.8560   79.9710  222.7640 C   0  0  0  0  0  0  0  0  0  0  0  0
  142.2150   79.7870  221.5560 C   0  0  0  0  0  0  0  0  0  0  0  0
  140.3110   71.4750  223.6590 C   0  0  0  0  0  0  0  0  0  0  0  0
  139.6220   70.3050  223.5550 C   0  0  0  0  0  0  0  0  0  0  0  0
  139.2940   69.4920  224.6260 C   0  0  0  0  0  0  0  0  0  0  0  0
  139.7190   69.9420  225.8780 C   0  0  0  0  0  0  0  0  0  0  0  0
  139.4260   69.1800  226.9900 C   0  0  0  0  0  0  0  0  0  0  0  0
  139.8380   69.6040  228.2550 C   0  0  0  0  0  0  0  0  0  0  0  0
  140.5400   70.8040  228.3290 C   0  0  0  0  0  0  0  0  0  0  0  0
  140.8270   71.5580  227.2070 C   0  0  0  0  0  0  0  0  0  0  0  0
  140.4220   71.1420  225.9590 C   0  0  0  0  0  0  0  0  0  0  0  0
  140.7060   71.8830  224.8700 N   0  0  0  0  0  0  0  0  0  0  0  0
  139.5970   73.9920  223.0900 H   0  0  0  0  0  0  0  0  0  0  0  0
  141.4285   74.1476  220.7206 H   0  0  0  0  0  0  0  0  0  0  0  0
  139.7050   74.0922  220.2818 H   0  0  0  0  0  0  0  0  0  0  0  0
  142.5675   77.7401  220.5639 H   0  0  0  0  0  0  0  0  0  0  0  0
  142.6388   75.9449  220.3736 H   0  0  0  0  0  0  0  0  0  0  0  0
  142.4914   78.0574  218.3504 H   0  0  0  0  0  0  0  0  0  0  0  0
  142.9545   76.2995  218.2186 H   0  0  0  0  0  0  0  0  0  0  0  0
  141.0089   77.0456  216.8310 H   0  0  0  0  0  0  0  0  0  0  0  0
  140.7579   75.6310  217.9757 H   0  0  0  0  0  0  0  0  0  0  0  0
  139.5283   78.3056  217.9124 H   0  0  0  0  0  0  0  0  0  0  0  0
  138.8971   76.6356  218.3825 H   0  0  0  0  0  0  0  0  0  0  0  0
  138.7914   77.6375  220.3524 H   0  0  0  0  0  0  0  0  0  0  0  0
  140.8473   79.4716  219.3701 H   0  0  0  0  0  0  0  0  0  0  0  0
  139.2608   79.7024  220.2767 H   0  0  0  0  0  0  0  0  0  0  0  0
  139.1840   78.7138  222.6066 H   0  0  0  0  0  0  0  0  0  0  0  0
  140.3131   79.0399  224.7682 H   0  0  0  0  0  0  0  0  0  0  0  0
  142.6463   79.8375  224.9291 H   0  0  0  0  0  0  0  0  0  0  0  0
  143.8967   80.3262  222.7935 H   0  0  0  0  0  0  0  0  0  0  0  0
  142.7706   80.0056  220.6321 H   0  0  0  0  0  0  0  0  0  0  0  0
  139.3046   69.9843  222.5518 H   0  0  0  0  0  0  0  0  0  0  0  0
  138.7352   68.5530  224.4994 H   0  0  0  0  0  0  0  0  0  0  0  0
  138.8679   68.2385  226.8802 H   0  0  0  0  0  0  0  0  0  0  0  0
  139.6169   69.0138  229.1565 H   0  0  0  0  0  0  0  0  0  0  0  0
  140.8771   71.1636  229.3124 H   0  0  0  0  0  0  0  0  0  0  0  0
  141.3848   72.5002  227.3123 H   0  0  0  0  0  0  0  0  0  0  0  0
  1  2  2  0
  2  3  1  0
  3  4  1  0
  4  5  1  0
  5  6  2  0
  5  7  1  0
  7  8  1  0
  8  9  1  0
  9 10  1  0
 10 11  1  0
 11 12  1  0
 12 13  1  0
 13 14  1  0
 14 15  2  0
 15 16  1  0
 16 17  2  0
 17 18  1  0
 18 19  2  0
  2 20  1  0
 20 21  2  0
 21 22  1  0
 22 23  2  0
 23 24  1  0
 24 25  2  0
 25 26  1  0
 26 27  2  0
 27 28  1  0
 28 29  2  0
 12  7  1  0
 19 14  1  0
 29 20  1  0
 28 23  1  0
  3 30  1  0
  4 31  1  0
  4 32  1  0
  8 33  1  0
  8 34  1  0
  9 35  1  0
  9 36  1  0
 10 37  1  0
 10 38  1  0
 11 39  1  0
 11 40  1  0
 12 41  1  1
 13 42  1  0
 13 43  1  0
 15 44  1  0
 16 45  1  0
 17 46  1  0
 18 47  1  0
 19 48  1  0
 21 49  1  0
 22 50  1  0
 24 51  1  0
 25 52  1  0
 26 53  1  0
 27 54  1  0
M  END
>  <smiles>  (7) 
O=C(NCC(=O)N1CCCCC1Cc1ccccc1)c1ccc2ccccc2n1

>  <score_type>  (7) 
oracle

>  <origin>  (7) 
autodockgpu

>  <m_score__min__energy>  (7) 
-9.3399999999999999

>  <m_primary>  (7) 
energy

>  <rmsd>  (7) 
2.3022573835557707

>  <m_score__min__rmsd>  (7) 
2.3022573835557707

>  <meeko>  (7) 
{"free_energy": -8.52, "intermolecular_energy": -10.31, "internal_energy": -1.99, "cluster_size": 35, "cluster_id": 1, "rank_in_cluster": 33}

>  <energy>  (7) 
-9.1

>  <cluster_rmsd>  (7) 
0.54

>  <cluster>  (7) 
1

$$$$

     RDKit          3D

 54 57  0  0  0  0  0  0  0  0999 V2000
  138.7850   70.7200  221.5260 O   0  0  0  0  0  0  0  0  0  0  0  0
  139.1400   71.3690  222.5670 C   0  0  0  0  0  0  0  0  0  0  0  0
  139.1980   72.7870  222.4740 N   0  0  0  0  0  0  0  0  0  0  0  0
  138.8690   73.4940  221.2490 C   0  0  0  0  0  0  0  0  0  0  0  0
  138.8610   74.9340  221.5660 C   0  0  0  0  0  0  0  0  0  0  0  0
  137.8390   75.5790  221.9130 O   0  0  0  0  0  0  0  0  0  0  0  0
  140.0870   75.6520  221.4770 N   0  0  0  0  0  0  0  0  0  0  0  0
  141.3490   74.9980  221.1500 C   0  0  0  0  0  0  0  0  0  0  0  0
  142.1180   75.7960  220.1170 C   0  0  0  0  0  0  0  0  0  0  0  0
  141.2870   76.8600  219.4640 C   0  0  0  0  0  0  0  0  0  0  0  0
  140.5000   77.7120  220.4090 C   0  0  0  0  0  0  0  0  0  0  0  0
  140.1540   77.0880  221.7090 C   0  0  2  0  0  0  0  0  0  0  0  0
  141.0940   77.4300  222.8340 C   0  0  0  0  0  0  0  0  0  0  0  0
  141.3020   78.8560  223.0660 C   0  0  0  0  0  0  0  0  0  0  0  0
  142.6230   79.3200  223.0920 C   0  0  0  0  0  0  0  0  0  0  0  0
  142.8600   80.6640  223.3070 C   0  0  0  0  0  0  0  0  0  0  0  0
  141.8550   81.5880  223.5000 C   0  0  0  0  0  0  0  0  0  0  0  0
  140.5390   81.1270  223.4730 C   0  0  0  0  0  0  0  0  0  0  0  0
  140.2990   79.7840  223.2590 C   0  0  0  0  0  0  0  0  0  0  0  0
  139.4760   70.6690  223.8170 C   0  0  0  0  0  0  0  0  0  0  0  0
  139.2660   69.3250  223.8950 C   0  0  0  0  0  0  0  0  0  0  0  0
  139.5390   68.5540  225.0100 C   0  0  0  0  0  0  0  0  0  0  0  0
  140.0650   69.2410  226.1060 C   0  0  0  0  0  0  0  0  0  0  0  0
  140.3620   68.5330  227.2520 C   0  0  0  0  0  0  0  0  0  0  0  0
  140.8890   69.1930  228.3640 C   0  0  0  0  0  0  0  0  0  0  0  0
  141.0920   70.5660  228.2550 C   0  0  0  0  0  0  0  0  0  0  0  0
  140.7900   71.2640  227.1000 C   0  0  0  0  0  0  0  0  0  0  0  0
  140.2710   70.6150  226.0030 C   0  0  0  0  0  0  0  0  0  0  0  0
  139.9800   71.3030  224.8810 N   0  0  0  0  0  0  0  0  0  0  0  0
  139.4930   73.3050  223.3450 H   0  0  0  0  0  0  0  0  0  0  0  0
  139.6236   73.2821  220.4772 H   0  0  0  0  0  0  0  0  0  0  0  0
  137.8899   73.1733  220.8637 H   0  0  0  0  0  0  0  0  0  0  0  0
  141.9565   74.9100  222.0628 H   0  0  0  0  0  0  0  0  0  0  0  0
  141.1325   74.0022  220.7359 H   0  0  0  0  0  0  0  0  0  0  0  0
  142.9762   76.2749  220.6111 H   0  0  0  0  0  0  0  0  0  0  0  0
  142.4365   75.0967  219.3299 H   0  0  0  0  0  0  0  0  0  0  0  0
  141.9595   77.5158  218.8916 H   0  0  0  0  0  0  0  0  0  0  0  0
  140.5520   76.3357  218.8356 H   0  0  0  0  0  0  0  0  0  0  0  0
  141.0887   78.6179  220.6161 H   0  0  0  0  0  0  0  0  0  0  0  0
  139.5405   77.9053  219.9069 H   0  0  0  0  0  0  0  0  0  0  0  0
  139.1892   77.4899  222.0521 H   0  0  0  0  0  0  0  0  0  0  0  0
  140.6903   76.9914  223.7585 H   0  0  0  0  0  0  0  0  0  0  0  0
  142.0743   77.0247  222.5430 H   0  0  0  0  0  0  0  0  0  0  0  0
  143.4612   78.6234  222.9431 H   0  0  0  0  0  0  0  0  0  0  0  0
  143.9025   81.0144  223.3251 H   0  0  0  0  0  0  0  0  0  0  0  0
  142.0830   82.6507  223.6692 H   0  0  0  0  0  0  0  0  0  0  0  0
  139.7018   81.8251  223.6205 H   0  0  0  0  0  0  0  0  0  0  0  0
  139.2555   79.4363  223.2415 H   0  0  0  0  0  0  0  0  0  0  0  0
  138.8511   68.8189  223.0109 H   0  0  0  0  0  0  0  0  0  0  0  0
  139.3538   67.4699  225.0321 H   0  0  0  0  0  0  0  0  0  0  0  0
  140.1836   67.4482  227.2899 H   0  0  0  0  0  0  0  0  0  0  0  0
  141.1339   68.6500  229.2888 H   0  0  0  0  0  0  0  0  0  0  0  0
  141.5058   71.1130  229.1150 H   0  0  0  0  0  0  0  0  0  0  0  0
  140.9664   72.3489  227.0577 H   0  0  0  0  0  0  0  0  0  0  0  0
  1  2  2  0
  2  3  1  0
  3  4  1  0
  4  5  1  0
  5  6  2  0
  5  7  1  0
  7  8  1  0
  8  9  1  0
  9 10  1  0
 10 11  1  0
 11 12  1  0
 12 13  1  0
 13 14  1  0
 14 15  2  0
 15 16  1  0
 16 17  2  0
 17 18  1  0
 18 19  2  0
  2 20  1  0
 20 21  2  0
 21 22  1  0
 22 23  2  0
 23 24  1  0
 24 25  2  0
 25 26  1  0
 26 27  2  0
 27 28  1  0
 28 29  2  0
 12  7  1  0
 19 14  1  0
 29 20  1  0
 28 23  1  0
  3 30  1  0
  4 31  1  0
  4 32  1  0
  8 33  1  0
  8 34  1  0
  9 35  1  0
  9 36  1  0
 10 37  1  0
 10 38  1  0
 11 39  1  0
 11 40  1  0
 12 41  1  1
 13 42  1  0
 13 43  1  0
 15 44  1  0
 16 45  1  0
 17 46  1  0
 18 47  1  0
 19 48  1  0
 21 49  1  0
 22 50  1  0
 24 51  1  0
 25 52  1  0
 26 53  1  0
 27 54  1  0
M  END
>  <smiles>  (8) 
O=C(NCC(=O)N1CCCCC1Cc1ccccc1)c1ccc2ccccc2n1

>  <score_type>  (8) 
oracle

>  <origin>  (8) 
autodockgpu

>  <m_score__min__energy>  (8) 
-9.3399999999999999

>  <m_primary>  (8) 
energy

>  <rmsd>  (8) 
2.3215329749293923

>  <m_score__min__rmsd>  (8) 
2.3215329749293923

>  <meeko>  (8) 
{"free_energy": -9.05, "intermolecular_energy": -10.84, "internal_energy": -1.62, "cluster_size": 35, "cluster_id": 1, "rank_in_cluster": 11}

>  <energy>  (8) 
-9.1

>  <cluster_rmsd>  (8) 
0.84

>  <cluster>  (8) 
1

$$$$

     RDKit          3D

 54 57  0  0  0  0  0  0  0  0999 V2000
  140.1670   71.2680  221.2610 O   0  0  0  0  0  0  0  0  0  0  0  0
  139.9810   71.9010  222.3550 C   0  0  0  0  0  0  0  0  0  0  0  0
  139.7210   73.2960  222.2750 N   0  0  0  0  0  0  0  0  0  0  0  0
  139.6620   73.9990  221.0060 C   0  0  0  0  0  0  0  0  0  0  0  0
  140.2280   75.3430  221.2260 C   0  0  0  0  0  0  0  0  0  0  0  0
  140.1340   75.9850  222.3040 O   0  0  0  0  0  0  0  0  0  0  0  0
  140.9300   75.9640  220.1550 N   0  0  0  0  0  0  0  0  0  0  0  0
  140.4780   75.8690  218.7710 C   0  0  0  0  0  0  0  0  0  0  0  0
  140.5350   77.2210  218.0920 C   0  0  0  0  0  0  0  0  0  0  0  0
  140.7260   78.3530  219.0570 C   0  0  0  0  0  0  0  0  0  0  0  0
  141.8170   78.1450  220.0600 C   0  0  0  0  0  0  0  0  0  0  0  0
  142.1450   76.7340  220.3780 C   0  0  2  0  0  0  0  0  0  0  0  0
  143.3110   76.1760  219.6070 C   0  0  0  0  0  0  0  0  0  0  0  0
  143.7380   74.8360  219.9990 C   0  0  0  0  0  0  0  0  0  0  0  0
  145.0470   74.6900  220.4760 C   0  0  0  0  0  0  0  0  0  0  0  0
  145.4880   73.4380  220.8580 C   0  0  0  0  0  0  0  0  0  0  0  0
  144.7010   72.3070  220.7960 C   0  0  0  0  0  0  0  0  0  0  0  0
  143.3970   72.4530  220.3230 C   0  0  0  0  0  0  0  0  0  0  0  0
  142.9540   73.7020  219.9400 C   0  0  0  0  0  0  0  0  0  0  0  0
  140.0370   71.2040  223.6500 C   0  0  0  0  0  0  0  0  0  0  0  0
  139.5770   69.9230  223.7280 C   0  0  0  0  0  0  0  0  0  0  0  0
  139.5740   69.1620  224.8830 C   0  0  0  0  0  0  0  0  0  0  0  0
  140.0870   69.7890  226.0200 C   0  0  0  0  0  0  0  0  0  0  0  0
  140.1140   69.0870  227.2080 C   0  0  0  0  0  0  0  0  0  0  0  0
  140.6210   69.6870  228.3630 C   0  0  0  0  0  0  0  0  0  0  0  0
  141.0840   70.9960  228.2510 C   0  0  0  0  0  0  0  0  0  0  0  0
  141.0500   71.6880  227.0550 C   0  0  0  0  0  0  0  0  0  0  0  0
  140.5510   71.0980  225.9160 C   0  0  0  0  0  0  0  0  0  0  0  0
  140.5220   71.7800  224.7540 N   0  0  0  0  0  0  0  0  0  0  0  0
  139.5700   73.8000  223.1910 H   0  0  0  0  0  0  0  0  0  0  0  0
  140.2516   73.4609  220.2492 H   0  0  0  0  0  0  0  0  0  0  0  0
  138.6254   74.0660  220.6442 H   0  0  0  0  0  0  0  0  0  0  0  0
  141.1257   75.1652  218.2277 H   0  0  0  0  0  0  0  0  0  0  0  0
  139.4365   75.5150  218.7641 H   0  0  0  0  0  0  0  0  0  0  0  0
  141.3742   77.2211  217.3808 H   0  0  0  0  0  0  0  0  0  0  0  0
  139.5699   77.3773  217.5878 H   0  0  0  0  0  0  0  0  0  0  0  0
  140.9604   79.2593  218.4794 H   0  0  0  0  0  0  0  0  0  0  0  0
  139.7901   78.4333  219.6295 H   0  0  0  0  0  0  0  0  0  0  0  0
  142.7280   78.6232  219.6709 H   0  0  0  0  0  0  0  0  0  0  0  0
  141.4457   78.5828  220.9984 H   0  0  0  0  0  0  0  0  0  0  0  0
  142.4793   76.6726  221.4242 H   0  0  0  0  0  0  0  0  0  0  0  0
  143.0311   76.1454  218.5436 H   0  0  0  0  0  0  0  0  0  0  0  0
  144.1615   76.8398  219.8217 H   0  0  0  0  0  0  0  0  0  0  0  0
  145.7150   75.5611  220.5455 H   0  0  0  0  0  0  0  0  0  0  0  0
  146.5183   73.3380  221.2302 H   0  0  0  0  0  0  0  0  0  0  0  0
  145.0876   71.3257  221.1082 H   0  0  0  0  0  0  0  0  0  0  0  0
  142.7291   71.5816  220.2561 H   0  0  0  0  0  0  0  0  0  0  0  0
  141.9231   73.7989  219.5686 H   0  0  0  0  0  0  0  0  0  0  0  0
  139.1814   69.4635  222.8102 H   0  0  0  0  0  0  0  0  0  0  0  0
  139.1925   68.1305  224.9043 H   0  0  0  0  0  0  0  0  0  0  0  0
  139.7361   68.0546  227.2453 H   0  0  0  0  0  0  0  0  0  0  0  0
  140.6533   69.1481  229.3214 H   0  0  0  0  0  0  0  0  0  0  0  0
  141.4898   71.4951  229.1433 H   0  0  0  0  0  0  0  0  0  0  0  0
  141.4257   72.7210  227.0130 H   0  0  0  0  0  0  0  0  0  0  0  0
  1  2  2  0
  2  3  1  0
  3  4  1  0
  4  5  1  0
  5  6  2  0
  5  7  1  0
  7  8  1  0
  8  9  1  0
  9 10  1  0
 10 11  1  0
 11 12  1  0
 12 13  1  0
 13 14  1  0
 14 15  2  0
 15 16  1  0
 16 17  2  0
 17 18  1  0
 18 19  2  0
  2 20  1  0
 20 21  2  0
 21 22  1  0
 22 23  2  0
 23 24  1  0
 24 25  2  0
 25 26  1  0
 26 27  2  0
 27 28  1  0
 28 29  2  0
 12  7  1  0
 19 14  1  0
 29 20  1  0
 28 23  1  0
  3 30  1  0
  4 31  1  0
  4 32  1  0
  8 33  1  0
  8 34  1  0
  9 35  1  0
  9 36  1  0
 10 37  1  0
 10 38  1  0
 11 39  1  0
 11 40  1  0
 12 41  1  1
 13 42  1  0
 13 43  1  0
 15 44  1  0
 16 45  1  0
 17 46  1  0
 18 47  1  0
 19 48  1  0
 21 49  1  0
 22 50  1  0
 24 51  1  0
 25 52  1  0
 26 53  1  0
 27 54  1  0
M  END
>  <smiles>  (9) 
O=C(NCC(=O)N1CCCCC1Cc1ccccc1)c1ccc2ccccc2n1

>  <score_type>  (9) 
oracle

>  <origin>  (9) 
autodockgpu

>  <m_score__min__energy>  (9) 
-9.3399999999999999

>  <m_primary>  (9) 
energy

>  <rmsd>  (9) 
1.607730546335511

>  <m_score__min__rmsd>  (9) 
1.607730546335511

>  <meeko>  (9) 
{"free_energy": -8.39, "intermolecular_energy": -10.18, "internal_energy": -2.22, "cluster_size": 5, "cluster_id": 3, "rank_in_cluster": 3}

>  <energy>  (9) 
-9.1

>  <cluster_rmsd>  (9) 
0.79

>  <cluster>  (9) 
1

$$$$

     RDKit          3D

 54 57  0  0  0  0  0  0  0  0999 V2000
  140.6820   71.6330  221.3360 O   0  0  0  0  0  0  0  0  0  0  0  0
  140.0460   72.0990  222.3410 C   0  0  0  0  0  0  0  0  0  0  0  0
  139.3250   73.3110  222.1630 N   0  0  0  0  0  0  0  0  0  0  0  0
  139.2970   74.0130  220.8930 C   0  0  0  0  0  0  0  0  0  0  0  0
  138.6700   75.3260  221.1340 C   0  0  0  0  0  0  0  0  0  0  0  0
  137.4320   75.5440  221.0690 O   0  0  0  0  0  0  0  0  0  0  0  0
  139.5100   76.4260  221.4650 N   0  0  0  0  0  0  0  0  0  0  0  0
  140.9580   76.2920  221.5750 C   0  0  0  0  0  0  0  0  0  0  0  0
  141.6610   77.4290  220.8640 C   0  0  0  0  0  0  0  0  0  0  0  0
  140.7450   78.2170  219.9740 C   0  0  0  0  0  0  0  0  0  0  0  0
  139.4500   78.6200  220.6060 C   0  0  0  0  0  0  0  0  0  0  0  0
  138.9720   77.7560  221.7120 C   0  0  2  0  0  0  0  0  0  0  0  0
  139.3230   78.2540  223.0880 C   0  0  0  0  0  0  0  0  0  0  0  0
  140.3140   79.3260  223.1330 C   0  0  0  0  0  0  0  0  0  0  0  0
  141.6010   78.9970  223.5760 C   0  0  0  0  0  0  0  0  0  0  0  0
  142.5660   79.9830  223.6310 C   0  0  0  0  0  0  0  0  0  0  0  0
  142.3310   81.2930  223.2680 C   0  0  0  0  0  0  0  0  0  0  0  0
  141.0500   81.6210  222.8260 C   0  0  0  0  0  0  0  0  0  0  0  0
  140.0830   80.6370  222.7710 C   0  0  0  0  0  0  0  0  0  0  0  0
  140.0630   71.4000  223.6360 C   0  0  0  0  0  0  0  0  0  0  0  0
  139.5520   70.1390  223.7090 C   0  0  0  0  0  0  0  0  0  0  0  0
  139.5100   69.3780  224.8640 C   0  0  0  0  0  0  0  0  0  0  0  0
  140.0380   69.9830  226.0060 C   0  0  0  0  0  0  0  0  0  0  0  0
  140.0280   69.2810  227.1930 C   0  0  0  0  0  0  0  0  0  0  0  0
  140.5480   69.8600  228.3530 C   0  0  0  0  0  0  0  0  0  0  0  0
  141.0630   71.1490  228.2460 C   0  0  0  0  0  0  0  0  0  0  0  0
  141.0670   71.8430  227.0500 C   0  0  0  0  0  0  0  0  0  0  0  0
  140.5540   71.2730  225.9060 C   0  0  0  0  0  0  0  0  0  0  0  0
  140.5620   71.9560  224.7450 N   0  0  0  0  0  0  0  0  0  0  0  0
  138.8070   73.6790  223.0070 H   0  0  0  0  0  0  0  0  0  0  0  0
  140.3209   74.1481  220.5145 H   0  0  0  0  0  0  0  0  0  0  0  0
  138.7302   73.4414  220.1434 H   0  0  0  0  0  0  0  0  0  0  0  0
  141.2410   76.3020  222.6379 H   0  0  0  0  0  0  0  0  0  0  0  0
  141.2600   75.3439  221.1061 H   0  0  0  0  0  0  0  0  0  0  0  0
  142.0848   78.1068  221.6196 H   0  0  0  0  0  0  0  0  0  0  0  0
  142.4410   76.9874  220.2264 H   0  0  0  0  0  0  0  0  0  0  0  0
  141.2727   79.1305  219.6626 H   0  0  0  0  0  0  0  0  0  0  0  0
  140.4869   77.5569  219.1328 H   0  0  0  0  0  0  0  0  0  0  0  0
  139.5714   79.6388  221.0027 H   0  0  0  0  0  0  0  0  0  0  0  0
  138.6926   78.5341  219.8129 H   0  0  0  0  0  0  0  0  0  0  0  0
  137.8720   77.7559  221.7135 H   0  0  0  0  0  0  0  0  0  0  0  0
  138.4011   78.6242  223.5602 H   0  0  0  0  0  0  0  0  0  0  0  0
  139.7766   77.4001  223.6125 H   0  0  0  0  0  0  0  0  0  0  0  0
  141.8402   77.9662  223.8764 H   0  0  0  0  0  0  0  0  0  0  0  0
  143.5723   79.7104  223.9817 H   0  0  0  0  0  0  0  0  0  0  0  0
  143.1256   82.0515  223.3252 H   0  0  0  0  0  0  0  0  0  0  0  0
  140.8125   82.6519  222.5246 H   0  0  0  0  0  0  0  0  0  0  0  0
  139.0773   80.9124  222.4207 H   0  0  0  0  0  0  0  0  0  0  0  0
  139.1455   69.6961  222.7878 H   0  0  0  0  0  0  0  0  0  0  0  0
  139.0880   68.3623  224.8812 H   0  0  0  0  0  0  0  0  0  0  0  0
  139.6101   68.2640  227.2263 H   0  0  0  0  0  0  0  0  0  0  0  0
  140.5505   69.3199  229.3113 H   0  0  0  0  0  0  0  0  0  0  0  0
  141.4804   71.6312  229.1423 H   0  0  0  0  0  0  0  0  0  0  0  0
  141.4840   72.8602  227.0119 H   0  0  0  0  0  0  0  0  0  0  0  0
  1  2  2  0
  2  3  1  0
  3  4  1  0
  4  5  1  0
  5  6  2  0
  5  7  1  0
  7  8  1  0
  8  9  1  0
  9 10  1  0
 10 11  1  0
 11 12  1  0
 12 13  1  0
 13 14  1  0
 14 15  2  0
 15 16  1  0
 16 17  2  0
 17 18  1  0
 18 19  2  0
  2 20  1  0
 20 21  2  0
 21 22  1  0
 22 23  2  0
 23 24  1  0
 24 25  2  0
 25 26  1  0
 26 27  2  0
 27 28  1  0
 28 29  2  0
 12  7  1  0
 19 14  1  0
 29 20  1  0
 28 23  1  0
  3 30  1  0
  4 31  1  0
  4 32  1  0
  8 33  1  0
  8 34  1  0
  9 35  1  0
  9 36  1  0
 10 37  1  0
 10 38  1  0
 11 39  1  0
 11 40  1  0
 12 41  1  1
 13 42  1  0
 13 43  1  0
 15 44  1  0
 16 45  1  0
 17 46  1  0
 18 47  1  0
 19 48  1  0
 21 49  1  0
 22 50  1  0
 24 51  1  0
 25 52  1  0
 26 53  1  0
 27 54  1  0
M  END
>  <smiles>  (10) 
O=C(NCC(=O)N1CCCCC1Cc1ccccc1)c1ccc2ccccc2n1

>  <score_type>  (10) 
oracle

>  <origin>  (10) 
autodockgpu

>  <m_score__min__energy>  (10) 
-9.3399999999999999

>  <m_primary>  (10) 
energy

>  <rmsd>  (10) 
2.80088994914271

>  <m_score__min__rmsd>  (10) 
2.80088994914271

>  <meeko>  (10) 
{"free_energy": -8.87, "intermolecular_energy": -10.66, "internal_energy": -1.43, "cluster_size": 35, "cluster_id": 1, "rank_in_cluster": 23}

>  <energy>  (10) 
-9.08

>  <cluster_rmsd>  (10) 
1.09

>  <cluster>  (10) 
1

$$$$

     RDKit          3D

 54 57  0  0  0  0  0  0  0  0999 V2000
  140.6090   71.9200  221.6100 O   0  0  0  0  0  0  0  0  0  0  0  0
  139.7440   72.0320  222.5430 C   0  0  0  0  0  0  0  0  0  0  0  0
  138.6740   72.9470  222.3460 N   0  0  0  0  0  0  0  0  0  0  0  0
  138.5460   73.7370  221.1340 C   0  0  0  0  0  0  0  0  0  0  0  0
  138.6760   75.1540  221.5220 C   0  0  0  0  0  0  0  0  0  0  0  0
  137.7200   75.8740  221.9110 O   0  0  0  0  0  0  0  0  0  0  0  0
  139.9630   75.7570  221.4570 N   0  0  0  0  0  0  0  0  0  0  0  0
  141.1740   74.9810  221.2150 C   0  0  0  0  0  0  0  0  0  0  0  0
  142.0520   75.6590  220.1840 C   0  0  0  0  0  0  0  0  0  0  0  0
  141.3460   76.7590  219.4470 C   0  0  0  0  0  0  0  0  0  0  0  0
  140.6010   77.7200  220.3180 C   0  0  0  0  0  0  0  0  0  0  0  0
  140.1480   77.1910  221.6280 C   0  0  2  0  0  0  0  0  0  0  0  0
  141.0690   77.5030  222.7780 C   0  0  0  0  0  0  0  0  0  0  0  0
  141.3000   78.9230  223.0280 C   0  0  0  0  0  0  0  0  0  0  0  0
  142.6290   79.3620  223.0730 C   0  0  0  0  0  0  0  0  0  0  0  0
  142.8890   80.6990  223.3060 C   0  0  0  0  0  0  0  0  0  0  0  0
  141.8990   81.6390  223.4990 C   0  0  0  0  0  0  0  0  0  0  0  0
  140.5750   81.2020  223.4530 C   0  0  0  0  0  0  0  0  0  0  0  0
  140.3130   79.8670  223.2210 C   0  0  0  0  0  0  0  0  0  0  0  0
  139.8570   71.2390  223.7770 C   0  0  0  0  0  0  0  0  0  0  0  0
  139.4650   69.9340  223.7580 C   0  0  0  0  0  0  0  0  0  0  0  0
  139.5210   69.0840  224.8490 C   0  0  0  0  0  0  0  0  0  0  0  0
  140.0190   69.6450  226.0260 C   0  0  0  0  0  0  0  0  0  0  0  0
  140.1030   68.8540  227.1540 C   0  0  0  0  0  0  0  0  0  0  0  0
  140.5970   69.3870  228.3460 C   0  0  0  0  0  0  0  0  0  0  0  0
  140.9890   70.7230  228.3340 C   0  0  0  0  0  0  0  0  0  0  0  0
  140.9000   71.5050  227.1980 C   0  0  0  0  0  0  0  0  0  0  0  0
  140.4130   70.9810  226.0210 C   0  0  0  0  0  0  0  0  0  0  0  0
  140.3300   71.7510  224.9180 N   0  0  0  0  0  0  0  0  0  0  0  0
  137.9700   73.0250  223.1290 H   0  0  0  0  0  0  0  0  0  0  0  0
  139.3399   73.4667  220.4222 H   0  0  0  0  0  0  0  0  0  0  0  0
  137.5767   73.5524  220.6478 H   0  0  0  0  0  0  0  0  0  0  0  0
  141.7337   74.8835  222.1569 H   0  0  0  0  0  0  0  0  0  0  0  0
  140.8866   73.9895  220.8351 H   0  0  0  0  0  0  0  0  0  0  0  0
  142.9280   76.0850  220.6949 H   0  0  0  0  0  0  0  0  0  0  0  0
  142.3393   74.8977  219.4438 H   0  0  0  0  0  0  0  0  0  0  0  0
  142.0968   77.3255  218.8765 H   0  0  0  0  0  0  0  0  0  0  0  0
  140.5936   76.2715  218.8096 H   0  0  0  0  0  0  0  0  0  0  0  0
  141.2595   78.5797  220.5113 H   0  0  0  0  0  0  0  0  0  0  0  0
  139.6837   77.9722  219.7658 H   0  0  0  0  0  0  0  0  0  0  0  0
  139.2097   77.6914  221.9094 H   0  0  0  0  0  0  0  0  0  0  0  0
  140.6354   77.0642  223.6887 H   0  0  0  0  0  0  0  0  0  0  0  0
  142.0474   77.0801  222.5061 H   0  0  0  0  0  0  0  0  0  0  0  0
  143.4556   78.6515  222.9247 H   0  0  0  0  0  0  0  0  0  0  0  0
  143.9376   81.0297  223.3391 H   0  0  0  0  0  0  0  0  0  0  0  0
  142.1443   82.6955  223.6826 H   0  0  0  0  0  0  0  0  0  0  0  0
  139.7491   81.9135  223.6000 H   0  0  0  0  0  0  0  0  0  0  0  0
  139.2635   79.5391  223.1883 H   0  0  0  0  0  0  0  0  0  0  0  0
  139.0778   69.5286  222.8115 H   0  0  0  0  0  0  0  0  0  0  0  0
  139.1944   68.0351  224.7921 H   0  0  0  0  0  0  0  0  0  0  0  0
  139.7805   67.8031  227.1137 H   0  0  0  0  0  0  0  0  0  0  0  0
  140.6735   68.7763  229.2577 H   0  0  0  0  0  0  0  0  0  0  0  0
  141.3823   71.1705  229.2587 H   0  0  0  0  0  0  0  0  0  0  0  0
  141.2213   72.5564  227.2342 H   0  0  0  0  0  0  0  0  0  0  0  0
  1  2  2  0
  2  3  1  0
  3  4  1  0
  4  5  1  0
  5  6  2  0
  5  7  1  0
  7  8  1  0
  8  9  1  0
  9 10  1  0
 10 11  1  0
 11 12  1  0
 12 13  1  0
 13 14  1  0
 14 15  2  0
 15 16  1  0
 16 17  2  0
 17 18  1  0
 18 19  2  0
  2 20  1  0
 20 21  2  0
 21 22  1  0
 22 23  2  0
 23 24  1  0
 24 25  2  0
 25 26  1  0
 26 27  2  0
 27 28  1  0
 28 29  2  0
 12  7  1  0
 19 14  1  0
 29 20  1  0
 28 23  1  0
  3 30  1  0
  4 31  1  0
  4 32  1  0
  8 33  1  0
  8 34  1  0
  9 35  1  0
  9 36  1  0
 10 37  1  0
 10 38  1  0
 11 39  1  0
 11 40  1  0
 12 41  1  1
 13 42  1  0
 13 43  1  0
 15 44  1  0
 16 45  1  0
 17 46  1  0
 18 47  1  0
 19 48  1  0
 21 49  1  0
 22 50  1  0
 24 51  1  0
 25 52  1  0
 26 53  1  0
 27 54  1  0
M  END
>  <smiles>  (11) 
O=C(NCC(=O)N1CCCCC1Cc1ccccc1)c1ccc2ccccc2n1

>  <score_type>  (11) 
oracle

>  <origin>  (11) 
autodockgpu

>  <m_score__min__energy>  (11) 
-9.3399999999999999

>  <m_primary>  (11) 
energy

>  <rmsd>  (11) 
2.340580986751262

>  <m_score__min__rmsd>  (11) 
2.340580986751262

>  <meeko>  (11) 
{"free_energy": -9.29, "intermolecular_energy": -11.08, "internal_energy": -1.55, "cluster_size": 35, "cluster_id": 1, "rank_in_cluster": 3}

>  <energy>  (11) 
-9.05

>  <cluster_rmsd>  (11) 
0.67

>  <cluster>  (11) 
1

$$$$

     RDKit          3D

 54 57  0  0  0  0  0  0  0  0999 V2000
  140.8370   71.5870  221.3760 O   0  0  0  0  0  0  0  0  0  0  0  0
  140.3530   72.1530  222.4150 C   0  0  0  0  0  0  0  0  0  0  0  0
  139.9630   73.5160  222.3030 N   0  0  0  0  0  0  0  0  0  0  0  0
  140.0990   74.2590  221.0630 C   0  0  0  0  0  0  0  0  0  0  0  0
  140.6370   75.5880  221.4090 C   0  0  0  0  0  0  0  0  0  0  0  0
  140.5460   76.1160  222.5470 O   0  0  0  0  0  0  0  0  0  0  0  0
  141.3060   76.3300  220.3950 N   0  0  0  0  0  0  0  0  0  0  0  0
  142.5230   75.8470  219.7530 C   0  0  0  0  0  0  0  0  0  0  0  0
  142.4490   76.0280  218.2520 C   0  0  0  0  0  0  0  0  0  0  0  0
  141.0660   76.3510  217.7700 C   0  0  0  0  0  0  0  0  0  0  0  0
  140.3710   77.4330  218.5340 C   0  0  0  0  0  0  0  0  0  0  0  0
  140.8120   77.6210  219.9380 C   0  0  2  0  0  0  0  0  0  0  0  0
  141.8330   78.7100  220.1290 C   0  0  0  0  0  0  0  0  0  0  0  0
  141.8080   79.3720  221.4300 C   0  0  0  0  0  0  0  0  0  0  0  0
  141.7750   80.7720  221.4420 C   0  0  0  0  0  0  0  0  0  0  0  0
  141.7490   81.4340  222.6530 C   0  0  0  0  0  0  0  0  0  0  0  0
  141.7540   80.7860  223.8700 C   0  0  0  0  0  0  0  0  0  0  0  0
  141.7850   79.3910  223.8590 C   0  0  0  0  0  0  0  0  0  0  0  0
  141.8120   78.7270  222.6500 C   0  0  0  0  0  0  0  0  0  0  0  0
  140.2070   71.4150  223.6790 C   0  0  0  0  0  0  0  0  0  0  0  0
  139.5650   70.2120  223.6680 C   0  0  0  0  0  0  0  0  0  0  0  0
  139.3640   69.4240  224.7870 C   0  0  0  0  0  0  0  0  0  0  0  0
  139.8690   69.9330  225.9840 C   0  0  0  0  0  0  0  0  0  0  0  0
  139.7040   69.1970  227.1400 C   0  0  0  0  0  0  0  0  0  0  0  0
  140.1990   69.6800  228.3530 C   0  0  0  0  0  0  0  0  0  0  0  0
  140.8490   70.9110  228.3320 C   0  0  0  0  0  0  0  0  0  0  0  0
  141.0080   71.6390  227.1670 C   0  0  0  0  0  0  0  0  0  0  0  0
  140.5220   71.1630  225.9700 C   0  0  0  0  0  0  0  0  0  0  0  0
  140.6810   71.8790  224.8400 N   0  0  0  0  0  0  0  0  0  0  0  0
  139.5650   73.9640  223.1730 H   0  0  0  0  0  0  0  0  0  0  0  0
  140.7902   73.7373  220.3847 H   0  0  0  0  0  0  0  0  0  0  0  0
  139.1283   74.3507  220.5537 H   0  0  0  0  0  0  0  0  0  0  0  0
  143.3837   76.4108  220.1419 H   0  0  0  0  0  0  0  0  0  0  0  0
  142.6353   74.7751  219.9731 H   0  0  0  0  0  0  0  0  0  0  0  0
  143.1217   76.8493  217.9640 H   0  0  0  0  0  0  0  0  0  0  0  0
  142.7452   75.0748  217.7898 H   0  0  0  0  0  0  0  0  0  0  0  0
  141.1351   76.6654  216.7181 H   0  0  0  0  0  0  0  0  0  0  0  0
  140.4680   75.4388  217.9126 H   0  0  0  0  0  0  0  0  0  0  0  0
  140.5339   78.3807  217.9998 H   0  0  0  0  0  0  0  0  0  0  0  0
  139.3163   77.1260  218.5920 H   0  0  0  0  0  0  0  0  0  0  0  0
  139.9567   77.9651  220.5381 H   0  0  0  0  0  0  0  0  0  0  0  0
  142.8307   78.2672  219.9929 H   0  0  0  0  0  0  0  0  0  0  0  0
  141.5888   79.4868  219.3894 H   0  0  0  0  0  0  0  0  0  0  0  0
  141.7699   81.3370  220.4982 H   0  0  0  0  0  0  0  0  0  0  0  0
  141.7230   82.5337  222.6468 H   0  0  0  0  0  0  0  0  0  0  0  0
  141.7343   81.3483  224.8152 H   0  0  0  0  0  0  0  0  0  0  0  0
  141.7879   78.8272  224.8035 H   0  0  0  0  0  0  0  0  0  0  0  0
  141.8380   77.6273  222.6589 H   0  0  0  0  0  0  0  0  0  0  0  0
  139.1814   69.8436  222.7051 H   0  0  0  0  0  0  0  0  0  0  0  0
  138.8398   68.4583  224.7364 H   0  0  0  0  0  0  0  0  0  0  0  0
  139.1822   68.2293  227.1056 H   0  0  0  0  0  0  0  0  0  0  0  0
  140.0803   69.1112  229.2870 H   0  0  0  0  0  0  0  0  0  0  0  0
  141.2490   71.3177  229.2725 H   0  0  0  0  0  0  0  0  0  0  0  0
  141.5279   72.6079  227.1970 H   0  0  0  0  0  0  0  0  0  0  0  0
  1  2  2  0
  2  3  1  0
  3  4  1  0
  4  5  1  0
  5  6  2  0
  5  7  1  0
  7  8  1  0
  8  9  1  0
  9 10  1  0
 10 11  1  0
 11 12  1  0
 12 13  1  0
 13 14  1  0
 14 15  2  0
 15 16  1  0
 16 17  2  0
 17 18  1  0
 18 19  2  0
  2 20  1  0
 20 21  2  0
 21 22  1  0
 22 23  2  0
 23 24  1  0
 24 25  2  0
 25 26  1  0
 26 27  2  0
 27 28  1  0
 28 29  2  0
 12  7  1  0
 19 14  1  0
 29 20  1  0
 28 23  1  0
  3 30  1  0
  4 31  1  0
  4 32  1  0
  8 33  1  0
  8 34  1  0
  9 35  1  0
  9 36  1  0
 10 37  1  0
 10 38  1  0
 11 39  1  0
 11 40  1  0
 12 41  1  1
 13 42  1  0
 13 43  1  0
 15 44  1  0
 16 45  1  0
 17 46  1  0
 18 47  1  0
 19 48  1  0
 21 49  1  0
 22 50  1  0
 24 51  1  0
 25 52  1  0
 26 53  1  0
 27 54  1  0
M  END
>  <smiles>  (12) 
O=C(NCC(=O)N1CCCCC1Cc1ccccc1)c1ccc2ccccc2n1

>  <score_type>  (12) 
oracle

>  <origin>  (12) 
autodockgpu

>  <m_score__min__energy>  (12) 
-9.3399999999999999

>  <m_primary>  (12) 
energy

>  <rmsd>  (12) 
2.0866891372542664

>  <m_score__min__rmsd>  (12) 
2.0866891372542664

>  <meeko>  (12) 
{"free_energy": -9.03, "intermolecular_energy": -10.82, "internal_energy": -1.75, "cluster_size": 35, "cluster_id": 1, "rank_in_cluster": 13}

>  <energy>  (12) 
-9.03

>  <cluster_rmsd>  (12) 
1.22

>  <cluster>  (12) 
1

$$$$

     RDKit          3D

 54 57  0  0  0  0  0  0  0  0999 V2000
  141.1200   71.8140  222.0490 O   0  0  0  0  0  0  0  0  0  0  0  0
  140.2050   71.9280  222.9330 C   0  0  0  0  0  0  0  0  0  0  0  0
  139.0830   72.7440  222.6220 N   0  0  0  0  0  0  0  0  0  0  0  0
  138.9590   73.4330  221.3500 C   0  0  0  0  0  0  0  0  0  0  0  0
  138.9090   74.8780  221.6410 C   0  0  0  0  0  0  0  0  0  0  0  0
  137.8690   75.4970  221.9870 O   0  0  0  0  0  0  0  0  0  0  0  0
  140.1100   75.6320  221.5250 N   0  0  0  0  0  0  0  0  0  0  0  0
  141.3840   75.0160  221.1730 C   0  0  0  0  0  0  0  0  0  0  0  0
  142.1070   75.8340  220.1230 C   0  0  0  0  0  0  0  0  0  0  0  0
  141.2310   76.8690  219.4840 C   0  0  0  0  0  0  0  0  0  0  0  0
  140.4370   77.7000  220.4430 C   0  0  0  0  0  0  0  0  0  0  0  0
  140.1370   77.0700  221.7520 C   0  0  2  0  0  0  0  0  0  0  0  0
  141.0890   77.4450  222.8560 C   0  0  0  0  0  0  0  0  0  0  0  0
  141.2830   78.8780  223.0570 C   0  0  0  0  0  0  0  0  0  0  0  0
  142.5990   79.3580  223.0490 C   0  0  0  0  0  0  0  0  0  0  0  0
  142.8230   80.7080  223.2350 C   0  0  0  0  0  0  0  0  0  0  0  0
  141.8100   81.6230  223.4310 C   0  0  0  0  0  0  0  0  0  0  0  0
  140.5000   81.1450  223.4380 C   0  0  0  0  0  0  0  0  0  0  0  0
  140.2730   79.7970  223.2530 C   0  0  0  0  0  0  0  0  0  0  0  0
  140.3150   71.2360  224.2270 C   0  0  0  0  0  0  0  0  0  0  0  0
  140.8930   71.8880  225.2750 C   0  0  0  0  0  0  0  0  0  0  0  0
  141.0550   71.3490  226.5380 C   0  0  0  0  0  0  0  0  0  0  0  0
  140.5800   70.0470  226.7060 C   0  0  0  0  0  0  0  0  0  0  0  0
  140.7090   69.4480  227.9410 C   0  0  0  0  0  0  0  0  0  0  0  0
  140.2430   68.1460  228.1390 C   0  0  0  0  0  0  0  0  0  0  0  0
  139.6580   67.5050  227.0500 C   0  0  0  0  0  0  0  0  0  0  0  0
  139.5340   68.1170  225.8160 C   0  0  0  0  0  0  0  0  0  0  0  0
  139.9930   69.4000  225.6200 C   0  0  0  0  0  0  0  0  0  0  0  0
  139.8690   69.9890  224.4140 N   0  0  0  0  0  0  0  0  0  0  0  0
  138.3390   72.8250  223.3670 H   0  0  0  0  0  0  0  0  0  0  0  0
  139.8263   73.2066  220.7124 H   0  0  0  0  0  0  0  0  0  0  0  0
  138.0525   73.1099  220.8171 H   0  0  0  0  0  0  0  0  0  0  0  0
  142.0126   74.9487  222.0732 H   0  0  0  0  0  0  0  0  0  0  0  0
  141.1892   74.0131  220.7652 H   0  0  0  0  0  0  0  0  0  0  0  0
  142.9594   76.3410  220.5987 H   0  0  0  0  0  0  0  0  0  0  0  0
  142.4315   75.1423  219.3317 H   0  0  0  0  0  0  0  0  0  0  0  0
  141.8712   77.5432  218.8961 H   0  0  0  0  0  0  0  0  0  0  0  0
  140.5001   76.3202  218.8720 H   0  0  0  0  0  0  0  0  0  0  0  0
  141.0014   78.6244  220.6353 H   0  0  0  0  0  0  0  0  0  0  0  0
  139.4620   77.8617  219.9601 H   0  0  0  0  0  0  0  0  0  0  0  0
  139.1675   77.4427  222.1142 H   0  0  0  0  0  0  0  0  0  0  0  0
  140.7042   77.0199  223.7947 H   0  0  0  0  0  0  0  0  0  0  0  0
  142.0698   77.0456  222.5585 H   0  0  0  0  0  0  0  0  0  0  0  0
  143.4427   78.6689  222.8966 H   0  0  0  0  0  0  0  0  0  0  0  0
  143.8612   81.0715  223.2264 H   0  0  0  0  0  0  0  0  0  0  0  0
  142.0275   82.6914  223.5766 H   0  0  0  0  0  0  0  0  0  0  0  0
  139.6570   81.8352  223.5894 H   0  0  0  0  0  0  0  0  0  0  0  0
  139.2338   79.4365  223.2622 H   0  0  0  0  0  0  0  0  0  0  0  0
  141.2552   72.9126  225.1045 H   0  0  0  0  0  0  0  0  0  0  0  0
  141.5277   71.9100  227.3576 H   0  0  0  0  0  0  0  0  0  0  0  0
  141.1792   69.9957  228.7710 H   0  0  0  0  0  0  0  0  0  0  0  0
  140.3344   67.6475  229.1153 H   0  0  0  0  0  0  0  0  0  0  0  0
  139.2824   66.4787  227.1753 H   0  0  0  0  0  0  0  0  0  0  0  0
  139.0641   67.5734  224.9831 H   0  0  0  0  0  0  0  0  0  0  0  0
  1  2  2  0
  2  3  1  0
  3  4  1  0
  4  5  1  0
  5  6  2  0
  5  7  1  0
  7  8  1  0
  8  9  1  0
  9 10  1  0
 10 11  1  0
 11 12  1  0
 12 13  1  0
 13 14  1  0
 14 15  2  0
 15 16  1  0
 16 17  2  0
 17 18  1  0
 18 19  2  0
  2 20  1  0
 20 21  2  0
 21 22  1  0
 22 23  2  0
 23 24  1  0
 24 25  2  0
 25 26  1  0
 26 27  2  0
 27 28  1  0
 28 29  2  0
 12  7  1  0
 19 14  1  0
 29 20  1  0
 28 23  1  0
  3 30  1  0
  4 31  1  0
  4 32  1  0
  8 33  1  0
  8 34  1  0
  9 35  1  0
  9 36  1  0
 10 37  1  0
 10 38  1  0
 11 39  1  0
 11 40  1  0
 12 41  1  1
 13 42  1  0
 13 43  1  0
 15 44  1  0
 16 45  1  0
 17 46  1  0
 18 47  1  0
 19 48  1  0
 21 49  1  0
 22 50  1  0
 24 51  1  0
 25 52  1  0
 26 53  1  0
 27 54  1  0
M  END
>  <smiles>  (13) 
O=C(NCC(=O)N1CCCCC1Cc1ccccc1)c1ccc2ccccc2n1

>  <score_type>  (13) 
oracle

>  <origin>  (13) 
autodockgpu

>  <m_score__min__energy>  (13) 
-9.3399999999999999

>  <m_primary>  (13) 
energy

>  <rmsd>  (13) 
3.2995301724768837

>  <m_score__min__rmsd>  (13) 
3.2995301724768837

>  <meeko>  (13) 
{"free_energy": -9.27, "intermolecular_energy": -11.06, "internal_energy": -1.54, "cluster_size": 35, "cluster_id": 1, "rank_in_cluster": 5}

>  <energy>  (13) 
-9.03

>  <cluster_rmsd>  (13) 
1.21

>  <cluster>  (13) 
1

$$$$

     RDKit          3D

 54 57  0  0  0  0  0  0  0  0999 V2000
  140.8690   71.5630  221.3630 O   0  0  0  0  0  0  0  0  0  0  0  0
  140.3690   72.1380  222.3890 C   0  0  0  0  0  0  0  0  0  0  0  0
  139.9740   73.4980  222.2570 N   0  0  0  0  0  0  0  0  0  0  0  0
  140.1220   74.2280  221.0100 C   0  0  0  0  0  0  0  0  0  0  0  0
  140.6140   75.5750  221.3500 C   0  0  0  0  0  0  0  0  0  0  0  0
  140.4920   76.1110  222.4820 O   0  0  0  0  0  0  0  0  0  0  0  0
  141.2740   76.3290  220.3380 N   0  0  0  0  0  0  0  0  0  0  0  0
  142.4740   75.8450  219.6670 C   0  0  0  0  0  0  0  0  0  0  0  0
  142.3760   76.0540  218.1700 C   0  0  0  0  0  0  0  0  0  0  0  0
  140.9890   76.3990  217.7180 C   0  0  0  0  0  0  0  0  0  0  0  0
  140.3180   77.4740  218.5140 C   0  0  0  0  0  0  0  0  0  0  0  0
  140.7860   77.6330  219.9120 C   0  0  2  0  0  0  0  0  0  0  0  0
  141.8220   78.7080  220.1050 C   0  0  0  0  0  0  0  0  0  0  0  0
  141.7940   79.3790  221.4010 C   0  0  0  0  0  0  0  0  0  0  0  0
  141.7750   80.7800  221.4020 C   0  0  0  0  0  0  0  0  0  0  0  0
  141.7470   81.4520  222.6080 C   0  0  0  0  0  0  0  0  0  0  0  0
  141.7370   80.8130  223.8300 C   0  0  0  0  0  0  0  0  0  0  0  0
  141.7560   79.4180  223.8300 C   0  0  0  0  0  0  0  0  0  0  0  0
  141.7840   78.7440  222.6260 C   0  0  0  0  0  0  0  0  0  0  0  0
  140.2110   71.4140  223.6600 C   0  0  0  0  0  0  0  0  0  0  0  0
  139.5620   70.2160  223.6570 C   0  0  0  0  0  0  0  0  0  0  0  0
  139.3480   69.4400  224.7820 C   0  0  0  0  0  0  0  0  0  0  0  0
  139.8500   69.9580  225.9780 C   0  0  0  0  0  0  0  0  0  0  0  0
  139.6720   69.2350  227.1400 C   0  0  0  0  0  0  0  0  0  0  0  0
  140.1620   69.7280  228.3510 C   0  0  0  0  0  0  0  0  0  0  0  0
  140.8210   70.9550  228.3210 C   0  0  0  0  0  0  0  0  0  0  0  0
  140.9910   71.6700  227.1500 C   0  0  0  0  0  0  0  0  0  0  0  0
  140.5090   71.1850  225.9550 C   0  0  0  0  0  0  0  0  0  0  0  0
  140.6800   71.8880  224.8190 N   0  0  0  0  0  0  0  0  0  0  0  0
  139.5630   73.9550  223.1160 H   0  0  0  0  0  0  0  0  0  0  0  0
  140.8445   73.7164  220.3571 H   0  0  0  0  0  0  0  0  0  0  0  0
  139.1626   74.2859  220.4749 H   0  0  0  0  0  0  0  0  0  0  0  0
  143.3473   76.3926  220.0510 H   0  0  0  0  0  0  0  0  0  0  0  0
  142.5786   74.7682  219.8661 H   0  0  0  0  0  0  0  0  0  0  0  0
  143.0519   76.8738  217.8852 H   0  0  0  0  0  0  0  0  0  0  0  0
  142.6545   75.1064  217.6858 H   0  0  0  0  0  0  0  0  0  0  0  0
  141.0433   76.7320  216.6710 H   0  0  0  0  0  0  0  0  0  0  0  0
  140.3843   75.4902  217.8540 H   0  0  0  0  0  0  0  0  0  0  0  0
  140.4800   78.4295  217.9937 H   0  0  0  0  0  0  0  0  0  0  0  0
  139.2617   77.1755  218.5860 H   0  0  0  0  0  0  0  0  0  0  0  0
  139.9449   77.9761  220.5324 H   0  0  0  0  0  0  0  0  0  0  0  0
  142.8141   78.2492  219.9817 H   0  0  0  0  0  0  0  0  0  0  0  0
  141.5974   79.4831  219.3575 H   0  0  0  0  0  0  0  0  0  0  0  0
  141.7823   81.3377  220.4539 H   0  0  0  0  0  0  0  0  0  0  0  0
  141.7319   82.5518  222.5932 H   0  0  0  0  0  0  0  0  0  0  0  0
  141.7148   81.3826  224.7708 H   0  0  0  0  0  0  0  0  0  0  0  0
  141.7487   78.8616  224.7789 H   0  0  0  0  0  0  0  0  0  0  0  0
  141.7991   77.6443  222.6438 H   0  0  0  0  0  0  0  0  0  0  0  0
  139.1826   69.8406  222.6952 H   0  0  0  0  0  0  0  0  0  0  0  0
  138.8171   68.4777  224.7375 H   0  0  0  0  0  0  0  0  0  0  0  0
  139.1441   68.2704  227.1122 H   0  0  0  0  0  0  0  0  0  0  0  0
  140.0329   69.1703  229.2903 H   0  0  0  0  0  0  0  0  0  0  0  0
  141.2190   71.3684  229.2595 H   0  0  0  0  0  0  0  0  0  0  0  0
  141.5166   72.6360  227.1733 H   0  0  0  0  0  0  0  0  0  0  0  0
  1  2  2  0
  2  3  1  0
  3  4  1  0
  4  5  1  0
  5  6  2  0
  5  7  1  0
  7  8  1  0
  8  9  1  0
  9 10  1  0
 10 11  1  0
 11 12  1  0
 12 13  1  0
 13 14  1  0
 14 15  2  0
 15 16  1  0
 16 17  2  0
 17 18  1  0
 18 19  2  0
  2 20  1  0
 20 21  2  0
 21 22  1  0
 22 23  2  0
 23 24  1  0
 24 25  2  0
 25 26  1  0
 26 27  2  0
 27 28  1  0
 28 29  2  0
 12  7  1  0
 19 14  1  0
 29 20  1  0
 28 23  1  0
  3 30  1  0
  4 31  1  0
  4 32  1  0
  8 33  1  0
  8 34  1  0
  9 35  1  0
  9 36  1  0
 10 37  1  0
 10 38  1  0
 11 39  1  0
 11 40  1  0
 12 41  1  1
 13 42  1  0
 13 43  1  0
 15 44  1  0
 16 45  1  0
 17 46  1  0
 18 47  1  0
 19 48  1  0
 21 49  1  0
 22 50  1  0
 24 51  1  0
 25 52  1  0
 26 53  1  0
 27 54  1  0
M  END
>  <smiles>  (14) 
O=C(NCC(=O)N1CCCCC1Cc1ccccc1)c1ccc2ccccc2n1

>  <score_type>  (14) 
oracle

>  <origin>  (14) 
autodockgpu

>  <m_score__min__energy>  (14) 
-9.3399999999999999

>  <m_primary>  (14) 
energy

>  <rmsd>  (14) 
2.0701008241034353

>  <m_score__min__rmsd>  (14) 
2.0701008241034353

>  <meeko>  (14) 
{"free_energy": -9.02, "intermolecular_energy": -10.81, "internal_energy": -1.77, "cluster_size": 35, "cluster_id": 1, "rank_in_cluster": 14}

>  <energy>  (14) 
-9.02

>  <cluster_rmsd>  (14) 
1.22

>  <cluster>  (14) 
1

$$$$

     RDKit          3D

 54 57  0  0  0  0  0  0  0  0999 V2000
  137.4360   76.1900  222.1240 O   0  0  0  0  0  0  0  0  0  0  0  0
  138.6990   76.2590  222.3030 C   0  0  0  0  0  0  0  0  0  0  0  0
  139.4590   75.0730  222.1070 N   0  0  0  0  0  0  0  0  0  0  0  0
  138.8440   73.8170  221.7160 C   0  0  0  0  0  0  0  0  0  0  0  0
  139.5800   72.7390  222.4030 C   0  0  0  0  0  0  0  0  0  0  0  0
  140.7940   72.8020  222.7240 O   0  0  0  0  0  0  0  0  0  0  0  0
  138.8790   71.5440  222.7280 N   0  0  0  0  0  0  0  0  0  0  0  0
  137.4400   71.4090  222.5310 C   0  0  0  0  0  0  0  0  0  0  0  0
  137.1080   70.0820  221.8810 C   0  0  0  0  0  0  0  0  0  0  0  0
  138.3130   69.3880  221.3200 C   0  0  0  0  0  0  0  0  0  0  0  0
  139.4860   69.3180  222.2470 C   0  0  0  0  0  0  0  0  0  0  0  0
  139.5600   70.3810  223.2790 C   0  0  2  0  0  0  0  0  0  0  0  0
  139.0010   69.9880  224.6200 C   0  0  0  0  0  0  0  0  0  0  0  0
  139.7450   70.4780  225.7770 C   0  0  0  0  0  0  0  0  0  0  0  0
  140.6600   71.5170  225.5640 C   0  0  0  0  0  0  0  0  0  0  0  0
  141.3830   72.0070  226.6330 C   0  0  0  0  0  0  0  0  0  0  0  0
  141.2520   71.5260  227.9190 C   0  0  0  0  0  0  0  0  0  0  0  0
  140.3400   70.4920  228.1320 C   0  0  0  0  0  0  0  0  0  0  0  0
  139.6180   69.9990  227.0650 C   0  0  0  0  0  0  0  0  0  0  0  0
  139.3390   77.5230  222.6990 C   0  0  0  0  0  0  0  0  0  0  0  0
  138.5510   78.5690  223.0780 C   0  0  0  0  0  0  0  0  0  0  0  0
  139.0290   79.8060  223.4700 C   0  0  0  0  0  0  0  0  0  0  0  0
  140.4180   79.9470  223.4630 C   0  0  0  0  0  0  0  0  0  0  0  0
  140.9640   81.1560  223.8440 C   0  0  0  0  0  0  0  0  0  0  0  0
  142.3490   81.3270  223.8470 C   0  0  0  0  0  0  0  0  0  0  0  0
  143.1280   80.2410  223.4550 C   0  0  0  0  0  0  0  0  0  0  0  0
  142.5690   79.0350  223.0750 C   0  0  0  0  0  0  0  0  0  0  0  0
  141.2030   78.8650  223.0720 C   0  0  0  0  0  0  0  0  0  0  0  0
  140.6660   77.6860  222.7010 N   0  0  0  0  0  0  0  0  0  0  0  0
  140.5010   75.1510  222.2600 H   0  0  0  0  0  0  0  0  0  0  0  0
  137.7868   73.8044  222.0195 H   0  0  0  0  0  0  0  0  0  0  0  0
  138.8857   73.6846  220.6248 H   0  0  0  0  0  0  0  0  0  0  0  0
  136.9353   71.4689  223.5066 H   0  0  0  0  0  0  0  0  0  0  0  0
  137.0969   72.2200  221.8718 H   0  0  0  0  0  0  0  0  0  0  0  0
  136.6459   69.4279  222.6351 H   0  0  0  0  0  0  0  0  0  0  0  0
  136.4258   70.2871  221.0428 H   0  0  0  0  0  0  0  0  0  0  0  0
  138.0238   68.3601  221.0561 H   0  0  0  0  0  0  0  0  0  0  0  0
  138.6380   69.9837  220.4542 H   0  0  0  0  0  0  0  0  0  0  0  0
  139.4495   68.3479  222.7643 H   0  0  0  0  0  0  0  0  0  0  0  0
  140.3748   69.4554  221.6136 H   0  0  0  0  0  0  0  0  0  0  0  0
  140.6170   70.5938  223.4968 H   0  0  0  0  0  0  0  0  0  0  0  0
  137.9744   70.3774  224.6870 H   0  0  0  0  0  0  0  0  0  0  0  0
  139.0614   68.8905  224.6636 H   0  0  0  0  0  0  0  0  0  0  0  0
  140.8007   71.9373  224.5572 H   0  0  0  0  0  0  0  0  0  0  0  0
  142.0992   72.8216  226.4501 H   0  0  0  0  0  0  0  0  0  0  0  0
  141.8450   71.9425  228.7466 H   0  0  0  0  0  0  0  0  0  0  0  0
  140.1982   70.0744  229.1397 H   0  0  0  0  0  0  0  0  0  0  0  0
  138.9046   69.1824  227.2502 H   0  0  0  0  0  0  0  0  0  0  0  0
  137.4613   78.4188  223.0715 H   0  0  0  0  0  0  0  0  0  0  0  0
  138.3585   80.6255  223.7679 H   0  0  0  0  0  0  0  0  0  0  0  0
  140.3071   81.9852  224.1454 H   0  0  0  0  0  0  0  0  0  0  0  0
  142.8070   82.2811  224.1469 H   0  0  0  0  0  0  0  0  0  0  0  0
  144.2229   80.3462  223.4475 H   0  0  0  0  0  0  0  0  0  0  0  0
  143.2221   78.2033  222.7721 H   0  0  0  0  0  0  0  0  0  0  0  0
  1  2  2  0
  2  3  1  0
  3  4  1  0
  4  5  1  0
  5  6  2  0
  5  7  1  0
  7  8  1  0
  8  9  1  0
  9 10  1  0
 10 11  1  0
 11 12  1  0
 12 13  1  0
 13 14  1  0
 14 15  2  0
 15 16  1  0
 16 17  2  0
 17 18  1  0
 18 19  2  0
  2 20  1  0
 20 21  2  0
 21 22  1  0
 22 23  2  0
 23 24  1  0
 24 25  2  0
 25 26  1  0
 26 27  2  0
 27 28  1  0
 28 29  2  0
 12  7  1  0
 19 14  1  0
 29 20  1  0
 28 23  1  0
  3 30  1  0
  4 31  1  0
  4 32  1  0
  8 33  1  0
  8 34  1  0
  9 35  1  0
  9 36  1  0
 10 37  1  0
 10 38  1  0
 11 39  1  0
 11 40  1  0
 12 41  1  1
 13 42  1  0
 13 43  1  0
 15 44  1  0
 16 45  1  0
 17 46  1  0
 18 47  1  0
 19 48  1  0
 21 49  1  0
 22 50  1  0
 24 51  1  0
 25 52  1  0
 26 53  1  0
 27 54  1  0
M  END
>  <smiles>  (15) 
O=C(NCC(=O)N1CCCCC1Cc1ccccc1)c1ccc2ccccc2n1

>  <score_type>  (15) 
oracle

>  <origin>  (15) 
autodockgpu

>  <m_score__min__energy>  (15) 
-9.3399999999999999

>  <m_primary>  (15) 
energy

>  <rmsd>  (15) 
8.381977178707011

>  <m_score__min__rmsd>  (15) 
8.381977178707011

>  <meeko>  (15) 
{"free_energy": -8.58, "intermolecular_energy": -10.37, "internal_energy": -1.99, "cluster_size": 9, "cluster_id": 2, "rank_in_cluster": 4}

>  <energy>  (15) 
-8.99

>  <cluster_rmsd>  (15) 
0.83

>  <cluster>  (15) 
1

$$$$

     RDKit          3D

 54 57  0  0  0  0  0  0  0  0999 V2000
  141.1430   71.6060  221.4180 O   0  0  0  0  0  0  0  0  0  0  0  0
  140.5080   72.1540  222.3810 C   0  0  0  0  0  0  0  0  0  0  0  0
  140.0250   73.4770  222.1870 N   0  0  0  0  0  0  0  0  0  0  0  0
  140.2330   74.2000  220.9450 C   0  0  0  0  0  0  0  0  0  0  0  0
  140.0950   75.6360  221.2490 C   0  0  0  0  0  0  0  0  0  0  0  0
  139.4270   76.0980  222.2100 O   0  0  0  0  0  0  0  0  0  0  0  0
  140.7590   76.5720  220.4060 N   0  0  0  0  0  0  0  0  0  0  0  0
  142.2020   76.5410  220.1950 C   0  0  0  0  0  0  0  0  0  0  0  0
  142.5360   76.6990  218.7270 C   0  0  0  0  0  0  0  0  0  0  0  0
  141.3420   76.5320  217.8350 C   0  0  0  0  0  0  0  0  0  0  0  0
  140.1310   77.3030  218.2550 C   0  0  0  0  0  0  0  0  0  0  0  0
  140.0330   77.6190  219.7010 C   0  0  2  0  0  0  0  0  0  0  0  0
  140.5290   78.9910  220.0730 C   0  0  0  0  0  0  0  0  0  0  0  0
  140.8660   79.1740  221.4820 C   0  0  0  0  0  0  0  0  0  0  0  0
  142.2120   79.3970  221.7990 C   0  0  0  0  0  0  0  0  0  0  0  0
  142.5720   79.5760  223.1200 C   0  0  0  0  0  0  0  0  0  0  0  0
  141.6670   79.5490  224.1610 C   0  0  0  0  0  0  0  0  0  0  0  0
  140.3260   79.3280  223.8460 C   0  0  0  0  0  0  0  0  0  0  0  0
  139.9650   79.1480  222.5260 C   0  0  0  0  0  0  0  0  0  0  0  0
  140.2880   71.4360  223.6460 C   0  0  0  0  0  0  0  0  0  0  0  0
  139.5670   70.2790  223.6290 C   0  0  0  0  0  0  0  0  0  0  0  0
  139.2900   69.5130  224.7470 C   0  0  0  0  0  0  0  0  0  0  0  0
  139.8050   69.9950  225.9520 C   0  0  0  0  0  0  0  0  0  0  0  0
  139.5670   69.2800  227.1080 C   0  0  0  0  0  0  0  0  0  0  0  0
  140.0690   69.7370  228.3290 C   0  0  0  0  0  0  0  0  0  0  0  0
  140.8010   70.9220  228.3140 C   0  0  0  0  0  0  0  0  0  0  0  0
  141.0320   71.6290  227.1490 C   0  0  0  0  0  0  0  0  0  0  0  0
  140.5390   71.1790  225.9450 C   0  0  0  0  0  0  0  0  0  0  0  0
  140.7680   71.8750  224.8140 N   0  0  0  0  0  0  0  0  0  0  0  0
  139.5030   73.9110  222.9950 H   0  0  0  0  0  0  0  0  0  0  0  0
  141.2394   73.9928  220.5522 H   0  0  0  0  0  0  0  0  0  0  0  0
  139.5012   73.8894  220.1847 H   0  0  0  0  0  0  0  0  0  0  0  0
  142.6665   77.3622  220.7606 H   0  0  0  0  0  0  0  0  0  0  0  0
  142.5873   75.5705  220.5410 H   0  0  0  0  0  0  0  0  0  0  0  0
  142.9545   77.7038  218.5686 H   0  0  0  0  0  0  0  0  0  0  0  0
  143.2560   75.9095  218.4657 H   0  0  0  0  0  0  0  0  0  0  0  0
  141.6224   76.8602  216.8233 H   0  0  0  0  0  0  0  0  0  0  0  0
  141.0645   75.4688  217.8858 H   0  0  0  0  0  0  0  0  0  0  0  0
  140.1280   78.2535  217.7014 H   0  0  0  0  0  0  0  0  0  0  0  0
  139.2724   76.6520  218.0339 H   0  0  0  0  0  0  0  0  0  0  0  0
  138.9720   77.6437  219.9901 H   0  0  0  0  0  0  0  0  0  0  0  0
  141.4309   79.1986  219.4785 H   0  0  0  0  0  0  0  0  0  0  0  0
  139.6965   79.6803  219.8683 H   0  0  0  0  0  0  0  0  0  0  0  0
  142.9730   79.4291  221.0053 H   0  0  0  0  0  0  0  0  0  0  0  0
  143.6329   79.7487  223.3539 H   0  0  0  0  0  0  0  0  0  0  0  0
  141.9911   79.6964  225.2018 H   0  0  0  0  0  0  0  0  0  0  0  0
  139.5655   79.2976  224.6401 H   0  0  0  0  0  0  0  0  0  0  0  0
  138.9036   78.9748  222.2946 H   0  0  0  0  0  0  0  0  0  0  0  0
  139.1792   69.9309  222.6603 H   0  0  0  0  0  0  0  0  0  0  0  0
  138.7024   68.5848  224.6904 H   0  0  0  0  0  0  0  0  0  0  0  0
  138.9816   68.3496  227.0681 H   0  0  0  0  0  0  0  0  0  0  0  0
  139.8935   69.1840  229.2635 H   0  0  0  0  0  0  0  0  0  0  0  0
  141.2085   71.3077  229.2601 H   0  0  0  0  0  0  0  0  0  0  0  0
  141.6157   72.5607  227.1843 H   0  0  0  0  0  0  0  0  0  0  0  0
  1  2  2  0
  2  3  1  0
  3  4  1  0
  4  5  1  0
  5  6  2  0
  5  7  1  0
  7  8  1  0
  8  9  1  0
  9 10  1  0
 10 11  1  0
 11 12  1  0
 12 13  1  0
 13 14  1  0
 14 15  2  0
 15 16  1  0
 16 17  2  0
 17 18  1  0
 18 19  2  0
  2 20  1  0
 20 21  2  0
 21 22  1  0
 22 23  2  0
 23 24  1  0
 24 25  2  0
 25 26  1  0
 26 27  2  0
 27 28  1  0
 28 29  2  0
 12  7  1  0
 19 14  1  0
 29 20  1  0
 28 23  1  0
  3 30  1  0
  4 31  1  0
  4 32  1  0
  8 33  1  0
  8 34  1  0
  9 35  1  0
  9 36  1  0
 10 37  1  0
 10 38  1  0
 11 39  1  0
 11 40  1  0
 12 41  1  1
 13 42  1  0
 13 43  1  0
 15 44  1  0
 16 45  1  0
 17 46  1  0
 18 47  1  0
 19 48  1  0
 21 49  1  0
 22 50  1  0
 24 51  1  0
 25 52  1  0
 26 53  1  0
 27 54  1  0
M  END
>  <smiles>  (16) 
O=C(NCC(=O)N1CCCCC1Cc1ccccc1)c1ccc2ccccc2n1

>  <score_type>  (16) 
oracle

>  <origin>  (16) 
autodockgpu

>  <m_score__min__energy>  (16) 
-9.3399999999999999

>  <m_primary>  (16) 
energy

>  <rmsd>  (16) 
2.2399046240553124

>  <m_score__min__rmsd>  (16) 
2.2399046240553124

>  <meeko>  (16) 
{"free_energy": -8.37, "intermolecular_energy": -10.16, "internal_energy": -2.02, "cluster_size": 35, "cluster_id": 1, "rank_in_cluster": 34}

>  <energy>  (16) 
-8.96

>  <cluster_rmsd>  (16) 
0.84

>  <cluster>  (16) 
1

$$$$

     RDKit          3D

 54 57  0  0  0  0  0  0  0  0999 V2000
  140.8300   71.3080  221.3280 O   0  0  0  0  0  0  0  0  0  0  0  0
  140.4070   71.9270  222.3630 C   0  0  0  0  0  0  0  0  0  0  0  0
  140.1130   73.3120  222.2290 N   0  0  0  0  0  0  0  0  0  0  0  0
  140.2770   74.0190  220.9720 C   0  0  0  0  0  0  0  0  0  0  0  0
  140.6370   75.4110  221.2980 C   0  0  0  0  0  0  0  0  0  0  0  0
  140.3780   75.9730  222.3940 O   0  0  0  0  0  0  0  0  0  0  0  0
  141.3230   76.1800  220.3170 N   0  0  0  0  0  0  0  0  0  0  0  0
  142.5690   75.7270  219.7060 C   0  0  0  0  0  0  0  0  0  0  0  0
  142.5370   75.9290  218.2060 C   0  0  0  0  0  0  0  0  0  0  0  0
  141.1640   76.2340  217.6850 C   0  0  0  0  0  0  0  0  0  0  0  0
  140.4260   77.2920  218.4430 C   0  0  0  0  0  0  0  0  0  0  0  0
  140.8200   77.4680  219.8610 C   0  0  2  0  0  0  0  0  0  0  0  0
  141.8150   78.5730  220.0990 C   0  0  0  0  0  0  0  0  0  0  0  0
  141.7990   79.1530  221.4390 C   0  0  0  0  0  0  0  0  0  0  0  0
  142.1410   80.5060  221.5600 C   0  0  0  0  0  0  0  0  0  0  0  0
  142.1370   81.0910  222.8110 C   0  0  0  0  0  0  0  0  0  0  0  0
  141.8090   80.4100  223.9640 C   0  0  0  0  0  0  0  0  0  0  0  0
  141.4660   79.0630  223.8430 C   0  0  0  0  0  0  0  0  0  0  0  0
  141.4710   78.4750  222.5950 C   0  0  0  0  0  0  0  0  0  0  0  0
  140.2340   71.2270  223.6450 C   0  0  0  0  0  0  0  0  0  0  0  0
  139.5910   70.0250  223.6560 C   0  0  0  0  0  0  0  0  0  0  0  0
  139.3650   69.2700  224.7930 C   0  0  0  0  0  0  0  0  0  0  0  0
  139.8460   69.8140  225.9850 C   0  0  0  0  0  0  0  0  0  0  0  0
  139.6550   69.1120  227.1580 C   0  0  0  0  0  0  0  0  0  0  0  0
  140.1250   69.6310  228.3670 C   0  0  0  0  0  0  0  0  0  0  0  0
  140.7780   70.8600  228.3230 C   0  0  0  0  0  0  0  0  0  0  0  0
  140.9620   71.5530  227.1410 C   0  0  0  0  0  0  0  0  0  0  0  0
  140.5000   71.0430  225.9490 C   0  0  0  0  0  0  0  0  0  0  0  0
  140.6840   71.7250  224.8010 N   0  0  0  0  0  0  0  0  0  0  0  0
  139.7650   73.8050  223.0960 H   0  0  0  0  0  0  0  0  0  0  0  0
  141.0769   73.5520  220.3786 H   0  0  0  0  0  0  0  0  0  0  0  0
  139.3502   73.9838  220.3806 H   0  0  0  0  0  0  0  0  0  0  0  0
  143.4073   76.2999  220.1292 H   0  0  0  0  0  0  0  0  0  0  0  0
  142.6942   74.6542  219.9146 H   0  0  0  0  0  0  0  0  0  0  0  0
  143.2028   76.7666  217.9508 H   0  0  0  0  0  0  0  0  0  0  0  0
  142.8642   74.9878  217.7401 H   0  0  0  0  0  0  0  0  0  0  0  0
  141.2601   76.5654  216.6405 H   0  0  0  0  0  0  0  0  0  0  0  0
  140.5787   75.3092  217.7947 H   0  0  0  0  0  0  0  0  0  0  0  0
  140.5871   78.2502  217.9273 H   0  0  0  0  0  0  0  0  0  0  0  0
  139.3762   76.9643  218.4648 H   0  0  0  0  0  0  0  0  0  0  0  0
  139.9400   77.7884  220.4380 H   0  0  0  0  0  0  0  0  0  0  0  0
  142.8215   78.1684  219.9164 H   0  0  0  0  0  0  0  0  0  0  0  0
  141.5341   79.3862  219.4136 H   0  0  0  0  0  0  0  0  0  0  0  0
  142.4092   81.0947  220.6704 H   0  0  0  0  0  0  0  0  0  0  0  0
  142.4092   82.1538  222.8915 H   0  0  0  0  0  0  0  0  0  0  0  0
  141.8174   80.9104  224.9436 H   0  0  0  0  0  0  0  0  0  0  0  0
  141.1946   78.4763  224.7330 H   0  0  0  0  0  0  0  0  0  0  0  0
  141.1997   77.4118  222.5177 H   0  0  0  0  0  0  0  0  0  0  0  0
  139.2274   69.6288  222.6964 H   0  0  0  0  0  0  0  0  0  0  0  0
  138.8403   68.3038  224.7598 H   0  0  0  0  0  0  0  0  0  0  0  0
  139.1328   68.1440  227.1409 H   0  0  0  0  0  0  0  0  0  0  0  0
  139.9849   69.0908  229.3149 H   0  0  0  0  0  0  0  0  0  0  0  0
  141.1598   71.2936  229.2591 H   0  0  0  0  0  0  0  0  0  0  0  0
  141.4829   72.5218  227.1533 H   0  0  0  0  0  0  0  0  0  0  0  0
  1  2  2  0
  2  3  1  0
  3  4  1  0
  4  5  1  0
  5  6  2  0
  5  7  1  0
  7  8  1  0
  8  9  1  0
  9 10  1  0
 10 11  1  0
 11 12  1  0
 12 13  1  0
 13 14  1  0
 14 15  2  0
 15 16  1  0
 16 17  2  0
 17 18  1  0
 18 19  2  0
  2 20  1  0
 20 21  2  0
 21 22  1  0
 22 23  2  0
 23 24  1  0
 24 25  2  0
 25 26  1  0
 26 27  2  0
 27 28  1  0
 28 29  2  0
 12  7  1  0
 19 14  1  0
 29 20  1  0
 28 23  1  0
  3 30  1  0
  4 31  1  0
  4 32  1  0
  8 33  1  0
  8 34  1  0
  9 35  1  0
  9 36  1  0
 10 37  1  0
 10 38  1  0
 11 39  1  0
 11 40  1  0
 12 41  1  1
 13 42  1  0
 13 43  1  0
 15 44  1  0
 16 45  1  0
 17 46  1  0
 18 47  1  0
 19 48  1  0
 21 49  1  0
 22 50  1  0
 24 51  1  0
 25 52  1  0
 26 53  1  0
 27 54  1  0
M  END
>  <smiles>  (17) 
O=C(NCC(=O)N1CCCCC1Cc1ccccc1)c1ccc2ccccc2n1

>  <score_type>  (17) 
oracle

>  <origin>  (17) 
autodockgpu

>  <m_score__min__energy>  (17) 
-9.3399999999999999

>  <m_primary>  (17) 
energy

>  <rmsd>  (17) 
2.0697153112481117

>  <m_score__min__rmsd>  (17) 
2.0697153112481117

>  <meeko>  (17) 
{"free_energy": -8.94, "intermolecular_energy": -10.73, "internal_energy": -1.77, "cluster_size": 35, "cluster_id": 1, "rank_in_cluster": 20}

>  <energy>  (17) 
-8.96

>  <cluster_rmsd>  (17) 
0.82

>  <cluster>  (17) 
1

$$$$

     RDKit          3D

 54 57  0  0  0  0  0  0  0  0999 V2000
  137.2730   76.4030  222.2120 O   0  0  0  0  0  0  0  0  0  0  0  0
  138.5400   76.4220  222.3720 C   0  0  0  0  0  0  0  0  0  0  0  0
  139.2470   75.2010  222.1950 N   0  0  0  0  0  0  0  0  0  0  0  0
  138.5750   73.9630  221.8440 C   0  0  0  0  0  0  0  0  0  0  0  0
  139.4250   72.8560  222.3180 C   0  0  0  0  0  0  0  0  0  0  0  0
  140.6700   72.9350  222.4780 O   0  0  0  0  0  0  0  0  0  0  0  0
  138.8060   71.6100  222.6200 N   0  0  0  0  0  0  0  0  0  0  0  0
  137.3780   71.3850  222.4270 C   0  0  0  0  0  0  0  0  0  0  0  0
  137.1290   70.0540  221.7480 C   0  0  0  0  0  0  0  0  0  0  0  0
  138.3740   69.4530  221.1660 C   0  0  0  0  0  0  0  0  0  0  0  0
  139.5540   69.4400  222.0860 C   0  0  0  0  0  0  0  0  0  0  0  0
  139.5650   70.4820  223.1410 C   0  0  2  0  0  0  0  0  0  0  0  0
  139.0410   70.0240  224.4750 C   0  0  0  0  0  0  0  0  0  0  0  0
  139.7810   70.5050  225.6380 C   0  0  0  0  0  0  0  0  0  0  0  0
  139.5740   69.8420  226.8550 C   0  0  0  0  0  0  0  0  0  0  0  0
  140.2560   70.2670  227.9770 C   0  0  0  0  0  0  0  0  0  0  0  0
  141.1440   71.3220  227.9690 C   0  0  0  0  0  0  0  0  0  0  0  0
  141.3530   71.9810  226.7570 C   0  0  0  0  0  0  0  0  0  0  0  0
  140.6710   71.5590  225.6340 C   0  0  0  0  0  0  0  0  0  0  0  0
  139.2380   77.6680  222.7280 C   0  0  0  0  0  0  0  0  0  0  0  0
  138.4990   78.7600  223.0710 C   0  0  0  0  0  0  0  0  0  0  0  0
  139.0340   79.9870  223.4240 C   0  0  0  0  0  0  0  0  0  0  0  0
  140.4280   80.0630  223.4150 C   0  0  0  0  0  0  0  0  0  0  0  0
  141.0280   81.2570  223.7580 C   0  0  0  0  0  0  0  0  0  0  0  0
  142.4210   81.3640  223.7580 C   0  0  0  0  0  0  0  0  0  0  0  0
  143.1480   80.2310  223.4030 C   0  0  0  0  0  0  0  0  0  0  0  0
  142.5340   79.0400  223.0620 C   0  0  0  0  0  0  0  0  0  0  0  0
  141.1610   78.9330  223.0610 C   0  0  0  0  0  0  0  0  0  0  0  0
  140.5710   77.7690  222.7270 N   0  0  0  0  0  0  0  0  0  0  0  0
  140.2940   75.2390  222.3320 H   0  0  0  0  0  0  0  0  0  0  0  0
  137.5901   73.9174  222.3318 H   0  0  0  0  0  0  0  0  0  0  0  0
  138.4193   73.8979  220.7570 H   0  0  0  0  0  0  0  0  0  0  0  0
  136.8769   71.3894  223.4062 H   0  0  0  0  0  0  0  0  0  0  0  0
  136.9785   72.1864  221.7881 H   0  0  0  0  0  0  0  0  0  0  0  0
  136.7148   69.3543  222.4888 H   0  0  0  0  0  0  0  0  0  0  0  0
  136.4299   70.2329  220.9178 H   0  0  0  0  0  0  0  0  0  0  0  0
  138.1513   68.4143  220.8804 H   0  0  0  0  0  0  0  0  0  0  0  0
  138.6541   70.0875  220.3122 H   0  0  0  0  0  0  0  0  0  0  0  0
  139.5840   68.4584  222.5816 H   0  0  0  0  0  0  0  0  0  0  0  0
  140.4279   69.6498  221.4517 H   0  0  0  0  0  0  0  0  0  0  0  0
  140.6074   70.7582  223.3582 H   0  0  0  0  0  0  0  0  0  0  0  0
  138.0010   70.3700  224.5679 H   0  0  0  0  0  0  0  0  0  0  0  0
  139.1453   68.9290  224.4815 H   0  0  0  0  0  0  0  0  0  0  0  0
  138.8767   68.9934  226.9153 H   0  0  0  0  0  0  0  0  0  0  0  0
  140.0825   69.7375  228.9255 H   0  0  0  0  0  0  0  0  0  0  0  0
  141.6684   71.6327  228.8847 H   0  0  0  0  0  0  0  0  0  0  0  0
  142.0533   72.8272  226.6974 H   0  0  0  0  0  0  0  0  0  0  0  0
  140.8461   72.0904  224.6869 H   0  0  0  0  0  0  0  0  0  0  0  0
  137.4036   78.6599  223.0672 H   0  0  0  0  0  0  0  0  0  0  0  0
  138.4021   80.8460  223.6939 H   0  0  0  0  0  0  0  0  0  0  0  0
  140.4097   82.1247  224.0315 H   0  0  0  0  0  0  0  0  0  0  0  0
  142.9229   82.3050  224.0275 H   0  0  0  0  0  0  0  0  0  0  0  0
  144.2466   80.2851  223.3935 H   0  0  0  0  0  0  0  0  0  0  0  0
  143.1483   78.1693  222.7888 H   0  0  0  0  0  0  0  0  0  0  0  0
  1  2  2  0
  2  3  1  0
  3  4  1  0
  4  5  1  0
  5  6  2  0
  5  7  1  0
  7  8  1  0
  8  9  1  0
  9 10  1  0
 10 11  1  0
 11 12  1  0
 12 13  1  0
 13 14  1  0
 14 15  2  0
 15 16  1  0
 16 17  2  0
 17 18  1  0
 18 19  2  0
  2 20  1  0
 20 21  2  0
 21 22  1  0
 22 23  2  0
 23 24  1  0
 24 25  2  0
 25 26  1  0
 26 27  2  0
 27 28  1  0
 28 29  2  0
 12  7  1  0
 19 14  1  0
 29 20  1  0
 28 23  1  0
  3 30  1  0
  4 31  1  0
  4 32  1  0
  8 33  1  0
  8 34  1  0
  9 35  1  0
  9 36  1  0
 10 37  1  0
 10 38  1  0
 11 39  1  0
 11 40  1  0
 12 41  1  1
 13 42  1  0
 13 43  1  0
 15 44  1  0
 16 45  1  0
 17 46  1  0
 18 47  1  0
 19 48  1  0
 21 49  1  0
 22 50  1  0
 24 51  1  0
 25 52  1  0
 26 53  1  0
 27 54  1  0
M  END
>  <smiles>  (18) 
O=C(NCC(=O)N1CCCCC1Cc1ccccc1)c1ccc2ccccc2n1

>  <score_type>  (18) 
oracle

>  <origin>  (18) 
autodockgpu

>  <m_score__min__energy>  (18) 
-9.3399999999999999

>  <m_primary>  (18) 
energy

>  <rmsd>  (18) 
8.40916204098272

>  <m_score__min__rmsd>  (18) 
8.40916204098272

>  <meeko>  (18) 
{"free_energy": -8.59, "intermolecular_energy": -10.38, "internal_energy": -2.02, "cluster_size": 9, "cluster_id": 2, "rank_in_cluster": 3}

>  <energy>  (18) 
-8.95

>  <cluster_rmsd>  (18) 
1.19

>  <cluster>  (18) 
1

$$$$

     RDKit          3D

 54 57  0  0  0  0  0  0  0  0999 V2000
  141.3690   71.8520  222.2260 O   0  0  0  0  0  0  0  0  0  0  0  0
  140.3900   71.9290  223.0440 C   0  0  0  0  0  0  0  0  0  0  0  0
  139.2620   72.7010  222.6520 N   0  0  0  0  0  0  0  0  0  0  0  0
  139.2010   73.3860  221.3730 C   0  0  0  0  0  0  0  0  0  0  0  0
  138.9680   74.8150  221.6550 C   0  0  0  0  0  0  0  0  0  0  0  0
  137.8710   75.2930  222.0410 O   0  0  0  0  0  0  0  0  0  0  0  0
  140.0510   75.7220  221.4820 N   0  0  0  0  0  0  0  0  0  0  0  0
  141.2900   75.3370  220.8150 C   0  0  0  0  0  0  0  0  0  0  0  0
  141.7240   76.4010  219.8300 C   0  0  0  0  0  0  0  0  0  0  0  0
  140.6510   77.4100  219.5480 C   0  0  0  0  0  0  0  0  0  0  0  0
  139.9760   77.9650  220.7620 C   0  0  0  0  0  0  0  0  0  0  0  0
  139.9850   77.0950  221.9630 C   0  0  2  0  0  0  0  0  0  0  0  0
  141.0870   77.3980  222.9430 C   0  0  0  0  0  0  0  0  0  0  0  0
  141.3740   78.8150  223.1450 C   0  0  0  0  0  0  0  0  0  0  0  0
  142.6600   79.2660  222.8180 C   0  0  0  0  0  0  0  0  0  0  0  0
  142.9700   80.6000  222.9940 C   0  0  0  0  0  0  0  0  0  0  0  0
  142.0720   81.5270  223.4800 C   0  0  0  0  0  0  0  0  0  0  0  0
  140.7920   81.0790  223.8050 C   0  0  0  0  0  0  0  0  0  0  0  0
  140.4800   79.7460  223.6310 C   0  0  0  0  0  0  0  0  0  0  0  0
  140.4350   71.2410  224.3430 C   0  0  0  0  0  0  0  0  0  0  0  0
  140.9850   71.8860  225.4100 C   0  0  0  0  0  0  0  0  0  0  0  0
  141.0870   71.3490  226.6810 C   0  0  0  0  0  0  0  0  0  0  0  0
  140.5770   70.0580  226.8340 C   0  0  0  0  0  0  0  0  0  0  0  0
  140.6460   69.4620  228.0760 C   0  0  0  0  0  0  0  0  0  0  0  0
  140.1450   68.1710  228.2610 C   0  0  0  0  0  0  0  0  0  0  0  0
  139.5890   67.5380  227.1520 C   0  0  0  0  0  0  0  0  0  0  0  0
  139.5270   68.1470  225.9120 C   0  0  0  0  0  0  0  0  0  0  0  0
  140.0200   69.4190  225.7290 C   0  0  0  0  0  0  0  0  0  0  0  0
  139.9550   70.0050  224.5180 N   0  0  0  0  0  0  0  0  0  0  0  0
  138.4640   72.7520  223.3420 H   0  0  0  0  0  0  0  0  0  0  0  0
  140.1499   73.2584  220.8314 H   0  0  0  0  0  0  0  0  0  0  0  0
  138.3951   72.9747  220.7475 H   0  0  0  0  0  0  0  0  0  0  0  0
  142.0786   75.2013  221.5698 H   0  0  0  0  0  0  0  0  0  0  0  0
  141.1183   74.3987  220.2671 H   0  0  0  0  0  0  0  0  0  0  0  0
  142.5986   76.9252  220.2427 H   0  0  0  0  0  0  0  0  0  0  0  0
  141.9585   75.8958  218.8815 H   0  0  0  0  0  0  0  0  0  0  0  0
  141.1046   78.2466  218.9964 H   0  0  0  0  0  0  0  0  0  0  0  0
  139.8735   76.8829  218.9756 H   0  0  0  0  0  0  0  0  0  0  0  0
  140.4777   78.9079  221.0251 H   0  0  0  0  0  0  0  0  0  0  0  0
  138.9174   78.0815  220.4868 H   0  0  0  0  0  0  0  0  0  0  0  0
  139.0692   77.2789  222.5439 H   0  0  0  0  0  0  0  0  0  0  0  0
  140.8046   76.9671  223.9149 H   0  0  0  0  0  0  0  0  0  0  0  0
  142.0015   76.9619  222.5146 H   0  0  0  0  0  0  0  0  0  0  0  0
  143.4128   78.5662  222.4261 H   0  0  0  0  0  0  0  0  0  0  0  0
  143.9832   80.9401  222.7337 H   0  0  0  0  0  0  0  0  0  0  0  0
  142.3553   82.5823  223.6068 H   0  0  0  0  0  0  0  0  0  0  0  0
  140.0397   81.7801  224.1955 H   0  0  0  0  0  0  0  0  0  0  0  0
  139.4664   79.4088  223.8934 H   0  0  0  0  0  0  0  0  0  0  0  0
  141.3742   72.9023  225.2500 H   0  0  0  0  0  0  0  0  0  0  0  0
  141.5402   71.9028  227.5164 H   0  0  0  0  0  0  0  0  0  0  0  0
  141.0957   70.0035  228.9213 H   0  0  0  0  0  0  0  0  0  0  0  0
  140.1879   67.6750  229.2419 H   0  0  0  0  0  0  0  0  0  0  0  0
  139.1862   66.5208  227.2661 H   0  0  0  0  0  0  0  0  0  0  0  0
  139.0791   67.6094  225.0632 H   0  0  0  0  0  0  0  0  0  0  0  0
  1  2  2  0
  2  3  1  0
  3  4  1  0
  4  5  1  0
  5  6  2  0
  5  7  1  0
  7  8  1  0
  8  9  1  0
  9 10  1  0
 10 11  1  0
 11 12  1  0
 12 13  1  0
 13 14  1  0
 14 15  2  0
 15 16  1  0
 16 17  2  0
 17 18  1  0
 18 19  2  0
  2 20  1  0
 20 21  2  0
 21 22  1  0
 22 23  2  0
 23 24  1  0
 24 25  2  0
 25 26  1  0
 26 27  2  0
 27 28  1  0
 28 29  2  0
 12  7  1  0
 19 14  1  0
 29 20  1  0
 28 23  1  0
  3 30  1  0
  4 31  1  0
  4 32  1  0
  8 33  1  0
  8 34  1  0
  9 35  1  0
  9 36  1  0
 10 37  1  0
 10 38  1  0
 11 39  1  0
 11 40  1  0
 12 41  1  1
 13 42  1  0
 13 43  1  0
 15 44  1  0
 16 45  1  0
 17 46  1  0
 18 47  1  0
 19 48  1  0
 21 49  1  0
 22 50  1  0
 24 51  1  0
 25 52  1  0
 26 53  1  0
 27 54  1  0
M  END
>  <smiles>  (19) 
O=C(NCC(=O)N1CCCCC1Cc1ccccc1)c1ccc2ccccc2n1

>  <score_type>  (19) 
oracle

>  <origin>  (19) 
autodockgpu

>  <m_score__min__energy>  (19) 
-9.3399999999999999

>  <m_primary>  (19) 
energy

>  <rmsd>  (19) 
3.312621637410416

>  <m_score__min__rmsd>  (19) 
3.312621637410416

>  <meeko>  (19) 
{"free_energy": -9.1, "intermolecular_energy": -10.89, "internal_energy": -1.54, "cluster_size": 35, "cluster_id": 1, "rank_in_cluster": 8}

>  <energy>  (19) 
-8.94

>  <cluster_rmsd>  (19) 
1.21

>  <cluster>  (19) 
1

$$$$

     RDKit          3D

 54 57  0  0  0  0  0  0  0  0999 V2000
  137.0330   76.3440  222.4840 O   0  0  0  0  0  0  0  0  0  0  0  0
  138.3110   76.3820  222.4810 C   0  0  0  0  0  0  0  0  0  0  0  0
  139.0070   75.1700  222.2190 N   0  0  0  0  0  0  0  0  0  0  0  0
  138.3130   73.9220  221.9590 C   0  0  0  0  0  0  0  0  0  0  0  0
  139.2380   72.8280  222.3110 C   0  0  0  0  0  0  0  0  0  0  0  0
  140.4880   72.9510  222.3840 O   0  0  0  0  0  0  0  0  0  0  0  0
  138.6910   71.5440  222.5880 N   0  0  0  0  0  0  0  0  0  0  0  0
  137.2900   71.2250  222.3370 C   0  0  0  0  0  0  0  0  0  0  0  0
  137.1590   69.8810  221.6510 C   0  0  0  0  0  0  0  0  0  0  0  0
  138.4630   69.3640  221.1220 C   0  0  0  0  0  0  0  0  0  0  0  0
  139.6030   69.4290  222.0890 C   0  0  0  0  0  0  0  0  0  0  0  0
  139.5010   70.4680  223.1420 C   0  0  2  0  0  0  0  0  0  0  0  0
  138.9550   69.9740  224.4550 C   0  0  0  0  0  0  0  0  0  0  0  0
  139.7140   70.3690  225.6380 C   0  0  0  0  0  0  0  0  0  0  0  0
  139.5870   69.5700  226.7820 C   0  0  0  0  0  0  0  0  0  0  0  0
  140.2900   69.9090  227.9210 C   0  0  0  0  0  0  0  0  0  0  0  0
  141.1230   71.0060  227.9970 C   0  0  0  0  0  0  0  0  0  0  0  0
  141.2510   71.8010  226.8580 C   0  0  0  0  0  0  0  0  0  0  0  0
  140.5490   71.4640  225.7190 C   0  0  0  0  0  0  0  0  0  0  0  0
  139.0300   77.6390  222.7420 C   0  0  0  0  0  0  0  0  0  0  0  0
  138.3110   78.7780  222.9460 C   0  0  0  0  0  0  0  0  0  0  0  0
  138.8660   80.0190  223.1990 C   0  0  0  0  0  0  0  0  0  0  0  0
  140.2610   80.0600  223.2400 C   0  0  0  0  0  0  0  0  0  0  0  0
  140.8830   81.2660  223.4890 C   0  0  0  0  0  0  0  0  0  0  0  0
  142.2760   81.3380  223.5360 C   0  0  0  0  0  0  0  0  0  0  0  0
  142.9840   80.1570  223.3230 C   0  0  0  0  0  0  0  0  0  0  0  0
  142.3490   78.9540  223.0750 C   0  0  0  0  0  0  0  0  0  0  0  0
  140.9750   78.8820  223.0290 C   0  0  0  0  0  0  0  0  0  0  0  0
  140.3650   77.7060  222.7860 N   0  0  0  0  0  0  0  0  0  0  0  0
  140.0620   75.2230  222.2220 H   0  0  0  0  0  0  0  0  0  0  0  0
  137.4042   73.8604  222.5756 H   0  0  0  0  0  0  0  0  0  0  0  0
  138.0119   73.8548  220.9031 H   0  0  0  0  0  0  0  0  0  0  0  0
  136.7497   71.1952  223.2947 H   0  0  0  0  0  0  0  0  0  0  0  0
  136.8642   71.9986  221.6811 H   0  0  0  0  0  0  0  0  0  0  0  0
  136.7620   69.1548  222.3756 H   0  0  0  0  0  0  0  0  0  0  0  0
  136.4850   70.0142  220.7920 H   0  0  0  0  0  0  0  0  0  0  0  0
  138.3213   68.3129  220.8304 H   0  0  0  0  0  0  0  0  0  0  0  0
  138.7350   70.0158  220.2787 H   0  0  0  0  0  0  0  0  0  0  0  0
  139.6788   68.4510  222.5868 H   0  0  0  0  0  0  0  0  0  0  0  0
  140.4859   69.6977  221.4904 H   0  0  0  0  0  0  0  0  0  0  0  0
  140.5126   70.8131  223.4018 H   0  0  0  0  0  0  0  0  0  0  0  0
  137.9312   70.3613  224.5639 H   0  0  0  0  0  0  0  0  0  0  0  0
  139.0106   68.8762  224.4122 H   0  0  0  0  0  0  0  0  0  0  0  0
  138.9354   68.6838  226.7728 H   0  0  0  0  0  0  0  0  0  0  0  0
  140.1804   69.2730  228.8118 H   0  0  0  0  0  0  0  0  0  0  0  0
  141.6669   71.2452  228.9227 H   0  0  0  0  0  0  0  0  0  0  0  0
  141.9039   72.6862  226.8678 H   0  0  0  0  0  0  0  0  0  0  0  0
  140.6610   72.1015  224.8296 H   0  0  0  0  0  0  0  0  0  0  0  0
  137.2141   78.7055  222.9068 H   0  0  0  0  0  0  0  0  0  0  0  0
  138.2487   80.9155  223.3576 H   0  0  0  0  0  0  0  0  0  0  0  0
  140.2803   82.1719  223.6507 H   0  0  0  0  0  0  0  0  0  0  0  0
  142.7938   82.2883  223.7331 H   0  0  0  0  0  0  0  0  0  0  0  0
  144.0833   80.1825  223.3531 H   0  0  0  0  0  0  0  0  0  0  0  0
  142.9476   78.0455  222.9128 H   0  0  0  0  0  0  0  0  0  0  0  0
  1  2  2  0
  2  3  1  0
  3  4  1  0
  4  5  1  0
  5  6  2  0
  5  7  1  0
  7  8  1  0
  8  9  1  0
  9 10  1  0
 10 11  1  0
 11 12  1  0
 12 13  1  0
 13 14  1  0
 14 15  2  0
 15 16  1  0
 16 17  2  0
 17 18  1  0
 18 19  2  0
  2 20  1  0
 20 21  2  0
 21 22  1  0
 22 23  2  0
 23 24  1  0
 24 25  2  0
 25 26  1  0
 26 27  2  0
 27 28  1  0
 28 29  2  0
 12  7  1  0
 19 14  1  0
 29 20  1  0
 28 23  1  0
  3 30  1  0
  4 31  1  0
  4 32  1  0
  8 33  1  0
  8 34  1  0
  9 35  1  0
  9 36  1  0
 10 37  1  0
 10 38  1  0
 11 39  1  0
 11 40  1  0
 12 41  1  1
 13 42  1  0
 13 43  1  0
 15 44  1  0
 16 45  1  0
 17 46  1  0
 18 47  1  0
 19 48  1  0
 21 49  1  0
 22 50  1  0
 24 51  1  0
 25 52  1  0
 26 53  1  0
 27 54  1  0
M  END
>  <smiles>  (20) 
O=C(NCC(=O)N1CCCCC1Cc1ccccc1)c1ccc2ccccc2n1

>  <score_type>  (20) 
oracle

>  <origin>  (20) 
autodockgpu

>  <m_score__min__energy>  (20) 
-9.3399999999999999

>  <m_primary>  (20) 
energy

>  <rmsd>  (20) 
8.422527721516715

>  <m_score__min__rmsd>  (20) 
8.422527721516715

>  <meeko>  (20) 
{"free_energy": -8.36, "intermolecular_energy": -10.15, "internal_energy": -2.04, "cluster_size": 9, "cluster_id": 2, "rank_in_cluster": 7}

>  <energy>  (20) 
-8.94

>  <cluster_rmsd>  (20) 
1.22

>  <cluster>  (20) 
1

$$$$

     RDKit          3D

 54 57  0  0  0  0  0  0  0  0999 V2000
  141.2110   72.2960  222.3040 O   0  0  0  0  0  0  0  0  0  0  0  0
  140.2010   72.1080  223.0630 C   0  0  0  0  0  0  0  0  0  0  0  0
  138.9630   72.6880  222.6710 N   0  0  0  0  0  0  0  0  0  0  0  0
  138.8270   73.4690  221.4550 C   0  0  0  0  0  0  0  0  0  0  0  0
  138.8200   74.8900  221.8490 C   0  0  0  0  0  0  0  0  0  0  0  0
  137.8280   75.4840  222.3450 O   0  0  0  0  0  0  0  0  0  0  0  0
  140.0080   75.6500  221.6610 N   0  0  0  0  0  0  0  0  0  0  0  0
  141.2380   75.0560  221.1480 C   0  0  0  0  0  0  0  0  0  0  0  0
  141.8580   75.9360  220.0830 C   0  0  0  0  0  0  0  0  0  0  0  0
  140.9290   77.0090  219.5970 C   0  0  0  0  0  0  0  0  0  0  0  0
  140.2400   77.7800  220.6790 C   0  0  0  0  0  0  0  0  0  0  0  0
  140.0670   77.0720  221.9700 C   0  0  2  0  0  0  0  0  0  0  0  0
  141.1260   77.3780  222.9950 C   0  0  0  0  0  0  0  0  0  0  0  0
  141.4420   78.7930  223.1660 C   0  0  0  0  0  0  0  0  0  0  0  0
  140.3790   79.6630  223.4390 C   0  0  0  0  0  0  0  0  0  0  0  0
  140.6380   81.0090  223.6090 C   0  0  0  0  0  0  0  0  0  0  0  0
  141.9020   81.5530  223.5240 C   0  0  0  0  0  0  0  0  0  0  0  0
  142.9610   80.6870  223.2530 C   0  0  0  0  0  0  0  0  0  0  0  0
  142.7050   79.3410  223.0820 C   0  0  0  0  0  0  0  0  0  0  0  0
  140.3200   71.3180  224.2990 C   0  0  0  0  0  0  0  0  0  0  0  0
  140.9590   71.8660  225.3710 C   0  0  0  0  0  0  0  0  0  0  0  0
  141.1370   71.2280  226.5850 C   0  0  0  0  0  0  0  0  0  0  0  0
  140.6100   69.9380  226.6730 C   0  0  0  0  0  0  0  0  0  0  0  0
  140.7510   69.2440  227.8570 C   0  0  0  0  0  0  0  0  0  0  0  0
  140.2350   67.9520  227.9750 C   0  0  0  0  0  0  0  0  0  0  0  0
  139.5870   67.4190  226.8630 C   0  0  0  0  0  0  0  0  0  0  0  0
  139.4530   68.1250  225.6820 C   0  0  0  0  0  0  0  0  0  0  0  0
  139.9610   69.3990  225.5650 C   0  0  0  0  0  0  0  0  0  0  0  0
  139.8250   70.0810  224.4100 N   0  0  0  0  0  0  0  0  0  0  0  0
  138.1410   72.5200  223.3120 H   0  0  0  0  0  0  0  0  0  0  0  0
  139.6734   73.2686  220.7816 H   0  0  0  0  0  0  0  0  0  0  0  0
  137.9006   73.2063  220.9233 H   0  0  0  0  0  0  0  0  0  0  0  0
  141.9521   74.9345  221.9758 H   0  0  0  0  0  0  0  0  0  0  0  0
  140.9981   74.0795  220.7021 H   0  0  0  0  0  0  0  0  0  0  0  0
  142.7565   76.4131  220.5015 H   0  0  0  0  0  0  0  0  0  0  0  0
  142.0978   75.2934  219.2230 H   0  0  0  0  0  0  0  0  0  0  0  0
  141.5121   77.7174  218.9902 H   0  0  0  0  0  0  0  0  0  0  0  0
  140.1376   76.4991  219.0281 H   0  0  0  0  0  0  0  0  0  0  0  0
  140.8271   78.6904  220.8701 H   0  0  0  0  0  0  0  0  0  0  0  0
  139.2229   77.9714  220.3062 H   0  0  0  0  0  0  0  0  0  0  0  0
  139.1405   77.4232  222.4477 H   0  0  0  0  0  0  0  0  0  0  0  0
  140.7829   76.9874  223.9644 H   0  0  0  0  0  0  0  0  0  0  0  0
  142.0484   76.9037  222.6285 H   0  0  0  0  0  0  0  0  0  0  0  0
  139.3510   79.2793  223.5170 H   0  0  0  0  0  0  0  0  0  0  0  0
  139.7935   81.6806  223.8229 H   0  0  0  0  0  0  0  0  0  0  0  0
  142.0691   82.6311  223.6648 H   0  0  0  0  0  0  0  0  0  0  0  0
  143.9886   81.0719  223.1764 H   0  0  0  0  0  0  0  0  0  0  0  0
  143.5513   78.6717  222.8679 H   0  0  0  0  0  0  0  0  0  0  0  0
  141.3602   72.8845  225.2632 H   0  0  0  0  0  0  0  0  0  0  0  0
  141.6598   71.7058  227.4267 H   0  0  0  0  0  0  0  0  0  0  0  0
  141.2701   69.7087  228.7083 H   0  0  0  0  0  0  0  0  0  0  0  0
  140.3360   67.3783  228.9081 H   0  0  0  0  0  0  0  0  0  0  0  0
  139.1685   66.4037  226.9267 H   0  0  0  0  0  0  0  0  0  0  0  0
  138.9355   67.6643  224.8276 H   0  0  0  0  0  0  0  0  0  0  0  0
  1  2  2  0
  2  3  1  0
  3  4  1  0
  4  5  1  0
  5  6  2  0
  5  7  1  0
  7  8  1  0
  8  9  1  0
  9 10  1  0
 10 11  1  0
 11 12  1  0
 12 13  1  0
 13 14  1  0
 14 15  2  0
 15 16  1  0
 16 17  2  0
 17 18  1  0
 18 19  2  0
  2 20  1  0
 20 21  2  0
 21 22  1  0
 22 23  2  0
 23 24  1  0
 24 25  2  0
 25 26  1  0
 26 27  2  0
 27 28  1  0
 28 29  2  0
 12  7  1  0
 19 14  1  0
 29 20  1  0
 28 23  1  0
  3 30  1  0
  4 31  1  0
  4 32  1  0
  8 33  1  0
  8 34  1  0
  9 35  1  0
  9 36  1  0
 10 37  1  0
 10 38  1  0
 11 39  1  0
 11 40  1  0
 12 41  1  1
 13 42  1  0
 13 43  1  0
 15 44  1  0
 16 45  1  0
 17 46  1  0
 18 47  1  0
 19 48  1  0
 21 49  1  0
 22 50  1  0
 24 51  1  0
 25 52  1  0
 26 53  1  0
 27 54  1  0
M  END
>  <smiles>  (21) 
O=C(NCC(=O)N1CCCCC1Cc1ccccc1)c1ccc2ccccc2n1

>  <score_type>  (21) 
oracle

>  <origin>  (21) 
autodockgpu

>  <m_score__min__energy>  (21) 
-9.3399999999999999

>  <m_primary>  (21) 
energy

>  <rmsd>  (21) 
3.3296929937886857

>  <m_score__min__rmsd>  (21) 
3.3296929937886857

>  <meeko>  (21) 
{"free_energy": -9.1, "intermolecular_energy": -10.89, "internal_energy": -1.57, "cluster_size": 35, "cluster_id": 1, "rank_in_cluster": 9}

>  <energy>  (21) 
-8.88

>  <cluster_rmsd>  (21) 
0.85

>  <cluster>  (21) 
1

$$$$

     RDKit          3D

 54 57  0  0  0  0  0  0  0  0999 V2000
  140.9320   71.5380  221.3780 O   0  0  0  0  0  0  0  0  0  0  0  0
  140.4070   72.1050  222.3950 C   0  0  0  0  0  0  0  0  0  0  0  0
  140.0070   73.4630  222.2610 N   0  0  0  0  0  0  0  0  0  0  0  0
  140.1760   74.2000  221.0210 C   0  0  0  0  0  0  0  0  0  0  0  0
  140.7060   75.5300  221.3740 C   0  0  0  0  0  0  0  0  0  0  0  0
  140.6210   76.0470  222.5170 O   0  0  0  0  0  0  0  0  0  0  0  0
  141.3580   76.2870  220.3600 N   0  0  0  0  0  0  0  0  0  0  0  0
  142.5920   75.8380  219.7270 C   0  0  0  0  0  0  0  0  0  0  0  0
  142.5210   76.0110  218.2240 C   0  0  0  0  0  0  0  0  0  0  0  0
  141.1320   76.2900  217.7330 C   0  0  0  0  0  0  0  0  0  0  0  0
  140.4000   77.3540  218.4900 C   0  0  0  0  0  0  0  0  0  0  0  0
  140.8280   77.5610  219.8940 C   0  0  2  0  0  0  0  0  0  0  0  0
  141.8150   78.6810  220.0860 C   0  0  0  0  0  0  0  0  0  0  0  0
  141.8150   79.2970  221.4100 C   0  0  0  0  0  0  0  0  0  0  0  0
  142.1450   80.6560  221.4890 C   0  0  0  0  0  0  0  0  0  0  0  0
  142.1540   81.2750  222.7240 C   0  0  0  0  0  0  0  0  0  0  0  0
  141.8530   80.6220  223.9000 C   0  0  0  0  0  0  0  0  0  0  0  0
  141.5230   79.2690  223.8210 C   0  0  0  0  0  0  0  0  0  0  0  0
  141.5140   78.6470  222.5890 C   0  0  0  0  0  0  0  0  0  0  0  0
  140.2270   71.3740  223.6590 C   0  0  0  0  0  0  0  0  0  0  0  0
  139.5850   70.1730  223.6380 C   0  0  0  0  0  0  0  0  0  0  0  0
  139.3520   69.3900  224.7550 C   0  0  0  0  0  0  0  0  0  0  0  0
  139.8270   69.9050  225.9630 C   0  0  0  0  0  0  0  0  0  0  0  0
  139.6300   69.1760  227.1170 C   0  0  0  0  0  0  0  0  0  0  0  0
  140.0920   69.6650  228.3410 C   0  0  0  0  0  0  0  0  0  0  0  0
  140.7450   70.8960  228.3300 C   0  0  0  0  0  0  0  0  0  0  0  0
  140.9360   71.6170  227.1660 C   0  0  0  0  0  0  0  0  0  0  0  0
  140.4800   71.1350  225.9590 C   0  0  0  0  0  0  0  0  0  0  0  0
  140.6710   71.8450  224.8300 N   0  0  0  0  0  0  0  0  0  0  0  0
  139.5750   73.9130  223.1130 H   0  0  0  0  0  0  0  0  0  0  0  0
  140.8841   73.6743  220.3635 H   0  0  0  0  0  0  0  0  0  0  0  0
  139.2189   74.2900  220.4863 H   0  0  0  0  0  0  0  0  0  0  0  0
  143.4334   76.4286  220.1184 H   0  0  0  0  0  0  0  0  0  0  0  0
  142.7349   74.7708  219.9521 H   0  0  0  0  0  0  0  0  0  0  0  0
  143.1701   76.8512  217.9365 H   0  0  0  0  0  0  0  0  0  0  0  0
  142.8484   75.0653  217.7674 H   0  0  0  0  0  0  0  0  0  0  0  0
  141.1976   76.6027  216.6804 H   0  0  0  0  0  0  0  0  0  0  0  0
  140.5610   75.3606  217.8752 H   0  0  0  0  0  0  0  0  0  0  0  0
  140.5362   78.3041  217.9527 H   0  0  0  0  0  0  0  0  0  0  0  0
  139.3550   77.0148  218.5445 H   0  0  0  0  0  0  0  0  0  0  0  0
  139.9595   77.8822  220.4877 H   0  0  0  0  0  0  0  0  0  0  0  0
  142.8224   78.2813  219.8979 H   0  0  0  0  0  0  0  0  0  0  0  0
  141.5147   79.4727  219.3838 H   0  0  0  0  0  0  0  0  0  0  0  0
  142.3937   81.2229  220.5797 H   0  0  0  0  0  0  0  0  0  0  0  0
  142.4145   82.3427  222.7713 H   0  0  0  0  0  0  0  0  0  0  0  0
  141.8723   81.1486  224.8655 H   0  0  0  0  0  0  0  0  0  0  0  0
  141.2726   78.7038  224.7309 H   0  0  0  0  0  0  0  0  0  0  0  0
  141.2537   77.5792  222.5450 H   0  0  0  0  0  0  0  0  0  0  0  0
  139.2273   69.8000  222.6670 H   0  0  0  0  0  0  0  0  0  0  0  0
  138.8271   68.4252  224.6953 H   0  0  0  0  0  0  0  0  0  0  0  0
  139.1085   68.2085  227.0734 H   0  0  0  0  0  0  0  0  0  0  0  0
  139.9465   69.1019  229.2747 H   0  0  0  0  0  0  0  0  0  0  0  0
  141.1207   71.3075  229.2784 H   0  0  0  0  0  0  0  0  0  0  0  0
  141.4572   72.5849  227.2041 H   0  0  0  0  0  0  0  0  0  0  0  0
  1  2  2  0
  2  3  1  0
  3  4  1  0
  4  5  1  0
  5  6  2  0
  5  7  1  0
  7  8  1  0
  8  9  1  0
  9 10  1  0
 10 11  1  0
 11 12  1  0
 12 13  1  0
 13 14  1  0
 14 15  2  0
 15 16  1  0
 16 17  2  0
 17 18  1  0
 18 19  2  0
  2 20  1  0
 20 21  2  0
 21 22  1  0
 22 23  2  0
 23 24  1  0
 24 25  2  0
 25 26  1  0
 26 27  2  0
 27 28  1  0
 28 29  2  0
 12  7  1  0
 19 14  1  0
 29 20  1  0
 28 23  1  0
  3 30  1  0
  4 31  1  0
  4 32  1  0
  8 33  1  0
  8 34  1  0
  9 35  1  0
  9 36  1  0
 10 37  1  0
 10 38  1  0
 11 39  1  0
 11 40  1  0
 12 41  1  1
 13 42  1  0
 13 43  1  0
 15 44  1  0
 16 45  1  0
 17 46  1  0
 18 47  1  0
 19 48  1  0
 21 49  1  0
 22 50  1  0
 24 51  1  0
 25 52  1  0
 26 53  1  0
 27 54  1  0
M  END
>  <smiles>  (22) 
O=C(NCC(=O)N1CCCCC1Cc1ccccc1)c1ccc2ccccc2n1

>  <score_type>  (22) 
oracle

>  <origin>  (22) 
autodockgpu

>  <m_score__min__energy>  (22) 
-9.3399999999999999

>  <m_primary>  (22) 
energy

>  <rmsd>  (22) 
2.096103767230798

>  <m_score__min__rmsd>  (22) 
2.096103767230798

>  <meeko>  (22) 
{"free_energy": -9.03, "intermolecular_energy": -10.82, "internal_energy": -1.67, "cluster_size": 35, "cluster_id": 1, "rank_in_cluster": 12}

>  <energy>  (22) 
-8.88

>  <cluster_rmsd>  (22) 
1.39

>  <cluster>  (22) 
1

$$$$

     RDKit          3D

 54 57  0  0  0  0  0  0  0  0999 V2000
  140.9290   71.7470  221.3540 O   0  0  0  0  0  0  0  0  0  0  0  0
  140.4070   72.2650  222.3980 C   0  0  0  0  0  0  0  0  0  0  0  0
  140.0030   73.6270  222.3280 N   0  0  0  0  0  0  0  0  0  0  0  0
  140.1680   74.4210  221.1240 C   0  0  0  0  0  0  0  0  0  0  0  0
  140.7150   75.7270  221.5340 C   0  0  0  0  0  0  0  0  0  0  0  0
  140.7370   76.1470  222.7200 O   0  0  0  0  0  0  0  0  0  0  0  0
  141.2560   76.5790  220.5300 N   0  0  0  0  0  0  0  0  0  0  0  0
  142.6240   76.4350  220.0450 C   0  0  0  0  0  0  0  0  0  0  0  0
  142.6700   76.5110  218.5330 C   0  0  0  0  0  0  0  0  0  0  0  0
  141.3150   76.3960  217.9000 C   0  0  0  0  0  0  0  0  0  0  0  0
  140.2620   77.2680  218.5080 C   0  0  0  0  0  0  0  0  0  0  0  0
  140.4730   77.6470  219.9260 C   0  0  2  0  0  0  0  0  0  0  0  0
  141.1180   78.9930  220.1220 C   0  0  0  0  0  0  0  0  0  0  0  0
  141.4170   79.3490  221.5060 C   0  0  0  0  0  0  0  0  0  0  0  0
  142.5690   80.1100  221.7420 C   0  0  0  0  0  0  0  0  0  0  0  0
  142.8860   80.4670  223.0380 C   0  0  0  0  0  0  0  0  0  0  0  0
  142.1200   80.1140  224.1280 C   0  0  0  0  0  0  0  0  0  0  0  0
  140.9720   79.3570  223.8940 C   0  0  0  0  0  0  0  0  0  0  0  0
  140.6540   78.9980  222.6000 C   0  0  0  0  0  0  0  0  0  0  0  0
  140.2310   71.4760  223.6270 C   0  0  0  0  0  0  0  0  0  0  0  0
  139.5700   70.2870  223.5560 C   0  0  0  0  0  0  0  0  0  0  0  0
  139.3400   69.4540  224.6360 C   0  0  0  0  0  0  0  0  0  0  0  0
  139.8380   69.9020  225.8610 C   0  0  0  0  0  0  0  0  0  0  0  0
  139.6440   69.1200  226.9810 C   0  0  0  0  0  0  0  0  0  0  0  0
  140.1300   69.5410  228.2210 C   0  0  0  0  0  0  0  0  0  0  0  0
  140.8010   70.7610  228.2610 C   0  0  0  0  0  0  0  0  0  0  0  0
  140.9890   71.5350  227.1320 C   0  0  0  0  0  0  0  0  0  0  0  0
  140.5100   71.1200  225.9090 C   0  0  0  0  0  0  0  0  0  0  0  0
  140.6970   71.8820  224.8130 N   0  0  0  0  0  0  0  0  0  0  0  0
  139.5740   74.0360  223.2020 H   0  0  0  0  0  0  0  0  0  0  0  0
  140.8642   73.9204  220.4350 H   0  0  0  0  0  0  0  0  0  0  0  0
  139.2066   74.5463  220.6044 H   0  0  0  0  0  0  0  0  0  0  0  0
  143.2424   77.2417  220.4655 H   0  0  0  0  0  0  0  0  0  0  0  0
  143.0081   75.4537  220.3603 H   0  0  0  0  0  0  0  0  0  0  0  0
  143.1116   77.4760  218.2436 H   0  0  0  0  0  0  0  0  0  0  0  0
  143.2725   75.6616  218.1786 H   0  0  0  0  0  0  0  0  0  0  0  0
  141.4099   76.6643  216.8375 H   0  0  0  0  0  0  0  0  0  0  0  0
  140.9866   75.3581  218.0581 H   0  0  0  0  0  0  0  0  0  0  0  0
  140.2083   78.1937  217.9163 H   0  0  0  0  0  0  0  0  0  0  0  0
  139.3378   76.6717  218.4941 H   0  0  0  0  0  0  0  0  0  0  0  0
  139.4939   77.7601  220.4144 H   0  0  0  0  0  0  0  0  0  0  0  0
  142.0622   79.0022  219.5577 H   0  0  0  0  0  0  0  0  0  0  0  0
  140.3852   79.7341  219.7701 H   0  0  0  0  0  0  0  0  0  0  0  0
  143.2131   80.4194  220.9057 H   0  0  0  0  0  0  0  0  0  0  0  0
  143.7949   81.0626  223.2087 H   0  0  0  0  0  0  0  0  0  0  0  0
  142.4038   80.4184  225.1462 H   0  0  0  0  0  0  0  0  0  0  0  0
  140.3278   79.0498  224.7310 H   0  0  0  0  0  0  0  0  0  0  0  0
  139.7453   78.4012  222.4325 H   0  0  0  0  0  0  0  0  0  0  0  0
  139.1936   69.9676  222.5730 H   0  0  0  0  0  0  0  0  0  0  0  0
  138.8000   68.5009  224.5363 H   0  0  0  0  0  0  0  0  0  0  0  0
  139.1061   68.1641  226.8974 H   0  0  0  0  0  0  0  0  0  0  0  0
  139.9888   68.9346  229.1278 H   0  0  0  0  0  0  0  0  0  0  0  0
  141.1943   71.1202  229.2234 H   0  0  0  0  0  0  0  0  0  0  0  0
  141.5263   72.4916  227.2106 H   0  0  0  0  0  0  0  0  0  0  0  0
  1  2  2  0
  2  3  1  0
  3  4  1  0
  4  5  1  0
  5  6  2  0
  5  7  1  0
  7  8  1  0
  8  9  1  0
  9 10  1  0
 10 11  1  0
 11 12  1  0
 12 13  1  0
 13 14  1  0
 14 15  2  0
 15 16  1  0
 16 17  2  0
 17 18  1  0
 18 19  2  0
  2 20  1  0
 20 21  2  0
 21 22  1  0
 22 23  2  0
 23 24  1  0
 24 25  2  0
 25 26  1  0
 26 27  2  0
 27 28  1  0
 28 29  2  0
 12  7  1  0
 19 14  1  0
 29 20  1  0
 28 23  1  0
  3 30  1  0
  4 31  1  0
  4 32  1  0
  8 33  1  0
  8 34  1  0
  9 35  1  0
  9 36  1  0
 10 37  1  0
 10 38  1  0
 11 39  1  0
 11 40  1  0
 12 41  1  1
 13 42  1  0
 13 43  1  0
 15 44  1  0
 16 45  1  0
 17 46  1  0
 18 47  1  0
 19 48  1  0
 21 49  1  0
 22 50  1  0
 24 51  1  0
 25 52  1  0
 26 53  1  0
 27 54  1  0
M  END
>  <smiles>  (23) 
O=C(NCC(=O)N1CCCCC1Cc1ccccc1)c1ccc2ccccc2n1

>  <score_type>  (23) 
oracle

>  <origin>  (23) 
autodockgpu

>  <m_score__min__energy>  (23) 
-9.3399999999999999

>  <m_primary>  (23) 
energy

>  <rmsd>  (23) 
2.221075780111261

>  <m_score__min__rmsd>  (23) 
2.221075780111261

>  <meeko>  (23) 
{"free_energy": -8.73, "intermolecular_energy": -10.52, "internal_energy": -1.83, "cluster_size": 35, "cluster_id": 1, "rank_in_cluster": 29}

>  <energy>  (23) 
-8.87

>  <cluster_rmsd>  (23) 
0.8

>  <cluster>  (23) 
1

$$$$

     RDKit          3D

 54 57  0  0  0  0  0  0  0  0999 V2000
  140.7940   71.4520  221.3100 O   0  0  0  0  0  0  0  0  0  0  0  0
  140.3510   72.0540  222.3460 C   0  0  0  0  0  0  0  0  0  0  0  0
  140.0040   73.4270  222.2160 N   0  0  0  0  0  0  0  0  0  0  0  0
  140.1380   74.1410  220.9590 C   0  0  0  0  0  0  0  0  0  0  0  0
  140.5210   75.5270  221.2830 C   0  0  0  0  0  0  0  0  0  0  0  0
  140.2890   76.0880  222.3850 O   0  0  0  0  0  0  0  0  0  0  0  0
  141.2000   76.2900  220.2920 N   0  0  0  0  0  0  0  0  0  0  0  0
  142.3790   75.7880  219.5970 C   0  0  0  0  0  0  0  0  0  0  0  0
  142.2790   76.0490  218.1080 C   0  0  0  0  0  0  0  0  0  0  0  0
  140.9020   76.4560  217.6780 C   0  0  0  0  0  0  0  0  0  0  0  0
  140.2730   77.5270  218.5130 C   0  0  0  0  0  0  0  0  0  0  0  0
  140.7540   77.6230  219.9120 C   0  0  2  0  0  0  0  0  0  0  0  0
  141.8270   78.6560  220.1320 C   0  0  0  0  0  0  0  0  0  0  0  0
  141.8080   79.3120  221.4360 C   0  0  0  0  0  0  0  0  0  0  0  0
  141.8250   80.7120  221.4550 C   0  0  0  0  0  0  0  0  0  0  0  0
  141.8060   81.3690  222.6690 C   0  0  0  0  0  0  0  0  0  0  0  0
  141.7710   80.7160  223.8830 C   0  0  0  0  0  0  0  0  0  0  0  0
  141.7530   79.3210  223.8650 C   0  0  0  0  0  0  0  0  0  0  0  0
  141.7720   78.6620  222.6530 C   0  0  0  0  0  0  0  0  0  0  0  0
  140.2090   71.3460  223.6280 C   0  0  0  0  0  0  0  0  0  0  0  0
  139.5830   70.1350  223.6450 C   0  0  0  0  0  0  0  0  0  0  0  0
  139.3860   69.3720  224.7820 C   0  0  0  0  0  0  0  0  0  0  0  0
  139.8790   69.9180  225.9680 C   0  0  0  0  0  0  0  0  0  0  0  0
  139.7170   69.2090  227.1410 C   0  0  0  0  0  0  0  0  0  0  0  0
  140.1990   69.7290  228.3440 C   0  0  0  0  0  0  0  0  0  0  0  0
  140.8330   70.9680  228.2950 C   0  0  0  0  0  0  0  0  0  0  0  0
  140.9890   71.6680  227.1130 C   0  0  0  0  0  0  0  0  0  0  0  0
  140.5150   71.1560  225.9270 C   0  0  0  0  0  0  0  0  0  0  0  0
  140.6700   71.8460  224.7790 N   0  0  0  0  0  0  0  0  0  0  0  0
  139.6410   73.9050  223.0840 H   0  0  0  0  0  0  0  0  0  0  0  0
  140.9155   73.6703  220.3394 H   0  0  0  0  0  0  0  0  0  0  0  0
  139.1939   74.1187  220.3950 H   0  0  0  0  0  0  0  0  0  0  0  0
  143.2727   76.2931  219.9922 H   0  0  0  0  0  0  0  0  0  0  0  0
  142.4483   74.7024  219.7603 H   0  0  0  0  0  0  0  0  0  0  0  0
  142.9811   76.8539  217.8449 H   0  0  0  0  0  0  0  0  0  0  0  0
  142.5216   75.1088  217.5912 H   0  0  0  0  0  0  0  0  0  0  0  0
  140.9612   76.8208  216.6419 H   0  0  0  0  0  0  0  0  0  0  0  0
  140.2673   75.5645  217.7896 H   0  0  0  0  0  0  0  0  0  0  0  0
  140.4655   78.4930  218.0233 H   0  0  0  0  0  0  0  0  0  0  0  0
  139.2072   77.2636  218.5819 H   0  0  0  0  0  0  0  0  0  0  0  0
  139.9286   77.9725  220.5497 H   0  0  0  0  0  0  0  0  0  0  0  0
  142.8027   78.1617  220.0152 H   0  0  0  0  0  0  0  0  0  0  0  0
  141.6407   79.4482  219.3919 H   0  0  0  0  0  0  0  0  0  0  0  0
  141.8531   81.2813  220.5142 H   0  0  0  0  0  0  0  0  0  0  0  0
  141.8195   82.4689  222.6678 H   0  0  0  0  0  0  0  0  0  0  0  0
  141.7577   81.2743  224.8307 H   0  0  0  0  0  0  0  0  0  0  0  0
  141.7240   78.7530  224.8065 H   0  0  0  0  0  0  0  0  0  0  0  0
  141.7577   77.5621  222.6569 H   0  0  0  0  0  0  0  0  0  0  0  0
  139.2092   69.7377  222.6898 H   0  0  0  0  0  0  0  0  0  0  0  0
  138.8743   68.3987  224.7532 H   0  0  0  0  0  0  0  0  0  0  0  0
  139.2080   68.2339  227.1282 H   0  0  0  0  0  0  0  0  0  0  0  0
  140.0827   69.1824  229.2915 H   0  0  0  0  0  0  0  0  0  0  0  0
  141.2223   71.4038  229.2269 H   0  0  0  0  0  0  0  0  0  0  0  0
  141.4969   72.6437  227.1208 H   0  0  0  0  0  0  0  0  0  0  0  0
  1  2  2  0
  2  3  1  0
  3  4  1  0
  4  5  1  0
  5  6  2  0
  5  7  1  0
  7  8  1  0
  8  9  1  0
  9 10  1  0
 10 11  1  0
 11 12  1  0
 12 13  1  0
 13 14  1  0
 14 15  2  0
 15 16  1  0
 16 17  2  0
 17 18  1  0
 18 19  2  0
  2 20  1  0
 20 21  2  0
 21 22  1  0
 22 23  2  0
 23 24  1  0
 24 25  2  0
 25 26  1  0
 26 27  2  0
 27 28  1  0
 28 29  2  0
 12  7  1  0
 19 14  1  0
 29 20  1  0
 28 23  1  0
  3 30  1  0
  4 31  1  0
  4 32  1  0
  8 33  1  0
  8 34  1  0
  9 35  1  0
  9 36  1  0
 10 37  1  0
 10 38  1  0
 11 39  1  0
 11 40  1  0
 12 41  1  1
 13 42  1  0
 13 43  1  0
 15 44  1  0
 16 45  1  0
 17 46  1  0
 18 47  1  0
 19 48  1  0
 21 49  1  0
 22 50  1  0
 24 51  1  0
 25 52  1  0
 26 53  1  0
 27 54  1  0
M  END
>  <smiles>  (24) 
O=C(NCC(=O)N1CCCCC1Cc1ccccc1)c1ccc2ccccc2n1

>  <score_type>  (24) 
oracle

>  <origin>  (24) 
autodockgpu

>  <m_score__min__energy>  (24) 
-9.3399999999999999

>  <m_primary>  (24) 
energy

>  <rmsd>  (24) 
2.0269991368642484

>  <m_score__min__rmsd>  (24) 
2.0269991368642484

>  <meeko>  (24) 
{"free_energy": -8.94, "intermolecular_energy": -10.73, "internal_energy": -1.84, "cluster_size": 35, "cluster_id": 1, "rank_in_cluster": 19}

>  <energy>  (24) 
-8.85

>  <cluster_rmsd>  (24) 
1.54

>  <cluster>  (24) 
1

$$$$

     RDKit          3D

 54 57  0  0  0  0  0  0  0  0999 V2000
  140.5580   71.6380  221.3100 O   0  0  0  0  0  0  0  0  0  0  0  0
  140.1890   72.1860  222.4030 C   0  0  0  0  0  0  0  0  0  0  0  0
  139.8460   73.5660  222.3680 N   0  0  0  0  0  0  0  0  0  0  0  0
  139.9040   74.3450  221.1440 C   0  0  0  0  0  0  0  0  0  0  0  0
  140.4980   75.6500  221.4870 C   0  0  0  0  0  0  0  0  0  0  0  0
  140.3510   76.2280  222.5950 O   0  0  0  0  0  0  0  0  0  0  0  0
  141.2920   76.3090  220.5070 N   0  0  0  0  0  0  0  0  0  0  0  0
  142.5830   75.7870  220.0730 C   0  0  0  0  0  0  0  0  0  0  0  0
  142.7040   75.8350  218.5640 C   0  0  0  0  0  0  0  0  0  0  0  0
  141.3950   76.0980  217.8810 C   0  0  0  0  0  0  0  0  0  0  0  0
  140.6050   77.2340  218.4510 C   0  0  0  0  0  0  0  0  0  0  0  0
  140.8610   77.5490  219.8770 C   0  0  2  0  0  0  0  0  0  0  0  0
  141.8480   78.6640  220.1010 C   0  0  0  0  0  0  0  0  0  0  0  0
  141.7620   79.3240  221.4000 C   0  0  0  0  0  0  0  0  0  0  0  0
  141.5990   80.7160  221.4070 C   0  0  0  0  0  0  0  0  0  0  0  0
  141.5130   81.3770  222.6170 C   0  0  0  0  0  0  0  0  0  0  0  0
  141.5780   80.7360  223.8360 C   0  0  0  0  0  0  0  0  0  0  0  0
  141.7390   79.3500  223.8300 C   0  0  0  0  0  0  0  0  0  0  0  0
  141.8260   78.6870  222.6230 C   0  0  0  0  0  0  0  0  0  0  0  0
  140.1240   71.4110  223.6520 C   0  0  0  0  0  0  0  0  0  0  0  0
  139.5720   70.1660  223.6260 C   0  0  0  0  0  0  0  0  0  0  0  0
  139.4520   69.3390  224.7290 C   0  0  0  0  0  0  0  0  0  0  0  0
  139.9430   69.8580  225.9280 C   0  0  0  0  0  0  0  0  0  0  0  0
  139.8560   69.0870  227.0690 C   0  0  0  0  0  0  0  0  0  0  0  0
  140.3380   69.5780  228.2840 C   0  0  0  0  0  0  0  0  0  0  0  0
  140.8960   70.8540  228.2790 C   0  0  0  0  0  0  0  0  0  0  0  0
  140.9780   71.6170  227.1290 C   0  0  0  0  0  0  0  0  0  0  0  0
  140.5030   71.1340  225.9310 C   0  0  0  0  0  0  0  0  0  0  0  0
  140.5860   71.8840  224.8150 N   0  0  0  0  0  0  0  0  0  0  0  0
  139.5440   73.9990  223.2820 H   0  0  0  0  0  0  0  0  0  0  0  0
  140.5286   73.8306  220.3988 H   0  0  0  0  0  0  0  0  0  0  0  0
  138.8996   74.4734  220.7143 H   0  0  0  0  0  0  0  0  0  0  0  0
  143.3852   76.3936  220.5184 H   0  0  0  0  0  0  0  0  0  0  0  0
  142.6674   74.7401  220.3999 H   0  0  0  0  0  0  0  0  0  0  0  0
  143.4079   76.6359  218.2937 H   0  0  0  0  0  0  0  0  0  0  0  0
  143.0579   74.8485  218.2300 H   0  0  0  0  0  0  0  0  0  0  0  0
  141.5999   76.3207  216.8234 H   0  0  0  0  0  0  0  0  0  0  0  0
  140.7845   75.1943  218.0248 H   0  0  0  0  0  0  0  0  0  0  0  0
  140.8339   78.1335  217.8607 H   0  0  0  0  0  0  0  0  0  0  0  0
  139.5520   76.9199  218.3997 H   0  0  0  0  0  0  0  0  0  0  0  0
  139.9350   77.9338  220.3293 H   0  0  0  0  0  0  0  0  0  0  0  0
  142.8606   78.2467  219.9987 H   0  0  0  0  0  0  0  0  0  0  0  0
  141.6101   79.4346  219.3529 H   0  0  0  0  0  0  0  0  0  0  0  0
  141.5403   81.2749  220.4614 H   0  0  0  0  0  0  0  0  0  0  0  0
  141.3863   82.4696  222.6075 H   0  0  0  0  0  0  0  0  0  0  0  0
  141.5055   81.2971  224.7794 H   0  0  0  0  0  0  0  0  0  0  0  0
  141.7959   78.7924  224.7765 H   0  0  0  0  0  0  0  0  0  0  0  0
  141.9529   77.5944  222.6360 H   0  0  0  0  0  0  0  0  0  0  0  0
  139.1959   69.7924  222.6622 H   0  0  0  0  0  0  0  0  0  0  0  0
  138.9994   68.3385  224.6650 H   0  0  0  0  0  0  0  0  0  0  0  0
  139.4064   68.0842  227.0214 H   0  0  0  0  0  0  0  0  0  0  0  0
  140.2794   68.9819  229.2066 H   0  0  0  0  0  0  0  0  0  0  0  0
  141.2843   71.2684  229.2211 H   0  0  0  0  0  0  0  0  0  0  0  0
  141.4274   72.6201  227.1720 H   0  0  0  0  0  0  0  0  0  0  0  0
  1  2  2  0
  2  3  1  0
  3  4  1  0
  4  5  1  0
  5  6  2  0
  5  7  1  0
  7  8  1  0
  8  9  1  0
  9 10  1  0
 10 11  1  0
 11 12  1  0
 12 13  1  0
 13 14  1  0
 14 15  2  0
 15 16  1  0
 16 17  2  0
 17 18  1  0
 18 19  2  0
  2 20  1  0
 20 21  2  0
 21 22  1  0
 22 23  2  0
 23 24  1  0
 24 25  2  0
 25 26  1  0
 26 27  2  0
 27 28  1  0
 28 29  2  0
 12  7  1  0
 19 14  1  0
 29 20  1  0
 28 23  1  0
  3 30  1  0
  4 31  1  0
  4 32  1  0
  8 33  1  0
  8 34  1  0
  9 35  1  0
  9 36  1  0
 10 37  1  0
 10 38  1  0
 11 39  1  0
 11 40  1  0
 12 41  1  1
 13 42  1  0
 13 43  1  0
 15 44  1  0
 16 45  1  0
 17 46  1  0
 18 47  1  0
 19 48  1  0
 21 49  1  0
 22 50  1  0
 24 51  1  0
 25 52  1  0
 26 53  1  0
 27 54  1  0
M  END
>  <smiles>  (25) 
O=C(NCC(=O)N1CCCCC1Cc1ccccc1)c1ccc2ccccc2n1

>  <score_type>  (25) 
oracle

>  <origin>  (25) 
autodockgpu

>  <m_score__min__energy>  (25) 
-9.3399999999999999

>  <m_primary>  (25) 
energy

>  <rmsd>  (25) 
2.0975581595942923

>  <m_score__min__rmsd>  (25) 
2.0975581595942923

>  <meeko>  (25) 
{"free_energy": -8.95, "intermolecular_energy": -10.74, "internal_energy": -1.78, "cluster_size": 35, "cluster_id": 1, "rank_in_cluster": 18}

>  <energy>  (25) 
-8.84

>  <cluster_rmsd>  (25) 
1.18

>  <cluster>  (25) 
1

$$$$

     RDKit          3D

 54 57  0  0  0  0  0  0  0  0999 V2000
  140.5650   71.3290  221.2770 O   0  0  0  0  0  0  0  0  0  0  0  0
  140.0440   71.8780  222.3060 C   0  0  0  0  0  0  0  0  0  0  0  0
  139.4460   73.1570  222.1410 N   0  0  0  0  0  0  0  0  0  0  0  0
  139.4150   73.8360  220.8580 C   0  0  0  0  0  0  0  0  0  0  0  0
  140.5050   74.8300  220.8640 C   0  0  0  0  0  0  0  0  0  0  0  0
  141.7290   74.5410  220.8810 O   0  0  0  0  0  0  0  0  0  0  0  0
  140.1600   76.2100  220.8500 N   0  0  0  0  0  0  0  0  0  0  0  0
  139.2690   76.7790  219.8450 C   0  0  0  0  0  0  0  0  0  0  0  0
  138.2460   77.6940  220.4860 C   0  0  0  0  0  0  0  0  0  0  0  0
  138.1890   77.5520  221.9780 C   0  0  0  0  0  0  0  0  0  0  0  0
  139.5200   77.5740  222.6620 C   0  0  0  0  0  0  0  0  0  0  0  0
  140.6770   77.1400  221.8430 C   0  0  2  0  0  0  0  0  0  0  0  0
  141.4480   78.2670  221.2070 C   0  0  0  0  0  0  0  0  0  0  0  0
  141.7430   79.3970  222.0830 C   0  0  0  0  0  0  0  0  0  0  0  0
  141.0320   80.5840  221.8680 C   0  0  0  0  0  0  0  0  0  0  0  0
  141.2830   81.6750  222.6760 C   0  0  0  0  0  0  0  0  0  0  0  0
  142.2070   81.6620  223.7000 C   0  0  0  0  0  0  0  0  0  0  0  0
  142.9150   80.4790  223.9160 C   0  0  0  0  0  0  0  0  0  0  0  0
  142.6670   79.3880  223.1090 C   0  0  0  0  0  0  0  0  0  0  0  0
  140.0660   71.2040  223.6140 C   0  0  0  0  0  0  0  0  0  0  0  0
  139.5670   69.9400  223.7110 C   0  0  0  0  0  0  0  0  0  0  0  0
  139.5300   69.2010  224.8800 C   0  0  0  0  0  0  0  0  0  0  0  0
  140.0490   69.8340  226.0110 C   0  0  0  0  0  0  0  0  0  0  0  0
  140.0440   69.1540  227.2120 C   0  0  0  0  0  0  0  0  0  0  0  0
  140.5560   69.7610  228.3600 C   0  0  0  0  0  0  0  0  0  0  0  0
  141.0590   71.0530  228.2300 C   0  0  0  0  0  0  0  0  0  0  0  0
  141.0580   71.7230  227.0210 C   0  0  0  0  0  0  0  0  0  0  0  0
  140.5530   71.1260  225.8870 C   0  0  0  0  0  0  0  0  0  0  0  0
  140.5560   71.7870  224.7130 N   0  0  0  0  0  0  0  0  0  0  0  0
  139.0220   73.5930  223.0040 H   0  0  0  0  0  0  0  0  0  0  0  0
  139.5698   73.1119  220.0446 H   0  0  0  0  0  0  0  0  0  0  0  0
  138.4423   74.3241  220.6980 H   0  0  0  0  0  0  0  0  0  0  0  0
  139.8639   77.3550  219.1209 H   0  0  0  0  0  0  0  0  0  0  0  0
  138.7389   75.9581  219.3399 H   0  0  0  0  0  0  0  0  0  0  0  0
  138.5047   78.7350  220.2422 H   0  0  0  0  0  0  0  0  0  0  0  0
  137.2588   77.4138  220.0900 H   0  0  0  0  0  0  0  0  0  0  0  0
  137.5852   78.3800  222.3777 H   0  0  0  0  0  0  0  0  0  0  0  0
  137.7543   76.5616  222.1783 H   0  0  0  0  0  0  0  0  0  0  0  0
  139.7107   78.6049  222.9949 H   0  0  0  0  0  0  0  0  0  0  0  0
  139.4453   76.8440  223.4814 H   0  0  0  0  0  0  0  0  0  0  0  0
  141.4189   76.6620  222.4995 H   0  0  0  0  0  0  0  0  0  0  0  0
  142.4035   77.8614  220.8430 H   0  0  0  0  0  0  0  0  0  0  0  0
  140.8028   78.6628  220.4089 H   0  0  0  0  0  0  0  0  0  0  0  0
  140.2826   80.6465  221.0652 H   0  0  0  0  0  0  0  0  0  0  0  0
  140.7178   82.6010  222.4940 H   0  0  0  0  0  0  0  0  0  0  0  0
  142.3795   82.5516  224.3236 H   0  0  0  0  0  0  0  0  0  0  0  0
  143.6624   80.4171  224.7207 H   0  0  0  0  0  0  0  0  0  0  0  0
  143.2344   78.4636  223.2922 H   0  0  0  0  0  0  0  0  0  0  0  0
  139.1664   69.4755  222.7979 H   0  0  0  0  0  0  0  0  0  0  0  0
  139.1186   68.1815  224.9160 H   0  0  0  0  0  0  0  0  0  0  0  0
  139.6365   68.1336  227.2646 H   0  0  0  0  0  0  0  0  0  0  0  0
  140.5619   69.2396  229.3286 H   0  0  0  0  0  0  0  0  0  0  0  0
  141.4701   71.5563  229.1175 H   0  0  0  0  0  0  0  0  0  0  0  0
  141.4647   72.7435  226.9639 H   0  0  0  0  0  0  0  0  0  0  0  0
  1  2  2  0
  2  3  1  0
  3  4  1  0
  4  5  1  0
  5  6  2  0
  5  7  1  0
  7  8  1  0
  8  9  1  0
  9 10  1  0
 10 11  1  0
 11 12  1  0
 12 13  1  0
 13 14  1  0
 14 15  2  0
 15 16  1  0
 16 17  2  0
 17 18  1  0
 18 19  2  0
  2 20  1  0
 20 21  2  0
 21 22  1  0
 22 23  2  0
 23 24  1  0
 24 25  2  0
 25 26  1  0
 26 27  2  0
 27 28  1  0
 28 29  2  0
 12  7  1  0
 19 14  1  0
 29 20  1  0
 28 23  1  0
  3 30  1  0
  4 31  1  0
  4 32  1  0
  8 33  1  0
  8 34  1  0
  9 35  1  0
  9 36  1  0
 10 37  1  0
 10 38  1  0
 11 39  1  0
 11 40  1  0
 12 41  1  1
 13 42  1  0
 13 43  1  0
 15 44  1  0
 16 45  1  0
 17 46  1  0
 18 47  1  0
 19 48  1  0
 21 49  1  0
 22 50  1  0
 24 51  1  0
 25 52  1  0
 26 53  1  0
 27 54  1  0
M  END
>  <smiles>  (26) 
O=C(NCC(=O)N1CCCCC1Cc1ccccc1)c1ccc2ccccc2n1

>  <score_type>  (26) 
oracle

>  <origin>  (26) 
autodockgpu

>  <m_score__min__energy>  (26) 
-9.3399999999999999

>  <m_primary>  (26) 
energy

>  <rmsd>  (26) 
2.138915692015243

>  <m_score__min__rmsd>  (26) 
2.138915692015243

>  <meeko>  (26) 
{"free_energy": -9.08, "intermolecular_energy": -10.87, "internal_energy": -1.48, "cluster_size": 35, "cluster_id": 1, "rank_in_cluster": 10}

>  <energy>  (26) 
-8.79

>  <cluster_rmsd>  (26) 
1.07

>  <cluster>  (26) 
1

$$$$

     RDKit          3D

 54 57  0  0  0  0  0  0  0  0999 V2000
  139.7310   71.3320  221.2210 O   0  0  0  0  0  0  0  0  0  0  0  0
  139.7130   71.9810  222.3210 C   0  0  0  0  0  0  0  0  0  0  0  0
  139.5390   73.3900  222.2540 N   0  0  0  0  0  0  0  0  0  0  0  0
  139.3830   74.0900  220.9910 C   0  0  0  0  0  0  0  0  0  0  0  0
  140.7160   74.5850  220.6010 C   0  0  0  0  0  0  0  0  0  0  0  0
  141.5890   73.8910  220.0190 O   0  0  0  0  0  0  0  0  0  0  0  0
  141.0480   75.9370  220.8960 N   0  0  0  0  0  0  0  0  0  0  0  0
  142.2060   76.6000  220.3080 C   0  0  0  0  0  0  0  0  0  0  0  0
  141.8410   77.9850  219.8160 C   0  0  0  0  0  0  0  0  0  0  0  0
  140.3600   78.2150  219.7590 C   0  0  0  0  0  0  0  0  0  0  0  0
  139.6140   77.8060  220.9900 C   0  0  0  0  0  0  0  0  0  0  0  0
  140.2460   76.7420  221.8080 C   0  0  2  0  0  0  0  0  0  0  0  0
  141.0590   77.2490  222.9690 C   0  0  0  0  0  0  0  0  0  0  0  0
  141.2380   78.6970  223.0230 C   0  0  0  0  0  0  0  0  0  0  0  0
  142.4960   79.2050  222.6740 C   0  0  0  0  0  0  0  0  0  0  0  0
  142.7040   80.5700  222.7120 C   0  0  0  0  0  0  0  0  0  0  0  0
  141.7300   81.4740  223.0790 C   0  0  0  0  0  0  0  0  0  0  0  0
  140.4770   80.9690  223.4260 C   0  0  0  0  0  0  0  0  0  0  0  0
  140.2670   79.6050  223.3900 C   0  0  0  0  0  0  0  0  0  0  0  0
  139.8680   71.2880  223.6100 C   0  0  0  0  0  0  0  0  0  0  0  0
  139.4890   69.9820  223.7040 C   0  0  0  0  0  0  0  0  0  0  0  0
  139.5840   69.2210  224.8560 C   0  0  0  0  0  0  0  0  0  0  0  0
  140.1090   69.8770  225.9710 C   0  0  0  0  0  0  0  0  0  0  0  0
  140.2320   69.1770  227.1540 C   0  0  0  0  0  0  0  0  0  0  0  0
  140.7530   69.8060  228.2870 C   0  0  0  0  0  0  0  0  0  0  0  0
  141.1310   71.1400  228.1590 C   0  0  0  0  0  0  0  0  0  0  0  0
  141.0030   71.8300  226.9680 C   0  0  0  0  0  0  0  0  0  0  0  0
  140.4890   71.2110  225.8510 C   0  0  0  0  0  0  0  0  0  0  0  0
  140.3670   71.8910  224.6940 N   0  0  0  0  0  0  0  0  0  0  0  0
  139.5270   73.9070  223.1750 H   0  0  0  0  0  0  0  0  0  0  0  0
  138.9967   73.4026  220.2240 H   0  0  0  0  0  0  0  0  0  0  0  0
  138.6705   74.9221  221.0904 H   0  0  0  0  0  0  0  0  0  0  0  0
  142.9974   76.6841  221.0673 H   0  0  0  0  0  0  0  0  0  0  0  0
  142.5571   76.0035  219.4531 H   0  0  0  0  0  0  0  0  0  0  0  0
  142.2851   78.7269  220.4960 H   0  0  0  0  0  0  0  0  0  0  0  0
  142.2290   78.0832  218.7914 H   0  0  0  0  0  0  0  0  0  0  0  0
  140.1865   79.2887  219.5945 H   0  0  0  0  0  0  0  0  0  0  0  0
  139.9797   77.5839  218.9422 H   0  0  0  0  0  0  0  0  0  0  0  0
  139.4993   78.6963  221.6258 H   0  0  0  0  0  0  0  0  0  0  0  0
  138.6631   77.3824  220.6344 H   0  0  0  0  0  0  0  0  0  0  0  0
  139.4569   76.1464  222.2902 H   0  0  0  0  0  0  0  0  0  0  0  0
  140.5590   76.9340  223.8968 H   0  0  0  0  0  0  0  0  0  0  0  0
  142.0656   76.8236  222.8430 H   0  0  0  0  0  0  0  0  0  0  0  0
  143.3075   78.5258  222.3736 H   0  0  0  0  0  0  0  0  0  0  0  0
  143.6966   80.9551  222.4356 H   0  0  0  0  0  0  0  0  0  0  0  0
  141.9337   82.5548  223.0975 H   0  0  0  0  0  0  0  0  0  0  0  0
  139.6659   81.6494  223.7247 H   0  0  0  0  0  0  0  0  0  0  0  0
  139.2739   79.2227  223.6684 H   0  0  0  0  0  0  0  0  0  0  0  0
  139.0801   69.5005  222.8035 H   0  0  0  0  0  0  0  0  0  0  0  0
  139.2667   68.1683  224.8909 H   0  0  0  0  0  0  0  0  0  0  0  0
  139.9196   68.1235  227.2046 H   0  0  0  0  0  0  0  0  0  0  0  0
  140.8603   69.2695  229.2413 H   0  0  0  0  0  0  0  0  0  0  0  0
  141.5450   71.6619  229.0343 H   0  0  0  0  0  0  0  0  0  0  0  0
  141.3148   72.8834  226.9123 H   0  0  0  0  0  0  0  0  0  0  0  0
  1  2  2  0
  2  3  1  0
  3  4  1  0
  4  5  1  0
  5  6  2  0
  5  7  1  0
  7  8  1  0
  8  9  1  0
  9 10  1  0
 10 11  1  0
 11 12  1  0
 12 13  1  0
 13 14  1  0
 14 15  2  0
 15 16  1  0
 16 17  2  0
 17 18  1  0
 18 19  2  0
  2 20  1  0
 20 21  2  0
 21 22  1  0
 22 23  2  0
 23 24  1  0
 24 25  2  0
 25 26  1  0
 26 27  2  0
 27 28  1  0
 28 29  2  0
 12  7  1  0
 19 14  1  0
 29 20  1  0
 28 23  1  0
  3 30  1  0
  4 31  1  0
  4 32  1  0
  8 33  1  0
  8 34  1  0
  9 35  1  0
  9 36  1  0
 10 37  1  0
 10 38  1  0
 11 39  1  0
 11 40  1  0
 12 41  1  1
 13 42  1  0
 13 43  1  0
 15 44  1  0
 16 45  1  0
 17 46  1  0
 18 47  1  0
 19 48  1  0
 21 49  1  0
 22 50  1  0
 24 51  1  0
 25 52  1  0
 26 53  1  0
 27 54  1  0
M  END
>  <smiles>  (27) 
O=C(NCC(=O)N1CCCCC1Cc1ccccc1)c1ccc2ccccc2n1

>  <score_type>  (27) 
oracle

>  <origin>  (27) 
autodockgpu

>  <m_score__min__energy>  (27) 
-9.3399999999999999

>  <m_primary>  (27) 
energy

>  <rmsd>  (27) 
2.55113266736314

>  <m_score__min__rmsd>  (27) 
2.55113266736314

>  <meeko>  (27) 
{"free_energy": -8.88, "intermolecular_energy": -10.67, "internal_energy": -1.61, "cluster_size": 35, "cluster_id": 1, "rank_in_cluster": 21}

>  <energy>  (27) 
-8.77

>  <cluster_rmsd>  (27) 
1.14

>  <cluster>  (27) 
1

$$$$

     RDKit          3D

 54 57  0  0  0  0  0  0  0  0999 V2000
  140.8000   71.6330  221.3480 O   0  0  0  0  0  0  0  0  0  0  0  0
  140.3130   72.1880  222.3910 C   0  0  0  0  0  0  0  0  0  0  0  0
  139.9520   73.5610  222.3000 N   0  0  0  0  0  0  0  0  0  0  0  0
  140.1200   74.3240  221.0760 C   0  0  0  0  0  0  0  0  0  0  0  0
  140.4580   75.7050  221.4680 C   0  0  0  0  0  0  0  0  0  0  0  0
  140.3730   76.1510  222.6410 O   0  0  0  0  0  0  0  0  0  0  0  0
  140.9120   76.6010  220.4590 N   0  0  0  0  0  0  0  0  0  0  0  0
  142.2760   76.5650  219.9450 C   0  0  0  0  0  0  0  0  0  0  0  0
  142.2850   76.6530  218.4330 C   0  0  0  0  0  0  0  0  0  0  0  0
  140.9290   76.4390  217.8280 C   0  0  0  0  0  0  0  0  0  0  0  0
  139.8260   77.2250  218.4630 C   0  0  0  0  0  0  0  0  0  0  0  0
  140.0370   77.6100  219.8790 C   0  0  2  0  0  0  0  0  0  0  0  0
  140.5820   79.0000  220.0720 C   0  0  0  0  0  0  0  0  0  0  0  0
  140.9980   79.3270  221.4330 C   0  0  0  0  0  0  0  0  0  0  0  0
  142.2170   79.9990  221.5920 C   0  0  0  0  0  0  0  0  0  0  0  0
  142.6440   80.3260  222.8630 C   0  0  0  0  0  0  0  0  0  0  0  0
  141.9280   80.0260  224.0030 C   0  0  0  0  0  0  0  0  0  0  0  0
  140.7130   79.3580  223.8460 C   0  0  0  0  0  0  0  0  0  0  0  0
  140.2840   79.0290  222.5760 C   0  0  0  0  0  0  0  0  0  0  0  0
  140.1350   71.4290  223.6390 C   0  0  0  0  0  0  0  0  0  0  0  0
  139.5310   70.2090  223.5860 C   0  0  0  0  0  0  0  0  0  0  0  0
  139.3050   69.4000  224.6850 C   0  0  0  0  0  0  0  0  0  0  0  0
  139.7420   69.9080  225.9090 C   0  0  0  0  0  0  0  0  0  0  0  0
  139.5490   69.1520  227.0470 C   0  0  0  0  0  0  0  0  0  0  0  0
  139.9760   69.6340  228.2870 C   0  0  0  0  0  0  0  0  0  0  0  0
  140.5890   70.8840  228.3090 C   0  0  0  0  0  0  0  0  0  0  0  0
  140.7770   71.6320  227.1610 C   0  0  0  0  0  0  0  0  0  0  0  0
  140.3570   71.1580  225.9380 C   0  0  0  0  0  0  0  0  0  0  0  0
  140.5440   71.8930  224.8240 N   0  0  0  0  0  0  0  0  0  0  0  0
  139.5510   74.0010  223.1720 H   0  0  0  0  0  0  0  0  0  0  0  0
  140.9324   73.8938  220.4719 H   0  0  0  0  0  0  0  0  0  0  0  0
  139.2007   74.3025  220.4723 H   0  0  0  0  0  0  0  0  0  0  0  0
  142.8396   77.4142  220.3588 H   0  0  0  0  0  0  0  0  0  0  0  0
  142.7402   75.6139  220.2450 H   0  0  0  0  0  0  0  0  0  0  0  0
  142.6460   77.6504  218.1415 H   0  0  0  0  0  0  0  0  0  0  0  0
  142.9430   75.8544  218.0596 H   0  0  0  0  0  0  0  0  0  0  0  0
  140.9806   76.7191  216.7655 H   0  0  0  0  0  0  0  0  0  0  0  0
  140.6837   75.3785  217.9868 H   0  0  0  0  0  0  0  0  0  0  0  0
  139.6906   78.1476  217.8795 H   0  0  0  0  0  0  0  0  0  0  0  0
  138.9491   76.5609  218.4627 H   0  0  0  0  0  0  0  0  0  0  0  0
  139.0625   77.6449  220.3880 H   0  0  0  0  0  0  0  0  0  0  0  0
  141.4551   79.1165  219.4132 H   0  0  0  0  0  0  0  0  0  0  0  0
  139.7546   79.6852  219.8354 H   0  0  0  0  0  0  0  0  0  0  0  0
  142.8261   80.2627  220.7148 H   0  0  0  0  0  0  0  0  0  0  0  0
  143.6037   80.8524  222.9723 H   0  0  0  0  0  0  0  0  0  0  0  0
  142.3012   80.3033  224.9999 H   0  0  0  0  0  0  0  0  0  0  0  0
  140.1042   79.0967  224.7241 H   0  0  0  0  0  0  0  0  0  0  0  0
  139.3241   78.5024  222.4694 H   0  0  0  0  0  0  0  0  0  0  0  0
  139.2008   69.8425  222.6028 H   0  0  0  0  0  0  0  0  0  0  0  0
  138.8128   68.4200  224.5996 H   0  0  0  0  0  0  0  0  0  0  0  0
  139.0589   68.1696  226.9780 H   0  0  0  0  0  0  0  0  0  0  0  0
  139.8337   69.0499  229.2082 H   0  0  0  0  0  0  0  0  0  0  0  0
  140.9351   71.2899  229.2710 H   0  0  0  0  0  0  0  0  0  0  0  0
  141.2666   72.6149  227.2253 H   0  0  0  0  0  0  0  0  0  0  0  0
  1  2  2  0
  2  3  1  0
  3  4  1  0
  4  5  1  0
  5  6  2  0
  5  7  1  0
  7  8  1  0
  8  9  1  0
  9 10  1  0
 10 11  1  0
 11 12  1  0
 12 13  1  0
 13 14  1  0
 14 15  2  0
 15 16  1  0
 16 17  2  0
 17 18  1  0
 18 19  2  0
  2 20  1  0
 20 21  2  0
 21 22  1  0
 22 23  2  0
 23 24  1  0
 24 25  2  0
 25 26  1  0
 26 27  2  0
 27 28  1  0
 28 29  2  0
 12  7  1  0
 19 14  1  0
 29 20  1  0
 28 23  1  0
  3 30  1  0
  4 31  1  0
  4 32  1  0
  8 33  1  0
  8 34  1  0
  9 35  1  0
  9 36  1  0
 10 37  1  0
 10 38  1  0
 11 39  1  0
 11 40  1  0
 12 41  1  1
 13 42  1  0
 13 43  1  0
 15 44  1  0
 16 45  1  0
 17 46  1  0
 18 47  1  0
 19 48  1  0
 21 49  1  0
 22 50  1  0
 24 51  1  0
 25 52  1  0
 26 53  1  0
 27 54  1  0
M  END
>  <smiles>  (28) 
O=C(NCC(=O)N1CCCCC1Cc1ccccc1)c1ccc2ccccc2n1

>  <score_type>  (28) 
oracle

>  <origin>  (28) 
autodockgpu

>  <m_score__min__energy>  (28) 
-9.3399999999999999

>  <m_primary>  (28) 
energy

>  <rmsd>  (28) 
2.1479558819294393

>  <m_score__min__rmsd>  (28) 
2.1479558819294393

>  <meeko>  (28) 
{"free_energy": -8.57, "intermolecular_energy": -10.36, "internal_energy": -1.98, "cluster_size": 35, "cluster_id": 1, "rank_in_cluster": 32}

>  <energy>  (28) 
-8.77

>  <cluster_rmsd>  (28) 
1.14

>  <cluster>  (28) 
1

$$$$

     RDKit          3D

 54 57  0  0  0  0  0  0  0  0999 V2000
  140.1930   71.5020  221.2550 O   0  0  0  0  0  0  0  0  0  0  0  0
  139.9660   72.0850  222.3690 C   0  0  0  0  0  0  0  0  0  0  0  0
  139.7030   73.4820  222.3420 N   0  0  0  0  0  0  0  0  0  0  0  0
  139.6860   74.2410  221.1040 C   0  0  0  0  0  0  0  0  0  0  0  0
  140.1960   75.5900  221.4130 C   0  0  0  0  0  0  0  0  0  0  0  0
  139.8410   76.2720  222.4090 O   0  0  0  0  0  0  0  0  0  0  0  0
  141.1550   76.1670  220.5350 N   0  0  0  0  0  0  0  0  0  0  0  0
  142.5080   75.6380  220.4040 C   0  0  0  0  0  0  0  0  0  0  0  0
  142.9090   75.5380  218.9470 C   0  0  0  0  0  0  0  0  0  0  0  0
  141.7490   75.6950  218.0090 C   0  0  0  0  0  0  0  0  0  0  0  0
  140.8580   76.8610  218.3020 C   0  0  0  0  0  0  0  0  0  0  0  0
  140.8400   77.3250  219.7100 C   0  0  2  0  0  0  0  0  0  0  0  0
  141.7590   78.4830  219.9960 C   0  0  0  0  0  0  0  0  0  0  0  0
  141.6400   79.0620  221.3310 C   0  0  0  0  0  0  0  0  0  0  0  0
  141.4040   80.4400  221.4180 C   0  0  0  0  0  0  0  0  0  0  0  0
  141.2840   81.0260  222.6630 C   0  0  0  0  0  0  0  0  0  0  0  0
  141.3840   80.3200  223.8430 C   0  0  0  0  0  0  0  0  0  0  0  0
  141.6180   78.9470  223.7580 C   0  0  0  0  0  0  0  0  0  0  0  0
  141.7390   78.3600  222.5150 C   0  0  0  0  0  0  0  0  0  0  0  0
  139.9780   71.3310  223.6320 C   0  0  0  0  0  0  0  0  0  0  0  0
  139.5200   70.0480  223.6370 C   0  0  0  0  0  0  0  0  0  0  0  0
  139.4790   69.2360  224.7560 C   0  0  0  0  0  0  0  0  0  0  0  0
  139.9500   69.8120  225.9380 C   0  0  0  0  0  0  0  0  0  0  0  0
  139.9380   69.0580  227.0930 C   0  0  0  0  0  0  0  0  0  0  0  0
  140.4020   69.6060  228.2910 C   0  0  0  0  0  0  0  0  0  0  0  0
  140.8640   70.9200  228.2540 C   0  0  0  0  0  0  0  0  0  0  0  0
  140.8700   71.6650  227.0890 C   0  0  0  0  0  0  0  0  0  0  0  0
  140.4130   71.1250  225.9080 C   0  0  0  0  0  0  0  0  0  0  0  0
  140.4230   71.8580  224.7780 N   0  0  0  0  0  0  0  0  0  0  0  0
  139.5180   73.9440  223.2730 H   0  0  0  0  0  0  0  0  0  0  0  0
  140.3307   73.7565  220.3559 H   0  0  0  0  0  0  0  0  0  0  0  0
  138.6675   74.2933  220.6918 H   0  0  0  0  0  0  0  0  0  0  0  0
  143.2085   76.3068  220.9255 H   0  0  0  0  0  0  0  0  0  0  0  0
  142.5369   74.6315  220.8470 H   0  0  0  0  0  0  0  0  0  0  0  0
  143.6443   76.3270  218.7306 H   0  0  0  0  0  0  0  0  0  0  0  0
  143.3273   74.5331  218.7885 H   0  0  0  0  0  0  0  0  0  0  0  0
  142.1465   75.8156  216.9905 H   0  0  0  0  0  0  0  0  0  0  0  0
  141.1294   74.7941  218.1294 H   0  0  0  0  0  0  0  0  0  0  0  0
  141.1866   77.7023  217.6742 H   0  0  0  0  0  0  0  0  0  0  0  0
  139.8357   76.5149  218.0898 H   0  0  0  0  0  0  0  0  0  0  0  0
  139.8427   77.7282  219.9398 H   0  0  0  0  0  0  0  0  0  0  0  0
  142.7944   78.1341  219.8685 H   0  0  0  0  0  0  0  0  0  0  0  0
  141.4711   79.2791  219.2936 H   0  0  0  0  0  0  0  0  0  0  0  0
  141.3153   81.0482  220.5057 H   0  0  0  0  0  0  0  0  0  0  0  0
  141.0996   82.1092  222.7156 H   0  0  0  0  0  0  0  0  0  0  0  0
  141.2829   80.8213  224.8169 H   0  0  0  0  0  0  0  0  0  0  0  0
  141.7050   78.3397  224.6710 H   0  0  0  0  0  0  0  0  0  0  0  0
  141.9239   77.2768  222.4654 H   0  0  0  0  0  0  0  0  0  0  0  0
  139.1582   69.6293  222.6864 H   0  0  0  0  0  0  0  0  0  0  0  0
  139.1002   68.2040  224.7175 H   0  0  0  0  0  0  0  0  0  0  0  0
  139.5627   68.0242  227.0705 H   0  0  0  0  0  0  0  0  0  0  0  0
  140.4026   69.0245  229.2247 H   0  0  0  0  0  0  0  0  0  0  0  0
  141.2360   71.3796  229.1815 H   0  0  0  0  0  0  0  0  0  0  0  0
  141.2437   72.6994  227.1061 H   0  0  0  0  0  0  0  0  0  0  0  0
  1  2  2  0
  2  3  1  0
  3  4  1  0
  4  5  1  0
  5  6  2  0
  5  7  1  0
  7  8  1  0
  8  9  1  0
  9 10  1  0
 10 11  1  0
 11 12  1  0
 12 13  1  0
 13 14  1  0
 14 15  2  0
 15 16  1  0
 16 17  2  0
 17 18  1  0
 18 19  2  0
  2 20  1  0
 20 21  2  0
 21 22  1  0
 22 23  2  0
 23 24  1  0
 24 25  2  0
 25 26  1  0
 26 27  2  0
 27 28  1  0
 28 29  2  0
 12  7  1  0
 19 14  1  0
 29 20  1  0
 28 23  1  0
  3 30  1  0
  4 31  1  0
  4 32  1  0
  8 33  1  0
  8 34  1  0
  9 35  1  0
  9 36  1  0
 10 37  1  0
 10 38  1  0
 11 39  1  0
 11 40  1  0
 12 41  1  1
 13 42  1  0
 13 43  1  0
 15 44  1  0
 16 45  1  0
 17 46  1  0
 18 47  1  0
 19 48  1  0
 21 49  1  0
 22 50  1  0
 24 51  1  0
 25 52  1  0
 26 53  1  0
 27 54  1  0
M  END
>  <smiles>  (29) 
O=C(NCC(=O)N1CCCCC1Cc1ccccc1)c1ccc2ccccc2n1

>  <score_type>  (29) 
oracle

>  <origin>  (29) 
autodockgpu

>  <m_score__min__energy>  (29) 
-9.3399999999999999

>  <m_primary>  (29) 
energy

>  <rmsd>  (29) 
2.0734347469514636

>  <m_score__min__rmsd>  (29) 
2.0734347469514636

>  <meeko>  (29) 
{"free_energy": -8.63, "intermolecular_energy": -10.42, "internal_energy": -1.78, "cluster_size": 35, "cluster_id": 1, "rank_in_cluster": 31}

>  <energy>  (29) 
-8.73

>  <cluster_rmsd>  (29) 
1.19

>  <cluster>  (29) 
1

$$$$

     RDKit          3D

 54 57  0  0  0  0  0  0  0  0999 V2000
  140.7280   71.3270  221.2110 O   0  0  0  0  0  0  0  0  0  0  0  0
  140.0850   71.8590  222.1790 C   0  0  0  0  0  0  0  0  0  0  0  0
  139.3800   73.0660  221.9190 N   0  0  0  0  0  0  0  0  0  0  0  0
  139.3740   73.6900  220.6090 C   0  0  0  0  0  0  0  0  0  0  0  0
  139.2120   75.1410  220.8180 C   0  0  0  0  0  0  0  0  0  0  0  0
  138.1030   75.7350  220.8410 O   0  0  0  0  0  0  0  0  0  0  0  0
  140.3810   75.9310  221.0090 N   0  0  0  0  0  0  0  0  0  0  0  0
  141.7190   75.4140  220.7480 C   0  0  0  0  0  0  0  0  0  0  0  0
  142.5420   76.4190  219.9690 C   0  0  0  0  0  0  0  0  0  0  0  0
  141.7160   77.5300  219.3930 C   0  0  0  0  0  0  0  0  0  0  0  0
  140.7580   78.1630  220.3520 C   0  0  0  0  0  0  0  0  0  0  0  0
  140.3080   77.3070  221.4770 C   0  0  2  0  0  0  0  0  0  0  0  0
  141.0770   77.5050  222.7560 C   0  0  0  0  0  0  0  0  0  0  0  0
  141.3980   78.8900  223.0870 C   0  0  0  0  0  0  0  0  0  0  0  0
  142.7470   79.2670  223.0500 C   0  0  0  0  0  0  0  0  0  0  0  0
  143.0900   80.5690  223.3560 C   0  0  0  0  0  0  0  0  0  0  0  0
  142.1670   81.5330  223.7010 C   0  0  0  0  0  0  0  0  0  0  0  0
  140.8240   81.1590  223.7360 C   0  0  0  0  0  0  0  0  0  0  0  0
  140.4780   79.8590  223.4320 C   0  0  0  0  0  0  0  0  0  0  0  0
  140.0790   71.2390  223.5130 C   0  0  0  0  0  0  0  0  0  0  0  0
  139.5290   70.0010  223.6610 C   0  0  0  0  0  0  0  0  0  0  0  0
  139.4620   69.3130  224.8590 C   0  0  0  0  0  0  0  0  0  0  0  0
  140.0070   69.9690  225.9640 C   0  0  0  0  0  0  0  0  0  0  0  0
  139.9740   69.3400  227.1920 C   0  0  0  0  0  0  0  0  0  0  0  0
  140.5100   69.9720  228.3160 C   0  0  0  0  0  0  0  0  0  0  0  0
  141.0650   71.2360  228.1330 C   0  0  0  0  0  0  0  0  0  0  0  0
  141.0920   71.8560  226.8980 C   0  0  0  0  0  0  0  0  0  0  0  0
  140.5630   71.2340  225.7890 C   0  0  0  0  0  0  0  0  0  0  0  0
  140.5930   71.8460  224.5880 N   0  0  0  0  0  0  0  0  0  0  0  0
  138.8550   73.4890  222.7320 H   0  0  0  0  0  0  0  0  0  0  0  0
  140.3229   73.4875  220.0907 H   0  0  0  0  0  0  0  0  0  0  0  0
  138.5569   73.2910  219.9901 H   0  0  0  0  0  0  0  0  0  0  0  0
  142.2178   75.2046  221.7058 H   0  0  0  0  0  0  0  0  0  0  0  0
  141.6310   74.4933  220.1525 H   0  0  0  0  0  0  0  0  0  0  0  0
  143.2942   76.8544  220.6433 H   0  0  0  0  0  0  0  0  0  0  0  0
  143.0065   75.8834  219.1279 H   0  0  0  0  0  0  0  0  0  0  0  0
  142.3997   78.3103  219.0274 H   0  0  0  0  0  0  0  0  0  0  0  0
  141.1046   77.0800  218.5969 H   0  0  0  0  0  0  0  0  0  0  0  0
  141.2459   79.0518  220.7787 H   0  0  0  0  0  0  0  0  0  0  0  0
  139.8537   78.3856  219.7666 H   0  0  0  0  0  0  0  0  0  0  0  0
  139.2806   77.5888  221.7508 H   0  0  0  0  0  0  0  0  0  0  0  0
  140.4779   77.0896  223.5797 H   0  0  0  0  0  0  0  0  0  0  0  0
  142.0419   76.9973  222.6105 H   0  0  0  0  0  0  0  0  0  0  0  0
  143.5228   78.5351  222.7806 H   0  0  0  0  0  0  0  0  0  0  0  0
  144.1527   80.8511  223.3228 H   0  0  0  0  0  0  0  0  0  0  0  0
  142.4787   82.5605  223.9401 H   0  0  0  0  0  0  0  0  0  0  0  0
  140.0492   81.8927  224.0031 H   0  0  0  0  0  0  0  0  0  0  0  0
  139.4144   79.5803  223.4663 H   0  0  0  0  0  0  0  0  0  0  0  0
  139.1099   69.5160  222.7671 H   0  0  0  0  0  0  0  0  0  0  0  0
  139.0087   68.3137  224.9360 H   0  0  0  0  0  0  0  0  0  0  0  0
  139.5252   68.3401  227.2854 H   0  0  0  0  0  0  0  0  0  0  0  0
  140.4944   69.4912  229.3052 H   0  0  0  0  0  0  0  0  0  0  0  0
  141.4961   71.7582  228.9999 H   0  0  0  0  0  0  0  0  0  0  0  0
  141.5403   72.8557  226.8000 H   0  0  0  0  0  0  0  0  0  0  0  0
  1  2  2  0
  2  3  1  0
  3  4  1  0
  4  5  1  0
  5  6  2  0
  5  7  1  0
  7  8  1  0
  8  9  1  0
  9 10  1  0
 10 11  1  0
 11 12  1  0
 12 13  1  0
 13 14  1  0
 14 15  2  0
 15 16  1  0
 16 17  2  0
 17 18  1  0
 18 19  2  0
  2 20  1  0
 20 21  2  0
 21 22  1  0
 22 23  2  0
 23 24  1  0
 24 25  2  0
 25 26  1  0
 26 27  2  0
 27 28  1  0
 28 29  2  0
 12  7  1  0
 19 14  1  0
 29 20  1  0
 28 23  1  0
  3 30  1  0
  4 31  1  0
  4 32  1  0
  8 33  1  0
  8 34  1  0
  9 35  1  0
  9 36  1  0
 10 37  1  0
 10 38  1  0
 11 39  1  0
 11 40  1  0
 12 41  1  1
 13 42  1  0
 13 43  1  0
 15 44  1  0
 16 45  1  0
 17 46  1  0
 18 47  1  0
 19 48  1  0
 21 49  1  0
 22 50  1  0
 24 51  1  0
 25 52  1  0
 26 53  1  0
 27 54  1  0
M  END
>  <smiles>  (30) 
O=C(NCC(=O)N1CCCCC1Cc1ccccc1)c1ccc2ccccc2n1

>  <score_type>  (30) 
oracle

>  <origin>  (30) 
autodockgpu

>  <m_score__min__energy>  (30) 
-9.3399999999999999

>  <m_primary>  (30) 
energy

>  <rmsd>  (30) 
2.4211499216301395

>  <m_score__min__rmsd>  (30) 
2.4211499216301395

>  <meeko>  (30) 
{"free_energy": -9.29, "intermolecular_energy": -11.08, "internal_energy": -1.54, "cluster_size": 35, "cluster_id": 1, "rank_in_cluster": 4}

>  <energy>  (30) 
-8.69

>  <cluster_rmsd>  (30) 
1.16

>  <cluster>  (30) 
1

$$$$

     RDKit          3D

 54 57  0  0  0  0  0  0  0  0999 V2000
  139.6040   73.4810  222.5200 O   0  0  0  0  0  0  0  0  0  0  0  0
  140.2920   72.4060  222.5780 C   0  0  0  0  0  0  0  0  0  0  0  0
  141.1170   72.0890  221.4640 N   0  0  0  0  0  0  0  0  0  0  0  0
  141.1930   72.9420  220.2920 C   0  0  0  0  0  0  0  0  0  0  0  0
  141.7810   74.2240  220.7230 C   0  0  0  0  0  0  0  0  0  0  0  0
  142.9490   74.3550  221.1700 O   0  0  0  0  0  0  0  0  0  0  0  0
  140.9810   75.3980  220.6320 N   0  0  0  0  0  0  0  0  0  0  0  0
  140.0390   75.6140  219.5400 C   0  0  0  0  0  0  0  0  0  0  0  0
  138.7120   76.1200  220.0650 C   0  0  0  0  0  0  0  0  0  0  0  0
  138.5790   75.9780  221.5520 C   0  0  0  0  0  0  0  0  0  0  0  0
  139.7550   76.4670  222.3370 C   0  0  0  0  0  0  0  0  0  0  0  0
  141.0570   76.4570  221.6280 C   0  0  2  0  0  0  0  0  0  0  0  0
  141.4410   77.7770  221.0140 C   0  0  0  0  0  0  0  0  0  0  0  0
  141.7280   78.8500  221.9620 C   0  0  0  0  0  0  0  0  0  0  0  0
  141.8690   80.1450  221.4480 C   0  0  0  0  0  0  0  0  0  0  0  0
  142.1390   81.1870  222.3130 C   0  0  0  0  0  0  0  0  0  0  0  0
  142.2790   81.0220  223.6750 C   0  0  0  0  0  0  0  0  0  0  0  0
  142.1370   79.7330  224.1880 C   0  0  0  0  0  0  0  0  0  0  0  0
  141.8680   78.6900  223.3250 C   0  0  0  0  0  0  0  0  0  0  0  0
  140.2280   71.5300  223.7580 C   0  0  0  0  0  0  0  0  0  0  0  0
  139.6660   70.2950  223.6310 C   0  0  0  0  0  0  0  0  0  0  0  0
  139.5450   69.3810  224.6620 C   0  0  0  0  0  0  0  0  0  0  0  0
  140.0480   69.7940  225.8980 C   0  0  0  0  0  0  0  0  0  0  0  0
  139.9610   68.9310  226.9710 C   0  0  0  0  0  0  0  0  0  0  0  0
  140.4540   69.3160  228.2190 C   0  0  0  0  0  0  0  0  0  0  0  0
  141.0220   70.5830  228.3180 C   0  0  0  0  0  0  0  0  0  0  0  0
  141.1030   71.4390  227.2350 C   0  0  0  0  0  0  0  0  0  0  0  0
  140.6170   71.0610  226.0030 C   0  0  0  0  0  0  0  0  0  0  0  0
  140.7000   71.9010  224.9530 N   0  0  0  0  0  0  0  0  0  0  0  0
  141.6780   71.1970  221.5320 H   0  0  0  0  0  0  0  0  0  0  0  0
  141.8290   72.4742  219.5261 H   0  0  0  0  0  0  0  0  0  0  0  0
  140.1948   73.0971  219.8566 H   0  0  0  0  0  0  0  0  0  0  0  0
  140.4578   76.3559  218.8442 H   0  0  0  0  0  0  0  0  0  0  0  0
  139.8718   74.6566  219.0248 H   0  0  0  0  0  0  0  0  0  0  0  0
  138.6143   77.1841  219.8041 H   0  0  0  0  0  0  0  0  0  0  0  0
  137.9210   75.5105  219.6036 H   0  0  0  0  0  0  0  0  0  0  0  0
  137.6935   76.5467  221.8722 H   0  0  0  0  0  0  0  0  0  0  0  0
  138.4988   74.8997  221.7540 H   0  0  0  0  0  0  0  0  0  0  0  0
  139.5473   77.5023  222.6454 H   0  0  0  0  0  0  0  0  0  0  0  0
  139.8671   75.7628  223.1746 H   0  0  0  0  0  0  0  0  0  0  0  0
  141.8594   76.2716  222.3572 H   0  0  0  0  0  0  0  0  0  0  0  0
  142.3399   77.6170  220.4005 H   0  0  0  0  0  0  0  0  0  0  0  0
  140.5649   78.1088  220.4375 H   0  0  0  0  0  0  0  0  0  0  0  0
  141.7660   80.3299  220.3686 H   0  0  0  0  0  0  0  0  0  0  0  0
  142.2478   82.1987  221.8950 H   0  0  0  0  0  0  0  0  0  0  0  0
  142.4950   81.8765  224.3332 H   0  0  0  0  0  0  0  0  0  0  0  0
  142.2382   79.5497  225.2679 H   0  0  0  0  0  0  0  0  0  0  0  0
  141.7597   77.6794  223.7456 H   0  0  0  0  0  0  0  0  0  0  0  0
  139.2826   70.0054  222.6415 H   0  0  0  0  0  0  0  0  0  0  0  0
  139.0828   68.3933  224.5180 H   0  0  0  0  0  0  0  0  0  0  0  0
  139.5029   67.9391  226.8430 H   0  0  0  0  0  0  0  0  0  0  0  0
  140.3960   68.6453  229.0889 H   0  0  0  0  0  0  0  0  0  0  0  0
  141.4192   70.9139  229.2889 H   0  0  0  0  0  0  0  0  0  0  0  0
  141.5602   72.4318  227.3587 H   0  0  0  0  0  0  0  0  0  0  0  0
  1  2  2  0
  2  3  1  0
  3  4  1  0
  4  5  1  0
  5  6  2  0
  5  7  1  0
  7  8  1  0
  8  9  1  0
  9 10  1  0
 10 11  1  0
 11 12  1  0
 12 13  1  0
 13 14  1  0
 14 15  2  0
 15 16  1  0
 16 17  2  0
 17 18  1  0
 18 19  2  0
  2 20  1  0
 20 21  2  0
 21 22  1  0
 22 23  2  0
 23 24  1  0
 24 25  2  0
 25 26  1  0
 26 27  2  0
 27 28  1  0
 28 29  2  0
 12  7  1  0
 19 14  1  0
 29 20  1  0
 28 23  1  0
  3 30  1  0
  4 31  1  0
  4 32  1  0
  8 33  1  0
  8 34  1  0
  9 35  1  0
  9 36  1  0
 10 37  1  0
 10 38  1  0
 11 39  1  0
 11 40  1  0
 12 41  1  1
 13 42  1  0
 13 43  1  0
 15 44  1  0
 16 45  1  0
 17 46  1  0
 18 47  1  0
 19 48  1  0
 21 49  1  0
 22 50  1  0
 24 51  1  0
 25 52  1  0
 26 53  1  0
 27 54  1  0
M  END
>  <smiles>  (31) 
O=C(NCC(=O)N1CCCCC1Cc1ccccc1)c1ccc2ccccc2n1

>  <score_type>  (31) 
oracle

>  <origin>  (31) 
autodockgpu

>  <m_score__min__energy>  (31) 
-9.3399999999999999

>  <m_primary>  (31) 
energy

>  <rmsd>  (31) 
2.3027367968478405

>  <m_score__min__rmsd>  (31) 
2.3027367968478405

>  <meeko>  (31) 
{"free_energy": -8.85, "intermolecular_energy": -10.64, "internal_energy": -1.56, "cluster_size": 35, "cluster_id": 1, "rank_in_cluster": 24}

>  <energy>  (31) 
-8.63

>  <cluster_rmsd>  (31) 
1.12

>  <cluster>  (31) 
1

$$$$

     RDKit          3D

 54 57  0  0  0  0  0  0  0  0999 V2000
  140.8870   71.6710  221.3800 O   0  0  0  0  0  0  0  0  0  0  0  0
  140.3760   72.2110  222.4200 C   0  0  0  0  0  0  0  0  0  0  0  0
  139.9880   73.5760  222.3320 N   0  0  0  0  0  0  0  0  0  0  0  0
  140.1550   74.3490  221.1140 C   0  0  0  0  0  0  0  0  0  0  0  0
  140.5440   75.7140  221.5150 C   0  0  0  0  0  0  0  0  0  0  0  0
  140.3980   76.1830  222.6730 O   0  0  0  0  0  0  0  0  0  0  0  0
  141.1260   76.5660  220.5340 N   0  0  0  0  0  0  0  0  0  0  0  0
  142.5080   76.4140  220.0940 C   0  0  0  0  0  0  0  0  0  0  0  0
  142.6050   76.4970  218.5850 C   0  0  0  0  0  0  0  0  0  0  0  0
  141.2710   76.3960  217.9070 C   0  0  0  0  0  0  0  0  0  0  0  0
  140.2050   77.2740  218.4830 C   0  0  0  0  0  0  0  0  0  0  0  0
  140.3720   77.6440  219.9100 C   0  0  2  0  0  0  0  0  0  0  0  0
  141.0200   78.9830  220.1350 C   0  0  0  0  0  0  0  0  0  0  0  0
  141.3130   79.3130  221.5270 C   0  0  0  0  0  0  0  0  0  0  0  0
  142.5180   79.9760  221.7940 C   0  0  0  0  0  0  0  0  0  0  0  0
  142.8290   80.3050  223.0980 C   0  0  0  0  0  0  0  0  0  0  0  0
  142.0100   80.0150  224.1680 C   0  0  0  0  0  0  0  0  0  0  0  0
  140.8090   79.3560  223.9030 C   0  0  0  0  0  0  0  0  0  0  0  0
  140.4960   79.0250  222.6000 C   0  0  0  0  0  0  0  0  0  0  0  0
  140.2000   71.4420  223.6620 C   0  0  0  0  0  0  0  0  0  0  0  0
  139.5820   70.2290  223.6020 C   0  0  0  0  0  0  0  0  0  0  0  0
  139.3550   69.4110  224.6940 C   0  0  0  0  0  0  0  0  0  0  0  0
  139.8080   69.9030  225.9200 C   0  0  0  0  0  0  0  0  0  0  0  0
  139.6150   69.1380  227.0530 C   0  0  0  0  0  0  0  0  0  0  0  0
  140.0570   69.6030  228.2930 C   0  0  0  0  0  0  0  0  0  0  0  0
  140.6840   70.8460  228.3220 C   0  0  0  0  0  0  0  0  0  0  0  0
  140.8710   71.6030  227.1800 C   0  0  0  0  0  0  0  0  0  0  0  0
  140.4370   71.1450  225.9570 C   0  0  0  0  0  0  0  0  0  0  0  0
  140.6230   71.8890  224.8490 N   0  0  0  0  0  0  0  0  0  0  0  0
  139.5690   74.0030  223.2020 H   0  0  0  0  0  0  0  0  0  0  0  0
  140.9411   73.9014  220.4881 H   0  0  0  0  0  0  0  0  0  0  0  0
  139.2233   74.3638  220.5295 H   0  0  0  0  0  0  0  0  0  0  0  0
  143.1180   77.2139  220.5390 H   0  0  0  0  0  0  0  0  0  0  0  0
  142.8740   75.4282  220.4168 H   0  0  0  0  0  0  0  0  0  0  0  0
  143.0635   77.4598  218.3154 H   0  0  0  0  0  0  0  0  0  0  0  0
  143.2123   75.6447  218.2463 H   0  0  0  0  0  0  0  0  0  0  0  0
  141.4035   76.6679  216.8494 H   0  0  0  0  0  0  0  0  0  0  0  0
  140.9292   75.3603  218.0500 H   0  0  0  0  0  0  0  0  0  0  0  0
  140.1791   78.2031  217.8946 H   0  0  0  0  0  0  0  0  0  0  0  0
  139.2764   76.6863  218.4343 H   0  0  0  0  0  0  0  0  0  0  0  0
  139.3781   77.7626  220.3662 H   0  0  0  0  0  0  0  0  0  0  0  0
  141.9673   78.9994  219.5761 H   0  0  0  0  0  0  0  0  0  0  0  0
  140.2911   79.7327  219.7936 H   0  0  0  0  0  0  0  0  0  0  0  0
  143.2071   80.2310  220.9754 H   0  0  0  0  0  0  0  0  0  0  0  0
  143.7785   80.8249  223.2931 H   0  0  0  0  0  0  0  0  0  0  0  0
  142.2930   80.2931  225.1940 H   0  0  0  0  0  0  0  0  0  0  0  0
  140.1200   79.1033  224.7224 H   0  0  0  0  0  0  0  0  0  0  0  0
  139.5461   78.5048  222.4076 H   0  0  0  0  0  0  0  0  0  0  0  0
  139.2403   69.8762  222.6177 H   0  0  0  0  0  0  0  0  0  0  0  0
  138.8511   68.4375  224.6028 H   0  0  0  0  0  0  0  0  0  0  0  0
  139.1130   68.1621  226.9787 H   0  0  0  0  0  0  0  0  0  0  0  0
  139.9157   69.0116  229.2097 H   0  0  0  0  0  0  0  0  0  0  0  0
  141.0423   71.2387  229.2850 H   0  0  0  0  0  0  0  0  0  0  0  0
  141.3712   72.5802  227.2498 H   0  0  0  0  0  0  0  0  0  0  0  0
  1  2  2  0
  2  3  1  0
  3  4  1  0
  4  5  1  0
  5  6  2  0
  5  7  1  0
  7  8  1  0
  8  9  1  0
  9 10  1  0
 10 11  1  0
 11 12  1  0
 12 13  1  0
 13 14  1  0
 14 15  2  0
 15 16  1  0
 16 17  2  0
 17 18  1  0
 18 19  2  0
  2 20  1  0
 20 21  2  0
 21 22  1  0
 22 23  2  0
 23 24  1  0
 24 25  2  0
 25 26  1  0
 26 27  2  0
 27 28  1  0
 28 29  2  0
 12  7  1  0
 19 14  1  0
 29 20  1  0
 28 23  1  0
  3 30  1  0
  4 31  1  0
  4 32  1  0
  8 33  1  0
  8 34  1  0
  9 35  1  0
  9 36  1  0
 10 37  1  0
 10 38  1  0
 11 39  1  0
 11 40  1  0
 12 41  1  1
 13 42  1  0
 13 43  1  0
 15 44  1  0
 16 45  1  0
 17 46  1  0
 18 47  1  0
 19 48  1  0
 21 49  1  0
 22 50  1  0
 24 51  1  0
 25 52  1  0
 26 53  1  0
 27 54  1  0
M  END
>  <smiles>  (32) 
O=C(NCC(=O)N1CCCCC1Cc1ccccc1)c1ccc2ccccc2n1

>  <score_type>  (32) 
oracle

>  <origin>  (32) 
autodockgpu

>  <m_score__min__energy>  (32) 
-9.3399999999999999

>  <m_primary>  (32) 
energy

>  <rmsd>  (32) 
2.2016198947605146

>  <m_score__min__rmsd>  (32) 
2.2016198947605146

>  <meeko>  (32) 
{"free_energy": -8.69, "intermolecular_energy": -10.48, "internal_energy": -1.91, "cluster_size": 35, "cluster_id": 1, "rank_in_cluster": 30}

>  <energy>  (32) 
-8.57

>  <cluster_rmsd>  (32) 
1.19

>  <cluster>  (32) 
1

$$$$

     RDKit          3D

 54 57  0  0  0  0  0  0  0  0999 V2000
  141.7850   73.0510  221.0340 O   0  0  0  0  0  0  0  0  0  0  0  0
  140.9720   73.8790  221.5690 C   0  0  0  0  0  0  0  0  0  0  0  0
  139.8720   73.3470  222.2980 N   0  0  0  0  0  0  0  0  0  0  0  0
  139.6610   71.9190  222.4450 C   0  0  0  0  0  0  0  0  0  0  0  0
  138.3040   71.7330  222.9910 C   0  0  0  0  0  0  0  0  0  0  0  0
  137.4010   72.6080  222.9600 O   0  0  0  0  0  0  0  0  0  0  0  0
  137.9840   70.4840  223.5940 N   0  0  0  0  0  0  0  0  0  0  0  0
  136.7210   70.2560  224.2870 C   0  0  0  0  0  0  0  0  0  0  0  0
  136.1150   68.9290  223.8810 C   0  0  0  0  0  0  0  0  0  0  0  0
  136.7690   68.3340  222.6700 C   0  0  0  0  0  0  0  0  0  0  0  0
  138.2650   68.3190  222.7070 C   0  0  0  0  0  0  0  0  0  0  0  0
  138.9030   69.3550  223.5550 C   0  0  2  0  0  0  0  0  0  0  0  0
  139.2740   68.8880  224.9370 C   0  0  0  0  0  0  0  0  0  0  0  0
  139.8710   69.9010  225.8020 C   0  0  0  0  0  0  0  0  0  0  0  0
  139.5670   69.8440  227.1680 C   0  0  0  0  0  0  0  0  0  0  0  0
  140.1130   70.7850  228.0190 C   0  0  0  0  0  0  0  0  0  0  0  0
  140.9520   71.7920  227.5940 C   0  0  0  0  0  0  0  0  0  0  0  0
  141.2560   71.8500  226.2340 C   0  0  0  0  0  0  0  0  0  0  0  0
  140.7120   70.9110  225.3810 C   0  0  0  0  0  0  0  0  0  0  0  0
  141.1710   75.3300  221.4310 C   0  0  0  0  0  0  0  0  0  0  0  0
  141.8020   75.8040  220.3200 C   0  0  0  0  0  0  0  0  0  0  0  0
  142.0500   77.1430  220.0730 C   0  0  0  0  0  0  0  0  0  0  0  0
  141.6050   78.0310  221.0540 C   0  0  0  0  0  0  0  0  0  0  0  0
  141.8190   79.3810  220.8720 C   0  0  0  0  0  0  0  0  0  0  0  0
  141.3850   80.2940  221.8360 C   0  0  0  0  0  0  0  0  0  0  0  0
  140.7440   79.7790  222.9590 C   0  0  0  0  0  0  0  0  0  0  0  0
  140.5360   78.4230  223.1300 C   0  0  0  0  0  0  0  0  0  0  0  0
  140.9620   77.5220  222.1810 C   0  0  0  0  0  0  0  0  0  0  0  0
  140.7550   76.2020  222.3550 N   0  0  0  0  0  0  0  0  0  0  0  0
  139.2120   74.0480  222.7320 H   0  0  0  0  0  0  0  0  0  0  0  0
  139.7450   71.4229  221.4668 H   0  0  0  0  0  0  0  0  0  0  0  0
  140.4151   71.4796  223.1146 H   0  0  0  0  0  0  0  0  0  0  0  0
  136.9008   70.2530  225.3722 H   0  0  0  0  0  0  0  0  0  0  0  0
  136.0209   71.0601  224.0163 H   0  0  0  0  0  0  0  0  0  0  0  0
  136.2207   68.2241  224.7188 H   0  0  0  0  0  0  0  0  0  0  0  0
  135.0598   69.1116  223.6296 H   0  0  0  0  0  0  0  0  0  0  0  0
  136.4190   67.2962  222.5674 H   0  0  0  0  0  0  0  0  0  0  0  0
  136.4871   68.9736  221.8206 H   0  0  0  0  0  0  0  0  0  0  0  0
  138.5829   67.3347  223.0812 H   0  0  0  0  0  0  0  0  0  0  0  0
  138.5901   68.5349  221.6786 H   0  0  0  0  0  0  0  0  0  0  0  0
  139.8708   69.6324  223.1118 H   0  0  0  0  0  0  0  0  0  0  0  0
  138.3608   68.5191  225.4269 H   0  0  0  0  0  0  0  0  0  0  0  0
  140.0450   68.1157  224.7987 H   0  0  0  0  0  0  0  0  0  0  0  0
  138.9018   69.0597  227.5582 H   0  0  0  0  0  0  0  0  0  0  0  0
  139.8657   70.7276  229.0893 H   0  0  0  0  0  0  0  0  0  0  0  0
  141.3673   72.5242  228.3021 H   0  0  0  0  0  0  0  0  0  0  0  0
  141.9216   72.6350  225.8457 H   0  0  0  0  0  0  0  0  0  0  0  0
  140.9615   70.9708  224.3113 H   0  0  0  0  0  0  0  0  0  0  0  0
  142.1367   75.0732  219.5691 H   0  0  0  0  0  0  0  0  0  0  0  0
  142.5643   77.4853  219.1629 H   0  0  0  0  0  0  0  0  0  0  0  0
  142.3318   79.7392  219.9671 H   0  0  0  0  0  0  0  0  0  0  0  0
  141.5433   81.3755  221.7127 H   0  0  0  0  0  0  0  0  0  0  0  0
  140.3914   80.4735  223.7357 H   0  0  0  0  0  0  0  0  0  0  0  0
  140.0247   78.0605  224.0340 H   0  0  0  0  0  0  0  0  0  0  0  0
  1  2  2  0
  2  3  1  0
  3  4  1  0
  4  5  1  0
  5  6  2  0
  5  7  1  0
  7  8  1  0
  8  9  1  0
  9 10  1  0
 10 11  1  0
 11 12  1  0
 12 13  1  0
 13 14  1  0
 14 15  2  0
 15 16  1  0
 16 17  2  0
 17 18  1  0
 18 19  2  0
  2 20  1  0
 20 21  2  0
 21 22  1  0
 22 23  2  0
 23 24  1  0
 24 25  2  0
 25 26  1  0
 26 27  2  0
 27 28  1  0
 28 29  2  0
 12  7  1  0
 19 14  1  0
 29 20  1  0
 28 23  1  0
  3 30  1  0
  4 31  1  0
  4 32  1  0
  8 33  1  0
  8 34  1  0
  9 35  1  0
  9 36  1  0
 10 37  1  0
 10 38  1  0
 11 39  1  0
 11 40  1  0
 12 41  1  6
 13 42  1  0
 13 43  1  0
 15 44  1  0
 16 45  1  0
 17 46  1  0
 18 47  1  0
 19 48  1  0
 21 49  1  0
 22 50  1  0
 24 51  1  0
 25 52  1  0
 26 53  1  0
 27 54  1  0
M  END
>  <smiles>  (33) 
O=C(NCC(=O)N1CCCCC1Cc1ccccc1)c1ccc2ccccc2n1

>  <score_type>  (33) 
oracle

>  <origin>  (33) 
autodockgpu

>  <m_score__min__energy>  (33) 
-9.3399999999999999

>  <m_primary>  (33) 
energy

>  <rmsd>  (33) 
8.52620983674679

>  <m_score__min__rmsd>  (33) 
8.52620983674679

>  <meeko>  (33) 
{"free_energy": -8.18, "intermolecular_energy": -9.97, "internal_energy": -2.18, "cluster_size": 9, "cluster_id": 2, "rank_in_cluster": 9}

>  <energy>  (33) 
-8.52

>  <cluster_rmsd>  (33) 
1.18

>  <cluster>  (33) 
1

$$$$

     RDKit          3D

 54 57  0  0  0  0  0  0  0  0999 V2000
  140.5940   71.3280  221.3370 O   0  0  0  0  0  0  0  0  0  0  0  0
  140.2280   71.9260  222.4050 C   0  0  0  0  0  0  0  0  0  0  0  0
  139.9110   73.3100  222.3120 N   0  0  0  0  0  0  0  0  0  0  0  0
  139.9930   74.0380  221.0590 C   0  0  0  0  0  0  0  0  0  0  0  0
  140.2160   75.4570  221.3940 C   0  0  0  0  0  0  0  0  0  0  0  0
  139.8940   75.9870  222.4880 O   0  0  0  0  0  0  0  0  0  0  0  0
  140.8380   76.2910  220.4220 N   0  0  0  0  0  0  0  0  0  0  0  0
  141.7840   75.7700  219.4410 C   0  0  0  0  0  0  0  0  0  0  0  0
  141.4810   76.3120  218.0600 C   0  0  0  0  0  0  0  0  0  0  0  0
  140.1390   76.9760  217.9730 C   0  0  0  0  0  0  0  0  0  0  0  0
  139.8470   77.9490  219.0720 C   0  0  0  0  0  0  0  0  0  0  0  0
  140.5650   77.7190  220.3490 C   0  0  2  0  0  0  0  0  0  0  0  0
  141.8170   78.5370  220.5160 C   0  0  0  0  0  0  0  0  0  0  0  0
  141.7950   79.5000  221.6140 C   0  0  0  0  0  0  0  0  0  0  0  0
  142.1020   79.0250  222.8950 C   0  0  0  0  0  0  0  0  0  0  0  0
  142.0930   79.9050  223.9590 C   0  0  0  0  0  0  0  0  0  0  0  0
  141.7940   81.2450  223.8300 C   0  0  0  0  0  0  0  0  0  0  0  0
  141.4890   81.7190  222.5540 C   0  0  0  0  0  0  0  0  0  0  0  0
  141.4970   80.8410  221.4890 C   0  0  0  0  0  0  0  0  0  0  0  0
  140.1390   71.2030  223.6830 C   0  0  0  0  0  0  0  0  0  0  0  0
  139.5600   69.9690  223.7020 C   0  0  0  0  0  0  0  0  0  0  0  0
  139.4160   69.1900  224.8360 C   0  0  0  0  0  0  0  0  0  0  0  0
  139.9110   69.7460  226.0170 C   0  0  0  0  0  0  0  0  0  0  0  0
  139.8010   69.0220  227.1870 C   0  0  0  0  0  0  0  0  0  0  0  0
  140.2870   69.5510  228.3840 C   0  0  0  0  0  0  0  0  0  0  0  0
  140.8720   70.8140  228.3330 C   0  0  0  0  0  0  0  0  0  0  0  0
  140.9760   71.5290  227.1540 C   0  0  0  0  0  0  0  0  0  0  0  0
  140.4980   71.0080  225.9730 C   0  0  0  0  0  0  0  0  0  0  0  0
  140.6040   71.7120  224.8290 N   0  0  0  0  0  0  0  0  0  0  0  0
  139.6110   73.7850  223.2060 H   0  0  0  0  0  0  0  0  0  0  0  0
  140.8301   73.6570  220.4556 H   0  0  0  0  0  0  0  0  0  0  0  0
  139.0695   73.9149  220.4742 H   0  0  0  0  0  0  0  0  0  0  0  0
  142.8029   76.0675  219.7294 H   0  0  0  0  0  0  0  0  0  0  0  0
  141.6974   74.6737  219.4159 H   0  0  0  0  0  0  0  0  0  0  0  0
  142.2542   77.0481  217.7948 H   0  0  0  0  0  0  0  0  0  0  0  0
  141.4716   75.4585  217.3661 H   0  0  0  0  0  0  0  0  0  0  0  0
  140.0855   77.5151  217.0157 H   0  0  0  0  0  0  0  0  0  0  0  0
  139.3909   76.1745  218.0626 H   0  0  0  0  0  0  0  0  0  0  0  0
  140.1132   78.9538  218.7120 H   0  0  0  0  0  0  0  0  0  0  0  0
  138.7792   77.8236  219.3044 H   0  0  0  0  0  0  0  0  0  0  0  0
  139.9286   78.0546  221.1811 H   0  0  0  0  0  0  0  0  0  0  0  0
  142.6541   77.8446  220.6887 H   0  0  0  0  0  0  0  0  0  0  0  0
  141.9163   79.1301  219.5949 H   0  0  0  0  0  0  0  0  0  0  0  0
  142.3473   77.9642  223.0517 H   0  0  0  0  0  0  0  0  0  0  0  0
  142.3365   79.5179  224.9594 H   0  0  0  0  0  0  0  0  0  0  0  0
  141.7960   81.9158  224.7018 H   0  0  0  0  0  0  0  0  0  0  0  0
  141.2449   82.7802  222.3983 H   0  0  0  0  0  0  0  0  0  0  0  0
  141.2533   81.2306  220.4896 H   0  0  0  0  0  0  0  0  0  0  0  0
  139.1817   69.5654  222.7512 H   0  0  0  0  0  0  0  0  0  0  0  0
  138.9425   68.1975  224.8090 H   0  0  0  0  0  0  0  0  0  0  0  0
  139.3302   68.0279  227.1762 H   0  0  0  0  0  0  0  0  0  0  0  0
  140.2110   68.9931  229.3290 H   0  0  0  0  0  0  0  0  0  0  0  0
  141.2639   71.2569  229.2605 H   0  0  0  0  0  0  0  0  0  0  0  0
  141.4453   72.5238  227.1600 H   0  0  0  0  0  0  0  0  0  0  0  0
  1  2  2  0
  2  3  1  0
  3  4  1  0
  4  5  1  0
  5  6  2  0
  5  7  1  0
  7  8  1  0
  8  9  1  0
  9 10  1  0
 10 11  1  0
 11 12  1  0
 12 13  1  0
 13 14  1  0
 14 15  2  0
 15 16  1  0
 16 17  2  0
 17 18  1  0
 18 19  2  0
  2 20  1  0
 20 21  2  0
 21 22  1  0
 22 23  2  0
 23 24  1  0
 24 25  2  0
 25 26  1  0
 26 27  2  0
 27 28  1  0
 28 29  2  0
 12  7  1  0
 19 14  1  0
 29 20  1  0
 28 23  1  0
  3 30  1  0
  4 31  1  0
  4 32  1  0
  8 33  1  0
  8 34  1  0
  9 35  1  0
  9 36  1  0
 10 37  1  0
 10 38  1  0
 11 39  1  0
 11 40  1  0
 12 41  1  1
 13 42  1  0
 13 43  1  0
 15 44  1  0
 16 45  1  0
 17 46  1  0
 18 47  1  0
 19 48  1  0
 21 49  1  0
 22 50  1  0
 24 51  1  0
 25 52  1  0
 26 53  1  0
 27 54  1  0
M  END
>  <smiles>  (34) 
O=C(NCC(=O)N1CCCCC1Cc1ccccc1)c1ccc2ccccc2n1

>  <score_type>  (34) 
oracle

>  <origin>  (34) 
autodockgpu

>  <m_score__min__energy>  (34) 
-9.3399999999999999

>  <m_primary>  (34) 
energy

>  <rmsd>  (34) 
1.8695239122173

>  <m_score__min__rmsd>  (34) 
1.8695239122173

>  <meeko>  (34) 
{"free_energy": -8.77, "intermolecular_energy": -10.56, "internal_energy": -1.86, "cluster_size": 35, "cluster_id": 1, "rank_in_cluster": 27}

>  <energy>  (34) 
-8.37

>  <cluster_rmsd>  (34) 
1.1

>  <cluster>  (34) 
1

$$$$

     RDKit          3D

 54 57  0  0  0  0  0  0  0  0999 V2000
  140.6420   71.0260  221.6790 O   0  0  0  0  0  0  0  0  0  0  0  0
  140.2750   71.7030  222.6980 C   0  0  0  0  0  0  0  0  0  0  0  0
  139.8360   73.0380  222.4810 N   0  0  0  0  0  0  0  0  0  0  0  0
  139.7950   73.6320  221.1570 C   0  0  0  0  0  0  0  0  0  0  0  0
  140.0340   75.0780  221.3200 C   0  0  0  0  0  0  0  0  0  0  0  0
  139.7210   75.7380  222.3440 O   0  0  0  0  0  0  0  0  0  0  0  0
  140.6610   75.7830  220.2540 N   0  0  0  0  0  0  0  0  0  0  0  0
  140.1310   75.7710  218.8960 C   0  0  0  0  0  0  0  0  0  0  0  0
  140.1240   77.1670  218.3080 C   0  0  0  0  0  0  0  0  0  0  0  0
  140.3530   78.2350  219.3350 C   0  0  0  0  0  0  0  0  0  0  0  0
  141.5050   77.9840  220.2560 C   0  0  0  0  0  0  0  0  0  0  0  0
  141.8740   76.5620  220.4590 C   0  0  2  0  0  0  0  0  0  0  0  0
  143.0020   76.0810  219.5860 C   0  0  0  0  0  0  0  0  0  0  0  0
  143.6130   74.8180  219.9900 C   0  0  0  0  0  0  0  0  0  0  0  0
  142.8300   73.6610  219.8910 C   0  0  0  0  0  0  0  0  0  0  0  0
  143.3720   72.4470  220.2630 C   0  0  0  0  0  0  0  0  0  0  0  0
  144.6610   72.3060  220.7330 C   0  0  0  0  0  0  0  0  0  0  0  0
  145.4420   73.4580  220.8310 C   0  0  0  0  0  0  0  0  0  0  0  0
  144.9020   74.6720  220.4610 C   0  0  0  0  0  0  0  0  0  0  0  0
  140.3100   71.1170  224.0470 C   0  0  0  0  0  0  0  0  0  0  0  0
  140.7390   71.8860  225.0870 C   0  0  0  0  0  0  0  0  0  0  0  0
  140.8190   71.4540  226.3990 C   0  0  0  0  0  0  0  0  0  0  0  0
  140.4210   70.1350  226.6260 C   0  0  0  0  0  0  0  0  0  0  0  0
  140.4740   69.6380  227.9110 C   0  0  0  0  0  0  0  0  0  0  0  0
  140.0820   68.3220  228.1690 C   0  0  0  0  0  0  0  0  0  0  0  0
  139.6480   67.5620  227.0860 C   0  0  0  0  0  0  0  0  0  0  0  0
  139.6000   68.0720  225.8020 C   0  0  0  0  0  0  0  0  0  0  0  0
  139.9850   69.3690  225.5470 C   0  0  0  0  0  0  0  0  0  0  0  0
  139.9350   69.8570  224.2920 N   0  0  0  0  0  0  0  0  0  0  0  0
  139.5380   73.5810  223.3360 H   0  0  0  0  0  0  0  0  0  0  0  0
  140.5765   73.1902  220.5214 H   0  0  0  0  0  0  0  0  0  0  0  0
  138.8224   73.4487  220.6768 H   0  0  0  0  0  0  0  0  0  0  0  0
  140.7582   75.1193  218.2700 H   0  0  0  0  0  0  0  0  0  0  0  0
  139.0974   75.3957  218.9246 H   0  0  0  0  0  0  0  0  0  0  0  0
  140.9189   77.2326  217.5505 H   0  0  0  0  0  0  0  0  0  0  0  0
  139.1280   77.3363  217.8728 H   0  0  0  0  0  0  0  0  0  0  0  0
  140.5367   79.1828  218.8078 H   0  0  0  0  0  0  0  0  0  0  0  0
  139.4518   78.2563  219.9655 H   0  0  0  0  0  0  0  0  0  0  0  0
  142.3832   78.5050  219.8470 H   0  0  0  0  0  0  0  0  0  0  0  0
  141.1838   78.3518  221.2416 H   0  0  0  0  0  0  0  0  0  0  0  0
  142.2691   76.4381  221.4781 H   0  0  0  0  0  0  0  0  0  0  0  0
  142.6118   75.9577  218.5649 H   0  0  0  0  0  0  0  0  0  0  0  0
  143.7936   76.8403  219.6686 H   0  0  0  0  0  0  0  0  0  0  0  0
  141.7956   73.7189  219.5213 H   0  0  0  0  0  0  0  0  0  0  0  0
  142.7445   71.5473  220.1804 H   0  0  0  0  0  0  0  0  0  0  0  0
  145.0587   71.3214  221.0201 H   0  0  0  0  0  0  0  0  0  0  0  0
  146.4768   73.3987  221.1992 H   0  0  0  0  0  0  0  0  0  0  0  0
  145.5312   75.5703  220.5457 H   0  0  0  0  0  0  0  0  0  0  0  0
  141.0423   72.9206  224.8686 H   0  0  0  0  0  0  0  0  0  0  0  0
  141.1730   72.1070  227.2103 H   0  0  0  0  0  0  0  0  0  0  0  0
  140.8252   70.2781  228.7337 H   0  0  0  0  0  0  0  0  0  0  0  0
  140.1149   67.9035  229.1858 H   0  0  0  0  0  0  0  0  0  0  0  0
  139.3331   66.5221  227.2577 H   0  0  0  0  0  0  0  0  0  0  0  0
  139.2508   67.4352  224.9758 H   0  0  0  0  0  0  0  0  0  0  0  0
  1  2  2  0
  2  3  1  0
  3  4  1  0
  4  5  1  0
  5  6  2  0
  5  7  1  0
  7  8  1  0
  8  9  1  0
  9 10  1  0
 10 11  1  0
 11 12  1  0
 12 13  1  0
 13 14  1  0
 14 15  2  0
 15 16  1  0
 16 17  2  0
 17 18  1  0
 18 19  2  0
  2 20  1  0
 20 21  2  0
 21 22  1  0
 22 23  2  0
 23 24  1  0
 24 25  2  0
 25 26  1  0
 26 27  2  0
 27 28  1  0
 28 29  2  0
 12  7  1  0
 19 14  1  0
 29 20  1  0
 28 23  1  0
  3 30  1  0
  4 31  1  0
  4 32  1  0
  8 33  1  0
  8 34  1  0
  9 35  1  0
  9 36  1  0
 10 37  1  0
 10 38  1  0
 11 39  1  0
 11 40  1  0
 12 41  1  1
 13 42  1  0
 13 43  1  0
 15 44  1  0
 16 45  1  0
 17 46  1  0
 18 47  1  0
 19 48  1  0
 21 49  1  0
 22 50  1  0
 24 51  1  0
 25 52  1  0
 26 53  1  0
 27 54  1  0
M  END
>  <smiles>  (35) 
O=C(NCC(=O)N1CCCCC1Cc1ccccc1)c1ccc2ccccc2n1

>  <score_type>  (35) 
oracle

>  <origin>  (35) 
autodockgpu

>  <m_score__min__energy>  (35) 
-9.3399999999999999

>  <m_primary>  (35) 
energy

>  <rmsd>  (35) 
2.710096740701155

>  <m_score__min__rmsd>  (35) 
2.710096740701155

>  <meeko>  (35) 
{"free_energy": -8.32, "intermolecular_energy": -10.11, "internal_energy": -2.09, "cluster_size": 5, "cluster_id": 3, "rank_in_cluster": 5}

>  <energy>  (35) 
-8.25

>  <cluster_rmsd>  (35) 
1.0

>  <cluster>  (35) 
1

$$$$

     RDKit          3D

 54 57  0  0  0  0  0  0  0  0999 V2000
  140.4510   71.4120  221.2610 O   0  0  0  0  0  0  0  0  0  0  0  0
  140.0540   72.0040  222.3210 C   0  0  0  0  0  0  0  0  0  0  0  0
  139.5970   73.3450  222.1980 N   0  0  0  0  0  0  0  0  0  0  0  0
  139.5710   74.0380  220.9220 C   0  0  0  0  0  0  0  0  0  0  0  0
  140.9190   74.5940  220.7010 C   0  0  0  0  0  0  0  0  0  0  0  0
  141.8980   73.9320  220.2700 O   0  0  0  0  0  0  0  0  0  0  0  0
  141.1380   75.9700  220.9910 N   0  0  0  0  0  0  0  0  0  0  0  0
  142.1990   76.7400  220.3520 C   0  0  0  0  0  0  0  0  0  0  0  0
  141.6840   78.0870  219.8890 C   0  0  0  0  0  0  0  0  0  0  0  0
  140.1870   78.1780  219.9060 C   0  0  0  0  0  0  0  0  0  0  0  0
  139.5430   77.6970  221.1680 C   0  0  0  0  0  0  0  0  0  0  0  0
  140.3100   76.6940  221.9460 C   0  0  2  0  0  0  0  0  0  0  0  0
  141.1280   77.2710  223.0710 C   0  0  0  0  0  0  0  0  0  0  0  0
  141.2800   78.7230  223.0540 C   0  0  0  0  0  0  0  0  0  0  0  0
  140.1950   79.4900  223.4980 C   0  0  0  0  0  0  0  0  0  0  0  0
  140.3010   80.8670  223.4980 C   0  0  0  0  0  0  0  0  0  0  0  0
  141.4300   81.5390  223.0820 C   0  0  0  0  0  0  0  0  0  0  0  0
  142.5110   80.7760  222.6420 C   0  0  0  0  0  0  0  0  0  0  0  0
  142.4080   79.4000  222.6390 C   0  0  0  0  0  0  0  0  0  0  0  0
  140.0730   71.3170  223.6220 C   0  0  0  0  0  0  0  0  0  0  0  0
  139.5530   70.0610  223.7100 C   0  0  0  0  0  0  0  0  0  0  0  0
  139.5100   69.3110  224.8710 C   0  0  0  0  0  0  0  0  0  0  0  0
  140.0490   69.9220  226.0050 C   0  0  0  0  0  0  0  0  0  0  0  0
  140.0390   69.2300  227.1990 C   0  0  0  0  0  0  0  0  0  0  0  0
  140.5700   69.8160  228.3500 C   0  0  0  0  0  0  0  0  0  0  0  0
  141.0940   71.1010  228.2290 C   0  0  0  0  0  0  0  0  0  0  0  0
  141.0980   71.7830  227.0270 C   0  0  0  0  0  0  0  0  0  0  0  0
  140.5750   71.2070  225.8910 C   0  0  0  0  0  0  0  0  0  0  0  0
  140.5820   71.8800  224.7230 N   0  0  0  0  0  0  0  0  0  0  0  0
  139.2740   73.8160  223.0860 H   0  0  0  0  0  0  0  0  0  0  0  0
  139.3167   73.3342  220.1158 H   0  0  0  0  0  0  0  0  0  0  0  0
  138.8147   74.8368  220.9264 H   0  0  0  0  0  0  0  0  0  0  0  0
  143.0158   76.8947  221.0723 H   0  0  0  0  0  0  0  0  0  0  0  0
  142.5606   76.1814  219.4761 H   0  0  0  0  0  0  0  0  0  0  0  0
  142.0903   78.8648  220.5524 H   0  0  0  0  0  0  0  0  0  0  0  0
  142.0108   78.2246  218.8477 H   0  0  0  0  0  0  0  0  0  0  0  0
  139.9066   79.2314  219.7588 H   0  0  0  0  0  0  0  0  0  0  0  0
  139.8276   77.5168  219.1037 H   0  0  0  0  0  0  0  0  0  0  0  0
  139.3770   78.5705  221.8156 H   0  0  0  0  0  0  0  0  0  0  0  0
  138.6195   77.1878  220.8552 H   0  0  0  0  0  0  0  0  0  0  0  0
  139.6037   76.0258  222.4606 H   0  0  0  0  0  0  0  0  0  0  0  0
  140.6458   76.9913  224.0193 H   0  0  0  0  0  0  0  0  0  0  0  0
  142.1409   76.8588  222.9517 H   0  0  0  0  0  0  0  0  0  0  0  0
  139.2711   79.0021  223.8420 H   0  0  0  0  0  0  0  0  0  0  0  0
  139.4410   81.4571  223.8476 H   0  0  0  0  0  0  0  0  0  0  0  0
  141.4767   82.6379  223.0965 H   0  0  0  0  0  0  0  0  0  0  0  0
  143.4353   81.2654  222.3012 H   0  0  0  0  0  0  0  0  0  0  0  0
  143.2694   78.8129  222.2878 H   0  0  0  0  0  0  0  0  0  0  0  0
  139.1389   69.6127  222.7948 H   0  0  0  0  0  0  0  0  0  0  0  0
  139.0793   68.2992  224.8993 H   0  0  0  0  0  0  0  0  0  0  0  0
  139.6128   68.2169  227.2441 H   0  0  0  0  0  0  0  0  0  0  0  0
  140.5743   69.2845  229.3131 H   0  0  0  0  0  0  0  0  0  0  0  0
  141.5183   71.5887  229.1190 H   0  0  0  0  0  0  0  0  0  0  0  0
  141.5233   72.7962  226.9773 H   0  0  0  0  0  0  0  0  0  0  0  0
  1  2  2  0
  2  3  1  0
  3  4  1  0
  4  5  1  0
  5  6  2  0
  5  7  1  0
  7  8  1  0
  8  9  1  0
  9 10  1  0
 10 11  1  0
 11 12  1  0
 12 13  1  0
 13 14  1  0
 14 15  2  0
 15 16  1  0
 16 17  2  0
 17 18  1  0
 18 19  2  0
  2 20  1  0
 20 21  2  0
 21 22  1  0
 22 23  2  0
 23 24  1  0
 24 25  2  0
 25 26  1  0
 26 27  2  0
 27 28  1  0
 28 29  2  0
 12  7  1  0
 19 14  1  0
 29 20  1  0
 28 23  1  0
  3 30  1  0
  4 31  1  0
  4 32  1  0
  8 33  1  0
  8 34  1  0
  9 35  1  0
  9 36  1  0
 10 37  1  0
 10 38  1  0
 11 39  1  0
 11 40  1  0
 12 41  1  1
 13 42  1  0
 13 43  1  0
 15 44  1  0
 16 45  1  0
 17 46  1  0
 18 47  1  0
 19 48  1  0
 21 49  1  0
 22 50  1  0
 24 51  1  0
 25 52  1  0
 26 53  1  0
 27 54  1  0
M  END
>  <smiles>  (36) 
O=C(NCC(=O)N1CCCCC1Cc1ccccc1)c1ccc2ccccc2n1

>  <score_type>  (36) 
oracle

>  <origin>  (36) 
autodockgpu

>  <m_score__min__energy>  (36) 
-9.3399999999999999

>  <m_primary>  (36) 
energy

>  <rmsd>  (36) 
2.621614950043867

>  <m_score__min__rmsd>  (36) 
2.621614950043867

>  <meeko>  (36) 
{"free_energy": -8.99, "intermolecular_energy": -10.78, "internal_energy": -1.47, "cluster_size": 35, "cluster_id": 1, "rank_in_cluster": 15}

>  <energy>  (36) 
-8.95

>  <cluster_rmsd>  (36) 
0.0

>  <cluster>  (36) 
2

$$$$

     RDKit          3D

 54 57  0  0  0  0  0  0  0  0999 V2000
  138.8990   70.6400  221.6030 O   0  0  0  0  0  0  0  0  0  0  0  0
  139.2450   71.2210  222.6870 C   0  0  0  0  0  0  0  0  0  0  0  0
  139.3830   72.6360  222.6630 N   0  0  0  0  0  0  0  0  0  0  0  0
  139.1440   73.4150  221.4610 C   0  0  0  0  0  0  0  0  0  0  0  0
  139.0190   74.8250  221.8730 C   0  0  0  0  0  0  0  0  0  0  0  0
  137.9920   75.3220  222.4020 O   0  0  0  0  0  0  0  0  0  0  0  0
  140.1300   75.6900  221.6650 N   0  0  0  0  0  0  0  0  0  0  0  0
  141.3700   75.2290  221.0510 C   0  0  0  0  0  0  0  0  0  0  0  0
  141.8530   76.2140  220.0070 C   0  0  0  0  0  0  0  0  0  0  0  0
  140.8140   77.2310  219.6370 C   0  0  0  0  0  0  0  0  0  0  0  0
  140.1310   77.8820  220.7980 C   0  0  0  0  0  0  0  0  0  0  0  0
  140.0930   77.0930  222.0530 C   0  0  2  0  0  0  0  0  0  0  0  0
  141.1840   77.4310  223.0340 C   0  0  0  0  0  0  0  0  0  0  0  0
  141.4750   78.8540  223.1820 C   0  0  0  0  0  0  0  0  0  0  0  0
  140.4000   79.7080  223.4560 C   0  0  0  0  0  0  0  0  0  0  0  0
  140.6360   81.0610  223.6040 C   0  0  0  0  0  0  0  0  0  0  0  0
  141.8890   81.6260  223.4950 C   0  0  0  0  0  0  0  0  0  0  0  0
  142.9600   80.7760  223.2220 C   0  0  0  0  0  0  0  0  0  0  0  0
  142.7270   79.4240  223.0740 C   0  0  0  0  0  0  0  0  0  0  0  0
  139.4910   70.4470  223.9140 C   0  0  0  0  0  0  0  0  0  0  0  0
  139.1180   69.1370  223.9510 C   0  0  0  0  0  0  0  0  0  0  0  0
  139.2930   68.3050  225.0420 C   0  0  0  0  0  0  0  0  0  0  0  0
  139.8980   68.8890  226.1570 C   0  0  0  0  0  0  0  0  0  0  0  0
  140.1050   68.1150  227.2800 C   0  0  0  0  0  0  0  0  0  0  0  0
  140.7070   68.6720  228.4110 C   0  0  0  0  0  0  0  0  0  0  0  0
  141.0770   70.0120  228.3420 C   0  0  0  0  0  0  0  0  0  0  0  0
  140.8650   70.7770  227.2100 C   0  0  0  0  0  0  0  0  0  0  0  0
  140.2710   70.2290  226.0950 C   0  0  0  0  0  0  0  0  0  0  0  0
  140.0680   70.9820  224.9950 N   0  0  0  0  0  0  0  0  0  0  0  0
  139.6700   73.0960  223.5690 H   0  0  0  0  0  0  0  0  0  0  0  0
  139.9865   73.2995  220.7633 H   0  0  0  0  0  0  0  0  0  0  0  0
  138.2309   73.0750  220.9504 H   0  0  0  0  0  0  0  0  0  0  0  0
  142.1398   75.1225  221.8295 H   0  0  0  0  0  0  0  0  0  0  0  0
  141.1825   74.2615  220.5623 H   0  0  0  0  0  0  0  0  0  0  0  0
  142.7340   76.7406  220.4027 H   0  0  0  0  0  0  0  0  0  0  0  0
  142.0914   75.6410  219.0988 H   0  0  0  0  0  0  0  0  0  0  0  0
  141.3016   78.0174  219.0421 H   0  0  0  0  0  0  0  0  0  0  0  0
  140.0335   76.6886  219.0833 H   0  0  0  0  0  0  0  0  0  0  0  0
  140.6531   78.8268  221.0096 H   0  0  0  0  0  0  0  0  0  0  0  0
  139.0814   78.0075  220.4936 H   0  0  0  0  0  0  0  0  0  0  0  0
  139.1714   77.3389  222.6010 H   0  0  0  0  0  0  0  0  0  0  0  0
  140.8874   77.0412  224.0189 H   0  0  0  0  0  0  0  0  0  0  0  0
  142.1018   76.9741  222.6355 H   0  0  0  0  0  0  0  0  0  0  0  0
  139.3803   79.3067  223.5522 H   0  0  0  0  0  0  0  0  0  0  0  0
  139.7822   81.7202  223.8195 H   0  0  0  0  0  0  0  0  0  0  0  0
  142.0384   82.7087  223.6190 H   0  0  0  0  0  0  0  0  0  0  0  0
  143.9791   81.1786  223.1257 H   0  0  0  0  0  0  0  0  0  0  0  0
  143.5828   78.7672  222.8590 H   0  0  0  0  0  0  0  0  0  0  0  0
  138.6459   68.7125  223.0527 H   0  0  0  0  0  0  0  0  0  0  0  0
  138.9762   67.2517  225.0321 H   0  0  0  0  0  0  0  0  0  0  0  0
  139.7961   67.0593  227.2850 H   0  0  0  0  0  0  0  0  0  0  0  0
  140.8814   68.0759  229.3189 H   0  0  0  0  0  0  0  0  0  0  0  0
  141.5538   70.4778  229.2170 H   0  0  0  0  0  0  0  0  0  0  0  0
  141.1736   71.8328  227.1999 H   0  0  0  0  0  0  0  0  0  0  0  0
  1  2  2  0
  2  3  1  0
  3  4  1  0
  4  5  1  0
  5  6  2  0
  5  7  1  0
  7  8  1  0
  8  9  1  0
  9 10  1  0
 10 11  1  0
 11 12  1  0
 12 13  1  0
 13 14  1  0
 14 15  2  0
 15 16  1  0
 16 17  2  0
 17 18  1  0
 18 19  2  0
  2 20  1  0
 20 21  2  0
 21 22  1  0
 22 23  2  0
 23 24  1  0
 24 25  2  0
 25 26  1  0
 26 27  2  0
 27 28  1  0
 28 29  2  0
 12  7  1  0
 19 14  1  0
 29 20  1  0
 28 23  1  0
  3 30  1  0
  4 31  1  0
  4 32  1  0
  8 33  1  0
  8 34  1  0
  9 35  1  0
  9 36  1  0
 10 37  1  0
 10 38  1  0
 11 39  1  0
 11 40  1  0
 12 41  1  1
 13 42  1  0
 13 43  1  0
 15 44  1  0
 16 45  1  0
 17 46  1  0
 18 47  1  0
 19 48  1  0
 21 49  1  0
 22 50  1  0
 24 51  1  0
 25 52  1  0
 26 53  1  0
 27 54  1  0
M  END
>  <smiles>  (37) 
O=C(NCC(=O)N1CCCCC1Cc1ccccc1)c1ccc2ccccc2n1

>  <score_type>  (37) 
oracle

>  <origin>  (37) 
autodockgpu

>  <m_score__min__energy>  (37) 
-9.3399999999999999

>  <m_primary>  (37) 
energy

>  <rmsd>  (37) 
2.390378826840398

>  <m_score__min__rmsd>  (37) 
2.390378826840398

>  <meeko>  (37) 
{"free_energy": -8.96, "intermolecular_energy": -10.75, "internal_energy": -1.59, "cluster_size": 35, "cluster_id": 1, "rank_in_cluster": 16}

>  <energy>  (37) 
-8.66

>  <cluster_rmsd>  (37) 
1.01

>  <cluster>  (37) 
2

$$$$

     RDKit          3D

 54 57  0  0  0  0  0  0  0  0999 V2000
  137.4740   76.0220  222.3060 O   0  0  0  0  0  0  0  0  0  0  0  0
  138.7440   76.1600  222.3270 C   0  0  0  0  0  0  0  0  0  0  0  0
  139.5360   75.0340  221.9710 N   0  0  0  0  0  0  0  0  0  0  0  0
  138.9450   73.7620  221.5930 C   0  0  0  0  0  0  0  0  0  0  0  0
  139.6200   72.7160  222.3840 C   0  0  0  0  0  0  0  0  0  0  0  0
  140.8190   72.7730  222.7600 O   0  0  0  0  0  0  0  0  0  0  0  0
  138.8730   71.5620  222.7540 N   0  0  0  0  0  0  0  0  0  0  0  0
  137.4190   71.5140  222.6590 C   0  0  0  0  0  0  0  0  0  0  0  0
  136.9620   70.2150  222.0290 C   0  0  0  0  0  0  0  0  0  0  0  0
  138.0810   69.4550  221.3810 C   0  0  0  0  0  0  0  0  0  0  0  0
  139.3100   69.3080  222.2220 C   0  0  0  0  0  0  0  0  0  0  0  0
  139.5210   70.3560  223.2500 C   0  0  2  0  0  0  0  0  0  0  0  0
  139.0360   69.9860  224.6260 C   0  0  0  0  0  0  0  0  0  0  0  0
  139.8090   70.5400  225.7330 C   0  0  0  0  0  0  0  0  0  0  0  0
  139.6220   69.9710  227.0000 C   0  0  0  0  0  0  0  0  0  0  0  0
  140.3360   70.4680  228.0720 C   0  0  0  0  0  0  0  0  0  0  0  0
  141.2360   71.5060  227.9660 C   0  0  0  0  0  0  0  0  0  0  0  0
  141.4240   72.0720  226.7050 C   0  0  0  0  0  0  0  0  0  0  0  0
  140.7110   71.5790  225.6320 C   0  0  0  0  0  0  0  0  0  0  0  0
  139.3590   77.4410  222.7060 C   0  0  0  0  0  0  0  0  0  0  0  0
  138.5510   78.4760  223.0710 C   0  0  0  0  0  0  0  0  0  0  0  0
  139.0050   79.7270  223.4480 C   0  0  0  0  0  0  0  0  0  0  0  0
  140.3910   79.8950  223.4400 C   0  0  0  0  0  0  0  0  0  0  0  0
  140.9130   81.1180  223.8060 C   0  0  0  0  0  0  0  0  0  0  0  0
  142.2950   81.3160  223.8080 C   0  0  0  0  0  0  0  0  0  0  0  0
  143.0950   80.2400  223.4300 C   0  0  0  0  0  0  0  0  0  0  0  0
  142.5590   79.0190  223.0660 C   0  0  0  0  0  0  0  0  0  0  0  0
  141.1970   78.8220  223.0640 C   0  0  0  0  0  0  0  0  0  0  0  0
  140.6830   77.6290  222.7070 N   0  0  0  0  0  0  0  0  0  0  0  0
  140.5830   75.1680  221.9950 H   0  0  0  0  0  0  0  0  0  0  0  0
  137.8676   73.7661  221.8149 H   0  0  0  0  0  0  0  0  0  0  0  0
  139.0691   73.5783  220.5156 H   0  0  0  0  0  0  0  0  0  0  0  0
  136.9891   71.5958  223.6682 H   0  0  0  0  0  0  0  0  0  0  0  0
  137.0799   72.3492  222.0285 H   0  0  0  0  0  0  0  0  0  0  0  0
  136.5157   69.5835  222.8113 H   0  0  0  0  0  0  0  0  0  0  0  0
  136.2355   70.4673  221.2425 H   0  0  0  0  0  0  0  0  0  0  0  0
  137.7129   68.4482  221.1343 H   0  0  0  0  0  0  0  0  0  0  0  0
  138.3791   70.0373  220.4966 H   0  0  0  0  0  0  0  0  0  0  0  0
  139.2519   68.3377  222.7370 H   0  0  0  0  0  0  0  0  0  0  0  0
  140.1583   69.3975  221.5274 H   0  0  0  0  0  0  0  0  0  0  0  0
  140.6017   70.5036  223.3921 H   0  0  0  0  0  0  0  0  0  0  0  0
  137.9990   70.3388  224.7264 H   0  0  0  0  0  0  0  0  0  0  0  0
  139.1409   68.8935  224.7004 H   0  0  0  0  0  0  0  0  0  0  0  0
  138.9156   69.1393  227.1385 H   0  0  0  0  0  0  0  0  0  0  0  0
  140.1785   70.0123  229.0607 H   0  0  0  0  0  0  0  0  0  0  0  0
  141.7863   71.8750  228.8441 H   0  0  0  0  0  0  0  0  0  0  0  0
  142.1327   72.9020  226.5678 H   0  0  0  0  0  0  0  0  0  0  0  0
  140.8698   72.0379  224.6450 H   0  0  0  0  0  0  0  0  0  0  0  0
  137.4644   78.3050  223.0654 H   0  0  0  0  0  0  0  0  0  0  0  0
  138.3185   80.5370  223.7355 H   0  0  0  0  0  0  0  0  0  0  0  0
  140.2399   81.9381  224.0966 H   0  0  0  0  0  0  0  0  0  0  0  0
  142.7343   82.2824  224.0963 H   0  0  0  0  0  0  0  0  0  0  0  0
  144.1877   80.3660  223.4209 H   0  0  0  0  0  0  0  0  0  0  0  0
  143.2283   78.1960  222.7748 H   0  0  0  0  0  0  0  0  0  0  0  0
  1  2  2  0
  2  3  1  0
  3  4  1  0
  4  5  1  0
  5  6  2  0
  5  7  1  0
  7  8  1  0
  8  9  1  0
  9 10  1  0
 10 11  1  0
 11 12  1  0
 12 13  1  0
 13 14  1  0
 14 15  2  0
 15 16  1  0
 16 17  2  0
 17 18  1  0
 18 19  2  0
  2 20  1  0
 20 21  2  0
 21 22  1  0
 22 23  2  0
 23 24  1  0
 24 25  2  0
 25 26  1  0
 26 27  2  0
 27 28  1  0
 28 29  2  0
 12  7  1  0
 19 14  1  0
 29 20  1  0
 28 23  1  0
  3 30  1  0
  4 31  1  0
  4 32  1  0
  8 33  1  0
  8 34  1  0
  9 35  1  0
  9 36  1  0
 10 37  1  0
 10 38  1  0
 11 39  1  0
 11 40  1  0
 12 41  1  1
 13 42  1  0
 13 43  1  0
 15 44  1  0
 16 45  1  0
 17 46  1  0
 18 47  1  0
 19 48  1  0
 21 49  1  0
 22 50  1  0
 24 51  1  0
 25 52  1  0
 26 53  1  0
 27 54  1  0
M  END
>  <smiles>  (38) 
O=C(NCC(=O)N1CCCCC1Cc1ccccc1)c1ccc2ccccc2n1

>  <score_type>  (38) 
oracle

>  <origin>  (38) 
autodockgpu

>  <m_score__min__energy>  (38) 
-9.3399999999999999

>  <m_primary>  (38) 
energy

>  <rmsd>  (38) 
8.368327564893256

>  <m_score__min__rmsd>  (38) 
8.368327564893256

>  <meeko>  (38) 
{"free_energy": -8.66, "intermolecular_energy": -10.45, "internal_energy": -1.91, "cluster_size": 9, "cluster_id": 2, "rank_in_cluster": 2}

>  <energy>  (38) 
-8.59

>  <cluster_rmsd>  (38) 
1.09

>  <cluster>  (38) 
2

$$$$

     RDKit          3D

 54 57  0  0  0  0  0  0  0  0999 V2000
  137.3580   76.2460  222.0970 O   0  0  0  0  0  0  0  0  0  0  0  0
  138.6120   76.2850  222.3400 C   0  0  0  0  0  0  0  0  0  0  0  0
  139.3430   75.0700  222.2400 N   0  0  0  0  0  0  0  0  0  0  0  0
  138.7090   73.8150  221.8750 C   0  0  0  0  0  0  0  0  0  0  0  0
  139.5080   72.7320  222.4780 C   0  0  0  0  0  0  0  0  0  0  0  0
  140.7300   72.8250  222.7610 O   0  0  0  0  0  0  0  0  0  0  0  0
  138.8630   71.4960  222.7640 N   0  0  0  0  0  0  0  0  0  0  0  0
  137.4120   71.3520  222.7390 C   0  0  0  0  0  0  0  0  0  0  0  0
  137.0080   70.0930  222.0010 C   0  0  0  0  0  0  0  0  0  0  0  0
  138.1350   69.4840  221.2230 C   0  0  0  0  0  0  0  0  0  0  0  0
  139.4180   69.3440  221.9800 C   0  0  0  0  0  0  0  0  0  0  0  0
  139.6170   70.2970  223.0990 C   0  0  2  0  0  0  0  0  0  0  0  0
  139.2390   69.7570  224.4520 C   0  0  0  0  0  0  0  0  0  0  0  0
  139.8940   70.3980  225.5880 C   0  0  0  0  0  0  0  0  0  0  0  0
  139.6300   69.8800  226.8630 C   0  0  0  0  0  0  0  0  0  0  0  0
  140.2320   70.4590  227.9630 C   0  0  0  0  0  0  0  0  0  0  0  0
  141.0910   71.5330  227.8770 C   0  0  0  0  0  0  0  0  0  0  0  0
  141.3560   72.0490  226.6080 C   0  0  0  0  0  0  0  0  0  0  0  0
  140.7550   71.4730  225.5070 C   0  0  0  0  0  0  0  0  0  0  0  0
  139.2700   77.5480  222.7100 C   0  0  0  0  0  0  0  0  0  0  0  0
  138.4980   78.6130  223.0670 C   0  0  0  0  0  0  0  0  0  0  0  0
  138.9940   79.8500  223.4350 C   0  0  0  0  0  0  0  0  0  0  0  0
  140.3850   79.9710  223.4260 C   0  0  0  0  0  0  0  0  0  0  0  0
  140.9480   81.1790  223.7830 C   0  0  0  0  0  0  0  0  0  0  0  0
  142.3370   81.3300  223.7830 C   0  0  0  0  0  0  0  0  0  0  0  0
  143.0990   80.2240  223.4130 C   0  0  0  0  0  0  0  0  0  0  0  0
  142.5220   79.0190  223.0580 C   0  0  0  0  0  0  0  0  0  0  0  0
  141.1540   78.8690  223.0570 C   0  0  0  0  0  0  0  0  0  0  0  0
  140.6000   77.6910  222.7090 N   0  0  0  0  0  0  0  0  0  0  0  0
  140.3770   75.1240  222.4450 H   0  0  0  0  0  0  0  0  0  0  0  0
  137.6802   73.7855  222.2632 H   0  0  0  0  0  0  0  0  0  0  0  0
  138.6626   73.7041  220.7816 H   0  0  0  0  0  0  0  0  0  0  0  0
  137.0371   71.3003  223.7718 H   0  0  0  0  0  0  0  0  0  0  0  0
  136.9811   72.2194  222.2175 H   0  0  0  0  0  0  0  0  0  0  0  0
  136.6500   69.3559  222.7349 H   0  0  0  0  0  0  0  0  0  0  0  0
  136.2233   70.3703  221.2818 H   0  0  0  0  0  0  0  0  0  0  0  0
  137.8212   68.4824  220.8937 H   0  0  0  0  0  0  0  0  0  0  0  0
  138.3415   70.1709  220.3891 H   0  0  0  0  0  0  0  0  0  0  0  0
  139.4558   68.3255  222.3939 H   0  0  0  0  0  0  0  0  0  0  0  0
  140.2164   69.5639  221.2560 H   0  0  0  0  0  0  0  0  0  0  0  0
  140.6917   70.5082  223.2008 H   0  0  0  0  0  0  0  0  0  0  0  0
  138.1525   69.8782  224.5742 H   0  0  0  0  0  0  0  0  0  0  0  0
  139.5713   68.7084  224.4631 H   0  0  0  0  0  0  0  0  0  0  0  0
  138.9517   69.0228  226.9863 H   0  0  0  0  0  0  0  0  0  0  0  0
  140.0148   70.0419  228.9574 H   0  0  0  0  0  0  0  0  0  0  0  0
  141.5513   71.9679  228.7764 H   0  0  0  0  0  0  0  0  0  0  0  0
  142.0361   72.9050  226.4864 H   0  0  0  0  0  0  0  0  0  0  0  0
  140.9738   71.8926  224.5140 H   0  0  0  0  0  0  0  0  0  0  0  0
  137.4062   78.4793  223.0620 H   0  0  0  0  0  0  0  0  0  0  0  0
  138.3354   80.6848  223.7166 H   0  0  0  0  0  0  0  0  0  0  0  0
  140.3031   82.0234  224.0677 H   0  0  0  0  0  0  0  0  0  0  0  0
  142.8094   82.2829  224.0636 H   0  0  0  0  0  0  0  0  0  0  0  0
  144.1954   80.3124  223.4030 H   0  0  0  0  0  0  0  0  0  0  0  0
  143.1628   78.1714  222.7734 H   0  0  0  0  0  0  0  0  0  0  0  0
  1  2  2  0
  2  3  1  0
  3  4  1  0
  4  5  1  0
  5  6  2  0
  5  7  1  0
  7  8  1  0
  8  9  1  0
  9 10  1  0
 10 11  1  0
 11 12  1  0
 12 13  1  0
 13 14  1  0
 14 15  2  0
 15 16  1  0
 16 17  2  0
 17 18  1  0
 18 19  2  0
  2 20  1  0
 20 21  2  0
 21 22  1  0
 22 23  2  0
 23 24  1  0
 24 25  2  0
 25 26  1  0
 26 27  2  0
 27 28  1  0
 28 29  2  0
 12  7  1  0
 19 14  1  0
 29 20  1  0
 28 23  1  0
  3 30  1  0
  4 31  1  0
  4 32  1  0
  8 33  1  0
  8 34  1  0
  9 35  1  0
  9 36  1  0
 10 37  1  0
 10 38  1  0
 11 39  1  0
 11 40  1  0
 12 41  1  1
 13 42  1  0
 13 43  1  0
 15 44  1  0
 16 45  1  0
 17 46  1  0
 18 47  1  0
 19 48  1  0
 21 49  1  0
 22 50  1  0
 24 51  1  0
 25 52  1  0
 26 53  1  0
 27 54  1  0
M  END
>  <smiles>  (39) 
O=C(NCC(=O)N1CCCCC1Cc1ccccc1)c1ccc2ccccc2n1

>  <score_type>  (39) 
oracle

>  <origin>  (39) 
autodockgpu

>  <m_score__min__energy>  (39) 
-9.3399999999999999

>  <m_primary>  (39) 
energy

>  <rmsd>  (39) 
8.4164195404688

>  <m_score__min__rmsd>  (39) 
8.4164195404688

>  <meeko>  (39) 
{"free_energy": -8.55, "intermolecular_energy": -10.34, "internal_energy": -2.06, "cluster_size": 9, "cluster_id": 2, "rank_in_cluster": 6}

>  <energy>  (39) 
-8.58

>  <cluster_rmsd>  (39) 
1.01

>  <cluster>  (39) 
2

$$$$

     RDKit          3D

 54 57  0  0  0  0  0  0  0  0999 V2000
  141.3970   73.0060  221.4950 O   0  0  0  0  0  0  0  0  0  0  0  0
  140.4330   73.0130  222.3330 C   0  0  0  0  0  0  0  0  0  0  0  0
  139.5850   74.1540  222.3540 N   0  0  0  0  0  0  0  0  0  0  0  0
  139.7860   75.2820  221.4630 C   0  0  0  0  0  0  0  0  0  0  0  0
  139.0640   76.4300  222.0440 C   0  0  0  0  0  0  0  0  0  0  0  0
  137.9470   76.3500  222.6170 O   0  0  0  0  0  0  0  0  0  0  0  0
  139.6630   77.7180  221.9570 N   0  0  0  0  0  0  0  0  0  0  0  0
  138.8700   78.9410  221.9050 C   0  0  0  0  0  0  0  0  0  0  0  0
  139.4350   79.9900  222.8410 C   0  0  0  0  0  0  0  0  0  0  0  0
  140.4430   79.4330  223.8020 C   0  0  0  0  0  0  0  0  0  0  0  0
  141.4910   78.5650  223.1800 C   0  0  0  0  0  0  0  0  0  0  0  0
  141.1080   77.8910  221.9150 C   0  0  2  0  0  0  0  0  0  0  0  0
  141.5490   78.6100  220.6680 C   0  0  0  0  0  0  0  0  0  0  0  0
  142.1710   77.7700  219.6480 C   0  0  0  0  0  0  0  0  0  0  0  0
  142.6060   76.4960  220.0380 C   0  0  0  0  0  0  0  0  0  0  0  0
  143.1980   75.6720  219.1020 C   0  0  0  0  0  0  0  0  0  0  0  0
  143.3890   76.0370  217.7860 C   0  0  0  0  0  0  0  0  0  0  0  0
  142.9560   77.3040  217.3970 C   0  0  0  0  0  0  0  0  0  0  0  0
  142.3640   78.1310  218.3310 C   0  0  0  0  0  0  0  0  0  0  0  0
  140.2150   71.8770  223.2430 C   0  0  0  0  0  0  0  0  0  0  0  0
  139.5360   70.7880  222.7840 C   0  0  0  0  0  0  0  0  0  0  0  0
  139.2660   69.6600  223.5380 C   0  0  0  0  0  0  0  0  0  0  0  0
  139.7390   69.6840  224.8510 C   0  0  0  0  0  0  0  0  0  0  0  0
  139.5050   68.5910  225.6600 C   0  0  0  0  0  0  0  0  0  0  0  0
  139.9660   68.5850  226.9780 C   0  0  0  0  0  0  0  0  0  0  0  0
  140.6550   69.7120  227.4180 C   0  0  0  0  0  0  0  0  0  0  0  0
  140.8830   70.8010  226.5980 C   0  0  0  0  0  0  0  0  0  0  0  0
  140.4300   70.8080  225.2980 C   0  0  0  0  0  0  0  0  0  0  0  0
  140.6560   71.8740  224.5050 N   0  0  0  0  0  0  0  0  0  0  0  0
  138.7940   74.1400  223.0550 H   0  0  0  0  0  0  0  0  0  0  0  0
  140.8586   75.5126  221.3828 H   0  0  0  0  0  0  0  0  0  0  0  0
  139.4112   75.0547  220.4541 H   0  0  0  0  0  0  0  0  0  0  0  0
  138.8787   79.3328  220.8772 H   0  0  0  0  0  0  0  0  0  0  0  0
  137.8415   78.7074  222.2176 H   0  0  0  0  0  0  0  0  0  0  0  0
  139.9193   80.7731  222.2391 H   0  0  0  0  0  0  0  0  0  0  0  0
  138.5984   80.3880  223.4341 H   0  0  0  0  0  0  0  0  0  0  0  0
  140.9468   80.2766  224.2964 H   0  0  0  0  0  0  0  0  0  0  0  0
  139.8841   78.7917  224.4994 H   0  0  0  0  0  0  0  0  0  0  0  0
  142.3702   79.1933  222.9742 H   0  0  0  0  0  0  0  0  0  0  0  0
  141.6757   77.7571  223.9033 H   0  0  0  0  0  0  0  0  0  0  0  0
  141.6320   76.9259  221.8519 H   0  0  0  0  0  0  0  0  0  0  0  0
  140.6648   79.0881  220.2212 H   0  0  0  0  0  0  0  0  0  0  0  0
  142.3232   79.3234  220.9869 H   0  0  0  0  0  0  0  0  0  0  0  0
  142.4773   76.1571  221.0765 H   0  0  0  0  0  0  0  0  0  0  0  0
  143.5341   74.6746  219.4218 H   0  0  0  0  0  0  0  0  0  0  0  0
  143.8660   75.3530  217.0687 H   0  0  0  0  0  0  0  0  0  0  0  0
  143.0845   77.6410  216.3578 H   0  0  0  0  0  0  0  0  0  0  0  0
  142.0295   79.1280  218.0083 H   0  0  0  0  0  0  0  0  0  0  0  0
  139.1786   70.8073  221.7439 H   0  0  0  0  0  0  0  0  0  0  0  0
  138.7146   68.8003  223.1295 H   0  0  0  0  0  0  0  0  0  0  0  0
  138.9548   67.7236  225.2663 H   0  0  0  0  0  0  0  0  0  0  0  0
  139.7919   67.7251  227.6415 H   0  0  0  0  0  0  0  0  0  0  0  0
  141.0301   69.7365  228.4518 H   0  0  0  0  0  0  0  0  0  0  0  0
  141.4319   71.6708  226.9880 H   0  0  0  0  0  0  0  0  0  0  0  0
  1  2  2  0
  2  3  1  0
  3  4  1  0
  4  5  1  0
  5  6  2  0
  5  7  1  0
  7  8  1  0
  8  9  1  0
  9 10  1  0
 10 11  1  0
 11 12  1  0
 12 13  1  0
 13 14  1  0
 14 15  2  0
 15 16  1  0
 16 17  2  0
 17 18  1  0
 18 19  2  0
  2 20  1  0
 20 21  2  0
 21 22  1  0
 22 23  2  0
 23 24  1  0
 24 25  2  0
 25 26  1  0
 26 27  2  0
 27 28  1  0
 28 29  2  0
 12  7  1  0
 19 14  1  0
 29 20  1  0
 28 23  1  0
  3 30  1  0
  4 31  1  0
  4 32  1  0
  8 33  1  0
  8 34  1  0
  9 35  1  0
  9 36  1  0
 10 37  1  0
 10 38  1  0
 11 39  1  0
 11 40  1  0
 12 41  1  1
 13 42  1  0
 13 43  1  0
 15 44  1  0
 16 45  1  0
 17 46  1  0
 18 47  1  0
 19 48  1  0
 21 49  1  0
 22 50  1  0
 24 51  1  0
 25 52  1  0
 26 53  1  0
 27 54  1  0
M  END
>  <smiles>  (40) 
O=C(NCC(=O)N1CCCCC1Cc1ccccc1)c1ccc2ccccc2n1

>  <score_type>  (40) 
oracle

>  <origin>  (40) 
autodockgpu

>  <m_score__min__energy>  (40) 
-9.3399999999999999

>  <m_primary>  (40) 
energy

>  <rmsd>  (40) 
3.2398863455179705

>  <m_score__min__rmsd>  (40) 
3.2398863455179705

>  <meeko>  (40) 
{"free_energy": -8.33, "intermolecular_energy": -10.12, "internal_energy": -1.88, "cluster_size": 1, "cluster_id": 4, "rank_in_cluster": 1}

>  <energy>  (40) 
-8.56

>  <cluster_rmsd>  (40) 
0.97

>  <cluster>  (40) 
2

$$$$

     RDKit          3D

 54 57  0  0  0  0  0  0  0  0999 V2000
  139.6720   75.2090  220.2420 O   0  0  0  0  0  0  0  0  0  0  0  0
  139.5980   75.4310  221.4980 C   0  0  0  0  0  0  0  0  0  0  0  0
  139.2590   74.3380  222.3440 N   0  0  0  0  0  0  0  0  0  0  0  0
  139.0040   73.0080  221.8210 C   0  0  0  0  0  0  0  0  0  0  0  0
  139.7000   72.0530  222.7030 C   0  0  0  0  0  0  0  0  0  0  0  0
  140.9210   72.1200  222.9990 O   0  0  0  0  0  0  0  0  0  0  0  0
  138.9500   70.9800  223.2620 N   0  0  0  0  0  0  0  0  0  0  0  0
  137.6000   71.1640  223.7830 C   0  0  0  0  0  0  0  0  0  0  0  0
  136.6840   70.0570  223.3050 C   0  0  0  0  0  0  0  0  0  0  0  0
  137.2780   69.2460  222.1920 C   0  0  0  0  0  0  0  0  0  0  0  0
  138.6840   68.7930  222.4270 C   0  0  0  0  0  0  0  0  0  0  0  0
  139.4900   69.6300  223.3480 C   0  0  2  0  0  0  0  0  0  0  0  0
  139.5300   69.1330  224.7680 C   0  0  0  0  0  0  0  0  0  0  0  0
  140.0570   70.0780  225.7490 C   0  0  0  0  0  0  0  0  0  0  0  0
  139.5530   70.0030  227.0530 C   0  0  0  0  0  0  0  0  0  0  0  0
  140.0280   70.8790  228.0090 C   0  0  0  0  0  0  0  0  0  0  0  0
  140.9850   71.8370  227.7490 C   0  0  0  0  0  0  0  0  0  0  0  0
  141.4890   71.9110  226.4500 C   0  0  0  0  0  0  0  0  0  0  0  0
  141.0150   71.0370  225.4930 C   0  0  0  0  0  0  0  0  0  0  0  0
  139.8540   76.7730  222.0450 C   0  0  0  0  0  0  0  0  0  0  0  0
  138.7980   77.5240  222.4650 C   0  0  0  0  0  0  0  0  0  0  0  0
  138.9050   78.7970  222.9960 C   0  0  0  0  0  0  0  0  0  0  0  0
  140.2030   79.3050  223.0900 C   0  0  0  0  0  0  0  0  0  0  0  0
  140.3840   80.5690  223.6110 C   0  0  0  0  0  0  0  0  0  0  0  0
  141.6690   81.1050  223.7160 C   0  0  0  0  0  0  0  0  0  0  0  0
  142.7280   80.3130  223.2780 C   0  0  0  0  0  0  0  0  0  0  0  0
  142.5330   79.0470  222.7580 C   0  0  0  0  0  0  0  0  0  0  0  0
  141.2660   78.5180  222.6540 C   0  0  0  0  0  0  0  0  0  0  0  0
  141.0850   77.2840  222.1450 N   0  0  0  0  0  0  0  0  0  0  0  0
  139.2030   74.5430  223.3780 H   0  0  0  0  0  0  0  0  0  0  0  0
  137.9232   72.8033  221.8218 H   0  0  0  0  0  0  0  0  0  0  0  0
  139.3654   72.9190  220.7859 H   0  0  0  0  0  0  0  0  0  0  0  0
  137.6334   71.1550  224.8825 H   0  0  0  0  0  0  0  0  0  0  0  0
  137.2098   72.1262  223.4198 H   0  0  0  0  0  0  0  0  0  0  0  0
  136.4711   69.3878  224.1516 H   0  0  0  0  0  0  0  0  0  0  0  0
  135.7701   70.5302  222.9165 H   0  0  0  0  0  0  0  0  0  0  0  0
  136.6510   68.3540  222.0462 H   0  0  0  0  0  0  0  0  0  0  0  0
  137.3080   69.9042  221.3112 H   0  0  0  0  0  0  0  0  0  0  0  0
  138.6449   67.7757  222.8436 H   0  0  0  0  0  0  0  0  0  0  0  0
  139.1848   68.8596  221.4499 H   0  0  0  0  0  0  0  0  0  0  0  0
  140.5440   69.5919  223.0354 H   0  0  0  0  0  0  0  0  0  0  0  0
  138.5034   68.8728  225.0653 H   0  0  0  0  0  0  0  0  0  0  0  0
  140.2217   68.2777  224.7699 H   0  0  0  0  0  0  0  0  0  0  0  0
  138.7885   69.2559  227.3127 H   0  0  0  0  0  0  0  0  0  0  0  0
  139.6226   70.8090  229.0292 H   0  0  0  0  0  0  0  0  0  0  0  0
  141.3383   72.5182  228.5371 H   0  0  0  0  0  0  0  0  0  0  0  0
  142.2550   72.6571  226.1918 H   0  0  0  0  0  0  0  0  0  0  0  0
  141.4220   71.1087  224.4736 H   0  0  0  0  0  0  0  0  0  0  0  0
  137.7917   77.0887  222.3759 H   0  0  0  0  0  0  0  0  0  0  0  0
  138.0257   79.3715  223.3228 H   0  0  0  0  0  0  0  0  0  0  0  0
  139.5151   81.1555  223.9442 H   0  0  0  0  0  0  0  0  0  0  0  0
  141.8381   82.1110  224.1276 H   0  0  0  0  0  0  0  0  0  0  0  0
  143.7524   80.7077  223.3482 H   0  0  0  0  0  0  0  0  0  0  0  0
  143.3987   78.4563  222.4239 H   0  0  0  0  0  0  0  0  0  0  0  0
  1  2  2  0
  2  3  1  0
  3  4  1  0
  4  5  1  0
  5  6  2  0
  5  7  1  0
  7  8  1  0
  8  9  1  0
  9 10  1  0
 10 11  1  0
 11 12  1  0
 12 13  1  0
 13 14  1  0
 14 15  2  0
 15 16  1  0
 16 17  2  0
 17 18  1  0
 18 19  2  0
  2 20  1  0
 20 21  2  0
 21 22  1  0
 22 23  2  0
 23 24  1  0
 24 25  2  0
 25 26  1  0
 26 27  2  0
 27 28  1  0
 28 29  2  0
 12  7  1  0
 19 14  1  0
 29 20  1  0
 28 23  1  0
  3 30  1  0
  4 31  1  0
  4 32  1  0
  8 33  1  0
  8 34  1  0
  9 35  1  0
  9 36  1  0
 10 37  1  0
 10 38  1  0
 11 39  1  0
 11 40  1  0
 12 41  1  6
 13 42  1  0
 13 43  1  0
 15 44  1  0
 16 45  1  0
 17 46  1  0
 18 47  1  0
 19 48  1  0
 21 49  1  0
 22 50  1  0
 24 51  1  0
 25 52  1  0
 26 53  1  0
 27 54  1  0
M  END
>  <smiles>  (41) 
O=C(NCC(=O)N1CCCCC1Cc1ccccc1)c1ccc2ccccc2n1

>  <score_type>  (41) 
oracle

>  <origin>  (41) 
autodockgpu

>  <m_score__min__energy>  (41) 
-9.3399999999999999

>  <m_primary>  (41) 
energy

>  <rmsd>  (41) 
8.411427604560862

>  <m_score__min__rmsd>  (41) 
8.411427604560862

>  <meeko>  (41) 
{"free_energy": -8.95, "intermolecular_energy": -10.74, "internal_energy": -1.39, "cluster_size": 9, "cluster_id": 2, "rank_in_cluster": 1}

>  <energy>  (41) 
-8.55

>  <cluster_rmsd>  (41) 
0.98

>  <cluster>  (41) 
2

$$$$

     RDKit          3D

 54 57  0  0  0  0  0  0  0  0999 V2000
  140.6430   72.0730  221.6030 O   0  0  0  0  0  0  0  0  0  0  0  0
  139.7660   72.1560  222.5280 C   0  0  0  0  0  0  0  0  0  0  0  0
  138.6650   73.0310  222.3180 N   0  0  0  0  0  0  0  0  0  0  0  0
  138.5200   73.8110  221.1020 C   0  0  0  0  0  0  0  0  0  0  0  0
  138.6700   75.2300  221.4760 C   0  0  0  0  0  0  0  0  0  0  0  0
  137.7170   75.9810  221.8100 O   0  0  0  0  0  0  0  0  0  0  0  0
  139.9750   75.7980  221.4610 N   0  0  0  0  0  0  0  0  0  0  0  0
  141.1720   74.9910  221.2520 C   0  0  0  0  0  0  0  0  0  0  0  0
  142.1030   75.6550  220.2590 C   0  0  0  0  0  0  0  0  0  0  0  0
  141.4530   76.7810  219.5110 C   0  0  0  0  0  0  0  0  0  0  0  0
  140.7040   77.7540  220.3660 C   0  0  0  0  0  0  0  0  0  0  0  0
  140.1920   77.2250  221.6540 C   0  0  2  0  0  0  0  0  0  0  0  0
  141.0810   77.5010  222.8370 C   0  0  0  0  0  0  0  0  0  0  0  0
  141.4040   78.9060  223.0640 C   0  0  0  0  0  0  0  0  0  0  0  0
  140.3350   79.7920  223.2530 C   0  0  0  0  0  0  0  0  0  0  0  0
  140.6000   81.1290  223.4720 C   0  0  0  0  0  0  0  0  0  0  0  0
  141.8760   81.6500  223.5160 C   0  0  0  0  0  0  0  0  0  0  0  0
  142.9410   80.7690  223.3290 C   0  0  0  0  0  0  0  0  0  0  0  0
  142.6790   79.4320  223.1090 C   0  0  0  0  0  0  0  0  0  0  0  0
  139.8960   71.3710  223.7660 C   0  0  0  0  0  0  0  0  0  0  0  0
  139.5060   70.0660  223.7620 C   0  0  0  0  0  0  0  0  0  0  0  0
  139.5770   69.2240  224.8570 C   0  0  0  0  0  0  0  0  0  0  0  0
  140.0900   69.7930  226.0240 C   0  0  0  0  0  0  0  0  0  0  0  0
  140.1900   69.0100  227.1550 C   0  0  0  0  0  0  0  0  0  0  0  0
  140.6990   69.5520  228.3380 C   0  0  0  0  0  0  0  0  0  0  0  0
  141.0890   70.8880  228.3110 C   0  0  0  0  0  0  0  0  0  0  0  0
  140.9840   71.6620  227.1710 C   0  0  0  0  0  0  0  0  0  0  0  0
  140.4820   71.1300  226.0050 C   0  0  0  0  0  0  0  0  0  0  0  0
  140.3830   71.8920  224.8980 N   0  0  0  0  0  0  0  0  0  0  0  0
  137.9510   73.0840  223.0950 H   0  0  0  0  0  0  0  0  0  0  0  0
  139.2974   73.5277  220.3771 H   0  0  0  0  0  0  0  0  0  0  0  0
  137.5401   73.6306  220.6358 H   0  0  0  0  0  0  0  0  0  0  0  0
  141.6962   74.8686  222.2113 H   0  0  0  0  0  0  0  0  0  0  0  0
  140.8709   74.0116  220.8518 H   0  0  0  0  0  0  0  0  0  0  0  0
  142.9723   76.0516  220.8041 H   0  0  0  0  0  0  0  0  0  0  0  0
  142.3948   74.8937  219.5206 H   0  0  0  0  0  0  0  0  0  0  0  0
  142.2382   77.3324  218.9729 H   0  0  0  0  0  0  0  0  0  0  0  0
  140.7100   76.3204  218.8434 H   0  0  0  0  0  0  0  0  0  0  0  0
  141.3781   78.5937  220.5907 H   0  0  0  0  0  0  0  0  0  0  0  0
  139.8135   78.0363  219.7853 H   0  0  0  0  0  0  0  0  0  0  0  0
  139.2581   77.7473  221.9091 H   0  0  0  0  0  0  0  0  0  0  0  0
  140.5764   77.1193  223.7368 H   0  0  0  0  0  0  0  0  0  0  0  0
  142.0369   77.0018  222.6203 H   0  0  0  0  0  0  0  0  0  0  0  0
  139.2977   79.4268  223.2272 H   0  0  0  0  0  0  0  0  0  0  0  0
  139.7510   81.8128  223.6187 H   0  0  0  0  0  0  0  0  0  0  0  0
  142.0478   82.7221  223.6923 H   0  0  0  0  0  0  0  0  0  0  0  0
  143.9777   81.1356  223.3565 H   0  0  0  0  0  0  0  0  0  0  0  0
  143.5301   78.7508  222.9620 H   0  0  0  0  0  0  0  0  0  0  0  0
  139.1072   69.6534  222.8235 H   0  0  0  0  0  0  0  0  0  0  0  0
  139.2506   68.1745  224.8113 H   0  0  0  0  0  0  0  0  0  0  0  0
  139.8689   67.9583  227.1257 H   0  0  0  0  0  0  0  0  0  0  0  0
  140.7879   68.9479  229.2529 H   0  0  0  0  0  0  0  0  0  0  0  0
  141.4941   71.3425  229.2272 H   0  0  0  0  0  0  0  0  0  0  0  0
  141.3048   72.7139  227.1956 H   0  0  0  0  0  0  0  0  0  0  0  0
  1  2  2  0
  2  3  1  0
  3  4  1  0
  4  5  1  0
  5  6  2  0
  5  7  1  0
  7  8  1  0
  8  9  1  0
  9 10  1  0
 10 11  1  0
 11 12  1  0
 12 13  1  0
 13 14  1  0
 14 15  2  0
 15 16  1  0
 16 17  2  0
 17 18  1  0
 18 19  2  0
  2 20  1  0
 20 21  2  0
 21 22  1  0
 22 23  2  0
 23 24  1  0
 24 25  2  0
 25 26  1  0
 26 27  2  0
 27 28  1  0
 28 29  2  0
 12  7  1  0
 19 14  1  0
 29 20  1  0
 28 23  1  0
  3 30  1  0
  4 31  1  0
  4 32  1  0
  8 33  1  0
  8 34  1  0
  9 35  1  0
  9 36  1  0
 10 37  1  0
 10 38  1  0
 11 39  1  0
 11 40  1  0
 12 41  1  1
 13 42  1  0
 13 43  1  0
 15 44  1  0
 16 45  1  0
 17 46  1  0
 18 47  1  0
 19 48  1  0
 21 49  1  0
 22 50  1  0
 24 51  1  0
 25 52  1  0
 26 53  1  0
 27 54  1  0
M  END
>  <smiles>  (42) 
O=C(NCC(=O)N1CCCCC1Cc1ccccc1)c1ccc2ccccc2n1

>  <score_type>  (42) 
oracle

>  <origin>  (42) 
autodockgpu

>  <m_score__min__energy>  (42) 
-9.3399999999999999

>  <m_primary>  (42) 
energy

>  <rmsd>  (42) 
2.386667313156854

>  <m_score__min__rmsd>  (42) 
2.386667313156854

>  <meeko>  (42) 
{"free_energy": -9.34, "intermolecular_energy": -11.13, "internal_energy": -1.55, "cluster_size": 35, "cluster_id": 1, "rank_in_cluster": 1}

>  <energy>  (42) 
-8.36

>  <cluster_rmsd>  (42) 
1.16

>  <cluster>  (42) 
2

$$$$

     RDKit          3D

 54 57  0  0  0  0  0  0  0  0999 V2000
  141.2530   71.8010  222.0690 O   0  0  0  0  0  0  0  0  0  0  0  0
  140.3140   71.9180  222.9270 C   0  0  0  0  0  0  0  0  0  0  0  0
  139.1960   72.7240  222.5780 N   0  0  0  0  0  0  0  0  0  0  0  0
  139.1020   73.3990  221.2960 C   0  0  0  0  0  0  0  0  0  0  0  0
  138.9670   74.8420  221.5720 C   0  0  0  0  0  0  0  0  0  0  0  0
  137.8940   75.4020  221.9130 O   0  0  0  0  0  0  0  0  0  0  0  0
  140.1230   75.6640  221.4490 N   0  0  0  0  0  0  0  0  0  0  0  0
  141.4070   75.1380  220.9990 C   0  0  0  0  0  0  0  0  0  0  0  0
  142.0350   76.0560  219.9720 C   0  0  0  0  0  0  0  0  0  0  0  0
  141.0770   77.0820  219.4420 C   0  0  0  0  0  0  0  0  0  0  0  0
  140.2930   77.8090  220.4880 C   0  0  0  0  0  0  0  0  0  0  0  0
  140.0900   77.0850  221.7660 C   0  0  2  0  0  0  0  0  0  0  0  0
  141.0760   77.4390  222.8470 C   0  0  0  0  0  0  0  0  0  0  0  0
  141.2850   78.8690  223.0600 C   0  0  0  0  0  0  0  0  0  0  0  0
  142.6040   79.3390  223.0410 C   0  0  0  0  0  0  0  0  0  0  0  0
  142.8420   80.6850  223.2380 C   0  0  0  0  0  0  0  0  0  0  0  0
  141.8390   81.6060  223.4550 C   0  0  0  0  0  0  0  0  0  0  0  0
  140.5250   81.1390  223.4740 C   0  0  0  0  0  0  0  0  0  0  0  0
  140.2850   79.7940  223.2780 C   0  0  0  0  0  0  0  0  0  0  0  0
  140.3930   71.2400  224.2310 C   0  0  0  0  0  0  0  0  0  0  0  0
  140.9660   71.8950  225.2790 C   0  0  0  0  0  0  0  0  0  0  0  0
  141.1010   71.3680  226.5510 C   0  0  0  0  0  0  0  0  0  0  0  0
  140.6010   70.0760  226.7260 C   0  0  0  0  0  0  0  0  0  0  0  0
  140.7020   69.4900  227.9710 C   0  0  0  0  0  0  0  0  0  0  0  0
  140.2120   68.1980  228.1770 C   0  0  0  0  0  0  0  0  0  0  0  0
  139.6320   67.5550  227.0860 C   0  0  0  0  0  0  0  0  0  0  0  0
  139.5370   68.1540  225.8440 C   0  0  0  0  0  0  0  0  0  0  0  0
  140.0200   69.4270  225.6400 C   0  0  0  0  0  0  0  0  0  0  0  0
  139.9230   70.0030  224.4250 N   0  0  0  0  0  0  0  0  0  0  0  0
  138.4320   72.8080  223.3010 H   0  0  0  0  0  0  0  0  0  0  0  0
  140.0100   73.2118  220.7040 H   0  0  0  0  0  0  0  0  0  0  0  0
  138.2399   73.0288  220.7219 H   0  0  0  0  0  0  0  0  0  0  0  0
  142.0822   75.0478  221.8627 H   0  0  0  0  0  0  0  0  0  0  0  0
  141.2418   74.1535  220.5370 H   0  0  0  0  0  0  0  0  0  0  0  0
  142.8838   76.5768  220.4393 H   0  0  0  0  0  0  0  0  0  0  0  0
  142.3537   75.4328  219.1235 H   0  0  0  0  0  0  0  0  0  0  0  0
  141.6527   77.8237  218.8689 H   0  0  0  0  0  0  0  0  0  0  0  0
  140.3442   76.5344  218.8312 H   0  0  0  0  0  0  0  0  0  0  0  0
  140.8205   78.7477  220.7127 H   0  0  0  0  0  0  0  0  0  0  0  0
  139.2882   77.9491  220.0628 H   0  0  0  0  0  0  0  0  0  0  0  0
  139.1226   77.3847  222.1953 H   0  0  0  0  0  0  0  0  0  0  0  0
  140.7154   77.0043  223.7910 H   0  0  0  0  0  0  0  0  0  0  0  0
  142.0452   77.0367  222.5171 H   0  0  0  0  0  0  0  0  0  0  0  0
  143.4401   78.6447  222.8713 H   0  0  0  0  0  0  0  0  0  0  0  0
  143.8830   81.0399  223.2210 H   0  0  0  0  0  0  0  0  0  0  0  0
  142.0672   82.6712  223.6077 H   0  0  0  0  0  0  0  0  0  0  0  0
  139.6897   81.8344  223.6432 H   0  0  0  0  0  0  0  0  0  0  0  0
  139.2431   79.4416  223.2966 H   0  0  0  0  0  0  0  0  0  0  0  0
  141.3471   72.9116  225.1019 H   0  0  0  0  0  0  0  0  0  0  0  0
  141.5716   71.9301  227.3711 H   0  0  0  0  0  0  0  0  0  0  0  0
  141.1684   70.0402  228.8015 H   0  0  0  0  0  0  0  0  0  0  0  0
  140.2814   67.7089  229.1598 H   0  0  0  0  0  0  0  0  0  0  0  0
  139.2365   66.5370  227.2172 H   0  0  0  0  0  0  0  0  0  0  0  0
  139.0709   67.6083  225.0104 H   0  0  0  0  0  0  0  0  0  0  0  0
  1  2  2  0
  2  3  1  0
  3  4  1  0
  4  5  1  0
  5  6  2  0
  5  7  1  0
  7  8  1  0
  8  9  1  0
  9 10  1  0
 10 11  1  0
 11 12  1  0
 12 13  1  0
 13 14  1  0
 14 15  2  0
 15 16  1  0
 16 17  2  0
 17 18  1  0
 18 19  2  0
  2 20  1  0
 20 21  2  0
 21 22  1  0
 22 23  2  0
 23 24  1  0
 24 25  2  0
 25 26  1  0
 26 27  2  0
 27 28  1  0
 28 29  2  0
 12  7  1  0
 19 14  1  0
 29 20  1  0
 28 23  1  0
  3 30  1  0
  4 31  1  0
  4 32  1  0
  8 33  1  0
  8 34  1  0
  9 35  1  0
  9 36  1  0
 10 37  1  0
 10 38  1  0
 11 39  1  0
 11 40  1  0
 12 41  1  1
 13 42  1  0
 13 43  1  0
 15 44  1  0
 16 45  1  0
 17 46  1  0
 18 47  1  0
 19 48  1  0
 21 49  1  0
 22 50  1  0
 24 51  1  0
 25 52  1  0
 26 53  1  0
 27 54  1  0
M  END
>  <smiles>  (43) 
O=C(NCC(=O)N1CCCCC1Cc1ccccc1)c1ccc2ccccc2n1

>  <score_type>  (43) 
oracle

>  <origin>  (43) 
autodockgpu

>  <m_score__min__energy>  (43) 
-9.3399999999999999

>  <m_primary>  (43) 
energy

>  <rmsd>  (43) 
3.291403680248366

>  <m_score__min__rmsd>  (43) 
3.291403680248366

>  <meeko>  (43) 
{"free_energy": -9.24, "intermolecular_energy": -11.03, "internal_energy": -1.53, "cluster_size": 35, "cluster_id": 1, "rank_in_cluster": 6}

>  <energy>  (43) 
-8.22

>  <cluster_rmsd>  (43) 
1.49

>  <cluster>  (43) 
2

$$$$

     RDKit          3D

 54 57  0  0  0  0  0  0  0  0999 V2000
  140.5570   71.3560  221.2970 O   0  0  0  0  0  0  0  0  0  0  0  0
  140.1280   71.9350  222.3520 C   0  0  0  0  0  0  0  0  0  0  0  0
  139.6620   73.2730  222.2290 N   0  0  0  0  0  0  0  0  0  0  0  0
  139.6640   73.9770  220.9590 C   0  0  0  0  0  0  0  0  0  0  0  0
  140.1770   75.3350  221.2140 C   0  0  0  0  0  0  0  0  0  0  0  0
  140.0330   75.9560  222.2990 O   0  0  0  0  0  0  0  0  0  0  0  0
  140.8850   75.9970  220.1720 N   0  0  0  0  0  0  0  0  0  0  0  0
  140.4150   75.9980  218.7920 C   0  0  0  0  0  0  0  0  0  0  0  0
  140.5050   77.3860  218.1930 C   0  0  0  0  0  0  0  0  0  0  0  0
  140.7440   78.4520  219.2210 C   0  0  0  0  0  0  0  0  0  0  0  0
  141.8400   78.1520  220.1940 C   0  0  0  0  0  0  0  0  0  0  0  0
  142.1270   76.7150  220.4240 C   0  0  2  0  0  0  0  0  0  0  0  0
  143.2650   76.1680  219.6050 C   0  0  0  0  0  0  0  0  0  0  0  0
  143.7140   74.8280  219.9710 C   0  0  0  0  0  0  0  0  0  0  0  0
  145.0120   74.6980  220.4810 C   0  0  0  0  0  0  0  0  0  0  0  0
  145.4720   73.4470  220.8390 C   0  0  0  0  0  0  0  0  0  0  0  0
  144.7150   72.3000  220.7230 C   0  0  0  0  0  0  0  0  0  0  0  0
  143.4220   72.4280  220.2160 C   0  0  0  0  0  0  0  0  0  0  0  0
  142.9600   73.6780  219.8560 C   0  0  0  0  0  0  0  0  0  0  0  0
  140.1190   71.2360  223.6470 C   0  0  0  0  0  0  0  0  0  0  0  0
  139.5890   69.9820  223.7140 C   0  0  0  0  0  0  0  0  0  0  0  0
  139.5210   69.2220  224.8680 C   0  0  0  0  0  0  0  0  0  0  0  0
  140.0420   69.8200  226.0160 C   0  0  0  0  0  0  0  0  0  0  0  0
  140.0070   69.1180  227.2040 C   0  0  0  0  0  0  0  0  0  0  0  0
  140.5210   69.6900  228.3690 C   0  0  0  0  0  0  0  0  0  0  0  0
  141.0550   70.9730  228.2690 C   0  0  0  0  0  0  0  0  0  0  0  0
  141.0840   71.6660  227.0730 C   0  0  0  0  0  0  0  0  0  0  0  0
  140.5780   71.1030  225.9230 C   0  0  0  0  0  0  0  0  0  0  0  0
  140.6110   71.7850  224.7620 N   0  0  0  0  0  0  0  0  0  0  0  0
  139.3120   73.7320  223.1120 H   0  0  0  0  0  0  0  0  0  0  0  0
  140.3150   73.4569  220.2409 H   0  0  0  0  0  0  0  0  0  0  0  0
  138.6507   74.0161  220.5328 H   0  0  0  0  0  0  0  0  0  0  0  0
  141.0349   75.3089  218.1996 H   0  0  0  0  0  0  0  0  0  0  0  0
  139.3633   75.6760  218.7780 H   0  0  0  0  0  0  0  0  0  0  0  0
  141.3343   77.4032  217.4705 H   0  0  0  0  0  0  0  0  0  0  0  0
  139.5389   77.6013  217.7132 H   0  0  0  0  0  0  0  0  0  0  0  0
  140.9994   79.3836  218.6947 H   0  0  0  0  0  0  0  0  0  0  0  0
  139.8185   78.5259  219.8108 H   0  0  0  0  0  0  0  0  0  0  0  0
  142.7607   78.6240  219.8205 H   0  0  0  0  0  0  0  0  0  0  0  0
  141.4947   78.5451  221.1616 H   0  0  0  0  0  0  0  0  0  0  0  0
  142.4715   76.5815  221.4601 H   0  0  0  0  0  0  0  0  0  0  0  0
  142.9443   76.1427  218.5531 H   0  0  0  0  0  0  0  0  0  0  0  0
  144.1197   76.8349  219.7914 H   0  0  0  0  0  0  0  0  0  0  0  0
  145.6567   75.5820  220.5948 H   0  0  0  0  0  0  0  0  0  0  0  0
  146.4939   73.3604  221.2369 H   0  0  0  0  0  0  0  0  0  0  0  0
  145.1164   71.3198  221.0196 H   0  0  0  0  0  0  0  0  0  0  0  0
  142.7780   71.5433  220.1043 H   0  0  0  0  0  0  0  0  0  0  0  0
  141.9384   73.7617  219.4570 H   0  0  0  0  0  0  0  0  0  0  0  0
  139.1882   69.5446  222.7877 H   0  0  0  0  0  0  0  0  0  0  0  0
  139.0847   68.2123  224.8798 H   0  0  0  0  0  0  0  0  0  0  0  0
  139.5738   68.1073  227.2327 H   0  0  0  0  0  0  0  0  0  0  0  0
  140.5051   69.1498  229.3271 H   0  0  0  0  0  0  0  0  0  0  0  0
  141.4668   71.4499  229.1706 H   0  0  0  0  0  0  0  0  0  0  0  0
  141.5156   72.6772  227.0399 H   0  0  0  0  0  0  0  0  0  0  0  0
  1  2  2  0
  2  3  1  0
  3  4  1  0
  4  5  1  0
  5  6  2  0
  5  7  1  0
  7  8  1  0
  8  9  1  0
  9 10  1  0
 10 11  1  0
 11 12  1  0
 12 13  1  0
 13 14  1  0
 14 15  2  0
 15 16  1  0
 16 17  2  0
 17 18  1  0
 18 19  2  0
  2 20  1  0
 20 21  2  0
 21 22  1  0
 22 23  2  0
 23 24  1  0
 24 25  2  0
 25 26  1  0
 26 27  2  0
 27 28  1  0
 28 29  2  0
 12  7  1  0
 19 14  1  0
 29 20  1  0
 28 23  1  0
  3 30  1  0
  4 31  1  0
  4 32  1  0
  8 33  1  0
  8 34  1  0
  9 35  1  0
  9 36  1  0
 10 37  1  0
 10 38  1  0
 11 39  1  0
 11 40  1  0
 12 41  1  1
 13 42  1  0
 13 43  1  0
 15 44  1  0
 16 45  1  0
 17 46  1  0
 18 47  1  0
 19 48  1  0
 21 49  1  0
 22 50  1  0
 24 51  1  0
 25 52  1  0
 26 53  1  0
 27 54  1  0
M  END
>  <smiles>  (44) 
O=C(NCC(=O)N1CCCCC1Cc1ccccc1)c1ccc2ccccc2n1

>  <score_type>  (44) 
oracle

>  <origin>  (44) 
autodockgpu

>  <m_score__min__energy>  (44) 
-9.3399999999999999

>  <m_primary>  (44) 
energy

>  <rmsd>  (44) 
1.6346980348292697

>  <m_score__min__rmsd>  (44) 
1.6346980348292697

>  <meeko>  (44) 
{"free_energy": -8.42, "intermolecular_energy": -10.21, "internal_energy": -2.15, "cluster_size": 5, "cluster_id": 3, "rank_in_cluster": 2}

>  <energy>  (44) 
-8.18

>  <cluster_rmsd>  (44) 
1.51

>  <cluster>  (44) 
2

$$$$

     RDKit          3D

 54 57  0  0  0  0  0  0  0  0999 V2000
  140.6550   72.0280  221.6400 O   0  0  0  0  0  0  0  0  0  0  0  0
  139.7650   72.0980  222.5550 C   0  0  0  0  0  0  0  0  0  0  0  0
  138.6650   72.9730  222.3400 N   0  0  0  0  0  0  0  0  0  0  0  0
  138.5340   73.7680  221.1320 C   0  0  0  0  0  0  0  0  0  0  0  0
  138.6740   75.1830  221.5240 C   0  0  0  0  0  0  0  0  0  0  0  0
  137.7210   75.9120  221.9020 O   0  0  0  0  0  0  0  0  0  0  0  0
  139.9690   75.7720  221.4770 N   0  0  0  0  0  0  0  0  0  0  0  0
  141.1720   74.9860  221.2260 C   0  0  0  0  0  0  0  0  0  0  0  0
  142.0630   75.6730  220.2130 C   0  0  0  0  0  0  0  0  0  0  0  0
  141.3740   76.7950  219.4940 C   0  0  0  0  0  0  0  0  0  0  0  0
  140.6350   77.7480  220.3790 C   0  0  0  0  0  0  0  0  0  0  0  0
  140.1690   77.2000  221.6760 C   0  0  2  0  0  0  0  0  0  0  0  0
  141.0870   77.4800  222.8360 C   0  0  0  0  0  0  0  0  0  0  0  0
  141.4140   78.8860  223.0520 C   0  0  0  0  0  0  0  0  0  0  0  0
  140.3490   79.7730  223.2530 C   0  0  0  0  0  0  0  0  0  0  0  0
  140.6180   81.1110  223.4610 C   0  0  0  0  0  0  0  0  0  0  0  0
  141.8940   81.6320  223.4830 C   0  0  0  0  0  0  0  0  0  0  0  0
  142.9560   80.7490  223.2840 C   0  0  0  0  0  0  0  0  0  0  0  0
  142.6900   79.4110  223.0750 C   0  0  0  0  0  0  0  0  0  0  0  0
  139.8810   71.2990  223.7850 C   0  0  0  0  0  0  0  0  0  0  0  0
  139.4790   69.9980  223.7640 C   0  0  0  0  0  0  0  0  0  0  0  0
  139.5360   69.1440  224.8510 C   0  0  0  0  0  0  0  0  0  0  0  0
  140.0480   69.6960  226.0260 C   0  0  0  0  0  0  0  0  0  0  0  0
  140.1350   68.9000  227.1500 C   0  0  0  0  0  0  0  0  0  0  0  0
  140.6420   69.4240  228.3410 C   0  0  0  0  0  0  0  0  0  0  0  0
  141.0450   70.7570  228.3310 C   0  0  0  0  0  0  0  0  0  0  0  0
  140.9530   71.5440  227.1980 C   0  0  0  0  0  0  0  0  0  0  0  0
  140.4530   71.0290  226.0230 C   0  0  0  0  0  0  0  0  0  0  0  0
  140.3670   71.8030  224.9240 N   0  0  0  0  0  0  0  0  0  0  0  0
  137.9410   73.0160  223.1080 H   0  0  0  0  0  0  0  0  0  0  0  0
  139.3221   73.4959  220.4144 H   0  0  0  0  0  0  0  0  0  0  0  0
  137.5607   73.5904  220.6512 H   0  0  0  0  0  0  0  0  0  0  0  0
  141.7257   74.8636  222.1686 H   0  0  0  0  0  0  0  0  0  0  0  0
  140.8747   74.0055  220.8257 H   0  0  0  0  0  0  0  0  0  0  0  0
  142.9413   76.0787  220.7364 H   0  0  0  0  0  0  0  0  0  0  0  0
  142.3452   74.9227  219.4597 H   0  0  0  0  0  0  0  0  0  0  0  0
  142.1345   77.3635  218.9387 H   0  0  0  0  0  0  0  0  0  0  0  0
  140.6195   76.3284  218.8436 H   0  0  0  0  0  0  0  0  0  0  0  0
  141.3020   78.5964  220.5919 H   0  0  0  0  0  0  0  0  0  0  0  0
  139.7236   78.0208  219.8268 H   0  0  0  0  0  0  0  0  0  0  0  0
  139.2348   77.7055  221.9619 H   0  0  0  0  0  0  0  0  0  0  0  0
  140.6055   77.0997  223.7490 H   0  0  0  0  0  0  0  0  0  0  0  0
  142.0379   76.9816  222.5964 H   0  0  0  0  0  0  0  0  0  0  0  0
  139.3113   79.4082  223.2453 H   0  0  0  0  0  0  0  0  0  0  0  0
  139.7714   81.7958  223.6170 H   0  0  0  0  0  0  0  0  0  0  0  0
  142.0687   82.7049  223.6513 H   0  0  0  0  0  0  0  0  0  0  0  0
  143.9932   81.1151  223.2936 H   0  0  0  0  0  0  0  0  0  0  0  0
  143.5383   78.7283  222.9188 H   0  0  0  0  0  0  0  0  0  0  0  0
  139.0821   69.5991  222.8188 H   0  0  0  0  0  0  0  0  0  0  0  0
  139.1997   68.0983  224.7929 H   0  0  0  0  0  0  0  0  0  0  0  0
  139.8046   67.8516  227.1077 H   0  0  0  0  0  0  0  0  0  0  0  0
  140.7198   68.8091  229.2498 H   0  0  0  0  0  0  0  0  0  0  0  0
  141.4495   71.1979  229.2541 H   0  0  0  0  0  0  0  0  0  0  0  0
  141.2828   72.5927  227.2357 H   0  0  0  0  0  0  0  0  0  0  0  0
  1  2  2  0
  2  3  1  0
  3  4  1  0
  4  5  1  0
  5  6  2  0
  5  7  1  0
  7  8  1  0
  8  9  1  0
  9 10  1  0
 10 11  1  0
 11 12  1  0
 12 13  1  0
 13 14  1  0
 14 15  2  0
 15 16  1  0
 16 17  2  0
 17 18  1  0
 18 19  2  0
  2 20  1  0
 20 21  2  0
 21 22  1  0
 22 23  2  0
 23 24  1  0
 24 25  2  0
 25 26  1  0
 26 27  2  0
 27 28  1  0
 28 29  2  0
 12  7  1  0
 19 14  1  0
 29 20  1  0
 28 23  1  0
  3 30  1  0
  4 31  1  0
  4 32  1  0
  8 33  1  0
  8 34  1  0
  9 35  1  0
  9 36  1  0
 10 37  1  0
 10 38  1  0
 11 39  1  0
 11 40  1  0
 12 41  1  1
 13 42  1  0
 13 43  1  0
 15 44  1  0
 16 45  1  0
 17 46  1  0
 18 47  1  0
 19 48  1  0
 21 49  1  0
 22 50  1  0
 24 51  1  0
 25 52  1  0
 26 53  1  0
 27 54  1  0
M  END
>  <smiles>  (45) 
O=C(NCC(=O)N1CCCCC1Cc1ccccc1)c1ccc2ccccc2n1

>  <score_type>  (45) 
oracle

>  <origin>  (45) 
autodockgpu

>  <m_score__min__energy>  (45) 
-9.3399999999999999

>  <m_primary>  (45) 
energy

>  <rmsd>  (45) 
2.3680967543493963

>  <m_score__min__rmsd>  (45) 
2.3680967543493963

>  <meeko>  (45) 
{"free_energy": -9.33, "intermolecular_energy": -11.12, "internal_energy": -1.55, "cluster_size": 35, "cluster_id": 1, "rank_in_cluster": 2}

>  <energy>  (45) 
-8.49

>  <cluster_rmsd>  (45) 
0.0

>  <cluster>  (45) 
3

$$$$

     RDKit          3D

 54 57  0  0  0  0  0  0  0  0999 V2000
  139.9780   71.2920  221.1850 O   0  0  0  0  0  0  0  0  0  0  0  0
  139.7470   71.9260  222.2700 C   0  0  0  0  0  0  0  0  0  0  0  0
  139.3630   73.2910  222.1680 N   0  0  0  0  0  0  0  0  0  0  0  0
  139.2290   73.9620  220.8880 C   0  0  0  0  0  0  0  0  0  0  0  0
  140.5880   74.3190  220.4390 C   0  0  0  0  0  0  0  0  0  0  0  0
  141.3640   73.5360  219.8330 O   0  0  0  0  0  0  0  0  0  0  0  0
  141.0630   75.6340  220.7040 N   0  0  0  0  0  0  0  0  0  0  0  0
  142.3430   76.1150  220.1960 C   0  0  0  0  0  0  0  0  0  0  0  0
  142.2020   77.5050  219.6110 C   0  0  0  0  0  0  0  0  0  0  0  0
  140.7740   77.9120  219.4080 C   0  0  0  0  0  0  0  0  0  0  0  0
  139.8780   77.6680  220.5810 C   0  0  0  0  0  0  0  0  0  0  0  0
  140.2950   76.5810  221.5000 C   0  0  2  0  0  0  0  0  0  0  0  0
  141.0630   77.0480  222.7080 C   0  0  0  0  0  0  0  0  0  0  0  0
  141.1480   78.4960  222.8750 C   0  0  0  0  0  0  0  0  0  0  0  0
  142.3670   79.1120  222.5640 C   0  0  0  0  0  0  0  0  0  0  0  0
  142.4870   80.4800  222.7090 C   0  0  0  0  0  0  0  0  0  0  0  0
  141.4580   81.2870  223.1480 C   0  0  0  0  0  0  0  0  0  0  0  0
  140.2430   80.6750  223.4560 C   0  0  0  0  0  0  0  0  0  0  0  0
  140.1220   79.3070  223.3140 C   0  0  0  0  0  0  0  0  0  0  0  0
  139.8770   71.2600  223.5760 C   0  0  0  0  0  0  0  0  0  0  0  0
  139.4660   69.9670  223.6990 C   0  0  0  0  0  0  0  0  0  0  0  0
  139.5340   69.2320  224.8690 C   0  0  0  0  0  0  0  0  0  0  0  0
  140.0670   69.9020  225.9720 C   0  0  0  0  0  0  0  0  0  0  0  0
  140.1650   69.2290  227.1720 C   0  0  0  0  0  0  0  0  0  0  0  0
  140.6930   69.8720  228.2930 C   0  0  0  0  0  0  0  0  0  0  0  0
  141.1040   71.1930  228.1370 C   0  0  0  0  0  0  0  0  0  0  0  0
  141.0000   71.8570  226.9280 C   0  0  0  0  0  0  0  0  0  0  0  0
  140.4800   71.2240  225.8220 C   0  0  0  0  0  0  0  0  0  0  0  0
  140.3830   71.8780  224.6480 N   0  0  0  0  0  0  0  0  0  0  0  0
  139.1760   73.7960  223.0760 H   0  0  0  0  0  0  0  0  0  0  0  0
  138.7551   73.2896  220.1577 H   0  0  0  0  0  0  0  0  0  0  0  0
  138.5999   74.8595  220.9813 H   0  0  0  0  0  0  0  0  0  0  0  0
  143.0706   76.1429  221.0205 H   0  0  0  0  0  0  0  0  0  0  0  0
  142.6868   75.4328  219.4046 H   0  0  0  0  0  0  0  0  0  0  0  0
  142.6775   78.2233  220.2951 H   0  0  0  0  0  0  0  0  0  0  0  0
  142.6859   77.4972  218.6232 H   0  0  0  0  0  0  0  0  0  0  0  0
  140.7541   78.9880  219.1805 H   0  0  0  0  0  0  0  0  0  0  0  0
  140.3880   77.2874  218.5890 H   0  0  0  0  0  0  0  0  0  0  0  0
  139.8242   78.5996  221.1634 H   0  0  0  0  0  0  0  0  0  0  0  0
  138.9148   77.3468  220.1579 H   0  0  0  0  0  0  0  0  0  0  0  0
  139.3972   76.1149  221.9321 H   0  0  0  0  0  0  0  0  0  0  0  0
  140.5757   76.6313  223.6018 H   0  0  0  0  0  0  0  0  0  0  0  0
  142.0960   76.6984  222.5641 H   0  0  0  0  0  0  0  0  0  0  0  0
  143.2185   78.5132  222.2085 H   0  0  0  0  0  0  0  0  0  0  0  0
  143.4507   80.9494  222.4623 H   0  0  0  0  0  0  0  0  0  0  0  0
  141.5908   82.3740  223.2514 H   0  0  0  0  0  0  0  0  0  0  0  0
  139.3911   81.2753  223.8079 H   0  0  0  0  0  0  0  0  0  0  0  0
  139.1580   78.8398  223.5637 H   0  0  0  0  0  0  0  0  0  0  0  0
  139.0519   69.4738  222.8072 H   0  0  0  0  0  0  0  0  0  0  0  0
  139.1908   68.1885  224.9266 H   0  0  0  0  0  0  0  0  0  0  0  0
  139.8269   68.1849  227.2457 H   0  0  0  0  0  0  0  0  0  0  0  0
  140.7807   69.3558  229.2604 H   0  0  0  0  0  0  0  0  0  0  0  0
  141.5248   71.7256  229.0026 H   0  0  0  0  0  0  0  0  0  0  0  0
  141.3363   72.9014  226.8497 H   0  0  0  0  0  0  0  0  0  0  0  0
  1  2  2  0
  2  3  1  0
  3  4  1  0
  4  5  1  0
  5  6  2  0
  5  7  1  0
  7  8  1  0
  8  9  1  0
  9 10  1  0
 10 11  1  0
 11 12  1  0
 12 13  1  0
 13 14  1  0
 14 15  2  0
 15 16  1  0
 16 17  2  0
 17 18  1  0
 18 19  2  0
  2 20  1  0
 20 21  2  0
 21 22  1  0
 22 23  2  0
 23 24  1  0
 24 25  2  0
 25 26  1  0
 26 27  2  0
 27 28  1  0
 28 29  2  0
 12  7  1  0
 19 14  1  0
 29 20  1  0
 28 23  1  0
  3 30  1  0
  4 31  1  0
  4 32  1  0
  8 33  1  0
  8 34  1  0
  9 35  1  0
  9 36  1  0
 10 37  1  0
 10 38  1  0
 11 39  1  0
 11 40  1  0
 12 41  1  1
 13 42  1  0
 13 43  1  0
 15 44  1  0
 16 45  1  0
 17 46  1  0
 18 47  1  0
 19 48  1  0
 21 49  1  0
 22 50  1  0
 24 51  1  0
 25 52  1  0
 26 53  1  0
 27 54  1  0
M  END
>  <smiles>  (46) 
O=C(NCC(=O)N1CCCCC1Cc1ccccc1)c1ccc2ccccc2n1

>  <score_type>  (46) 
oracle

>  <origin>  (46) 
autodockgpu

>  <m_score__min__energy>  (46) 
-9.3399999999999999

>  <m_primary>  (46) 
energy

>  <rmsd>  (46) 
2.434254335533449

>  <m_score__min__rmsd>  (46) 
2.434254335533449

>  <meeko>  (46) 
{"free_energy": -8.96, "intermolecular_energy": -10.75, "internal_energy": -1.65, "cluster_size": 35, "cluster_id": 1, "rank_in_cluster": 17}

>  <energy>  (46) 
-8.42

>  <cluster_rmsd>  (46) 
0.44

>  <cluster>  (46) 
3

$$$$

     RDKit          3D

 54 57  0  0  0  0  0  0  0  0999 V2000
  137.6930   75.7220  222.1770 O   0  0  0  0  0  0  0  0  0  0  0  0
  138.9530   75.9300  222.2310 C   0  0  0  0  0  0  0  0  0  0  0  0
  139.8160   74.8540  221.8840 N   0  0  0  0  0  0  0  0  0  0  0  0
  139.3070   73.5560  221.4790 C   0  0  0  0  0  0  0  0  0  0  0  0
  139.7710   72.5750  222.4780 C   0  0  0  0  0  0  0  0  0  0  0  0
  140.8750   72.6410  223.0780 O   0  0  0  0  0  0  0  0  0  0  0  0
  138.9210   71.4780  222.7920 N   0  0  0  0  0  0  0  0  0  0  0  0
  137.4700   71.5570  222.6670 C   0  0  0  0  0  0  0  0  0  0  0  0
  136.9200   70.3230  221.9830 C   0  0  0  0  0  0  0  0  0  0  0  0
  137.9850   69.4920  221.3320 C   0  0  0  0  0  0  0  0  0  0  0  0
  139.1780   69.2130  222.1910 C   0  0  0  0  0  0  0  0  0  0  0  0
  139.4530   70.2050  223.2590 C   0  0  2  0  0  0  0  0  0  0  0  0
  138.9070   69.8320  224.6110 C   0  0  0  0  0  0  0  0  0  0  0  0
  139.6670   70.3320  225.7530 C   0  0  0  0  0  0  0  0  0  0  0  0
  139.5840   69.6090  226.9500 C   0  0  0  0  0  0  0  0  0  0  0  0
  140.2890   70.0490  228.0530 C   0  0  0  0  0  0  0  0  0  0  0  0
  141.0820   71.1770  228.0420 C   0  0  0  0  0  0  0  0  0  0  0  0
  141.1660   71.8980  226.8510 C   0  0  0  0  0  0  0  0  0  0  0  0
  140.4620   71.4600  225.7470 C   0  0  0  0  0  0  0  0  0  0  0  0
  139.4860   77.2400  222.6390 C   0  0  0  0  0  0  0  0  0  0  0  0
  138.6150   78.2080  223.0420 C   0  0  0  0  0  0  0  0  0  0  0  0
  138.9890   79.4760  223.4470 C   0  0  0  0  0  0  0  0  0  0  0  0
  140.3610   79.7370  223.4280 C   0  0  0  0  0  0  0  0  0  0  0  0
  140.8040   80.9830  223.8210 C   0  0  0  0  0  0  0  0  0  0  0  0
  142.1700   81.2740  223.8110 C   0  0  0  0  0  0  0  0  0  0  0  0
  143.0340   80.2650  223.3940 C   0  0  0  0  0  0  0  0  0  0  0  0
  142.5770   79.0200  223.0030 C   0  0  0  0  0  0  0  0  0  0  0  0
  141.2310   78.7320  223.0120 C   0  0  0  0  0  0  0  0  0  0  0  0
  140.7940   77.5160  222.6280 N   0  0  0  0  0  0  0  0  0  0  0  0
  140.8530   75.0470  221.9360 H   0  0  0  0  0  0  0  0  0  0  0  0
  138.2075   73.5742  221.4510 H   0  0  0  0  0  0  0  0  0  0  0  0
  139.6680   73.2910  220.4743 H   0  0  0  0  0  0  0  0  0  0  0  0
  137.0259   71.6413  223.6698 H   0  0  0  0  0  0  0  0  0  0  0  0
  137.2164   72.4386  222.0599 H   0  0  0  0  0  0  0  0  0  0  0  0
  136.4038   69.7065  222.7336 H   0  0  0  0  0  0  0  0  0  0  0  0
  136.2363   70.6622  221.1909 H   0  0  0  0  0  0  0  0  0  0  0  0
  137.5386   68.5289  221.0436 H   0  0  0  0  0  0  0  0  0  0  0  0
  138.3513   70.0757  220.4746 H   0  0  0  0  0  0  0  0  0  0  0  0
  139.0268   68.2346  222.6705 H   0  0  0  0  0  0  0  0  0  0  0  0
  140.0463   69.2527  221.5168 H   0  0  0  0  0  0  0  0  0  0  0  0
  140.5387   70.2557  223.4281 H   0  0  0  0  0  0  0  0  0  0  0  0
  137.8835   70.2283  224.6848 H   0  0  0  0  0  0  0  0  0  0  0  0
  138.9614   68.7348  224.6677 H   0  0  0  0  0  0  0  0  0  0  0  0
  138.9648   68.7018  227.0106 H   0  0  0  0  0  0  0  0  0  0  0  0
  140.2143   69.4713  228.9861 H   0  0  0  0  0  0  0  0  0  0  0  0
  141.6292   71.4970  228.9410 H   0  0  0  0  0  0  0  0  0  0  0  0
  141.7858   72.8049  226.7920 H   0  0  0  0  0  0  0  0  0  0  0  0
  140.5387   72.0396  224.8153 H   0  0  0  0  0  0  0  0  0  0  0  0
  137.5424   77.9640  223.0452 H   0  0  0  0  0  0  0  0  0  0  0  0
  138.2537   80.2303  223.7637 H   0  0  0  0  0  0  0  0  0  0  0  0
  140.0813   81.7475  224.1423 H   0  0  0  0  0  0  0  0  0  0  0  0
  142.5477   82.2599  224.1199 H   0  0  0  0  0  0  0  0  0  0  0  0
  144.1155   80.4648  223.3750 H   0  0  0  0  0  0  0  0  0  0  0  0
  143.2961   78.2521  222.6816 H   0  0  0  0  0  0  0  0  0  0  0  0
  1  2  2  0
  2  3  1  0
  3  4  1  0
  4  5  1  0
  5  6  2  0
  5  7  1  0
  7  8  1  0
  8  9  1  0
  9 10  1  0
 10 11  1  0
 11 12  1  0
 12 13  1  0
 13 14  1  0
 14 15  2  0
 15 16  1  0
 16 17  2  0
 17 18  1  0
 18 19  2  0
  2 20  1  0
 20 21  2  0
 21 22  1  0
 22 23  2  0
 23 24  1  0
 24 25  2  0
 25 26  1  0
 26 27  2  0
 27 28  1  0
 28 29  2  0
 12  7  1  0
 19 14  1  0
 29 20  1  0
 28 23  1  0
  3 30  1  0
  4 31  1  0
  4 32  1  0
  8 33  1  0
  8 34  1  0
  9 35  1  0
  9 36  1  0
 10 37  1  0
 10 38  1  0
 11 39  1  0
 11 40  1  0
 12 41  1  1
 13 42  1  0
 13 43  1  0
 15 44  1  0
 16 45  1  0
 17 46  1  0
 18 47  1  0
 19 48  1  0
 21 49  1  0
 22 50  1  0
 24 51  1  0
 25 52  1  0
 26 53  1  0
 27 54  1  0
M  END
>  <smiles>  (47) 
O=C(NCC(=O)N1CCCCC1Cc1ccccc1)c1ccc2ccccc2n1

>  <score_type>  (47) 
oracle

>  <origin>  (47) 
autodockgpu

>  <m_score__min__energy>  (47) 
-9.3399999999999999

>  <m_primary>  (47) 
energy

>  <rmsd>  (47) 
8.318337389933436

>  <m_score__min__rmsd>  (47) 
8.318337389933436

>  <meeko>  (47) 
{"free_energy": -8.56, "intermolecular_energy": -10.35, "internal_energy": -1.83, "cluster_size": 9, "cluster_id": 2, "rank_in_cluster": 5}

>  <energy>  (47) 
-8.39

>  <cluster_rmsd>  (47) 
0.47

>  <cluster>  (47) 
3

$$$$

     RDKit          3D

 54 57  0  0  0  0  0  0  0  0999 V2000
  141.2710   71.9550  221.6450 O   0  0  0  0  0  0  0  0  0  0  0  0
  140.3790   72.2680  222.5050 C   0  0  0  0  0  0  0  0  0  0  0  0
  139.5620   73.3980  222.2290 N   0  0  0  0  0  0  0  0  0  0  0  0
  139.7160   74.1850  221.0180 C   0  0  0  0  0  0  0  0  0  0  0  0
  140.0040   75.5700  221.4330 C   0  0  0  0  0  0  0  0  0  0  0  0
  141.1440   75.9900  221.7620 O   0  0  0  0  0  0  0  0  0  0  0  0
  138.9300   76.5030  221.4650 N   0  0  0  0  0  0  0  0  0  0  0  0
  138.1190   76.7960  220.2900 C   0  0  0  0  0  0  0  0  0  0  0  0
  136.6460   76.8100  220.6410 C   0  0  0  0  0  0  0  0  0  0  0  0
  136.3620   76.2240  221.9930 C   0  0  0  0  0  0  0  0  0  0  0  0
  137.2410   76.7290  223.0930 C   0  0  0  0  0  0  0  0  0  0  0  0
  138.5770   77.2240  222.6800 C   0  0  2  0  0  0  0  0  0  0  0  0
  138.6580   78.7150  222.4900 C   0  0  0  0  0  0  0  0  0  0  0  0
  139.9210   79.3300  222.8890 C   0  0  0  0  0  0  0  0  0  0  0  0
  141.0150   78.4800  223.0970 C   0  0  0  0  0  0  0  0  0  0  0  0
  142.2270   79.0240  223.4730 C   0  0  0  0  0  0  0  0  0  0  0  0
  142.4250   80.3760  223.6580 C   0  0  0  0  0  0  0  0  0  0  0  0
  141.3360   81.2230  223.4490 C   0  0  0  0  0  0  0  0  0  0  0  0
  140.1230   80.6820  223.0740 C   0  0  0  0  0  0  0  0  0  0  0  0
  140.2090   71.4810  223.7370 C   0  0  0  0  0  0  0  0  0  0  0  0
  139.5390   70.2960  223.6730 C   0  0  0  0  0  0  0  0  0  0  0  0
  139.3130   69.4660  224.7570 C   0  0  0  0  0  0  0  0  0  0  0  0
  139.8230   69.9130  225.9770 C   0  0  0  0  0  0  0  0  0  0  0  0
  139.6330   69.1350  227.1000 C   0  0  0  0  0  0  0  0  0  0  0  0
  140.1310   69.5550  228.3350 C   0  0  0  0  0  0  0  0  0  0  0  0
  140.8100   70.7710  228.3680 C   0  0  0  0  0  0  0  0  0  0  0  0
  140.9940   71.5420  227.2350 C   0  0  0  0  0  0  0  0  0  0  0  0
  140.5030   71.1280  226.0170 C   0  0  0  0  0  0  0  0  0  0  0  0
  140.6860   71.8860  224.9180 N   0  0  0  0  0  0  0  0  0  0  0  0
  138.8310   73.6390  222.9520 H   0  0  0  0  0  0  0  0  0  0  0  0
  140.5479   73.7912  220.4156 H   0  0  0  0  0  0  0  0  0  0  0  0
  138.8034   74.1423  220.4054 H   0  0  0  0  0  0  0  0  0  0  0  0
  138.4040   77.7811  219.8920 H   0  0  0  0  0  0  0  0  0  0  0  0
  138.2940   76.0129  219.5376 H   0  0  0  0  0  0  0  0  0  0  0  0
  136.2922   77.8515  220.6286 H   0  0  0  0  0  0  0  0  0  0  0  0
  136.1235   76.1911  219.8967 H   0  0  0  0  0  0  0  0  0  0  0  0
  135.3191   76.4563  222.2544 H   0  0  0  0  0  0  0  0  0  0  0  0
  136.5587   75.1449  221.9102 H   0  0  0  0  0  0  0  0  0  0  0  0
  136.7147   77.5561  223.5920 H   0  0  0  0  0  0  0  0  0  0  0  0
  137.4327   75.8620  223.7423 H   0  0  0  0  0  0  0  0  0  0  0  0
  139.2953   77.0318  223.4906 H   0  0  0  0  0  0  0  0  0  0  0  0
  138.4979   78.9303  221.4232 H   0  0  0  0  0  0  0  0  0  0  0  0
  137.8897   79.1464  223.1485 H   0  0  0  0  0  0  0  0  0  0  0  0
  140.9098   77.3933  222.9625 H   0  0  0  0  0  0  0  0  0  0  0  0
  143.0773   78.3448  223.6330 H   0  0  0  0  0  0  0  0  0  0  0  0
  143.4058   80.7724  223.9594 H   0  0  0  0  0  0  0  0  0  0  0  0
  141.4431   82.3097  223.5816 H   0  0  0  0  0  0  0  0  0  0  0  0
  139.2743   81.3634  222.9146 H   0  0  0  0  0  0  0  0  0  0  0  0
  139.1518   69.9779  222.6938 H   0  0  0  0  0  0  0  0  0  0  0  0
  138.7669   68.5157  224.6633 H   0  0  0  0  0  0  0  0  0  0  0  0
  139.0884   68.1824  227.0226 H   0  0  0  0  0  0  0  0  0  0  0  0
  139.9930   68.9510  229.2439 H   0  0  0  0  0  0  0  0  0  0  0  0
  141.2129   71.1295  229.3267 H   0  0  0  0  0  0  0  0  0  0  0  0
  141.5379   72.4954  227.3074 H   0  0  0  0  0  0  0  0  0  0  0  0
  1  2  2  0
  2  3  1  0
  3  4  1  0
  4  5  1  0
  5  6  2  0
  5  7  1  0
  7  8  1  0
  8  9  1  0
  9 10  1  0
 10 11  1  0
 11 12  1  0
 12 13  1  0
 13 14  1  0
 14 15  2  0
 15 16  1  0
 16 17  2  0
 17 18  1  0
 18 19  2  0
  2 20  1  0
 20 21  2  0
 21 22  1  0
 22 23  2  0
 23 24  1  0
 24 25  2  0
 25 26  1  0
 26 27  2  0
 27 28  1  0
 28 29  2  0
 12  7  1  0
 19 14  1  0
 29 20  1  0
 28 23  1  0
  3 30  1  0
  4 31  1  0
  4 32  1  0
  8 33  1  0
  8 34  1  0
  9 35  1  0
  9 36  1  0
 10 37  1  0
 10 38  1  0
 11 39  1  0
 11 40  1  0
 12 41  1  1
 13 42  1  0
 13 43  1  0
 15 44  1  0
 16 45  1  0
 17 46  1  0
 18 47  1  0
 19 48  1  0
 21 49  1  0
 22 50  1  0
 24 51  1  0
 25 52  1  0
 26 53  1  0
 27 54  1  0
M  END
>  <smiles>  (48) 
O=C(NCC(=O)N1CCCCC1Cc1ccccc1)c1ccc2ccccc2n1

>  <score_type>  (48) 
oracle

>  <origin>  (48) 
autodockgpu

>  <m_score__min__energy>  (48) 
-9.3399999999999999

>  <m_primary>  (48) 
energy

>  <rmsd>  (48) 
2.8840241149927652

>  <m_score__min__rmsd>  (48) 
2.8840241149927652

>  <meeko>  (48) 
{"free_energy": -8.88, "intermolecular_energy": -10.67, "internal_energy": -1.46, "cluster_size": 35, "cluster_id": 1, "rank_in_cluster": 22}

>  <energy>  (48) 
-8.36

>  <cluster_rmsd>  (48) 
0.35

>  <cluster>  (48) 
3

$$$$

     RDKit          3D

 54 57  0  0  0  0  0  0  0  0999 V2000
  141.0440   72.8460  222.4670 O   0  0  0  0  0  0  0  0  0  0  0  0
  139.9430   72.3470  222.8810 C   0  0  0  0  0  0  0  0  0  0  0  0
  138.7430   72.7850  222.2560 N   0  0  0  0  0  0  0  0  0  0  0  0
  138.7440   73.7620  221.1820 C   0  0  0  0  0  0  0  0  0  0  0  0
  138.8120   75.0960  221.8070 C   0  0  0  0  0  0  0  0  0  0  0  0
  137.8790   75.6170  222.4720 O   0  0  0  0  0  0  0  0  0  0  0  0
  140.0070   75.8530  221.6550 N   0  0  0  0  0  0  0  0  0  0  0  0
  141.2310   75.2740  221.1130 C   0  0  0  0  0  0  0  0  0  0  0  0
  141.8590   76.1990  220.0920 C   0  0  0  0  0  0  0  0  0  0  0  0
  140.9400   77.3020  219.6590 C   0  0  0  0  0  0  0  0  0  0  0  0
  140.2580   78.0260  220.7770 C   0  0  0  0  0  0  0  0  0  0  0  0
  140.0790   77.2580  222.0320 C   0  0  2  0  0  0  0  0  0  0  0  0
  141.1410   77.5050  223.0710 C   0  0  0  0  0  0  0  0  0  0  0  0
  141.5280   78.9010  223.2510 C   0  0  0  0  0  0  0  0  0  0  0  0
  140.5220   79.8090  223.6080 C   0  0  0  0  0  0  0  0  0  0  0  0
  140.8490   81.1380  223.7890 C   0  0  0  0  0  0  0  0  0  0  0  0
  142.1280   81.6300  223.6370 C   0  0  0  0  0  0  0  0  0  0  0  0
  143.1310   80.7260  223.2840 C   0  0  0  0  0  0  0  0  0  0  0  0
  142.8060   79.3970  223.1010 C   0  0  0  0  0  0  0  0  0  0  0  0
  139.9240   71.3550  223.9670 C   0  0  0  0  0  0  0  0  0  0  0  0
  139.2910   70.1660  223.7610 C   0  0  0  0  0  0  0  0  0  0  0  0
  139.2030   69.1540  224.7000 C   0  0  0  0  0  0  0  0  0  0  0  0
  139.8180   69.4120  225.9270 C   0  0  0  0  0  0  0  0  0  0  0  0
  139.7690   68.4450  226.9090 C   0  0  0  0  0  0  0  0  0  0  0  0
  140.3750   68.6750  228.1460 C   0  0  0  0  0  0  0  0  0  0  0  0
  141.0130   69.8990  228.3270 C   0  0  0  0  0  0  0  0  0  0  0  0
  141.0560   70.8600  227.3340 C   0  0  0  0  0  0  0  0  0  0  0  0
  140.4590   70.6350  226.1140 C   0  0  0  0  0  0  0  0  0  0  0  0
  140.5050   71.5770  225.1510 N   0  0  0  0  0  0  0  0  0  0  0  0
  137.8450   72.3610  222.6130 H   0  0  0  0  0  0  0  0  0  0  0  0
  139.6168   73.6057  220.5310 H   0  0  0  0  0  0  0  0  0  0  0  0
  137.8386   73.6653  220.5649 H   0  0  0  0  0  0  0  0  0  0  0  0
  141.9441   75.1057  221.9335 H   0  0  0  0  0  0  0  0  0  0  0  0
  140.9820   74.3228  220.6199 H   0  0  0  0  0  0  0  0  0  0  0  0
  142.7615   76.6472  220.5330 H   0  0  0  0  0  0  0  0  0  0  0  0
  142.0934   75.5968  219.2018 H   0  0  0  0  0  0  0  0  0  0  0  0
  141.5294   78.0336  219.0868 H   0  0  0  0  0  0  0  0  0  0  0  0
  140.1440   76.8271  219.0666 H   0  0  0  0  0  0  0  0  0  0  0  0
  140.8531   78.9209  221.0115 H   0  0  0  0  0  0  0  0  0  0  0  0
  139.2427   78.2444  220.4144 H   0  0  0  0  0  0  0  0  0  0  0  0
  139.1556   77.5940  222.5264 H   0  0  0  0  0  0  0  0  0  0  0  0
  140.7667   77.1296  224.0348 H   0  0  0  0  0  0  0  0  0  0  0  0
  142.0417   76.9844  222.7136 H   0  0  0  0  0  0  0  0  0  0  0  0
  139.4851   79.4672  223.7423 H   0  0  0  0  0  0  0  0  0  0  0  0
  140.0491   81.8395  224.0685 H   0  0  0  0  0  0  0  0  0  0  0  0
  142.3499   82.6967  223.7885 H   0  0  0  0  0  0  0  0  0  0  0  0
  144.1681   81.0685  223.1532 H   0  0  0  0  0  0  0  0  0  0  0  0
  143.6076   78.6976  222.8211 H   0  0  0  0  0  0  0  0  0  0  0  0
  138.8180   69.9997  222.7819 H   0  0  0  0  0  0  0  0  0  0  0  0
  138.6823   68.2073  224.4936 H   0  0  0  0  0  0  0  0  0  0  0  0
  139.2527   67.4927  226.7180 H   0  0  0  0  0  0  0  0  0  0  0  0
  140.3492   67.9195  228.9451 H   0  0  0  0  0  0  0  0  0  0  0  0
  141.4987   70.1084  229.2915 H   0  0  0  0  0  0  0  0  0  0  0  0
  141.5721   71.8134  227.5205 H   0  0  0  0  0  0  0  0  0  0  0  0
  1  2  2  0
  2  3  1  0
  3  4  1  0
  4  5  1  0
  5  6  2  0
  5  7  1  0
  7  8  1  0
  8  9  1  0
  9 10  1  0
 10 11  1  0
 11 12  1  0
 12 13  1  0
 13 14  1  0
 14 15  2  0
 15 16  1  0
 16 17  2  0
 17 18  1  0
 18 19  2  0
  2 20  1  0
 20 21  2  0
 21 22  1  0
 22 23  2  0
 23 24  1  0
 24 25  2  0
 25 26  1  0
 26 27  2  0
 27 28  1  0
 28 29  2  0
 12  7  1  0
 19 14  1  0
 29 20  1  0
 28 23  1  0
  3 30  1  0
  4 31  1  0
  4 32  1  0
  8 33  1  0
  8 34  1  0
  9 35  1  0
  9 36  1  0
 10 37  1  0
 10 38  1  0
 11 39  1  0
 11 40  1  0
 12 41  1  1
 13 42  1  0
 13 43  1  0
 15 44  1  0
 16 45  1  0
 17 46  1  0
 18 47  1  0
 19 48  1  0
 21 49  1  0
 22 50  1  0
 24 51  1  0
 25 52  1  0
 26 53  1  0
 27 54  1  0
M  END
>  <smiles>  (49) 
O=C(NCC(=O)N1CCCCC1Cc1ccccc1)c1ccc2ccccc2n1

>  <score_type>  (49) 
oracle

>  <origin>  (49) 
autodockgpu

>  <m_score__min__energy>  (49) 
-9.3399999999999999

>  <m_primary>  (49) 
energy

>  <rmsd>  (49) 
2.476106306286304

>  <m_score__min__rmsd>  (49) 
2.476106306286304

>  <meeko>  (49) 
{"free_energy": -9.1, "intermolecular_energy": -10.89, "internal_energy": -1.48, "cluster_size": 35, "cluster_id": 1, "rank_in_cluster": 7}

>  <energy>  (49) 
-8.32

>  <cluster_rmsd>  (49) 
0.89

>  <cluster>  (49) 
3

$$$$

     RDKit          3D

 54 57  0  0  0  0  0  0  0  0999 V2000
  140.1990   71.2910  221.2210 O   0  0  0  0  0  0  0  0  0  0  0  0
  139.9810   71.9390  222.3010 C   0  0  0  0  0  0  0  0  0  0  0  0
  139.6890   73.3260  222.1900 N   0  0  0  0  0  0  0  0  0  0  0  0
  139.6330   74.0040  220.9080 C   0  0  0  0  0  0  0  0  0  0  0  0
  139.8060   75.4450  221.1690 C   0  0  0  0  0  0  0  0  0  0  0  0
  139.1330   76.1010  222.0060 O   0  0  0  0  0  0  0  0  0  0  0  0
  140.7970   76.1520  220.4310 N   0  0  0  0  0  0  0  0  0  0  0  0
  142.2100   75.7920  220.4850 C   0  0  0  0  0  0  0  0  0  0  0  0
  142.8130   75.7700  219.0960 C   0  0  0  0  0  0  0  0  0  0  0  0
  141.7800   75.8050  218.0090 C   0  0  0  0  0  0  0  0  0  0  0  0
  140.7230   76.8500  218.1810 C   0  0  0  0  0  0  0  0  0  0  0  0
  140.4580   77.2800  219.5760 C   0  0  2  0  0  0  0  0  0  0  0  0
  141.1820   78.5330  219.9890 C   0  0  0  0  0  0  0  0  0  0  0  0
  141.0870   78.8740  221.4060 C   0  0  0  0  0  0  0  0  0  0  0  0
  142.2840   79.0890  222.1000 C   0  0  0  0  0  0  0  0  0  0  0  0
  142.2350   79.4140  223.4410 C   0  0  0  0  0  0  0  0  0  0  0  0
  141.0570   79.5420  224.1460 C   0  0  0  0  0  0  0  0  0  0  0  0
  139.8640   79.3300  223.4550 C   0  0  0  0  0  0  0  0  0  0  0  0
  139.9100   79.0030  222.1150 C   0  0  0  0  0  0  0  0  0  0  0  0
  140.0320   71.2680  223.6090 C   0  0  0  0  0  0  0  0  0  0  0  0
  139.5710   69.9900  223.7110 C   0  0  0  0  0  0  0  0  0  0  0  0
  139.5640   69.2510  224.8810 C   0  0  0  0  0  0  0  0  0  0  0  0
  140.0750   69.9000  226.0070 C   0  0  0  0  0  0  0  0  0  0  0  0
  140.0980   69.2210  227.2080 C   0  0  0  0  0  0  0  0  0  0  0  0
  140.6030   69.8430  228.3520 C   0  0  0  0  0  0  0  0  0  0  0  0
  141.0670   71.1500  228.2160 C   0  0  0  0  0  0  0  0  0  0  0  0
  141.0370   71.8180  227.0070 C   0  0  0  0  0  0  0  0  0  0  0  0
  140.5400   71.2060  225.8780 C   0  0  0  0  0  0  0  0  0  0  0  0
  140.5150   71.8650  224.7030 N   0  0  0  0  0  0  0  0  0  0  0  0
  139.5120   73.8430  223.0940 H   0  0  0  0  0  0  0  0  0  0  0  0
  140.4389   73.6401  220.2537 H   0  0  0  0  0  0  0  0  0  0  0  0
  138.6738   73.8105  220.4055 H   0  0  0  0  0  0  0  0  0  0  0  0
  142.7468   76.5297  221.0995 H   0  0  0  0  0  0  0  0  0  0  0  0
  142.3014   74.7879  220.9249 H   0  0  0  0  0  0  0  0  0  0  0  0
  143.4691   76.6458  218.9846 H   0  0  0  0  0  0  0  0  0  0  0  0
  143.3680   74.8259  218.9927 H   0  0  0  0  0  0  0  0  0  0  0  0
  142.2939   75.9919  217.0545 H   0  0  0  0  0  0  0  0  0  0  0  0
  141.2637   74.8342  218.0412 H   0  0  0  0  0  0  0  0  0  0  0  0
  141.0296   77.7371  217.6073 H   0  0  0  0  0  0  0  0  0  0  0  0
  139.7884   76.3889  217.8289 H   0  0  0  0  0  0  0  0  0  0  0  0
  139.3973   77.5560  219.6691 H   0  0  0  0  0  0  0  0  0  0  0  0
  142.2463   78.4072  219.7410 H   0  0  0  0  0  0  0  0  0  0  0  0
  140.6955   79.3567  219.4461 H   0  0  0  0  0  0  0  0  0  0  0  0
  143.2511   79.0001  221.5834 H   0  0  0  0  0  0  0  0  0  0  0  0
  143.1832   79.5791  223.9736 H   0  0  0  0  0  0  0  0  0  0  0  0
  141.0580   79.8019  225.2148 H   0  0  0  0  0  0  0  0  0  0  0  0
  138.8976   79.4224  223.9722 H   0  0  0  0  0  0  0  0  0  0  0  0
  138.9604   78.8368  221.5852 H   0  0  0  0  0  0  0  0  0  0  0  0
  139.1775   69.5130  222.8012 H   0  0  0  0  0  0  0  0  0  0  0  0
  139.1812   68.2205  224.9214 H   0  0  0  0  0  0  0  0  0  0  0  0
  139.7187   68.1900  227.2644 H   0  0  0  0  0  0  0  0  0  0  0  0
  140.6332   69.3226  229.3206 H   0  0  0  0  0  0  0  0  0  0  0  0
  141.4701   71.6664  229.0996 H   0  0  0  0  0  0  0  0  0  0  0  0
  141.4141   72.8495  226.9456 H   0  0  0  0  0  0  0  0  0  0  0  0
  1  2  2  0
  2  3  1  0
  3  4  1  0
  4  5  1  0
  5  6  2  0
  5  7  1  0
  7  8  1  0
  8  9  1  0
  9 10  1  0
 10 11  1  0
 11 12  1  0
 12 13  1  0
 13 14  1  0
 14 15  2  0
 15 16  1  0
 16 17  2  0
 17 18  1  0
 18 19  2  0
  2 20  1  0
 20 21  2  0
 21 22  1  0
 22 23  2  0
 23 24  1  0
 24 25  2  0
 25 26  1  0
 26 27  2  0
 27 28  1  0
 28 29  2  0
 12  7  1  0
 19 14  1  0
 29 20  1  0
 28 23  1  0
  3 30  1  0
  4 31  1  0
  4 32  1  0
  8 33  1  0
  8 34  1  0
  9 35  1  0
  9 36  1  0
 10 37  1  0
 10 38  1  0
 11 39  1  0
 11 40  1  0
 12 41  1  6
 13 42  1  0
 13 43  1  0
 15 44  1  0
 16 45  1  0
 17 46  1  0
 18 47  1  0
 19 48  1  0
 21 49  1  0
 22 50  1  0
 24 51  1  0
 25 52  1  0
 26 53  1  0
 27 54  1  0
M  END
>  <smiles>  (50) 
O=C(NCC(=O)N1CCCCC1Cc1ccccc1)c1ccc2ccccc2n1

>  <score_type>  (50) 
oracle

>  <origin>  (50) 
autodockgpu

>  <m_score__min__energy>  (50) 
-9.3399999999999999

>  <m_primary>  (50) 
energy

>  <rmsd>  (50) 
2.057259596976916

>  <m_score__min__rmsd>  (50) 
2.057259596976916

>  <meeko>  (50) 
{"free_energy": -8.25, "intermolecular_energy": -10.04, "internal_energy": -1.92, "cluster_size": 35, "cluster_id": 1, "rank_in_cluster": 35}

>  <energy>  (50) 
-8.33

>  <cluster_rmsd>  (50) 
0.0

>  <cluster>  (50) 
4

$$$$

     RDKit          3D

 54 57  0  0  0  0  0  0  0  0999 V2000
  139.6110   71.2170  221.2240 O   0  0  0  0  0  0  0  0  0  0  0  0
  139.6620   71.8720  222.3120 C   0  0  0  0  0  0  0  0  0  0  0  0
  139.5770   73.2920  222.3540 N   0  0  0  0  0  0  0  0  0  0  0  0
  139.4270   74.0520  221.1300 C   0  0  0  0  0  0  0  0  0  0  0  0
  140.7810   74.1130  220.5010 C   0  0  0  0  0  0  0  0  0  0  0  0
  141.5860   73.1690  220.5530 O   0  0  0  0  0  0  0  0  0  0  0  0
  141.1890   75.2920  219.8070 N   0  0  0  0  0  0  0  0  0  0  0  0
  140.9280   75.3990  218.3880 C   0  0  0  0  0  0  0  0  0  0  0  0
  142.1600   75.8400  217.6260 C   0  0  0  0  0  0  0  0  0  0  0  0
  142.7870   77.0710  218.2670 C   0  0  0  0  0  0  0  0  0  0  0  0
  143.0910   76.7220  219.7020 C   0  0  0  0  0  0  0  0  0  0  0  0
  141.8670   76.3900  220.4980 C   0  0  1  0  0  0  0  0  0  0  0  0
  140.9700   77.5530  220.7750 C   0  0  0  0  0  0  0  0  0  0  0  0
  141.4760   78.4770  221.8220 C   0  0  0  0  0  0  0  0  0  0  0  0
  142.0430   79.7030  221.5380 C   0  0  0  0  0  0  0  0  0  0  0  0
  142.5120   80.5610  222.5190 C   0  0  0  0  0  0  0  0  0  0  0  0
  142.4150   80.1900  223.8320 C   0  0  0  0  0  0  0  0  0  0  0  0
  141.8530   78.9720  224.1470 C   0  0  0  0  0  0  0  0  0  0  0  0
  141.3820   78.1100  223.1700 C   0  0  0  0  0  0  0  0  0  0  0  0
  139.8120   71.1520  223.5880 C   0  0  0  0  0  0  0  0  0  0  0  0
  139.4450   69.8270  223.6990 C   0  0  0  0  0  0  0  0  0  0  0  0
  139.6010   69.1700  224.9250 C   0  0  0  0  0  0  0  0  0  0  0  0
  140.1160   69.8360  226.0160 C   0  0  0  0  0  0  0  0  0  0  0  0
  140.2960   69.2490  227.2510 C   0  0  0  0  0  0  0  0  0  0  0  0
  140.8230   69.9640  228.3330 C   0  0  0  0  0  0  0  0  0  0  0  0
  141.1630   71.2890  228.1270 C   0  0  0  0  0  0  0  0  0  0  0  0
  141.0000   71.9140  226.9120 C   0  0  0  0  0  0  0  0  0  0  0  0
  140.4730   71.1580  225.8730 C   0  0  0  0  0  0  0  0  0  0  0  0
  140.3160   71.7710  224.6880 N   0  0  0  0  0  0  0  0  0  0  0  0
  139.6240   73.7730  223.2720 H   0  0  0  0  0  0  0  0  0  0  0  0
  138.7169   73.5508  220.4559 H   0  0  0  0  0  0  0  0  0  0  0  0
  139.0363   75.0601  221.3326 H   0  0  0  0  0  0  0  0  0  0  0  0
  140.6063   74.4176  218.0093 H   0  0  0  0  0  0  0  0  0  0  0  0
  140.1426   76.1545  218.2388 H   0  0  0  0  0  0  0  0  0  0  0  0
  142.8946   75.0213  217.6252 H   0  0  0  0  0  0  0  0  0  0  0  0
  141.8637   76.0931  216.5973 H   0  0  0  0  0  0  0  0  0  0  0  0
  143.7146   77.3390  217.7399 H   0  0  0  0  0  0  0  0  0  0  0  0
  142.1032   77.9308  218.2112 H   0  0  0  0  0  0  0  0  0  0  0  0
  143.7640   75.8520  219.7156 H   0  0  0  0  0  0  0  0  0  0  0  0
  143.5525   77.6072  220.1640 H   0  0  0  0  0  0  0  0  0  0  0  0
  142.1708   76.0814  221.5092 H   0  0  0  0  0  0  0  0  0  0  0  0
  140.8465   78.1231  219.8424 H   0  0  0  0  0  0  0  0  0  0  0  0
  140.0226   77.1388  221.1503 H   0  0  0  0  0  0  0  0  0  0  0  0
  142.1261   80.0124  220.4857 H   0  0  0  0  0  0  0  0  0  0  0  0
  142.9571   81.5290  222.2455 H   0  0  0  0  0  0  0  0  0  0  0  0
  142.7813   80.8561  224.6270 H   0  0  0  0  0  0  0  0  0  0  0  0
  141.7762   78.6758  225.2036 H   0  0  0  0  0  0  0  0  0  0  0  0
  140.9373   77.1440  223.4513 H   0  0  0  0  0  0  0  0  0  0  0  0
  139.0331   69.2911  222.8312 H   0  0  0  0  0  0  0  0  0  0  0  0
  139.3101   68.1133  225.0184 H   0  0  0  0  0  0  0  0  0  0  0  0
  140.0188   68.1935  227.3891 H   0  0  0  0  0  0  0  0  0  0  0  0
  140.9622   69.4879  229.3148 H   0  0  0  0  0  0  0  0  0  0  0  0
  141.5795   71.8649  228.9665 H   0  0  0  0  0  0  0  0  0  0  0  0
  141.2758   72.9693  226.7695 H   0  0  0  0  0  0  0  0  0  0  0  0
  1  2  2  0
  2  3  1  0
  3  4  1  0
  4  5  1  0
  5  6  2  0
  5  7  1  0
  7  8  1  0
  8  9  1  0
  9 10  1  0
 10 11  1  0
 11 12  1  0
 12 13  1  0
 13 14  1  0
 14 15  2  0
 15 16  1  0
 16 17  2  0
 17 18  1  0
 18 19  2  0
  2 20  1  0
 20 21  2  0
 21 22  1  0
 22 23  2  0
 23 24  1  0
 24 25  2  0
 25 26  1  0
 26 27  2  0
 27 28  1  0
 28 29  2  0
 12  7  1  0
 19 14  1  0
 29 20  1  0
 28 23  1  0
  3 30  1  0
  4 31  1  0
  4 32  1  0
  8 33  1  0
  8 34  1  0
  9 35  1  0
  9 36  1  0
 10 37  1  0
 10 38  1  0
 11 39  1  0
 11 40  1  0
 12 41  1  1
 13 42  1  0
 13 43  1  0
 15 44  1  0
 16 45  1  0
 17 46  1  0
 18 47  1  0
 19 48  1  0
 21 49  1  0
 22 50  1  0
 24 51  1  0
 25 52  1  0
 26 53  1  0
 27 54  1  0
M  END
>  <smiles>  (51) 
O=C(NCC(=O)N1CCCCC1Cc1ccccc1)c1ccc2ccccc2n1

>  <score_type>  (51) 
oracle

>  <origin>  (51) 
autodockgpu

>  <m_score__min__energy>  (51) 
-9.6199999999999992

>  <m_primary>  (51) 
energy

>  <rmsd>  (51) 
1.6327225734141375

>  <m_score__min__rmsd>  (51) 
1.6327225734141375

>  <meeko>  (51) 
{"free_energy": -8.86, "intermolecular_energy": -10.65, "internal_energy": -1.58, "cluster_size": 17, "cluster_id": 2, "rank_in_cluster": 14}

>  <energy>  (51) 
-9.62

>  <cluster_rmsd>  (51) 
0.0

>  <cluster>  (51) 
1

$$$$

     RDKit          3D

 54 57  0  0  0  0  0  0  0  0999 V2000
  140.0140   71.1620  221.1620 O   0  0  0  0  0  0  0  0  0  0  0  0
  139.8850   71.8330  222.2340 C   0  0  0  0  0  0  0  0  0  0  0  0
  139.6910   73.2420  222.2350 N   0  0  0  0  0  0  0  0  0  0  0  0
  139.6340   73.9740  220.9860 C   0  0  0  0  0  0  0  0  0  0  0  0
  140.3340   75.2720  221.2230 C   0  0  0  0  0  0  0  0  0  0  0  0
  140.4480   75.7750  222.3530 O   0  0  0  0  0  0  0  0  0  0  0  0
  140.9040   75.9830  220.1240 N   0  0  0  0  0  0  0  0  0  0  0  0
  140.4360   75.7000  218.7840 C   0  0  0  0  0  0  0  0  0  0  0  0
  141.5890   75.4790  217.8270 C   0  0  0  0  0  0  0  0  0  0  0  0
  142.6110   76.6030  217.9360 C   0  0  0  0  0  0  0  0  0  0  0  0
  143.0600   76.6610  219.3740 C   0  0  0  0  0  0  0  0  0  0  0  0
  141.9490   76.9890  220.3230 C   0  0  1  0  0  0  0  0  0  0  0  0
  141.4420   78.3910  220.2280 C   0  0  0  0  0  0  0  0  0  0  0  0
  141.6390   79.1950  221.4620 C   0  0  0  0  0  0  0  0  0  0  0  0
  141.6640   78.6450  222.7270 C   0  0  0  0  0  0  0  0  0  0  0  0
  141.8490   79.3990  223.8730 C   0  0  0  0  0  0  0  0  0  0  0  0
  142.0150   80.7530  223.7620 C   0  0  0  0  0  0  0  0  0  0  0  0
  141.9940   81.3310  222.5120 C   0  0  0  0  0  0  0  0  0  0  0  0
  141.8100   80.5810  221.3610 C   0  0  0  0  0  0  0  0  0  0  0  0
  139.9340   71.1410  223.5340 C   0  0  0  0  0  0  0  0  0  0  0  0
  139.4650   69.8510  223.6650 C   0  0  0  0  0  0  0  0  0  0  0  0
  139.5260   69.2210  224.9140 C   0  0  0  0  0  0  0  0  0  0  0  0
  140.0490   69.8800  226.0060 C   0  0  0  0  0  0  0  0  0  0  0  0
  140.1380   69.3180  227.2620 C   0  0  0  0  0  0  0  0  0  0  0  0
  140.6780   70.0240  228.3440 C   0  0  0  0  0  0  0  0  0  0  0  0
  141.1230   71.3130  228.1160 C   0  0  0  0  0  0  0  0  0  0  0  0
  141.0520   71.9120  226.8800 C   0  0  0  0  0  0  0  0  0  0  0  0
  140.5090   71.1660  225.8410 C   0  0  0  0  0  0  0  0  0  0  0  0
  140.4420   71.7550  224.6350 N   0  0  0  0  0  0  0  0  0  0  0  0
  139.5910   73.7360  223.1420 H   0  0  0  0  0  0  0  0  0  0  0  0
  140.1412   73.4084  220.1905 H   0  0  0  0  0  0  0  0  0  0  0  0
  138.5939   74.1354  220.6666 H   0  0  0  0  0  0  0  0  0  0  0  0
  139.8125   74.7941  218.8073 H   0  0  0  0  0  0  0  0  0  0  0  0
  139.8566   76.5660  218.4313 H   0  0  0  0  0  0  0  0  0  0  0  0
  142.0780   74.5234  218.0673 H   0  0  0  0  0  0  0  0  0  0  0  0
  141.1944   75.4621  216.8003 H   0  0  0  0  0  0  0  0  0  0  0  0
  143.4702   76.3957  217.2812 H   0  0  0  0  0  0  0  0  0  0  0  0
  142.1704   77.5621  217.6260 H   0  0  0  0  0  0  0  0  0  0  0  0
  143.4786   75.6819  219.6499 H   0  0  0  0  0  0  0  0  0  0  0  0
  143.8068   77.4648  219.4525 H   0  0  0  0  0  0  0  0  0  0  0  0
  142.3336   76.9490  221.3528 H   0  0  0  0  0  0  0  0  0  0  0  0
  141.9674   78.8926  219.4020 H   0  0  0  0  0  0  0  0  0  0  0  0
  140.3563   78.3240  220.0644 H   0  0  0  0  0  0  0  0  0  0  0  0
  141.5309   77.5579  222.8296 H   0  0  0  0  0  0  0  0  0  0  0  0
  141.8624   78.9158  224.8611 H   0  0  0  0  0  0  0  0  0  0  0  0
  142.1633   81.3716  224.6594 H   0  0  0  0  0  0  0  0  0  0  0  0
  142.1271   82.4194  222.4246 H   0  0  0  0  0  0  0  0  0  0  0  0
  141.7984   81.0707  220.3761 H   0  0  0  0  0  0  0  0  0  0  0  0
  139.0467   69.3216  222.7962 H   0  0  0  0  0  0  0  0  0  0  0  0
  139.1536   68.1919  225.0247 H   0  0  0  0  0  0  0  0  0  0  0  0
  139.7763   68.2909  227.4177 H   0  0  0  0  0  0  0  0  0  0  0  0
  140.7459   69.5680  229.3427 H   0  0  0  0  0  0  0  0  0  0  0  0
  141.5502   71.8813  228.9554 H   0  0  0  0  0  0  0  0  0  0  0  0
  141.4104   72.9397  226.7205 H   0  0  0  0  0  0  0  0  0  0  0  0
  1  2  2  0
  2  3  1  0
  3  4  1  0
  4  5  1  0
  5  6  2  0
  5  7  1  0
  7  8  1  0
  8  9  1  0
  9 10  1  0
 10 11  1  0
 11 12  1  0
 12 13  1  0
 13 14  1  0
 14 15  2  0
 15 16  1  0
 16 17  2  0
 17 18  1  0
 18 19  2  0
  2 20  1  0
 20 21  2  0
 21 22  1  0
 22 23  2  0
 23 24  1  0
 24 25  2  0
 25 26  1  0
 26 27  2  0
 27 28  1  0
 28 29  2  0
 12  7  1  0
 19 14  1  0
 29 20  1  0
 28 23  1  0
  3 30  1  0
  4 31  1  0
  4 32  1  0
  8 33  1  0
  8 34  1  0
  9 35  1  0
  9 36  1  0
 10 37  1  0
 10 38  1  0
 11 39  1  0
 11 40  1  0
 12 41  1  1
 13 42  1  0
 13 43  1  0
 15 44  1  0
 16 45  1  0
 17 46  1  0
 18 47  1  0
 19 48  1  0
 21 49  1  0
 22 50  1  0
 24 51  1  0
 25 52  1  0
 26 53  1  0
 27 54  1  0
M  END
>  <smiles>  (52) 
O=C(NCC(=O)N1CCCCC1Cc1ccccc1)c1ccc2ccccc2n1

>  <score_type>  (52) 
oracle

>  <origin>  (52) 
autodockgpu

>  <m_score__min__energy>  (52) 
-9.6199999999999992

>  <m_primary>  (52) 
energy

>  <rmsd>  (52) 
1.5085686979896367

>  <m_score__min__rmsd>  (52) 
1.5085686979896367

>  <meeko>  (52) 
{"free_energy": -9.26, "intermolecular_energy": -11.05, "internal_energy": -1.95, "cluster_size": 17, "cluster_id": 2, "rank_in_cluster": 5}

>  <energy>  (52) 
-9.57

>  <cluster_rmsd>  (52) 
0.83

>  <cluster>  (52) 
1

$$$$

     RDKit          3D

 54 57  0  0  0  0  0  0  0  0999 V2000
  141.3040   71.4700  221.4330 O   0  0  0  0  0  0  0  0  0  0  0  0
  140.6730   72.0550  222.3690 C   0  0  0  0  0  0  0  0  0  0  0  0
  140.2840   73.4210  222.2910 N   0  0  0  0  0  0  0  0  0  0  0  0
  140.6040   74.2070  221.1170 C   0  0  0  0  0  0  0  0  0  0  0  0
  140.5740   75.6390  221.5440 C   0  0  0  0  0  0  0  0  0  0  0  0
  139.9160   76.0320  222.5210 O   0  0  0  0  0  0  0  0  0  0  0  0
  141.3230   76.6130  220.8160 N   0  0  0  0  0  0  0  0  0  0  0  0
  141.3950   77.9660  221.3220 C   0  0  0  0  0  0  0  0  0  0  0  0
  141.0940   78.9820  220.2400 C   0  0  0  0  0  0  0  0  0  0  0  0
  141.9210   78.7090  218.9910 C   0  0  0  0  0  0  0  0  0  0  0  0
  141.6200   77.2980  218.5550 C   0  0  0  0  0  0  0  0  0  0  0  0
  142.0150   76.2720  219.5720 C   0  0  1  0  0  0  0  0  0  0  0  0
  143.4890   76.1040  219.7460 C   0  0  0  0  0  0  0  0  0  0  0  0
  143.9240   74.6960  219.9350 C   0  0  0  0  0  0  0  0  0  0  0  0
  144.9940   74.3350  220.7280 C   0  0  0  0  0  0  0  0  0  0  0  0
  145.3950   73.0220  220.9010 C   0  0  0  0  0  0  0  0  0  0  0  0
  144.7070   72.0250  220.2640 C   0  0  0  0  0  0  0  0  0  0  0  0
  143.6340   72.3530  219.4660 C   0  0  0  0  0  0  0  0  0  0  0  0
  143.2290   73.6670  219.2890 C   0  0  0  0  0  0  0  0  0  0  0  0
  140.3200   71.3050  223.5870 C   0  0  0  0  0  0  0  0  0  0  0  0
  139.5990   70.1320  223.5100 C   0  0  0  0  0  0  0  0  0  0  0  0
  139.2790   69.4420  224.6860 C   0  0  0  0  0  0  0  0  0  0  0  0
  139.6800   69.9260  225.9120 C   0  0  0  0  0  0  0  0  0  0  0  0
  139.4000   69.2970  227.1060 C   0  0  0  0  0  0  0  0  0  0  0  0
  139.8270   69.8240  228.3310 C   0  0  0  0  0  0  0  0  0  0  0  0
  140.5460   71.0060  228.3090 C   0  0  0  0  0  0  0  0  0  0  0  0
  140.8470   71.6670  227.1410 C   0  0  0  0  0  0  0  0  0  0  0  0
  140.3990   71.0990  225.9550 C   0  0  0  0  0  0  0  0  0  0  0  0
  140.6960   71.7470  224.8160 N   0  0  0  0  0  0  0  0  0  0  0  0
  139.7700   73.8450  223.0860 H   0  0  0  0  0  0  0  0  0  0  0  0
  141.6044   73.9426  220.7438 H   0  0  0  0  0  0  0  0  0  0  0  0
  139.8865   74.0190  220.3047 H   0  0  0  0  0  0  0  0  0  0  0  0
  140.6632   78.0826  222.1349 H   0  0  0  0  0  0  0  0  0  0  0  0
  142.4177   78.1435  221.6861 H   0  0  0  0  0  0  0  0  0  0  0  0
  140.0258   78.9284  219.9831 H   0  0  0  0  0  0  0  0  0  0  0  0
  141.3493   79.9830  220.6179 H   0  0  0  0  0  0  0  0  0  0  0  0
  141.6453   79.4161  218.1948 H   0  0  0  0  0  0  0  0  0  0  0  0
  142.9941   78.8322  219.1993 H   0  0  0  0  0  0  0  0  0  0  0  0
  140.5388   77.2113  218.3719 H   0  0  0  0  0  0  0  0  0  0  0  0
  142.2085   77.1028  217.6464 H   0  0  0  0  0  0  0  0  0  0  0  0
  141.7060   75.2776  219.2174 H   0  0  0  0  0  0  0  0  0  0  0  0
  143.9895   76.5024  218.8511 H   0  0  0  0  0  0  0  0  0  0  0  0
  143.7623   76.6449  220.6640 H   0  0  0  0  0  0  0  0  0  0  0  0
  145.5539   75.1273  221.2464 H   0  0  0  0  0  0  0  0  0  0  0  0
  146.2559   72.7826  221.5424 H   0  0  0  0  0  0  0  0  0  0  0  0
  145.0077   70.9742  220.3881 H   0  0  0  0  0  0  0  0  0  0  0  0
  143.0828   71.5501  218.9547 H   0  0  0  0  0  0  0  0  0  0  0  0
  142.3676   73.8993  218.6455 H   0  0  0  0  0  0  0  0  0  0  0  0
  139.2779   69.7415  222.5331 H   0  0  0  0  0  0  0  0  0  0  0  0
  138.7031   68.5065  224.6304 H   0  0  0  0  0  0  0  0  0  0  0  0
  138.8271   68.3580  227.0964 H   0  0  0  0  0  0  0  0  0  0  0  0
  139.5985   69.3153  229.2792 H   0  0  0  0  0  0  0  0  0  0  0  0
  140.8901   71.4335  229.2623 H   0  0  0  0  0  0  0  0  0  0  0  0
  141.4189   72.6066  227.1458 H   0  0  0  0  0  0  0  0  0  0  0  0
  1  2  2  0
  2  3  1  0
  3  4  1  0
  4  5  1  0
  5  6  2  0
  5  7  1  0
  7  8  1  0
  8  9  1  0
  9 10  1  0
 10 11  1  0
 11 12  1  0
 12 13  1  0
 13 14  1  0
 14 15  2  0
 15 16  1  0
 16 17  2  0
 17 18  1  0
 18 19  2  0
  2 20  1  0
 20 21  2  0
 21 22  1  0
 22 23  2  0
 23 24  1  0
 24 25  2  0
 25 26  1  0
 26 27  2  0
 27 28  1  0
 28 29  2  0
 12  7  1  0
 19 14  1  0
 29 20  1  0
 28 23  1  0
  3 30  1  0
  4 31  1  0
  4 32  1  0
  8 33  1  0
  8 34  1  0
  9 35  1  0
  9 36  1  0
 10 37  1  0
 10 38  1  0
 11 39  1  0
 11 40  1  0
 12 41  1  6
 13 42  1  0
 13 43  1  0
 15 44  1  0
 16 45  1  0
 17 46  1  0
 18 47  1  0
 19 48  1  0
 21 49  1  0
 22 50  1  0
 24 51  1  0
 25 52  1  0
 26 53  1  0
 27 54  1  0
M  END
>  <smiles>  (53) 
O=C(NCC(=O)N1CCCCC1Cc1ccccc1)c1ccc2ccccc2n1

>  <score_type>  (53) 
oracle

>  <origin>  (53) 
autodockgpu

>  <m_score__min__energy>  (53) 
-9.6199999999999992

>  <m_primary>  (53) 
energy

>  <rmsd>  (53) 
2.6149705080762775

>  <m_score__min__rmsd>  (53) 
2.6149705080762775

>  <meeko>  (53) 
{"free_energy": -8.69, "intermolecular_energy": -10.48, "internal_energy": -2.33, "cluster_size": 8, "cluster_id": 4, "rank_in_cluster": 7}

>  <energy>  (53) 
-9.05

>  <cluster_rmsd>  (53) 
1.29

>  <cluster>  (53) 
1

$$$$

     RDKit          3D

 54 57  0  0  0  0  0  0  0  0999 V2000
  139.8300   71.1520  221.1680 O   0  0  0  0  0  0  0  0  0  0  0  0
  139.7940   71.8240  222.2470 C   0  0  0  0  0  0  0  0  0  0  0  0
  139.7070   73.2440  222.2600 N   0  0  0  0  0  0  0  0  0  0  0  0
  139.6560   73.9860  221.0170 C   0  0  0  0  0  0  0  0  0  0  0  0
  140.5500   75.1690  221.1930 C   0  0  0  0  0  0  0  0  0  0  0  0
  140.9460   75.5500  222.3070 O   0  0  0  0  0  0  0  0  0  0  0  0
  140.9820   75.9100  220.0510 N   0  0  0  0  0  0  0  0  0  0  0  0
  140.3510   75.6630  218.7720 C   0  0  0  0  0  0  0  0  0  0  0  0
  141.3750   75.4670  217.6740 C   0  0  0  0  0  0  0  0  0  0  0  0
  142.4070   76.5880  217.6860 C   0  0  0  0  0  0  0  0  0  0  0  0
  143.0310   76.6070  219.0580 C   0  0  0  0  0  0  0  0  0  0  0  0
  142.0470   76.9090  220.1460 C   0  0  1  0  0  0  0  0  0  0  0  0
  141.5370   78.3140  220.1520 C   0  0  0  0  0  0  0  0  0  0  0  0
  141.7180   79.0230  221.4440 C   0  0  0  0  0  0  0  0  0  0  0  0
  141.4700   78.4370  222.6690 C   0  0  0  0  0  0  0  0  0  0  0  0
  141.6420   79.1030  223.8710 C   0  0  0  0  0  0  0  0  0  0  0  0
  142.0770   80.4000  223.8590 C   0  0  0  0  0  0  0  0  0  0  0  0
  142.3330   81.0120  222.6520 C   0  0  0  0  0  0  0  0  0  0  0  0
  142.1630   80.3500  221.4460 C   0  0  0  0  0  0  0  0  0  0  0  0
  139.8420   71.1230  223.5410 C   0  0  0  0  0  0  0  0  0  0  0  0
  139.3640   69.8350  223.6650 C   0  0  0  0  0  0  0  0  0  0  0  0
  139.4230   69.1960  224.9090 C   0  0  0  0  0  0  0  0  0  0  0  0
  139.9550   69.8420  226.0040 C   0  0  0  0  0  0  0  0  0  0  0  0
  140.0440   69.2700  227.2550 C   0  0  0  0  0  0  0  0  0  0  0  0
  140.5930   69.9640  228.3410 C   0  0  0  0  0  0  0  0  0  0  0  0
  141.0470   71.2520  228.1210 C   0  0  0  0  0  0  0  0  0  0  0  0
  140.9770   71.8600  226.8890 C   0  0  0  0  0  0  0  0  0  0  0  0
  140.4250   71.1260  225.8470 C   0  0  0  0  0  0  0  0  0  0  0  0
  140.3590   71.7240  224.6460 N   0  0  0  0  0  0  0  0  0  0  0  0
  139.6800   73.7380  223.1720 H   0  0  0  0  0  0  0  0  0  0  0  0
  140.0130   73.3601  220.1858 H   0  0  0  0  0  0  0  0  0  0  0  0
  138.6275   74.2961  220.7805 H   0  0  0  0  0  0  0  0  0  0  0  0
  139.7317   74.7571  218.8485 H   0  0  0  0  0  0  0  0  0  0  0  0
  139.7362   76.5387  218.5168 H   0  0  0  0  0  0  0  0  0  0  0  0
  141.8864   74.5051  217.8261 H   0  0  0  0  0  0  0  0  0  0  0  0
  140.8563   75.4774  216.7040 H   0  0  0  0  0  0  0  0  0  0  0  0
  143.1777   76.3985  216.9244 H   0  0  0  0  0  0  0  0  0  0  0  0
  141.9346   77.5552  217.4592 H   0  0  0  0  0  0  0  0  0  0  0  0
  143.4775   75.6209  219.2534 H   0  0  0  0  0  0  0  0  0  0  0  0
  143.7844   77.4084  219.0650 H   0  0  0  0  0  0  0  0  0  0  0  0
  142.5560   76.8402  221.1187 H   0  0  0  0  0  0  0  0  0  0  0  0
  142.0699   78.8775  219.3719 H   0  0  0  0  0  0  0  0  0  0  0  0
  140.4533   78.2571  219.9724 H   0  0  0  0  0  0  0  0  0  0  0  0
  141.1201   77.3944  222.6914 H   0  0  0  0  0  0  0  0  0  0  0  0
  141.4314   78.5953  224.8238 H   0  0  0  0  0  0  0  0  0  0  0  0
  142.2206   80.9476  224.8021 H   0  0  0  0  0  0  0  0  0  0  0  0
  142.6821   82.0551  222.6448 H   0  0  0  0  0  0  0  0  0  0  0  0
  142.3763   80.8640  220.4972 H   0  0  0  0  0  0  0  0  0  0  0  0
  138.9400   69.3144  222.7936 H   0  0  0  0  0  0  0  0  0  0  0  0
  139.0415   68.1696  225.0135 H   0  0  0  0  0  0  0  0  0  0  0  0
  139.6753   68.2444  227.4041 H   0  0  0  0  0  0  0  0  0  0  0  0
  140.6608   69.5000  229.3360 H   0  0  0  0  0  0  0  0  0  0  0  0
  141.4805   71.8113  228.9632 H   0  0  0  0  0  0  0  0  0  0  0  0
  141.3433   72.8858  226.7353 H   0  0  0  0  0  0  0  0  0  0  0  0
  1  2  2  0
  2  3  1  0
  3  4  1  0
  4  5  1  0
  5  6  2  0
  5  7  1  0
  7  8  1  0
  8  9  1  0
  9 10  1  0
 10 11  1  0
 11 12  1  0
 12 13  1  0
 13 14  1  0
 14 15  2  0
 15 16  1  0
 16 17  2  0
 17 18  1  0
 18 19  2  0
  2 20  1  0
 20 21  2  0
 21 22  1  0
 22 23  2  0
 23 24  1  0
 24 25  2  0
 25 26  1  0
 26 27  2  0
 27 28  1  0
 28 29  2  0
 12  7  1  0
 19 14  1  0
 29 20  1  0
 28 23  1  0
  3 30  1  0
  4 31  1  0
  4 32  1  0
  8 33  1  0
  8 34  1  0
  9 35  1  0
  9 36  1  0
 10 37  1  0
 10 38  1  0
 11 39  1  0
 11 40  1  0
 12 41  1  1
 13 42  1  0
 13 43  1  0
 15 44  1  0
 16 45  1  0
 17 46  1  0
 18 47  1  0
 19 48  1  0
 21 49  1  0
 22 50  1  0
 24 51  1  0
 25 52  1  0
 26 53  1  0
 27 54  1  0
M  END
>  <smiles>  (54) 
O=C(NCC(=O)N1CCCCC1Cc1ccccc1)c1ccc2ccccc2n1

>  <score_type>  (54) 
oracle

>  <origin>  (54) 
autodockgpu

>  <m_score__min__energy>  (54) 
-9.6199999999999992

>  <m_primary>  (54) 
energy

>  <rmsd>  (54) 
1.4564623567032182

>  <m_score__min__rmsd>  (54) 
1.4564623567032182

>  <meeko>  (54) 
{"free_energy": -9.15, "intermolecular_energy": -10.94, "internal_energy": -1.95, "cluster_size": 17, "cluster_id": 2, "rank_in_cluster": 9}

>  <energy>  (54) 
-9.04

>  <cluster_rmsd>  (54) 
1.27

>  <cluster>  (54) 
1

$$$$

     RDKit          3D

 54 57  0  0  0  0  0  0  0  0999 V2000
  133.6990   70.1220  226.5670 O   0  0  0  0  0  0  0  0  0  0  0  0
  134.0260   71.2710  226.1340 C   0  0  0  0  0  0  0  0  0  0  0  0
  135.0710   71.4610  225.1860 N   0  0  0  0  0  0  0  0  0  0  0  0
  135.8110   70.3250  224.6750 C   0  0  0  0  0  0  0  0  0  0  0  0
  136.6710   70.8420  223.5680 C   0  0  0  0  0  0  0  0  0  0  0  0
  136.4820   71.9470  223.0340 O   0  0  0  0  0  0  0  0  0  0  0  0
  137.7600   70.0540  223.0880 N   0  0  0  0  0  0  0  0  0  0  0  0
  137.9980   69.9780  221.6630 C   0  0  0  0  0  0  0  0  0  0  0  0
  138.1850   68.5470  221.2050 C   0  0  0  0  0  0  0  0  0  0  0  0
  139.2050   67.8250  222.0750 C   0  0  0  0  0  0  0  0  0  0  0  0
  138.7210   67.9150  223.5000 C   0  0  0  0  0  0  0  0  0  0  0  0
  138.6370   69.3220  224.0040 C   0  0  1  0  0  0  0  0  0  0  0  0
  139.9570   69.9890  224.2130 C   0  0  0  0  0  0  0  0  0  0  0  0
  140.2020   70.4330  225.6090 C   0  0  0  0  0  0  0  0  0  0  0  0
  140.8840   71.5900  225.9250 C   0  0  0  0  0  0  0  0  0  0  0  0
  141.1090   72.0000  227.2280 C   0  0  0  0  0  0  0  0  0  0  0  0
  140.6400   71.2330  228.2590 C   0  0  0  0  0  0  0  0  0  0  0  0
  139.9550   70.0720  227.9750 C   0  0  0  0  0  0  0  0  0  0  0  0
  139.7270   69.6570  226.6730 C   0  0  0  0  0  0  0  0  0  0  0  0
  133.3080   72.4630  226.6180 C   0  0  0  0  0  0  0  0  0  0  0  0
  132.0960   72.3430  227.2640 C   0  0  0  0  0  0  0  0  0  0  0  0
  131.4380   73.4950  227.7120 C   0  0  0  0  0  0  0  0  0  0  0  0
  131.9930   74.7400  227.5130 C   0  0  0  0  0  0  0  0  0  0  0  0
  131.3990   75.9130  227.9290 C   0  0  0  0  0  0  0  0  0  0  0  0
  131.9990   77.1580  227.7050 C   0  0  0  0  0  0  0  0  0  0  0  0
  133.2160   77.1800  227.0490 C   0  0  0  0  0  0  0  0  0  0  0  0
  133.8430   76.0340  226.6160 C   0  0  0  0  0  0  0  0  0  0  0  0
  133.2040   74.8260  226.8650 C   0  0  0  0  0  0  0  0  0  0  0  0
  133.8210   73.7100  226.4420 N   0  0  0  0  0  0  0  0  0  0  0  0
  135.2940   72.4230  224.8680 H   0  0  0  0  0  0  0  0  0  0  0  0
  136.4351   69.8896  225.4693 H   0  0  0  0  0  0  0  0  0  0  0  0
  135.1324   69.5369  224.3166 H   0  0  0  0  0  0  0  0  0  0  0  0
  137.1373   70.4127  221.1336 H   0  0  0  0  0  0  0  0  0  0  0  0
  138.9196   70.5347  221.4378 H   0  0  0  0  0  0  0  0  0  0  0  0
  137.2214   68.0202  221.2679 H   0  0  0  0  0  0  0  0  0  0  0  0
  138.5521   68.5558  220.1681 H   0  0  0  0  0  0  0  0  0  0  0  0
  139.2820   66.7711  221.7693 H   0  0  0  0  0  0  0  0  0  0  0  0
  140.1997   68.2832  221.9714 H   0  0  0  0  0  0  0  0  0  0  0  0
  137.7205   67.4616  223.5592 H   0  0  0  0  0  0  0  0  0  0  0  0
  139.4514   67.3846  224.1286 H   0  0  0  0  0  0  0  0  0  0  0  0
  138.2157   69.3139  225.0201 H   0  0  0  0  0  0  0  0  0  0  0  0
  140.7498   69.2798  223.9327 H   0  0  0  0  0  0  0  0  0  0  0  0
  139.9548   70.8952  223.5895 H   0  0  0  0  0  0  0  0  0  0  0  0
  141.2663   72.2149  225.1045 H   0  0  0  0  0  0  0  0  0  0  0  0
  141.6581   72.9311  227.4317 H   0  0  0  0  0  0  0  0  0  0  0  0
  140.8078   71.5395  229.3020 H   0  0  0  0  0  0  0  0  0  0  0  0
  139.5784   69.4570  228.8056 H   0  0  0  0  0  0  0  0  0  0  0  0
  139.1769   68.7248  226.4768 H   0  0  0  0  0  0  0  0  0  0  0  0
  131.6497   71.3508  227.4261 H   0  0  0  0  0  0  0  0  0  0  0  0
  130.4702   73.4051  228.2270 H   0  0  0  0  0  0  0  0  0  0  0  0
  130.4308   75.8694  228.4492 H   0  0  0  0  0  0  0  0  0  0  0  0
  131.5177   78.0887  228.0401 H   0  0  0  0  0  0  0  0  0  0  0  0
  133.7013   78.1501  226.8663 H   0  0  0  0  0  0  0  0  0  0  0  0
  134.8105   76.0730  226.0941 H   0  0  0  0  0  0  0  0  0  0  0  0
  1  2  2  0
  2  3  1  0
  3  4  1  0
  4  5  1  0
  5  6  2  0
  5  7  1  0
  7  8  1  0
  8  9  1  0
  9 10  1  0
 10 11  1  0
 11 12  1  0
 12 13  1  0
 13 14  1  0
 14 15  2  0
 15 16  1  0
 16 17  2  0
 17 18  1  0
 18 19  2  0
  2 20  1  0
 20 21  2  0
 21 22  1  0
 22 23  2  0
 23 24  1  0
 24 25  2  0
 25 26  1  0
 26 27  2  0
 27 28  1  0
 28 29  2  0
 12  7  1  0
 19 14  1  0
 29 20  1  0
 28 23  1  0
  3 30  1  0
  4 31  1  0
  4 32  1  0
  8 33  1  0
  8 34  1  0
  9 35  1  0
  9 36  1  0
 10 37  1  0
 10 38  1  0
 11 39  1  0
 11 40  1  0
 12 41  1  1
 13 42  1  0
 13 43  1  0
 15 44  1  0
 16 45  1  0
 17 46  1  0
 18 47  1  0
 19 48  1  0
 21 49  1  0
 22 50  1  0
 24 51  1  0
 25 52  1  0
 26 53  1  0
 27 54  1  0
M  END
>  <smiles>  (55) 
O=C(NCC(=O)N1CCCCC1Cc1ccccc1)c1ccc2ccccc2n1

>  <score_type>  (55) 
oracle

>  <origin>  (55) 
autodockgpu

>  <m_score__min__energy>  (55) 
-9.6199999999999992

>  <m_primary>  (55) 
energy

>  <rmsd>  (55) 
8.391249112081503

>  <m_score__min__rmsd>  (55) 
8.391249112081503

>  <meeko>  (55) 
{"free_energy": -8.17, "intermolecular_energy": -9.96, "internal_energy": -2.18, "cluster_size": 1, "cluster_id": 5, "rank_in_cluster": 1}

>  <energy>  (55) 
-9.02

>  <cluster_rmsd>  (55) 
1.29

>  <cluster>  (55) 
1

$$$$

     RDKit          3D

 54 57  0  0  0  0  0  0  0  0999 V2000
  140.3570   71.2220  221.2040 O   0  0  0  0  0  0  0  0  0  0  0  0
  139.9940   71.8530  222.2460 C   0  0  0  0  0  0  0  0  0  0  0  0
  139.6050   73.2220  222.2140 N   0  0  0  0  0  0  0  0  0  0  0  0
  139.6120   73.9560  220.9650 C   0  0  0  0  0  0  0  0  0  0  0  0
  140.2160   75.2900  221.2610 C   0  0  0  0  0  0  0  0  0  0  0  0
  140.1830   75.8030  222.3920 O   0  0  0  0  0  0  0  0  0  0  0  0
  140.8620   76.0240  220.2210 N   0  0  0  0  0  0  0  0  0  0  0  0
  140.5150   75.7480  218.8440 C   0  0  0  0  0  0  0  0  0  0  0  0
  141.7480   75.5590  217.9860 C   0  0  0  0  0  0  0  0  0  0  0  0
  142.7350   76.7000  218.1920 C   0  0  0  0  0  0  0  0  0  0  0  0
  143.0610   76.7500  219.6630 C   0  0  0  0  0  0  0  0  0  0  0  0
  141.8670   77.0460  220.5180 C   0  0  1  0  0  0  0  0  0  0  0  0
  141.3430   78.4400  220.3950 C   0  0  0  0  0  0  0  0  0  0  0  0
  141.6130   79.2990  221.5760 C   0  0  0  0  0  0  0  0  0  0  0  0
  141.8830   78.7950  222.8320 C   0  0  0  0  0  0  0  0  0  0  0  0
  142.1350   79.6000  223.9290 C   0  0  0  0  0  0  0  0  0  0  0  0
  142.1170   80.9600  223.7770 C   0  0  0  0  0  0  0  0  0  0  0  0
  141.8490   81.4930  222.5360 C   0  0  0  0  0  0  0  0  0  0  0  0
  141.5970   80.6920  221.4340 C   0  0  0  0  0  0  0  0  0  0  0  0
  139.9660   71.1570  223.5440 C   0  0  0  0  0  0  0  0  0  0  0  0
  139.4220   69.8950  223.6560 C   0  0  0  0  0  0  0  0  0  0  0  0
  139.4100   69.2600  224.9040 C   0  0  0  0  0  0  0  0  0  0  0  0
  139.9380   69.8850  226.0130 C   0  0  0  0  0  0  0  0  0  0  0  0
  139.9590   69.3170  227.2690 C   0  0  0  0  0  0  0  0  0  0  0  0
  140.5050   69.9890  228.3690 C   0  0  0  0  0  0  0  0  0  0  0  0
  141.0280   71.2520  228.1600 C   0  0  0  0  0  0  0  0  0  0  0  0
  141.0270   71.8560  226.9240 C   0  0  0  0  0  0  0  0  0  0  0  0
  140.4740   71.1440  225.8670 C   0  0  0  0  0  0  0  0  0  0  0  0
  140.4750   71.7380  224.6620 N   0  0  0  0  0  0  0  0  0  0  0  0
  139.3170   73.6840  223.0970 H   0  0  0  0  0  0  0  0  0  0  0  0
  140.2151   73.4237  220.2147 H   0  0  0  0  0  0  0  0  0  0  0  0
  138.5950   74.0608  220.5592 H   0  0  0  0  0  0  0  0  0  0  0  0
  139.9092   74.8307  218.8054 H   0  0  0  0  0  0  0  0  0  0  0  0
  139.9514   76.6076  218.4521 H   0  0  0  0  0  0  0  0  0  0  0  0
  142.2333   74.6099  218.2574 H   0  0  0  0  0  0  0  0  0  0  0  0
  141.4418   75.5464  216.9295 H   0  0  0  0  0  0  0  0  0  0  0  0
  143.6499   76.5162  217.6096 H   0  0  0  0  0  0  0  0  0  0  0  0
  142.3031   77.6542  217.8560 H   0  0  0  0  0  0  0  0  0  0  0  0
  143.4745   75.7760  219.9636 H   0  0  0  0  0  0  0  0  0  0  0  0
  143.7828   77.5665  219.8122 H   0  0  0  0  0  0  0  0  0  0  0  0
  142.1640   77.0001  221.5762 H   0  0  0  0  0  0  0  0  0  0  0  0
  141.8091   78.9072  219.5150 H   0  0  0  0  0  0  0  0  0  0  0  0
  140.2495   78.3596  220.3064 H   0  0  0  0  0  0  0  0  0  0  0  0
  141.8986   77.7035  222.9673 H   0  0  0  0  0  0  0  0  0  0  0  0
  142.3472   79.1523  224.9111 H   0  0  0  0  0  0  0  0  0  0  0  0
  142.3142   81.6190  224.6354 H   0  0  0  0  0  0  0  0  0  0  0  0
  141.8346   82.5863  222.4161 H   0  0  0  0  0  0  0  0  0  0  0  0
  141.3859   81.1468  220.4549 H   0  0  0  0  0  0  0  0  0  0  0  0
  139.0013   69.3916  222.7731 H   0  0  0  0  0  0  0  0  0  0  0  0
  138.9755   68.2540  225.0000 H   0  0  0  0  0  0  0  0  0  0  0  0
  139.5364   68.3113  227.4102 H   0  0  0  0  0  0  0  0  0  0  0  0
  140.5176   69.5273  229.3673 H   0  0  0  0  0  0  0  0  0  0  0  0
  141.4609   71.7938  229.0138 H   0  0  0  0  0  0  0  0  0  0  0  0
  141.4471   72.8621  226.7785 H   0  0  0  0  0  0  0  0  0  0  0  0
  1  2  2  0
  2  3  1  0
  3  4  1  0
  4  5  1  0
  5  6  2  0
  5  7  1  0
  7  8  1  0
  8  9  1  0
  9 10  1  0
 10 11  1  0
 11 12  1  0
 12 13  1  0
 13 14  1  0
 14 15  2  0
 15 16  1  0
 16 17  2  0
 17 18  1  0
 18 19  2  0
  2 20  1  0
 20 21  2  0
 21 22  1  0
 22 23  2  0
 23 24  1  0
 24 25  2  0
 25 26  1  0
 26 27  2  0
 27 28  1  0
 28 29  2  0
 12  7  1  0
 19 14  1  0
 29 20  1  0
 28 23  1  0
  3 30  1  0
  4 31  1  0
  4 32  1  0
  8 33  1  0
  8 34  1  0
  9 35  1  0
  9 36  1  0
 10 37  1  0
 10 38  1  0
 11 39  1  0
 11 40  1  0
 12 41  1  1
 13 42  1  0
 13 43  1  0
 15 44  1  0
 16 45  1  0
 17 46  1  0
 18 47  1  0
 19 48  1  0
 21 49  1  0
 22 50  1  0
 24 51  1  0
 25 52  1  0
 26 53  1  0
 27 54  1  0
M  END
>  <smiles>  (56) 
O=C(NCC(=O)N1CCCCC1Cc1ccccc1)c1ccc2ccccc2n1

>  <score_type>  (56) 
oracle

>  <origin>  (56) 
autodockgpu

>  <m_score__min__energy>  (56) 
-9.6199999999999992

>  <m_primary>  (56) 
energy

>  <rmsd>  (56) 
1.5542445856274547

>  <m_score__min__rmsd>  (56) 
1.5542445856274547

>  <meeko>  (56) 
{"free_energy": -9.29, "intermolecular_energy": -11.08, "internal_energy": -1.81, "cluster_size": 17, "cluster_id": 2, "rank_in_cluster": 3}

>  <energy>  (56) 
-8.99

>  <cluster_rmsd>  (56) 
1.27

>  <cluster>  (56) 
1

$$$$

     RDKit          3D

 54 57  0  0  0  0  0  0  0  0999 V2000
  139.9380   71.1140  221.1320 O   0  0  0  0  0  0  0  0  0  0  0  0
  139.8950   71.8100  222.1950 C   0  0  0  0  0  0  0  0  0  0  0  0
  139.8640   73.2330  222.1750 N   0  0  0  0  0  0  0  0  0  0  0  0
  139.8820   73.9480  220.9160 C   0  0  0  0  0  0  0  0  0  0  0  0
  140.5070   75.2770  221.1910 C   0  0  0  0  0  0  0  0  0  0  0  0
  140.7240   75.6880  222.3430 O   0  0  0  0  0  0  0  0  0  0  0  0
  140.8780   76.1260  220.1060 N   0  0  0  0  0  0  0  0  0  0  0  0
  140.3350   75.8660  218.7900 C   0  0  0  0  0  0  0  0  0  0  0  0
  141.4160   75.8640  217.7310 C   0  0  0  0  0  0  0  0  0  0  0  0
  142.2890   77.1080  217.8400 C   0  0  0  0  0  0  0  0  0  0  0  0
  142.8530   77.1370  219.2380 C   0  0  0  0  0  0  0  0  0  0  0  0
  141.7970   77.2500  220.2950 C   0  0  1  0  0  0  0  0  0  0  0  0
  141.1050   78.5740  220.3440 C   0  0  0  0  0  0  0  0  0  0  0  0
  141.4610   79.4040  221.5240 C   0  0  0  0  0  0  0  0  0  0  0  0
  141.4960   80.7830  221.4940 C   0  0  0  0  0  0  0  0  0  0  0  0
  141.8270   81.5520  222.5970 C   0  0  0  0  0  0  0  0  0  0  0  0
  142.1370   80.9300  223.7760 C   0  0  0  0  0  0  0  0  0  0  0  0
  142.1110   79.5540  223.8360 C   0  0  0  0  0  0  0  0  0  0  0  0
  141.7800   78.7790  222.7360 C   0  0  0  0  0  0  0  0  0  0  0  0
  139.8740   71.1370  223.5050 C   0  0  0  0  0  0  0  0  0  0  0  0
  139.3200   69.8820  223.6450 C   0  0  0  0  0  0  0  0  0  0  0  0
  139.3150   69.2680  224.9040 C   0  0  0  0  0  0  0  0  0  0  0  0
  139.8590   69.9080  225.9960 C   0  0  0  0  0  0  0  0  0  0  0  0
  139.8880   69.3610  227.2610 C   0  0  0  0  0  0  0  0  0  0  0  0
  140.4510   70.0470  228.3440 C   0  0  0  0  0  0  0  0  0  0  0  0
  140.9820   71.3020  228.1080 C   0  0  0  0  0  0  0  0  0  0  0  0
  140.9750   71.8850  226.8620 C   0  0  0  0  0  0  0  0  0  0  0  0
  140.4040   71.1600  225.8230 C   0  0  0  0  0  0  0  0  0  0  0  0
  140.3990   71.7330  224.6080 N   0  0  0  0  0  0  0  0  0  0  0  0
  139.8290   73.7480  223.0750 H   0  0  0  0  0  0  0  0  0  0  0  0
  140.4762   73.3951  220.1736 H   0  0  0  0  0  0  0  0  0  0  0  0
  138.8663   74.0628  220.5095 H   0  0  0  0  0  0  0  0  0  0  0  0
  139.8396   74.8839  218.7960 H   0  0  0  0  0  0  0  0  0  0  0  0
  139.6194   76.6659  218.5492 H   0  0  0  0  0  0  0  0  0  0  0  0
  142.0448   74.9707  217.8604 H   0  0  0  0  0  0  0  0  0  0  0  0
  140.9368   75.8576  216.7409 H   0  0  0  0  0  0  0  0  0  0  0  0
  143.1061   77.0604  217.1051 H   0  0  0  0  0  0  0  0  0  0  0  0
  141.7016   78.0157  217.6374 H   0  0  0  0  0  0  0  0  0  0  0  0
  143.4192   76.2091  219.4065 H   0  0  0  0  0  0  0  0  0  0  0  0
  143.4920   78.0290  219.3157 H   0  0  0  0  0  0  0  0  0  0  0  0
  142.2735   77.1973  221.2850 H   0  0  0  0  0  0  0  0  0  0  0  0
  141.3689   79.1350  219.4354 H   0  0  0  0  0  0  0  0  0  0  0  0
  140.0276   78.3650  220.4180 H   0  0  0  0  0  0  0  0  0  0  0  0
  141.2500   81.2944  220.5517 H   0  0  0  0  0  0  0  0  0  0  0  0
  141.8406   82.6497  222.5264 H   0  0  0  0  0  0  0  0  0  0  0  0
  142.4035   81.5213  224.6644 H   0  0  0  0  0  0  0  0  0  0  0  0
  142.3602   79.0560  224.7846 H   0  0  0  0  0  0  0  0  0  0  0  0
  141.7679   77.6818  222.8141 H   0  0  0  0  0  0  0  0  0  0  0  0
  138.8856   69.3674  222.7753 H   0  0  0  0  0  0  0  0  0  0  0  0
  138.8735   68.2674  225.0217 H   0  0  0  0  0  0  0  0  0  0  0  0
  139.4585   68.3615  227.4235 H   0  0  0  0  0  0  0  0  0  0  0  0
  140.4704   69.6022  229.3499 H   0  0  0  0  0  0  0  0  0  0  0  0
  141.4268   71.8550  228.9485 H   0  0  0  0  0  0  0  0  0  0  0  0
  141.4038   72.8841  226.6950 H   0  0  0  0  0  0  0  0  0  0  0  0
  1  2  2  0
  2  3  1  0
  3  4  1  0
  4  5  1  0
  5  6  2  0
  5  7  1  0
  7  8  1  0
  8  9  1  0
  9 10  1  0
 10 11  1  0
 11 12  1  0
 12 13  1  0
 13 14  1  0
 14 15  2  0
 15 16  1  0
 16 17  2  0
 17 18  1  0
 18 19  2  0
  2 20  1  0
 20 21  2  0
 21 22  1  0
 22 23  2  0
 23 24  1  0
 24 25  2  0
 25 26  1  0
 26 27  2  0
 27 28  1  0
 28 29  2  0
 12  7  1  0
 19 14  1  0
 29 20  1  0
 28 23  1  0
  3 30  1  0
  4 31  1  0
  4 32  1  0
  8 33  1  0
  8 34  1  0
  9 35  1  0
  9 36  1  0
 10 37  1  0
 10 38  1  0
 11 39  1  0
 11 40  1  0
 12 41  1  1
 13 42  1  0
 13 43  1  0
 15 44  1  0
 16 45  1  0
 17 46  1  0
 18 47  1  0
 19 48  1  0
 21 49  1  0
 22 50  1  0
 24 51  1  0
 25 52  1  0
 26 53  1  0
 27 54  1  0
M  END
>  <smiles>  (57) 
O=C(NCC(=O)N1CCCCC1Cc1ccccc1)c1ccc2ccccc2n1

>  <score_type>  (57) 
oracle

>  <origin>  (57) 
autodockgpu

>  <m_score__min__energy>  (57) 
-9.6199999999999992

>  <m_primary>  (57) 
energy

>  <rmsd>  (57) 
1.5314212387716708

>  <m_score__min__rmsd>  (57) 
1.5314212387716708

>  <meeko>  (57) 
{"free_energy": -9.05, "intermolecular_energy": -10.84, "internal_energy": -2.05, "cluster_size": 17, "cluster_id": 2, "rank_in_cluster": 12}

>  <energy>  (57) 
-8.98

>  <cluster_rmsd>  (57) 
1.29

>  <cluster>  (57) 
1

$$$$

     RDKit          3D

 54 57  0  0  0  0  0  0  0  0999 V2000
  141.3040   71.5350  221.4660 O   0  0  0  0  0  0  0  0  0  0  0  0
  140.6550   72.1120  222.3950 C   0  0  0  0  0  0  0  0  0  0  0  0
  140.2260   73.4660  222.3000 N   0  0  0  0  0  0  0  0  0  0  0  0
  140.5240   74.2470  221.1170 C   0  0  0  0  0  0  0  0  0  0  0  0
  140.6030   75.6710  221.5580 C   0  0  0  0  0  0  0  0  0  0  0  0
  140.0300   76.0890  222.5770 O   0  0  0  0  0  0  0  0  0  0  0  0
  141.3620   76.6100  220.7950 N   0  0  0  0  0  0  0  0  0  0  0  0
  141.4490   77.9800  221.2510 C   0  0  0  0  0  0  0  0  0  0  0  0
  141.1590   78.9590  220.1320 C   0  0  0  0  0  0  0  0  0  0  0  0
  141.9820   78.6310  218.8940 C   0  0  0  0  0  0  0  0  0  0  0  0
  141.6660   77.2080  218.5100 C   0  0  0  0  0  0  0  0  0  0  0  0
  142.0500   76.2160  219.5650 C   0  0  1  0  0  0  0  0  0  0  0  0
  143.5230   76.0380  219.7450 C   0  0  0  0  0  0  0  0  0  0  0  0
  143.9480   74.6280  219.9350 C   0  0  0  0  0  0  0  0  0  0  0  0
  143.2630   73.5540  219.4040 C   0  0  0  0  0  0  0  0  0  0  0  0
  143.6640   72.2420  219.5830 C   0  0  0  0  0  0  0  0  0  0  0  0
  144.7890   71.9820  220.3180 C   0  0  0  0  0  0  0  0  0  0  0  0
  145.4940   73.0330  220.8610 C   0  0  0  0  0  0  0  0  0  0  0  0
  145.0970   74.3490  220.6850 C   0  0  0  0  0  0  0  0  0  0  0  0
  140.3240   71.3670  223.6210 C   0  0  0  0  0  0  0  0  0  0  0  0
  139.6270   70.1780  223.5580 C   0  0  0  0  0  0  0  0  0  0  0  0
  139.3280   69.4930  224.7420 C   0  0  0  0  0  0  0  0  0  0  0  0
  139.7240   69.9970  225.9620 C   0  0  0  0  0  0  0  0  0  0  0  0
  139.4620   69.3740  227.1640 C   0  0  0  0  0  0  0  0  0  0  0  0
  139.8840   69.9220  228.3810 C   0  0  0  0  0  0  0  0  0  0  0  0
  140.5770   71.1180  228.3450 C   0  0  0  0  0  0  0  0  0  0  0  0
  140.8590   71.7740  227.1690 C   0  0  0  0  0  0  0  0  0  0  0  0
  140.4180   71.1850  225.9910 C   0  0  0  0  0  0  0  0  0  0  0  0
  140.6960   71.8290  224.8440 N   0  0  0  0  0  0  0  0  0  0  0  0
  139.6990   73.8830  223.0900 H   0  0  0  0  0  0  0  0  0  0  0  0
  141.4840   73.9295  220.6839 H   0  0  0  0  0  0  0  0  0  0  0  0
  139.7513   74.1117  220.3459 H   0  0  0  0  0  0  0  0  0  0  0  0
  140.7186   78.1345  222.0589 H   0  0  0  0  0  0  0  0  0  0  0  0
  142.4737   78.1595  221.6086 H   0  0  0  0  0  0  0  0  0  0  0  0
  140.0901   78.9081  219.8774 H   0  0  0  0  0  0  0  0  0  0  0  0
  141.4259   79.9702  220.4728 H   0  0  0  0  0  0  0  0  0  0  0  0
  141.7134   79.3112  218.0723 H   0  0  0  0  0  0  0  0  0  0  0  0
  143.0564   78.7501  219.0977 H   0  0  0  0  0  0  0  0  0  0  0  0
  140.5840   77.1260  218.3295 H   0  0  0  0  0  0  0  0  0  0  0  0
  142.2525   76.9731  217.6095 H   0  0  0  0  0  0  0  0  0  0  0  0
  141.7299   75.2125  219.2478 H   0  0  0  0  0  0  0  0  0  0  0  0
  144.0297   76.4335  218.8523 H   0  0  0  0  0  0  0  0  0  0  0  0
  143.7960   76.5766  220.6645 H   0  0  0  0  0  0  0  0  0  0  0  0
  142.3571   73.7500  218.8116 H   0  0  0  0  0  0  0  0  0  0  0  0
  143.0857   71.4178  219.1400 H   0  0  0  0  0  0  0  0  0  0  0  0
  145.1258   70.9464  220.4730 H   0  0  0  0  0  0  0  0  0  0  0  0
  146.3979   72.8219  221.4512 H   0  0  0  0  0  0  0  0  0  0  0  0
  145.6801   75.1682  221.1311 H   0  0  0  0  0  0  0  0  0  0  0  0
  139.3091   69.7719  222.5864 H   0  0  0  0  0  0  0  0  0  0  0  0
  138.7724   68.5446  224.6980 H   0  0  0  0  0  0  0  0  0  0  0  0
  138.9081   68.4236  227.1665 H   0  0  0  0  0  0  0  0  0  0  0  0
  139.6712   69.4175  229.3351 H   0  0  0  0  0  0  0  0  0  0  0  0
  140.9157   71.5619  229.2928 H   0  0  0  0  0  0  0  0  0  0  0  0
  141.4108   72.7255  227.1620 H   0  0  0  0  0  0  0  0  0  0  0  0
  1  2  2  0
  2  3  1  0
  3  4  1  0
  4  5  1  0
  5  6  2  0
  5  7  1  0
  7  8  1  0
  8  9  1  0
  9 10  1  0
 10 11  1  0
 11 12  1  0
 12 13  1  0
 13 14  1  0
 14 15  2  0
 15 16  1  0
 16 17  2  0
 17 18  1  0
 18 19  2  0
  2 20  1  0
 20 21  2  0
 21 22  1  0
 22 23  2  0
 23 24  1  0
 24 25  2  0
 25 26  1  0
 26 27  2  0
 27 28  1  0
 28 29  2  0
 12  7  1  0
 19 14  1  0
 29 20  1  0
 28 23  1  0
  3 30  1  0
  4 31  1  0
  4 32  1  0
  8 33  1  0
  8 34  1  0
  9 35  1  0
  9 36  1  0
 10 37  1  0
 10 38  1  0
 11 39  1  0
 11 40  1  0
 12 41  1  6
 13 42  1  0
 13 43  1  0
 15 44  1  0
 16 45  1  0
 17 46  1  0
 18 47  1  0
 19 48  1  0
 21 49  1  0
 22 50  1  0
 24 51  1  0
 25 52  1  0
 26 53  1  0
 27 54  1  0
M  END
>  <smiles>  (58) 
O=C(NCC(=O)N1CCCCC1Cc1ccccc1)c1ccc2ccccc2n1

>  <score_type>  (58) 
oracle

>  <origin>  (58) 
autodockgpu

>  <m_score__min__energy>  (58) 
-9.6199999999999992

>  <m_primary>  (58) 
energy

>  <rmsd>  (58) 
2.613401410917087

>  <m_score__min__rmsd>  (58) 
2.613401410917087

>  <meeko>  (58) 
{"free_energy": -8.78, "intermolecular_energy": -10.57, "internal_energy": -2.28, "cluster_size": 8, "cluster_id": 4, "rank_in_cluster": 6}

>  <energy>  (58) 
-8.94

>  <cluster_rmsd>  (58) 
1.3

>  <cluster>  (58) 
1

$$$$

     RDKit          3D

 54 57  0  0  0  0  0  0  0  0999 V2000
  137.0190   76.2440  222.4090 O   0  0  0  0  0  0  0  0  0  0  0  0
  138.2860   76.3360  222.4500 C   0  0  0  0  0  0  0  0  0  0  0  0
  139.1410   75.2210  222.2230 N   0  0  0  0  0  0  0  0  0  0  0  0
  138.5810   73.9160  221.9350 C   0  0  0  0  0  0  0  0  0  0  0  0
  139.6420   72.9170  222.2640 C   0  0  0  0  0  0  0  0  0  0  0  0
  140.8340   73.2310  222.4130 O   0  0  0  0  0  0  0  0  0  0  0  0
  139.2970   71.5410  222.4210 N   0  0  0  0  0  0  0  0  0  0  0  0
  139.3350   70.6700  221.2660 C   0  0  0  0  0  0  0  0  0  0  0  0
  138.0700   69.8470  221.1480 C   0  0  0  0  0  0  0  0  0  0  0  0
  137.7390   69.1630  222.4680 C   0  0  0  0  0  0  0  0  0  0  0  0
  137.6280   70.2420  223.5150 C   0  0  0  0  0  0  0  0  0  0  0  0
  138.9060   70.9940  223.7210 C   0  0  1  0  0  0  0  0  0  0  0  0
  139.9920   70.2060  224.3790 C   0  0  0  0  0  0  0  0  0  0  0  0
  140.3290   70.6610  225.7530 C   0  0  0  0  0  0  0  0  0  0  0  0
  139.9390   69.9830  226.8900 C   0  0  0  0  0  0  0  0  0  0  0  0
  140.2560   70.4110  228.1680 C   0  0  0  0  0  0  0  0  0  0  0  0
  140.9890   71.5560  228.3260 C   0  0  0  0  0  0  0  0  0  0  0  0
  141.3930   72.2540  227.2090 C   0  0  0  0  0  0  0  0  0  0  0  0
  141.0780   71.8310  225.9280 C   0  0  0  0  0  0  0  0  0  0  0  0
  138.9120   77.6380  222.7380 C   0  0  0  0  0  0  0  0  0  0  0  0
  138.1390   78.7480  223.0070 C   0  0  0  0  0  0  0  0  0  0  0  0
  138.7640   79.9720  223.2780 C   0  0  0  0  0  0  0  0  0  0  0  0
  140.1380   80.0710  223.2770 C   0  0  0  0  0  0  0  0  0  0  0  0
  140.8160   81.2440  223.5360 C   0  0  0  0  0  0  0  0  0  0  0  0
  142.2150   81.3000  223.5250 C   0  0  0  0  0  0  0  0  0  0  0  0
  142.9050   80.1350  223.2450 C   0  0  0  0  0  0  0  0  0  0  0  0
  142.2700   78.9440  222.9810 C   0  0  0  0  0  0  0  0  0  0  0  0
  140.8810   78.9450  223.0060 C   0  0  0  0  0  0  0  0  0  0  0  0
  140.2640   77.7800  222.7480 N   0  0  0  0  0  0  0  0  0  0  0  0
  140.1690   75.3560  222.2680 H   0  0  0  0  0  0  0  0  0  0  0  0
  137.6887   73.7404  222.5538 H   0  0  0  0  0  0  0  0  0  0  0  0
  138.2746   73.8384  220.8814 H   0  0  0  0  0  0  0  0  0  0  0  0
  139.4480   71.2832  220.3598 H   0  0  0  0  0  0  0  0  0  0  0  0
  140.1846   69.9810  221.3820 H   0  0  0  0  0  0  0  0  0  0  0  0
  137.2364   70.5070  220.8658 H   0  0  0  0  0  0  0  0  0  0  0  0
  138.2253   69.0734  220.3816 H   0  0  0  0  0  0  0  0  0  0  0  0
  136.7854   68.6213  222.3828 H   0  0  0  0  0  0  0  0  0  0  0  0
  138.5200   68.4369  222.7376 H   0  0  0  0  0  0  0  0  0  0  0  0
  136.8494   70.9537  223.2031 H   0  0  0  0  0  0  0  0  0  0  0  0
  137.3793   69.7507  224.4673 H   0  0  0  0  0  0  0  0  0  0  0  0
  138.7328   71.8043  224.4444 H   0  0  0  0  0  0  0  0  0  0  0  0
  139.6714   69.1551  224.4327 H   0  0  0  0  0  0  0  0  0  0  0  0
  140.8970   70.3454  223.7694 H   0  0  0  0  0  0  0  0  0  0  0  0
  139.3498   69.0611  226.7758 H   0  0  0  0  0  0  0  0  0  0  0  0
  139.9228   69.8378  229.0457 H   0  0  0  0  0  0  0  0  0  0  0  0
  141.2522   71.9144  229.3321 H   0  0  0  0  0  0  0  0  0  0  0  0
  141.9826   73.1736  227.3380 H   0  0  0  0  0  0  0  0  0  0  0  0
  141.4137   72.4099  225.0550 H   0  0  0  0  0  0  0  0  0  0  0  0
  137.0416   78.6729  223.0087 H   0  0  0  0  0  0  0  0  0  0  0  0
  138.1529   80.8610  223.4933 H   0  0  0  0  0  0  0  0  0  0  0  0
  140.2439   82.1573  223.7565 H   0  0  0  0  0  0  0  0  0  0  0  0
  142.7476   82.2399  223.7323 H   0  0  0  0  0  0  0  0  0  0  0  0
  144.0046   80.1618  223.2329 H   0  0  0  0  0  0  0  0  0  0  0  0
  142.8383   78.0287  222.7593 H   0  0  0  0  0  0  0  0  0  0  0  0
  1  2  2  0
  2  3  1  0
  3  4  1  0
  4  5  1  0
  5  6  2  0
  5  7  1  0
  7  8  1  0
  8  9  1  0
  9 10  1  0
 10 11  1  0
 11 12  1  0
 12 13  1  0
 13 14  1  0
 14 15  2  0
 15 16  1  0
 16 17  2  0
 17 18  1  0
 18 19  2  0
  2 20  1  0
 20 21  2  0
 21 22  1  0
 22 23  2  0
 23 24  1  0
 24 25  2  0
 25 26  1  0
 26 27  2  0
 27 28  1  0
 28 29  2  0
 12  7  1  0
 19 14  1  0
 29 20  1  0
 28 23  1  0
  3 30  1  0
  4 31  1  0
  4 32  1  0
  8 33  1  0
  8 34  1  0
  9 35  1  0
  9 36  1  0
 10 37  1  0
 10 38  1  0
 11 39  1  0
 11 40  1  0
 12 41  1  1
 13 42  1  0
 13 43  1  0
 15 44  1  0
 16 45  1  0
 17 46  1  0
 18 47  1  0
 19 48  1  0
 21 49  1  0
 22 50  1  0
 24 51  1  0
 25 52  1  0
 26 53  1  0
 27 54  1  0
M  END
>  <smiles>  (59) 
O=C(NCC(=O)N1CCCCC1Cc1ccccc1)c1ccc2ccccc2n1

>  <score_type>  (59) 
oracle

>  <origin>  (59) 
autodockgpu

>  <m_score__min__energy>  (59) 
-9.6199999999999992

>  <m_primary>  (59) 
energy

>  <rmsd>  (59) 
8.302608912364049

>  <m_score__min__rmsd>  (59) 
8.302608912364049

>  <meeko>  (59) 
{"free_energy": -8.94, "intermolecular_energy": -10.73, "internal_energy": -2.21, "cluster_size": 23, "cluster_id": 1, "rank_in_cluster": 11}

>  <energy>  (59) 
-8.94

>  <cluster_rmsd>  (59) 
1.3

>  <cluster>  (59) 
1

$$$$

     RDKit          3D

 54 57  0  0  0  0  0  0  0  0999 V2000
  137.3660   76.0060  222.3760 O   0  0  0  0  0  0  0  0  0  0  0  0
  138.6220   76.1960  222.3760 C   0  0  0  0  0  0  0  0  0  0  0  0
  139.5540   75.1550  222.1050 N   0  0  0  0  0  0  0  0  0  0  0  0
  139.0880   73.8140  221.8150 C   0  0  0  0  0  0  0  0  0  0  0  0
  140.2320   72.8970  222.1010 C   0  0  0  0  0  0  0  0  0  0  0  0
  141.4130   73.2100  221.8770 O   0  0  0  0  0  0  0  0  0  0  0  0
  139.9850   71.6030  222.6520 N   0  0  0  0  0  0  0  0  0  0  0  0
  139.8870   70.4660  221.7640 C   0  0  0  0  0  0  0  0  0  0  0  0
  138.6610   69.6290  222.0640 C   0  0  0  0  0  0  0  0  0  0  0  0
  138.5740   69.3040  223.5490 C   0  0  0  0  0  0  0  0  0  0  0  0
  138.5720   70.6140  224.2940 C   0  0  0  0  0  0  0  0  0  0  0  0
  139.8280   71.4050  224.0940 C   0  0  1  0  0  0  0  0  0  0  0  0
  141.0410   70.8220  224.7440 C   0  0  0  0  0  0  0  0  0  0  0  0
  140.7660   70.1040  226.0150 C   0  0  0  0  0  0  0  0  0  0  0  0
  140.3070   70.7330  227.1540 C   0  0  0  0  0  0  0  0  0  0  0  0
  140.0520   70.0590  228.3360 C   0  0  0  0  0  0  0  0  0  0  0  0
  140.2600   68.7080  228.3920 C   0  0  0  0  0  0  0  0  0  0  0  0
  140.7180   68.0520  227.2710 C   0  0  0  0  0  0  0  0  0  0  0  0
  140.9750   68.7220  226.0850 C   0  0  0  0  0  0  0  0  0  0  0  0
  139.1540   77.5400  222.6630 C   0  0  0  0  0  0  0  0  0  0  0  0
  138.3030   78.6040  222.8800 C   0  0  0  0  0  0  0  0  0  0  0  0
  138.8400   79.8690  223.1510 C   0  0  0  0  0  0  0  0  0  0  0  0
  140.2040   80.0540  223.2030 C   0  0  0  0  0  0  0  0  0  0  0  0
  140.7960   81.2710  223.4660 C   0  0  0  0  0  0  0  0  0  0  0  0
  142.1880   81.4150  223.5090 C   0  0  0  0  0  0  0  0  0  0  0  0
  142.9610   80.2910  223.2790 C   0  0  0  0  0  0  0  0  0  0  0  0
  142.4120   79.0580  223.0140 C   0  0  0  0  0  0  0  0  0  0  0  0
  141.0250   78.9720  222.9830 C   0  0  0  0  0  0  0  0  0  0  0  0
  140.4930   77.7660  222.7240 N   0  0  0  0  0  0  0  0  0  0  0  0
  140.5680   75.3700  222.1190 H   0  0  0  0  0  0  0  0  0  0  0  0
  138.2301   73.5628  222.4560 H   0  0  0  0  0  0  0  0  0  0  0  0
  138.7580   73.7247  220.7695 H   0  0  0  0  0  0  0  0  0  0  0  0
  139.8277   70.8272  220.7267 H   0  0  0  0  0  0  0  0  0  0  0  0
  140.7775   69.8371  221.9104 H   0  0  0  0  0  0  0  0  0  0  0  0
  137.7618   70.1873  221.7644 H   0  0  0  0  0  0  0  0  0  0  0  0
  138.7334   68.6862  221.5019 H   0  0  0  0  0  0  0  0  0  0  0  0
  137.6476   68.7496  223.7595 H   0  0  0  0  0  0  0  0  0  0  0  0
  139.4234   68.6789  223.8617 H   0  0  0  0  0  0  0  0  0  0  0  0
  137.7201   71.2150  223.9433 H   0  0  0  0  0  0  0  0  0  0  0  0
  138.4979   70.3815  225.3666 H   0  0  0  0  0  0  0  0  0  0  0  0
  139.7289   72.3722  224.6085 H   0  0  0  0  0  0  0  0  0  0  0  0
  141.5023   70.1133  224.0404 H   0  0  0  0  0  0  0  0  0  0  0  0
  141.7013   71.6654  224.9943 H   0  0  0  0  0  0  0  0  0  0  0  0
  140.1360   71.8191  227.1214 H   0  0  0  0  0  0  0  0  0  0  0  0
  139.6866   70.6031  229.2194 H   0  0  0  0  0  0  0  0  0  0  0  0
  140.0638   68.1525  229.3209 H   0  0  0  0  0  0  0  0  0  0  0  0
  140.8846   66.9657  227.3181 H   0  0  0  0  0  0  0  0  0  0  0  0
  141.3405   68.1716  225.2055 H   0  0  0  0  0  0  0  0  0  0  0  0
  137.2131   78.4603  222.8406 H   0  0  0  0  0  0  0  0  0  0  0  0
  138.1669   80.7217  223.3237 H   0  0  0  0  0  0  0  0  0  0  0  0
  140.1595   82.1498  223.6464 H   0  0  0  0  0  0  0  0  0  0  0  0
  142.6519   82.3901  223.7188 H   0  0  0  0  0  0  0  0  0  0  0  0
  144.0564   80.3870  223.3092 H   0  0  0  0  0  0  0  0  0  0  0  0
  143.0446   78.1763  222.8340 H   0  0  0  0  0  0  0  0  0  0  0  0
  1  2  2  0
  2  3  1  0
  3  4  1  0
  4  5  1  0
  5  6  2  0
  5  7  1  0
  7  8  1  0
  8  9  1  0
  9 10  1  0
 10 11  1  0
 11 12  1  0
 12 13  1  0
 13 14  1  0
 14 15  2  0
 15 16  1  0
 16 17  2  0
 17 18  1  0
 18 19  2  0
  2 20  1  0
 20 21  2  0
 21 22  1  0
 22 23  2  0
 23 24  1  0
 24 25  2  0
 25 26  1  0
 26 27  2  0
 27 28  1  0
 28 29  2  0
 12  7  1  0
 19 14  1  0
 29 20  1  0
 28 23  1  0
  3 30  1  0
  4 31  1  0
  4 32  1  0
  8 33  1  0
  8 34  1  0
  9 35  1  0
  9 36  1  0
 10 37  1  0
 10 38  1  0
 11 39  1  0
 11 40  1  0
 12 41  1  1
 13 42  1  0
 13 43  1  0
 15 44  1  0
 16 45  1  0
 17 46  1  0
 18 47  1  0
 19 48  1  0
 21 49  1  0
 22 50  1  0
 24 51  1  0
 25 52  1  0
 26 53  1  0
 27 54  1  0
M  END
>  <smiles>  (60) 
O=C(NCC(=O)N1CCCCC1Cc1ccccc1)c1ccc2ccccc2n1

>  <score_type>  (60) 
oracle

>  <origin>  (60) 
autodockgpu

>  <m_score__min__energy>  (60) 
-9.6199999999999992

>  <m_primary>  (60) 
energy

>  <rmsd>  (60) 
8.298215995053255

>  <m_score__min__rmsd>  (60) 
8.298215995053255

>  <meeko>  (60) 
{"free_energy": -8.9, "intermolecular_energy": -10.69, "internal_energy": -2.11, "cluster_size": 23, "cluster_id": 1, "rank_in_cluster": 13}

>  <energy>  (60) 
-8.94

>  <cluster_rmsd>  (60) 
1.26

>  <cluster>  (60) 
1

$$$$

     RDKit          3D

 54 57  0  0  0  0  0  0  0  0999 V2000
  141.1460   71.7600  221.4070 O   0  0  0  0  0  0  0  0  0  0  0  0
  140.2990   72.1250  222.2820 C   0  0  0  0  0  0  0  0  0  0  0  0
  139.4400   73.2440  222.0930 N   0  0  0  0  0  0  0  0  0  0  0  0
  139.5060   74.0200  220.8720 C   0  0  0  0  0  0  0  0  0  0  0  0
  140.3040   75.2420  221.1880 C   0  0  0  0  0  0  0  0  0  0  0  0
  140.4270   75.6800  222.3440 O   0  0  0  0  0  0  0  0  0  0  0  0
  140.9610   75.9530  220.1390 N   0  0  0  0  0  0  0  0  0  0  0  0
  140.5840   75.6920  218.7670 C   0  0  0  0  0  0  0  0  0  0  0  0
  141.7960   75.4590  217.8910 C   0  0  0  0  0  0  0  0  0  0  0  0
  142.8280   76.5630  218.0830 C   0  0  0  0  0  0  0  0  0  0  0  0
  143.1760   76.5990  219.5490 C   0  0  0  0  0  0  0  0  0  0  0  0
  142.0070   76.9380  220.4220 C   0  0  1  0  0  0  0  0  0  0  0  0
  141.5330   78.3500  220.3070 C   0  0  0  0  0  0  0  0  0  0  0  0
  141.7360   79.1630  221.5340 C   0  0  0  0  0  0  0  0  0  0  0  0
  142.0510   80.5060  221.5070 C   0  0  0  0  0  0  0  0  0  0  0  0
  142.2370   81.2590  222.6530 C   0  0  0  0  0  0  0  0  0  0  0  0
  142.1080   80.6580  223.8760 C   0  0  0  0  0  0  0  0  0  0  0  0
  141.7940   79.3180  223.9350 C   0  0  0  0  0  0  0  0  0  0  0  0
  141.6060   78.5590  222.7900 C   0  0  0  0  0  0  0  0  0  0  0  0
  140.1870   71.3730  223.5430 C   0  0  0  0  0  0  0  0  0  0  0  0
  139.5920   70.1300  223.5730 C   0  0  0  0  0  0  0  0  0  0  0  0
  139.5000   69.4400  224.7890 C   0  0  0  0  0  0  0  0  0  0  0  0
  140.0010   69.9940  225.9470 C   0  0  0  0  0  0  0  0  0  0  0  0
  139.9440   69.3680  227.1750 C   0  0  0  0  0  0  0  0  0  0  0  0
  140.4650   69.9680  228.3280 C   0  0  0  0  0  0  0  0  0  0  0  0
  141.0440   71.2180  228.2000 C   0  0  0  0  0  0  0  0  0  0  0  0
  141.1220   71.8770  226.9950 C   0  0  0  0  0  0  0  0  0  0  0  0
  140.5900   71.2360  225.8830 C   0  0  0  0  0  0  0  0  0  0  0  0
  140.6670   71.8830  224.7080 N   0  0  0  0  0  0  0  0  0  0  0  0
  138.7680   73.4950  222.8420 H   0  0  0  0  0  0  0  0  0  0  0  0
  139.9991   73.4389  220.0788 H   0  0  0  0  0  0  0  0  0  0  0  0
  138.5000   74.2838  220.5138 H   0  0  0  0  0  0  0  0  0  0  0  0
  139.9442   74.7977  218.7365 H   0  0  0  0  0  0  0  0  0  0  0  0
  140.0469   76.5724  218.3843 H   0  0  0  0  0  0  0  0  0  0  0  0
  142.2500   74.4923  218.1545 H   0  0  0  0  0  0  0  0  0  0  0  0
  141.4738   75.4592  216.8393 H   0  0  0  0  0  0  0  0  0  0  0  0
  143.7271   76.3459  217.4876 H   0  0  0  0  0  0  0  0  0  0  0  0
  142.4275   77.5330  217.7532 H   0  0  0  0  0  0  0  0  0  0  0  0
  143.5572   75.6099  219.8428 H   0  0  0  0  0  0  0  0  0  0  0  0
  143.9292   77.3885  219.6881 H   0  0  0  0  0  0  0  0  0  0  0  0
  142.3173   76.8809  221.4758 H   0  0  0  0  0  0  0  0  0  0  0  0
  142.0778   78.8305  219.4809 H   0  0  0  0  0  0  0  0  0  0  0  0
  140.4477   78.3057  220.1334 H   0  0  0  0  0  0  0  0  0  0  0  0
  142.1592   81.0005  220.5304 H   0  0  0  0  0  0  0  0  0  0  0  0
  142.4856   82.3282  222.5819 H   0  0  0  0  0  0  0  0  0  0  0  0
  142.2532   81.2374  224.7997 H   0  0  0  0  0  0  0  0  0  0  0  0
  141.6895   78.8365  224.9185 H   0  0  0  0  0  0  0  0  0  0  0  0
  141.3566   77.4905  222.8680 H   0  0  0  0  0  0  0  0  0  0  0  0
  139.1928   69.6836  222.6503 H   0  0  0  0  0  0  0  0  0  0  0  0
  139.0243   68.4487  224.8195 H   0  0  0  0  0  0  0  0  0  0  0  0
  139.4784   68.3742  227.2502 H   0  0  0  0  0  0  0  0  0  0  0  0
  140.4155   69.4621  229.3035 H   0  0  0  0  0  0  0  0  0  0  0  0
  141.4579   71.7035  229.0961 H   0  0  0  0  0  0  0  0  0  0  0  0
  141.5866   72.8709  226.9151 H   0  0  0  0  0  0  0  0  0  0  0  0
  1  2  2  0
  2  3  1  0
  3  4  1  0
  4  5  1  0
  5  6  2  0
  5  7  1  0
  7  8  1  0
  8  9  1  0
  9 10  1  0
 10 11  1  0
 11 12  1  0
 12 13  1  0
 13 14  1  0
 14 15  2  0
 15 16  1  0
 16 17  2  0
 17 18  1  0
 18 19  2  0
  2 20  1  0
 20 21  2  0
 21 22  1  0
 22 23  2  0
 23 24  1  0
 24 25  2  0
 25 26  1  0
 26 27  2  0
 27 28  1  0
 28 29  2  0
 12  7  1  0
 19 14  1  0
 29 20  1  0
 28 23  1  0
  3 30  1  0
  4 31  1  0
  4 32  1  0
  8 33  1  0
  8 34  1  0
  9 35  1  0
  9 36  1  0
 10 37  1  0
 10 38  1  0
 11 39  1  0
 11 40  1  0
 12 41  1  1
 13 42  1  0
 13 43  1  0
 15 44  1  0
 16 45  1  0
 17 46  1  0
 18 47  1  0
 19 48  1  0
 21 49  1  0
 22 50  1  0
 24 51  1  0
 25 52  1  0
 26 53  1  0
 27 54  1  0
M  END
>  <smiles>  (61) 
O=C(NCC(=O)N1CCCCC1Cc1ccccc1)c1ccc2ccccc2n1

>  <score_type>  (61) 
oracle

>  <origin>  (61) 
autodockgpu

>  <m_score__min__energy>  (61) 
-9.6199999999999992

>  <m_primary>  (61) 
energy

>  <rmsd>  (61) 
1.6030593581895196

>  <m_score__min__rmsd>  (61) 
1.6030593581895196

>  <meeko>  (61) 
{"free_energy": -9.44, "intermolecular_energy": -11.23, "internal_energy": -1.53, "cluster_size": 17, "cluster_id": 2, "rank_in_cluster": 1}

>  <energy>  (61) 
-8.94

>  <cluster_rmsd>  (61) 
1.29

>  <cluster>  (61) 
1

$$$$

     RDKit          3D

 54 57  0  0  0  0  0  0  0  0999 V2000
  137.1550   76.3060  222.1560 O   0  0  0  0  0  0  0  0  0  0  0  0
  138.4150   76.3900  222.3020 C   0  0  0  0  0  0  0  0  0  0  0  0
  139.2850   75.2850  222.0870 N   0  0  0  0  0  0  0  0  0  0  0  0
  138.7490   74.0000  221.6870 C   0  0  0  0  0  0  0  0  0  0  0  0
  139.7150   72.9680  222.1730 C   0  0  0  0  0  0  0  0  0  0  0  0
  140.9130   73.2180  222.3800 O   0  0  0  0  0  0  0  0  0  0  0  0
  139.2660   71.6350  222.4170 N   0  0  0  0  0  0  0  0  0  0  0  0
  139.1500   70.7170  221.3050 C   0  0  0  0  0  0  0  0  0  0  0  0
  137.8140   70.0030  221.3090 C   0  0  0  0  0  0  0  0  0  0  0  0
  137.5190   69.4070  222.6790 C   0  0  0  0  0  0  0  0  0  0  0  0
  137.5720   70.5340  223.6780 C   0  0  0  0  0  0  0  0  0  0  0  0
  138.9210   71.1790  223.7650 C   0  0  1  0  0  0  0  0  0  0  0  0
  139.9800   70.3280  224.3870 C   0  0  0  0  0  0  0  0  0  0  0  0
  140.3460   70.7240  225.7710 C   0  0  0  0  0  0  0  0  0  0  0  0
  139.9900   69.9920  226.8850 C   0  0  0  0  0  0  0  0  0  0  0  0
  140.3340   70.3650  228.1730 C   0  0  0  0  0  0  0  0  0  0  0  0
  141.0600   71.5090  228.3650 C   0  0  0  0  0  0  0  0  0  0  0  0
  141.4300   72.2610  227.2720 C   0  0  0  0  0  0  0  0  0  0  0  0
  141.0880   71.8920  225.9810 C   0  0  0  0  0  0  0  0  0  0  0  0
  139.0160   77.6730  222.7080 C   0  0  0  0  0  0  0  0  0  0  0  0
  138.2230   78.7350  223.0890 C   0  0  0  0  0  0  0  0  0  0  0  0
  138.8250   79.9410  223.4690 C   0  0  0  0  0  0  0  0  0  0  0  0
  140.1970   80.0710  223.4650 C   0  0  0  0  0  0  0  0  0  0  0  0
  140.8520   81.2280  223.8270 C   0  0  0  0  0  0  0  0  0  0  0  0
  142.2490   81.3160  223.8080 C   0  0  0  0  0  0  0  0  0  0  0  0
  142.9610   80.1990  223.4120 C   0  0  0  0  0  0  0  0  0  0  0  0
  142.3480   79.0250  223.0420 C   0  0  0  0  0  0  0  0  0  0  0  0
  140.9590   78.9920  223.0800 C   0  0  0  0  0  0  0  0  0  0  0  0
  140.3640   77.8430  222.7180 N   0  0  0  0  0  0  0  0  0  0  0  0
  140.3050   75.4130  222.2210 H   0  0  0  0  0  0  0  0  0  0  0  0
  137.7612   73.8412  222.1441 H   0  0  0  0  0  0  0  0  0  0  0  0
  138.6221   73.9439  220.5958 H   0  0  0  0  0  0  0  0  0  0  0  0
  139.2513   71.2798  220.3653 H   0  0  0  0  0  0  0  0  0  0  0  0
  139.9443   69.9617  221.3978 H   0  0  0  0  0  0  0  0  0  0  0  0
  137.0215   70.7208  221.0506 H   0  0  0  0  0  0  0  0  0  0  0  0
  137.8498   69.1873  220.5718 H   0  0  0  0  0  0  0  0  0  0  0  0
  136.5196   68.9474  222.6825 H   0  0  0  0  0  0  0  0  0  0  0  0
  138.2532   68.6277  222.9313 H   0  0  0  0  0  0  0  0  0  0  0  0
  136.8371   71.2977  223.3835 H   0  0  0  0  0  0  0  0  0  0  0  0
  137.3483   70.1068  224.6666 H   0  0  0  0  0  0  0  0  0  0  0  0
  138.8670   72.0300  224.4599 H   0  0  0  0  0  0  0  0  0  0  0  0
  139.6184   69.2894  224.4098 H   0  0  0  0  0  0  0  0  0  0  0  0
  140.8848   70.4516  223.7737 H   0  0  0  0  0  0  0  0  0  0  0  0
  139.4065   69.0704  226.7433 H   0  0  0  0  0  0  0  0  0  0  0  0
  140.0275   69.7494  229.0315 H   0  0  0  0  0  0  0  0  0  0  0  0
  141.3446   71.8241  229.3798 H   0  0  0  0  0  0  0  0  0  0  0  0
  142.0134   73.1803  227.4284 H   0  0  0  0  0  0  0  0  0  0  0  0
  141.3975   72.5126  225.1272 H   0  0  0  0  0  0  0  0  0  0  0  0
  137.1275   78.6357  223.0944 H   0  0  0  0  0  0  0  0  0  0  0  0
  138.1975   80.7917  223.7732 H   0  0  0  0  0  0  0  0  0  0  0  0
  140.2631   82.1034  224.1383 H   0  0  0  0  0  0  0  0  0  0  0  0
  142.7635   82.2438  224.0987 H   0  0  0  0  0  0  0  0  0  0  0  0
  144.0596   80.2514  223.3922 H   0  0  0  0  0  0  0  0  0  0  0  0
  142.9331   78.1478  222.7287 H   0  0  0  0  0  0  0  0  0  0  0  0
  1  2  2  0
  2  3  1  0
  3  4  1  0
  4  5  1  0
  5  6  2  0
  5  7  1  0
  7  8  1  0
  8  9  1  0
  9 10  1  0
 10 11  1  0
 11 12  1  0
 12 13  1  0
 13 14  1  0
 14 15  2  0
 15 16  1  0
 16 17  2  0
 17 18  1  0
 18 19  2  0
  2 20  1  0
 20 21  2  0
 21 22  1  0
 22 23  2  0
 23 24  1  0
 24 25  2  0
 25 26  1  0
 26 27  2  0
 27 28  1  0
 28 29  2  0
 12  7  1  0
 19 14  1  0
 29 20  1  0
 28 23  1  0
  3 30  1  0
  4 31  1  0
  4 32  1  0
  8 33  1  0
  8 34  1  0
  9 35  1  0
  9 36  1  0
 10 37  1  0
 10 38  1  0
 11 39  1  0
 11 40  1  0
 12 41  1  1
 13 42  1  0
 13 43  1  0
 15 44  1  0
 16 45  1  0
 17 46  1  0
 18 47  1  0
 19 48  1  0
 21 49  1  0
 22 50  1  0
 24 51  1  0
 25 52  1  0
 26 53  1  0
 27 54  1  0
M  END
>  <smiles>  (62) 
O=C(NCC(=O)N1CCCCC1Cc1ccccc1)c1ccc2ccccc2n1

>  <score_type>  (62) 
oracle

>  <origin>  (62) 
autodockgpu

>  <m_score__min__energy>  (62) 
-9.6199999999999992

>  <m_primary>  (62) 
energy

>  <rmsd>  (62) 
8.26956394126351

>  <m_score__min__rmsd>  (62) 
8.26956394126351

>  <meeko>  (62) 
{"free_energy": -9.04, "intermolecular_energy": -10.83, "internal_energy": -2.14, "cluster_size": 23, "cluster_id": 1, "rank_in_cluster": 4}

>  <energy>  (62) 
-8.9

>  <cluster_rmsd>  (62) 
1.27

>  <cluster>  (62) 
1

$$$$

     RDKit          3D

 54 57  0  0  0  0  0  0  0  0999 V2000
  141.2330   71.6440  221.3960 O   0  0  0  0  0  0  0  0  0  0  0  0
  140.6100   72.2050  222.3520 C   0  0  0  0  0  0  0  0  0  0  0  0
  140.1700   73.5570  222.2880 N   0  0  0  0  0  0  0  0  0  0  0  0
  140.4250   74.3540  221.1050 C   0  0  0  0  0  0  0  0  0  0  0  0
  140.6600   75.7510  221.5790 C   0  0  0  0  0  0  0  0  0  0  0  0
  140.2340   76.1700  222.6670 O   0  0  0  0  0  0  0  0  0  0  0  0
  141.4020   76.6610  220.7660 N   0  0  0  0  0  0  0  0  0  0  0  0
  141.4710   78.0540  221.1520 C   0  0  0  0  0  0  0  0  0  0  0  0
  141.1620   78.9700  219.9870 C   0  0  0  0  0  0  0  0  0  0  0  0
  141.9850   78.5920  218.7630 C   0  0  0  0  0  0  0  0  0  0  0  0
  141.6880   77.1470  218.4530 C   0  0  0  0  0  0  0  0  0  0  0  0
  142.0920   76.2160  219.5540 C   0  0  1  0  0  0  0  0  0  0  0  0
  143.5670   76.0690  219.7360 C   0  0  0  0  0  0  0  0  0  0  0  0
  144.0150   74.6750  219.9900 C   0  0  0  0  0  0  0  0  0  0  0  0
  145.1730   74.3660  220.6720 C   0  0  0  0  0  0  0  0  0  0  0  0
  145.5850   73.0650  220.9070 C   0  0  0  0  0  0  0  0  0  0  0  0
  144.8190   72.0290  220.4460 C   0  0  0  0  0  0  0  0  0  0  0  0
  143.6560   72.3070  219.7610 C   0  0  0  0  0  0  0  0  0  0  0  0
  143.2390   73.6070  219.5240 C   0  0  0  0  0  0  0  0  0  0  0  0
  140.3230   71.4420  223.5790 C   0  0  0  0  0  0  0  0  0  0  0  0
  139.6140   70.2600  223.5250 C   0  0  0  0  0  0  0  0  0  0  0  0
  139.3570   69.5590  224.7090 C   0  0  0  0  0  0  0  0  0  0  0  0
  139.8060   70.0400  225.9200 C   0  0  0  0  0  0  0  0  0  0  0  0
  139.5880   69.3990  227.1210 C   0  0  0  0  0  0  0  0  0  0  0  0
  140.0630   69.9240  228.3290 C   0  0  0  0  0  0  0  0  0  0  0  0
  140.7640   71.1150  228.2840 C   0  0  0  0  0  0  0  0  0  0  0  0
  141.0040   71.7880  227.1080 C   0  0  0  0  0  0  0  0  0  0  0  0
  140.5110   71.2220  225.9390 C   0  0  0  0  0  0  0  0  0  0  0  0
  140.7470   71.8810  224.7930 N   0  0  0  0  0  0  0  0  0  0  0  0
  139.6660   73.9610  223.0990 H   0  0  0  0  0  0  0  0  0  0  0  0
  141.3133   73.9772  220.5768 H   0  0  0  0  0  0  0  0  0  0  0  0
  139.5787   74.3083  220.4038 H   0  0  0  0  0  0  0  0  0  0  0  0
  140.7419   78.2387  221.9547 H   0  0  0  0  0  0  0  0  0  0  0  0
  142.4944   78.2661  221.4950 H   0  0  0  0  0  0  0  0  0  0  0  0
  140.0930   78.8903  219.7404 H   0  0  0  0  0  0  0  0  0  0  0  0
  141.4151   80.0010  220.2749 H   0  0  0  0  0  0  0  0  0  0  0  0
  141.7032   79.2259  217.9093 H   0  0  0  0  0  0  0  0  0  0  0  0
  143.0584   78.7368  218.9551 H   0  0  0  0  0  0  0  0  0  0  0  0
  140.6064   77.0403  218.2833 H   0  0  0  0  0  0  0  0  0  0  0  0
  142.2730   76.8753  217.5619 H   0  0  0  0  0  0  0  0  0  0  0  0
  141.7871   75.1929  219.2887 H   0  0  0  0  0  0  0  0  0  0  0  0
  144.0645   76.4301  218.8238 H   0  0  0  0  0  0  0  0  0  0  0  0
  143.8345   76.6538  220.6284 H   0  0  0  0  0  0  0  0  0  0  0  0
  145.7978   75.1903  221.0463 H   0  0  0  0  0  0  0  0  0  0  0  0
  146.5165   72.8668  221.4574 H   0  0  0  0  0  0  0  0  0  0  0  0
  145.1276   70.9876  220.6200 H   0  0  0  0  0  0  0  0  0  0  0  0
  143.0411   71.4730  219.3918 H   0  0  0  0  0  0  0  0  0  0  0  0
  142.3057   73.7983  218.9741 H   0  0  0  0  0  0  0  0  0  0  0  0
  139.2540   69.8720  222.5607 H   0  0  0  0  0  0  0  0  0  0  0  0
  138.7918   68.6160  224.6726 H   0  0  0  0  0  0  0  0  0  0  0  0
  139.0275   68.4525  227.1304 H   0  0  0  0  0  0  0  0  0  0  0  0
  139.8843   69.4059  229.2827 H   0  0  0  0  0  0  0  0  0  0  0  0
  141.1444   71.5408  229.2242 H   0  0  0  0  0  0  0  0  0  0  0  0
  141.5632   72.7352  227.0941 H   0  0  0  0  0  0  0  0  0  0  0  0
  1  2  2  0
  2  3  1  0
  3  4  1  0
  4  5  1  0
  5  6  2  0
  5  7  1  0
  7  8  1  0
  8  9  1  0
  9 10  1  0
 10 11  1  0
 11 12  1  0
 12 13  1  0
 13 14  1  0
 14 15  2  0
 15 16  1  0
 16 17  2  0
 17 18  1  0
 18 19  2  0
  2 20  1  0
 20 21  2  0
 21 22  1  0
 22 23  2  0
 23 24  1  0
 24 25  2  0
 25 26  1  0
 26 27  2  0
 27 28  1  0
 28 29  2  0
 12  7  1  0
 19 14  1  0
 29 20  1  0
 28 23  1  0
  3 30  1  0
  4 31  1  0
  4 32  1  0
  8 33  1  0
  8 34  1  0
  9 35  1  0
  9 36  1  0
 10 37  1  0
 10 38  1  0
 11 39  1  0
 11 40  1  0
 12 41  1  6
 13 42  1  0
 13 43  1  0
 15 44  1  0
 16 45  1  0
 17 46  1  0
 18 47  1  0
 19 48  1  0
 21 49  1  0
 22 50  1  0
 24 51  1  0
 25 52  1  0
 26 53  1  0
 27 54  1  0
M  END
>  <smiles>  (63) 
O=C(NCC(=O)N1CCCCC1Cc1ccccc1)c1ccc2ccccc2n1

>  <score_type>  (63) 
oracle

>  <origin>  (63) 
autodockgpu

>  <m_score__min__energy>  (63) 
-9.6199999999999992

>  <m_primary>  (63) 
energy

>  <rmsd>  (63) 
2.5981648293077417

>  <m_score__min__rmsd>  (63) 
2.5981648293077417

>  <meeko>  (63) 
{"free_energy": -8.86, "intermolecular_energy": -10.65, "internal_energy": -2.25, "cluster_size": 8, "cluster_id": 4, "rank_in_cluster": 2}

>  <energy>  (63) 
-8.9

>  <cluster_rmsd>  (63) 
0.97

>  <cluster>  (63) 
1

$$$$

     RDKit          3D

 54 57  0  0  0  0  0  0  0  0999 V2000
  141.5400   75.1240  221.3220 O   0  0  0  0  0  0  0  0  0  0  0  0
  140.4600   75.3340  221.9590 C   0  0  0  0  0  0  0  0  0  0  0  0
  139.5560   74.2870  222.2950 N   0  0  0  0  0  0  0  0  0  0  0  0
  139.8440   72.9200  221.9120 C   0  0  0  0  0  0  0  0  0  0  0  0
  138.7230   72.0860  222.4430 C   0  0  0  0  0  0  0  0  0  0  0  0
  137.6090   72.5600  222.7190 O   0  0  0  0  0  0  0  0  0  0  0  0
  138.9150   70.6860  222.6490 N   0  0  0  0  0  0  0  0  0  0  0  0
  139.2430   69.8470  221.5170 C   0  0  0  0  0  0  0  0  0  0  0  0
  138.3680   68.6120  221.4680 C   0  0  0  0  0  0  0  0  0  0  0  0
  138.3460   67.9060  222.8170 C   0  0  0  0  0  0  0  0  0  0  0  0
  137.8700   68.9080  223.8380 C   0  0  0  0  0  0  0  0  0  0  0  0
  138.7850   70.0850  223.9770 C   0  0  1  0  0  0  0  0  0  0  0  0
  140.1010   69.7780  224.6150 C   0  0  0  0  0  0  0  0  0  0  0  0
  140.3320   70.4790  225.9040 C   0  0  0  0  0  0  0  0  0  0  0  0
  141.0750   71.6370  226.0120 C   0  0  0  0  0  0  0  0  0  0  0  0
  141.2850   72.2870  227.2160 C   0  0  0  0  0  0  0  0  0  0  0  0
  140.7390   71.7690  228.3590 C   0  0  0  0  0  0  0  0  0  0  0  0
  139.9920   70.6140  228.2830 C   0  0  0  0  0  0  0  0  0  0  0  0
  139.7780   69.9590  227.0800 C   0  0  0  0  0  0  0  0  0  0  0  0
  140.1150   76.7040  222.3750 C   0  0  0  0  0  0  0  0  0  0  0  0
  141.1000   77.6470  222.5830 C   0  0  0  0  0  0  0  0  0  0  0  0
  140.7400   78.9410  222.9790 C   0  0  0  0  0  0  0  0  0  0  0  0
  139.4150   79.2760  223.1570 C   0  0  0  0  0  0  0  0  0  0  0  0
  138.9930   80.5300  223.5440 C   0  0  0  0  0  0  0  0  0  0  0  0
  137.6350   80.8260  223.7140 C   0  0  0  0  0  0  0  0  0  0  0  0
  136.7200   79.8170  223.4810 C   0  0  0  0  0  0  0  0  0  0  0  0
  137.0970   78.5510  223.0940 C   0  0  0  0  0  0  0  0  0  0  0  0
  138.4570   78.3120  222.9400 C   0  0  0  0  0  0  0  0  0  0  0  0
  138.8210   77.0750  222.5620 N   0  0  0  0  0  0  0  0  0  0  0  0
  138.6900   74.5180  222.8170 H   0  0  0  0  0  0  0  0  0  0  0  0
  139.8952   72.8349  220.8165 H   0  0  0  0  0  0  0  0  0  0  0  0
  140.8122   72.5891  222.3158 H   0  0  0  0  0  0  0  0  0  0  0  0
  139.0991   70.4237  220.5914 H   0  0  0  0  0  0  0  0  0  0  0  0
  140.2895   69.5240  221.6192 H   0  0  0  0  0  0  0  0  0  0  0  0
  137.3430   68.9076  221.1998 H   0  0  0  0  0  0  0  0  0  0  0  0
  138.7783   67.9209  220.7170 H   0  0  0  0  0  0  0  0  0  0  0  0
  137.6583   67.0482  222.7820 H   0  0  0  0  0  0  0  0  0  0  0  0
  139.3465   67.5297  223.0767 H   0  0  0  0  0  0  0  0  0  0  0  0
  136.8765   69.2707  223.5357 H   0  0  0  0  0  0  0  0  0  0  0  0
  137.8432   68.3967  224.8116 H   0  0  0  0  0  0  0  0  0  0  0  0
  138.3428   70.8018  224.6846 H   0  0  0  0  0  0  0  0  0  0  0  0
  140.1511   68.6945  224.7980 H   0  0  0  0  0  0  0  0  0  0  0  0
  140.8782   70.1298  223.9206 H   0  0  0  0  0  0  0  0  0  0  0  0
  141.5202   72.0625  225.1006 H   0  0  0  0  0  0  0  0  0  0  0  0
  141.8837   73.2090  227.2536 H   0  0  0  0  0  0  0  0  0  0  0  0
  140.8947   72.2687  229.3265 H   0  0  0  0  0  0  0  0  0  0  0  0
  139.5530   70.1998  229.2026 H   0  0  0  0  0  0  0  0  0  0  0  0
  139.1776   69.0378  227.0497 H   0  0  0  0  0  0  0  0  0  0  0  0
  142.1586   77.3849  222.4391 H   0  0  0  0  0  0  0  0  0  0  0  0
  141.5212   79.6964  223.1494 H   0  0  0  0  0  0  0  0  0  0  0  0
  139.7407   81.3166  223.7235 H   0  0  0  0  0  0  0  0  0  0  0  0
  137.3071   81.8295  224.0231 H   0  0  0  0  0  0  0  0  0  0  0  0
  135.6493   80.0339  223.6097 H   0  0  0  0  0  0  0  0  0  0  0  0
  136.3526   77.7614  222.9141 H   0  0  0  0  0  0  0  0  0  0  0  0
  1  2  2  0
  2  3  1  0
  3  4  1  0
  4  5  1  0
  5  6  2  0
  5  7  1  0
  7  8  1  0
  8  9  1  0
  9 10  1  0
 10 11  1  0
 11 12  1  0
 12 13  1  0
 13 14  1  0
 14 15  2  0
 15 16  1  0
 16 17  2  0
 17 18  1  0
 18 19  2  0
  2 20  1  0
 20 21  2  0
 21 22  1  0
 22 23  2  0
 23 24  1  0
 24 25  2  0
 25 26  1  0
 26 27  2  0
 27 28  1  0
 28 29  2  0
 12  7  1  0
 19 14  1  0
 29 20  1  0
 28 23  1  0
  3 30  1  0
  4 31  1  0
  4 32  1  0
  8 33  1  0
  8 34  1  0
  9 35  1  0
  9 36  1  0
 10 37  1  0
 10 38  1  0
 11 39  1  0
 11 40  1  0
 12 41  1  1
 13 42  1  0
 13 43  1  0
 15 44  1  0
 16 45  1  0
 17 46  1  0
 18 47  1  0
 19 48  1  0
 21 49  1  0
 22 50  1  0
 24 51  1  0
 25 52  1  0
 26 53  1  0
 27 54  1  0
M  END
>  <smiles>  (64) 
O=C(NCC(=O)N1CCCCC1Cc1ccccc1)c1ccc2ccccc2n1

>  <score_type>  (64) 
oracle

>  <origin>  (64) 
autodockgpu

>  <m_score__min__energy>  (64) 
-9.6199999999999992

>  <m_primary>  (64) 
energy

>  <rmsd>  (64) 
8.367053685812522

>  <m_score__min__rmsd>  (64) 
8.367053685812522

>  <meeko>  (64) 
{"free_energy": -8.12, "intermolecular_energy": -9.91, "internal_energy": -2.13, "cluster_size": 23, "cluster_id": 1, "rank_in_cluster": 23}

>  <energy>  (64) 
-8.88

>  <cluster_rmsd>  (64) 
1.19

>  <cluster>  (64) 
1

$$$$

     RDKit          3D

 54 57  0  0  0  0  0  0  0  0999 V2000
  140.0060   70.9410  221.1700 O   0  0  0  0  0  0  0  0  0  0  0  0
  139.8810   71.5970  222.2520 C   0  0  0  0  0  0  0  0  0  0  0  0
  139.7120   73.0100  222.2730 N   0  0  0  0  0  0  0  0  0  0  0  0
  139.6770   73.7610  221.0350 C   0  0  0  0  0  0  0  0  0  0  0  0
  139.9430   75.1860  221.3960 C   0  0  0  0  0  0  0  0  0  0  0  0
  139.7180   75.6430  222.5290 O   0  0  0  0  0  0  0  0  0  0  0  0
  140.4780   76.0790  220.4190 N   0  0  0  0  0  0  0  0  0  0  0  0
  140.1080   75.9080  219.0310 C   0  0  0  0  0  0  0  0  0  0  0  0
  141.3200   75.9260  218.1240 C   0  0  0  0  0  0  0  0  0  0  0  0
  142.2030   77.1320  218.4180 C   0  0  0  0  0  0  0  0  0  0  0  0
  142.5760   77.0680  219.8770 C   0  0  0  0  0  0  0  0  0  0  0  0
  141.3930   77.1600  220.7910 C   0  0  1  0  0  0  0  0  0  0  0  0
  140.7360   78.5010  220.8250 C   0  0  0  0  0  0  0  0  0  0  0  0
  141.2840   79.4230  221.8520 C   0  0  0  0  0  0  0  0  0  0  0  0
  141.3010   80.7950  221.7050 C   0  0  0  0  0  0  0  0  0  0  0  0
  141.8120   81.6500  222.6670 C   0  0  0  0  0  0  0  0  0  0  0  0
  142.3280   81.1250  223.8200 C   0  0  0  0  0  0  0  0  0  0  0  0
  142.3250   79.7590  223.9960 C   0  0  0  0  0  0  0  0  0  0  0  0
  141.8150   78.8980  223.0370 C   0  0  0  0  0  0  0  0  0  0  0  0
  139.9080   70.8850  223.5410 C   0  0  0  0  0  0  0  0  0  0  0  0
  139.4470   69.5900  223.6420 C   0  0  0  0  0  0  0  0  0  0  0  0
  139.4850   68.9410  224.8820 C   0  0  0  0  0  0  0  0  0  0  0  0
  139.9800   69.5850  225.9950 C   0  0  0  0  0  0  0  0  0  0  0  0
  140.0480   69.0040  227.2430 C   0  0  0  0  0  0  0  0  0  0  0  0
  140.5590   69.6970  228.3480 C   0  0  0  0  0  0  0  0  0  0  0  0
  140.9980   70.9930  228.1500 C   0  0  0  0  0  0  0  0  0  0  0  0
  140.9490   71.6110  226.9220 C   0  0  0  0  0  0  0  0  0  0  0  0
  140.4340   70.8780  225.8610 C   0  0  0  0  0  0  0  0  0  0  0  0
  140.3880   71.4850  224.6630 N   0  0  0  0  0  0  0  0  0  0  0  0
  139.6140   73.4920  223.1860 H   0  0  0  0  0  0  0  0  0  0  0  0
  140.4507   73.3929  220.3452 H   0  0  0  0  0  0  0  0  0  0  0  0
  138.7051   73.6529  220.5314 H   0  0  0  0  0  0  0  0  0  0  0  0
  139.5904   74.9442  218.9158 H   0  0  0  0  0  0  0  0  0  0  0  0
  139.4521   76.7433  218.7447 H   0  0  0  0  0  0  0  0  0  0  0  0
  141.9022   75.0064  218.2831 H   0  0  0  0  0  0  0  0  0  0  0  0
  140.9766   75.9886  217.0808 H   0  0  0  0  0  0  0  0  0  0  0  0
  143.1093   77.0959  217.7956 H   0  0  0  0  0  0  0  0  0  0  0  0
  141.6719   78.0684  218.1921 H   0  0  0  0  0  0  0  0  0  0  0  0
  143.0903   76.1141  220.0652 H   0  0  0  0  0  0  0  0  0  0  0  0
  143.2217   77.9331  220.0885 H   0  0  0  0  0  0  0  0  0  0  0  0
  141.7325   77.0388  221.8303 H   0  0  0  0  0  0  0  0  0  0  0  0
  140.8605   78.9710  219.8383 H   0  0  0  0  0  0  0  0  0  0  0  0
  139.6813   78.3290  221.0860 H   0  0  0  0  0  0  0  0  0  0  0  0
  140.8900   81.2292  220.7817 H   0  0  0  0  0  0  0  0  0  0  0  0
  141.8031   82.7381  222.5060 H   0  0  0  0  0  0  0  0  0  0  0  0
  142.7402   81.7856  224.5970 H   0  0  0  0  0  0  0  0  0  0  0  0
  142.7393   79.3392  224.9245 H   0  0  0  0  0  0  0  0  0  0  0  0
  141.8272   77.8110  223.2052 H   0  0  0  0  0  0  0  0  0  0  0  0
  139.0526   69.0709  222.7560 H   0  0  0  0  0  0  0  0  0  0  0  0
  139.1165   67.9082  224.9684 H   0  0  0  0  0  0  0  0  0  0  0  0
  139.6925   67.9714  227.3745 H   0  0  0  0  0  0  0  0  0  0  0  0
  140.6093   69.2256  229.3406 H   0  0  0  0  0  0  0  0  0  0  0  0
  141.4020   71.5514  229.0073 H   0  0  0  0  0  0  0  0  0  0  0  0
  141.3033   72.6435  226.7861 H   0  0  0  0  0  0  0  0  0  0  0  0
  1  2  2  0
  2  3  1  0
  3  4  1  0
  4  5  1  0
  5  6  2  0
  5  7  1  0
  7  8  1  0
  8  9  1  0
  9 10  1  0
 10 11  1  0
 11 12  1  0
 12 13  1  0
 13 14  1  0
 14 15  2  0
 15 16  1  0
 16 17  2  0
 17 18  1  0
 18 19  2  0
  2 20  1  0
 20 21  2  0
 21 22  1  0
 22 23  2  0
 23 24  1  0
 24 25  2  0
 25 26  1  0
 26 27  2  0
 27 28  1  0
 28 29  2  0
 12  7  1  0
 19 14  1  0
 29 20  1  0
 28 23  1  0
  3 30  1  0
  4 31  1  0
  4 32  1  0
  8 33  1  0
  8 34  1  0
  9 35  1  0
  9 36  1  0
 10 37  1  0
 10 38  1  0
 11 39  1  0
 11 40  1  0
 12 41  1  1
 13 42  1  0
 13 43  1  0
 15 44  1  0
 16 45  1  0
 17 46  1  0
 18 47  1  0
 19 48  1  0
 21 49  1  0
 22 50  1  0
 24 51  1  0
 25 52  1  0
 26 53  1  0
 27 54  1  0
M  END
>  <smiles>  (65) 
O=C(NCC(=O)N1CCCCC1Cc1ccccc1)c1ccc2ccccc2n1

>  <score_type>  (65) 
oracle

>  <origin>  (65) 
autodockgpu

>  <m_score__min__energy>  (65) 
-9.6199999999999992

>  <m_primary>  (65) 
energy

>  <rmsd>  (65) 
1.5112370734746476

>  <m_score__min__rmsd>  (65) 
1.5112370734746476

>  <meeko>  (65) 
{"free_energy": -9.08, "intermolecular_energy": -10.87, "internal_energy": -2.03, "cluster_size": 17, "cluster_id": 2, "rank_in_cluster": 11}

>  <energy>  (65) 
-8.88

>  <cluster_rmsd>  (65) 
1.24

>  <cluster>  (65) 
1

$$$$

     RDKit          3D

 54 57  0  0  0  0  0  0  0  0999 V2000
  141.0530   73.9290  222.2220 O   0  0  0  0  0  0  0  0  0  0  0  0
  140.5610   74.7390  221.3750 C   0  0  0  0  0  0  0  0  0  0  0  0
  139.5900   74.3430  220.4130 N   0  0  0  0  0  0  0  0  0  0  0  0
  139.1200   72.9740  220.3690 C   0  0  0  0  0  0  0  0  0  0  0  0
  138.5600   72.6730  221.7210 C   0  0  0  0  0  0  0  0  0  0  0  0
  137.8210   73.4630  222.3300 O   0  0  0  0  0  0  0  0  0  0  0  0
  138.8730   71.4350  222.3600 N   0  0  0  0  0  0  0  0  0  0  0  0
  139.0110   70.2420  221.5540 C   0  0  0  0  0  0  0  0  0  0  0  0
  138.2190   69.0860  222.1280 C   0  0  0  0  0  0  0  0  0  0  0  0
  138.5150   68.9070  223.6120 C   0  0  0  0  0  0  0  0  0  0  0  0
  138.2000   70.2150  224.2910 C   0  0  0  0  0  0  0  0  0  0  0  0
  139.0530   71.3480  223.8100 C   0  0  1  0  0  0  0  0  0  0  0  0
  140.4880   71.2650  224.2200 C   0  0  0  0  0  0  0  0  0  0  0  0
  140.6940   70.9110  225.6480 C   0  0  0  0  0  0  0  0  0  0  0  0
  140.7730   71.8500  226.6560 C   0  0  0  0  0  0  0  0  0  0  0  0
  140.9640   71.5150  227.9850 C   0  0  0  0  0  0  0  0  0  0  0  0
  141.0830   70.1960  228.3300 C   0  0  0  0  0  0  0  0  0  0  0  0
  141.0080   69.2350  227.3460 C   0  0  0  0  0  0  0  0  0  0  0  0
  140.8160   69.5650  226.0140 C   0  0  0  0  0  0  0  0  0  0  0  0
  141.0010   76.1450  221.3740 C   0  0  0  0  0  0  0  0  0  0  0  0
  141.3630   76.7700  220.1990 C   0  0  0  0  0  0  0  0  0  0  0  0
  141.7770   78.1080  220.2310 C   0  0  0  0  0  0  0  0  0  0  0  0
  141.8210   78.7990  221.4230 C   0  0  0  0  0  0  0  0  0  0  0  0
  142.2170   80.1150  221.5250 C   0  0  0  0  0  0  0  0  0  0  0  0
  142.2480   80.7790  222.7570 C   0  0  0  0  0  0  0  0  0  0  0  0
  141.8660   80.0700  223.8820 C   0  0  0  0  0  0  0  0  0  0  0  0
  141.4650   78.7550  223.8260 C   0  0  0  0  0  0  0  0  0  0  0  0
  141.4530   78.1460  222.5770 C   0  0  0  0  0  0  0  0  0  0  0  0
  141.0590   76.8620  222.5270 N   0  0  0  0  0  0  0  0  0  0  0  0
  139.2240   75.0490  219.7470 H   0  0  0  0  0  0  0  0  0  0  0  0
  138.3394   72.8649  219.6017 H   0  0  0  0  0  0  0  0  0  0  0  0
  139.9359   72.2818  220.1137 H   0  0  0  0  0  0  0  0  0  0  0  0
  138.6474   70.4539  220.5377 H   0  0  0  0  0  0  0  0  0  0  0  0
  140.0735   69.9575  221.5401 H   0  0  0  0  0  0  0  0  0  0  0  0
  137.1451   69.2848  221.9965 H   0  0  0  0  0  0  0  0  0  0  0  0
  138.5073   68.1657  221.5989 H   0  0  0  0  0  0  0  0  0  0  0  0
  137.8863   68.1058  224.0276 H   0  0  0  0  0  0  0  0  0  0  0  0
  139.5677   68.6294  223.7691 H   0  0  0  0  0  0  0  0  0  0  0  0
  137.1460   70.4643  224.0985 H   0  0  0  0  0  0  0  0  0  0  0  0
  138.4035   70.0844  225.3641 H   0  0  0  0  0  0  0  0  0  0  0  0
  138.7228   72.2770  224.2977 H   0  0  0  0  0  0  0  0  0  0  0  0
  140.9800   70.5006  223.6007 H   0  0  0  0  0  0  0  0  0  0  0  0
  140.9157   72.2685  224.0783 H   0  0  0  0  0  0  0  0  0  0  0  0
  140.6799   72.9135  226.3910 H   0  0  0  0  0  0  0  0  0  0  0  0
  141.0195   72.2991  228.7545 H   0  0  0  0  0  0  0  0  0  0  0  0
  141.2366   69.9068  229.3801 H   0  0  0  0  0  0  0  0  0  0  0  0
  141.1032   68.1754  227.6256 H   0  0  0  0  0  0  0  0  0  0  0  0
  140.7598   68.7756  225.2500 H   0  0  0  0  0  0  0  0  0  0  0  0
  141.3270   76.2228  219.2454 H   0  0  0  0  0  0  0  0  0  0  0  0
  142.0693   78.6112  219.2975 H   0  0  0  0  0  0  0  0  0  0  0  0
  142.5161   80.6571  220.6158 H   0  0  0  0  0  0  0  0  0  0  0  0
  142.5656   81.8297  222.8283 H   0  0  0  0  0  0  0  0  0  0  0  0
  141.8835   80.5768  224.8582 H   0  0  0  0  0  0  0  0  0  0  0  0
  141.1662   78.2083  224.7326 H   0  0  0  0  0  0  0  0  0  0  0  0
  1  2  2  0
  2  3  1  0
  3  4  1  0
  4  5  1  0
  5  6  2  0
  5  7  1  0
  7  8  1  0
  8  9  1  0
  9 10  1  0
 10 11  1  0
 11 12  1  0
 12 13  1  0
 13 14  1  0
 14 15  2  0
 15 16  1  0
 16 17  2  0
 17 18  1  0
 18 19  2  0
  2 20  1  0
 20 21  2  0
 21 22  1  0
 22 23  2  0
 23 24  1  0
 24 25  2  0
 25 26  1  0
 26 27  2  0
 27 28  1  0
 28 29  2  0
 12  7  1  0
 19 14  1  0
 29 20  1  0
 28 23  1  0
  3 30  1  0
  4 31  1  0
  4 32  1  0
  8 33  1  0
  8 34  1  0
  9 35  1  0
  9 36  1  0
 10 37  1  0
 10 38  1  0
 11 39  1  0
 11 40  1  0
 12 41  1  1
 13 42  1  0
 13 43  1  0
 15 44  1  0
 16 45  1  0
 17 46  1  0
 18 47  1  0
 19 48  1  0
 21 49  1  0
 22 50  1  0
 24 51  1  0
 25 52  1  0
 26 53  1  0
 27 54  1  0
M  END
>  <smiles>  (66) 
O=C(NCC(=O)N1CCCCC1Cc1ccccc1)c1ccc2ccccc2n1

>  <score_type>  (66) 
oracle

>  <origin>  (66) 
autodockgpu

>  <m_score__min__energy>  (66) 
-9.6199999999999992

>  <m_primary>  (66) 
energy

>  <rmsd>  (66) 
7.961870748297113

>  <m_score__min__rmsd>  (66) 
7.961870748297113

>  <meeko>  (66) 
{"free_energy": -8.68, "intermolecular_energy": -10.47, "internal_energy": -1.5, "cluster_size": 23, "cluster_id": 1, "rank_in_cluster": 21}

>  <energy>  (66) 
-8.87

>  <cluster_rmsd>  (66) 
0.98

>  <cluster>  (66) 
1

$$$$

     RDKit          3D

 54 57  0  0  0  0  0  0  0  0999 V2000
  141.2890   71.6550  221.4130 O   0  0  0  0  0  0  0  0  0  0  0  0
  140.6470   72.2090  222.3600 C   0  0  0  0  0  0  0  0  0  0  0  0
  140.1990   73.5580  222.2930 N   0  0  0  0  0  0  0  0  0  0  0  0
  140.4680   74.3610  221.1170 C   0  0  0  0  0  0  0  0  0  0  0  0
  140.6800   75.7590  221.5980 C   0  0  0  0  0  0  0  0  0  0  0  0
  140.2340   76.1690  222.6820 O   0  0  0  0  0  0  0  0  0  0  0  0
  141.4210   76.6810  220.7980 N   0  0  0  0  0  0  0  0  0  0  0  0
  141.4930   78.0670  221.2060 C   0  0  0  0  0  0  0  0  0  0  0  0
  141.1820   79.0030  220.0570 C   0  0  0  0  0  0  0  0  0  0  0  0
  142.0010   78.6440  218.8240 C   0  0  0  0  0  0  0  0  0  0  0  0
  141.7000   77.2050  218.4920 C   0  0  0  0  0  0  0  0  0  0  0  0
  142.1050   76.2550  219.5760 C   0  0  1  0  0  0  0  0  0  0  0  0
  143.5810   76.1020  219.7510 C   0  0  0  0  0  0  0  0  0  0  0  0
  144.0250   74.7050  219.9890 C   0  0  0  0  0  0  0  0  0  0  0  0
  145.1660   74.3850  220.6970 C   0  0  0  0  0  0  0  0  0  0  0  0
  145.5740   73.0810  220.9180 C   0  0  0  0  0  0  0  0  0  0  0  0
  144.8250   72.0520  220.4160 C   0  0  0  0  0  0  0  0  0  0  0  0
  143.6810   72.3400  219.7040 C   0  0  0  0  0  0  0  0  0  0  0  0
  143.2660   73.6430  219.4810 C   0  0  0  0  0  0  0  0  0  0  0  0
  140.3450   71.4410  223.5800 C   0  0  0  0  0  0  0  0  0  0  0  0
  139.6380   70.2590  223.5120 C   0  0  0  0  0  0  0  0  0  0  0  0
  139.3670   69.5520  224.6900 C   0  0  0  0  0  0  0  0  0  0  0  0
  139.8010   70.0280  225.9090 C   0  0  0  0  0  0  0  0  0  0  0  0
  139.5680   69.3810  227.1040 C   0  0  0  0  0  0  0  0  0  0  0  0
  140.0280   69.9020  228.3200 C   0  0  0  0  0  0  0  0  0  0  0  0
  140.7280   71.0930  228.2890 C   0  0  0  0  0  0  0  0  0  0  0  0
  140.9820   71.7720  227.1190 C   0  0  0  0  0  0  0  0  0  0  0  0
  140.5040   71.2100  225.9410 C   0  0  0  0  0  0  0  0  0  0  0  0
  140.7540   71.8750  224.8010 N   0  0  0  0  0  0  0  0  0  0  0  0
  139.6800   73.9570  223.0970 H   0  0  0  0  0  0  0  0  0  0  0  0
  141.3697   73.9945  220.6046 H   0  0  0  0  0  0  0  0  0  0  0  0
  139.6351   74.3087  220.4004 H   0  0  0  0  0  0  0  0  0  0  0  0
  140.7665   78.2396  222.0137 H   0  0  0  0  0  0  0  0  0  0  0  0
  142.5178   78.2719  221.5491 H   0  0  0  0  0  0  0  0  0  0  0  0
  140.1121   78.9292  219.8123 H   0  0  0  0  0  0  0  0  0  0  0  0
  141.4377   80.0287  220.3613 H   0  0  0  0  0  0  0  0  0  0  0  0
  141.7178   79.2922  217.9817 H   0  0  0  0  0  0  0  0  0  0  0  0
  143.0753   78.7841  219.0146 H   0  0  0  0  0  0  0  0  0  0  0  0
  140.6177   77.1035  218.3239 H   0  0  0  0  0  0  0  0  0  0  0  0
  142.2821   76.9467  217.5951 H   0  0  0  0  0  0  0  0  0  0  0  0
  141.7960   75.2376  219.2943 H   0  0  0  0  0  0  0  0  0  0  0  0
  144.0762   76.4709  218.8407 H   0  0  0  0  0  0  0  0  0  0  0  0
  143.8539   76.6772  220.6481 H   0  0  0  0  0  0  0  0  0  0  0  0
  145.7785   75.2031  221.1038 H   0  0  0  0  0  0  0  0  0  0  0  0
  146.4901   72.8743  221.4908 H   0  0  0  0  0  0  0  0  0  0  0  0
  145.1321   71.0083  220.5787 H   0  0  0  0  0  0  0  0  0  0  0  0
  143.0799   71.5116  219.3010 H   0  0  0  0  0  0  0  0  0  0  0  0
  142.3475   73.8419  218.9094 H   0  0  0  0  0  0  0  0  0  0  0  0
  139.2902   69.8751  222.5416 H   0  0  0  0  0  0  0  0  0  0  0  0
  138.8030   68.6088  224.6424 H   0  0  0  0  0  0  0  0  0  0  0  0
  139.0081   68.4341  227.1024 H   0  0  0  0  0  0  0  0  0  0  0  0
  139.8381   69.3798  229.2693 H   0  0  0  0  0  0  0  0  0  0  0  0
  141.0964   71.5147  229.2358 H   0  0  0  0  0  0  0  0  0  0  0  0
  141.5400   72.7199  227.1163 H   0  0  0  0  0  0  0  0  0  0  0  0
  1  2  2  0
  2  3  1  0
  3  4  1  0
  4  5  1  0
  5  6  2  0
  5  7  1  0
  7  8  1  0
  8  9  1  0
  9 10  1  0
 10 11  1  0
 11 12  1  0
 12 13  1  0
 13 14  1  0
 14 15  2  0
 15 16  1  0
 16 17  2  0
 17 18  1  0
 18 19  2  0
  2 20  1  0
 20 21  2  0
 21 22  1  0
 22 23  2  0
 23 24  1  0
 24 25  2  0
 25 26  1  0
 26 27  2  0
 27 28  1  0
 28 29  2  0
 12  7  1  0
 19 14  1  0
 29 20  1  0
 28 23  1  0
  3 30  1  0
  4 31  1  0
  4 32  1  0
  8 33  1  0
  8 34  1  0
  9 35  1  0
  9 36  1  0
 10 37  1  0
 10 38  1  0
 11 39  1  0
 11 40  1  0
 12 41  1  6
 13 42  1  0
 13 43  1  0
 15 44  1  0
 16 45  1  0
 17 46  1  0
 18 47  1  0
 19 48  1  0
 21 49  1  0
 22 50  1  0
 24 51  1  0
 25 52  1  0
 26 53  1  0
 27 54  1  0
M  END
>  <smiles>  (67) 
O=C(NCC(=O)N1CCCCC1Cc1ccccc1)c1ccc2ccccc2n1

>  <score_type>  (67) 
oracle

>  <origin>  (67) 
autodockgpu

>  <m_score__min__energy>  (67) 
-9.6199999999999992

>  <m_primary>  (67) 
energy

>  <rmsd>  (67) 
2.6229440627051743

>  <m_score__min__rmsd>  (67) 
2.6229440627051743

>  <meeko>  (67) 
{"free_energy": -8.84, "intermolecular_energy": -10.63, "internal_energy": -2.25, "cluster_size": 8, "cluster_id": 4, "rank_in_cluster": 4}

>  <energy>  (67) 
-8.85

>  <cluster_rmsd>  (67) 
0.99

>  <cluster>  (67) 
1

$$$$

     RDKit          3D

 54 57  0  0  0  0  0  0  0  0999 V2000
  137.3410   76.3410  222.2920 O   0  0  0  0  0  0  0  0  0  0  0  0
  138.6070   76.4470  222.2880 C   0  0  0  0  0  0  0  0  0  0  0  0
  139.4630   75.3790  221.8960 N   0  0  0  0  0  0  0  0  0  0  0  0
  138.9040   74.1090  221.4820 C   0  0  0  0  0  0  0  0  0  0  0  0
  139.8560   73.0560  221.9470 C   0  0  0  0  0  0  0  0  0  0  0  0
  141.0780   73.2550  222.0470 O   0  0  0  0  0  0  0  0  0  0  0  0
  139.3680   71.7600  222.2960 N   0  0  0  0  0  0  0  0  0  0  0  0
  139.1040   70.8010  221.2460 C   0  0  0  0  0  0  0  0  0  0  0  0
  137.7410   70.1600  221.4060 C   0  0  0  0  0  0  0  0  0  0  0  0
  137.5460   69.6420  222.8250 C   0  0  0  0  0  0  0  0  0  0  0  0
  137.7470   70.8090  223.7590 C   0  0  0  0  0  0  0  0  0  0  0  0
  139.1280   71.3840  223.6900 C   0  0  1  0  0  0  0  0  0  0  0  0
  140.1970   70.5060  224.2550 C   0  0  0  0  0  0  0  0  0  0  0  0
  140.4890   70.7470  225.6920 C   0  0  0  0  0  0  0  0  0  0  0  0
  140.0830   69.8960  226.6990 C   0  0  0  0  0  0  0  0  0  0  0  0
  140.3590   70.1250  228.0360 C   0  0  0  0  0  0  0  0  0  0  0  0
  141.0640   71.2430  228.3900 C   0  0  0  0  0  0  0  0  0  0  0  0
  141.4820   72.1130  227.4070 C   0  0  0  0  0  0  0  0  0  0  0  0
  141.2090   71.8880  226.0670 C   0  0  0  0  0  0  0  0  0  0  0  0
  139.2310   77.7170  222.6980 C   0  0  0  0  0  0  0  0  0  0  0  0
  138.4580   78.7870  223.0950 C   0  0  0  0  0  0  0  0  0  0  0  0
  139.0820   79.9810  223.4790 C   0  0  0  0  0  0  0  0  0  0  0  0
  140.4560   80.0900  223.4640 C   0  0  0  0  0  0  0  0  0  0  0  0
  141.1320   81.2340  223.8310 C   0  0  0  0  0  0  0  0  0  0  0  0
  142.5300   81.3010  223.8000 C   0  0  0  0  0  0  0  0  0  0  0  0
  143.2210   80.1760  223.3880 C   0  0  0  0  0  0  0  0  0  0  0  0
  142.5870   79.0140  223.0140 C   0  0  0  0  0  0  0  0  0  0  0  0
  141.1980   79.0030  223.0640 C   0  0  0  0  0  0  0  0  0  0  0  0
  140.5820   77.8660  222.6980 N   0  0  0  0  0  0  0  0  0  0  0  0
  140.4900   75.5250  221.9120 H   0  0  0  0  0  0  0  0  0  0  0  0
  137.9168   73.9596  221.9435 H   0  0  0  0  0  0  0  0  0  0  0  0
  138.7690   74.0700  220.3910 H   0  0  0  0  0  0  0  0  0  0  0  0
  139.1448   71.3152  220.2744 H   0  0  0  0  0  0  0  0  0  0  0  0
  139.8654   70.0093  221.3038 H   0  0  0  0  0  0  0  0  0  0  0  0
  136.9639   70.9067  221.1854 H   0  0  0  0  0  0  0  0  0  0  0  0
  137.6681   69.3117  220.7096 H   0  0  0  0  0  0  0  0  0  0  0  0
  136.5300   69.2369  222.9417 H   0  0  0  0  0  0  0  0  0  0  0  0
  138.2614   68.8367  223.0478 H   0  0  0  0  0  0  0  0  0  0  0  0
  137.0259   71.5968  223.4955 H   0  0  0  0  0  0  0  0  0  0  0  0
  137.5959   70.4393  224.7839 H   0  0  0  0  0  0  0  0  0  0  0  0
  139.1810   72.2676  224.3431 H   0  0  0  0  0  0  0  0  0  0  0  0
  139.8804   69.4590  224.1385 H   0  0  0  0  0  0  0  0  0  0  0  0
  141.1197   70.7371  223.7026 H   0  0  0  0  0  0  0  0  0  0  0  0
  139.5141   68.9946  226.4272 H   0  0  0  0  0  0  0  0  0  0  0  0
  140.0157   69.4168  228.8045 H   0  0  0  0  0  0  0  0  0  0  0  0
  141.2942   71.4446  229.4466 H   0  0  0  0  0  0  0  0  0  0  0  0
  142.0483   73.0114  227.6937 H   0  0  0  0  0  0  0  0  0  0  0  0
  141.5553   72.6004  225.3037 H   0  0  0  0  0  0  0  0  0  0  0  0
  137.3612   78.7041  223.1101 H   0  0  0  0  0  0  0  0  0  0  0  0
  138.4703   80.8388  223.7952 H   0  0  0  0  0  0  0  0  0  0  0  0
  140.5593   82.1152  224.1559 H   0  0  0  0  0  0  0  0  0  0  0  0
  143.0614   82.2183  224.0937 H   0  0  0  0  0  0  0  0  0  0  0  0
  144.3200   80.2119  223.3583 H   0  0  0  0  0  0  0  0  0  0  0  0
  143.1556   78.1302  222.6889 H   0  0  0  0  0  0  0  0  0  0  0  0
  1  2  2  0
  2  3  1  0
  3  4  1  0
  4  5  1  0
  5  6  2  0
  5  7  1  0
  7  8  1  0
  8  9  1  0
  9 10  1  0
 10 11  1  0
 11 12  1  0
 12 13  1  0
 13 14  1  0
 14 15  2  0
 15 16  1  0
 16 17  2  0
 17 18  1  0
 18 19  2  0
  2 20  1  0
 20 21  2  0
 21 22  1  0
 22 23  2  0
 23 24  1  0
 24 25  2  0
 25 26  1  0
 26 27  2  0
 27 28  1  0
 28 29  2  0
 12  7  1  0
 19 14  1  0
 29 20  1  0
 28 23  1  0
  3 30  1  0
  4 31  1  0
  4 32  1  0
  8 33  1  0
  8 34  1  0
  9 35  1  0
  9 36  1  0
 10 37  1  0
 10 38  1  0
 11 39  1  0
 11 40  1  0
 12 41  1  1
 13 42  1  0
 13 43  1  0
 15 44  1  0
 16 45  1  0
 17 46  1  0
 18 47  1  0
 19 48  1  0
 21 49  1  0
 22 50  1  0
 24 51  1  0
 25 52  1  0
 26 53  1  0
 27 54  1  0
M  END
>  <smiles>  (68) 
O=C(NCC(=O)N1CCCCC1Cc1ccccc1)c1ccc2ccccc2n1

>  <score_type>  (68) 
oracle

>  <origin>  (68) 
autodockgpu

>  <m_score__min__energy>  (68) 
-9.6199999999999992

>  <m_primary>  (68) 
energy

>  <rmsd>  (68) 
8.236315860974017

>  <m_score__min__rmsd>  (68) 
8.236315860974017

>  <meeko>  (68) 
{"free_energy": -8.9, "intermolecular_energy": -10.69, "internal_energy": -2.06, "cluster_size": 23, "cluster_id": 1, "rank_in_cluster": 12}

>  <energy>  (68) 
-8.8

>  <cluster_rmsd>  (68) 
1.29

>  <cluster>  (68) 
1

$$$$

     RDKit          3D

 54 57  0  0  0  0  0  0  0  0999 V2000
  138.0480   70.7040  221.8130 O   0  0  0  0  0  0  0  0  0  0  0  0
  138.7620   71.1910  222.7440 C   0  0  0  0  0  0  0  0  0  0  0  0
  139.2360   72.5320  222.7220 N   0  0  0  0  0  0  0  0  0  0  0  0
  138.9130   73.4040  221.6110 C   0  0  0  0  0  0  0  0  0  0  0  0
  139.9390   74.4910  221.6130 C   0  0  0  0  0  0  0  0  0  0  0  0
  141.1110   74.3040  221.9780 O   0  0  0  0  0  0  0  0  0  0  0  0
  139.5830   75.8040  221.1820 N   0  0  0  0  0  0  0  0  0  0  0  0
  138.3640   75.9910  220.4240 C   0  0  0  0  0  0  0  0  0  0  0  0
  138.6010   76.8290  219.1860 C   0  0  0  0  0  0  0  0  0  0  0  0
  139.3560   78.1070  219.5290 C   0  0  0  0  0  0  0  0  0  0  0  0
  140.6420   77.6990  220.2020 C   0  0  0  0  0  0  0  0  0  0  0  0
  140.4230   76.9630  221.4890 C   0  0  1  0  0  0  0  0  0  0  0  0
  139.8860   77.8020  222.6020 C   0  0  0  0  0  0  0  0  0  0  0  0
  140.7310   78.9740  222.9460 C   0  0  0  0  0  0  0  0  0  0  0  0
  142.1100   78.9230  222.9940 C   0  0  0  0  0  0  0  0  0  0  0  0
  142.8930   80.0190  223.3140 C   0  0  0  0  0  0  0  0  0  0  0  0
  142.2870   81.2130  223.5970 C   0  0  0  0  0  0  0  0  0  0  0  0
  140.9120   81.2950  223.5560 C   0  0  0  0  0  0  0  0  0  0  0  0
  140.1230   80.2010  223.2370 C   0  0  0  0  0  0  0  0  0  0  0  0
  139.1210   70.3510  223.9000 C   0  0  0  0  0  0  0  0  0  0  0  0
  138.8380   69.0010  223.9070 C   0  0  0  0  0  0  0  0  0  0  0  0
  139.1920   68.2300  225.0200 C   0  0  0  0  0  0  0  0  0  0  0  0
  139.8200   68.8080  226.1020 C   0  0  0  0  0  0  0  0  0  0  0  0
  140.1960   68.1060  227.2280 C   0  0  0  0  0  0  0  0  0  0  0  0
  140.8320   68.7350  228.3050 C   0  0  0  0  0  0  0  0  0  0  0  0
  141.0750   70.0930  228.2080 C   0  0  0  0  0  0  0  0  0  0  0  0
  140.7170   70.8310  227.1040 C   0  0  0  0  0  0  0  0  0  0  0  0
  140.0890   70.1570  226.0640 C   0  0  0  0  0  0  0  0  0  0  0  0
  139.7410   70.8810  224.9870 N   0  0  0  0  0  0  0  0  0  0  0  0
  139.8160   72.8750  223.5110 H   0  0  0  0  0  0  0  0  0  0  0  0
  138.9536   72.8448  220.6646 H   0  0  0  0  0  0  0  0  0  0  0  0
  137.8975   73.8151  221.7099 H   0  0  0  0  0  0  0  0  0  0  0  0
  137.9779   75.0068  220.1204 H   0  0  0  0  0  0  0  0  0  0  0  0
  137.6391   76.5174  221.0623 H   0  0  0  0  0  0  0  0  0  0  0  0
  139.1909   76.2454  218.4639 H   0  0  0  0  0  0  0  0  0  0  0  0
  137.6263   77.1022  218.7555 H   0  0  0  0  0  0  0  0  0  0  0  0
  139.5741   78.6735  218.6116 H   0  0  0  0  0  0  0  0  0  0  0  0
  138.7560   78.7490  220.1907 H   0  0  0  0  0  0  0  0  0  0  0  0
  141.2043   77.0473  219.5171 H   0  0  0  0  0  0  0  0  0  0  0  0
  141.1946   78.6198  220.4401 H   0  0  0  0  0  0  0  0  0  0  0  0
  141.3958   76.6403  221.8885 H   0  0  0  0  0  0  0  0  0  0  0  0
  138.8914   78.1687  222.3081 H   0  0  0  0  0  0  0  0  0  0  0  0
  139.8582   77.1605  223.4951 H   0  0  0  0  0  0  0  0  0  0  0  0
  142.6087   77.9690  222.7679 H   0  0  0  0  0  0  0  0  0  0  0  0
  143.9892   79.9312  223.3405 H   0  0  0  0  0  0  0  0  0  0  0  0
  142.8900   82.0963  223.8540 H   0  0  0  0  0  0  0  0  0  0  0  0
  140.4269   82.2558  223.7829 H   0  0  0  0  0  0  0  0  0  0  0  0
  139.0274   80.2962  223.2127 H   0  0  0  0  0  0  0  0  0  0  0  0
  138.3384   68.5345  223.0452 H   0  0  0  0  0  0  0  0  0  0  0  0
  138.9670   67.1533  225.0313 H   0  0  0  0  0  0  0  0  0  0  0  0
  139.9914   67.0265  227.2811 H   0  0  0  0  0  0  0  0  0  0  0  0
  141.1288   68.1675  229.1993 H   0  0  0  0  0  0  0  0  0  0  0  0
  141.5736   70.6023  229.0458 H   0  0  0  0  0  0  0  0  0  0  0  0
  140.9196   71.9107  227.0468 H   0  0  0  0  0  0  0  0  0  0  0  0
  1  2  2  0
  2  3  1  0
  3  4  1  0
  4  5  1  0
  5  6  2  0
  5  7  1  0
  7  8  1  0
  8  9  1  0
  9 10  1  0
 10 11  1  0
 11 12  1  0
 12 13  1  0
 13 14  1  0
 14 15  2  0
 15 16  1  0
 16 17  2  0
 17 18  1  0
 18 19  2  0
  2 20  1  0
 20 21  2  0
 21 22  1  0
 22 23  2  0
 23 24  1  0
 24 25  2  0
 25 26  1  0
 26 27  2  0
 27 28  1  0
 28 29  2  0
 12  7  1  0
 19 14  1  0
 29 20  1  0
 28 23  1  0
  3 30  1  0
  4 31  1  0
  4 32  1  0
  8 33  1  0
  8 34  1  0
  9 35  1  0
  9 36  1  0
 10 37  1  0
 10 38  1  0
 11 39  1  0
 11 40  1  0
 12 41  1  1
 13 42  1  0
 13 43  1  0
 15 44  1  0
 16 45  1  0
 17 46  1  0
 18 47  1  0
 19 48  1  0
 21 49  1  0
 22 50  1  0
 24 51  1  0
 25 52  1  0
 26 53  1  0
 27 54  1  0
M  END
>  <smiles>  (69) 
O=C(NCC(=O)N1CCCCC1Cc1ccccc1)c1ccc2ccccc2n1

>  <score_type>  (69) 
oracle

>  <origin>  (69) 
autodockgpu

>  <m_score__min__energy>  (69) 
-9.6199999999999992

>  <m_primary>  (69) 
energy

>  <rmsd>  (69) 
1.9847395702206947

>  <m_score__min__rmsd>  (69) 
1.9847395702206947

>  <meeko>  (69) 
{"free_energy": -8.72, "intermolecular_energy": -10.51, "internal_energy": -1.88, "cluster_size": 17, "cluster_id": 2, "rank_in_cluster": 15}

>  <energy>  (69) 
-8.7

>  <cluster_rmsd>  (69) 
1.21

>  <cluster>  (69) 
1

$$$$

     RDKit          3D

 54 57  0  0  0  0  0  0  0  0999 V2000
  141.4740   74.7510  220.9380 O   0  0  0  0  0  0  0  0  0  0  0  0
  140.4990   75.0000  221.7140 C   0  0  0  0  0  0  0  0  0  0  0  0
  139.6190   73.9850  222.1840 N   0  0  0  0  0  0  0  0  0  0  0  0
  139.8100   72.6070  221.7810 C   0  0  0  0  0  0  0  0  0  0  0  0
  138.8220   71.7980  222.5570 C   0  0  0  0  0  0  0  0  0  0  0  0
  137.8340   72.3020  223.1140 O   0  0  0  0  0  0  0  0  0  0  0  0
  138.9990   70.3860  222.6770 N   0  0  0  0  0  0  0  0  0  0  0  0
  139.4860   69.6380  221.5380 C   0  0  0  0  0  0  0  0  0  0  0  0
  138.6380   68.4110  221.2740 C   0  0  0  0  0  0  0  0  0  0  0  0
  138.4400   67.6010  222.5490 C   0  0  0  0  0  0  0  0  0  0  0  0
  137.8200   68.5190  223.5700 C   0  0  0  0  0  0  0  0  0  0  0  0
  138.6960   69.6810  223.9240 C   0  0  1  0  0  0  0  0  0  0  0  0
  139.9160   69.3250  224.7090 C   0  0  0  0  0  0  0  0  0  0  0  0
  140.1850   70.2230  225.8610 C   0  0  0  0  0  0  0  0  0  0  0  0
  140.8740   71.4130  225.7470 C   0  0  0  0  0  0  0  0  0  0  0  0
  141.1200   72.2480  226.8240 C   0  0  0  0  0  0  0  0  0  0  0  0
  140.6660   71.8890  228.0640 C   0  0  0  0  0  0  0  0  0  0  0  0
  139.9740   70.7060  228.2090 C   0  0  0  0  0  0  0  0  0  0  0  0
  139.7250   69.8680  227.1350 C   0  0  0  0  0  0  0  0  0  0  0  0
  140.2570   76.3830  222.1580 C   0  0  0  0  0  0  0  0  0  0  0  0
  138.9730   76.8580  222.3200 C   0  0  0  0  0  0  0  0  0  0  0  0
  138.7760   78.1780  222.7430 C   0  0  0  0  0  0  0  0  0  0  0  0
  139.8530   79.0000  222.9980 C   0  0  0  0  0  0  0  0  0  0  0  0
  139.7290   80.3070  223.4180 C   0  0  0  0  0  0  0  0  0  0  0  0
  140.8510   81.1070  223.6650 C   0  0  0  0  0  0  0  0  0  0  0  0
  142.0990   80.5440  223.4750 C   0  0  0  0  0  0  0  0  0  0  0  0
  142.2690   79.2440  223.0580 C   0  0  0  0  0  0  0  0  0  0  0  0
  141.1210   78.4950  222.8280 C   0  0  0  0  0  0  0  0  0  0  0  0
  141.2910   77.2260  222.4200 N   0  0  0  0  0  0  0  0  0  0  0  0
  138.8400   74.2470  222.8170 H   0  0  0  0  0  0  0  0  0  0  0  0
  139.6269   72.4977  220.7019 H   0  0  0  0  0  0  0  0  0  0  0  0
  140.8396   72.2737  221.9779 H   0  0  0  0  0  0  0  0  0  0  0  0
  139.4634   70.2857  220.6492 H   0  0  0  0  0  0  0  0  0  0  0  0
  140.5121   69.3071  221.7564 H   0  0  0  0  0  0  0  0  0  0  0  0
  137.6560   68.7274  220.8925 H   0  0  0  0  0  0  0  0  0  0  0  0
  139.1534   67.7807  220.5343 H   0  0  0  0  0  0  0  0  0  0  0  0
  137.7723   66.7489  222.3540 H   0  0  0  0  0  0  0  0  0  0  0  0
  139.3998   67.2052  222.9124 H   0  0  0  0  0  0  0  0  0  0  0  0
  136.8732   68.9051  223.1645 H   0  0  0  0  0  0  0  0  0  0  0  0
  137.6662   67.9326  224.4879 H   0  0  0  0  0  0  0  0  0  0  0  0
  138.1539   70.3392  224.6190 H   0  0  0  0  0  0  0  0  0  0  0  0
  139.7928   68.3011  225.0917 H   0  0  0  0  0  0  0  0  0  0  0  0
  140.7714   69.4255  224.0247 H   0  0  0  0  0  0  0  0  0  0  0  0
  141.2447   71.7120  224.7555 H   0  0  0  0  0  0  0  0  0  0  0  0
  141.6735   73.1883  226.6845 H   0  0  0  0  0  0  0  0  0  0  0  0
  140.8510   72.5363  228.9339 H   0  0  0  0  0  0  0  0  0  0  0  0
  139.6090   70.4193  229.2063 H   0  0  0  0  0  0  0  0  0  0  0  0
  139.1697   68.9299  227.2817 H   0  0  0  0  0  0  0  0  0  0  0  0
  138.1106   76.2055  222.1187 H   0  0  0  0  0  0  0  0  0  0  0  0
  137.7536   78.5624  222.8729 H   0  0  0  0  0  0  0  0  0  0  0  0
  138.7246   80.7315  223.5625 H   0  0  0  0  0  0  0  0  0  0  0  0
  140.7430   82.1494  223.9993 H   0  0  0  0  0  0  0  0  0  0  0  0
  142.9909   81.1593  223.6646 H   0  0  0  0  0  0  0  0  0  0  0  0
  143.2715   78.8153  222.9127 H   0  0  0  0  0  0  0  0  0  0  0  0
  1  2  2  0
  2  3  1  0
  3  4  1  0
  4  5  1  0
  5  6  2  0
  5  7  1  0
  7  8  1  0
  8  9  1  0
  9 10  1  0
 10 11  1  0
 11 12  1  0
 12 13  1  0
 13 14  1  0
 14 15  2  0
 15 16  1  0
 16 17  2  0
 17 18  1  0
 18 19  2  0
  2 20  1  0
 20 21  2  0
 21 22  1  0
 22 23  2  0
 23 24  1  0
 24 25  2  0
 25 26  1  0
 26 27  2  0
 27 28  1  0
 28 29  2  0
 12  7  1  0
 19 14  1  0
 29 20  1  0
 28 23  1  0
  3 30  1  0
  4 31  1  0
  4 32  1  0
  8 33  1  0
  8 34  1  0
  9 35  1  0
  9 36  1  0
 10 37  1  0
 10 38  1  0
 11 39  1  0
 11 40  1  0
 12 41  1  1
 13 42  1  0
 13 43  1  0
 15 44  1  0
 16 45  1  0
 17 46  1  0
 18 47  1  0
 19 48  1  0
 21 49  1  0
 22 50  1  0
 24 51  1  0
 25 52  1  0
 26 53  1  0
 27 54  1  0
M  END
>  <smiles>  (70) 
O=C(NCC(=O)N1CCCCC1Cc1ccccc1)c1ccc2ccccc2n1

>  <score_type>  (70) 
oracle

>  <origin>  (70) 
autodockgpu

>  <m_score__min__energy>  (70) 
-9.6199999999999992

>  <m_primary>  (70) 
energy

>  <rmsd>  (70) 
8.242932606889793

>  <m_score__min__rmsd>  (70) 
8.242932606889793

>  <meeko>  (70) 
{"free_energy": -8.7, "intermolecular_energy": -10.49, "internal_energy": -1.98, "cluster_size": 23, "cluster_id": 1, "rank_in_cluster": 20}

>  <energy>  (70) 
-8.7

>  <cluster_rmsd>  (70) 
1.24

>  <cluster>  (70) 
1

$$$$

     RDKit          3D

 54 57  0  0  0  0  0  0  0  0999 V2000
  136.9810   76.2720  222.4190 O   0  0  0  0  0  0  0  0  0  0  0  0
  138.2480   76.3630  222.4670 C   0  0  0  0  0  0  0  0  0  0  0  0
  139.1030   75.2480  222.2420 N   0  0  0  0  0  0  0  0  0  0  0  0
  138.5440   73.9440  221.9460 C   0  0  0  0  0  0  0  0  0  0  0  0
  139.5850   72.9410  222.3210 C   0  0  0  0  0  0  0  0  0  0  0  0
  140.7760   73.2460  222.4980 O   0  0  0  0  0  0  0  0  0  0  0  0
  139.2230   71.5700  222.4900 N   0  0  0  0  0  0  0  0  0  0  0  0
  139.2190   70.6960  221.3380 C   0  0  0  0  0  0  0  0  0  0  0  0
  137.9380   69.8920  221.2530 C   0  0  0  0  0  0  0  0  0  0  0  0
  137.6290   69.2180  222.5820 C   0  0  0  0  0  0  0  0  0  0  0  0
  137.5600   70.3010  223.6280 C   0  0  0  0  0  0  0  0  0  0  0  0
  138.8550   71.0330  223.8010 C   0  0  1  0  0  0  0  0  0  0  0  0
  139.9440   70.2300  224.4350 C   0  0  0  0  0  0  0  0  0  0  0  0
  140.3210   70.6840  225.7980 C   0  0  0  0  0  0  0  0  0  0  0  0
  139.9720   70.0010  226.9460 C   0  0  0  0  0  0  0  0  0  0  0  0
  140.3270   70.4280  228.2140 C   0  0  0  0  0  0  0  0  0  0  0  0
  141.0580   71.5770  228.3520 C   0  0  0  0  0  0  0  0  0  0  0  0
  141.4220   72.2800  227.2240 C   0  0  0  0  0  0  0  0  0  0  0  0
  141.0690   71.8580  225.9530 C   0  0  0  0  0  0  0  0  0  0  0  0
  138.8730   77.6630  222.7620 C   0  0  0  0  0  0  0  0  0  0  0  0
  138.1000   78.7700  223.0430 C   0  0  0  0  0  0  0  0  0  0  0  0
  138.7250   79.9930  223.3200 C   0  0  0  0  0  0  0  0  0  0  0  0
  140.0990   80.0940  223.3150 C   0  0  0  0  0  0  0  0  0  0  0  0
  140.7760   81.2660  223.5800 C   0  0  0  0  0  0  0  0  0  0  0  0
  142.1750   81.3240  223.5630 C   0  0  0  0  0  0  0  0  0  0  0  0
  142.8660   80.1620  223.2720 C   0  0  0  0  0  0  0  0  0  0  0  0
  142.2310   78.9720  223.0010 C   0  0  0  0  0  0  0  0  0  0  0  0
  140.8420   78.9710  223.0320 C   0  0  0  0  0  0  0  0  0  0  0  0
  140.2250   77.8070  222.7670 N   0  0  0  0  0  0  0  0  0  0  0  0
  140.1300   75.3820  222.2930 H   0  0  0  0  0  0  0  0  0  0  0  0
  137.6292   73.7803  222.5345 H   0  0  0  0  0  0  0  0  0  0  0  0
  138.2745   73.8589  220.8829 H   0  0  0  0  0  0  0  0  0  0  0  0
  139.3194   71.3050  220.4275 H   0  0  0  0  0  0  0  0  0  0  0  0
  140.0602   69.9940  221.4356 H   0  0  0  0  0  0  0  0  0  0  0  0
  137.1082   70.5640  220.9888 H   0  0  0  0  0  0  0  0  0  0  0  0
  138.0625   69.1138  220.4856 H   0  0  0  0  0  0  0  0  0  0  0  0
  136.6654   68.6908  222.5217 H   0  0  0  0  0  0  0  0  0  0  0  0
  138.4055   68.4810  222.8349 H   0  0  0  0  0  0  0  0  0  0  0  0
  136.7856   71.0243  223.3327 H   0  0  0  0  0  0  0  0  0  0  0  0
  137.3261   69.8164  224.5874 H   0  0  0  0  0  0  0  0  0  0  0  0
  138.7123   71.8477  224.5262 H   0  0  0  0  0  0  0  0  0  0  0  0
  139.6084   69.1845  224.5002 H   0  0  0  0  0  0  0  0  0  0  0  0
  140.8360   70.3528  223.8031 H   0  0  0  0  0  0  0  0  0  0  0  0
  139.3853   69.0756  226.8486 H   0  0  0  0  0  0  0  0  0  0  0  0
  140.0252   69.8507  229.1004 H   0  0  0  0  0  0  0  0  0  0  0  0
  141.3510   71.9345  229.3502 H   0  0  0  0  0  0  0  0  0  0  0  0
  142.0099   73.2029  227.3363 H   0  0  0  0  0  0  0  0  0  0  0  0
  141.3740   72.4408  225.0713 H   0  0  0  0  0  0  0  0  0  0  0  0
  137.0027   78.6935  223.0496 H   0  0  0  0  0  0  0  0  0  0  0  0
  138.1137   80.8798  223.5433 H   0  0  0  0  0  0  0  0  0  0  0  0
  140.2035   82.1766  223.8101 H   0  0  0  0  0  0  0  0  0  0  0  0
  142.7070   82.2633  223.7743 H   0  0  0  0  0  0  0  0  0  0  0  0
  143.9655   80.1903  223.2566 H   0  0  0  0  0  0  0  0  0  0  0  0
  142.7994   78.0592  222.7694 H   0  0  0  0  0  0  0  0  0  0  0  0
  1  2  2  0
  2  3  1  0
  3  4  1  0
  4  5  1  0
  5  6  2  0
  5  7  1  0
  7  8  1  0
  8  9  1  0
  9 10  1  0
 10 11  1  0
 11 12  1  0
 12 13  1  0
 13 14  1  0
 14 15  2  0
 15 16  1  0
 16 17  2  0
 17 18  1  0
 18 19  2  0
  2 20  1  0
 20 21  2  0
 21 22  1  0
 22 23  2  0
 23 24  1  0
 24 25  2  0
 25 26  1  0
 26 27  2  0
 27 28  1  0
 28 29  2  0
 12  7  1  0
 19 14  1  0
 29 20  1  0
 28 23  1  0
  3 30  1  0
  4 31  1  0
  4 32  1  0
  8 33  1  0
  8 34  1  0
  9 35  1  0
  9 36  1  0
 10 37  1  0
 10 38  1  0
 11 39  1  0
 11 40  1  0
 12 41  1  1
 13 42  1  0
 13 43  1  0
 15 44  1  0
 16 45  1  0
 17 46  1  0
 18 47  1  0
 19 48  1  0
 21 49  1  0
 22 50  1  0
 24 51  1  0
 25 52  1  0
 26 53  1  0
 27 54  1  0
M  END
>  <smiles>  (71) 
O=C(NCC(=O)N1CCCCC1Cc1ccccc1)c1ccc2ccccc2n1

>  <score_type>  (71) 
oracle

>  <origin>  (71) 
autodockgpu

>  <m_score__min__energy>  (71) 
-9.6199999999999992

>  <m_primary>  (71) 
energy

>  <rmsd>  (71) 
8.320375700521486

>  <m_score__min__rmsd>  (71) 
8.320375700521486

>  <meeko>  (71) 
{"free_energy": -8.94, "intermolecular_energy": -10.73, "internal_energy": -2.2, "cluster_size": 23, "cluster_id": 1, "rank_in_cluster": 8}

>  <energy>  (71) 
-8.68

>  <cluster_rmsd>  (71) 
1.55

>  <cluster>  (71) 
1

$$$$

     RDKit          3D

 54 57  0  0  0  0  0  0  0  0999 V2000
  140.6570   71.8310  221.0070 O   0  0  0  0  0  0  0  0  0  0  0  0
  140.2430   72.3580  222.0870 C   0  0  0  0  0  0  0  0  0  0  0  0
  139.9250   73.7410  222.1890 N   0  0  0  0  0  0  0  0  0  0  0  0
  140.0660   74.6120  221.0400 C   0  0  0  0  0  0  0  0  0  0  0  0
  140.6230   75.9000  221.5500 C   0  0  0  0  0  0  0  0  0  0  0  0
  140.4810   76.2720  222.7260 O   0  0  0  0  0  0  0  0  0  0  0  0
  141.3530   76.7560  220.6710 N   0  0  0  0  0  0  0  0  0  0  0  0
  141.4300   78.1700  220.9680 C   0  0  0  0  0  0  0  0  0  0  0  0
  141.1030   79.0140  219.7540 C   0  0  0  0  0  0  0  0  0  0  0  0
  141.9050   78.5590  218.5420 C   0  0  0  0  0  0  0  0  0  0  0  0
  141.6010   77.0980  218.3270 C   0  0  0  0  0  0  0  0  0  0  0  0
  142.0210   76.2350  219.4770 C   0  0  1  0  0  0  0  0  0  0  0  0
  143.4990   76.0960  219.6430 C   0  0  0  0  0  0  0  0  0  0  0  0
  143.9430   74.7340  220.0380 C   0  0  0  0  0  0  0  0  0  0  0  0
  143.1300   73.6220  219.9580 C   0  0  0  0  0  0  0  0  0  0  0  0
  143.5490   72.3550  220.3260 C   0  0  0  0  0  0  0  0  0  0  0  0
  144.8240   72.1830  220.7940 C   0  0  0  0  0  0  0  0  0  0  0  0
  145.6580   73.2750  220.8860 C   0  0  0  0  0  0  0  0  0  0  0  0
  145.2440   74.5450  220.5180 C   0  0  0  0  0  0  0  0  0  0  0  0
  140.0790   71.5210  223.2880 C   0  0  0  0  0  0  0  0  0  0  0  0
  139.4100   70.3180  223.2240 C   0  0  0  0  0  0  0  0  0  0  0  0
  139.2700   69.5450  224.3840 C   0  0  0  0  0  0  0  0  0  0  0  0
  139.7980   69.9780  225.5810 C   0  0  0  0  0  0  0  0  0  0  0  0
  139.6970   69.2670  226.7580 C   0  0  0  0  0  0  0  0  0  0  0  0
  140.2480   69.7450  227.9530 C   0  0  0  0  0  0  0  0  0  0  0  0
  140.9020   70.9630  227.9200 C   0  0  0  0  0  0  0  0  0  0  0  0
  141.0250   71.7060  226.7690 C   0  0  0  0  0  0  0  0  0  0  0  0
  140.4610   71.1840  225.6120 C   0  0  0  0  0  0  0  0  0  0  0  0
  140.5840   71.9120  224.4890 N   0  0  0  0  0  0  0  0  0  0  0  0
  139.5910   74.1160  223.0970 H   0  0  0  0  0  0  0  0  0  0  0  0
  140.7529   74.1650  220.3063 H   0  0  0  0  0  0  0  0  0  0  0  0
  139.0997   74.7676  220.5379 H   0  0  0  0  0  0  0  0  0  0  0  0
  140.7146   78.4057  221.7697 H   0  0  0  0  0  0  0  0  0  0  0  0
  142.4595   78.4002  221.2795 H   0  0  0  0  0  0  0  0  0  0  0  0
  140.0299   78.9224  219.5305 H   0  0  0  0  0  0  0  0  0  0  0  0
  141.3625   80.0601  219.9738 H   0  0  0  0  0  0  0  0  0  0  0  0
  141.6097   79.1395  217.6555 H   0  0  0  0  0  0  0  0  0  0  0  0
  142.9816   78.7129  218.7069 H   0  0  0  0  0  0  0  0  0  0  0  0
  140.5167   76.9838  218.1813 H   0  0  0  0  0  0  0  0  0  0  0  0
  142.1718   76.7705  217.4455 H   0  0  0  0  0  0  0  0  0  0  0  0
  141.7088   75.1987  219.2807 H   0  0  0  0  0  0  0  0  0  0  0  0
  143.9789   76.3513  218.6867 H   0  0  0  0  0  0  0  0  0  0  0  0
  143.7899   76.7723  220.4603 H   0  0  0  0  0  0  0  0  0  0  0  0
  142.1028   73.7480  219.5850 H   0  0  0  0  0  0  0  0  0  0  0  0
  142.8658   71.4969  220.2434 H   0  0  0  0  0  0  0  0  0  0  0  0
  145.1778   71.1852  221.0928 H   0  0  0  0  0  0  0  0  0  0  0  0
  146.6821   73.1350  221.2624 H   0  0  0  0  0  0  0  0  0  0  0  0
  145.9328   75.3985  220.6025 H   0  0  0  0  0  0  0  0  0  0  0  0
  138.9894   69.9675  222.2700 H   0  0  0  0  0  0  0  0  0  0  0  0
  138.7346   68.5852  224.3390 H   0  0  0  0  0  0  0  0  0  0  0  0
  139.1709   68.3010  226.7581 H   0  0  0  0  0  0  0  0  0  0  0  0
  140.1635   69.1707  228.8873 H   0  0  0  0  0  0  0  0  0  0  0  0
  141.3409   71.3528  228.8503 H   0  0  0  0  0  0  0  0  0  0  0  0
  141.5483   72.6735  226.7650 H   0  0  0  0  0  0  0  0  0  0  0  0
  1  2  2  0
  2  3  1  0
  3  4  1  0
  4  5  1  0
  5  6  2  0
  5  7  1  0
  7  8  1  0
  8  9  1  0
  9 10  1  0
 10 11  1  0
 11 12  1  0
 12 13  1  0
 13 14  1  0
 14 15  2  0
 15 16  1  0
 16 17  2  0
 17 18  1  0
 18 19  2  0
  2 20  1  0
 20 21  2  0
 21 22  1  0
 22 23  2  0
 23 24  1  0
 24 25  2  0
 25 26  1  0
 26 27  2  0
 27 28  1  0
 28 29  2  0
 12  7  1  0
 19 14  1  0
 29 20  1  0
 28 23  1  0
  3 30  1  0
  4 31  1  0
  4 32  1  0
  8 33  1  0
  8 34  1  0
  9 35  1  0
  9 36  1  0
 10 37  1  0
 10 38  1  0
 11 39  1  0
 11 40  1  0
 12 41  1  6
 13 42  1  0
 13 43  1  0
 15 44  1  0
 16 45  1  0
 17 46  1  0
 18 47  1  0
 19 48  1  0
 21 49  1  0
 22 50  1  0
 24 51  1  0
 25 52  1  0
 26 53  1  0
 27 54  1  0
M  END
>  <smiles>  (72) 
O=C(NCC(=O)N1CCCCC1Cc1ccccc1)c1ccc2ccccc2n1

>  <score_type>  (72) 
oracle

>  <origin>  (72) 
autodockgpu

>  <m_score__min__energy>  (72) 
-9.6199999999999992

>  <m_primary>  (72) 
energy

>  <rmsd>  (72) 
2.493719719355964

>  <m_score__min__rmsd>  (72) 
2.493719719355964

>  <meeko>  (72) 
{"free_energy": -8.65, "intermolecular_energy": -10.44, "internal_energy": -2.28, "cluster_size": 8, "cluster_id": 4, "rank_in_cluster": 8}

>  <energy>  (72) 
-8.6

>  <cluster_rmsd>  (72) 
1.3

>  <cluster>  (72) 
1

$$$$

     RDKit          3D

 54 57  0  0  0  0  0  0  0  0999 V2000
  140.1850   75.5730  220.3990 O   0  0  0  0  0  0  0  0  0  0  0  0
  139.6900   75.8310  221.5410 C   0  0  0  0  0  0  0  0  0  0  0  0
  138.9080   74.8890  222.2660 N   0  0  0  0  0  0  0  0  0  0  0  0
  138.6450   73.5760  221.7120 C   0  0  0  0  0  0  0  0  0  0  0  0
  139.6350   72.6470  222.3330 C   0  0  0  0  0  0  0  0  0  0  0  0
  140.7600   73.0190  222.7050 O   0  0  0  0  0  0  0  0  0  0  0  0
  139.3000   71.2720  222.5190 N   0  0  0  0  0  0  0  0  0  0  0  0
  139.3710   70.3710  221.3890 C   0  0  0  0  0  0  0  0  0  0  0  0
  138.1170   69.5320  221.2640 C   0  0  0  0  0  0  0  0  0  0  0  0
  137.7630   68.8810  222.5940 C   0  0  0  0  0  0  0  0  0  0  0  0
  137.6180   69.9860  223.6090 C   0  0  0  0  0  0  0  0  0  0  0  0
  138.8840   70.7550  223.8240 C   0  0  1  0  0  0  0  0  0  0  0  0
  139.9620   69.9960  224.5270 C   0  0  0  0  0  0  0  0  0  0  0  0
  140.3440   70.5610  225.8470 C   0  0  0  0  0  0  0  0  0  0  0  0
  141.0730   71.7240  225.9890 C   0  0  0  0  0  0  0  0  0  0  0  0
  141.4250   72.2460  227.2220 C   0  0  0  0  0  0  0  0  0  0  0  0
  141.0410   71.5890  228.3600 C   0  0  0  0  0  0  0  0  0  0  0  0
  140.3120   70.4250  228.2500 C   0  0  0  0  0  0  0  0  0  0  0  0
  139.9570   69.8980  227.0180 C   0  0  0  0  0  0  0  0  0  0  0  0
  139.9260   77.1500  222.1540 C   0  0  0  0  0  0  0  0  0  0  0  0
  138.8790   77.8890  222.6630 C   0  0  0  0  0  0  0  0  0  0  0  0
  139.1360   79.1390  223.2400 C   0  0  0  0  0  0  0  0  0  0  0  0
  140.4220   79.6300  223.3030 C   0  0  0  0  0  0  0  0  0  0  0  0
  140.7430   80.8500  223.8580 C   0  0  0  0  0  0  0  0  0  0  0  0
  142.0650   81.3110  223.9000 C   0  0  0  0  0  0  0  0  0  0  0  0
  143.0490   80.5000  223.3650 C   0  0  0  0  0  0  0  0  0  0  0  0
  142.7720   79.2760  222.8020 C   0  0  0  0  0  0  0  0  0  0  0  0
  141.4440   78.8670  222.7870 C   0  0  0  0  0  0  0  0  0  0  0  0
  141.1780   77.6710  222.2370 N   0  0  0  0  0  0  0  0  0  0  0  0
  138.5300   75.1550  223.1940 H   0  0  0  0  0  0  0  0  0  0  0  0
  137.6207   73.2586  221.9569 H   0  0  0  0  0  0  0  0  0  0  0  0
  138.7380   73.5811  220.6160 H   0  0  0  0  0  0  0  0  0  0  0  0
  139.4985   70.9612  220.4696 H   0  0  0  0  0  0  0  0  0  0  0  0
  140.2237   69.6934  221.5430 H   0  0  0  0  0  0  0  0  0  0  0  0
  137.2837   70.1754  220.9450 H   0  0  0  0  0  0  0  0  0  0  0  0
  138.2971   68.7399  220.5223 H   0  0  0  0  0  0  0  0  0  0  0  0
  136.8168   68.3275  222.5022 H   0  0  0  0  0  0  0  0  0  0  0  0
  138.5450   68.1707  222.9004 H   0  0  0  0  0  0  0  0  0  0  0  0
  136.8405   70.6818  223.2605 H   0  0  0  0  0  0  0  0  0  0  0  0
  137.3515   69.5178  224.5680 H   0  0  0  0  0  0  0  0  0  0  0  0
  138.6864   71.5818  224.5221 H   0  0  0  0  0  0  0  0  0  0  0  0
  139.6129   68.9644  224.6814 H   0  0  0  0  0  0  0  0  0  0  0  0
  140.8560   70.0527  223.8886 H   0  0  0  0  0  0  0  0  0  0  0  0
  141.3886   72.2603  225.0819 H   0  0  0  0  0  0  0  0  0  0  0  0
  142.0063   73.1776  227.2865 H   0  0  0  0  0  0  0  0  0  0  0  0
  141.3111   71.9854  229.3499 H   0  0  0  0  0  0  0  0  0  0  0  0
  140.0030   69.8992  229.1655 H   0  0  0  0  0  0  0  0  0  0  0  0
  139.3756   68.9659  226.9607 H   0  0  0  0  0  0  0  0  0  0  0  0
  137.8511   77.5002  222.6163 H   0  0  0  0  0  0  0  0  0  0  0  0
  138.3045   79.7337  223.6462 H   0  0  0  0  0  0  0  0  0  0  0  0
  139.9422   81.4764  224.2779 H   0  0  0  0  0  0  0  0  0  0  0  0
  142.3124   82.2865  224.3441 H   0  0  0  0  0  0  0  0  0  0  0  0
  144.0926   80.8468  223.3907 H   0  0  0  0  0  0  0  0  0  0  0  0
  143.5695   78.6463  222.3806 H   0  0  0  0  0  0  0  0  0  0  0  0
  1  2  2  0
  2  3  1  0
  3  4  1  0
  4  5  1  0
  5  6  2  0
  5  7  1  0
  7  8  1  0
  8  9  1  0
  9 10  1  0
 10 11  1  0
 11 12  1  0
 12 13  1  0
 13 14  1  0
 14 15  2  0
 15 16  1  0
 16 17  2  0
 17 18  1  0
 18 19  2  0
  2 20  1  0
 20 21  2  0
 21 22  1  0
 22 23  2  0
 23 24  1  0
 24 25  2  0
 25 26  1  0
 26 27  2  0
 27 28  1  0
 28 29  2  0
 12  7  1  0
 19 14  1  0
 29 20  1  0
 28 23  1  0
  3 30  1  0
  4 31  1  0
  4 32  1  0
  8 33  1  0
  8 34  1  0
  9 35  1  0
  9 36  1  0
 10 37  1  0
 10 38  1  0
 11 39  1  0
 11 40  1  0
 12 41  1  1
 13 42  1  0
 13 43  1  0
 15 44  1  0
 16 45  1  0
 17 46  1  0
 18 47  1  0
 19 48  1  0
 21 49  1  0
 22 50  1  0
 24 51  1  0
 25 52  1  0
 26 53  1  0
 27 54  1  0
M  END
>  <smiles>  (73) 
O=C(NCC(=O)N1CCCCC1Cc1ccccc1)c1ccc2ccccc2n1

>  <score_type>  (73) 
oracle

>  <origin>  (73) 
autodockgpu

>  <m_score__min__energy>  (73) 
-9.6199999999999992

>  <m_primary>  (73) 
energy

>  <rmsd>  (73) 
8.196276041395112

>  <m_score__min__rmsd>  (73) 
8.196276041395112

>  <meeko>  (73) 
{"free_energy": -9.57, "intermolecular_energy": -11.36, "internal_energy": -1.37, "cluster_size": 23, "cluster_id": 1, "rank_in_cluster": 2}

>  <energy>  (73) 
-8.12

>  <cluster_rmsd>  (73) 
1.47

>  <cluster>  (73) 
1

$$$$

     RDKit          3D

 54 57  0  0  0  0  0  0  0  0999 V2000
  137.2810   76.0720  222.4510 O   0  0  0  0  0  0  0  0  0  0  0  0
  138.5430   76.2280  222.4600 C   0  0  0  0  0  0  0  0  0  0  0  0
  139.4470   75.1560  222.2190 N   0  0  0  0  0  0  0  0  0  0  0  0
  138.9480   73.8230  221.9500 C   0  0  0  0  0  0  0  0  0  0  0  0
  140.1150   72.9000  222.0780 C   0  0  0  0  0  0  0  0  0  0  0  0
  141.2570   73.2090  221.7030 O   0  0  0  0  0  0  0  0  0  0  0  0
  139.9360   71.6040  222.6500 N   0  0  0  0  0  0  0  0  0  0  0  0
  139.9370   70.4450  221.7840 C   0  0  0  0  0  0  0  0  0  0  0  0
  138.7600   69.5360  222.0680 C   0  0  0  0  0  0  0  0  0  0  0  0
  138.6510   69.2350  223.5570 C   0  0  0  0  0  0  0  0  0  0  0  0
  138.5430   70.5570  224.2730 C   0  0  0  0  0  0  0  0  0  0  0  0
  139.7510   71.4240  224.0910 C   0  0  1  0  0  0  0  0  0  0  0  0
  140.9790   70.9340  224.7860 C   0  0  0  0  0  0  0  0  0  0  0  0
  140.7130   70.1880  226.0430 C   0  0  0  0  0  0  0  0  0  0  0  0
  140.8580   68.8210  226.1540 C   0  0  0  0  0  0  0  0  0  0  0  0
  140.6100   68.1300  227.3290 C   0  0  0  0  0  0  0  0  0  0  0  0
  140.2000   68.8220  228.4360 C   0  0  0  0  0  0  0  0  0  0  0  0
  140.0460   70.1890  228.3550 C   0  0  0  0  0  0  0  0  0  0  0  0
  140.2940   70.8850  227.1820 C   0  0  0  0  0  0  0  0  0  0  0  0
  139.1080   77.5620  222.7270 C   0  0  0  0  0  0  0  0  0  0  0  0
  138.2850   78.6560  222.8980 C   0  0  0  0  0  0  0  0  0  0  0  0
  138.8530   79.9110  223.1500 C   0  0  0  0  0  0  0  0  0  0  0  0
  140.2220   80.0570  223.2290 C   0  0  0  0  0  0  0  0  0  0  0  0
  140.8440   81.2620  223.4750 C   0  0  0  0  0  0  0  0  0  0  0  0
  142.2390   81.3650  223.5460 C   0  0  0  0  0  0  0  0  0  0  0  0
  142.9820   80.2140  223.3620 C   0  0  0  0  0  0  0  0  0  0  0  0
  142.4020   78.9910  223.1140 C   0  0  0  0  0  0  0  0  0  0  0  0
  141.0140   78.9460  223.0540 C   0  0  0  0  0  0  0  0  0  0  0  0
  140.4510   77.7500  222.8120 N   0  0  0  0  0  0  0  0  0  0  0  0
  140.4670   75.3440  222.2380 H   0  0  0  0  0  0  0  0  0  0  0  0
  138.1692   73.5544  222.6789 H   0  0  0  0  0  0  0  0  0  0  0  0
  138.4994   73.7607  220.9475 H   0  0  0  0  0  0  0  0  0  0  0  0
  139.8843   70.7810  220.7379 H   0  0  0  0  0  0  0  0  0  0  0  0
  140.8616   69.8784  221.9685 H   0  0  0  0  0  0  0  0  0  0  0  0
  137.8356   70.0284  221.7317 H   0  0  0  0  0  0  0  0  0  0  0  0
  138.9098   68.5891  221.5286 H   0  0  0  0  0  0  0  0  0  0  0  0
  137.7565   68.6258  223.7537 H   0  0  0  0  0  0  0  0  0  0  0  0
  139.5293   68.6725  223.9067 H   0  0  0  0  0  0  0  0  0  0  0  0
  137.6648   71.0943  223.8856 H   0  0  0  0  0  0  0  0  0  0  0  0
  138.4527   70.3415  225.3479 H   0  0  0  0  0  0  0  0  0  0  0  0
  139.5754   72.3925  224.5822 H   0  0  0  0  0  0  0  0  0  0  0  0
  141.5216   70.2684  224.0986 H   0  0  0  0  0  0  0  0  0  0  0  0
  141.5600   71.8253  225.0653 H   0  0  0  0  0  0  0  0  0  0  0  0
  141.1852   68.2539  225.2701 H   0  0  0  0  0  0  0  0  0  0  0  0
  140.7411   67.0387  227.3714 H   0  0  0  0  0  0  0  0  0  0  0  0
  139.9958   68.2936  229.3789 H   0  0  0  0  0  0  0  0  0  0  0  0
  139.7170   70.7436  229.2462 H   0  0  0  0  0  0  0  0  0  0  0  0
  140.1625   71.9765  227.1468 H   0  0  0  0  0  0  0  0  0  0  0  0
  137.1925   78.5435  222.8369 H   0  0  0  0  0  0  0  0  0  0  0  0
  138.2020   80.7872  223.2860 H   0  0  0  0  0  0  0  0  0  0  0  0
  140.2307   82.1637  223.6189 H   0  0  0  0  0  0  0  0  0  0  0  0
  142.7277   82.3308  223.7419 H   0  0  0  0  0  0  0  0  0  0  0  0
  144.0788   80.2781  223.4159 H   0  0  0  0  0  0  0  0  0  0  0  0
  143.0113   78.0867  222.9693 H   0  0  0  0  0  0  0  0  0  0  0  0
  1  2  2  0
  2  3  1  0
  3  4  1  0
  4  5  1  0
  5  6  2  0
  5  7  1  0
  7  8  1  0
  8  9  1  0
  9 10  1  0
 10 11  1  0
 11 12  1  0
 12 13  1  0
 13 14  1  0
 14 15  2  0
 15 16  1  0
 16 17  2  0
 17 18  1  0
 18 19  2  0
  2 20  1  0
 20 21  2  0
 21 22  1  0
 22 23  2  0
 23 24  1  0
 24 25  2  0
 25 26  1  0
 26 27  2  0
 27 28  1  0
 28 29  2  0
 12  7  1  0
 19 14  1  0
 29 20  1  0
 28 23  1  0
  3 30  1  0
  4 31  1  0
  4 32  1  0
  8 33  1  0
  8 34  1  0
  9 35  1  0
  9 36  1  0
 10 37  1  0
 10 38  1  0
 11 39  1  0
 11 40  1  0
 12 41  1  1
 13 42  1  0
 13 43  1  0
 15 44  1  0
 16 45  1  0
 17 46  1  0
 18 47  1  0
 19 48  1  0
 21 49  1  0
 22 50  1  0
 24 51  1  0
 25 52  1  0
 26 53  1  0
 27 54  1  0
M  END
>  <smiles>  (74) 
O=C(NCC(=O)N1CCCCC1Cc1ccccc1)c1ccc2ccccc2n1

>  <score_type>  (74) 
oracle

>  <origin>  (74) 
autodockgpu

>  <m_score__min__energy>  (74) 
-9.6199999999999992

>  <m_primary>  (74) 
energy

>  <rmsd>  (74) 
8.292475595552391

>  <m_score__min__rmsd>  (74) 
8.292475595552391

>  <meeko>  (74) 
{"free_energy": -8.85, "intermolecular_energy": -10.64, "internal_energy": -2.09, "cluster_size": 23, "cluster_id": 1, "rank_in_cluster": 17}

>  <energy>  (74) 
-9.44

>  <cluster_rmsd>  (74) 
0.0

>  <cluster>  (74) 
2

$$$$

     RDKit          3D

 54 57  0  0  0  0  0  0  0  0999 V2000
  139.7420   71.1860  221.1860 O   0  0  0  0  0  0  0  0  0  0  0  0
  139.7130   71.8480  222.2700 C   0  0  0  0  0  0  0  0  0  0  0  0
  139.6000   73.2670  222.2960 N   0  0  0  0  0  0  0  0  0  0  0  0
  139.5140   74.0170  221.0600 C   0  0  0  0  0  0  0  0  0  0  0  0
  140.1860   75.3270  221.3110 C   0  0  0  0  0  0  0  0  0  0  0  0
  140.2250   75.8550  222.4350 O   0  0  0  0  0  0  0  0  0  0  0  0
  140.8170   76.0200  220.2340 N   0  0  0  0  0  0  0  0  0  0  0  0
  140.4110   75.7290  218.8760 C   0  0  0  0  0  0  0  0  0  0  0  0
  141.6050   75.4840  217.9780 C   0  0  0  0  0  0  0  0  0  0  0  0
  142.6350   76.5970  218.1260 C   0  0  0  0  0  0  0  0  0  0  0  0
  143.0150   76.6640  219.5830 C   0  0  0  0  0  0  0  0  0  0  0  0
  141.8630   77.0150  220.4740 C   0  0  1  0  0  0  0  0  0  0  0  0
  141.3790   78.4220  220.3420 C   0  0  0  0  0  0  0  0  0  0  0  0
  141.6020   79.2600  221.5480 C   0  0  0  0  0  0  0  0  0  0  0  0
  141.6620   80.6380  221.5110 C   0  0  0  0  0  0  0  0  0  0  0  0
  141.8680   81.4130  222.6390 C   0  0  0  0  0  0  0  0  0  0  0  0
  142.0220   80.8000  223.8520 C   0  0  0  0  0  0  0  0  0  0  0  0
  141.9660   79.4250  223.9210 C   0  0  0  0  0  0  0  0  0  0  0  0
  141.7600   78.6440  222.7960 C   0  0  0  0  0  0  0  0  0  0  0  0
  139.7970   71.1390  223.5580 C   0  0  0  0  0  0  0  0  0  0  0  0
  139.3840   69.8280  223.6700 C   0  0  0  0  0  0  0  0  0  0  0  0
  139.4760   69.1800  224.9080 C   0  0  0  0  0  0  0  0  0  0  0  0
  139.9760   69.8430  226.0090 C   0  0  0  0  0  0  0  0  0  0  0  0
  140.0940   69.2640  227.2550 C   0  0  0  0  0  0  0  0  0  0  0  0
  140.6070   69.9750  228.3470 C   0  0  0  0  0  0  0  0  0  0  0  0
  140.9960   71.2860  228.1390 C   0  0  0  0  0  0  0  0  0  0  0  0
  140.8950   71.9010  226.9130 C   0  0  0  0  0  0  0  0  0  0  0  0
  140.3800   71.1500  225.8640 C   0  0  0  0  0  0  0  0  0  0  0  0
  140.2830   71.7550  224.6680 N   0  0  0  0  0  0  0  0  0  0  0  0
  139.5810   73.7540  223.2120 H   0  0  0  0  0  0  0  0  0  0  0  0
  140.0264   73.4760  220.2508 H   0  0  0  0  0  0  0  0  0  0  0  0
  138.4673   74.1593  220.7532 H   0  0  0  0  0  0  0  0  0  0  0  0
  139.7755   74.8311  218.8780 H   0  0  0  0  0  0  0  0  0  0  0  0
  139.8608   76.5986  218.4874 H   0  0  0  0  0  0  0  0  0  0  0  0
  142.0696   74.5249  218.2505 H   0  0  0  0  0  0  0  0  0  0  0  0
  141.2602   75.4613  216.9337 H   0  0  0  0  0  0  0  0  0  0  0  0
  143.5221   76.3728  217.5154 H   0  0  0  0  0  0  0  0  0  0  0  0
  142.2218   77.5582  217.7864 H   0  0  0  0  0  0  0  0  0  0  0  0
  143.4076   75.6828  219.8881 H   0  0  0  0  0  0  0  0  0  0  0  0
  143.7673   77.4593  219.6900 H   0  0  0  0  0  0  0  0  0  0  0  0
  142.1966   76.9807  221.5216 H   0  0  0  0  0  0  0  0  0  0  0  0
  141.9041   78.8891  219.4958 H   0  0  0  0  0  0  0  0  0  0  0  0
  140.2906   78.3683  220.1921 H   0  0  0  0  0  0  0  0  0  0  0  0
  141.5407   81.1433  220.5415 H   0  0  0  0  0  0  0  0  0  0  0  0
  141.9074   82.5095  222.5609 H   0  0  0  0  0  0  0  0  0  0  0  0
  142.1884   81.3971  224.7608 H   0  0  0  0  0  0  0  0  0  0  0  0
  142.0884   78.9336  224.8975 H   0  0  0  0  0  0  0  0  0  0  0  0
  141.7207   77.5481  222.8819 H   0  0  0  0  0  0  0  0  0  0  0  0
  138.9855   69.2955  222.7938 H   0  0  0  0  0  0  0  0  0  0  0  0
  139.1471   68.1346  225.0029 H   0  0  0  0  0  0  0  0  0  0  0  0
  139.7779   68.2197  227.3944 H   0  0  0  0  0  0  0  0  0  0  0  0
  140.6976   69.5062  229.3379 H   0  0  0  0  0  0  0  0  0  0  0  0
  141.4015   71.8584  228.9863 H   0  0  0  0  0  0  0  0  0  0  0  0
  141.2093   72.9453  226.7689 H   0  0  0  0  0  0  0  0  0  0  0  0
  1  2  2  0
  2  3  1  0
  3  4  1  0
  4  5  1  0
  5  6  2  0
  5  7  1  0
  7  8  1  0
  8  9  1  0
  9 10  1  0
 10 11  1  0
 11 12  1  0
 12 13  1  0
 13 14  1  0
 14 15  2  0
 15 16  1  0
 16 17  2  0
 17 18  1  0
 18 19  2  0
  2 20  1  0
 20 21  2  0
 21 22  1  0
 22 23  2  0
 23 24  1  0
 24 25  2  0
 25 26  1  0
 26 27  2  0
 27 28  1  0
 28 29  2  0
 12  7  1  0
 19 14  1  0
 29 20  1  0
 28 23  1  0
  3 30  1  0
  4 31  1  0
  4 32  1  0
  8 33  1  0
  8 34  1  0
  9 35  1  0
  9 36  1  0
 10 37  1  0
 10 38  1  0
 11 39  1  0
 11 40  1  0
 12 41  1  1
 13 42  1  0
 13 43  1  0
 15 44  1  0
 16 45  1  0
 17 46  1  0
 18 47  1  0
 19 48  1  0
 21 49  1  0
 22 50  1  0
 24 51  1  0
 25 52  1  0
 26 53  1  0
 27 54  1  0
M  END
>  <smiles>  (75) 
O=C(NCC(=O)N1CCCCC1Cc1ccccc1)c1ccc2ccccc2n1

>  <score_type>  (75) 
oracle

>  <origin>  (75) 
autodockgpu

>  <m_score__min__energy>  (75) 
-9.6199999999999992

>  <m_primary>  (75) 
energy

>  <rmsd>  (75) 
1.4968848764366889

>  <m_score__min__rmsd>  (75) 
1.4968848764366889

>  <meeko>  (75) 
{"free_energy": -9.21, "intermolecular_energy": -11.0, "internal_energy": -2.01, "cluster_size": 17, "cluster_id": 2, "rank_in_cluster": 7}

>  <energy>  (75) 
-9.31

>  <cluster_rmsd>  (75) 
0.4

>  <cluster>  (75) 
2

$$$$

     RDKit          3D

 54 57  0  0  0  0  0  0  0  0999 V2000
  139.7900   70.8080  221.1590 O   0  0  0  0  0  0  0  0  0  0  0  0
  139.7460   71.5010  222.2240 C   0  0  0  0  0  0  0  0  0  0  0  0
  139.6450   72.9200  222.2090 N   0  0  0  0  0  0  0  0  0  0  0  0
  139.5870   73.6360  220.9510 C   0  0  0  0  0  0  0  0  0  0  0  0
  140.0980   75.0140  221.2240 C   0  0  0  0  0  0  0  0  0  0  0  0
  139.9970   75.5570  222.3360 O   0  0  0  0  0  0  0  0  0  0  0  0
  140.7310   75.7560  220.1820 N   0  0  0  0  0  0  0  0  0  0  0  0
  140.2800   75.5810  218.8180 C   0  0  0  0  0  0  0  0  0  0  0  0
  141.4400   75.3520  217.8720 C   0  0  0  0  0  0  0  0  0  0  0  0
  142.5210   76.4070  218.0700 C   0  0  0  0  0  0  0  0  0  0  0  0
  142.9390   76.3530  219.5170 C   0  0  0  0  0  0  0  0  0  0  0  0
  141.8260   76.6860  220.4630 C   0  0  1  0  0  0  0  0  0  0  0  0
  141.4010   78.1180  220.4440 C   0  0  0  0  0  0  0  0  0  0  0  0
  141.7040   78.8610  221.6940 C   0  0  0  0  0  0  0  0  0  0  0  0
  141.5000   78.3360  222.9540 C   0  0  0  0  0  0  0  0  0  0  0  0
  141.7860   79.0320  224.1160 C   0  0  0  0  0  0  0  0  0  0  0  0
  142.2930   80.3000  224.0270 C   0  0  0  0  0  0  0  0  0  0  0  0
  142.5080   80.8510  222.7830 C   0  0  0  0  0  0  0  0  0  0  0  0
  142.2240   80.1590  221.6160 C   0  0  0  0  0  0  0  0  0  0  0  0
  139.8000   70.8260  223.5330 C   0  0  0  0  0  0  0  0  0  0  0  0
  139.3040   69.5490  223.6890 C   0  0  0  0  0  0  0  0  0  0  0  0
  139.3700   68.9350  224.9460 C   0  0  0  0  0  0  0  0  0  0  0  0
  139.9260   69.5960  226.0200 C   0  0  0  0  0  0  0  0  0  0  0  0
  140.0220   69.0500  227.2820 C   0  0  0  0  0  0  0  0  0  0  0  0
  140.5950   69.7580  228.3460 C   0  0  0  0  0  0  0  0  0  0  0  0
  141.0650   71.0330  228.0930 C   0  0  0  0  0  0  0  0  0  0  0  0
  140.9890   71.6170  226.8500 C   0  0  0  0  0  0  0  0  0  0  0  0
  140.4120   70.8700  225.8310 C   0  0  0  0  0  0  0  0  0  0  0  0
  140.3400   71.4430  224.6170 N   0  0  0  0  0  0  0  0  0  0  0  0
  139.6130   73.4330  223.1100 H   0  0  0  0  0  0  0  0  0  0  0  0
  140.2187   73.1380  220.2007 H   0  0  0  0  0  0  0  0  0  0  0  0
  138.5610   73.6630  220.5552 H   0  0  0  0  0  0  0  0  0  0  0  0
  139.6063   74.7126  218.7735 H   0  0  0  0  0  0  0  0  0  0  0  0
  139.7591   76.4988  218.5076 H   0  0  0  0  0  0  0  0  0  0  0  0
  141.8688   74.3571  218.0626 H   0  0  0  0  0  0  0  0  0  0  0  0
  141.0688   75.4196  216.8387 H   0  0  0  0  0  0  0  0  0  0  0  0
  143.3822   76.1902  217.4209 H   0  0  0  0  0  0  0  0  0  0  0  0
  142.1422   77.4066  217.8107 H   0  0  0  0  0  0  0  0  0  0  0  0
  143.2962   75.3369  219.7405 H   0  0  0  0  0  0  0  0  0  0  0  0
  143.7270   77.1072  219.6592 H   0  0  0  0  0  0  0  0  0  0  0  0
  142.1837   76.5612  221.4957 H   0  0  0  0  0  0  0  0  0  0  0  0
  141.9161   78.6195  219.6114 H   0  0  0  0  0  0  0  0  0  0  0  0
  140.3067   78.1209  220.3326 H   0  0  0  0  0  0  0  0  0  0  0  0
  141.0916   77.3182  223.0388 H   0  0  0  0  0  0  0  0  0  0  0  0
  141.6079   78.5714  225.0989 H   0  0  0  0  0  0  0  0  0  0  0  0
  142.5259   80.8719  224.9373 H   0  0  0  0  0  0  0  0  0  0  0  0
  142.9170   81.8698  222.7136 H   0  0  0  0  0  0  0  0  0  0  0  0
  142.4056   80.6256  220.6366 H   0  0  0  0  0  0  0  0  0  0  0  0
  138.8606   69.0174  222.8341 H   0  0  0  0  0  0  0  0  0  0  0  0
  138.9748   67.9168  225.0772 H   0  0  0  0  0  0  0  0  0  0  0  0
  139.6394   68.0338  227.4577 H   0  0  0  0  0  0  0  0  0  0  0  0
  140.6685   69.3141  229.3497 H   0  0  0  0  0  0  0  0  0  0  0  0
  141.5175   71.6029  228.9179 H   0  0  0  0  0  0  0  0  0  0  0  0
  141.3694   72.6334  226.6704 H   0  0  0  0  0  0  0  0  0  0  0  0
  1  2  2  0
  2  3  1  0
  3  4  1  0
  4  5  1  0
  5  6  2  0
  5  7  1  0
  7  8  1  0
  8  9  1  0
  9 10  1  0
 10 11  1  0
 11 12  1  0
 12 13  1  0
 13 14  1  0
 14 15  2  0
 15 16  1  0
 16 17  2  0
 17 18  1  0
 18 19  2  0
  2 20  1  0
 20 21  2  0
 21 22  1  0
 22 23  2  0
 23 24  1  0
 24 25  2  0
 25 26  1  0
 26 27  2  0
 27 28  1  0
 28 29  2  0
 12  7  1  0
 19 14  1  0
 29 20  1  0
 28 23  1  0
  3 30  1  0
  4 31  1  0
  4 32  1  0
  8 33  1  0
  8 34  1  0
  9 35  1  0
  9 36  1  0
 10 37  1  0
 10 38  1  0
 11 39  1  0
 11 40  1  0
 12 41  1  1
 13 42  1  0
 13 43  1  0
 15 44  1  0
 16 45  1  0
 17 46  1  0
 18 47  1  0
 19 48  1  0
 21 49  1  0
 22 50  1  0
 24 51  1  0
 25 52  1  0
 26 53  1  0
 27 54  1  0
M  END
>  <smiles>  (76) 
O=C(NCC(=O)N1CCCCC1Cc1ccccc1)c1ccc2ccccc2n1

>  <score_type>  (76) 
oracle

>  <origin>  (76) 
autodockgpu

>  <m_score__min__energy>  (76) 
-9.6199999999999992

>  <m_primary>  (76) 
energy

>  <rmsd>  (76) 
1.4108618492327312

>  <m_score__min__rmsd>  (76) 
1.4108618492327312

>  <meeko>  (76) 
{"free_energy": -9.26, "intermolecular_energy": -11.05, "internal_energy": -2.02, "cluster_size": 17, "cluster_id": 2, "rank_in_cluster": 4}

>  <energy>  (76) 
-9.29

>  <cluster_rmsd>  (76) 
0.33

>  <cluster>  (76) 
2

$$$$

     RDKit          3D

 54 57  0  0  0  0  0  0  0  0999 V2000
  141.4820   74.8860  220.8950 O   0  0  0  0  0  0  0  0  0  0  0  0
  140.5150   75.1480  221.6770 C   0  0  0  0  0  0  0  0  0  0  0  0
  139.6020   74.1530  222.1250 N   0  0  0  0  0  0  0  0  0  0  0  0
  139.7490   72.7780  221.6920 C   0  0  0  0  0  0  0  0  0  0  0  0
  138.7690   71.9770  222.4860 C   0  0  0  0  0  0  0  0  0  0  0  0
  137.7530   72.4760  222.9950 O   0  0  0  0  0  0  0  0  0  0  0  0
  138.9870   70.5800  222.6830 N   0  0  0  0  0  0  0  0  0  0  0  0
  139.3770   69.7630  221.5540 C   0  0  0  0  0  0  0  0  0  0  0  0
  138.5350   68.5080  221.4580 C   0  0  0  0  0  0  0  0  0  0  0  0
  138.4800   67.7840  222.7970 C   0  0  0  0  0  0  0  0  0  0  0  0
  137.9430   68.7620  223.8120 C   0  0  0  0  0  0  0  0  0  0  0  0
  138.8240   69.9580  223.9980 C   0  0  1  0  0  0  0  0  0  0  0  0
  140.1230   69.6750  224.6800 C   0  0  0  0  0  0  0  0  0  0  0  0
  140.3180   70.4180  225.9520 C   0  0  0  0  0  0  0  0  0  0  0  0
  139.7780   70.0120  227.1550 C   0  0  0  0  0  0  0  0  0  0  0  0
  139.9640   70.7080  228.3370 C   0  0  0  0  0  0  0  0  0  0  0  0
  140.7150   71.8520  228.3270 C   0  0  0  0  0  0  0  0  0  0  0  0
  141.2680   72.2820  227.1410 C   0  0  0  0  0  0  0  0  0  0  0  0
  141.0850   71.5890  225.9550 C   0  0  0  0  0  0  0  0  0  0  0  0
  140.3170   76.5290  222.1500 C   0  0  0  0  0  0  0  0  0  0  0  0
  139.0490   77.0310  222.3540 C   0  0  0  0  0  0  0  0  0  0  0  0
  138.8940   78.3480  222.8040 C   0  0  0  0  0  0  0  0  0  0  0  0
  139.9960   79.1400  223.0450 C   0  0  0  0  0  0  0  0  0  0  0  0
  139.9140   80.4420  223.4890 C   0  0  0  0  0  0  0  0  0  0  0  0
  141.0610   81.2110  223.7200 C   0  0  0  0  0  0  0  0  0  0  0  0
  142.2910   80.6230  223.4880 C   0  0  0  0  0  0  0  0  0  0  0  0
  142.4180   79.3270  223.0440 C   0  0  0  0  0  0  0  0  0  0  0  0
  141.2480   78.6090  222.8320 C   0  0  0  0  0  0  0  0  0  0  0  0
  141.3770   77.3430  222.3990 N   0  0  0  0  0  0  0  0  0  0  0  0
  138.8320   74.4260  222.7630 H   0  0  0  0  0  0  0  0  0  0  0  0
  139.5285   72.6921  220.6178 H   0  0  0  0  0  0  0  0  0  0  0  0
  140.7768   72.4188  221.8490 H   0  0  0  0  0  0  0  0  0  0  0  0
  139.2533   70.3476  220.6304 H   0  0  0  0  0  0  0  0  0  0  0  0
  140.4266   69.4639  221.6915 H   0  0  0  0  0  0  0  0  0  0  0  0
  137.5137   68.7823  221.1551 H   0  0  0  0  0  0  0  0  0  0  0  0
  138.9901   67.8366  220.7149 H   0  0  0  0  0  0  0  0  0  0  0  0
  137.8145   66.9110  222.7262 H   0  0  0  0  0  0  0  0  0  0  0  0
  139.4788   67.4275  223.0891 H   0  0  0  0  0  0  0  0  0  0  0  0
  136.9528   69.1051  223.4778 H   0  0  0  0  0  0  0  0  0  0  0  0
  137.8928   68.2380  224.7779 H   0  0  0  0  0  0  0  0  0  0  0  0
  138.3391   70.6544  224.6979 H   0  0  0  0  0  0  0  0  0  0  0  0
  140.1702   68.5980  224.8989 H   0  0  0  0  0  0  0  0  0  0  0  0
  140.9179   70.0062  223.9956 H   0  0  0  0  0  0  0  0  0  0  0  0
  139.1724   69.0939  227.1758 H   0  0  0  0  0  0  0  0  0  0  0  0
  139.5136   70.3459  229.2730 H   0  0  0  0  0  0  0  0  0  0  0  0
  140.8750   72.4211  229.2546 H   0  0  0  0  0  0  0  0  0  0  0  0
  141.8719   73.2014  227.1352 H   0  0  0  0  0  0  0  0  0  0  0  0
  141.5391   71.9563  225.0229 H   0  0  0  0  0  0  0  0  0  0  0  0
  138.1665   76.4021  222.1648 H   0  0  0  0  0  0  0  0  0  0  0  0
  137.8846   78.7537  222.9665 H   0  0  0  0  0  0  0  0  0  0  0  0
  138.9240   80.8876  223.6661 H   0  0  0  0  0  0  0  0  0  0  0  0
  140.9862   82.2496  224.0747 H   0  0  0  0  0  0  0  0  0  0  0  0
  143.2020   81.2136  223.6651 H   0  0  0  0  0  0  0  0  0  0  0  0
  143.4058   78.8777  222.8642 H   0  0  0  0  0  0  0  0  0  0  0  0
  1  2  2  0
  2  3  1  0
  3  4  1  0
  4  5  1  0
  5  6  2  0
  5  7  1  0
  7  8  1  0
  8  9  1  0
  9 10  1  0
 10 11  1  0
 11 12  1  0
 12 13  1  0
 13 14  1  0
 14 15  2  0
 15 16  1  0
 16 17  2  0
 17 18  1  0
 18 19  2  0
  2 20  1  0
 20 21  2  0
 21 22  1  0
 22 23  2  0
 23 24  1  0
 24 25  2  0
 25 26  1  0
 26 27  2  0
 27 28  1  0
 28 29  2  0
 12  7  1  0
 19 14  1  0
 29 20  1  0
 28 23  1  0
  3 30  1  0
  4 31  1  0
  4 32  1  0
  8 33  1  0
  8 34  1  0
  9 35  1  0
  9 36  1  0
 10 37  1  0
 10 38  1  0
 11 39  1  0
 11 40  1  0
 12 41  1  1
 13 42  1  0
 13 43  1  0
 15 44  1  0
 16 45  1  0
 17 46  1  0
 18 47  1  0
 19 48  1  0
 21 49  1  0
 22 50  1  0
 24 51  1  0
 25 52  1  0
 26 53  1  0
 27 54  1  0
M  END
>  <smiles>  (77) 
O=C(NCC(=O)N1CCCCC1Cc1ccccc1)c1ccc2ccccc2n1

>  <score_type>  (77) 
oracle

>  <origin>  (77) 
autodockgpu

>  <m_score__min__energy>  (77) 
-9.6199999999999992

>  <m_primary>  (77) 
energy

>  <rmsd>  (77) 
8.236949205516575

>  <m_score__min__rmsd>  (77) 
8.236949205516575

>  <meeko>  (77) 
{"free_energy": -8.88, "intermolecular_energy": -10.67, "internal_energy": -1.88, "cluster_size": 23, "cluster_id": 1, "rank_in_cluster": 14}

>  <energy>  (77) 
-9.26

>  <cluster_rmsd>  (77) 
0.54

>  <cluster>  (77) 
2

$$$$

     RDKit          3D

 54 57  0  0  0  0  0  0  0  0999 V2000
  140.4950   70.9500  221.6330 O   0  0  0  0  0  0  0  0  0  0  0  0
  140.2000   71.6920  222.6220 C   0  0  0  0  0  0  0  0  0  0  0  0
  139.7970   73.0480  222.4670 N   0  0  0  0  0  0  0  0  0  0  0  0
  139.7100   73.6390  221.1470 C   0  0  0  0  0  0  0  0  0  0  0  0
  140.1300   75.0650  221.2930 C   0  0  0  0  0  0  0  0  0  0  0  0
  139.9520   75.7120  222.3380 O   0  0  0  0  0  0  0  0  0  0  0  0
  140.7630   75.7340  220.2020 N   0  0  0  0  0  0  0  0  0  0  0  0
  140.3100   75.4690  218.8540 C   0  0  0  0  0  0  0  0  0  0  0  0
  141.4680   75.1750  217.9240 C   0  0  0  0  0  0  0  0  0  0  0  0
  142.5500   76.2390  218.0490 C   0  0  0  0  0  0  0  0  0  0  0  0
  142.9710   76.2810  219.4960 C   0  0  0  0  0  0  0  0  0  0  0  0
  141.8600   76.6800  220.4190 C   0  0  1  0  0  0  0  0  0  0  0  0
  141.4370   78.1080  220.3040 C   0  0  0  0  0  0  0  0  0  0  0  0
  141.7000   78.9210  221.5190 C   0  0  0  0  0  0  0  0  0  0  0  0
  142.1860   80.2120  221.4740 C   0  0  0  0  0  0  0  0  0  0  0  0
  142.4270   80.9650  222.6100 C   0  0  0  0  0  0  0  0  0  0  0  0
  142.1790   80.4190  223.8390 C   0  0  0  0  0  0  0  0  0  0  0  0
  141.6930   79.1320  223.9160 C   0  0  0  0  0  0  0  0  0  0  0  0
  141.4490   78.3730  222.7830 C   0  0  0  0  0  0  0  0  0  0  0  0
  140.2700   71.1440  223.9880 C   0  0  0  0  0  0  0  0  0  0  0  0
  140.7290   71.9160  225.0350 C   0  0  0  0  0  0  0  0  0  0  0  0
  140.7830   71.3660  226.3220 C   0  0  0  0  0  0  0  0  0  0  0  0
  140.3810   70.0670  226.5460 C   0  0  0  0  0  0  0  0  0  0  0  0
  140.4090   69.4660  227.7870 C   0  0  0  0  0  0  0  0  0  0  0  0
  139.9910   68.1420  227.9690 C   0  0  0  0  0  0  0  0  0  0  0  0
  139.5450   67.4470  226.8600 C   0  0  0  0  0  0  0  0  0  0  0  0
  139.5020   68.0080  225.6040 C   0  0  0  0  0  0  0  0  0  0  0  0
  139.9280   69.3240  225.4800 C   0  0  0  0  0  0  0  0  0  0  0  0
  139.8830   69.8680  224.2520 N   0  0  0  0  0  0  0  0  0  0  0  0
  139.5680   73.6050  223.3110 H   0  0  0  0  0  0  0  0  0  0  0  0
  140.3809   73.1145  220.4507 H   0  0  0  0  0  0  0  0  0  0  0  0
  138.6894   73.5639  220.7437 H   0  0  0  0  0  0  0  0  0  0  0  0
  139.6347   74.6008  218.8686 H   0  0  0  0  0  0  0  0  0  0  0  0
  139.7904   76.3650  218.4835 H   0  0  0  0  0  0  0  0  0  0  0  0
  141.8958   74.1946  218.1806 H   0  0  0  0  0  0  0  0  0  0  0  0
  141.0954   75.1731  216.8890 H   0  0  0  0  0  0  0  0  0  0  0  0
  143.4096   75.9784  217.4141 H   0  0  0  0  0  0  0  0  0  0  0  0
  142.1718   77.2196  217.7244 H   0  0  0  0  0  0  0  0  0  0  0  0
  143.3259   75.2812  219.7867 H   0  0  0  0  0  0  0  0  0  0  0  0
  143.7616   77.0404  219.5861 H   0  0  0  0  0  0  0  0  0  0  0  0
  142.2189   76.6259  221.4574 H   0  0  0  0  0  0  0  0  0  0  0  0
  141.9794   78.5616  219.4614 H   0  0  0  0  0  0  0  0  0  0  0  0
  140.3469   78.1037  220.1566 H   0  0  0  0  0  0  0  0  0  0  0  0
  142.3909   80.6625  220.4916 H   0  0  0  0  0  0  0  0  0  0  0  0
  142.8137   81.9913  222.5252 H   0  0  0  0  0  0  0  0  0  0  0  0
  142.3651   80.9998  224.7544 H   0  0  0  0  0  0  0  0  0  0  0  0
  141.4930   78.6947  224.9053 H   0  0  0  0  0  0  0  0  0  0  0  0
  141.0611   77.3478  222.8756 H   0  0  0  0  0  0  0  0  0  0  0  0
  141.0496   72.9537  224.8608 H   0  0  0  0  0  0  0  0  0  0  0  0
  141.1493   71.9760  227.1609 H   0  0  0  0  0  0  0  0  0  0  0  0
  140.7680   70.0400  228.6540 H   0  0  0  0  0  0  0  0  0  0  0  0
  140.0166   67.6700  228.9623 H   0  0  0  0  0  0  0  0  0  0  0  0
  139.2119   66.4063  226.9864 H   0  0  0  0  0  0  0  0  0  0  0  0
  139.1449   67.4374  224.7340 H   0  0  0  0  0  0  0  0  0  0  0  0
  1  2  2  0
  2  3  1  0
  3  4  1  0
  4  5  1  0
  5  6  2  0
  5  7  1  0
  7  8  1  0
  8  9  1  0
  9 10  1  0
 10 11  1  0
 11 12  1  0
 12 13  1  0
 13 14  1  0
 14 15  2  0
 15 16  1  0
 16 17  2  0
 17 18  1  0
 18 19  2  0
  2 20  1  0
 20 21  2  0
 21 22  1  0
 22 23  2  0
 23 24  1  0
 24 25  2  0
 25 26  1  0
 26 27  2  0
 27 28  1  0
 28 29  2  0
 12  7  1  0
 19 14  1  0
 29 20  1  0
 28 23  1  0
  3 30  1  0
  4 31  1  0
  4 32  1  0
  8 33  1  0
  8 34  1  0
  9 35  1  0
  9 36  1  0
 10 37  1  0
 10 38  1  0
 11 39  1  0
 11 40  1  0
 12 41  1  1
 13 42  1  0
 13 43  1  0
 15 44  1  0
 16 45  1  0
 17 46  1  0
 18 47  1  0
 19 48  1  0
 21 49  1  0
 22 50  1  0
 24 51  1  0
 25 52  1  0
 26 53  1  0
 27 54  1  0
M  END
>  <smiles>  (78) 
O=C(NCC(=O)N1CCCCC1Cc1ccccc1)c1ccc2ccccc2n1

>  <score_type>  (78) 
oracle

>  <origin>  (78) 
autodockgpu

>  <m_score__min__energy>  (78) 
-9.6199999999999992

>  <m_primary>  (78) 
energy

>  <rmsd>  (78) 
2.679596224860738

>  <m_score__min__rmsd>  (78) 
2.679596224860738

>  <meeko>  (78) 
{"free_energy": -9.17, "intermolecular_energy": -10.96, "internal_energy": -1.75, "cluster_size": 17, "cluster_id": 2, "rank_in_cluster": 8}

>  <energy>  (78) 
-9.26

>  <cluster_rmsd>  (78) 
0.36

>  <cluster>  (78) 
2

$$$$

     RDKit          3D

 54 57  0  0  0  0  0  0  0  0999 V2000
  139.5740   73.8100  222.3720 O   0  0  0  0  0  0  0  0  0  0  0  0
  140.1940   72.7010  222.3280 C   0  0  0  0  0  0  0  0  0  0  0  0
  140.9630   72.2990  221.2000 N   0  0  0  0  0  0  0  0  0  0  0  0
  141.0650   73.1610  220.0400 C   0  0  0  0  0  0  0  0  0  0  0  0
  141.6850   74.4350  220.5120 C   0  0  0  0  0  0  0  0  0  0  0  0
  142.8730   74.5110  220.8670 O   0  0  0  0  0  0  0  0  0  0  0  0
  140.9030   75.6290  220.5660 N   0  0  0  0  0  0  0  0  0  0  0  0
  139.5360   75.5960  220.0920 C   0  0  0  0  0  0  0  0  0  0  0  0
  139.2450   76.7470  219.1530 C   0  0  0  0  0  0  0  0  0  0  0  0
  139.6930   78.0710  219.7570 C   0  0  0  0  0  0  0  0  0  0  0  0
  141.1620   77.9440  220.0730 C   0  0  0  0  0  0  0  0  0  0  0  0
  141.4540   76.8810  221.0860 C   0  0  1  0  0  0  0  0  0  0  0  0
  140.9920   77.1960  222.4720 C   0  0  0  0  0  0  0  0  0  0  0  0
  141.2670   78.5900  222.9040 C   0  0  0  0  0  0  0  0  0  0  0  0
  142.5420   79.0890  223.0790 C   0  0  0  0  0  0  0  0  0  0  0  0
  142.7930   80.3900  223.4810 C   0  0  0  0  0  0  0  0  0  0  0  0
  141.7400   81.2300  223.7200 C   0  0  0  0  0  0  0  0  0  0  0  0
  140.4550   80.7610  223.5530 C   0  0  0  0  0  0  0  0  0  0  0  0
  140.1980   79.4600  223.1510 C   0  0  0  0  0  0  0  0  0  0  0  0
  140.1270   71.7840  223.4800 C   0  0  0  0  0  0  0  0  0  0  0  0
  139.5940   70.5200  223.3450 C   0  0  0  0  0  0  0  0  0  0  0  0
  139.5440   69.6720  224.4590 C   0  0  0  0  0  0  0  0  0  0  0  0
  140.0240   70.0920  225.6810 C   0  0  0  0  0  0  0  0  0  0  0  0
  140.0060   69.3090  226.8150 C   0  0  0  0  0  0  0  0  0  0  0  0
  140.5040   69.7770  228.0370 C   0  0  0  0  0  0  0  0  0  0  0  0
  141.0200   71.0590  228.0750 C   0  0  0  0  0  0  0  0  0  0  0  0
  141.0570   71.8750  226.9680 C   0  0  0  0  0  0  0  0  0  0  0  0
  140.5500   71.3600  225.7810 C   0  0  0  0  0  0  0  0  0  0  0  0
  140.5890   72.1590  224.7020 N   0  0  0  0  0  0  0  0  0  0  0  0
  141.4480   71.3820  221.2220 H   0  0  0  0  0  0  0  0  0  0  0  0
  141.6980   72.6919  219.2723 H   0  0  0  0  0  0  0  0  0  0  0  0
  140.0774   73.3417  219.5905 H   0  0  0  0  0  0  0  0  0  0  0  0
  139.3654   74.6487  219.5595 H   0  0  0  0  0  0  0  0  0  0  0  0
  138.8677   75.6832  220.9614 H   0  0  0  0  0  0  0  0  0  0  0  0
  139.7814   76.5836  218.2067 H   0  0  0  0  0  0  0  0  0  0  0  0
  138.1598   76.7909  218.9784 H   0  0  0  0  0  0  0  0  0  0  0  0
  139.5317   78.8871  219.0373 H   0  0  0  0  0  0  0  0  0  0  0  0
  139.1170   78.2998  220.6658 H   0  0  0  0  0  0  0  0  0  0  0  0
  141.7002   77.7008  219.1450 H   0  0  0  0  0  0  0  0  0  0  0  0
  141.4904   78.9033  220.4996 H   0  0  0  0  0  0  0  0  0  0  0  0
  142.5434   76.8003  221.2154 H   0  0  0  0  0  0  0  0  0  0  0  0
  139.9060   77.0280  222.5200 H   0  0  0  0  0  0  0  0  0  0  0  0
  141.5558   76.5383  223.1499 H   0  0  0  0  0  0  0  0  0  0  0  0
  143.3971   78.4232  222.8906 H   0  0  0  0  0  0  0  0  0  0  0  0
  143.8269   80.7440  223.6067 H   0  0  0  0  0  0  0  0  0  0  0  0
  141.9168   82.2670  224.0415 H   0  0  0  0  0  0  0  0  0  0  0  0
  139.6096   81.4383  223.7441 H   0  0  0  0  0  0  0  0  0  0  0  0
  139.1615   79.1132  223.0268 H   0  0  0  0  0  0  0  0  0  0  0  0
  139.2113   70.1802  222.3713 H   0  0  0  0  0  0  0  0  0  0  0  0
  139.1183   68.6628  224.3577 H   0  0  0  0  0  0  0  0  0  0  0  0
  139.5904   68.2921  226.7587 H   0  0  0  0  0  0  0  0  0  0  0  0
  140.4853   69.1453  228.9374 H   0  0  0  0  0  0  0  0  0  0  0  0
  141.4163   71.4414  229.0272 H   0  0  0  0  0  0  0  0  0  0  0  0
  141.4708   72.8929  227.0203 H   0  0  0  0  0  0  0  0  0  0  0  0
  1  2  2  0
  2  3  1  0
  3  4  1  0
  4  5  1  0
  5  6  2  0
  5  7  1  0
  7  8  1  0
  8  9  1  0
  9 10  1  0
 10 11  1  0
 11 12  1  0
 12 13  1  0
 13 14  1  0
 14 15  2  0
 15 16  1  0
 16 17  2  0
 17 18  1  0
 18 19  2  0
  2 20  1  0
 20 21  2  0
 21 22  1  0
 22 23  2  0
 23 24  1  0
 24 25  2  0
 25 26  1  0
 26 27  2  0
 27 28  1  0
 28 29  2  0
 12  7  1  0
 19 14  1  0
 29 20  1  0
 28 23  1  0
  3 30  1  0
  4 31  1  0
  4 32  1  0
  8 33  1  0
  8 34  1  0
  9 35  1  0
  9 36  1  0
 10 37  1  0
 10 38  1  0
 11 39  1  0
 11 40  1  0
 12 41  1  1
 13 42  1  0
 13 43  1  0
 15 44  1  0
 16 45  1  0
 17 46  1  0
 18 47  1  0
 19 48  1  0
 21 49  1  0
 22 50  1  0
 24 51  1  0
 25 52  1  0
 26 53  1  0
 27 54  1  0
M  END
>  <smiles>  (79) 
O=C(NCC(=O)N1CCCCC1Cc1ccccc1)c1ccc2ccccc2n1

>  <score_type>  (79) 
oracle

>  <origin>  (79) 
autodockgpu

>  <m_score__min__energy>  (79) 
-9.6199999999999992

>  <m_primary>  (79) 
energy

>  <rmsd>  (79) 
2.3426567923588544

>  <m_score__min__rmsd>  (79) 
2.3426567923588544

>  <meeko>  (79) 
{"free_energy": -8.64, "intermolecular_energy": -10.43, "internal_energy": -1.56, "cluster_size": 17, "cluster_id": 2, "rank_in_cluster": 17}

>  <energy>  (79) 
-9.22

>  <cluster_rmsd>  (79) 
0.53

>  <cluster>  (79) 
2

$$$$

     RDKit          3D

 54 57  0  0  0  0  0  0  0  0999 V2000
  137.1680   75.8160  222.1400 O   0  0  0  0  0  0  0  0  0  0  0  0
  138.4220   76.0220  222.1200 C   0  0  0  0  0  0  0  0  0  0  0  0
  139.3560   75.0130  221.7540 N   0  0  0  0  0  0  0  0  0  0  0  0
  138.8970   73.6900  221.3850 C   0  0  0  0  0  0  0  0  0  0  0  0
  139.6540   72.7250  222.2380 C   0  0  0  0  0  0  0  0  0  0  0  0
  140.7690   72.9870  222.7170 O   0  0  0  0  0  0  0  0  0  0  0  0
  139.0940   71.4440  222.5310 N   0  0  0  0  0  0  0  0  0  0  0  0
  138.8910   70.5020  221.4530 C   0  0  0  0  0  0  0  0  0  0  0  0
  137.4990   69.9070  221.4870 C   0  0  0  0  0  0  0  0  0  0  0  0
  137.1630   69.3860  222.8790 C   0  0  0  0  0  0  0  0  0  0  0  0
  137.3200   70.5390  223.8370 C   0  0  0  0  0  0  0  0  0  0  0  0
  138.7200   71.0670  223.8950 C   0  0  1  0  0  0  0  0  0  0  0  0
  139.7060   70.1500  224.5430 C   0  0  0  0  0  0  0  0  0  0  0  0
  140.2170   70.6300  225.8520 C   0  0  0  0  0  0  0  0  0  0  0  0
  140.9130   71.8120  226.0050 C   0  0  0  0  0  0  0  0  0  0  0  0
  141.3860   72.2550  227.2280 C   0  0  0  0  0  0  0  0  0  0  0  0
  141.1620   71.4970  228.3450 C   0  0  0  0  0  0  0  0  0  0  0  0
  140.4690   70.3120  228.2240 C   0  0  0  0  0  0  0  0  0  0  0  0
  139.9930   69.8640  227.0030 C   0  0  0  0  0  0  0  0  0  0  0  0
  138.9460   77.3490  222.4860 C   0  0  0  0  0  0  0  0  0  0  0  0
  138.0920   78.4040  222.7250 C   0  0  0  0  0  0  0  0  0  0  0  0
  138.6220   79.6540  223.0700 C   0  0  0  0  0  0  0  0  0  0  0  0
  139.9840   79.8320  223.1730 C   0  0  0  0  0  0  0  0  0  0  0  0
  140.5700   81.0340  223.5090 C   0  0  0  0  0  0  0  0  0  0  0  0
  141.9610   81.1710  223.6010 C   0  0  0  0  0  0  0  0  0  0  0  0
  142.7380   80.0570  223.3430 C   0  0  0  0  0  0  0  0  0  0  0  0
  142.1950   78.8390  223.0040 C   0  0  0  0  0  0  0  0  0  0  0  0
  140.8100   78.7590  222.9280 C   0  0  0  0  0  0  0  0  0  0  0  0
  140.2830   77.5680  222.5970 N   0  0  0  0  0  0  0  0  0  0  0  0
  140.3680   75.2390  221.7560 H   0  0  0  0  0  0  0  0  0  0  0  0
  137.8171   73.5965  221.5721 H   0  0  0  0  0  0  0  0  0  0  0  0
  139.0667   73.4939  220.3160 H   0  0  0  0  0  0  0  0  0  0  0  0
  139.0340   71.0211  220.4938 H   0  0  0  0  0  0  0  0  0  0  0  0
  139.6175   69.6843  221.5695 H   0  0  0  0  0  0  0  0  0  0  0  0
  136.7696   70.6813  221.2067 H   0  0  0  0  0  0  0  0  0  0  0  0
  137.4592   69.0664  220.7786 H   0  0  0  0  0  0  0  0  0  0  0  0
  136.1278   69.0148  222.9026 H   0  0  0  0  0  0  0  0  0  0  0  0
  137.8286   68.5552  223.1559 H   0  0  0  0  0  0  0  0  0  0  0  0
  136.6518   71.3526  223.5184 H   0  0  0  0  0  0  0  0  0  0  0  0
  137.0670   70.1683  224.8413 H   0  0  0  0  0  0  0  0  0  0  0  0
  138.7443   71.9436  224.5591 H   0  0  0  0  0  0  0  0  0  0  0  0
  139.2197   69.1758  224.6991 H   0  0  0  0  0  0  0  0  0  0  0  0
  140.5728   70.0914  223.8683 H   0  0  0  0  0  0  0  0  0  0  0  0
  141.1003   72.4300  225.1145 H   0  0  0  0  0  0  0  0  0  0  0  0
  141.9355   73.2051  227.3012 H   0  0  0  0  0  0  0  0  0  0  0  0
  141.5303   71.8292  229.3268 H   0  0  0  0  0  0  0  0  0  0  0  0
  140.2887   69.7044  229.1231 H   0  0  0  0  0  0  0  0  0  0  0  0
  139.4431   68.9136  226.9377 H   0  0  0  0  0  0  0  0  0  0  0  0
  137.0036   78.2657  222.6456 H   0  0  0  0  0  0  0  0  0  0  0  0
  137.9452   80.5000  223.2602 H   0  0  0  0  0  0  0  0  0  0  0  0
  139.9301   81.9059  223.7095 H   0  0  0  0  0  0  0  0  0  0  0  0
  142.4202   82.1337  223.8698 H   0  0  0  0  0  0  0  0  0  0  0  0
  143.8321   80.1478  223.4113 H   0  0  0  0  0  0  0  0  0  0  0  0
  142.8312   77.9647  222.8015 H   0  0  0  0  0  0  0  0  0  0  0  0
  1  2  2  0
  2  3  1  0
  3  4  1  0
  4  5  1  0
  5  6  2  0
  5  7  1  0
  7  8  1  0
  8  9  1  0
  9 10  1  0
 10 11  1  0
 11 12  1  0
 12 13  1  0
 13 14  1  0
 14 15  2  0
 15 16  1  0
 16 17  2  0
 17 18  1  0
 18 19  2  0
  2 20  1  0
 20 21  2  0
 21 22  1  0
 22 23  2  0
 23 24  1  0
 24 25  2  0
 25 26  1  0
 26 27  2  0
 27 28  1  0
 28 29  2  0
 12  7  1  0
 19 14  1  0
 29 20  1  0
 28 23  1  0
  3 30  1  0
  4 31  1  0
  4 32  1  0
  8 33  1  0
  8 34  1  0
  9 35  1  0
  9 36  1  0
 10 37  1  0
 10 38  1  0
 11 39  1  0
 11 40  1  0
 12 41  1  1
 13 42  1  0
 13 43  1  0
 15 44  1  0
 16 45  1  0
 17 46  1  0
 18 47  1  0
 19 48  1  0
 21 49  1  0
 22 50  1  0
 24 51  1  0
 25 52  1  0
 26 53  1  0
 27 54  1  0
M  END
>  <smiles>  (80) 
O=C(NCC(=O)N1CCCCC1Cc1ccccc1)c1ccc2ccccc2n1

>  <score_type>  (80) 
oracle

>  <origin>  (80) 
autodockgpu

>  <m_score__min__energy>  (80) 
-9.6199999999999992

>  <m_primary>  (80) 
energy

>  <rmsd>  (80) 
8.234898891000295

>  <m_score__min__rmsd>  (80) 
8.234898891000295

>  <meeko>  (80) 
{"free_energy": -8.8, "intermolecular_energy": -10.59, "internal_energy": -1.96, "cluster_size": 23, "cluster_id": 1, "rank_in_cluster": 18}

>  <energy>  (80) 
-9.21

>  <cluster_rmsd>  (80) 
0.42

>  <cluster>  (80) 
2

$$$$

     RDKit          3D

 54 57  0  0  0  0  0  0  0  0999 V2000
  137.3290   76.0850  222.4020 O   0  0  0  0  0  0  0  0  0  0  0  0
  138.5910   76.2350  222.4470 C   0  0  0  0  0  0  0  0  0  0  0  0
  139.4970   75.1600  222.2250 N   0  0  0  0  0  0  0  0  0  0  0  0
  138.9980   73.8310  221.9350 C   0  0  0  0  0  0  0  0  0  0  0  0
  140.1630   72.9050  222.0650 C   0  0  0  0  0  0  0  0  0  0  0  0
  141.2990   73.1960  221.6580 O   0  0  0  0  0  0  0  0  0  0  0  0
  139.9890   71.6270  222.6770 N   0  0  0  0  0  0  0  0  0  0  0  0
  139.9830   70.4420  221.8460 C   0  0  0  0  0  0  0  0  0  0  0  0
  138.8080   69.5420  222.1670 C   0  0  0  0  0  0  0  0  0  0  0  0
  138.7110   69.2870  223.6650 C   0  0  0  0  0  0  0  0  0  0  0  0
  138.6090   70.6300  224.3430 C   0  0  0  0  0  0  0  0  0  0  0  0
  139.8150   71.4900  224.1250 C   0  0  1  0  0  0  0  0  0  0  0  0
  141.0490   71.0210  224.8240 C   0  0  0  0  0  0  0  0  0  0  0  0
  140.7900   70.2220  226.0490 C   0  0  0  0  0  0  0  0  0  0  0  0
  140.9240   68.8500  226.0990 C   0  0  0  0  0  0  0  0  0  0  0  0
  140.6820   68.1100  227.2440 C   0  0  0  0  0  0  0  0  0  0  0  0
  140.2910   68.7560  228.3850 C   0  0  0  0  0  0  0  0  0  0  0  0
  140.1490   70.1260  228.3670 C   0  0  0  0  0  0  0  0  0  0  0  0
  140.3900   70.8710  227.2230 C   0  0  0  0  0  0  0  0  0  0  0  0
  139.1550   77.5650  222.7370 C   0  0  0  0  0  0  0  0  0  0  0  0
  138.3310   78.6440  222.9790 C   0  0  0  0  0  0  0  0  0  0  0  0
  138.8970   79.8950  223.2510 C   0  0  0  0  0  0  0  0  0  0  0  0
  140.2660   80.0520  223.2800 C   0  0  0  0  0  0  0  0  0  0  0  0
  140.8880   81.2540  223.5420 C   0  0  0  0  0  0  0  0  0  0  0  0
  142.2830   81.3690  223.5610 C   0  0  0  0  0  0  0  0  0  0  0  0
  143.0280   80.2320  223.3080 C   0  0  0  0  0  0  0  0  0  0  0  0
  142.4490   79.0130  223.0410 C   0  0  0  0  0  0  0  0  0  0  0  0
  141.0610   78.9560  223.0350 C   0  0  0  0  0  0  0  0  0  0  0  0
  140.4990   77.7630  222.7750 N   0  0  0  0  0  0  0  0  0  0  0  0
  140.5170   75.3430  222.2740 H   0  0  0  0  0  0  0  0  0  0  0  0
  138.2110   73.5553  222.6524 H   0  0  0  0  0  0  0  0  0  0  0  0
  138.5595   73.7809  220.9274 H   0  0  0  0  0  0  0  0  0  0  0  0
  139.9217   70.7463  220.7907 H   0  0  0  0  0  0  0  0  0  0  0  0
  140.9091   69.8811  222.0399 H   0  0  0  0  0  0  0  0  0  0  0  0
  137.8809   70.0240  221.8231 H   0  0  0  0  0  0  0  0  0  0  0  0
  138.9535   68.5790  221.6557 H   0  0  0  0  0  0  0  0  0  0  0  0
  137.8180   68.6844  223.8872 H   0  0  0  0  0  0  0  0  0  0  0  0
  139.5925   68.7356  224.0240 H   0  0  0  0  0  0  0  0  0  0  0  0
  137.7276   71.1560  223.9475 H   0  0  0  0  0  0  0  0  0  0  0  0
  138.5276   70.4466  225.4245 H   0  0  0  0  0  0  0  0  0  0  0  0
  139.6427   72.4726  224.5885 H   0  0  0  0  0  0  0  0  0  0  0  0
  141.6272   70.4005  224.1236 H   0  0  0  0  0  0  0  0  0  0  0  0
  141.5921   71.9224  225.1442 H   0  0  0  0  0  0  0  0  0  0  0  0
  141.2374   68.3196  225.1877 H   0  0  0  0  0  0  0  0  0  0  0  0
  140.8026   67.0167  227.2364 H   0  0  0  0  0  0  0  0  0  0  0  0
  140.0924   68.1880  229.3058 H   0  0  0  0  0  0  0  0  0  0  0  0
  139.8357   70.6432  229.2859 H   0  0  0  0  0  0  0  0  0  0  0  0
  140.2678   71.9641  227.2377 H   0  0  0  0  0  0  0  0  0  0  0  0
  137.2379   78.5226  222.9585 H   0  0  0  0  0  0  0  0  0  0  0  0
  138.2443   80.7593  223.4431 H   0  0  0  0  0  0  0  0  0  0  0  0
  140.2733   82.1443  223.7410 H   0  0  0  0  0  0  0  0  0  0  0  0
  142.7706   82.3325  223.7704 H   0  0  0  0  0  0  0  0  0  0  0  0
  144.1255   80.3050  223.3207 H   0  0  0  0  0  0  0  0  0  0  0  0
  143.0598   78.1204  222.8406 H   0  0  0  0  0  0  0  0  0  0  0  0
  1  2  2  0
  2  3  1  0
  3  4  1  0
  4  5  1  0
  5  6  2  0
  5  7  1  0
  7  8  1  0
  8  9  1  0
  9 10  1  0
 10 11  1  0
 11 12  1  0
 12 13  1  0
 13 14  1  0
 14 15  2  0
 15 16  1  0
 16 17  2  0
 17 18  1  0
 18 19  2  0
  2 20  1  0
 20 21  2  0
 21 22  1  0
 22 23  2  0
 23 24  1  0
 24 25  2  0
 25 26  1  0
 26 27  2  0
 27 28  1  0
 28 29  2  0
 12  7  1  0
 19 14  1  0
 29 20  1  0
 28 23  1  0
  3 30  1  0
  4 31  1  0
  4 32  1  0
  8 33  1  0
  8 34  1  0
  9 35  1  0
  9 36  1  0
 10 37  1  0
 10 38  1  0
 11 39  1  0
 11 40  1  0
 12 41  1  1
 13 42  1  0
 13 43  1  0
 15 44  1  0
 16 45  1  0
 17 46  1  0
 18 47  1  0
 19 48  1  0
 21 49  1  0
 22 50  1  0
 24 51  1  0
 25 52  1  0
 26 53  1  0
 27 54  1  0
M  END
>  <smiles>  (81) 
O=C(NCC(=O)N1CCCCC1Cc1ccccc1)c1ccc2ccccc2n1

>  <score_type>  (81) 
oracle

>  <origin>  (81) 
autodockgpu

>  <m_score__min__energy>  (81) 
-9.6199999999999992

>  <m_primary>  (81) 
energy

>  <rmsd>  (81) 
8.294692248153973

>  <m_score__min__rmsd>  (81) 
8.294692248153973

>  <meeko>  (81) 
{"free_energy": -8.87, "intermolecular_energy": -10.66, "internal_energy": -2.04, "cluster_size": 23, "cluster_id": 1, "rank_in_cluster": 16}

>  <energy>  (81) 
-9.17

>  <cluster_rmsd>  (81) 
0.85

>  <cluster>  (81) 
2

$$$$

     RDKit          3D

 54 57  0  0  0  0  0  0  0  0999 V2000
  141.2200   71.6420  221.4380 O   0  0  0  0  0  0  0  0  0  0  0  0
  140.5670   72.1950  222.3770 C   0  0  0  0  0  0  0  0  0  0  0  0
  140.1090   73.5410  222.3000 N   0  0  0  0  0  0  0  0  0  0  0  0
  140.3810   74.3400  221.1230 C   0  0  0  0  0  0  0  0  0  0  0  0
  140.5810   75.7410  221.5980 C   0  0  0  0  0  0  0  0  0  0  0  0
  140.1220   76.1550  222.6750 O   0  0  0  0  0  0  0  0  0  0  0  0
  141.3280   76.6620  220.8020 N   0  0  0  0  0  0  0  0  0  0  0  0
  141.4260   78.0410  221.2270 C   0  0  0  0  0  0  0  0  0  0  0  0
  141.1160   78.9970  220.0940 C   0  0  0  0  0  0  0  0  0  0  0  0
  141.9150   78.6410  218.8470 C   0  0  0  0  0  0  0  0  0  0  0  0
  141.5890   77.2110  218.4990 C   0  0  0  0  0  0  0  0  0  0  0  0
  141.9910   76.2410  219.5670 C   0  0  1  0  0  0  0  0  0  0  0  0
  143.4670   76.0630  219.7230 C   0  0  0  0  0  0  0  0  0  0  0  0
  143.8910   74.6590  219.9520 C   0  0  0  0  0  0  0  0  0  0  0  0
  143.1910   73.5700  219.4730 C   0  0  0  0  0  0  0  0  0  0  0  0
  143.5920   72.2630  219.6890 C   0  0  0  0  0  0  0  0  0  0  0  0
  144.7300   72.0240  220.4100 C   0  0  0  0  0  0  0  0  0  0  0  0
  145.4500   73.0900  220.9020 C   0  0  0  0  0  0  0  0  0  0  0  0
  145.0540   74.4010  220.6880 C   0  0  0  0  0  0  0  0  0  0  0  0
  140.2610   71.4310  223.5990 C   0  0  0  0  0  0  0  0  0  0  0  0
  139.5440   70.2550  223.5340 C   0  0  0  0  0  0  0  0  0  0  0  0
  139.2690   69.5510  224.7130 C   0  0  0  0  0  0  0  0  0  0  0  0
  139.7110   70.0240  225.9300 C   0  0  0  0  0  0  0  0  0  0  0  0
  139.4760   69.3810  227.1260 C   0  0  0  0  0  0  0  0  0  0  0  0
  139.9430   69.8980  228.3410 C   0  0  0  0  0  0  0  0  0  0  0  0
  140.6540   71.0840  228.3070 C   0  0  0  0  0  0  0  0  0  0  0  0
  140.9100   71.7590  227.1360 C   0  0  0  0  0  0  0  0  0  0  0  0
  140.4240   71.2000  225.9600 C   0  0  0  0  0  0  0  0  0  0  0  0
  140.6770   71.8620  224.8180 N   0  0  0  0  0  0  0  0  0  0  0  0
  139.5800   73.9390  223.0980 H   0  0  0  0  0  0  0  0  0  0  0  0
  141.2885   73.9767  220.6186 H   0  0  0  0  0  0  0  0  0  0  0  0
  139.5531   74.2793  220.4013 H   0  0  0  0  0  0  0  0  0  0  0  0
  140.7117   78.2139  222.0455 H   0  0  0  0  0  0  0  0  0  0  0  0
  142.4578   78.2257  221.5604 H   0  0  0  0  0  0  0  0  0  0  0  0
  140.0423   78.9431  219.8611 H   0  0  0  0  0  0  0  0  0  0  0  0
  141.3909   80.0147  220.4083 H   0  0  0  0  0  0  0  0  0  0  0  0
  141.6321   79.3044  218.0165 H   0  0  0  0  0  0  0  0  0  0  0  0
  142.9933   78.7618  219.0277 H   0  0  0  0  0  0  0  0  0  0  0  0
  140.5036   77.1277  218.3407 H   0  0  0  0  0  0  0  0  0  0  0  0
  142.1577   76.9558  217.5927 H   0  0  0  0  0  0  0  0  0  0  0  0
  141.6623   75.2323  219.2765 H   0  0  0  0  0  0  0  0  0  0  0  0
  143.9567   76.4260  218.8073 H   0  0  0  0  0  0  0  0  0  0  0  0
  143.7605   76.6312  220.6180 H   0  0  0  0  0  0  0  0  0  0  0  0
  142.2732   73.7490  218.8936 H   0  0  0  0  0  0  0  0  0  0  0  0
  143.0027   71.4263  219.2857 H   0  0  0  0  0  0  0  0  0  0  0  0
  145.0658   70.9929  220.5945 H   0  0  0  0  0  0  0  0  0  0  0  0
  146.3649   72.8956  221.4809 H   0  0  0  0  0  0  0  0  0  0  0  0
  145.6490   75.2327  221.0934 H   0  0  0  0  0  0  0  0  0  0  0  0
  139.1911   69.8732  222.5646 H   0  0  0  0  0  0  0  0  0  0  0  0
  138.6958   68.6133  224.6675 H   0  0  0  0  0  0  0  0  0  0  0  0
  138.9080   68.4390  227.1264 H   0  0  0  0  0  0  0  0  0  0  0  0
  139.7507   69.3780  229.2911 H   0  0  0  0  0  0  0  0  0  0  0  0
  141.0290   71.5034  229.2523 H   0  0  0  0  0  0  0  0  0  0  0  0
  141.4760   72.7022  227.1306 H   0  0  0  0  0  0  0  0  0  0  0  0
  1  2  2  0
  2  3  1  0
  3  4  1  0
  4  5  1  0
  5  6  2  0
  5  7  1  0
  7  8  1  0
  8  9  1  0
  9 10  1  0
 10 11  1  0
 11 12  1  0
 12 13  1  0
 13 14  1  0
 14 15  2  0
 15 16  1  0
 16 17  2  0
 17 18  1  0
 18 19  2  0
  2 20  1  0
 20 21  2  0
 21 22  1  0
 22 23  2  0
 23 24  1  0
 24 25  2  0
 25 26  1  0
 26 27  2  0
 27 28  1  0
 28 29  2  0
 12  7  1  0
 19 14  1  0
 29 20  1  0
 28 23  1  0
  3 30  1  0
  4 31  1  0
  4 32  1  0
  8 33  1  0
  8 34  1  0
  9 35  1  0
  9 36  1  0
 10 37  1  0
 10 38  1  0
 11 39  1  0
 11 40  1  0
 12 41  1  6
 13 42  1  0
 13 43  1  0
 15 44  1  0
 16 45  1  0
 17 46  1  0
 18 47  1  0
 19 48  1  0
 21 49  1  0
 22 50  1  0
 24 51  1  0
 25 52  1  0
 26 53  1  0
 27 54  1  0
M  END
>  <smiles>  (82) 
O=C(NCC(=O)N1CCCCC1Cc1ccccc1)c1ccc2ccccc2n1

>  <score_type>  (82) 
oracle

>  <origin>  (82) 
autodockgpu

>  <m_score__min__energy>  (82) 
-9.6199999999999992

>  <m_primary>  (82) 
energy

>  <rmsd>  (82) 
2.5894478820073137

>  <m_score__min__rmsd>  (82) 
2.5894478820073137

>  <meeko>  (82) 
{"free_energy": -8.84, "intermolecular_energy": -10.63, "internal_energy": -2.25, "cluster_size": 8, "cluster_id": 4, "rank_in_cluster": 3}

>  <energy>  (82) 
-9.15

>  <cluster_rmsd>  (82) 
0.45

>  <cluster>  (82) 
2

$$$$

     RDKit          3D

 54 57  0  0  0  0  0  0  0  0999 V2000
  141.4690   71.8920  221.5720 O   0  0  0  0  0  0  0  0  0  0  0  0
  140.5920   72.2980  222.3980 C   0  0  0  0  0  0  0  0  0  0  0  0
  139.8600   73.5030  222.2040 N   0  0  0  0  0  0  0  0  0  0  0  0
  140.0970   74.3230  221.0340 C   0  0  0  0  0  0  0  0  0  0  0  0
  140.6830   75.6060  221.5270 C   0  0  0  0  0  0  0  0  0  0  0  0
  140.5320   76.0060  222.6930 O   0  0  0  0  0  0  0  0  0  0  0  0
  141.4500   76.4230  220.6420 N   0  0  0  0  0  0  0  0  0  0  0  0
  141.3880   77.8620  220.7810 C   0  0  0  0  0  0  0  0  0  0  0  0
  141.1510   78.5400  219.4480 C   0  0  0  0  0  0  0  0  0  0  0  0
  142.1260   78.0290  218.3960 C   0  0  0  0  0  0  0  0  0  0  0  0
  141.9570   76.5330  218.3180 C   0  0  0  0  0  0  0  0  0  0  0  0
  142.2950   75.8370  219.6000 C   0  0  1  0  0  0  0  0  0  0  0  0
  143.7480   75.8430  219.9470 C   0  0  0  0  0  0  0  0  0  0  0  0
  144.3650   74.4930  220.0110 C   0  0  0  0  0  0  0  0  0  0  0  0
  145.4200   74.1830  220.8450 C   0  0  0  0  0  0  0  0  0  0  0  0
  145.9900   72.9230  220.9020 C   0  0  0  0  0  0  0  0  0  0  0  0
  145.4980   71.9310  220.0990 C   0  0  0  0  0  0  0  0  0  0  0  0
  144.4450   72.2100  219.2550 C   0  0  0  0  0  0  0  0  0  0  0  0
  143.8700   73.4690  219.1950 C   0  0  0  0  0  0  0  0  0  0  0  0
  140.3080   71.5050  223.6060 C   0  0  0  0  0  0  0  0  0  0  0  0
  139.5720   70.3410  223.5290 C   0  0  0  0  0  0  0  0  0  0  0  0
  139.3180   69.6090  224.6960 C   0  0  0  0  0  0  0  0  0  0  0  0
  139.8000   70.0420  225.9120 C   0  0  0  0  0  0  0  0  0  0  0  0
  139.5880   69.3690  227.0970 C   0  0  0  0  0  0  0  0  0  0  0  0
  140.0960   69.8450  228.3110 C   0  0  0  0  0  0  0  0  0  0  0  0
  140.8230   71.0210  228.2900 C   0  0  0  0  0  0  0  0  0  0  0  0
  141.0580   71.7240  227.1320 C   0  0  0  0  0  0  0  0  0  0  0  0
  140.5320   71.2060  225.9550 C   0  0  0  0  0  0  0  0  0  0  0  0
  140.7640   71.8960  224.8250 N   0  0  0  0  0  0  0  0  0  0  0  0
  139.1560   73.7840  222.9120 H   0  0  0  0  0  0  0  0  0  0  0  0
  140.8005   73.8205  220.3539 H   0  0  0  0  0  0  0  0  0  0  0  0
  139.1653   74.4994  220.4764 H   0  0  0  0  0  0  0  0  0  0  0  0
  140.5652   78.1197  221.4641 H   0  0  0  0  0  0  0  0  0  0  0  0
  142.3522   78.2116  221.1787 H   0  0  0  0  0  0  0  0  0  0  0  0
  140.1228   78.3328  219.1166 H   0  0  0  0  0  0  0  0  0  0  0  0
  141.3045   79.6221  219.5725 H   0  0  0  0  0  0  0  0  0  0  0  0
  141.9005   78.4848  217.4206 H   0  0  0  0  0  0  0  0  0  0  0  0
  143.1604   78.2909  218.6634 H   0  0  0  0  0  0  0  0  0  0  0  0
  140.9097   76.3115  218.0648 H   0  0  0  0  0  0  0  0  0  0  0  0
  142.6528   76.1635  217.5503 H   0  0  0  0  0  0  0  0  0  0  0  0
  142.0852   74.7627  219.4914 H   0  0  0  0  0  0  0  0  0  0  0  0
  144.2820   76.4305  219.1856 H   0  0  0  0  0  0  0  0  0  0  0  0
  143.8302   76.2759  220.9549 H   0  0  0  0  0  0  0  0  0  0  0  0
  145.8262   74.9730  221.4938 H   0  0  0  0  0  0  0  0  0  0  0  0
  146.8286   72.7218  221.5848 H   0  0  0  0  0  0  0  0  0  0  0  0
  145.9374   70.9230  220.1266 H   0  0  0  0  0  0  0  0  0  0  0  0
  144.0499   71.4106  218.6109 H   0  0  0  0  0  0  0  0  0  0  0  0
  143.0305   73.6626  218.5111 H   0  0  0  0  0  0  0  0  0  0  0  0
  139.1879   69.9906  222.5597 H   0  0  0  0  0  0  0  0  0  0  0  0
  138.7292   68.6814  224.6412 H   0  0  0  0  0  0  0  0  0  0  0  0
  139.0057   68.4358  227.0877 H   0  0  0  0  0  0  0  0  0  0  0  0
  139.9226   69.3013  229.2514 H   0  0  0  0  0  0  0  0  0  0  0  0
  141.2289   71.4089  229.2359 H   0  0  0  0  0  0  0  0  0  0  0  0
  141.6387   72.6582  227.1372 H   0  0  0  0  0  0  0  0  0  0  0  0
  1  2  2  0
  2  3  1  0
  3  4  1  0
  4  5  1  0
  5  6  2  0
  5  7  1  0
  7  8  1  0
  8  9  1  0
  9 10  1  0
 10 11  1  0
 11 12  1  0
 12 13  1  0
 13 14  1  0
 14 15  2  0
 15 16  1  0
 16 17  2  0
 17 18  1  0
 18 19  2  0
  2 20  1  0
 20 21  2  0
 21 22  1  0
 22 23  2  0
 23 24  1  0
 24 25  2  0
 25 26  1  0
 26 27  2  0
 27 28  1  0
 28 29  2  0
 12  7  1  0
 19 14  1  0
 29 20  1  0
 28 23  1  0
  3 30  1  0
  4 31  1  0
  4 32  1  0
  8 33  1  0
  8 34  1  0
  9 35  1  0
  9 36  1  0
 10 37  1  0
 10 38  1  0
 11 39  1  0
 11 40  1  0
 12 41  1  6
 13 42  1  0
 13 43  1  0
 15 44  1  0
 16 45  1  0
 17 46  1  0
 18 47  1  0
 19 48  1  0
 21 49  1  0
 22 50  1  0
 24 51  1  0
 25 52  1  0
 26 53  1  0
 27 54  1  0
M  END
>  <smiles>  (83) 
O=C(NCC(=O)N1CCCCC1Cc1ccccc1)c1ccc2ccccc2n1

>  <score_type>  (83) 
oracle

>  <origin>  (83) 
autodockgpu

>  <m_score__min__energy>  (83) 
-9.6199999999999992

>  <m_primary>  (83) 
energy

>  <rmsd>  (83) 
2.4763857140718195

>  <m_score__min__rmsd>  (83) 
2.4763857140718195

>  <meeko>  (83) 
{"free_energy": -8.89, "intermolecular_energy": -10.68, "internal_energy": -1.84, "cluster_size": 8, "cluster_id": 4, "rank_in_cluster": 1}

>  <energy>  (83) 
-9.09

>  <cluster_rmsd>  (83) 
0.51

>  <cluster>  (83) 
2

$$$$

     RDKit          3D

 54 57  0  0  0  0  0  0  0  0999 V2000
  139.7130   71.0920  221.1830 O   0  0  0  0  0  0  0  0  0  0  0  0
  139.7140   71.7780  222.2530 C   0  0  0  0  0  0  0  0  0  0  0  0
  139.6400   73.1990  222.2510 N   0  0  0  0  0  0  0  0  0  0  0  0
  139.5620   73.9250  221.0000 C   0  0  0  0  0  0  0  0  0  0  0  0
  140.3160   75.1990  221.2010 C   0  0  0  0  0  0  0  0  0  0  0  0
  140.4120   75.7520  222.3090 O   0  0  0  0  0  0  0  0  0  0  0  0
  140.9610   75.8260  220.0920 N   0  0  0  0  0  0  0  0  0  0  0  0
  140.4560   75.5880  218.7580 C   0  0  0  0  0  0  0  0  0  0  0  0
  141.5690   75.2210  217.7990 C   0  0  0  0  0  0  0  0  0  0  0  0
  142.7190   76.2150  217.8920 C   0  0  0  0  0  0  0  0  0  0  0  0
  143.1790   76.2330  219.3270 C   0  0  0  0  0  0  0  0  0  0  0  0
  142.1200   76.7010  220.2770 C   0  0  1  0  0  0  0  0  0  0  0  0
  141.7840   78.1530  220.1700 C   0  0  0  0  0  0  0  0  0  0  0  0
  141.3490   78.7740  221.4470 C   0  0  0  0  0  0  0  0  0  0  0  0
  140.0390   78.7670  221.8830 C   0  0  0  0  0  0  0  0  0  0  0  0
  139.6390   79.3470  223.0750 C   0  0  0  0  0  0  0  0  0  0  0  0
  140.5730   79.9590  223.8660 C   0  0  0  0  0  0  0  0  0  0  0  0
  141.8880   79.9820  223.4580 C   0  0  0  0  0  0  0  0  0  0  0  0
  142.2950   79.4030  222.2660 C   0  0  0  0  0  0  0  0  0  0  0  0
  139.7910   71.0930  223.5550 C   0  0  0  0  0  0  0  0  0  0  0  0
  139.3460   69.7950  223.6980 C   0  0  0  0  0  0  0  0  0  0  0  0
  139.4330   69.1720  224.9480 C   0  0  0  0  0  0  0  0  0  0  0  0
  139.9590   69.8440  226.0310 C   0  0  0  0  0  0  0  0  0  0  0  0
  140.0740   69.2880  227.2870 C   0  0  0  0  0  0  0  0  0  0  0  0
  140.6150   70.0080  228.3600 C   0  0  0  0  0  0  0  0  0  0  0  0
  141.0350   71.3040  228.1210 C   0  0  0  0  0  0  0  0  0  0  0  0
  140.9390   71.8960  226.8840 C   0  0  0  0  0  0  0  0  0  0  0  0
  140.3950   71.1370  225.8550 C   0  0  0  0  0  0  0  0  0  0  0  0
  140.3030   71.7190  224.6480 N   0  0  0  0  0  0  0  0  0  0  0  0
  139.6440   73.7050  223.1560 H   0  0  0  0  0  0  0  0  0  0  0  0
  140.0186   73.3369  220.1903 H   0  0  0  0  0  0  0  0  0  0  0  0
  138.5169   74.1215  220.7187 H   0  0  0  0  0  0  0  0  0  0  0  0
  139.7286   74.7636  218.7933 H   0  0  0  0  0  0  0  0  0  0  0  0
  139.9827   76.5136  218.3985 H   0  0  0  0  0  0  0  0  0  0  0  0
  141.9411   74.2161  218.0473 H   0  0  0  0  0  0  0  0  0  0  0  0
  141.1698   75.2416  216.7742 H   0  0  0  0  0  0  0  0  0  0  0  0
  143.5437   75.8994  217.2360 H   0  0  0  0  0  0  0  0  0  0  0  0
  142.3952   77.2169  217.5736 H   0  0  0  0  0  0  0  0  0  0  0  0
  143.4789   75.2136  219.6114 H   0  0  0  0  0  0  0  0  0  0  0  0
  144.0170   76.9424  219.3942 H   0  0  0  0  0  0  0  0  0  0  0  0
  142.5024   76.6249  221.3056 H   0  0  0  0  0  0  0  0  0  0  0  0
  142.6763   78.6880  219.8129 H   0  0  0  0  0  0  0  0  0  0  0  0
  140.9340   78.2300  219.4760 H   0  0  0  0  0  0  0  0  0  0  0  0
  139.2790   78.2788  221.2553 H   0  0  0  0  0  0  0  0  0  0  0  0
  138.5833   79.3162  223.3824 H   0  0  0  0  0  0  0  0  0  0  0  0
  140.2769   80.4270  224.8164 H   0  0  0  0  0  0  0  0  0  0  0  0
  142.6369   80.4739  224.0961 H   0  0  0  0  0  0  0  0  0  0  0  0
  143.3527   79.4373  221.9658 H   0  0  0  0  0  0  0  0  0  0  0  0
  138.9264   69.2544  222.8368 H   0  0  0  0  0  0  0  0  0  0  0  0
  139.0788   68.1375  225.0676 H   0  0  0  0  0  0  0  0  0  0  0  0
  139.7331   68.2550  227.4506 H   0  0  0  0  0  0  0  0  0  0  0  0
  140.7029   69.5575  229.3597 H   0  0  0  0  0  0  0  0  0  0  0  0
  141.4623   71.8833  228.9528 H   0  0  0  0  0  0  0  0  0  0  0  0
  141.2790   72.9285  226.7156 H   0  0  0  0  0  0  0  0  0  0  0  0
  1  2  2  0
  2  3  1  0
  3  4  1  0
  4  5  1  0
  5  6  2  0
  5  7  1  0
  7  8  1  0
  8  9  1  0
  9 10  1  0
 10 11  1  0
 11 12  1  0
 12 13  1  0
 13 14  1  0
 14 15  2  0
 15 16  1  0
 16 17  2  0
 17 18  1  0
 18 19  2  0
  2 20  1  0
 20 21  2  0
 21 22  1  0
 22 23  2  0
 23 24  1  0
 24 25  2  0
 25 26  1  0
 26 27  2  0
 27 28  1  0
 28 29  2  0
 12  7  1  0
 19 14  1  0
 29 20  1  0
 28 23  1  0
  3 30  1  0
  4 31  1  0
  4 32  1  0
  8 33  1  0
  8 34  1  0
  9 35  1  0
  9 36  1  0
 10 37  1  0
 10 38  1  0
 11 39  1  0
 11 40  1  0
 12 41  1  1
 13 42  1  0
 13 43  1  0
 15 44  1  0
 16 45  1  0
 17 46  1  0
 18 47  1  0
 19 48  1  0
 21 49  1  0
 22 50  1  0
 24 51  1  0
 25 52  1  0
 26 53  1  0
 27 54  1  0
M  END
>  <smiles>  (84) 
O=C(NCC(=O)N1CCCCC1Cc1ccccc1)c1ccc2ccccc2n1

>  <score_type>  (84) 
oracle

>  <origin>  (84) 
autodockgpu

>  <m_score__min__energy>  (84) 
-9.6199999999999992

>  <m_primary>  (84) 
energy

>  <rmsd>  (84) 
1.4926946055648689

>  <m_score__min__rmsd>  (84) 
1.4926946055648689

>  <meeko>  (84) 
{"free_energy": -8.71, "intermolecular_energy": -10.5, "internal_energy": -2.1, "cluster_size": 17, "cluster_id": 2, "rank_in_cluster": 16}

>  <energy>  (84) 
-9.08

>  <cluster_rmsd>  (84) 
0.65

>  <cluster>  (84) 
2

$$$$

     RDKit          3D

 54 57  0  0  0  0  0  0  0  0999 V2000
  137.1310   76.1190  222.3520 O   0  0  0  0  0  0  0  0  0  0  0  0
  138.3950   76.2290  222.4260 C   0  0  0  0  0  0  0  0  0  0  0  0
  139.2710   75.1260  222.2250 N   0  0  0  0  0  0  0  0  0  0  0  0
  138.7380   73.8130  221.9250 C   0  0  0  0  0  0  0  0  0  0  0  0
  139.8210   72.8340  222.2390 C   0  0  0  0  0  0  0  0  0  0  0  0
  141.0160   73.1610  222.3230 O   0  0  0  0  0  0  0  0  0  0  0  0
  139.4960   71.4600  222.4560 N   0  0  0  0  0  0  0  0  0  0  0  0
  139.5520   70.5390  221.3420 C   0  0  0  0  0  0  0  0  0  0  0  0
  138.3000   69.6920  221.2550 C   0  0  0  0  0  0  0  0  0  0  0  0
  137.9730   69.0640  222.6030 C   0  0  0  0  0  0  0  0  0  0  0  0
  137.8400   70.1870  223.6000 C   0  0  0  0  0  0  0  0  0  0  0  0
  139.1070   70.9670  223.7780 C   0  0  1  0  0  0  0  0  0  0  0  0
  140.2010   70.2260  224.4750 C   0  0  0  0  0  0  0  0  0  0  0  0
  140.4710   70.6970  225.8580 C   0  0  0  0  0  0  0  0  0  0  0  0
  141.2190   71.8220  226.1400 C   0  0  0  0  0  0  0  0  0  0  0  0
  141.4670   72.2580  227.4300 C   0  0  0  0  0  0  0  0  0  0  0  0
  140.9550   71.5500  228.4840 C   0  0  0  0  0  0  0  0  0  0  0  0
  140.2040   70.4230  228.2330 C   0  0  0  0  0  0  0  0  0  0  0  0
  139.9520   69.9820  226.9440 C   0  0  0  0  0  0  0  0  0  0  0  0
  138.9930   77.5410  222.7280 C   0  0  0  0  0  0  0  0  0  0  0  0
  138.1980   78.6400  222.9730 C   0  0  0  0  0  0  0  0  0  0  0  0
  138.7980   79.8730  223.2570 C   0  0  0  0  0  0  0  0  0  0  0  0
  140.1700   79.9920  223.2950 C   0  0  0  0  0  0  0  0  0  0  0  0
  140.8230   81.1750  223.5700 C   0  0  0  0  0  0  0  0  0  0  0  0
  142.2210   81.2510  223.5980 C   0  0  0  0  0  0  0  0  0  0  0  0
  142.9360   80.0950  223.3410 C   0  0  0  0  0  0  0  0  0  0  0  0
  142.3250   78.8950  223.0620 C   0  0  0  0  0  0  0  0  0  0  0  0
  140.9360   78.8760  223.0480 C   0  0  0  0  0  0  0  0  0  0  0  0
  140.3420   77.7010  222.7760 N   0  0  0  0  0  0  0  0  0  0  0  0
  140.2950   75.2760  222.2980 H   0  0  0  0  0  0  0  0  0  0  0  0
  137.8522   73.6116  222.5453 H   0  0  0  0  0  0  0  0  0  0  0  0
  138.4290   73.7402  220.8718 H   0  0  0  0  0  0  0  0  0  0  0  0
  139.6603   71.1127  220.4097 H   0  0  0  0  0  0  0  0  0  0  0  0
  140.4109   69.8686  221.4930 H   0  0  0  0  0  0  0  0  0  0  0  0
  137.4580   70.3255  220.9393 H   0  0  0  0  0  0  0  0  0  0  0  0
  138.4707   68.8871  220.5249 H   0  0  0  0  0  0  0  0  0  0  0  0
  137.0283   68.5042  222.5383 H   0  0  0  0  0  0  0  0  0  0  0  0
  138.7641   68.3635  222.9086 H   0  0  0  0  0  0  0  0  0  0  0  0
  137.0527   70.8722  223.2528 H   0  0  0  0  0  0  0  0  0  0  0  0
  137.5930   69.7355  224.5722 H   0  0  0  0  0  0  0  0  0  0  0  0
  138.9186   71.8062  224.4638 H   0  0  0  0  0  0  0  0  0  0  0  0
  139.9226   69.1628  224.5209 H   0  0  0  0  0  0  0  0  0  0  0  0
  141.1199   70.4015  223.8964 H   0  0  0  0  0  0  0  0  0  0  0  0
  141.6371   72.3983  225.3015 H   0  0  0  0  0  0  0  0  0  0  0  0
  142.0681   73.1623  227.6062 H   0  0  0  0  0  0  0  0  0  0  0  0
  141.1410   71.8769  229.5177 H   0  0  0  0  0  0  0  0  0  0  0  0
  139.7921   69.8563  229.0811 H   0  0  0  0  0  0  0  0  0  0  0  0
  139.3491   69.0775  226.7753 H   0  0  0  0  0  0  0  0  0  0  0  0
  137.1021   78.5493  222.9457 H   0  0  0  0  0  0  0  0  0  0  0  0
  138.1686   80.7539  223.4514 H   0  0  0  0  0  0  0  0  0  0  0  0
  140.2318   82.0803  223.7722 H   0  0  0  0  0  0  0  0  0  0  0  0
  142.7339   82.1991  223.8172 H   0  0  0  0  0  0  0  0  0  0  0  0
  144.0350   80.1372  223.3606 H   0  0  0  0  0  0  0  0  0  0  0  0
  142.9121   77.9873  222.8582 H   0  0  0  0  0  0  0  0  0  0  0  0
  1  2  2  0
  2  3  1  0
  3  4  1  0
  4  5  1  0
  5  6  2  0
  5  7  1  0
  7  8  1  0
  8  9  1  0
  9 10  1  0
 10 11  1  0
 11 12  1  0
 12 13  1  0
 13 14  1  0
 14 15  2  0
 15 16  1  0
 16 17  2  0
 17 18  1  0
 18 19  2  0
  2 20  1  0
 20 21  2  0
 21 22  1  0
 22 23  2  0
 23 24  1  0
 24 25  2  0
 25 26  1  0
 26 27  2  0
 27 28  1  0
 28 29  2  0
 12  7  1  0
 19 14  1  0
 29 20  1  0
 28 23  1  0
  3 30  1  0
  4 31  1  0
  4 32  1  0
  8 33  1  0
  8 34  1  0
  9 35  1  0
  9 36  1  0
 10 37  1  0
 10 38  1  0
 11 39  1  0
 11 40  1  0
 12 41  1  1
 13 42  1  0
 13 43  1  0
 15 44  1  0
 16 45  1  0
 17 46  1  0
 18 47  1  0
 19 48  1  0
 21 49  1  0
 22 50  1  0
 24 51  1  0
 25 52  1  0
 26 53  1  0
 27 54  1  0
M  END
>  <smiles>  (85) 
O=C(NCC(=O)N1CCCCC1Cc1ccccc1)c1ccc2ccccc2n1

>  <score_type>  (85) 
oracle

>  <origin>  (85) 
autodockgpu

>  <m_score__min__energy>  (85) 
-9.6199999999999992

>  <m_primary>  (85) 
energy

>  <rmsd>  (85) 
8.273232361583675

>  <m_score__min__rmsd>  (85) 
8.273232361583675

>  <meeko>  (85) 
{"free_energy": -8.88, "intermolecular_energy": -10.67, "internal_energy": -2.19, "cluster_size": 23, "cluster_id": 1, "rank_in_cluster": 15}

>  <energy>  (85) 
-9.05

>  <cluster_rmsd>  (85) 
0.51

>  <cluster>  (85) 
2

$$$$

     RDKit          3D

 54 57  0  0  0  0  0  0  0  0999 V2000
  137.0880   76.2460  222.3320 O   0  0  0  0  0  0  0  0  0  0  0  0
  138.3540   76.3620  222.3370 C   0  0  0  0  0  0  0  0  0  0  0  0
  139.2220   75.2810  222.0180 N   0  0  0  0  0  0  0  0  0  0  0  0
  138.6780   73.9830  221.6720 C   0  0  0  0  0  0  0  0  0  0  0  0
  139.6590   72.9680  222.1610 C   0  0  0  0  0  0  0  0  0  0  0  0
  140.8520   73.2390  222.3760 O   0  0  0  0  0  0  0  0  0  0  0  0
  139.2340   71.6260  222.4000 N   0  0  0  0  0  0  0  0  0  0  0  0
  139.1360   70.7100  221.2840 C   0  0  0  0  0  0  0  0  0  0  0  0
  137.8130   69.9730  221.2830 C   0  0  0  0  0  0  0  0  0  0  0  0
  137.5250   69.3670  222.6500 C   0  0  0  0  0  0  0  0  0  0  0  0
  137.5570   70.4920  223.6540 C   0  0  0  0  0  0  0  0  0  0  0  0
  138.8940   71.1600  223.7450 C   0  0  1  0  0  0  0  0  0  0  0  0
  139.9660   70.3250  224.3670 C   0  0  0  0  0  0  0  0  0  0  0  0
  140.3460   70.7440  225.7400 C   0  0  0  0  0  0  0  0  0  0  0  0
  141.0640   71.8920  226.0080 C   0  0  0  0  0  0  0  0  0  0  0  0
  141.4140   72.2790  227.2910 C   0  0  0  0  0  0  0  0  0  0  0  0
  141.0400   71.4970  228.3500 C   0  0  0  0  0  0  0  0  0  0  0  0
  140.3230   70.3450  228.1130 C   0  0  0  0  0  0  0  0  0  0  0  0
  139.9690   69.9530  226.8320 C   0  0  0  0  0  0  0  0  0  0  0  0
  138.9630   77.6590  222.6800 C   0  0  0  0  0  0  0  0  0  0  0  0
  138.1780   78.7430  223.0100 C   0  0  0  0  0  0  0  0  0  0  0  0
  138.7870   79.9620  223.3320 C   0  0  0  0  0  0  0  0  0  0  0  0
  140.1600   80.0820  223.3210 C   0  0  0  0  0  0  0  0  0  0  0  0
  140.8230   81.2510  223.6280 C   0  0  0  0  0  0  0  0  0  0  0  0
  142.2210   81.3290  223.6050 C   0  0  0  0  0  0  0  0  0  0  0  0
  142.9250   80.1900  223.2620 C   0  0  0  0  0  0  0  0  0  0  0  0
  142.3040   79.0030  222.9480 C   0  0  0  0  0  0  0  0  0  0  0  0
  140.9160   78.9810  222.9880 C   0  0  0  0  0  0  0  0  0  0  0  0
  140.3130   77.8200  222.6820 N   0  0  0  0  0  0  0  0  0  0  0  0
  140.2470   75.4350  222.0380 H   0  0  0  0  0  0  0  0  0  0  0  0
  137.7038   73.8365  222.1614 H   0  0  0  0  0  0  0  0  0  0  0  0
  138.5209   73.8939  220.5869 H   0  0  0  0  0  0  0  0  0  0  0  0
  139.2291   71.2780  220.3466 H   0  0  0  0  0  0  0  0  0  0  0  0
  139.9432   69.9684  221.3754 H   0  0  0  0  0  0  0  0  0  0  0  0
  137.0088   70.6778  221.0253 H   0  0  0  0  0  0  0  0  0  0  0  0
  137.8650   69.1605  220.5433 H   0  0  0  0  0  0  0  0  0  0  0  0
  136.5334   68.8908  222.6495 H   0  0  0  0  0  0  0  0  0  0  0  0
  138.2715   68.5990  222.9011 H   0  0  0  0  0  0  0  0  0  0  0  0
  136.8092   71.2438  223.3614 H   0  0  0  0  0  0  0  0  0  0  0  0
  137.3396   70.0573  224.6408 H   0  0  0  0  0  0  0  0  0  0  0  0
  138.8239   72.0084  224.4416 H   0  0  0  0  0  0  0  0  0  0  0  0
  139.6114   69.2846  224.4098 H   0  0  0  0  0  0  0  0  0  0  0  0
  140.8625   70.4450  223.7410 H   0  0  0  0  0  0  0  0  0  0  0  0
  141.3720   72.5279  225.1649 H   0  0  0  0  0  0  0  0  0  0  0  0
  141.9858   73.2040  227.4568 H   0  0  0  0  0  0  0  0  0  0  0  0
  141.3085   71.7847  229.3772 H   0  0  0  0  0  0  0  0  0  0  0  0
  140.0227   69.7180  228.9655 H   0  0  0  0  0  0  0  0  0  0  0  0
  139.3961   69.0273  226.6742 H   0  0  0  0  0  0  0  0  0  0  0  0
  137.0819   78.6511  223.0203 H   0  0  0  0  0  0  0  0  0  0  0  0
  138.1651   80.8302  223.5957 H   0  0  0  0  0  0  0  0  0  0  0  0
  140.2399   82.1439  223.8975 H   0  0  0  0  0  0  0  0  0  0  0  0
  142.7418   82.2659  223.8518 H   0  0  0  0  0  0  0  0  0  0  0  0
  144.0239   80.2342  223.2392 H   0  0  0  0  0  0  0  0  0  0  0  0
  142.8832   78.1081  222.6764 H   0  0  0  0  0  0  0  0  0  0  0  0
  1  2  2  0
  2  3  1  0
  3  4  1  0
  4  5  1  0
  5  6  2  0
  5  7  1  0
  7  8  1  0
  8  9  1  0
  9 10  1  0
 10 11  1  0
 11 12  1  0
 12 13  1  0
 13 14  1  0
 14 15  2  0
 15 16  1  0
 16 17  2  0
 17 18  1  0
 18 19  2  0
  2 20  1  0
 20 21  2  0
 21 22  1  0
 22 23  2  0
 23 24  1  0
 24 25  2  0
 25 26  1  0
 26 27  2  0
 27 28  1  0
 28 29  2  0
 12  7  1  0
 19 14  1  0
 29 20  1  0
 28 23  1  0
  3 30  1  0
  4 31  1  0
  4 32  1  0
  8 33  1  0
  8 34  1  0
  9 35  1  0
  9 36  1  0
 10 37  1  0
 10 38  1  0
 11 39  1  0
 11 40  1  0
 12 41  1  1
 13 42  1  0
 13 43  1  0
 15 44  1  0
 16 45  1  0
 17 46  1  0
 18 47  1  0
 19 48  1  0
 21 49  1  0
 22 50  1  0
 24 51  1  0
 25 52  1  0
 26 53  1  0
 27 54  1  0
M  END
>  <smiles>  (86) 
O=C(NCC(=O)N1CCCCC1Cc1ccccc1)c1ccc2ccccc2n1

>  <score_type>  (86) 
oracle

>  <origin>  (86) 
autodockgpu

>  <m_score__min__energy>  (86) 
-9.6199999999999992

>  <m_primary>  (86) 
energy

>  <rmsd>  (86) 
8.289261980130892

>  <m_score__min__rmsd>  (86) 
8.289261980130892

>  <meeko>  (86) 
{"free_energy": -9.05, "intermolecular_energy": -10.84, "internal_energy": -2.13, "cluster_size": 23, "cluster_id": 1, "rank_in_cluster": 3}

>  <energy>  (86) 
-9.02

>  <cluster_rmsd>  (86) 
0.63

>  <cluster>  (86) 
2

$$$$

     RDKit          3D

 54 57  0  0  0  0  0  0  0  0999 V2000
  140.5990   75.3420  220.7440 O   0  0  0  0  0  0  0  0  0  0  0  0
  139.8750   75.7090  221.7230 C   0  0  0  0  0  0  0  0  0  0  0  0
  138.9220   74.8470  222.3340 N   0  0  0  0  0  0  0  0  0  0  0  0
  138.7410   73.4950  221.8480 C   0  0  0  0  0  0  0  0  0  0  0  0
  139.9060   72.7050  222.3470 C   0  0  0  0  0  0  0  0  0  0  0  0
  141.0700   73.1350  222.3120 O   0  0  0  0  0  0  0  0  0  0  0  0
  139.7000   71.4010  222.8910 N   0  0  0  0  0  0  0  0  0  0  0  0
  139.5800   70.2740  221.9930 C   0  0  0  0  0  0  0  0  0  0  0  0
  138.3800   69.4160  222.3320 C   0  0  0  0  0  0  0  0  0  0  0  0
  138.3590   69.0700  223.8150 C   0  0  0  0  0  0  0  0  0  0  0  0
  138.3700   70.3710  224.5770 C   0  0  0  0  0  0  0  0  0  0  0  0
  139.6060   71.1820  224.3360 C   0  0  1  0  0  0  0  0  0  0  0  0
  140.8530   70.6080  224.9260 C   0  0  0  0  0  0  0  0  0  0  0  0
  140.6400   69.8620  226.1930 C   0  0  0  0  0  0  0  0  0  0  0  0
  140.9280   68.5200  226.3370 C   0  0  0  0  0  0  0  0  0  0  0  0
  140.7290   67.8300  227.5210 C   0  0  0  0  0  0  0  0  0  0  0  0
  140.2240   68.4950  228.6050 C   0  0  0  0  0  0  0  0  0  0  0  0
  139.9270   69.8350  228.4910 C   0  0  0  0  0  0  0  0  0  0  0  0
  140.1250   70.5310  227.3090 C   0  0  0  0  0  0  0  0  0  0  0  0
  140.0170   77.0730  222.2600 C   0  0  0  0  0  0  0  0  0  0  0  0
  138.9090   77.7980  222.6480 C   0  0  0  0  0  0  0  0  0  0  0  0
  139.0770   79.0920  223.1540 C   0  0  0  0  0  0  0  0  0  0  0  0
  140.3360   79.6420  223.2690 C   0  0  0  0  0  0  0  0  0  0  0  0
  140.5700   80.9090  223.7590 C   0  0  0  0  0  0  0  0  0  0  0  0
  141.8670   81.4280  223.8580 C   0  0  0  0  0  0  0  0  0  0  0  0
  142.9160   80.6270  223.4450 C   0  0  0  0  0  0  0  0  0  0  0  0
  142.7270   79.3580  222.9490 C   0  0  0  0  0  0  0  0  0  0  0  0
  141.4200   78.8930  222.8740 C   0  0  0  0  0  0  0  0  0  0  0  0
  141.2400   77.6520  222.3890 N   0  0  0  0  0  0  0  0  0  0  0  0
  138.3600   75.2020  223.1300 H   0  0  0  0  0  0  0  0  0  0  0  0
  137.8020   73.0741  222.2367 H   0  0  0  0  0  0  0  0  0  0  0  0
  138.6857   73.4714  220.7496 H   0  0  0  0  0  0  0  0  0  0  0  0
  139.4724   70.6475  220.9640 H   0  0  0  0  0  0  0  0  0  0  0  0
  140.4842   69.6559  222.0943 H   0  0  0  0  0  0  0  0  0  0  0  0
  137.4615   69.9652  222.0775 H   0  0  0  0  0  0  0  0  0  0  0  0
  138.4424   68.4818  221.7546 H   0  0  0  0  0  0  0  0  0  0  0  0
  137.4497   68.4998  224.0560 H   0  0  0  0  0  0  0  0  0  0  0  0
  139.2288   68.4527  224.0841 H   0  0  0  0  0  0  0  0  0  0  0  0
  137.4963   70.9644  224.2694 H   0  0  0  0  0  0  0  0  0  0  0  0
  138.3432   70.1240  225.6486 H   0  0  0  0  0  0  0  0  0  0  0  0
  139.5152   72.1404  224.8682 H   0  0  0  0  0  0  0  0  0  0  0  0
  141.2974   69.9204  224.1914 H   0  0  0  0  0  0  0  0  0  0  0  0
  141.5092   71.4576  225.1660 H   0  0  0  0  0  0  0  0  0  0  0  0
  141.3338   67.9740  225.4726 H   0  0  0  0  0  0  0  0  0  0  0  0
  140.9740   66.7598  227.5893 H   0  0  0  0  0  0  0  0  0  0  0  0
  140.0574   67.9662  229.5551 H   0  0  0  0  0  0  0  0  0  0  0  0
  139.5209   70.3682  229.3632 H   0  0  0  0  0  0  0  0  0  0  0  0
  139.8791   71.6015  227.2485 H   0  0  0  0  0  0  0  0  0  0  0  0
  137.9026   77.3628  222.5604 H   0  0  0  0  0  0  0  0  0  0  0  0
  138.1969   79.6753  223.4626 H   0  0  0  0  0  0  0  0  0  0  0  0
  139.7182   81.5268  224.0797 H   0  0  0  0  0  0  0  0  0  0  0  0
  142.0455   82.4396  224.2514 H   0  0  0  0  0  0  0  0  0  0  0  0
  143.9410   81.0198  223.5159 H   0  0  0  0  0  0  0  0  0  0  0  0
  143.5754   78.7372  222.6252 H   0  0  0  0  0  0  0  0  0  0  0  0
  1  2  2  0
  2  3  1  0
  3  4  1  0
  4  5  1  0
  5  6  2  0
  5  7  1  0
  7  8  1  0
  8  9  1  0
  9 10  1  0
 10 11  1  0
 11 12  1  0
 12 13  1  0
 13 14  1  0
 14 15  2  0
 15 16  1  0
 16 17  2  0
 17 18  1  0
 18 19  2  0
  2 20  1  0
 20 21  2  0
 21 22  1  0
 22 23  2  0
 23 24  1  0
 24 25  2  0
 25 26  1  0
 26 27  2  0
 27 28  1  0
 28 29  2  0
 12  7  1  0
 19 14  1  0
 29 20  1  0
 28 23  1  0
  3 30  1  0
  4 31  1  0
  4 32  1  0
  8 33  1  0
  8 34  1  0
  9 35  1  0
  9 36  1  0
 10 37  1  0
 10 38  1  0
 11 39  1  0
 11 40  1  0
 12 41  1  1
 13 42  1  0
 13 43  1  0
 15 44  1  0
 16 45  1  0
 17 46  1  0
 18 47  1  0
 19 48  1  0
 21 49  1  0
 22 50  1  0
 24 51  1  0
 25 52  1  0
 26 53  1  0
 27 54  1  0
M  END
>  <smiles>  (87) 
O=C(NCC(=O)N1CCCCC1Cc1ccccc1)c1ccc2ccccc2n1

>  <score_type>  (87) 
oracle

>  <origin>  (87) 
autodockgpu

>  <m_score__min__energy>  (87) 
-9.6199999999999992

>  <m_primary>  (87) 
energy

>  <rmsd>  (87) 
8.206494752997628

>  <m_score__min__rmsd>  (87) 
8.206494752997628

>  <meeko>  (87) 
{"free_energy": -9.62, "intermolecular_energy": -11.41, "internal_energy": -1.29, "cluster_size": 23, "cluster_id": 1, "rank_in_cluster": 1}

>  <energy>  (87) 
-8.86

>  <cluster_rmsd>  (87) 
0.72

>  <cluster>  (87) 
2

$$$$

     RDKit          3D

 54 57  0  0  0  0  0  0  0  0999 V2000
  137.0680   76.3300  222.2020 O   0  0  0  0  0  0  0  0  0  0  0  0
  138.3240   76.3870  222.3880 C   0  0  0  0  0  0  0  0  0  0  0  0
  139.1650   75.2440  222.2810 N   0  0  0  0  0  0  0  0  0  0  0  0
  138.6030   73.9500  221.9510 C   0  0  0  0  0  0  0  0  0  0  0  0
  139.6670   72.9410  222.2380 C   0  0  0  0  0  0  0  0  0  0  0  0
  140.8680   73.2420  222.3290 O   0  0  0  0  0  0  0  0  0  0  0  0
  139.3140   71.5690  222.4190 N   0  0  0  0  0  0  0  0  0  0  0  0
  139.3310   70.6820  221.2760 C   0  0  0  0  0  0  0  0  0  0  0  0
  138.0590   69.8660  221.1850 C   0  0  0  0  0  0  0  0  0  0  0  0
  137.7390   69.2040  222.5190 C   0  0  0  0  0  0  0  0  0  0  0  0
  137.6480   70.2990  223.5510 C   0  0  0  0  0  0  0  0  0  0  0  0
  138.9350   71.0440  223.7320 C   0  0  1  0  0  0  0  0  0  0  0  0
  140.0230   70.2590  224.3880 C   0  0  0  0  0  0  0  0  0  0  0  0
  140.3450   70.7000  225.7690 C   0  0  0  0  0  0  0  0  0  0  0  0
  139.9190   70.0270  226.8960 C   0  0  0  0  0  0  0  0  0  0  0  0
  140.2240   70.4420  228.1810 C   0  0  0  0  0  0  0  0  0  0  0  0
  140.9800   71.5690  228.3580 C   0  0  0  0  0  0  0  0  0  0  0  0
  141.4200   72.2620  227.2510 C   0  0  0  0  0  0  0  0  0  0  0  0
  141.1180   71.8510  225.9630 C   0  0  0  0  0  0  0  0  0  0  0  0
  138.9510   77.6770  222.7250 C   0  0  0  0  0  0  0  0  0  0  0  0
  138.1800   78.7740  223.0450 C   0  0  0  0  0  0  0  0  0  0  0  0
  138.8060   79.9860  223.3610 C   0  0  0  0  0  0  0  0  0  0  0  0
  140.1800   80.0870  223.3550 C   0  0  0  0  0  0  0  0  0  0  0  0
  140.8590   81.2490  223.6560 C   0  0  0  0  0  0  0  0  0  0  0  0
  142.2580   81.3060  223.6370 C   0  0  0  0  0  0  0  0  0  0  0  0
  142.9470   80.1550  223.3040 C   0  0  0  0  0  0  0  0  0  0  0  0
  142.3100   78.9750  222.9960 C   0  0  0  0  0  0  0  0  0  0  0  0
  140.9210   78.9730  223.0310 C   0  0  0  0  0  0  0  0  0  0  0  0
  140.3030   77.8190  222.7300 N   0  0  0  0  0  0  0  0  0  0  0  0
  140.1840   75.3520  222.4430 H   0  0  0  0  0  0  0  0  0  0  0  0
  137.7149   73.7523  222.5692 H   0  0  0  0  0  0  0  0  0  0  0  0
  138.2890   73.9091  220.8976 H   0  0  0  0  0  0  0  0  0  0  0  0
  139.4366   71.2820  220.3601 H   0  0  0  0  0  0  0  0  0  0  0  0
  140.1772   69.9886  221.3911 H   0  0  0  0  0  0  0  0  0  0  0  0
  137.2266   70.5274  220.9027 H   0  0  0  0  0  0  0  0  0  0  0  0
  138.2000   69.0800  220.4284 H   0  0  0  0  0  0  0  0  0  0  0  0
  136.7807   68.6679  222.4532 H   0  0  0  0  0  0  0  0  0  0  0  0
  138.5182   68.4764  222.7901 H   0  0  0  0  0  0  0  0  0  0  0  0
  136.8717   71.0123  223.2371 H   0  0  0  0  0  0  0  0  0  0  0  0
  137.4058   69.8239  224.5131 H   0  0  0  0  0  0  0  0  0  0  0  0
  138.7765   71.8649  224.4468 H   0  0  0  0  0  0  0  0  0  0  0  0
  139.7123   69.2045  224.4264 H   0  0  0  0  0  0  0  0  0  0  0  0
  140.9311   70.4146  223.7870 H   0  0  0  0  0  0  0  0  0  0  0  0
  139.3098   69.1202  226.7675 H   0  0  0  0  0  0  0  0  0  0  0  0
  139.8628   69.8724  229.0499 H   0  0  0  0  0  0  0  0  0  0  0  0
  141.2331   71.9171  229.3703 H   0  0  0  0  0  0  0  0  0  0  0  0
  142.0283   73.1672  227.3942 H   0  0  0  0  0  0  0  0  0  0  0  0
  141.4831   72.4251  225.0986 H   0  0  0  0  0  0  0  0  0  0  0  0
  137.0826   78.6979  223.0520 H   0  0  0  0  0  0  0  0  0  0  0  0
  138.1956   80.8648  223.6162 H   0  0  0  0  0  0  0  0  0  0  0  0
  140.2882   82.1523  223.9172 H   0  0  0  0  0  0  0  0  0  0  0  0
  142.7915   82.2369  223.8793 H   0  0  0  0  0  0  0  0  0  0  0  0
  144.0465   80.1835  223.2845 H   0  0  0  0  0  0  0  0  0  0  0  0
  142.8773   78.0701  222.7328 H   0  0  0  0  0  0  0  0  0  0  0  0
  1  2  2  0
  2  3  1  0
  3  4  1  0
  4  5  1  0
  5  6  2  0
  5  7  1  0
  7  8  1  0
  8  9  1  0
  9 10  1  0
 10 11  1  0
 11 12  1  0
 12 13  1  0
 13 14  1  0
 14 15  2  0
 15 16  1  0
 16 17  2  0
 17 18  1  0
 18 19  2  0
  2 20  1  0
 20 21  2  0
 21 22  1  0
 22 23  2  0
 23 24  1  0
 24 25  2  0
 25 26  1  0
 26 27  2  0
 27 28  1  0
 28 29  2  0
 12  7  1  0
 19 14  1  0
 29 20  1  0
 28 23  1  0
  3 30  1  0
  4 31  1  0
  4 32  1  0
  8 33  1  0
  8 34  1  0
  9 35  1  0
  9 36  1  0
 10 37  1  0
 10 38  1  0
 11 39  1  0
 11 40  1  0
 12 41  1  1
 13 42  1  0
 13 43  1  0
 15 44  1  0
 16 45  1  0
 17 46  1  0
 18 47  1  0
 19 48  1  0
 21 49  1  0
 22 50  1  0
 24 51  1  0
 25 52  1  0
 26 53  1  0
 27 54  1  0
M  END
>  <smiles>  (88) 
O=C(NCC(=O)N1CCCCC1Cc1ccccc1)c1ccc2ccccc2n1

>  <score_type>  (88) 
oracle

>  <origin>  (88) 
autodockgpu

>  <m_score__min__energy>  (88) 
-9.6199999999999992

>  <m_primary>  (88) 
energy

>  <rmsd>  (88) 
8.298331428193695

>  <m_score__min__rmsd>  (88) 
8.298331428193695

>  <meeko>  (88) 
{"free_energy": -8.99, "intermolecular_energy": -10.78, "internal_energy": -2.19, "cluster_size": 23, "cluster_id": 1, "rank_in_cluster": 6}

>  <energy>  (88) 
-8.72

>  <cluster_rmsd>  (88) 
1.57

>  <cluster>  (88) 
2

$$$$

     RDKit          3D

 54 57  0  0  0  0  0  0  0  0999 V2000
  141.2810   72.7690  222.0770 O   0  0  0  0  0  0  0  0  0  0  0  0
  140.1780   72.6020  222.6870 C   0  0  0  0  0  0  0  0  0  0  0  0
  139.0040   73.3360  222.3580 N   0  0  0  0  0  0  0  0  0  0  0  0
  139.0300   74.3190  221.2950 C   0  0  0  0  0  0  0  0  0  0  0  0
  139.5120   75.5940  221.9070 C   0  0  0  0  0  0  0  0  0  0  0  0
  140.7180   75.8540  222.0480 O   0  0  0  0  0  0  0  0  0  0  0  0
  138.5690   76.5670  222.3570 N   0  0  0  0  0  0  0  0  0  0  0  0
  137.3410   76.1230  222.9790 C   0  0  0  0  0  0  0  0  0  0  0  0
  136.1330   76.8200  222.3880 C   0  0  0  0  0  0  0  0  0  0  0  0
  136.3370   78.3290  222.3540 C   0  0  0  0  0  0  0  0  0  0  0  0
  137.5960   78.5920  221.5680 C   0  0  0  0  0  0  0  0  0  0  0  0
  138.8180   78.0010  222.2010 C   0  0  1  0  0  0  0  0  0  0  0  0
  139.2470   78.6660  223.4680 C   0  0  0  0  0  0  0  0  0  0  0  0
  140.5370   79.3940  223.3690 C   0  0  0  0  0  0  0  0  0  0  0  0
  141.7490   78.7610  223.1800 C   0  0  0  0  0  0  0  0  0  0  0  0
  142.9490   79.4450  223.0870 C   0  0  0  0  0  0  0  0  0  0  0  0
  142.9500   80.8100  223.1860 C   0  0  0  0  0  0  0  0  0  0  0  0
  141.7550   81.4700  223.3740 C   0  0  0  0  0  0  0  0  0  0  0  0
  140.5510   80.7900  223.4680 C   0  0  0  0  0  0  0  0  0  0  0  0
  140.0920   71.6150  223.7770 C   0  0  0  0  0  0  0  0  0  0  0  0
  139.5020   70.3850  223.5710 C   0  0  0  0  0  0  0  0  0  0  0  0
  139.4360   69.4680  224.6270 C   0  0  0  0  0  0  0  0  0  0  0  0
  139.9560   69.7860  225.8630 C   0  0  0  0  0  0  0  0  0  0  0  0
  139.9250   68.9300  226.9430 C   0  0  0  0  0  0  0  0  0  0  0  0
  140.4650   69.2940  228.1830 C   0  0  0  0  0  0  0  0  0  0  0  0
  141.0370   70.5480  228.2950 C   0  0  0  0  0  0  0  0  0  0  0  0
  141.0890   71.4330  227.2430 C   0  0  0  0  0  0  0  0  0  0  0  0
  140.5390   71.0200  226.0360 C   0  0  0  0  0  0  0  0  0  0  0  0
  140.5920   71.8870  225.0110 N   0  0  0  0  0  0  0  0  0  0  0  0
  138.1320   73.1560  222.8900 H   0  0  0  0  0  0  0  0  0  0  0  0
  139.7156   73.9976  220.4971 H   0  0  0  0  0  0  0  0  0  0  0  0
  138.0338   74.4453  220.8459 H   0  0  0  0  0  0  0  0  0  0  0  0
  137.2365   75.0384  222.8285 H   0  0  0  0  0  0  0  0  0  0  0  0
  137.3897   76.3680  224.0503 H   0  0  0  0  0  0  0  0  0  0  0  0
  135.9730   76.4553  221.3626 H   0  0  0  0  0  0  0  0  0  0  0  0
  135.2578   76.5984  223.0164 H   0  0  0  0  0  0  0  0  0  0  0  0
  135.4794   78.8141  221.8650 H   0  0  0  0  0  0  0  0  0  0  0  0
  136.4216   78.7342  223.3731 H   0  0  0  0  0  0  0  0  0  0  0  0
  137.4782   78.1597  220.5634 H   0  0  0  0  0  0  0  0  0  0  0  0
  137.7392   79.6821  221.5331 H   0  0  0  0  0  0  0  0  0  0  0  0
  139.6823   78.1740  221.5429 H   0  0  0  0  0  0  0  0  0  0  0  0
  138.4674   79.3846  223.7610 H   0  0  0  0  0  0  0  0  0  0  0  0
  139.3922   77.8669  224.2098 H   0  0  0  0  0  0  0  0  0  0  0  0
  141.7619   77.6640  223.0997 H   0  0  0  0  0  0  0  0  0  0  0  0
  143.8910   78.8976  222.9353 H   0  0  0  0  0  0  0  0  0  0  0  0
  143.8925   81.3730  223.1164 H   0  0  0  0  0  0  0  0  0  0  0  0
  141.7568   82.5673  223.4516 H   0  0  0  0  0  0  0  0  0  0  0  0
  139.6127   81.3438  223.6194 H   0  0  0  0  0  0  0  0  0  0  0  0
  139.0870   70.1269  222.5855 H   0  0  0  0  0  0  0  0  0  0  0  0
  138.9656   68.4863  224.4689 H   0  0  0  0  0  0  0  0  0  0  0  0
  139.4652   67.9373  226.8282 H   0  0  0  0  0  0  0  0  0  0  0  0
  140.4351   68.6048  229.0398 H   0  0  0  0  0  0  0  0  0  0  0  0
  141.4667   70.8493  229.2618 H   0  0  0  0  0  0  0  0  0  0  0  0
  141.5473   72.4269  227.3531 H   0  0  0  0  0  0  0  0  0  0  0  0
  1  2  2  0
  2  3  1  0
  3  4  1  0
  4  5  1  0
  5  6  2  0
  5  7  1  0
  7  8  1  0
  8  9  1  0
  9 10  1  0
 10 11  1  0
 11 12  1  0
 12 13  1  0
 13 14  1  0
 14 15  2  0
 15 16  1  0
 16 17  2  0
 17 18  1  0
 18 19  2  0
  2 20  1  0
 20 21  2  0
 21 22  1  0
 22 23  2  0
 23 24  1  0
 24 25  2  0
 25 26  1  0
 26 27  2  0
 27 28  1  0
 28 29  2  0
 12  7  1  0
 19 14  1  0
 29 20  1  0
 28 23  1  0
  3 30  1  0
  4 31  1  0
  4 32  1  0
  8 33  1  0
  8 34  1  0
  9 35  1  0
  9 36  1  0
 10 37  1  0
 10 38  1  0
 11 39  1  0
 11 40  1  0
 12 41  1  6
 13 42  1  0
 13 43  1  0
 15 44  1  0
 16 45  1  0
 17 46  1  0
 18 47  1  0
 19 48  1  0
 21 49  1  0
 22 50  1  0
 24 51  1  0
 25 52  1  0
 26 53  1  0
 27 54  1  0
M  END
>  <smiles>  (89) 
O=C(NCC(=O)N1CCCCC1Cc1ccccc1)c1ccc2ccccc2n1

>  <score_type>  (89) 
oracle

>  <origin>  (89) 
autodockgpu

>  <m_score__min__energy>  (89) 
-9.6199999999999992

>  <m_primary>  (89) 
energy

>  <rmsd>  (89) 
3.3360187827763856

>  <m_score__min__rmsd>  (89) 
3.3360187827763856

>  <meeko>  (89) 
{"free_energy": -9.19, "intermolecular_energy": -10.98, "internal_energy": -1.4, "cluster_size": 1, "cluster_id": 3, "rank_in_cluster": 1}

>  <energy>  (89) 
-8.71

>  <cluster_rmsd>  (89) 
0.76

>  <cluster>  (89) 
2

$$$$

     RDKit          3D

 54 57  0  0  0  0  0  0  0  0999 V2000
  141.1980   71.6360  221.3710 O   0  0  0  0  0  0  0  0  0  0  0  0
  140.5940   72.1990  222.3380 C   0  0  0  0  0  0  0  0  0  0  0  0
  140.1670   73.5560  222.2860 N   0  0  0  0  0  0  0  0  0  0  0  0
  140.4150   74.3560  221.1050 C   0  0  0  0  0  0  0  0  0  0  0  0
  140.6320   75.7560  221.5790 C   0  0  0  0  0  0  0  0  0  0  0  0
  140.1830   76.1740  222.6590 O   0  0  0  0  0  0  0  0  0  0  0  0
  141.3830   76.6700  220.7780 N   0  0  0  0  0  0  0  0  0  0  0  0
  141.4620   78.0570  221.1800 C   0  0  0  0  0  0  0  0  0  0  0  0
  141.1620   78.9890  220.0250 C   0  0  0  0  0  0  0  0  0  0  0  0
  141.9850   78.6190  218.7980 C   0  0  0  0  0  0  0  0  0  0  0  0
  141.6770   77.1800  218.4710 C   0  0  0  0  0  0  0  0  0  0  0  0
  142.0710   76.2330  219.5620 C   0  0  1  0  0  0  0  0  0  0  0  0
  143.5450   76.0720  219.7450 C   0  0  0  0  0  0  0  0  0  0  0  0
  143.9820   74.6700  219.9730 C   0  0  0  0  0  0  0  0  0  0  0  0
  143.2590   73.5750  219.5470 C   0  0  0  0  0  0  0  0  0  0  0  0
  143.6710   72.2710  219.7610 C   0  0  0  0  0  0  0  0  0  0  0  0
  144.8470   72.0420  220.4230 C   0  0  0  0  0  0  0  0  0  0  0  0
  145.5910   73.1160  220.8600 C   0  0  0  0  0  0  0  0  0  0  0  0
  145.1830   74.4240  220.6480 C   0  0  0  0  0  0  0  0  0  0  0  0
  140.3140   71.4330  223.5640 C   0  0  0  0  0  0  0  0  0  0  0  0
  139.6370   70.2330  223.5080 C   0  0  0  0  0  0  0  0  0  0  0  0
  139.3870   69.5290  224.6930 C   0  0  0  0  0  0  0  0  0  0  0  0
  139.8120   70.0250  225.9060 C   0  0  0  0  0  0  0  0  0  0  0  0
  139.5990   69.3830  227.1070 C   0  0  0  0  0  0  0  0  0  0  0  0
  140.0480   69.9240  228.3170 C   0  0  0  0  0  0  0  0  0  0  0  0
  140.7180   71.1330  228.2750 C   0  0  0  0  0  0  0  0  0  0  0  0
  140.9520   71.8080  227.0990 C   0  0  0  0  0  0  0  0  0  0  0  0
  140.4850   71.2250  225.9280 C   0  0  0  0  0  0  0  0  0  0  0  0
  140.7150   71.8870  224.7810 N   0  0  0  0  0  0  0  0  0  0  0  0
  139.6780   73.9610  223.1060 H   0  0  0  0  0  0  0  0  0  0  0  0
  141.3090   73.9900  220.5789 H   0  0  0  0  0  0  0  0  0  0  0  0
  139.5706   74.3003  220.4023 H   0  0  0  0  0  0  0  0  0  0  0  0
  140.7330   78.2380  221.9836 H   0  0  0  0  0  0  0  0  0  0  0  0
  142.4864   78.2572  221.5271 H   0  0  0  0  0  0  0  0  0  0  0  0
  140.0929   78.9201  219.7754 H   0  0  0  0  0  0  0  0  0  0  0  0
  141.4219   80.0148  220.3254 H   0  0  0  0  0  0  0  0  0  0  0  0
  141.7100   79.2650  217.9512 H   0  0  0  0  0  0  0  0  0  0  0  0
  143.0591   78.7534  218.9937 H   0  0  0  0  0  0  0  0  0  0  0  0
  140.5950   77.0841  218.2978 H   0  0  0  0  0  0  0  0  0  0  0  0
  142.2618   76.9138  217.5782 H   0  0  0  0  0  0  0  0  0  0  0  0
  141.7577   75.2157  219.2845 H   0  0  0  0  0  0  0  0  0  0  0  0
  144.0476   76.4472  218.8413 H   0  0  0  0  0  0  0  0  0  0  0  0
  143.8145   76.6376  220.6491 H   0  0  0  0  0  0  0  0  0  0  0  0
  142.3125   73.7459  219.0132 H   0  0  0  0  0  0  0  0  0  0  0  0
  143.0606   71.4287  219.4033 H   0  0  0  0  0  0  0  0  0  0  0  0
  145.1935   71.0138  220.6037 H   0  0  0  0  0  0  0  0  0  0  0  0
  146.5356   72.9305  221.3923 H   0  0  0  0  0  0  0  0  0  0  0  0
  145.7985   75.2618  221.0075 H   0  0  0  0  0  0  0  0  0  0  0  0
  139.2964   69.8323  222.5418 H   0  0  0  0  0  0  0  0  0  0  0  0
  138.8466   68.5717  224.6547 H   0  0  0  0  0  0  0  0  0  0  0  0
  139.0632   68.4223  227.1145 H   0  0  0  0  0  0  0  0  0  0  0  0
  139.8736   69.4043  229.2707 H   0  0  0  0  0  0  0  0  0  0  0  0
  141.0775   71.5717  229.2175 H   0  0  0  0  0  0  0  0  0  0  0  0
  141.4866   72.7693  227.0868 H   0  0  0  0  0  0  0  0  0  0  0  0
  1  2  2  0
  2  3  1  0
  3  4  1  0
  4  5  1  0
  5  6  2  0
  5  7  1  0
  7  8  1  0
  8  9  1  0
  9 10  1  0
 10 11  1  0
 11 12  1  0
 12 13  1  0
 13 14  1  0
 14 15  2  0
 15 16  1  0
 16 17  2  0
 17 18  1  0
 18 19  2  0
  2 20  1  0
 20 21  2  0
 21 22  1  0
 22 23  2  0
 23 24  1  0
 24 25  2  0
 25 26  1  0
 26 27  2  0
 27 28  1  0
 28 29  2  0
 12  7  1  0
 19 14  1  0
 29 20  1  0
 28 23  1  0
  3 30  1  0
  4 31  1  0
  4 32  1  0
  8 33  1  0
  8 34  1  0
  9 35  1  0
  9 36  1  0
 10 37  1  0
 10 38  1  0
 11 39  1  0
 11 40  1  0
 12 41  1  6
 13 42  1  0
 13 43  1  0
 15 44  1  0
 16 45  1  0
 17 46  1  0
 18 47  1  0
 19 48  1  0
 21 49  1  0
 22 50  1  0
 24 51  1  0
 25 52  1  0
 26 53  1  0
 27 54  1  0
M  END
>  <smiles>  (90) 
O=C(NCC(=O)N1CCCCC1Cc1ccccc1)c1ccc2ccccc2n1

>  <score_type>  (90) 
oracle

>  <origin>  (90) 
autodockgpu

>  <m_score__min__energy>  (90) 
-9.6199999999999992

>  <m_primary>  (90) 
energy

>  <rmsd>  (90) 
2.59782750049017

>  <m_score__min__rmsd>  (90) 
2.59782750049017

>  <meeko>  (90) 
{"free_energy": -8.84, "intermolecular_energy": -10.63, "internal_energy": -2.27, "cluster_size": 8, "cluster_id": 4, "rank_in_cluster": 5}

>  <energy>  (90) 
-8.64

>  <cluster_rmsd>  (90) 
1.46

>  <cluster>  (90) 
2

$$$$

     RDKit          3D

 54 57  0  0  0  0  0  0  0  0999 V2000
  137.1230   76.2980  222.3180 O   0  0  0  0  0  0  0  0  0  0  0  0
  138.3890   76.4120  222.3290 C   0  0  0  0  0  0  0  0  0  0  0  0
  139.2550   75.3350  221.9880 N   0  0  0  0  0  0  0  0  0  0  0  0
  138.7090   74.0470  221.6120 C   0  0  0  0  0  0  0  0  0  0  0  0
  139.5430   73.0160  222.2990 C   0  0  0  0  0  0  0  0  0  0  0  0
  140.7150   73.2270  222.6480 O   0  0  0  0  0  0  0  0  0  0  0  0
  138.9930   71.7280  222.5780 N   0  0  0  0  0  0  0  0  0  0  0  0
  138.4770   70.9320  221.4860 C   0  0  0  0  0  0  0  0  0  0  0  0
  137.1010   70.3820  221.7980 C   0  0  0  0  0  0  0  0  0  0  0  0
  137.0810   69.7070  223.1630 C   0  0  0  0  0  0  0  0  0  0  0  0
  137.5360   70.7280  224.1740 C   0  0  0  0  0  0  0  0  0  0  0  0
  138.9380   71.1990  223.9420 C   0  0  1  0  0  0  0  0  0  0  0  0
  139.9930   70.1780  224.2200 C   0  0  0  0  0  0  0  0  0  0  0  0
  140.2880   69.9820  225.6620 C   0  0  0  0  0  0  0  0  0  0  0  0
  140.5440   71.0250  226.5290 C   0  0  0  0  0  0  0  0  0  0  0  0
  140.8170   70.8370  227.8730 C   0  0  0  0  0  0  0  0  0  0  0  0
  140.8380   69.5650  228.3790 C   0  0  0  0  0  0  0  0  0  0  0  0
  140.5860   68.5040  227.5380 C   0  0  0  0  0  0  0  0  0  0  0  0
  140.3120   68.6860  226.1910 C   0  0  0  0  0  0  0  0  0  0  0  0
  139.0000   77.6980  222.7030 C   0  0  0  0  0  0  0  0  0  0  0  0
  138.2160   78.7770  223.0530 C   0  0  0  0  0  0  0  0  0  0  0  0
  138.8280   79.9870  223.4040 C   0  0  0  0  0  0  0  0  0  0  0  0
  140.2010   80.1040  223.4020 C   0  0  0  0  0  0  0  0  0  0  0  0
  140.8660   81.2640  223.7370 C   0  0  0  0  0  0  0  0  0  0  0  0
  142.2640   81.3380  223.7220 C   0  0  0  0  0  0  0  0  0  0  0  0
  142.9670   80.2040  223.3580 C   0  0  0  0  0  0  0  0  0  0  0  0
  142.3440   79.0260  223.0160 C   0  0  0  0  0  0  0  0  0  0  0  0
  140.9550   79.0080  223.0490 C   0  0  0  0  0  0  0  0  0  0  0  0
  140.3500   77.8560  222.7150 N   0  0  0  0  0  0  0  0  0  0  0  0
  140.2810   75.4870  222.0140 H   0  0  0  0  0  0  0  0  0  0  0  0
  137.6617   73.9681  221.9389 H   0  0  0  0  0  0  0  0  0  0  0  0
  138.7270   73.9106  220.5206 H   0  0  0  0  0  0  0  0  0  0  0  0
  138.4145   71.5600  220.5850 H   0  0  0  0  0  0  0  0  0  0  0  0
  139.1586   70.0834  221.3271 H   0  0  0  0  0  0  0  0  0  0  0  0
  136.3740   71.2075  221.7940 H   0  0  0  0  0  0  0  0  0  0  0  0
  136.8398   69.6355  221.0335 H   0  0  0  0  0  0  0  0  0  0  0  0
  136.0615   69.3696  223.4013 H   0  0  0  0  0  0  0  0  0  0  0  0
  137.7419   68.8277  223.1726 H   0  0  0  0  0  0  0  0  0  0  0  0
  136.8620   71.5959  224.1229 H   0  0  0  0  0  0  0  0  0  0  0  0
  137.5112   70.2452  225.1621 H   0  0  0  0  0  0  0  0  0  0  0  0
  139.1765   71.9862  224.6724 H   0  0  0  0  0  0  0  0  0  0  0  0
  139.6603   69.2162  223.8025 H   0  0  0  0  0  0  0  0  0  0  0  0
  140.9194   70.5476  223.7561 H   0  0  0  0  0  0  0  0  0  0  0  0
  140.5305   72.0516  226.1343 H   0  0  0  0  0  0  0  0  0  0  0  0
  141.0147   71.6993  228.5267 H   0  0  0  0  0  0  0  0  0  0  0  0
  141.0534   69.3927  229.4438 H   0  0  0  0  0  0  0  0  0  0  0  0
  140.6026   67.4828  227.9466 H   0  0  0  0  0  0  0  0  0  0  0  0
  140.1151   67.8190  225.5432 H   0  0  0  0  0  0  0  0  0  0  0  0
  137.1196   78.6883  223.0565 H   0  0  0  0  0  0  0  0  0  0  0  0
  138.2074   80.8511  223.6836 H   0  0  0  0  0  0  0  0  0  0  0  0
  140.2844   82.1528  224.0230 H   0  0  0  0  0  0  0  0  0  0  0  0
  142.7863   82.2680  223.9910 H   0  0  0  0  0  0  0  0  0  0  0  0
  144.0661   80.2455  223.3413 H   0  0  0  0  0  0  0  0  0  0  0  0
  142.9216   78.1352  222.7283 H   0  0  0  0  0  0  0  0  0  0  0  0
  1  2  2  0
  2  3  1  0
  3  4  1  0
  4  5  1  0
  5  6  2  0
  5  7  1  0
  7  8  1  0
  8  9  1  0
  9 10  1  0
 10 11  1  0
 11 12  1  0
 12 13  1  0
 13 14  1  0
 14 15  2  0
 15 16  1  0
 16 17  2  0
 17 18  1  0
 18 19  2  0
  2 20  1  0
 20 21  2  0
 21 22  1  0
 22 23  2  0
 23 24  1  0
 24 25  2  0
 25 26  1  0
 26 27  2  0
 27 28  1  0
 28 29  2  0
 12  7  1  0
 19 14  1  0
 29 20  1  0
 28 23  1  0
  3 30  1  0
  4 31  1  0
  4 32  1  0
  8 33  1  0
  8 34  1  0
  9 35  1  0
  9 36  1  0
 10 37  1  0
 10 38  1  0
 11 39  1  0
 11 40  1  0
 12 41  1  1
 13 42  1  0
 13 43  1  0
 15 44  1  0
 16 45  1  0
 17 46  1  0
 18 47  1  0
 19 48  1  0
 21 49  1  0
 22 50  1  0
 24 51  1  0
 25 52  1  0
 26 53  1  0
 27 54  1  0
M  END
>  <smiles>  (91) 
O=C(NCC(=O)N1CCCCC1Cc1ccccc1)c1ccc2ccccc2n1

>  <score_type>  (91) 
oracle

>  <origin>  (91) 
autodockgpu

>  <m_score__min__energy>  (91) 
-9.6199999999999992

>  <m_primary>  (91) 
energy

>  <rmsd>  (91) 
8.30592001043139

>  <m_score__min__rmsd>  (91) 
8.30592001043139

>  <meeko>  (91) 
{"free_energy": -8.7, "intermolecular_energy": -10.49, "internal_energy": -1.99, "cluster_size": 23, "cluster_id": 1, "rank_in_cluster": 19}

>  <energy>  (91) 
-9.19

>  <cluster_rmsd>  (91) 
0.0

>  <cluster>  (91) 
3

$$$$

     RDKit          3D

 54 57  0  0  0  0  0  0  0  0999 V2000
  137.1040   76.2430  222.3280 O   0  0  0  0  0  0  0  0  0  0  0  0
  138.3700   76.3650  222.3460 C   0  0  0  0  0  0  0  0  0  0  0  0
  139.2460   75.2880  222.0340 N   0  0  0  0  0  0  0  0  0  0  0  0
  138.7110   73.9890  221.6790 C   0  0  0  0  0  0  0  0  0  0  0  0
  139.6120   72.9750  222.3040 C   0  0  0  0  0  0  0  0  0  0  0  0
  140.7700   73.2400  222.6660 O   0  0  0  0  0  0  0  0  0  0  0  0
  139.1470   71.6400  222.5060 N   0  0  0  0  0  0  0  0  0  0  0  0
  139.0440   70.7510  221.3690 C   0  0  0  0  0  0  0  0  0  0  0  0
  137.7030   70.0500  221.3290 C   0  0  0  0  0  0  0  0  0  0  0  0
  137.3750   69.4230  222.6780 C   0  0  0  0  0  0  0  0  0  0  0  0
  137.4190   70.5240  223.7060 C   0  0  0  0  0  0  0  0  0  0  0  0
  138.7720   71.1540  223.8350 C   0  0  1  0  0  0  0  0  0  0  0  0
  139.8100   70.2770  224.4560 C   0  0  0  0  0  0  0  0  0  0  0  0
  140.2380   70.7050  225.8120 C   0  0  0  0  0  0  0  0  0  0  0  0
  139.9320   70.0010  226.9590 C   0  0  0  0  0  0  0  0  0  0  0  0
  140.3350   70.4050  228.2200 C   0  0  0  0  0  0  0  0  0  0  0  0
  141.0690   71.5520  228.3520 C   0  0  0  0  0  0  0  0  0  0  0  0
  141.3900   72.2760  227.2250 C   0  0  0  0  0  0  0  0  0  0  0  0
  140.9900   71.8770  225.9600 C   0  0  0  0  0  0  0  0  0  0  0  0
  138.9700   77.6630  222.6990 C   0  0  0  0  0  0  0  0  0  0  0  0
  138.1760   78.7410  223.0290 C   0  0  0  0  0  0  0  0  0  0  0  0
  138.7770   79.9620  223.3590 C   0  0  0  0  0  0  0  0  0  0  0  0
  140.1490   80.0900  223.3590 C   0  0  0  0  0  0  0  0  0  0  0  0
  140.8040   81.2620  223.6750 C   0  0  0  0  0  0  0  0  0  0  0  0
  142.2010   81.3470  223.6620 C   0  0  0  0  0  0  0  0  0  0  0  0
  142.9140   80.2130  223.3190 C   0  0  0  0  0  0  0  0  0  0  0  0
  142.3010   79.0240  222.9960 C   0  0  0  0  0  0  0  0  0  0  0  0
  140.9130   78.9950  223.0260 C   0  0  0  0  0  0  0  0  0  0  0  0
  140.3180   77.8320  222.7110 N   0  0  0  0  0  0  0  0  0  0  0  0
  140.2700   75.4470  222.0650 H   0  0  0  0  0  0  0  0  0  0  0  0
  137.6880   73.8799  222.0683 H   0  0  0  0  0  0  0  0  0  0  0  0
  138.6654   73.8620  220.5873 H   0  0  0  0  0  0  0  0  0  0  0  0
  139.1685   71.3362  220.4460 H   0  0  0  0  0  0  0  0  0  0  0  0
  139.8294   69.9860  221.4583 H   0  0  0  0  0  0  0  0  0  0  0  0
  136.9222   70.7812  221.0727 H   0  0  0  0  0  0  0  0  0  0  0  0
  137.7467   69.2523  220.5728 H   0  0  0  0  0  0  0  0  0  0  0  0
  136.3713   68.9737  222.6503 H   0  0  0  0  0  0  0  0  0  0  0  0
  138.0966   68.6303  222.9250 H   0  0  0  0  0  0  0  0  0  0  0  0
  136.6968   71.3018  223.4170 H   0  0  0  0  0  0  0  0  0  0  0  0
  137.1726   70.0741  224.6791 H   0  0  0  0  0  0  0  0  0  0  0  0
  138.7130   71.9884  224.5493 H   0  0  0  0  0  0  0  0  0  0  0  0
  139.4018   69.2581  224.5289 H   0  0  0  0  0  0  0  0  0  0  0  0
  140.6993   70.3353  223.8112 H   0  0  0  0  0  0  0  0  0  0  0  0
  139.3414   69.0776  226.8669 H   0  0  0  0  0  0  0  0  0  0  0  0
  140.0681   69.8105  229.1062 H   0  0  0  0  0  0  0  0  0  0  0  0
  141.3985   71.8916  229.3451 H   0  0  0  0  0  0  0  0  0  0  0  0
  141.9810   73.1975  227.3325 H   0  0  0  0  0  0  0  0  0  0  0  0
  141.2611   72.4764  225.0784 H   0  0  0  0  0  0  0  0  0  0  0  0
  137.0804   78.6427  223.0330 H   0  0  0  0  0  0  0  0  0  0  0  0
  138.1486   80.8262  223.6204 H   0  0  0  0  0  0  0  0  0  0  0  0
  140.2144   82.1510  223.9436 H   0  0  0  0  0  0  0  0  0  0  0  0
  142.7151   82.2856  223.9164 H   0  0  0  0  0  0  0  0  0  0  0  0
  144.0128   80.2632  223.3037 H   0  0  0  0  0  0  0  0  0  0  0  0
  142.8865   78.1331  222.7251 H   0  0  0  0  0  0  0  0  0  0  0  0
  1  2  2  0
  2  3  1  0
  3  4  1  0
  4  5  1  0
  5  6  2  0
  5  7  1  0
  7  8  1  0
  8  9  1  0
  9 10  1  0
 10 11  1  0
 11 12  1  0
 12 13  1  0
 13 14  1  0
 14 15  2  0
 15 16  1  0
 16 17  2  0
 17 18  1  0
 18 19  2  0
  2 20  1  0
 20 21  2  0
 21 22  1  0
 22 23  2  0
 23 24  1  0
 24 25  2  0
 25 26  1  0
 26 27  2  0
 27 28  1  0
 28 29  2  0
 12  7  1  0
 19 14  1  0
 29 20  1  0
 28 23  1  0
  3 30  1  0
  4 31  1  0
  4 32  1  0
  8 33  1  0
  8 34  1  0
  9 35  1  0
  9 36  1  0
 10 37  1  0
 10 38  1  0
 11 39  1  0
 11 40  1  0
 12 41  1  1
 13 42  1  0
 13 43  1  0
 15 44  1  0
 16 45  1  0
 17 46  1  0
 18 47  1  0
 19 48  1  0
 21 49  1  0
 22 50  1  0
 24 51  1  0
 25 52  1  0
 26 53  1  0
 27 54  1  0
M  END
>  <smiles>  (92) 
O=C(NCC(=O)N1CCCCC1Cc1ccccc1)c1ccc2ccccc2n1

>  <score_type>  (92) 
oracle

>  <origin>  (92) 
autodockgpu

>  <m_score__min__energy>  (92) 
-9.6199999999999992

>  <m_primary>  (92) 
energy

>  <rmsd>  (92) 
8.308341177862813

>  <m_score__min__rmsd>  (92) 
8.308341177862813

>  <meeko>  (92) 
{"free_energy": -8.94, "intermolecular_energy": -10.73, "internal_energy": -2.09, "cluster_size": 23, "cluster_id": 1, "rank_in_cluster": 9}

>  <energy>  (92) 
-8.89

>  <cluster_rmsd>  (92) 
0.0

>  <cluster>  (92) 
4

$$$$

     RDKit          3D

 54 57  0  0  0  0  0  0  0  0999 V2000
  139.7150   70.8620  221.1660 O   0  0  0  0  0  0  0  0  0  0  0  0
  139.6820   71.5470  222.2370 C   0  0  0  0  0  0  0  0  0  0  0  0
  139.5880   72.9670  222.2330 N   0  0  0  0  0  0  0  0  0  0  0  0
  139.5280   73.6930  220.9810 C   0  0  0  0  0  0  0  0  0  0  0  0
  140.1800   75.0140  221.2260 C   0  0  0  0  0  0  0  0  0  0  0  0
  140.2370   75.5340  222.3520 O   0  0  0  0  0  0  0  0  0  0  0  0
  140.7690   75.7280  220.1390 N   0  0  0  0  0  0  0  0  0  0  0  0
  140.2940   75.4810  218.7950 C   0  0  0  0  0  0  0  0  0  0  0  0
  141.4410   75.2450  217.8340 C   0  0  0  0  0  0  0  0  0  0  0  0
  142.4930   76.3380  217.9610 C   0  0  0  0  0  0  0  0  0  0  0  0
  142.9430   76.3600  219.4000 C   0  0  0  0  0  0  0  0  0  0  0  0
  141.8410   76.7020  220.3550 C   0  0  1  0  0  0  0  0  0  0  0  0
  141.3720   78.1190  220.2840 C   0  0  0  0  0  0  0  0  0  0  0  0
  141.6290   78.9080  221.5150 C   0  0  0  0  0  0  0  0  0  0  0  0
  142.1650   80.1800  221.5000 C   0  0  0  0  0  0  0  0  0  0  0  0
  142.4020   80.9110  222.6510 C   0  0  0  0  0  0  0  0  0  0  0  0
  142.0950   80.3620  223.8660 C   0  0  0  0  0  0  0  0  0  0  0  0
  141.5580   79.0940  223.9140 C   0  0  0  0  0  0  0  0  0  0  0  0
  141.3200   78.3570  222.7650 C   0  0  0  0  0  0  0  0  0  0  0  0
  139.7390   70.8620  223.5400 C   0  0  0  0  0  0  0  0  0  0  0  0
  139.2640   69.5750  223.6820 C   0  0  0  0  0  0  0  0  0  0  0  0
  139.3330   68.9510  224.9340 C   0  0  0  0  0  0  0  0  0  0  0  0
  139.8700   69.6120  226.0170 C   0  0  0  0  0  0  0  0  0  0  0  0
  139.9680   69.0560  227.2750 C   0  0  0  0  0  0  0  0  0  0  0  0
  140.5220   69.7650  228.3480 C   0  0  0  0  0  0  0  0  0  0  0  0
  140.9720   71.0500  228.1100 C   0  0  0  0  0  0  0  0  0  0  0  0
  140.8930   71.6440  226.8710 C   0  0  0  0  0  0  0  0  0  0  0  0
  140.3360   70.8950  225.8420 C   0  0  0  0  0  0  0  0  0  0  0  0
  140.2610   71.4780  224.6330 N   0  0  0  0  0  0  0  0  0  0  0  0
  139.5640   73.4720  223.1390 H   0  0  0  0  0  0  0  0  0  0  0  0
  140.0675   73.1426  220.1962 H   0  0  0  0  0  0  0  0  0  0  0  0
  138.4888   73.8186  220.6431 H   0  0  0  0  0  0  0  0  0  0  0  0
  139.6460   74.5922  218.8029 H   0  0  0  0  0  0  0  0  0  0  0  0
  139.7386   76.3684  218.4573 H   0  0  0  0  0  0  0  0  0  0  0  0
  141.9038   74.2726  218.0581 H   0  0  0  0  0  0  0  0  0  0  0  0
  141.0460   75.2564  216.8074 H   0  0  0  0  0  0  0  0  0  0  0  0
  143.3464   76.1178  217.3028 H   0  0  0  0  0  0  0  0  0  0  0  0
  142.0792   77.3138  217.6667 H   0  0  0  0  0  0  0  0  0  0  0  0
  143.3350   75.3655  219.6595 H   0  0  0  0  0  0  0  0  0  0  0  0
  143.7110   77.1422  219.4916 H   0  0  0  0  0  0  0  0  0  0  0  0
  142.2243   76.6343  221.3838 H   0  0  0  0  0  0  0  0  0  0  0  0
  141.8865   78.6110  219.4454 H   0  0  0  0  0  0  0  0  0  0  0  0
  140.2803   78.0842  220.1533 H   0  0  0  0  0  0  0  0  0  0  0  0
  142.4150   80.6331  220.5293 H   0  0  0  0  0  0  0  0  0  0  0  0
  142.8321   81.9216  222.5897 H   0  0  0  0  0  0  0  0  0  0  0  0
  142.2747   80.9260  224.7932 H   0  0  0  0  0  0  0  0  0  0  0  0
  141.3113   78.6545  224.8918 H   0  0  0  0  0  0  0  0  0  0  0  0
  140.8914   77.3463  222.8341 H   0  0  0  0  0  0  0  0  0  0  0  0
  138.8349   69.0435  222.8198 H   0  0  0  0  0  0  0  0  0  0  0  0
  138.9553   67.9248  225.0536 H   0  0  0  0  0  0  0  0  0  0  0  0
  139.6025   68.0316  227.4395 H   0  0  0  0  0  0  0  0  0  0  0  0
  140.5967   69.3137  229.3484 H   0  0  0  0  0  0  0  0  0  0  0  0
  141.4101   71.6198  228.9428 H   0  0  0  0  0  0  0  0  0  0  0  0
  141.2557   72.6687  226.7026 H   0  0  0  0  0  0  0  0  0  0  0  0
  1  2  2  0
  2  3  1  0
  3  4  1  0
  4  5  1  0
  5  6  2  0
  5  7  1  0
  7  8  1  0
  8  9  1  0
  9 10  1  0
 10 11  1  0
 11 12  1  0
 12 13  1  0
 13 14  1  0
 14 15  2  0
 15 16  1  0
 16 17  2  0
 17 18  1  0
 18 19  2  0
  2 20  1  0
 20 21  2  0
 21 22  1  0
 22 23  2  0
 23 24  1  0
 24 25  2  0
 25 26  1  0
 26 27  2  0
 27 28  1  0
 28 29  2  0
 12  7  1  0
 19 14  1  0
 29 20  1  0
 28 23  1  0
  3 30  1  0
  4 31  1  0
  4 32  1  0
  8 33  1  0
  8 34  1  0
  9 35  1  0
  9 36  1  0
 10 37  1  0
 10 38  1  0
 11 39  1  0
 11 40  1  0
 12 41  1  1
 13 42  1  0
 13 43  1  0
 15 44  1  0
 16 45  1  0
 17 46  1  0
 18 47  1  0
 19 48  1  0
 21 49  1  0
 22 50  1  0
 24 51  1  0
 25 52  1  0
 26 53  1  0
 27 54  1  0
M  END
>  <smiles>  (93) 
O=C(NCC(=O)N1CCCCC1Cc1ccccc1)c1ccc2ccccc2n1

>  <score_type>  (93) 
oracle

>  <origin>  (93) 
autodockgpu

>  <m_score__min__energy>  (93) 
-9.6199999999999992

>  <m_primary>  (93) 
energy

>  <rmsd>  (93) 
1.3711286031923344

>  <m_score__min__rmsd>  (93) 
1.3711286031923344

>  <meeko>  (93) 
{"free_energy": -9.22, "intermolecular_energy": -11.01, "internal_energy": -2.01, "cluster_size": 17, "cluster_id": 2, "rank_in_cluster": 6}

>  <energy>  (93) 
-8.86

>  <cluster_rmsd>  (93) 
0.42

>  <cluster>  (93) 
4

$$$$

     RDKit          3D

 54 57  0  0  0  0  0  0  0  0999 V2000
  137.0270   76.2520  222.3840 O   0  0  0  0  0  0  0  0  0  0  0  0
  138.2940   76.3470  222.4300 C   0  0  0  0  0  0  0  0  0  0  0  0
  139.1530   75.2380  222.1890 N   0  0  0  0  0  0  0  0  0  0  0  0
  138.5980   73.9370  221.8780 C   0  0  0  0  0  0  0  0  0  0  0  0
  139.6210   72.9300  222.2930 C   0  0  0  0  0  0  0  0  0  0  0  0
  140.8100   73.2280  222.4950 O   0  0  0  0  0  0  0  0  0  0  0  0
  139.2440   71.5650  222.4700 N   0  0  0  0  0  0  0  0  0  0  0  0
  139.2280   70.6840  221.3220 C   0  0  0  0  0  0  0  0  0  0  0  0
  137.9380   69.8950  221.2430 C   0  0  0  0  0  0  0  0  0  0  0  0
  137.6230   69.2310  222.5770 C   0  0  0  0  0  0  0  0  0  0  0  0
  137.5670   70.3210  223.6170 C   0  0  0  0  0  0  0  0  0  0  0  0
  138.8710   71.0390  223.7840 C   0  0  1  0  0  0  0  0  0  0  0  0
  139.9520   70.2270  224.4210 C   0  0  0  0  0  0  0  0  0  0  0  0
  140.3470   70.6930  225.7750 C   0  0  0  0  0  0  0  0  0  0  0  0
  141.0780   71.8430  225.9950 C   0  0  0  0  0  0  0  0  0  0  0  0
  141.4430   72.2740  227.2590 C   0  0  0  0  0  0  0  0  0  0  0  0
  141.0690   71.5360  228.3490 C   0  0  0  0  0  0  0  0  0  0  0  0
  140.3390   70.3830  228.1620 C   0  0  0  0  0  0  0  0  0  0  0  0
  139.9710   69.9470  226.8990 C   0  0  0  0  0  0  0  0  0  0  0  0
  138.9140   77.6470  222.7400 C   0  0  0  0  0  0  0  0  0  0  0  0
  138.1370   78.7520  223.0160 C   0  0  0  0  0  0  0  0  0  0  0  0
  138.7570   79.9730  223.3080 C   0  0  0  0  0  0  0  0  0  0  0  0
  140.1310   80.0750  223.3220 C   0  0  0  0  0  0  0  0  0  0  0  0
  140.8040   81.2460  223.6010 C   0  0  0  0  0  0  0  0  0  0  0  0
  142.2030   81.3040  223.6040 C   0  0  0  0  0  0  0  0  0  0  0  0
  142.8980   80.1440  223.3160 C   0  0  0  0  0  0  0  0  0  0  0  0
  142.2670   78.9550  223.0310 C   0  0  0  0  0  0  0  0  0  0  0  0
  140.8780   78.9530  223.0430 C   0  0  0  0  0  0  0  0  0  0  0  0
  140.2660   77.7900  222.7650 N   0  0  0  0  0  0  0  0  0  0  0  0
  140.1800   75.3760  222.2400 H   0  0  0  0  0  0  0  0  0  0  0  0
  137.6623   73.7799  222.4346 H   0  0  0  0  0  0  0  0  0  0  0  0
  138.3649   73.8494  220.8066 H   0  0  0  0  0  0  0  0  0  0  0  0
  139.3344   71.2867  220.4080 H   0  0  0  0  0  0  0  0  0  0  0  0
  140.0609   69.9726  221.4226 H   0  0  0  0  0  0  0  0  0  0  0  0
  137.1157   70.5753  220.9765 H   0  0  0  0  0  0  0  0  0  0  0  0
  138.0521   69.1115  220.4793 H   0  0  0  0  0  0  0  0  0  0  0  0
  136.6537   68.7140  222.5207 H   0  0  0  0  0  0  0  0  0  0  0  0
  138.3915   68.4868  222.8332 H   0  0  0  0  0  0  0  0  0  0  0  0
  136.8006   71.0513  223.3183 H   0  0  0  0  0  0  0  0  0  0  0  0
  137.3281   69.8451  224.5795 H   0  0  0  0  0  0  0  0  0  0  0  0
  138.7380   71.8591  224.5049 H   0  0  0  0  0  0  0  0  0  0  0  0
  139.6000   69.1881  224.5030 H   0  0  0  0  0  0  0  0  0  0  0  0
  140.8409   70.3270  223.7808 H   0  0  0  0  0  0  0  0  0  0  0  0
  141.3845   72.4444  225.1265 H   0  0  0  0  0  0  0  0  0  0  0  0
  142.0263   73.1980  227.3855 H   0  0  0  0  0  0  0  0  0  0  0  0
  141.3481   71.8597  229.3626 H   0  0  0  0  0  0  0  0  0  0  0  0
  140.0397   69.7916  229.0399 H   0  0  0  0  0  0  0  0  0  0  0  0
  139.3879   69.0219  226.7803 H   0  0  0  0  0  0  0  0  0  0  0  0
  137.0397   78.6750  223.0069 H   0  0  0  0  0  0  0  0  0  0  0  0
  138.1421   80.8581  223.5280 H   0  0  0  0  0  0  0  0  0  0  0  0
  140.2282   82.1558  223.8264 H   0  0  0  0  0  0  0  0  0  0  0  0
  142.7320   82.2420  223.8282 H   0  0  0  0  0  0  0  0  0  0  0  0
  143.9976   80.1728  223.3146 H   0  0  0  0  0  0  0  0  0  0  0  0
  142.8390   78.0435  222.8030 H   0  0  0  0  0  0  0  0  0  0  0  0
  1  2  2  0
  2  3  1  0
  3  4  1  0
  4  5  1  0
  5  6  2  0
  5  7  1  0
  7  8  1  0
  8  9  1  0
  9 10  1  0
 10 11  1  0
 11 12  1  0
 12 13  1  0
 13 14  1  0
 14 15  2  0
 15 16  1  0
 16 17  2  0
 17 18  1  0
 18 19  2  0
  2 20  1  0
 20 21  2  0
 21 22  1  0
 22 23  2  0
 23 24  1  0
 24 25  2  0
 25 26  1  0
 26 27  2  0
 27 28  1  0
 28 29  2  0
 12  7  1  0
 19 14  1  0
 29 20  1  0
 28 23  1  0
  3 30  1  0
  4 31  1  0
  4 32  1  0
  8 33  1  0
  8 34  1  0
  9 35  1  0
  9 36  1  0
 10 37  1  0
 10 38  1  0
 11 39  1  0
 11 40  1  0
 12 41  1  1
 13 42  1  0
 13 43  1  0
 15 44  1  0
 16 45  1  0
 17 46  1  0
 18 47  1  0
 19 48  1  0
 21 49  1  0
 22 50  1  0
 24 51  1  0
 25 52  1  0
 26 53  1  0
 27 54  1  0
M  END
>  <smiles>  (94) 
O=C(NCC(=O)N1CCCCC1Cc1ccccc1)c1ccc2ccccc2n1

>  <score_type>  (94) 
oracle

>  <origin>  (94) 
autodockgpu

>  <m_score__min__energy>  (94) 
-9.6199999999999992

>  <m_primary>  (94) 
energy

>  <rmsd>  (94) 
8.304638302710172

>  <m_score__min__rmsd>  (94) 
8.304638302710172

>  <meeko>  (94) 
{"free_energy": -8.98, "intermolecular_energy": -10.77, "internal_energy": -2.19, "cluster_size": 23, "cluster_id": 1, "rank_in_cluster": 7}

>  <energy>  (94) 
-8.84

>  <cluster_rmsd>  (94) 
0.47

>  <cluster>  (94) 
4

$$$$

     RDKit          3D

 54 57  0  0  0  0  0  0  0  0999 V2000
  140.3430   70.7230  221.2910 O   0  0  0  0  0  0  0  0  0  0  0  0
  140.0460   71.4220  222.3100 C   0  0  0  0  0  0  0  0  0  0  0  0
  139.8310   72.8270  222.2360 N   0  0  0  0  0  0  0  0  0  0  0  0
  139.9480   73.5200  220.9690 C   0  0  0  0  0  0  0  0  0  0  0  0
  139.9990   74.9790  221.2860 C   0  0  0  0  0  0  0  0  0  0  0  0
  139.6200   75.4400  222.3750 O   0  0  0  0  0  0  0  0  0  0  0  0
  140.5000   75.9000  220.3170 N   0  0  0  0  0  0  0  0  0  0  0  0
  140.0620   75.7830  218.9430 C   0  0  0  0  0  0  0  0  0  0  0  0
  141.2300   75.8190  217.9810 C   0  0  0  0  0  0  0  0  0  0  0  0
  142.1420   77.0030  218.2750 C   0  0  0  0  0  0  0  0  0  0  0  0
  142.5830   76.8810  219.7110 C   0  0  0  0  0  0  0  0  0  0  0  0
  141.4460   76.9550  220.6830 C   0  0  1  0  0  0  0  0  0  0  0  0
  140.8100   78.3020  220.7950 C   0  0  0  0  0  0  0  0  0  0  0  0
  141.3590   79.1470  221.8870 C   0  0  0  0  0  0  0  0  0  0  0  0
  141.6860   80.4770  221.7220 C   0  0  0  0  0  0  0  0  0  0  0  0
  142.1960   81.2600  222.7430 C   0  0  0  0  0  0  0  0  0  0  0  0
  142.3910   80.7020  223.9780 C   0  0  0  0  0  0  0  0  0  0  0  0
  142.0740   79.3760  224.1730 C   0  0  0  0  0  0  0  0  0  0  0  0
  141.5630   78.5880  223.1550 C   0  0  0  0  0  0  0  0  0  0  0  0
  139.9130   70.7720  223.6250 C   0  0  0  0  0  0  0  0  0  0  0  0
  139.3370   69.5240  223.7400 C   0  0  0  0  0  0  0  0  0  0  0  0
  139.2250   68.9330  225.0040 C   0  0  0  0  0  0  0  0  0  0  0  0
  139.6860   69.5860  226.1270 C   0  0  0  0  0  0  0  0  0  0  0  0
  139.6070   69.0600  227.3990 C   0  0  0  0  0  0  0  0  0  0  0  0
  140.0880   69.7590  228.5120 C   0  0  0  0  0  0  0  0  0  0  0  0
  140.6510   71.0050  228.2990 C   0  0  0  0  0  0  0  0  0  0  0  0
  140.7490   71.5670  227.0470 C   0  0  0  0  0  0  0  0  0  0  0  0
  140.2560   70.8290  225.9780 C   0  0  0  0  0  0  0  0  0  0  0  0
  140.3550   71.3820  224.7570 N   0  0  0  0  0  0  0  0  0  0  0  0
  139.5900   73.3460  223.1010 H   0  0  0  0  0  0  0  0  0  0  0  0
  140.8679   73.2114  220.4507 H   0  0  0  0  0  0  0  0  0  0  0  0
  139.1003   73.2861  220.3082 H   0  0  0  0  0  0  0  0  0  0  0  0
  139.5265   74.8302  218.8189 H   0  0  0  0  0  0  0  0  0  0  0  0
  139.4043   76.6354  218.7177 H   0  0  0  0  0  0  0  0  0  0  0  0
  141.8065   74.8874  218.0799 H   0  0  0  0  0  0  0  0  0  0  0  0
  140.8389   75.9230  216.9581 H   0  0  0  0  0  0  0  0  0  0  0  0
  143.0170   76.9791  217.6088 H   0  0  0  0  0  0  0  0  0  0  0  0
  141.6136   77.9533  218.1085 H   0  0  0  0  0  0  0  0  0  0  0  0
  143.0916   75.9142  219.8401 H   0  0  0  0  0  0  0  0  0  0  0  0
  143.2509   77.7291  219.9222 H   0  0  0  0  0  0  0  0  0  0  0  0
  141.8323   76.7928  221.7001 H   0  0  0  0  0  0  0  0  0  0  0  0
  140.9556   78.8323  219.8423 H   0  0  0  0  0  0  0  0  0  0  0  0
  139.7492   78.1315  221.0307 H   0  0  0  0  0  0  0  0  0  0  0  0
  141.5345   80.9361  220.7340 H   0  0  0  0  0  0  0  0  0  0  0  0
  142.4416   82.3173  222.5645 H   0  0  0  0  0  0  0  0  0  0  0  0
  142.7958   81.3052  224.8040 H   0  0  0  0  0  0  0  0  0  0  0  0
  142.2312   78.9298  225.1661 H   0  0  0  0  0  0  0  0  0  0  0  0
  141.3193   77.5315  223.3408 H   0  0  0  0  0  0  0  0  0  0  0  0
  138.9691   68.9980  222.8467 H   0  0  0  0  0  0  0  0  0  0  0  0
  138.7650   67.9386  225.1020 H   0  0  0  0  0  0  0  0  0  0  0  0
  139.1552   68.0674  227.5425 H   0  0  0  0  0  0  0  0  0  0  0  0
  140.0207   69.3317  229.5234 H   0  0  0  0  0  0  0  0  0  0  0  0
  141.0346   71.5673  229.1631 H   0  0  0  0  0  0  0  0  0  0  0  0
  141.1991   72.5597  226.8985 H   0  0  0  0  0  0  0  0  0  0  0  0
  1  2  2  0
  2  3  1  0
  3  4  1  0
  4  5  1  0
  5  6  2  0
  5  7  1  0
  7  8  1  0
  8  9  1  0
  9 10  1  0
 10 11  1  0
 11 12  1  0
 12 13  1  0
 13 14  1  0
 14 15  2  0
 15 16  1  0
 16 17  2  0
 17 18  1  0
 18 19  2  0
  2 20  1  0
 20 21  2  0
 21 22  1  0
 22 23  2  0
 23 24  1  0
 24 25  2  0
 25 26  1  0
 26 27  2  0
 27 28  1  0
 28 29  2  0
 12  7  1  0
 19 14  1  0
 29 20  1  0
 28 23  1  0
  3 30  1  0
  4 31  1  0
  4 32  1  0
  8 33  1  0
  8 34  1  0
  9 35  1  0
  9 36  1  0
 10 37  1  0
 10 38  1  0
 11 39  1  0
 11 40  1  0
 12 41  1  1
 13 42  1  0
 13 43  1  0
 15 44  1  0
 16 45  1  0
 17 46  1  0
 18 47  1  0
 19 48  1  0
 21 49  1  0
 22 50  1  0
 24 51  1  0
 25 52  1  0
 26 53  1  0
 27 54  1  0
M  END
>  <smiles>  (95) 
O=C(NCC(=O)N1CCCCC1Cc1ccccc1)c1ccc2ccccc2n1

>  <score_type>  (95) 
oracle

>  <origin>  (95) 
autodockgpu

>  <m_score__min__energy>  (95) 
-9.6199999999999992

>  <m_primary>  (95) 
energy

>  <rmsd>  (95) 
1.5274306509556883

>  <m_score__min__rmsd>  (95) 
1.5274306509556883

>  <meeko>  (95) 
{"free_energy": -9.02, "intermolecular_energy": -10.81, "internal_energy": -2.01, "cluster_size": 17, "cluster_id": 2, "rank_in_cluster": 13}

>  <energy>  (95) 
-8.84

>  <cluster_rmsd>  (95) 
0.43

>  <cluster>  (95) 
4

$$$$

     RDKit          3D

 54 57  0  0  0  0  0  0  0  0999 V2000
  140.8190   71.8240  221.3430 O   0  0  0  0  0  0  0  0  0  0  0  0
  140.0920   72.2290  222.3040 C   0  0  0  0  0  0  0  0  0  0  0  0
  139.3220   73.4240  222.2290 N   0  0  0  0  0  0  0  0  0  0  0  0
  139.3450   74.2350  221.0280 C   0  0  0  0  0  0  0  0  0  0  0  0
  140.6410   74.9780  221.0440 C   0  0  0  0  0  0  0  0  0  0  0  0
  141.4510   74.8910  221.9810 O   0  0  0  0  0  0  0  0  0  0  0  0
  140.9850   75.8280  219.9500 N   0  0  0  0  0  0  0  0  0  0  0  0
  140.3460   75.6210  218.6680 C   0  0  0  0  0  0  0  0  0  0  0  0
  141.3570   75.5850  217.5410 C   0  0  0  0  0  0  0  0  0  0  0  0
  142.2960   76.7820  217.6140 C   0  0  0  0  0  0  0  0  0  0  0  0
  142.9480   76.7560  218.9720 C   0  0  0  0  0  0  0  0  0  0  0  0
  141.9700   76.9020  220.0960 C   0  0  1  0  0  0  0  0  0  0  0  0
  141.3500   78.2570  220.2110 C   0  0  0  0  0  0  0  0  0  0  0  0
  141.6740   78.9700  221.4730 C   0  0  0  0  0  0  0  0  0  0  0  0
  142.2050   80.2440  221.5060 C   0  0  0  0  0  0  0  0  0  0  0  0
  142.5050   80.9040  222.6850 C   0  0  0  0  0  0  0  0  0  0  0  0
  142.2690   80.2790  223.8790 C   0  0  0  0  0  0  0  0  0  0  0  0
  141.7390   79.0080  223.8790 C   0  0  0  0  0  0  0  0  0  0  0  0
  141.4380   78.3410  222.7010 C   0  0  0  0  0  0  0  0  0  0  0  0
  140.0290   71.4440  223.5480 C   0  0  0  0  0  0  0  0  0  0  0  0
  139.4340   70.2000  223.5700 C   0  0  0  0  0  0  0  0  0  0  0  0
  139.3900   69.4790  224.7690 C   0  0  0  0  0  0  0  0  0  0  0  0
  139.9370   70.0020  225.9210 C   0  0  0  0  0  0  0  0  0  0  0  0
  139.9280   69.3450  227.1330 C   0  0  0  0  0  0  0  0  0  0  0  0
  140.4950   69.9140  228.2790 C   0  0  0  0  0  0  0  0  0  0  0  0
  141.0700   71.1670  228.1620 C   0  0  0  0  0  0  0  0  0  0  0  0
  141.1000   71.8580  226.9720 C   0  0  0  0  0  0  0  0  0  0  0  0
  140.5240   71.2460  225.8660 C   0  0  0  0  0  0  0  0  0  0  0  0
  140.5560   71.9230  224.7060 N   0  0  0  0  0  0  0  0  0  0  0  0
  138.7470   73.7040  223.0450 H   0  0  0  0  0  0  0  0  0  0  0  0
  139.2848   73.5947  220.1356 H   0  0  0  0  0  0  0  0  0  0  0  0
  138.4899   74.9263  220.9979 H   0  0  0  0  0  0  0  0  0  0  0  0
  139.8020   74.6652  218.6904 H   0  0  0  0  0  0  0  0  0  0  0  0
  139.6581   76.4601  218.4867 H   0  0  0  0  0  0  0  0  0  0  0  0
  141.9469   74.6596  217.6159 H   0  0  0  0  0  0  0  0  0  0  0  0
  140.8169   75.6202  216.5834 H   0  0  0  0  0  0  0  0  0  0  0  0
  143.0613   76.7089  216.8273 H   0  0  0  0  0  0  0  0  0  0  0  0
  141.7431   77.7211  217.4647 H   0  0  0  0  0  0  0  0  0  0  0  0
  143.4752   75.7977  219.0889 H   0  0  0  0  0  0  0  0  0  0  0  0
  143.6356   77.6132  219.0221 H   0  0  0  0  0  0  0  0  0  0  0  0
  142.5064   76.8083  221.0518 H   0  0  0  0  0  0  0  0  0  0  0  0
  141.7022   78.8701  219.3683 H   0  0  0  0  0  0  0  0  0  0  0  0
  140.2602   78.1075  220.2034 H   0  0  0  0  0  0  0  0  0  0  0  0
  142.3983   80.7575  220.5526 H   0  0  0  0  0  0  0  0  0  0  0  0
  142.9282   81.9191  222.6623 H   0  0  0  0  0  0  0  0  0  0  0  0
  142.4999   80.7857  224.8276 H   0  0  0  0  0  0  0  0  0  0  0  0
  141.5491   78.5079  224.8402 H   0  0  0  0  0  0  0  0  0  0  0  0
  141.0169   77.3252  222.7314 H   0  0  0  0  0  0  0  0  0  0  0  0
  138.9976   69.7778  222.6528 H   0  0  0  0  0  0  0  0  0  0  0  0
  138.9151   68.4871  224.7920 H   0  0  0  0  0  0  0  0  0  0  0  0
  139.4641   68.3499  227.2009 H   0  0  0  0  0  0  0  0  0  0  0  0
  140.4839   69.3822  229.2418 H   0  0  0  0  0  0  0  0  0  0  0  0
  141.5201   71.6282  229.0535 H   0  0  0  0  0  0  0  0  0  0  0  0
  141.5612   72.8540  226.8998 H   0  0  0  0  0  0  0  0  0  0  0  0
  1  2  2  0
  2  3  1  0
  3  4  1  0
  4  5  1  0
  5  6  2  0
  5  7  1  0
  7  8  1  0
  8  9  1  0
  9 10  1  0
 10 11  1  0
 11 12  1  0
 12 13  1  0
 13 14  1  0
 14 15  2  0
 15 16  1  0
 16 17  2  0
 17 18  1  0
 18 19  2  0
  2 20  1  0
 20 21  2  0
 21 22  1  0
 22 23  2  0
 23 24  1  0
 24 25  2  0
 25 26  1  0
 26 27  2  0
 27 28  1  0
 28 29  2  0
 12  7  1  0
 19 14  1  0
 29 20  1  0
 28 23  1  0
  3 30  1  0
  4 31  1  0
  4 32  1  0
  8 33  1  0
  8 34  1  0
  9 35  1  0
  9 36  1  0
 10 37  1  0
 10 38  1  0
 11 39  1  0
 11 40  1  0
 12 41  1  1
 13 42  1  0
 13 43  1  0
 15 44  1  0
 16 45  1  0
 17 46  1  0
 18 47  1  0
 19 48  1  0
 21 49  1  0
 22 50  1  0
 24 51  1  0
 25 52  1  0
 26 53  1  0
 27 54  1  0
M  END
>  <smiles>  (96) 
O=C(NCC(=O)N1CCCCC1Cc1ccccc1)c1ccc2ccccc2n1

>  <score_type>  (96) 
oracle

>  <origin>  (96) 
autodockgpu

>  <m_score__min__energy>  (96) 
-9.6199999999999992

>  <m_primary>  (96) 
energy

>  <rmsd>  (96) 
1.4783188328170231

>  <m_score__min__rmsd>  (96) 
1.4783188328170231

>  <meeko>  (96) 
{"free_energy": -9.31, "intermolecular_energy": -11.1, "internal_energy": -1.49, "cluster_size": 17, "cluster_id": 2, "rank_in_cluster": 2}

>  <energy>  (96) 
-8.84

>  <cluster_rmsd>  (96) 
0.43

>  <cluster>  (96) 
4

$$$$

     RDKit          3D

 54 57  0  0  0  0  0  0  0  0999 V2000
  137.0560   76.2740  222.3150 O   0  0  0  0  0  0  0  0  0  0  0  0
  138.3240   76.3700  222.3480 C   0  0  0  0  0  0  0  0  0  0  0  0
  139.1810   75.2650  222.0880 N   0  0  0  0  0  0  0  0  0  0  0  0
  138.6240   73.9660  221.7710 C   0  0  0  0  0  0  0  0  0  0  0  0
  139.6430   72.9550  222.1870 C   0  0  0  0  0  0  0  0  0  0  0  0
  140.8390   73.2420  222.3590 O   0  0  0  0  0  0  0  0  0  0  0  0
  139.2520   71.5990  222.4030 N   0  0  0  0  0  0  0  0  0  0  0  0
  139.2010   70.6930  221.2760 C   0  0  0  0  0  0  0  0  0  0  0  0
  137.9000   69.9190  221.2410 C   0  0  0  0  0  0  0  0  0  0  0  0
  137.6040   69.2900  222.5960 C   0  0  0  0  0  0  0  0  0  0  0  0
  137.5840   70.4030  223.6120 C   0  0  0  0  0  0  0  0  0  0  0  0
  138.9000   71.1080  223.7360 C   0  0  1  0  0  0  0  0  0  0  0  0
  139.9830   70.2970  224.3690 C   0  0  0  0  0  0  0  0  0  0  0  0
  140.3560   70.7390  225.7370 C   0  0  0  0  0  0  0  0  0  0  0  0
  141.1010   71.8740  225.9880 C   0  0  0  0  0  0  0  0  0  0  0  0
  141.4450   72.2820  227.2650 C   0  0  0  0  0  0  0  0  0  0  0  0
  141.0350   71.5370  228.3370 C   0  0  0  0  0  0  0  0  0  0  0  0
  140.2900   70.3990  228.1190 C   0  0  0  0  0  0  0  0  0  0  0  0
  139.9430   69.9850  226.8430 C   0  0  0  0  0  0  0  0  0  0  0  0
  138.9460   77.6680  222.6640 C   0  0  0  0  0  0  0  0  0  0  0  0
  138.1710   78.7660  222.9710 C   0  0  0  0  0  0  0  0  0  0  0  0
  138.7930   79.9850  223.2670 C   0  0  0  0  0  0  0  0  0  0  0  0
  140.1670   80.0920  223.2540 C   0  0  0  0  0  0  0  0  0  0  0  0
  140.8410   81.2610  223.5360 C   0  0  0  0  0  0  0  0  0  0  0  0
  142.2400   81.3250  223.5100 C   0  0  0  0  0  0  0  0  0  0  0  0
  142.9330   80.1710  223.1910 C   0  0  0  0  0  0  0  0  0  0  0  0
  142.3000   78.9840  222.9020 C   0  0  0  0  0  0  0  0  0  0  0  0
  140.9110   78.9770  222.9430 C   0  0  0  0  0  0  0  0  0  0  0  0
  140.2970   77.8160  222.6620 N   0  0  0  0  0  0  0  0  0  0  0  0
  140.2080   75.4040  222.1290 H   0  0  0  0  0  0  0  0  0  0  0  0
  137.6858   73.8096  222.3235 H   0  0  0  0  0  0  0  0  0  0  0  0
  138.3949   73.8821  220.6984 H   0  0  0  0  0  0  0  0  0  0  0  0
  139.2959   71.2737  220.3466 H   0  0  0  0  0  0  0  0  0  0  0  0
  140.0268   69.9732  221.3758 H   0  0  0  0  0  0  0  0  0  0  0  0
  137.0810   70.6035  220.9753 H   0  0  0  0  0  0  0  0  0  0  0  0
  137.9888   69.1169  220.4935 H   0  0  0  0  0  0  0  0  0  0  0  0
  136.6270   68.7852  222.5713 H   0  0  0  0  0  0  0  0  0  0  0  0
  138.3681   68.5416  222.8532 H   0  0  0  0  0  0  0  0  0  0  0  0
  136.8206   71.1364  223.3131 H   0  0  0  0  0  0  0  0  0  0  0  0
  137.3601   69.9512  224.5896 H   0  0  0  0  0  0  0  0  0  0  0  0
  138.7924   71.9461  224.4403 H   0  0  0  0  0  0  0  0  0  0  0  0
  139.6434   69.2522  224.4249 H   0  0  0  0  0  0  0  0  0  0  0  0
  140.8782   70.4220  223.7420 H   0  0  0  0  0  0  0  0  0  0  0  0
  141.4363   72.4815  225.1345 H   0  0  0  0  0  0  0  0  0  0  0  0
  142.0408   73.1942  227.4163 H   0  0  0  0  0  0  0  0  0  0  0  0
  141.2971   71.8431  229.3605 H   0  0  0  0  0  0  0  0  0  0  0  0
  139.9612   69.8020  228.9824 H   0  0  0  0  0  0  0  0  0  0  0  0
  139.3477   69.0712  226.6996 H   0  0  0  0  0  0  0  0  0  0  0  0
  137.0740   78.6852  222.9833 H   0  0  0  0  0  0  0  0  0  0  0  0
  138.1798   80.8648  223.5120 H   0  0  0  0  0  0  0  0  0  0  0  0
  140.2666   82.1648  223.7874 H   0  0  0  0  0  0  0  0  0  0  0  0
  142.7702   82.2620  223.7358 H   0  0  0  0  0  0  0  0  0  0  0  0
  144.0323   80.2036  223.1675 H   0  0  0  0  0  0  0  0  0  0  0  0
  142.8700   78.0779  222.6489 H   0  0  0  0  0  0  0  0  0  0  0  0
  1  2  2  0
  2  3  1  0
  3  4  1  0
  4  5  1  0
  5  6  2  0
  5  7  1  0
  7  8  1  0
  8  9  1  0
  9 10  1  0
 10 11  1  0
 11 12  1  0
 12 13  1  0
 13 14  1  0
 14 15  2  0
 15 16  1  0
 16 17  2  0
 17 18  1  0
 18 19  2  0
  2 20  1  0
 20 21  2  0
 21 22  1  0
 22 23  2  0
 23 24  1  0
 24 25  2  0
 25 26  1  0
 26 27  2  0
 27 28  1  0
 28 29  2  0
 12  7  1  0
 19 14  1  0
 29 20  1  0
 28 23  1  0
  3 30  1  0
  4 31  1  0
  4 32  1  0
  8 33  1  0
  8 34  1  0
  9 35  1  0
  9 36  1  0
 10 37  1  0
 10 38  1  0
 11 39  1  0
 11 40  1  0
 12 41  1  1
 13 42  1  0
 13 43  1  0
 15 44  1  0
 16 45  1  0
 17 46  1  0
 18 47  1  0
 19 48  1  0
 21 49  1  0
 22 50  1  0
 24 51  1  0
 25 52  1  0
 26 53  1  0
 27 54  1  0
M  END
>  <smiles>  (97) 
O=C(NCC(=O)N1CCCCC1Cc1ccccc1)c1ccc2ccccc2n1

>  <score_type>  (97) 
oracle

>  <origin>  (97) 
autodockgpu

>  <m_score__min__energy>  (97) 
-9.6199999999999992

>  <m_primary>  (97) 
energy

>  <rmsd>  (97) 
8.306906851194507

>  <m_score__min__rmsd>  (97) 
8.306906851194507

>  <meeko>  (97) 
{"free_energy": -9.02, "intermolecular_energy": -10.81, "internal_energy": -2.17, "cluster_size": 23, "cluster_id": 1, "rank_in_cluster": 5}

>  <energy>  (97) 
-8.78

>  <cluster_rmsd>  (97) 
0.46

>  <cluster>  (97) 
4

$$$$

     RDKit          3D

 54 57  0  0  0  0  0  0  0  0999 V2000
  139.7600   70.9750  221.1350 O   0  0  0  0  0  0  0  0  0  0  0  0
  139.7750   71.6680  222.2000 C   0  0  0  0  0  0  0  0  0  0  0  0
  139.7720   73.0910  222.1860 N   0  0  0  0  0  0  0  0  0  0  0  0
  139.7540   73.8100  220.9290 C   0  0  0  0  0  0  0  0  0  0  0  0
  140.4310   75.1180  221.1800 C   0  0  0  0  0  0  0  0  0  0  0  0
  140.6500   75.5510  222.3230 O   0  0  0  0  0  0  0  0  0  0  0  0
  140.8540   75.9210  220.0780 N   0  0  0  0  0  0  0  0  0  0  0  0
  140.2310   75.7300  218.7860 C   0  0  0  0  0  0  0  0  0  0  0  0
  141.2610   75.6060  217.6830 C   0  0  0  0  0  0  0  0  0  0  0  0
  142.2760   76.7390  217.7550 C   0  0  0  0  0  0  0  0  0  0  0  0
  142.8950   76.6990  219.1280 C   0  0  0  0  0  0  0  0  0  0  0  0
  141.9040   76.9310  220.2270 C   0  0  1  0  0  0  0  0  0  0  0  0
  141.3740   78.3250  220.3020 C   0  0  0  0  0  0  0  0  0  0  0  0
  141.6800   79.0270  221.5750 C   0  0  0  0  0  0  0  0  0  0  0  0
  142.2220   80.2950  221.6280 C   0  0  0  0  0  0  0  0  0  0  0  0
  142.5040   80.9440  222.8170 C   0  0  0  0  0  0  0  0  0  0  0  0
  142.2410   80.3120  224.0020 C   0  0  0  0  0  0  0  0  0  0  0  0
  141.7000   79.0450  223.9810 C   0  0  0  0  0  0  0  0  0  0  0  0
  141.4150   78.3910  222.7940 C   0  0  0  0  0  0  0  0  0  0  0  0
  139.7930   70.9900  223.5080 C   0  0  0  0  0  0  0  0  0  0  0  0
  139.2690   69.7230  223.6530 C   0  0  0  0  0  0  0  0  0  0  0  0
  139.3010   69.1050  224.9100 C   0  0  0  0  0  0  0  0  0  0  0  0
  139.8510   69.7530  225.9950 C   0  0  0  0  0  0  0  0  0  0  0  0
  139.9150   69.2020  227.2570 C   0  0  0  0  0  0  0  0  0  0  0  0
  140.4830   69.8970  228.3320 C   0  0  0  0  0  0  0  0  0  0  0  0
  140.9830   71.1630  228.0900 C   0  0  0  0  0  0  0  0  0  0  0  0
  140.9400   71.7510  226.8470 C   0  0  0  0  0  0  0  0  0  0  0  0
  140.3660   71.0170  225.8160 C   0  0  0  0  0  0  0  0  0  0  0  0
  140.3260   71.5930  224.6030 N   0  0  0  0  0  0  0  0  0  0  0  0
  139.7840   73.6030  223.0880 H   0  0  0  0  0  0  0  0  0  0  0  0
  140.2968   73.2426  220.1586 H   0  0  0  0  0  0  0  0  0  0  0  0
  138.7250   73.9568  220.5689 H   0  0  0  0  0  0  0  0  0  0  0  0
  139.6256   74.8120  218.8139 H   0  0  0  0  0  0  0  0  0  0  0  0
  139.6036   76.6082  218.5735 H   0  0  0  0  0  0  0  0  0  0  0  0
  141.7863   74.6452  217.7875 H   0  0  0  0  0  0  0  0  0  0  0  0
  140.7445   75.6590  216.7133 H   0  0  0  0  0  0  0  0  0  0  0  0
  143.0519   76.5987  216.9880 H   0  0  0  0  0  0  0  0  0  0  0  0
  141.7901   77.7093  217.5749 H   0  0  0  0  0  0  0  0  0  0  0  0
  143.3561   75.7113  219.2754 H   0  0  0  0  0  0  0  0  0  0  0  0
  143.6353   77.5111  219.1775 H   0  0  0  0  0  0  0  0  0  0  0  0
  142.4109   76.8210  221.1970 H   0  0  0  0  0  0  0  0  0  0  0  0
  141.8105   78.9046  219.4753 H   0  0  0  0  0  0  0  0  0  0  0  0
  140.2784   78.2496  220.2390 H   0  0  0  0  0  0  0  0  0  0  0  0
  142.4397   80.8131  220.6824 H   0  0  0  0  0  0  0  0  0  0  0  0
  142.9346   81.9562  222.8099 H   0  0  0  0  0  0  0  0  0  0  0  0
  142.4587   80.8091  224.9588 H   0  0  0  0  0  0  0  0  0  0  0  0
  141.4884   78.5385  224.9343 H   0  0  0  0  0  0  0  0  0  0  0  0
  140.9836   77.3792  222.8087 H   0  0  0  0  0  0  0  0  0  0  0  0
  138.8297   69.2020  222.7895 H   0  0  0  0  0  0  0  0  0  0  0  0
  138.8838   68.0945  225.0319 H   0  0  0  0  0  0  0  0  0  0  0  0
  139.5104   68.1928  227.4236 H   0  0  0  0  0  0  0  0  0  0  0  0
  140.5298   69.4502  229.3361 H   0  0  0  0  0  0  0  0  0  0  0  0
  141.4328   71.7220  228.9238 H   0  0  0  0  0  0  0  0  0  0  0  0
  141.3432   72.7601  226.6763 H   0  0  0  0  0  0  0  0  0  0  0  0
  1  2  2  0
  2  3  1  0
  3  4  1  0
  4  5  1  0
  5  6  2  0
  5  7  1  0
  7  8  1  0
  8  9  1  0
  9 10  1  0
 10 11  1  0
 11 12  1  0
 12 13  1  0
 13 14  1  0
 14 15  2  0
 15 16  1  0
 16 17  2  0
 17 18  1  0
 18 19  2  0
  2 20  1  0
 20 21  2  0
 21 22  1  0
 22 23  2  0
 23 24  1  0
 24 25  2  0
 25 26  1  0
 26 27  2  0
 27 28  1  0
 28 29  2  0
 12  7  1  0
 19 14  1  0
 29 20  1  0
 28 23  1  0
  3 30  1  0
  4 31  1  0
  4 32  1  0
  8 33  1  0
  8 34  1  0
  9 35  1  0
  9 36  1  0
 10 37  1  0
 10 38  1  0
 11 39  1  0
 11 40  1  0
 12 41  1  1
 13 42  1  0
 13 43  1  0
 15 44  1  0
 16 45  1  0
 17 46  1  0
 18 47  1  0
 19 48  1  0
 21 49  1  0
 22 50  1  0
 24 51  1  0
 25 52  1  0
 26 53  1  0
 27 54  1  0
M  END
>  <smiles>  (98) 
O=C(NCC(=O)N1CCCCC1Cc1ccccc1)c1ccc2ccccc2n1

>  <score_type>  (98) 
oracle

>  <origin>  (98) 
autodockgpu

>  <m_score__min__energy>  (98) 
-9.6199999999999992

>  <m_primary>  (98) 
energy

>  <rmsd>  (98) 
1.4270850146679048

>  <m_score__min__rmsd>  (98) 
1.4270850146679048

>  <meeko>  (98) 
{"free_energy": -9.09, "intermolecular_energy": -10.88, "internal_energy": -2.08, "cluster_size": 17, "cluster_id": 2, "rank_in_cluster": 10}

>  <energy>  (98) 
-8.69

>  <cluster_rmsd>  (98) 
0.51

>  <cluster>  (98) 
4

$$$$

     RDKit          3D

 54 57  0  0  0  0  0  0  0  0999 V2000
  137.2770   76.3800  222.2160 O   0  0  0  0  0  0  0  0  0  0  0  0
  138.5440   76.4600  222.2800 C   0  0  0  0  0  0  0  0  0  0  0  0
  139.3960   75.3660  221.9610 N   0  0  0  0  0  0  0  0  0  0  0  0
  138.8330   74.0980  221.5450 C   0  0  0  0  0  0  0  0  0  0  0  0
  139.7930   73.0420  221.9880 C   0  0  0  0  0  0  0  0  0  0  0  0
  141.0130   73.2470  222.0890 O   0  0  0  0  0  0  0  0  0  0  0  0
  139.3130   71.7380  222.3160 N   0  0  0  0  0  0  0  0  0  0  0  0
  139.0620   70.7920  221.2500 C   0  0  0  0  0  0  0  0  0  0  0  0
  137.7030   70.1380  221.3940 C   0  0  0  0  0  0  0  0  0  0  0  0
  137.5050   69.5980  222.8040 C   0  0  0  0  0  0  0  0  0  0  0  0
  137.6920   70.7520  223.7550 C   0  0  0  0  0  0  0  0  0  0  0  0
  139.0690   71.3390  223.7030 C   0  0  1  0  0  0  0  0  0  0  0  0
  140.1410   70.4610  224.2610 C   0  0  0  0  0  0  0  0  0  0  0  0
  140.4660   70.7250  225.6860 C   0  0  0  0  0  0  0  0  0  0  0  0
  141.0730   71.8860  226.1200 C   0  0  0  0  0  0  0  0  0  0  0  0
  141.3720   72.1270  227.4510 C   0  0  0  0  0  0  0  0  0  0  0  0
  141.0580   71.1800  228.3880 C   0  0  0  0  0  0  0  0  0  0  0  0
  140.4510   70.0110  227.9840 C   0  0  0  0  0  0  0  0  0  0  0  0
  140.1490   69.7650  226.6540 C   0  0  0  0  0  0  0  0  0  0  0  0
  139.1720   77.7260  222.6970 C   0  0  0  0  0  0  0  0  0  0  0  0
  138.4030   78.7970  223.0980 C   0  0  0  0  0  0  0  0  0  0  0  0
  139.0300   79.9870  223.4880 C   0  0  0  0  0  0  0  0  0  0  0  0
  140.4050   80.0910  223.4750 C   0  0  0  0  0  0  0  0  0  0  0  0
  141.0850   81.2310  223.8470 C   0  0  0  0  0  0  0  0  0  0  0  0
  142.4830   81.2920  223.8180 C   0  0  0  0  0  0  0  0  0  0  0  0
  143.1700   80.1670  223.4020 C   0  0  0  0  0  0  0  0  0  0  0  0
  142.5320   79.0090  223.0220 C   0  0  0  0  0  0  0  0  0  0  0  0
  141.1440   79.0030  223.0700 C   0  0  0  0  0  0  0  0  0  0  0  0
  140.5240   77.8700  222.6990 N   0  0  0  0  0  0  0  0  0  0  0  0
  140.4230   75.4900  222.0320 H   0  0  0  0  0  0  0  0  0  0  0  0
  137.8526   73.9435  222.0194 H   0  0  0  0  0  0  0  0  0  0  0  0
  138.6828   74.0676  220.4557 H   0  0  0  0  0  0  0  0  0  0  0  0
  139.1035   71.3207  220.2863 H   0  0  0  0  0  0  0  0  0  0  0  0
  139.8295   70.0056  221.2997 H   0  0  0  0  0  0  0  0  0  0  0  0
  136.9212   70.8818  221.1804 H   0  0  0  0  0  0  0  0  0  0  0  0
  137.6403   69.2993  220.6850 H   0  0  0  0  0  0  0  0  0  0  0  0
  136.4917   69.1833  222.9096 H   0  0  0  0  0  0  0  0  0  0  0  0
  138.2256   68.7951  223.0188 H   0  0  0  0  0  0  0  0  0  0  0  0
  136.9664   71.5380  223.4986 H   0  0  0  0  0  0  0  0  0  0  0  0
  137.5383   70.3659  224.7735 H   0  0  0  0  0  0  0  0  0  0  0  0
  139.1123   72.2129  224.3696 H   0  0  0  0  0  0  0  0  0  0  0  0
  139.8119   69.4153  224.1706 H   0  0  0  0  0  0  0  0  0  0  0  0
  141.0538   70.6728  223.6849 H   0  0  0  0  0  0  0  0  0  0  0  0
  141.3308   72.6541  225.3760 H   0  0  0  0  0  0  0  0  0  0  0  0
  141.8559   73.0681  227.7512 H   0  0  0  0  0  0  0  0  0  0  0  0
  141.2874   71.3501  229.4503 H   0  0  0  0  0  0  0  0  0  0  0  0
  140.1989   69.2513  228.7386 H   0  0  0  0  0  0  0  0  0  0  0  0
  139.6637   68.8222  226.3613 H   0  0  0  0  0  0  0  0  0  0  0  0
  137.3059   78.7178  223.1116 H   0  0  0  0  0  0  0  0  0  0  0  0
  138.4208   80.8455  223.8072 H   0  0  0  0  0  0  0  0  0  0  0  0
  140.5156   82.1134  224.1743 H   0  0  0  0  0  0  0  0  0  0  0  0
  143.0177   82.2057  224.1166 H   0  0  0  0  0  0  0  0  0  0  0  0
  144.2692   80.1989  223.3737 H   0  0  0  0  0  0  0  0  0  0  0  0
  143.0977   78.1245  222.6938 H   0  0  0  0  0  0  0  0  0  0  0  0
  1  2  2  0
  2  3  1  0
  3  4  1  0
  4  5  1  0
  5  6  2  0
  5  7  1  0
  7  8  1  0
  8  9  1  0
  9 10  1  0
 10 11  1  0
 11 12  1  0
 12 13  1  0
 13 14  1  0
 14 15  2  0
 15 16  1  0
 16 17  2  0
 17 18  1  0
 18 19  2  0
  2 20  1  0
 20 21  2  0
 21 22  1  0
 22 23  2  0
 23 24  1  0
 24 25  2  0
 25 26  1  0
 26 27  2  0
 27 28  1  0
 28 29  2  0
 12  7  1  0
 19 14  1  0
 29 20  1  0
 28 23  1  0
  3 30  1  0
  4 31  1  0
  4 32  1  0
  8 33  1  0
  8 34  1  0
  9 35  1  0
  9 36  1  0
 10 37  1  0
 10 38  1  0
 11 39  1  0
 11 40  1  0
 12 41  1  1
 13 42  1  0
 13 43  1  0
 15 44  1  0
 16 45  1  0
 17 46  1  0
 18 47  1  0
 19 48  1  0
 21 49  1  0
 22 50  1  0
 24 51  1  0
 25 52  1  0
 26 53  1  0
 27 54  1  0
M  END
>  <smiles>  (99) 
O=C(NCC(=O)N1CCCCC1Cc1ccccc1)c1ccc2ccccc2n1

>  <score_type>  (99) 
oracle

>  <origin>  (99) 
autodockgpu

>  <m_score__min__energy>  (99) 
-9.6199999999999992

>  <m_primary>  (99) 
energy

>  <rmsd>  (99) 
8.244195350172046

>  <m_score__min__rmsd>  (99) 
8.244195350172046

>  <meeko>  (99) 
{"free_energy": -8.94, "intermolecular_energy": -10.73, "internal_energy": -2.09, "cluster_size": 23, "cluster_id": 1, "rank_in_cluster": 10}

>  <energy>  (99) 
-8.65

>  <cluster_rmsd>  (99) 
0.57

>  <cluster>  (99) 
4

$$$$

     RDKit          3D

 54 57  0  0  0  0  0  0  0  0999 V2000
  136.9520   76.3800  222.5050 O   0  0  0  0  0  0  0  0  0  0  0  0
  138.2200   76.4510  222.4550 C   0  0  0  0  0  0  0  0  0  0  0  0
  139.0350   75.3360  222.1120 N   0  0  0  0  0  0  0  0  0  0  0  0
  138.4310   74.0560  221.8020 C   0  0  0  0  0  0  0  0  0  0  0  0
  139.5130   73.0340  221.9340 C   0  0  0  0  0  0  0  0  0  0  0  0
  140.7090   73.2950  221.7260 O   0  0  0  0  0  0  0  0  0  0  0  0
  139.1850   71.6970  222.3130 N   0  0  0  0  0  0  0  0  0  0  0  0
  138.9600   70.7080  221.2810 C   0  0  0  0  0  0  0  0  0  0  0  0
  137.6850   69.9300  221.5240 C   0  0  0  0  0  0  0  0  0  0  0  0
  137.6310   69.4040  222.9530 C   0  0  0  0  0  0  0  0  0  0  0  0
  137.7640   70.5920  223.8710 C   0  0  0  0  0  0  0  0  0  0  0  0
  139.0710   71.3080  223.7190 C   0  0  1  0  0  0  0  0  0  0  0  0
  140.2580   70.5510  224.2190 C   0  0  0  0  0  0  0  0  0  0  0  0
  140.5140   70.7090  225.6730 C   0  0  0  0  0  0  0  0  0  0  0  0
  140.2190   69.7330  226.6030 C   0  0  0  0  0  0  0  0  0  0  0  0
  140.4610   69.8850  227.9580 C   0  0  0  0  0  0  0  0  0  0  0  0
  141.0170   71.0510  228.4100 C   0  0  0  0  0  0  0  0  0  0  0  0
  141.3220   72.0440  227.5050 C   0  0  0  0  0  0  0  0  0  0  0  0
  141.0820   71.8970  226.1480 C   0  0  0  0  0  0  0  0  0  0  0  0
  138.8890   77.7280  222.7600 C   0  0  0  0  0  0  0  0  0  0  0  0
  138.1550   78.8500  223.0830 C   0  0  0  0  0  0  0  0  0  0  0  0
  138.8210   80.0480  223.3670 C   0  0  0  0  0  0  0  0  0  0  0  0
  140.1970   80.1120  223.3270 C   0  0  0  0  0  0  0  0  0  0  0  0
  140.9140   81.2580  223.5960 C   0  0  0  0  0  0  0  0  0  0  0  0
  142.3120   81.2780  223.5440 C   0  0  0  0  0  0  0  0  0  0  0  0
  142.9630   80.1040  223.2110 C   0  0  0  0  0  0  0  0  0  0  0  0
  142.2870   78.9380  222.9340 C   0  0  0  0  0  0  0  0  0  0  0  0
  140.9000   78.9740  223.0020 C   0  0  0  0  0  0  0  0  0  0  0  0
  140.2440   77.8330  222.7320 N   0  0  0  0  0  0  0  0  0  0  0  0
  140.0650   75.4540  222.0870 H   0  0  0  0  0  0  0  0  0  0  0  0
  137.6155   73.8396  222.5078 H   0  0  0  0  0  0  0  0  0  0  0  0
  138.0021   74.0531  220.7891 H   0  0  0  0  0  0  0  0  0  0  0  0
  138.8879   71.2169  220.3085 H   0  0  0  0  0  0  0  0  0  0  0  0
  139.8024   70.0007  221.2926 H   0  0  0  0  0  0  0  0  0  0  0  0
  136.8222   70.5899  221.3506 H   0  0  0  0  0  0  0  0  0  0  0  0
  137.6597   69.0738  220.8339 H   0  0  0  0  0  0  0  0  0  0  0  0
  136.6720   68.8955  223.1314 H   0  0  0  0  0  0  0  0  0  0  0  0
  138.4388   68.6793  223.1329 H   0  0  0  0  0  0  0  0  0  0  0  0
  136.9501   71.2982  223.6500 H   0  0  0  0  0  0  0  0  0  0  0  0
  137.7138   70.2162  224.9036 H   0  0  0  0  0  0  0  0  0  0  0  0
  139.0711   72.1965  224.3675 H   0  0  0  0  0  0  0  0  0  0  0  0
  140.0981   69.4827  224.0112 H   0  0  0  0  0  0  0  0  0  0  0  0
  141.1358   70.9606  223.6978 H   0  0  0  0  0  0  0  0  0  0  0  0
  139.7713   68.7915  226.2520 H   0  0  0  0  0  0  0  0  0  0  0  0
  140.2094   69.0784  228.6624 H   0  0  0  0  0  0  0  0  0  0  0  0
  141.2178   71.1935  229.4821 H   0  0  0  0  0  0  0  0  0  0  0  0
  141.7689   72.9805  227.8700 H   0  0  0  0  0  0  0  0  0  0  0  0
  141.3359   72.7078  225.4494 H   0  0  0  0  0  0  0  0  0  0  0  0
  137.0565   78.8039  223.1171 H   0  0  0  0  0  0  0  0  0  0  0  0
  138.2408   80.9464  223.6244 H   0  0  0  0  0  0  0  0  0  0  0  0
  140.3737   82.1797  223.8580 H   0  0  0  0  0  0  0  0  0  0  0  0
  142.8752   82.1977  223.7610 H   0  0  0  0  0  0  0  0  0  0  0  0
  144.0621   80.1024  223.1659 H   0  0  0  0  0  0  0  0  0  0  0  0
  142.8232   78.0147  222.6694 H   0  0  0  0  0  0  0  0  0  0  0  0
  1  2  2  0
  2  3  1  0
  3  4  1  0
  4  5  1  0
  5  6  2  0
  5  7  1  0
  7  8  1  0
  8  9  1  0
  9 10  1  0
 10 11  1  0
 11 12  1  0
 12 13  1  0
 13 14  1  0
 14 15  2  0
 15 16  1  0
 16 17  2  0
 17 18  1  0
 18 19  2  0
  2 20  1  0
 20 21  2  0
 21 22  1  0
 22 23  2  0
 23 24  1  0
 24 25  2  0
 25 26  1  0
 26 27  2  0
 27 28  1  0
 28 29  2  0
 12  7  1  0
 19 14  1  0
 29 20  1  0
 28 23  1  0
  3 30  1  0
  4 31  1  0
  4 32  1  0
  8 33  1  0
  8 34  1  0
  9 35  1  0
  9 36  1  0
 10 37  1  0
 10 38  1  0
 11 39  1  0
 11 40  1  0
 12 41  1  1
 13 42  1  0
 13 43  1  0
 15 44  1  0
 16 45  1  0
 17 46  1  0
 18 47  1  0
 19 48  1  0
 21 49  1  0
 22 50  1  0
 24 51  1  0
 25 52  1  0
 26 53  1  0
 27 54  1  0
M  END
>  <smiles>  (100) 
O=C(NCC(=O)N1CCCCC1Cc1ccccc1)c1ccc2ccccc2n1

>  <score_type>  (100) 
oracle

>  <origin>  (100) 
autodockgpu

>  <m_score__min__energy>  (100) 
-9.6199999999999992

>  <m_primary>  (100) 
energy

>  <rmsd>  (100) 
8.275828704242523

>  <m_score__min__rmsd>  (100) 
8.275828704242523

>  <meeko>  (100) 
{"free_energy": -8.6, "intermolecular_energy": -10.39, "internal_energy": -2.12, "cluster_size": 23, "cluster_id": 1, "rank_in_cluster": 22}

>  <energy>  (100) 
-8.17

>  <cluster_rmsd>  (100) 
0.0

>  <cluster>  (100) 
5

$$$$
