
     RDKit          3D

 56 59  0  0  0  0  0  0  0  0999 V2000
  141.5030   82.3290  222.3240 C   0  0  0  0  0  0  0  0  0  0  0  0
  141.5510   80.9050  221.8970 C   0  0  0  0  0  0  0  0  0  0  0  0
  141.3760   79.8660  222.7920 C   0  0  0  0  0  0  0  0  0  0  0  0
  141.4180   78.5350  222.4090 C   0  0  0  0  0  0  0  0  0  0  0  0
  141.6450   78.2550  221.0770 C   0  0  0  0  0  0  0  0  0  0  0  0
  141.7080   76.9140  220.5770 N   0  0  0  0  0  0  0  0  0  0  0  0
  141.1080   76.5520  219.3430 C   0  0  0  0  0  0  0  0  0  0  0  0
  140.4930   77.3860  218.6300 O   0  0  0  0  0  0  0  0  0  0  0  0
  141.2380   75.1180  218.9210 C   0  0  1  0  0  0  0  0  0  0  0  0
  141.9210   75.1780  217.5580 C   0  0  0  0  0  0  0  0  0  0  0  0
  143.3170   75.6150  217.9850 C   0  0  2  0  0  0  0  0  0  0  0  0
  144.2990   75.1990  217.1080 O   0  0  0  0  0  0  0  0  0  0  0  0
  143.5020   74.9710  219.3340 C   0  0  0  0  0  0  0  0  0  0  0  0
  142.2090   74.4100  219.7010 N   0  0  0  0  0  0  0  0  0  0  0  0
  142.0710   73.3710  220.6560 C   0  0  0  0  0  0  0  0  0  0  0  0
  143.0680   72.6300  220.8590 O   0  0  0  0  0  0  0  0  0  0  0  0
  140.7730   73.2010  221.3700 C   0  0  0  0  0  0  0  0  0  0  0  0
  140.9160   72.2300  222.4340 N   0  0  0  0  0  0  0  0  0  0  0  0
  139.7270   71.7720  223.0600 C   0  0  0  0  0  0  0  0  0  0  0  0
  138.6080   72.2110  222.6800 O   0  0  0  0  0  0  0  0  0  0  0  0
  139.7950   70.7970  224.1360 C   0  0  0  0  0  0  0  0  0  0  0  0
  139.2230   69.5500  223.9840 C   0  0  0  0  0  0  0  0  0  0  0  0
  139.2390   68.5750  224.9430 C   0  0  0  0  0  0  0  0  0  0  0  0
  139.8770   68.8760  226.1400 C   0  0  0  0  0  0  0  0  0  0  0  0
  139.8970   67.8970  227.1120 C   0  0  0  0  0  0  0  0  0  0  0  0
  140.5260   68.1800  228.3070 C   0  0  0  0  0  0  0  0  0  0  0  0
  141.1200   69.4270  228.5120 C   0  0  0  0  0  0  0  0  0  0  0  0
  141.0820   70.3900  227.5140 C   0  0  0  0  0  0  0  0  0  0  0  0
  140.4540   70.1180  226.3090 C   0  0  0  0  0  0  0  0  0  0  0  0
  140.4020   71.0430  225.3160 N   0  0  0  0  0  0  0  0  0  0  0  0
  141.8280   79.2570  220.1400 C   0  0  0  0  0  0  0  0  0  0  0  0
  141.7760   80.5660  220.5770 C   0  0  0  0  0  0  0  0  0  0  0  0
  141.5012   82.3825  223.4227 H   0  0  0  0  0  0  0  0  0  0  0  0
  142.3838   82.8591  221.9325 H   0  0  0  0  0  0  0  0  0  0  0  0
  140.5885   82.7986  221.9325 H   0  0  0  0  0  0  0  0  0  0  0  0
  141.1963   80.1055  223.8505 H   0  0  0  0  0  0  0  0  0  0  0  0
  141.2751   77.7280  223.1427 H   0  0  0  0  0  0  0  0  0  0  0  0
  142.2230   76.2060  221.1700 H   0  0  0  0  0  0  0  0  0  0  0  0
  140.2489   74.6411  218.9854 H   0  0  0  0  0  0  0  0  0  0  0  0
  141.9335   74.1956  217.0633 H   0  0  0  0  0  0  0  0  0  0  0  0
  141.4333   75.8343  216.8222 H   0  0  0  0  0  0  0  0  0  0  0  0
  143.4056   76.7112  218.0063 H   0  0  0  0  0  0  0  0  0  0  0  0
  145.1570   75.5870  217.4220 H   0  0  0  0  0  0  0  0  0  0  0  0
  144.2594   74.1754  219.2754 H   0  0  0  0  0  0  0  0  0  0  0  0
  143.8472   75.7009  220.0810 H   0  0  0  0  0  0  0  0  0  0  0  0
  140.4631   74.1662  221.7970 H   0  0  0  0  0  0  0  0  0  0  0  0
  140.0132   72.8466  220.6579 H   0  0  0  0  0  0  0  0  0  0  0  0
  141.8440   71.8630  222.7520 H   0  0  0  0  0  0  0  0  0  0  0  0
  138.7223   69.3261  223.0305 H   0  0  0  0  0  0  0  0  0  0  0  0
  138.7675   67.5956  224.7741 H   0  0  0  0  0  0  0  0  0  0  0  0
  139.4249   66.9186  226.9391 H   0  0  0  0  0  0  0  0  0  0  0  0
  140.5597   67.4201  229.1016 H   0  0  0  0  0  0  0  0  0  0  0  0
  141.6194   69.6464  229.4673 H   0  0  0  0  0  0  0  0  0  0  0  0
  141.5512   71.3711  227.6795 H   0  0  0  0  0  0  0  0  0  0  0  0
  142.0090   79.0185  219.0815 H   0  0  0  0  0  0  0  0  0  0  0  0
  141.9198   81.3726  219.8430 H   0  0  0  0  0  0  0  0  0  0  0  0
  1  2  1  0
  2  3  2  0
  3  4  1  0
  4  5  2  0
  5  6  1  0
  6  7  1  0
  7  8  2  0
  7  9  1  0
  9 10  1  0
 10 11  1  0
 11 12  1  0
 11 13  1  0
 13 14  1  0
 14 15  1  0
 15 16  2  0
 15 17  1  0
 17 18  1  0
 18 19  1  0
 19 20  2  0
 19 21  1  0
 21 22  2  0
 22 23  1  0
 23 24  2  0
 24 25  1  0
 25 26  2  0
 26 27  1  0
 27 28  2  0
 28 29  1  0
 29 30  2  0
  5 31  1  0
 31 32  2  0
 32  2  1  0
 14  9  1  0
 30 21  1  0
 29 24  1  0
  1 33  1  0
  1 34  1  0
  1 35  1  0
  3 36  1  0
  4 37  1  0
  6 38  1  0
  9 39  1  6
 10 40  1  0
 10 41  1  0
 11 42  1  1
 12 43  1  0
 13 44  1  0
 13 45  1  0
 17 46  1  0
 17 47  1  0
 18 48  1  0
 22 49  1  0
 23 50  1  0
 25 51  1  0
 26 52  1  0
 27 53  1  0
 28 54  1  0
 31 55  1  0
 32 56  1  0
M  END
>  <smiles>  (1) 
Cc1ccc(NC(=O)[C@H]2C[C@H](O)CN2C(=O)CNC(=O)c2ccc3ccccc3n2)cc1

>  <score_type>  (1) 
oracle

>  <origin>  (1) 
autodockgpu

>  <m_score__min__energy>  (1) 
-9.4600000000000009

>  <m_primary>  (1) 
energy

>  <rmsd>  (1) 
2.642975988464279

>  <m_score__min__rmsd>  (1) 
2.642975988464279

>  <meeko>  (1) 
{"free_energy": -8.19, "intermolecular_energy": -10.28, "internal_energy": -1.74, "cluster_size": 16, "cluster_id": 1, "rank_in_cluster": 12}

>  <energy>  (1) 
-9.46

>  <cluster_rmsd>  (1) 
0.0

>  <cluster>  (1) 
1

$$$$

     RDKit          3D

 56 59  0  0  0  0  0  0  0  0999 V2000
  141.1050   82.9900  220.3320 C   0  0  0  0  0  0  0  0  0  0  0  0
  141.1250   81.5990  219.8070 C   0  0  0  0  0  0  0  0  0  0  0  0
  142.1750   81.1180  219.0460 C   0  0  0  0  0  0  0  0  0  0  0  0
  142.2070   79.8250  218.5500 C   0  0  0  0  0  0  0  0  0  0  0  0
  141.1400   78.9980  218.8370 C   0  0  0  0  0  0  0  0  0  0  0  0
  141.0740   77.6440  218.3730 N   0  0  0  0  0  0  0  0  0  0  0  0
  141.8180   76.6080  218.9940 C   0  0  0  0  0  0  0  0  0  0  0  0
  142.5700   76.8250  219.9790 O   0  0  0  0  0  0  0  0  0  0  0  0
  141.6700   75.2290  218.4210 C   0  0  1  0  0  0  0  0  0  0  0  0
  142.3710   75.2970  217.0680 C   0  0  0  0  0  0  0  0  0  0  0  0
  143.8180   75.4020  217.5290 C   0  0  2  0  0  0  0  0  0  0  0  0
  144.7110   74.8960  216.6060 O   0  0  0  0  0  0  0  0  0  0  0  0
  143.8550   74.5960  218.8010 C   0  0  0  0  0  0  0  0  0  0  0  0
  142.4720   74.2660  219.1160 N   0  0  0  0  0  0  0  0  0  0  0  0
  142.1190   73.1800  219.9570 C   0  0  0  0  0  0  0  0  0  0  0  0
  142.5180   72.0330  219.6260 O   0  0  0  0  0  0  0  0  0  0  0  0
  141.3040   73.4360  221.1790 C   0  0  0  0  0  0  0  0  0  0  0  0
  141.4300   74.8220  221.5780 N   0  0  0  0  0  0  0  0  0  0  0  0
  140.2440   75.4940  221.9750 C   0  0  0  0  0  0  0  0  0  0  0  0
  139.1420   74.8810  221.9690 O   0  0  0  0  0  0  0  0  0  0  0  0
  140.2950   76.8860  222.3890 C   0  0  0  0  0  0  0  0  0  0  0  0
  139.1300   77.5790  222.6470 C   0  0  0  0  0  0  0  0  0  0  0  0
  139.0860   78.8890  223.0400 C   0  0  0  0  0  0  0  0  0  0  0  0
  140.3010   79.5470  223.1830 C   0  0  0  0  0  0  0  0  0  0  0  0
  140.2640   80.8680  223.5790 C   0  0  0  0  0  0  0  0  0  0  0  0
  141.4620   81.5370  223.7240 C   0  0  0  0  0  0  0  0  0  0  0  0
  142.6700   80.8810  223.4750 C   0  0  0  0  0  0  0  0  0  0  0  0
  142.6720   79.5510  223.0780 C   0  0  0  0  0  0  0  0  0  0  0  0
  141.4750   78.8690  222.9280 C   0  0  0  0  0  0  0  0  0  0  0  0
  141.4500   77.5680  222.5410 N   0  0  0  0  0  0  0  0  0  0  0  0
  140.0630   79.4290  219.5930 C   0  0  0  0  0  0  0  0  0  0  0  0
  140.0840   80.7280  220.0620 C   0  0  0  0  0  0  0  0  0  0  0  0
  141.1053   82.9669  221.4318 H   0  0  0  0  0  0  0  0  0  0  0  0
  141.9955   83.5290  219.9763 H   0  0  0  0  0  0  0  0  0  0  0  0
  140.1994   83.5032  219.9763 H   0  0  0  0  0  0  0  0  0  0  0  0
  143.0184   81.7890  218.8258 H   0  0  0  0  0  0  0  0  0  0  0  0
  143.0553   79.4689  217.9470 H   0  0  0  0  0  0  0  0  0  0  0  0
  140.4450   77.4520  217.5450 H   0  0  0  0  0  0  0  0  0  0  0  0
  140.6058   74.9514  218.4402 H   0  0  0  0  0  0  0  0  0  0  0  0
  142.1969   74.3895  216.4713 H   0  0  0  0  0  0  0  0  0  0  0  0
  142.0328   76.1109  216.4098 H   0  0  0  0  0  0  0  0  0  0  0  0
  144.1195   76.4509  217.6663 H   0  0  0  0  0  0  0  0  0  0  0  0
  145.6020   75.2800  216.8170 H   0  0  0  0  0  0  0  0  0  0  0  0
  144.4416   73.6773  218.6529 H   0  0  0  0  0  0  0  0  0  0  0  0
  144.3276   75.1604  219.6184 H   0  0  0  0  0  0  0  0  0  0  0  0
  140.2482   73.2130  220.9658 H   0  0  0  0  0  0  0  0  0  0  0  0
  141.6645   72.7917  221.9945 H   0  0  0  0  0  0  0  0  0  0  0  0
  142.3430   75.3340  221.5850 H   0  0  0  0  0  0  0  0  0  0  0  0
  138.1759   77.0443  222.5293 H   0  0  0  0  0  0  0  0  0  0  0  0
  138.1306   79.3985  223.2341 H   0  0  0  0  0  0  0  0  0  0  0  0
  139.3067   81.3736  223.7736 H   0  0  0  0  0  0  0  0  0  0  0  0
  141.4659   82.5915  224.0370 H   0  0  0  0  0  0  0  0  0  0  0  0
  143.6217   81.4197  223.5938 H   0  0  0  0  0  0  0  0  0  0  0  0
  143.6250   79.0376  222.8822 H   0  0  0  0  0  0  0  0  0  0  0  0
  139.2187   78.7591  219.8128 H   0  0  0  0  0  0  0  0  0  0  0  0
  139.2352   81.0840  220.6644 H   0  0  0  0  0  0  0  0  0  0  0  0
  1  2  1  0
  2  3  2  0
  3  4  1  0
  4  5  2  0
  5  6  1  0
  6  7  1  0
  7  8  2  0
  7  9  1  0
  9 10  1  0
 10 11  1  0
 11 12  1  0
 11 13  1  0
 13 14  1  0
 14 15  1  0
 15 16  2  0
 15 17  1  0
 17 18  1  0
 18 19  1  0
 19 20  2  0
 19 21  1  0
 21 22  2  0
 22 23  1  0
 23 24  2  0
 24 25  1  0
 25 26  2  0
 26 27  1  0
 27 28  2  0
 28 29  1  0
 29 30  2  0
  5 31  1  0
 31 32  2  0
 32  2  1  0
 14  9  1  0
 30 21  1  0
 29 24  1  0
  1 33  1  0
  1 34  1  0
  1 35  1  0
  3 36  1  0
  4 37  1  0
  6 38  1  0
  9 39  1  6
 10 40  1  0
 10 41  1  0
 11 42  1  1
 12 43  1  0
 13 44  1  0
 13 45  1  0
 17 46  1  0
 17 47  1  0
 18 48  1  0
 22 49  1  0
 23 50  1  0
 25 51  1  0
 26 52  1  0
 27 53  1  0
 28 54  1  0
 31 55  1  0
 32 56  1  0
M  END
>  <smiles>  (2) 
Cc1ccc(NC(=O)[C@H]2C[C@H](O)CN2C(=O)CNC(=O)c2ccc3ccccc3n2)cc1

>  <score_type>  (2) 
oracle

>  <origin>  (2) 
autodockgpu

>  <m_score__min__energy>  (2) 
-9.4600000000000009

>  <m_primary>  (2) 
energy

>  <rmsd>  (2) 
6.613102082111252

>  <m_score__min__rmsd>  (2) 
6.613102082111252

>  <meeko>  (2) 
{"free_energy": -6.41, "intermolecular_energy": -8.5, "internal_energy": -4.15, "cluster_size": 13, "cluster_id": 9, "rank_in_cluster": 5}

>  <energy>  (2) 
-9.33

>  <cluster_rmsd>  (2) 
0.15

>  <cluster>  (2) 
1

$$$$

     RDKit          3D

 56 59  0  0  0  0  0  0  0  0999 V2000
  141.7780   82.1060  219.2890 C   0  0  0  0  0  0  0  0  0  0  0  0
  141.8790   80.6500  219.0050 C   0  0  0  0  0  0  0  0  0  0  0  0
  142.8130   80.1380  218.1240 C   0  0  0  0  0  0  0  0  0  0  0  0
  142.9180   78.7840  217.8500 C   0  0  0  0  0  0  0  0  0  0  0  0
  142.0470   77.9270  218.4910 C   0  0  0  0  0  0  0  0  0  0  0  0
  142.0710   76.5110  218.2790 N   0  0  0  0  0  0  0  0  0  0  0  0
  142.5140   75.6150  219.2870 C   0  0  0  0  0  0  0  0  0  0  0  0
  142.9060   76.0180  220.4120 O   0  0  0  0  0  0  0  0  0  0  0  0
  142.4950   74.1530  218.9510 C   0  0  1  0  0  0  0  0  0  0  0  0
  143.7710   73.9260  218.1450 C   0  0  0  0  0  0  0  0  0  0  0  0
  144.8080   74.0860  219.2480 C   0  0  2  0  0  0  0  0  0  0  0  0
  145.9680   73.3810  218.9980 O   0  0  0  0  0  0  0  0  0  0  0  0
  144.1170   73.5550  220.4770 C   0  0  0  0  0  0  0  0  0  0  0  0
  142.7280   73.3310  220.1010 N   0  0  0  0  0  0  0  0  0  0  0  0
  141.8780   72.4480  220.8130 C   0  0  0  0  0  0  0  0  0  0  0  0
  142.1350   71.2170  220.7540 O   0  0  0  0  0  0  0  0  0  0  0  0
  140.7320   73.0020  221.5900 C   0  0  0  0  0  0  0  0  0  0  0  0
  140.9590   74.4040  221.8760 N   0  0  0  0  0  0  0  0  0  0  0  0
  139.8140   75.2230  222.0560 C   0  0  0  0  0  0  0  0  0  0  0  0
  138.6610   74.7200  221.9660 O   0  0  0  0  0  0  0  0  0  0  0  0
  139.9650   76.6390  222.3450 C   0  0  0  0  0  0  0  0  0  0  0  0
  138.8560   77.4570  222.4240 C   0  0  0  0  0  0  0  0  0  0  0  0
  138.9070   78.7980  222.6910 C   0  0  0  0  0  0  0  0  0  0  0  0
  140.1630   79.3550  222.8920 C   0  0  0  0  0  0  0  0  0  0  0  0
  140.2230   80.7060  223.1610 C   0  0  0  0  0  0  0  0  0  0  0  0
  141.4630   81.2760  223.3620 C   0  0  0  0  0  0  0  0  0  0  0  0
  142.6170   80.4930  223.2920 C   0  0  0  0  0  0  0  0  0  0  0  0
  142.5230   79.1360  223.0190 C   0  0  0  0  0  0  0  0  0  0  0  0
  141.2830   78.5520  222.8160 C   0  0  0  0  0  0  0  0  0  0  0  0
  141.1630   77.2260  222.5470 N   0  0  0  0  0  0  0  0  0  0  0  0
  141.0920   78.3860  219.3820 C   0  0  0  0  0  0  0  0  0  0  0  0
  141.0330   79.7460  219.6170 C   0  0  0  0  0  0  0  0  0  0  0  0
  141.7668   82.2674  220.3770 H   0  0  0  0  0  0  0  0  0  0  0  0
  142.6422   82.6260  218.8500 H   0  0  0  0  0  0  0  0  0  0  0  0
  140.8502   82.5017  218.8500 H   0  0  0  0  0  0  0  0  0  0  0  0
  143.5004   80.8335  217.6203 H   0  0  0  0  0  0  0  0  0  0  0  0
  143.6715   78.4044  217.1442 H   0  0  0  0  0  0  0  0  0  0  0  0
  141.7430   76.1620  217.3360 H   0  0  0  0  0  0  0  0  0  0  0  0
  141.5321   73.9131  218.4763 H   0  0  0  0  0  0  0  0  0  0  0  0
  143.7998   72.9206  217.6995 H   0  0  0  0  0  0  0  0  0  0  0  0
  143.9019   74.5971  217.2833 H   0  0  0  0  0  0  0  0  0  0  0  0
  145.1317   75.1328  219.3452 H   0  0  0  0  0  0  0  0  0  0  0  0
  146.6680   74.0420  218.7560 H   0  0  0  0  0  0  0  0  0  0  0  0
  144.5818   72.6109  220.7972 H   0  0  0  0  0  0  0  0  0  0  0  0
  144.1948   74.2621  221.3161 H   0  0  0  0  0  0  0  0  0  0  0  0
  139.8080   72.8950  221.0028 H   0  0  0  0  0  0  0  0  0  0  0  0
  140.6379   72.4508  222.5373 H   0  0  0  0  0  0  0  0  0  0  0  0
  141.9140   74.8250  221.9510 H   0  0  0  0  0  0  0  0  0  0  0  0
  137.8679   77.0016  222.2619 H   0  0  0  0  0  0  0  0  0  0  0  0
  137.9932   79.4080  222.7441 H   0  0  0  0  0  0  0  0  0  0  0  0
  139.3070   81.3128  223.2139 H   0  0  0  0  0  0  0  0  0  0  0  0
  141.5430   82.3516  223.5783 H   0  0  0  0  0  0  0  0  0  0  0  0
  143.6030   80.9532  223.4537 H   0  0  0  0  0  0  0  0  0  0  0  0
  143.4344   78.5227  222.9636 H   0  0  0  0  0  0  0  0  0  0  0  0
  140.4036   77.6914  219.8857 H   0  0  0  0  0  0  0  0  0  0  0  0
  140.2792   80.1256  220.3225 H   0  0  0  0  0  0  0  0  0  0  0  0
  1  2  1  0
  2  3  2  0
  3  4  1  0
  4  5  2  0
  5  6  1  0
  6  7  1  0
  7  8  2  0
  7  9  1  0
  9 10  1  0
 10 11  1  0
 11 12  1  0
 11 13  1  0
 13 14  1  0
 14 15  1  0
 15 16  2  0
 15 17  1  0
 17 18  1  0
 18 19  1  0
 19 20  2  0
 19 21  1  0
 21 22  2  0
 22 23  1  0
 23 24  2  0
 24 25  1  0
 25 26  2  0
 26 27  1  0
 27 28  2  0
 28 29  1  0
 29 30  2  0
  5 31  1  0
 31 32  2  0
 32  2  1  0
 14  9  1  0
 30 21  1  0
 29 24  1  0
  1 33  1  0
  1 34  1  0
  1 35  1  0
  3 36  1  0
  4 37  1  0
  6 38  1  0
  9 39  1  6
 10 40  1  0
 10 41  1  0
 11 42  1  1
 12 43  1  0
 13 44  1  0
 13 45  1  0
 17 46  1  0
 17 47  1  0
 18 48  1  0
 22 49  1  0
 23 50  1  0
 25 51  1  0
 26 52  1  0
 27 53  1  0
 28 54  1  0
 31 55  1  0
 32 56  1  0
M  END
>  <smiles>  (3) 
Cc1ccc(NC(=O)[C@H]2C[C@H](O)CN2C(=O)CNC(=O)c2ccc3ccccc3n2)cc1

>  <score_type>  (3) 
oracle

>  <origin>  (3) 
autodockgpu

>  <m_score__min__energy>  (3) 
-9.4600000000000009

>  <m_primary>  (3) 
energy

>  <rmsd>  (3) 
6.740381002785727

>  <m_score__min__rmsd>  (3) 
6.740381002785727

>  <meeko>  (3) 
{"free_energy": -7.07, "intermolecular_energy": -9.16, "internal_energy": -3.79, "cluster_size": 13, "cluster_id": 9, "rank_in_cluster": 1}

>  <energy>  (3) 
-9.14

>  <cluster_rmsd>  (3) 
1.32

>  <cluster>  (3) 
1

$$$$

     RDKit          3D

 56 59  0  0  0  0  0  0  0  0999 V2000
  142.2670   81.6180  224.2520 C   0  0  0  0  0  0  0  0  0  0  0  0
  142.0060   80.5440  223.2570 C   0  0  0  0  0  0  0  0  0  0  0  0
  141.6590   79.2610  223.6390 C   0  0  0  0  0  0  0  0  0  0  0  0
  141.4130   78.2500  222.7230 C   0  0  0  0  0  0  0  0  0  0  0  0
  141.5230   78.5550  221.3820 C   0  0  0  0  0  0  0  0  0  0  0  0
  141.2890   77.5840  220.3550 N   0  0  0  0  0  0  0  0  0  0  0  0
  141.2290   76.1960  220.6430 C   0  0  0  0  0  0  0  0  0  0  0  0
  141.3780   75.7500  221.8100 O   0  0  0  0  0  0  0  0  0  0  0  0
  140.9800   75.2730  219.4860 C   0  0  1  0  0  0  0  0  0  0  0  0
  141.5880   75.9890  218.2840 C   0  0  0  0  0  0  0  0  0  0  0  0
  143.0680   75.8480  218.6170 C   0  0  2  0  0  0  0  0  0  0  0  0
  143.8710   75.8510  217.4950 O   0  0  0  0  0  0  0  0  0  0  0  0
  143.1550   74.5230  219.3300 C   0  0  0  0  0  0  0  0  0  0  0  0
  141.7840   74.0890  219.5560 N   0  0  0  0  0  0  0  0  0  0  0  0
  141.4410   72.7330  219.7890 C   0  0  0  0  0  0  0  0  0  0  0  0
  142.3700   71.8840  219.7570 O   0  0  0  0  0  0  0  0  0  0  0  0
  140.0190   72.3730  220.0570 C   0  0  0  0  0  0  0  0  0  0  0  0
  139.9350   71.5290  221.2310 N   0  0  0  0  0  0  0  0  0  0  0  0
  140.1400   72.1470  222.4920 C   0  0  0  0  0  0  0  0  0  0  0  0
  140.3840   73.3830  222.5540 O   0  0  0  0  0  0  0  0  0  0  0  0
  140.0700   71.3620  223.7130 C   0  0  0  0  0  0  0  0  0  0  0  0
  139.4390   70.1350  223.7160 C   0  0  0  0  0  0  0  0  0  0  0  0
  139.3260   69.3310  224.8180 C   0  0  0  0  0  0  0  0  0  0  0  0
  139.8890   69.7960  225.9990 C   0  0  0  0  0  0  0  0  0  0  0  0
  139.7790   68.9910  227.1140 C   0  0  0  0  0  0  0  0  0  0  0  0
  140.3320   69.4380  228.2960 C   0  0  0  0  0  0  0  0  0  0  0  0
  140.9820   70.6730  228.3470 C   0  0  0  0  0  0  0  0  0  0  0  0
  141.0760   71.4590  227.2070 C   0  0  0  0  0  0  0  0  0  0  0  0
  140.5240   71.0210  226.0140 C   0  0  0  0  0  0  0  0  0  0  0  0
  140.6010   71.7710  224.8840 N   0  0  0  0  0  0  0  0  0  0  0  0
  141.8670   79.8230  220.9450 C   0  0  0  0  0  0  0  0  0  0  0  0
  142.1010   80.7910  221.9020 C   0  0  0  0  0  0  0  0  0  0  0  0
  142.1675   81.2085  225.2681 H   0  0  0  0  0  0  0  0  0  0  0  0
  143.2860   82.0078  224.1119 H   0  0  0  0  0  0  0  0  0  0  0  0
  141.5405   82.4320  224.1119 H   0  0  0  0  0  0  0  0  0  0  0  0
  141.5749   79.0338  224.7120 H   0  0  0  0  0  0  0  0  0  0  0  0
  141.1390   77.2376  223.0545 H   0  0  0  0  0  0  0  0  0  0  0  0
  141.1630   77.9500  219.3700 H   0  0  0  0  0  0  0  0  0  0  0  0
  139.9082   75.0273  219.4557 H   0  0  0  0  0  0  0  0  0  0  0  0
  141.3324   75.4890  217.3381 H   0  0  0  0  0  0  0  0  0  0  0  0
  141.2418   77.0224  218.1349 H   0  0  0  0  0  0  0  0  0  0  0  0
  143.4262   76.6951  219.2204 H   0  0  0  0  0  0  0  0  0  0  0  0
  144.8060   75.9840  217.8030 H   0  0  0  0  0  0  0  0  0  0  0  0
  143.6887   73.7899  218.7073 H   0  0  0  0  0  0  0  0  0  0  0  0
  143.7063   74.6146  220.2774 H   0  0  0  0  0  0  0  0  0  0  0  0
  139.4364   73.2907  220.2255 H   0  0  0  0  0  0  0  0  0  0  0  0
  139.6148   71.8285  219.1909 H   0  0  0  0  0  0  0  0  0  0  0  0
  139.7330   70.5030  221.1840 H   0  0  0  0  0  0  0  0  0  0  0  0
  138.9986   69.7802  222.7725 H   0  0  0  0  0  0  0  0  0  0  0  0
  138.8120   68.3597  224.7701 H   0  0  0  0  0  0  0  0  0  0  0  0
  139.2648   68.0200  227.0619 H   0  0  0  0  0  0  0  0  0  0  0  0
  140.2607   68.8189  229.2025 H   0  0  0  0  0  0  0  0  0  0  0  0
  141.4205   71.0236  229.2929 H   0  0  0  0  0  0  0  0  0  0  0  0
  141.5894   72.4309  227.2506 H   0  0  0  0  0  0  0  0  0  0  0  0
  141.9511   80.0516  219.8723 H   0  0  0  0  0  0  0  0  0  0  0  0
  142.3751   81.8032  221.5700 H   0  0  0  0  0  0  0  0  0  0  0  0
  1  2  1  0
  2  3  2  0
  3  4  1  0
  4  5  2  0
  5  6  1  0
  6  7  1  0
  7  8  2  0
  7  9  1  0
  9 10  1  0
 10 11  1  0
 11 12  1  0
 11 13  1  0
 13 14  1  0
 14 15  1  0
 15 16  2  0
 15 17  1  0
 17 18  1  0
 18 19  1  0
 19 20  2  0
 19 21  1  0
 21 22  2  0
 22 23  1  0
 23 24  2  0
 24 25  1  0
 25 26  2  0
 26 27  1  0
 27 28  2  0
 28 29  1  0
 29 30  2  0
  5 31  1  0
 31 32  2  0
 32  2  1  0
 14  9  1  0
 30 21  1  0
 29 24  1  0
  1 33  1  0
  1 34  1  0
  1 35  1  0
  3 36  1  0
  4 37  1  0
  6 38  1  0
  9 39  1  6
 10 40  1  0
 10 41  1  0
 11 42  1  1
 12 43  1  0
 13 44  1  0
 13 45  1  0
 17 46  1  0
 17 47  1  0
 18 48  1  0
 22 49  1  0
 23 50  1  0
 25 51  1  0
 26 52  1  0
 27 53  1  0
 28 54  1  0
 31 55  1  0
 32 56  1  0
M  END
>  <smiles>  (4) 
Cc1ccc(NC(=O)[C@H]2C[C@H](O)CN2C(=O)CNC(=O)c2ccc3ccccc3n2)cc1

>  <score_type>  (4) 
oracle

>  <origin>  (4) 
autodockgpu

>  <m_score__min__energy>  (4) 
-9.4600000000000009

>  <m_primary>  (4) 
energy

>  <rmsd>  (4) 
2.6663979798360513

>  <m_score__min__rmsd>  (4) 
2.6663979798360513

>  <meeko>  (4) 
{"free_energy": -9.14, "intermolecular_energy": -11.23, "internal_energy": -1.37, "cluster_size": 16, "cluster_id": 1, "rank_in_cluster": 3}

>  <energy>  (4) 
-8.94

>  <cluster_rmsd>  (4) 
1.92

>  <cluster>  (4) 
1

$$$$

     RDKit          3D

 56 59  0  0  0  0  0  0  0  0999 V2000
  140.1320   79.9070  223.0450 C   0  0  0  0  0  0  0  0  0  0  0  0
  140.6030   78.7020  222.3130 C   0  0  0  0  0  0  0  0  0  0  0  0
  141.3930   78.7950  221.1810 C   0  0  0  0  0  0  0  0  0  0  0  0
  141.8390   77.6810  220.4880 C   0  0  0  0  0  0  0  0  0  0  0  0
  141.4720   76.4380  220.9620 C   0  0  0  0  0  0  0  0  0  0  0  0
  141.8790   75.2230  220.3200 N   0  0  0  0  0  0  0  0  0  0  0  0
  142.9870   75.1860  219.4340 C   0  0  0  0  0  0  0  0  0  0  0  0
  143.6630   76.2120  219.1680 O   0  0  0  0  0  0  0  0  0  0  0  0
  143.3210   73.8570  218.8220 C   0  0  1  0  0  0  0  0  0  0  0  0
  144.8290   73.7150  219.0070 C   0  0  0  0  0  0  0  0  0  0  0  0
  144.8870   73.5050  220.5150 C   0  0  2  0  0  0  0  0  0  0  0  0
  145.9910   72.7760  220.9100 O   0  0  0  0  0  0  0  0  0  0  0  0
  143.6170   72.7570  220.8270 C   0  0  0  0  0  0  0  0  0  0  0  0
  142.8280   72.7620  219.6030 N   0  0  0  0  0  0  0  0  0  0  0  0
  141.8020   71.8160  219.3530 C   0  0  0  0  0  0  0  0  0  0  0  0
  142.1050   70.7890  218.6900 O   0  0  0  0  0  0  0  0  0  0  0  0
  140.4290   72.0690  219.8750 C   0  0  0  0  0  0  0  0  0  0  0  0
  140.2270   71.3440  221.1120 N   0  0  0  0  0  0  0  0  0  0  0  0
  140.3620   72.0720  222.3230 C   0  0  0  0  0  0  0  0  0  0  0  0
  140.6470   73.3000  222.2880 O   0  0  0  0  0  0  0  0  0  0  0  0
  140.1730   71.4090  223.6020 C   0  0  0  0  0  0  0  0  0  0  0  0
  139.4590   70.2300  223.6760 C   0  0  0  0  0  0  0  0  0  0  0  0
  139.2320   69.5400  224.8360 C   0  0  0  0  0  0  0  0  0  0  0  0
  139.7630   70.0750  226.0020 C   0  0  0  0  0  0  0  0  0  0  0  0
  139.5390   69.3850  227.1760 C   0  0  0  0  0  0  0  0  0  0  0  0
  140.0580   69.9020  228.3440 C   0  0  0  0  0  0  0  0  0  0  0  0
  140.7890   71.0920  228.3240 C   0  0  0  0  0  0  0  0  0  0  0  0
  140.9970   71.7620  227.1270 C   0  0  0  0  0  0  0  0  0  0  0  0
  140.4800   71.2520  225.9470 C   0  0  0  0  0  0  0  0  0  0  0  0
  140.6690   71.8880  224.7610 N   0  0  0  0  0  0  0  0  0  0  0  0
  140.6830   76.2880  222.0890 C   0  0  0  0  0  0  0  0  0  0  0  0
  140.2660   77.4320  222.7400 C   0  0  0  0  0  0  0  0  0  0  0  0
  140.2017   79.7286  224.1282 H   0  0  0  0  0  0  0  0  0  0  0  0
  140.7594   80.7690  222.7742 H   0  0  0  0  0  0  0  0  0  0  0  0
  139.0864   80.1151  222.7742 H   0  0  0  0  0  0  0  0  0  0  0  0
  141.6784   79.7929  220.8166 H   0  0  0  0  0  0  0  0  0  0  0  0
  142.4651   77.7841  219.5895 H   0  0  0  0  0  0  0  0  0  0  0  0
  141.3160   74.3550  220.5380 H   0  0  0  0  0  0  0  0  0  0  0  0
  142.9193   73.8303  217.7983 H   0  0  0  0  0  0  0  0  0  0  0  0
  145.2288   72.8498  218.4579 H   0  0  0  0  0  0  0  0  0  0  0  0
  145.4252   74.5598  218.6318 H   0  0  0  0  0  0  0  0  0  0  0  0
  144.9749   74.4617  221.0508 H   0  0  0  0  0  0  0  0  0  0  0  0
  145.6720   72.0790  221.5420 H   0  0  0  0  0  0  0  0  0  0  0  0
  143.8474   71.7242  221.1273 H   0  0  0  0  0  0  0  0  0  0  0  0
  143.0698   73.2275  221.6571 H   0  0  0  0  0  0  0  0  0  0  0  0
  140.3023   73.1460  220.0594 H   0  0  0  0  0  0  0  0  0  0  0  0
  139.6924   71.7279  219.1327 H   0  0  0  0  0  0  0  0  0  0  0  0
  139.9900   70.3240  221.1440 H   0  0  0  0  0  0  0  0  0  0  0  0
  139.0461   69.8187  222.7431 H   0  0  0  0  0  0  0  0  0  0  0  0
  138.6548   68.6036  224.8442 H   0  0  0  0  0  0  0  0  0  0  0  0
  138.9623   68.4483  227.1798 H   0  0  0  0  0  0  0  0  0  0  0  0
  139.8957   69.3750  229.2958 H   0  0  0  0  0  0  0  0  0  0  0  0
  141.2007   71.4989  229.2594 H   0  0  0  0  0  0  0  0  0  0  0  0
  141.5730   72.6991  227.1148 H   0  0  0  0  0  0  0  0  0  0  0  0
  140.3975   75.2904  222.4541 H   0  0  0  0  0  0  0  0  0  0  0  0
  139.6384   77.3277  223.6374 H   0  0  0  0  0  0  0  0  0  0  0  0
  1  2  1  0
  2  3  2  0
  3  4  1  0
  4  5  2  0
  5  6  1  0
  6  7  1  0
  7  8  2  0
  7  9  1  0
  9 10  1  0
 10 11  1  0
 11 12  1  0
 11 13  1  0
 13 14  1  0
 14 15  1  0
 15 16  2  0
 15 17  1  0
 17 18  1  0
 18 19  1  0
 19 20  2  0
 19 21  1  0
 21 22  2  0
 22 23  1  0
 23 24  2  0
 24 25  1  0
 25 26  2  0
 26 27  1  0
 27 28  2  0
 28 29  1  0
 29 30  2  0
  5 31  1  0
 31 32  2  0
 32  2  1  0
 14  9  1  0
 30 21  1  0
 29 24  1  0
  1 33  1  0
  1 34  1  0
  1 35  1  0
  3 36  1  0
  4 37  1  0
  6 38  1  0
  9 39  1  6
 10 40  1  0
 10 41  1  0
 11 42  1  1
 12 43  1  0
 13 44  1  0
 13 45  1  0
 17 46  1  0
 17 47  1  0
 18 48  1  0
 22 49  1  0
 23 50  1  0
 25 51  1  0
 26 52  1  0
 27 53  1  0
 28 54  1  0
 31 55  1  0
 32 56  1  0
M  END
>  <smiles>  (5) 
Cc1ccc(NC(=O)[C@H]2C[C@H](O)CN2C(=O)CNC(=O)c2ccc3ccccc3n2)cc1

>  <score_type>  (5) 
oracle

>  <origin>  (5) 
autodockgpu

>  <m_score__min__energy>  (5) 
-9.4600000000000009

>  <m_primary>  (5) 
energy

>  <rmsd>  (5) 
3.666938863235736

>  <m_score__min__rmsd>  (5) 
3.666938863235736

>  <meeko>  (5) 
{"free_energy": -8.77, "intermolecular_energy": -10.86, "internal_energy": -2.43, "cluster_size": 8, "cluster_id": 2, "rank_in_cluster": 2}

>  <energy>  (5) 
-8.91

>  <cluster_rmsd>  (5) 
1.54

>  <cluster>  (5) 
1

$$$$

     RDKit          3D

 56 59  0  0  0  0  0  0  0  0999 V2000
  142.5010   81.9660  224.4360 C   0  0  0  0  0  0  0  0  0  0  0  0
  142.2420   80.7410  223.6330 C   0  0  0  0  0  0  0  0  0  0  0  0
  141.8040   79.5650  224.2130 C   0  0  0  0  0  0  0  0  0  0  0  0
  141.5590   78.4150  223.4780 C   0  0  0  0  0  0  0  0  0  0  0  0
  141.7650   78.4670  222.1150 C   0  0  0  0  0  0  0  0  0  0  0  0
  141.5410   77.3360  221.2640 N   0  0  0  0  0  0  0  0  0  0  0  0
  140.8550   77.4600  220.0280 C   0  0  0  0  0  0  0  0  0  0  0  0
  140.4090   78.5630  219.6200 O   0  0  0  0  0  0  0  0  0  0  0  0
  140.6800   76.2070  219.2210 C   0  0  1  0  0  0  0  0  0  0  0  0
  141.3850   76.4980  217.9000 C   0  0  0  0  0  0  0  0  0  0  0  0
  142.8340   76.4910  218.3700 C   0  0  2  0  0  0  0  0  0  0  0  0
  143.7190   76.1380  217.3710 O   0  0  0  0  0  0  0  0  0  0  0  0
  142.8510   75.4730  219.4800 C   0  0  0  0  0  0  0  0  0  0  0  0
  141.4610   75.1200  219.7330 N   0  0  0  0  0  0  0  0  0  0  0  0
  141.0840   73.9110  220.3700 C   0  0  0  0  0  0  0  0  0  0  0  0
  141.9570   73.0080  220.4690 O   0  0  0  0  0  0  0  0  0  0  0  0
  139.6940   73.7570  220.8880 C   0  0  0  0  0  0  0  0  0  0  0  0
  139.7210   73.1810  222.2160 N   0  0  0  0  0  0  0  0  0  0  0  0
  139.9430   71.7820  222.3120 C   0  0  0  0  0  0  0  0  0  0  0  0
  140.1080   71.0980  221.2660 O   0  0  0  0  0  0  0  0  0  0  0  0
  139.9820   71.1360  223.6130 C   0  0  0  0  0  0  0  0  0  0  0  0
  139.4600   69.8680  223.7770 C   0  0  0  0  0  0  0  0  0  0  0  0
  139.4540   69.1870  224.9640 C   0  0  0  0  0  0  0  0  0  0  0  0
  140.0140   69.8270  226.0620 C   0  0  0  0  0  0  0  0  0  0  0  0
  140.0110   69.1460  227.2620 C   0  0  0  0  0  0  0  0  0  0  0  0
  140.5620   69.7670  228.3640 C   0  0  0  0  0  0  0  0  0  0  0  0
  141.1030   71.0500  228.2520 C   0  0  0  0  0  0  0  0  0  0  0  0
  141.0890   71.7080  227.0300 C   0  0  0  0  0  0  0  0  0  0  0  0
  140.5390   71.0940  225.9170 C   0  0  0  0  0  0  0  0  0  0  0  0
  140.5130   71.7160  224.7090 N   0  0  0  0  0  0  0  0  0  0  0  0
  142.2030   79.6180  221.4840 C   0  0  0  0  0  0  0  0  0  0  0  0
  142.4320   80.7340  222.2650 C   0  0  0  0  0  0  0  0  0  0  0  0
  142.4490   81.7202  225.5069 H   0  0  0  0  0  0  0  0  0  0  0  0
  143.5015   82.3561  224.1975 H   0  0  0  0  0  0  0  0  0  0  0  0
  141.7440   82.7276  224.1975 H   0  0  0  0  0  0  0  0  0  0  0  0
  141.6434   79.5406  225.3009 H   0  0  0  0  0  0  0  0  0  0  0  0
  141.2120   77.4920  223.9655 H   0  0  0  0  0  0  0  0  0  0  0  0
  141.9120   76.4040  221.5990 H   0  0  0  0  0  0  0  0  0  0  0  0
  139.6102   75.9526  219.1933 H   0  0  0  0  0  0  0  0  0  0  0  0
  141.1938   75.7134  217.1531 H   0  0  0  0  0  0  0  0  0  0  0  0
  141.0646   77.4218  217.3961 H   0  0  0  0  0  0  0  0  0  0  0  0
  143.1570   77.4929  218.6891 H   0  0  0  0  0  0  0  0  0  0  0  0
  144.5940   75.9590  217.8040 H   0  0  0  0  0  0  0  0  0  0  0  0
  143.4198   74.5833  219.1720 H   0  0  0  0  0  0  0  0  0  0  0  0
  143.3319   75.8753  220.3838 H   0  0  0  0  0  0  0  0  0  0  0  0
  139.2091   74.7435  220.9287 H   0  0  0  0  0  0  0  0  0  0  0  0
  139.1306   73.0915  220.2174 H   0  0  0  0  0  0  0  0  0  0  0  0
  139.5850   73.7460  223.0870 H   0  0  0  0  0  0  0  0  0  0  0  0
  139.0212   69.3740  222.8976 H   0  0  0  0  0  0  0  0  0  0  0  0
  139.0247   68.1775  225.0449 H   0  0  0  0  0  0  0  0  0  0  0  0
  139.5813   68.1362  227.3380 H   0  0  0  0  0  0  0  0  0  0  0  0
  140.5753   69.2497  229.3347 H   0  0  0  0  0  0  0  0  0  0  0  0
  141.5410   71.5399  229.1341 H   0  0  0  0  0  0  0  0  0  0  0  0
  141.5153   72.7185  226.9454 H   0  0  0  0  0  0  0  0  0  0  0  0
  142.3636   79.6434  220.3961 H   0  0  0  0  0  0  0  0  0  0  0  0
  142.7804   81.6561  221.7768 H   0  0  0  0  0  0  0  0  0  0  0  0
  1  2  1  0
  2  3  2  0
  3  4  1  0
  4  5  2  0
  5  6  1  0
  6  7  1  0
  7  8  2  0
  7  9  1  0
  9 10  1  0
 10 11  1  0
 11 12  1  0
 11 13  1  0
 13 14  1  0
 14 15  1  0
 15 16  2  0
 15 17  1  0
 17 18  1  0
 18 19  1  0
 19 20  2  0
 19 21  1  0
 21 22  2  0
 22 23  1  0
 23 24  2  0
 24 25  1  0
 25 26  2  0
 26 27  1  0
 27 28  2  0
 28 29  1  0
 29 30  2  0
  5 31  1  0
 31 32  2  0
 32  2  1  0
 14  9  1  0
 30 21  1  0
 29 24  1  0
  1 33  1  0
  1 34  1  0
  1 35  1  0
  3 36  1  0
  4 37  1  0
  6 38  1  0
  9 39  1  6
 10 40  1  0
 10 41  1  0
 11 42  1  1
 12 43  1  0
 13 44  1  0
 13 45  1  0
 17 46  1  0
 17 47  1  0
 18 48  1  0
 22 49  1  0
 23 50  1  0
 25 51  1  0
 26 52  1  0
 27 53  1  0
 28 54  1  0
 31 55  1  0
 32 56  1  0
M  END
>  <smiles>  (6) 
Cc1ccc(NC(=O)[C@H]2C[C@H](O)CN2C(=O)CNC(=O)c2ccc3ccccc3n2)cc1

>  <score_type>  (6) 
oracle

>  <origin>  (6) 
autodockgpu

>  <m_score__min__energy>  (6) 
-9.4600000000000009

>  <m_primary>  (6) 
energy

>  <rmsd>  (6) 
2.39300425190181

>  <m_score__min__rmsd>  (6) 
2.39300425190181

>  <meeko>  (6) 
{"free_energy": -9.33, "intermolecular_energy": -11.42, "internal_energy": -1.49, "cluster_size": 16, "cluster_id": 1, "rank_in_cluster": 2}

>  <energy>  (6) 
-8.8

>  <cluster_rmsd>  (6) 
1.69

>  <cluster>  (6) 
1

$$$$

     RDKit          3D

 56 59  0  0  0  0  0  0  0  0999 V2000
  140.4560   79.6570  222.9530 C   0  0  0  0  0  0  0  0  0  0  0  0
  140.8100   78.4070  222.2300 C   0  0  0  0  0  0  0  0  0  0  0  0
  141.6840   78.4040  221.1590 C   0  0  0  0  0  0  0  0  0  0  0  0
  142.0230   77.2470  220.4750 C   0  0  0  0  0  0  0  0  0  0  0  0
  141.4560   76.0610  220.8940 C   0  0  0  0  0  0  0  0  0  0  0  0
  141.7390   74.8100  220.2570 N   0  0  0  0  0  0  0  0  0  0  0  0
  142.0890   74.7370  218.8840 C   0  0  0  0  0  0  0  0  0  0  0  0
  142.1680   75.7630  218.1600 O   0  0  0  0  0  0  0  0  0  0  0  0
  142.3640   73.3710  218.3250 C   0  0  1  0  0  0  0  0  0  0  0  0
  143.6570   73.5330  217.5310 C   0  0  0  0  0  0  0  0  0  0  0  0
  144.6440   73.7220  218.6750 C   0  0  2  0  0  0  0  0  0  0  0  0
  145.9220   73.3090  218.3510 O   0  0  0  0  0  0  0  0  0  0  0  0
  144.0790   72.8770  219.7870 C   0  0  0  0  0  0  0  0  0  0  0  0
  142.7620   72.4420  219.3410 N   0  0  0  0  0  0  0  0  0  0  0  0
  142.1090   71.3070  219.8830 C   0  0  0  0  0  0  0  0  0  0  0  0
  142.7670   70.2350  219.9550 O   0  0  0  0  0  0  0  0  0  0  0  0
  140.6940   71.4240  220.3390 C   0  0  0  0  0  0  0  0  0  0  0  0
  140.5430   70.8190  221.6460 N   0  0  0  0  0  0  0  0  0  0  0  0
  140.6680   71.6700  222.7750 C   0  0  0  0  0  0  0  0  0  0  0  0
  140.9000   72.8990  222.6130 O   0  0  0  0  0  0  0  0  0  0  0  0
  140.5270   71.1320  224.1170 C   0  0  0  0  0  0  0  0  0  0  0  0
  140.7610   71.9320  225.2170 C   0  0  0  0  0  0  0  0  0  0  0  0
  140.6530   71.5080  226.5130 C   0  0  0  0  0  0  0  0  0  0  0  0
  140.2840   70.1850  226.7160 C   0  0  0  0  0  0  0  0  0  0  0  0
  140.1730   69.7500  228.0210 C   0  0  0  0  0  0  0  0  0  0  0  0
  139.8090   68.4370  228.2410 C   0  0  0  0  0  0  0  0  0  0  0  0
  139.5620   67.5850  227.1620 C   0  0  0  0  0  0  0  0  0  0  0  0
  139.6820   68.0540  225.8620 C   0  0  0  0  0  0  0  0  0  0  0  0
  140.0470   69.3700  225.6290 C   0  0  0  0  0  0  0  0  0  0  0  0
  140.1730   69.8540  224.3660 N   0  0  0  0  0  0  0  0  0  0  0  0
  140.5740   76.0080  221.9600 C   0  0  0  0  0  0  0  0  0  0  0  0
  140.2720   77.1920  222.6050 C   0  0  0  0  0  0  0  0  0  0  0  0
  140.5061   79.4800  224.0375 H   0  0  0  0  0  0  0  0  0  0  0  0
  141.1641   80.4526  222.6782 H   0  0  0  0  0  0  0  0  0  0  0  0
  139.4358   79.9632  222.6782 H   0  0  0  0  0  0  0  0  0  0  0  0
  142.1280   79.3574  220.8368 H   0  0  0  0  0  0  0  0  0  0  0  0
  142.7215   77.2735  219.6256 H   0  0  0  0  0  0  0  0  0  0  0  0
  141.6750   73.9420  220.8580 H   0  0  0  0  0  0  0  0  0  0  0  0
  141.4680   73.0212  217.7914 H   0  0  0  0  0  0  0  0  0  0  0  0
  143.8868   72.6363  216.9368 H   0  0  0  0  0  0  0  0  0  0  0  0
  143.6470   74.3435  216.7874 H   0  0  0  0  0  0  0  0  0  0  0  0
  144.7500   74.7838  218.9423 H   0  0  0  0  0  0  0  0  0  0  0  0
  146.5060   74.1120  218.3810 H   0  0  0  0  0  0  0  0  0  0  0  0
  144.7259   72.0064  219.9702 H   0  0  0  0  0  0  0  0  0  0  0  0
  144.0156   73.4440  220.7275 H   0  0  0  0  0  0  0  0  0  0  0  0
  140.4162   72.4868  220.3953 H   0  0  0  0  0  0  0  0  0  0  0  0
  140.0399   70.9047  219.6231 H   0  0  0  0  0  0  0  0  0  0  0  0
  140.3500   69.7990  221.7850 H   0  0  0  0  0  0  0  0  0  0  0  0
  141.0531   72.9777  225.0402 H   0  0  0  0  0  0  0  0  0  0  0  0
  140.8498   72.1853  227.3571 H   0  0  0  0  0  0  0  0  0  0  0  0
  140.3692   70.4308  228.8624 H   0  0  0  0  0  0  0  0  0  0  0  0
  139.7131   68.0600  229.2699 H   0  0  0  0  0  0  0  0  0  0  0  0
  139.2716   66.5397  227.3436 H   0  0  0  0  0  0  0  0  0  0  0  0
  139.4871   67.3800  225.0148 H   0  0  0  0  0  0  0  0  0  0  0  0
  140.1287   75.0553  222.2826 H   0  0  0  0  0  0  0  0  0  0  0  0
  139.5728   77.1655  223.4538 H   0  0  0  0  0  0  0  0  0  0  0  0
  1  2  1  0
  2  3  2  0
  3  4  1  0
  4  5  2  0
  5  6  1  0
  6  7  1  0
  7  8  2  0
  7  9  1  0
  9 10  1  0
 10 11  1  0
 11 12  1  0
 11 13  1  0
 13 14  1  0
 14 15  1  0
 15 16  2  0
 15 17  1  0
 17 18  1  0
 18 19  1  0
 19 20  2  0
 19 21  1  0
 21 22  2  0
 22 23  1  0
 23 24  2  0
 24 25  1  0
 25 26  2  0
 26 27  1  0
 27 28  2  0
 28 29  1  0
 29 30  2  0
  5 31  1  0
 31 32  2  0
 32  2  1  0
 14  9  1  0
 30 21  1  0
 29 24  1  0
  1 33  1  0
  1 34  1  0
  1 35  1  0
  3 36  1  0
  4 37  1  0
  6 38  1  0
  9 39  1  6
 10 40  1  0
 10 41  1  0
 11 42  1  1
 12 43  1  0
 13 44  1  0
 13 45  1  0
 17 46  1  0
 17 47  1  0
 18 48  1  0
 22 49  1  0
 23 50  1  0
 25 51  1  0
 26 52  1  0
 27 53  1  0
 28 54  1  0
 31 55  1  0
 32 56  1  0
M  END
>  <smiles>  (7) 
Cc1ccc(NC(=O)[C@H]2C[C@H](O)CN2C(=O)CNC(=O)c2ccc3ccccc3n2)cc1

>  <score_type>  (7) 
oracle

>  <origin>  (7) 
autodockgpu

>  <m_score__min__energy>  (7) 
-9.4600000000000009

>  <m_primary>  (7) 
energy

>  <rmsd>  (7) 
4.158775125024001

>  <m_score__min__rmsd>  (7) 
4.158775125024001

>  <meeko>  (7) 
{"free_energy": -7.98, "intermolecular_energy": -10.07, "internal_energy": -2.65, "cluster_size": 8, "cluster_id": 2, "rank_in_cluster": 7}

>  <energy>  (7) 
-8.76

>  <cluster_rmsd>  (7) 
0.85

>  <cluster>  (7) 
1

$$$$

     RDKit          3D

 56 59  0  0  0  0  0  0  0  0999 V2000
  139.9770   69.2250  228.3120 C   0  0  0  0  0  0  0  0  0  0  0  0
  140.1730   69.8810  226.9920 C   0  0  0  0  0  0  0  0  0  0  0  0
  140.8490   71.0800  226.8640 C   0  0  0  0  0  0  0  0  0  0  0  0
  141.0400   71.7040  225.6410 C   0  0  0  0  0  0  0  0  0  0  0  0
  140.5270   71.0870  224.5180 C   0  0  0  0  0  0  0  0  0  0  0  0
  140.6690   71.6470  223.2060 N   0  0  0  0  0  0  0  0  0  0  0  0
  139.5520   72.1400  222.4840 C   0  0  0  0  0  0  0  0  0  0  0  0
  138.3860   72.1110  222.9570 O   0  0  0  0  0  0  0  0  0  0  0  0
  139.8210   72.7030  221.1190 C   0  0  1  0  0  0  0  0  0  0  0  0
  138.8460   73.8690  220.9840 C   0  0  0  0  0  0  0  0  0  0  0  0
  139.4720   74.8480  221.9690 C   0  0  2  0  0  0  0  0  0  0  0  0
  139.2030   76.1660  221.6580 O   0  0  0  0  0  0  0  0  0  0  0  0
  140.9500   74.5700  221.8700 C   0  0  0  0  0  0  0  0  0  0  0  0
  141.0860   73.3730  221.0510 N   0  0  0  0  0  0  0  0  0  0  0  0
  142.2860   73.0460  220.3700 C   0  0  0  0  0  0  0  0  0  0  0  0
  142.7710   71.9000  220.5610 O   0  0  0  0  0  0  0  0  0  0  0  0
  142.9170   74.0560  219.4720 C   0  0  0  0  0  0  0  0  0  0  0  0
  142.8760   75.3650  220.0910 N   0  0  0  0  0  0  0  0  0  0  0  0
  142.0060   76.3280  219.5170 C   0  0  0  0  0  0  0  0  0  0  0  0
  141.3100   76.0260  218.5100 O   0  0  0  0  0  0  0  0  0  0  0  0
  141.9140   77.6620  220.0860 C   0  0  0  0  0  0  0  0  0  0  0  0
  141.9150   78.7710  219.2640 C   0  0  0  0  0  0  0  0  0  0  0  0
  141.8320   80.0610  219.7140 C   0  0  0  0  0  0  0  0  0  0  0  0
  141.7430   80.2470  221.0870 C   0  0  0  0  0  0  0  0  0  0  0  0
  141.6590   81.5440  221.5480 C   0  0  0  0  0  0  0  0  0  0  0  0
  141.5710   81.7470  222.9100 C   0  0  0  0  0  0  0  0  0  0  0  0
  141.5670   80.6590  223.7850 C   0  0  0  0  0  0  0  0  0  0  0  0
  141.6530   79.3650  223.2890 C   0  0  0  0  0  0  0  0  0  0  0  0
  141.7420   79.1490  221.9230 C   0  0  0  0  0  0  0  0  0  0  0  0
  141.8260   77.8940  221.4120 N   0  0  0  0  0  0  0  0  0  0  0  0
  139.8420   69.8870  224.5900 C   0  0  0  0  0  0  0  0  0  0  0  0
  139.6820   69.3110  225.8350 C   0  0  0  0  0  0  0  0  0  0  0  0
  140.1922   69.9453  229.1150 H   0  0  0  0  0  0  0  0  0  0  0  0
  138.9363   68.8793  228.3987 H   0  0  0  0  0  0  0  0  0  0  0  0
  140.6575   68.3651  228.3987 H   0  0  0  0  0  0  0  0  0  0  0  0
  141.2516   71.5582  227.7691 H   0  0  0  0  0  0  0  0  0  0  0  0
  141.5820   72.6584  225.5680 H   0  0  0  0  0  0  0  0  0  0  0  0
  141.6450   71.6750  222.8010 H   0  0  0  0  0  0  0  0  0  0  0  0
  139.7596   71.8879  220.3829 H   0  0  0  0  0  0  0  0  0  0  0  0
  138.8303   74.2724  219.9608 H   0  0  0  0  0  0  0  0  0  0  0  0
  137.7932   73.6197  221.1824 H   0  0  0  0  0  0  0  0  0  0  0  0
  139.0668   74.7102  222.9823 H   0  0  0  0  0  0  0  0  0  0  0  0
  140.0740   76.6130  221.4940 H   0  0  0  0  0  0  0  0  0  0  0  0
  141.4661   75.4174  221.3950 H   0  0  0  0  0  0  0  0  0  0  0  0
  141.3979   74.4274  222.8645 H   0  0  0  0  0  0  0  0  0  0  0  0
  143.9638   73.7740  219.2856 H   0  0  0  0  0  0  0  0  0  0  0  0
  142.3642   74.0890  218.5216 H   0  0  0  0  0  0  0  0  0  0  0  0
  143.4520   75.6190  220.9280 H   0  0  0  0  0  0  0  0  0  0  0  0
  141.9870   78.6077  218.1786 H   0  0  0  0  0  0  0  0  0  0  0  0
  141.8357   80.9130  219.0183 H   0  0  0  0  0  0  0  0  0  0  0  0
  141.6621   82.3934  220.8491 H   0  0  0  0  0  0  0  0  0  0  0  0
  141.5037   82.7702  223.3080 H   0  0  0  0  0  0  0  0  0  0  0  0
  141.4956   80.8273  224.8697 H   0  0  0  0  0  0  0  0  0  0  0  0
  141.6505   78.5101  223.9812 H   0  0  0  0  0  0  0  0  0  0  0  0
  139.4383   69.4078  223.6859 H   0  0  0  0  0  0  0  0  0  0  0  0
  139.1398   68.3567  225.9076 H   0  0  0  0  0  0  0  0  0  0  0  0
  1  2  1  0
  2  3  2  0
  3  4  1  0
  4  5  2  0
  5  6  1  0
  6  7  1  0
  7  8  2  0
  7  9  1  0
  9 10  1  0
 10 11  1  0
 11 12  1  0
 11 13  1  0
 13 14  1  0
 14 15  1  0
 15 16  2  0
 15 17  1  0
 17 18  1  0
 18 19  1  0
 19 20  2  0
 19 21  1  0
 21 22  2  0
 22 23  1  0
 23 24  2  0
 24 25  1  0
 25 26  2  0
 26 27  1  0
 27 28  2  0
 28 29  1  0
 29 30  2  0
  5 31  1  0
 31 32  2  0
 32  2  1  0
 14  9  1  0
 30 21  1  0
 29 24  1  0
  1 33  1  0
  1 34  1  0
  1 35  1  0
  3 36  1  0
  4 37  1  0
  6 38  1  0
  9 39  1  6
 10 40  1  0
 10 41  1  0
 11 42  1  1
 12 43  1  0
 13 44  1  0
 13 45  1  0
 17 46  1  0
 17 47  1  0
 18 48  1  0
 22 49  1  0
 23 50  1  0
 25 51  1  0
 26 52  1  0
 27 53  1  0
 28 54  1  0
 31 55  1  0
 32 56  1  0
M  END
>  <smiles>  (8) 
Cc1ccc(NC(=O)[C@H]2C[C@H](O)CN2C(=O)CNC(=O)c2ccc3ccccc3n2)cc1

>  <score_type>  (8) 
oracle

>  <origin>  (8) 
autodockgpu

>  <m_score__min__energy>  (8) 
-9.4600000000000009

>  <m_primary>  (8) 
energy

>  <rmsd>  (8) 
8.989809782804043

>  <m_score__min__rmsd>  (8) 
8.989809782804043

>  <meeko>  (8) 
{"free_energy": -7.45, "intermolecular_energy": -9.54, "internal_energy": -2.88, "cluster_size": 5, "cluster_id": 7, "rank_in_cluster": 2}

>  <energy>  (8) 
-8.71

>  <cluster_rmsd>  (8) 
1.33

>  <cluster>  (8) 
1

$$$$

     RDKit          3D

 56 59  0  0  0  0  0  0  0  0999 V2000
  140.6720   83.0390  220.9590 C   0  0  0  0  0  0  0  0  0  0  0  0
  140.7420   81.6930  220.3300 C   0  0  0  0  0  0  0  0  0  0  0  0
  141.9350   81.1520  219.8900 C   0  0  0  0  0  0  0  0  0  0  0  0
  142.0160   79.8990  219.3020 C   0  0  0  0  0  0  0  0  0  0  0  0
  140.8470   79.1790  219.1590 C   0  0  0  0  0  0  0  0  0  0  0  0
  140.8200   77.8760  218.5650 N   0  0  0  0  0  0  0  0  0  0  0  0
  141.6040   76.8090  219.0750 C   0  0  0  0  0  0  0  0  0  0  0  0
  142.3610   76.9540  220.0690 O   0  0  0  0  0  0  0  0  0  0  0  0
  141.4940   75.4890  218.3710 C   0  0  1  0  0  0  0  0  0  0  0  0
  142.2540   75.6850  217.0620 C   0  0  0  0  0  0  0  0  0  0  0  0
  143.6790   75.7540  217.5960 C   0  0  2  0  0  0  0  0  0  0  0  0
  144.6170   75.3400  216.6720 O   0  0  0  0  0  0  0  0  0  0  0  0
  143.6650   74.8340  218.7890 C   0  0  0  0  0  0  0  0  0  0  0  0
  142.2720   74.4690  219.0090 N   0  0  0  0  0  0  0  0  0  0  0  0
  141.8920   73.3090  219.7290 C   0  0  0  0  0  0  0  0  0  0  0  0
  141.9320   72.2060  219.1210 O   0  0  0  0  0  0  0  0  0  0  0  0
  141.4670   73.4360  221.1520 C   0  0  0  0  0  0  0  0  0  0  0  0
  141.5400   74.8210  221.5690 N   0  0  0  0  0  0  0  0  0  0  0  0
  140.3300   75.4420  221.9760 C   0  0  0  0  0  0  0  0  0  0  0  0
  139.2530   74.7860  221.9640 O   0  0  0  0  0  0  0  0  0  0  0  0
  140.3280   76.8300  222.4070 C   0  0  0  0  0  0  0  0  0  0  0  0
  139.1370   77.4800  222.6550 C   0  0  0  0  0  0  0  0  0  0  0  0
  139.0420   78.7830  223.0630 C   0  0  0  0  0  0  0  0  0  0  0  0
  140.2320   79.4790  223.2320 C   0  0  0  0  0  0  0  0  0  0  0  0
  140.1450   80.7940  223.6420 C   0  0  0  0  0  0  0  0  0  0  0  0
  141.3170   81.5010  223.8140 C   0  0  0  0  0  0  0  0  0  0  0  0
  142.5490   80.8890  223.5760 C   0  0  0  0  0  0  0  0  0  0  0  0
  142.6030   79.5650  223.1630 C   0  0  0  0  0  0  0  0  0  0  0  0
  141.4320   78.8450  222.9870 C   0  0  0  0  0  0  0  0  0  0  0  0
  141.4560   77.5480  222.5840 N   0  0  0  0  0  0  0  0  0  0  0  0
  139.6260   79.6740  219.5810 C   0  0  0  0  0  0  0  0  0  0  0  0
  139.6050   80.9280  220.1600 C   0  0  0  0  0  0  0  0  0  0  0  0
  140.6775   82.9328  222.0538 H   0  0  0  0  0  0  0  0  0  0  0  0
  141.5403   83.6365  220.6442 H   0  0  0  0  0  0  0  0  0  0  0  0
  139.7464   83.5432  220.6442 H   0  0  0  0  0  0  0  0  0  0  0  0
  142.8574   81.7390  220.0111 H   0  0  0  0  0  0  0  0  0  0  0  0
  142.9795   79.4923  218.9609 H   0  0  0  0  0  0  0  0  0  0  0  0
  140.1870   77.7450  217.7280 H   0  0  0  0  0  0  0  0  0  0  0  0
  140.4323   75.2065  218.3167 H   0  0  0  0  0  0  0  0  0  0  0  0
  142.1147   74.8355  216.3772 H   0  0  0  0  0  0  0  0  0  0  0  0
  141.9381   76.5544  216.4668 H   0  0  0  0  0  0  0  0  0  0  0  0
  143.9655   76.7870  217.8425 H   0  0  0  0  0  0  0  0  0  0  0  0
  145.4070   75.0180  217.1790 H   0  0  0  0  0  0  0  0  0  0  0  0
  144.2661   73.9358  218.5841 H   0  0  0  0  0  0  0  0  0  0  0  0
  144.0944   75.3233  219.6757 H   0  0  0  0  0  0  0  0  0  0  0  0
  140.4321   73.0782  221.2564 H   0  0  0  0  0  0  0  0  0  0  0  0
  142.1357   72.8330  221.7838 H   0  0  0  0  0  0  0  0  0  0  0  0
  142.4330   75.3690  221.5800 H   0  0  0  0  0  0  0  0  0  0  0  0
  138.2036   76.9149  222.5159 H   0  0  0  0  0  0  0  0  0  0  0  0
  138.0672   79.2576  223.2487 H   0  0  0  0  0  0  0  0  0  0  0  0
  139.1683   81.2652  223.8265 H   0  0  0  0  0  0  0  0  0  0  0  0
  141.2807   82.5510  224.1399 H   0  0  0  0  0  0  0  0  0  0  0  0
  143.4799   81.4579  223.7163 H   0  0  0  0  0  0  0  0  0  0  0  0
  143.5757   79.0870  222.9753 H   0  0  0  0  0  0  0  0  0  0  0  0
  138.7027   79.0885  219.4595 H   0  0  0  0  0  0  0  0  0  0  0  0
  138.6412   81.3346  220.5003 H   0  0  0  0  0  0  0  0  0  0  0  0
  1  2  1  0
  2  3  2  0
  3  4  1  0
  4  5  2  0
  5  6  1  0
  6  7  1  0
  7  8  2  0
  7  9  1  0
  9 10  1  0
 10 11  1  0
 11 12  1  0
 11 13  1  0
 13 14  1  0
 14 15  1  0
 15 16  2  0
 15 17  1  0
 17 18  1  0
 18 19  1  0
 19 20  2  0
 19 21  1  0
 21 22  2  0
 22 23  1  0
 23 24  2  0
 24 25  1  0
 25 26  2  0
 26 27  1  0
 27 28  2  0
 28 29  1  0
 29 30  2  0
  5 31  1  0
 31 32  2  0
 32  2  1  0
 14  9  1  0
 30 21  1  0
 29 24  1  0
  1 33  1  0
  1 34  1  0
  1 35  1  0
  3 36  1  0
  4 37  1  0
  6 38  1  0
  9 39  1  6
 10 40  1  0
 10 41  1  0
 11 42  1  1
 12 43  1  0
 13 44  1  0
 13 45  1  0
 17 46  1  0
 17 47  1  0
 18 48  1  0
 22 49  1  0
 23 50  1  0
 25 51  1  0
 26 52  1  0
 27 53  1  0
 28 54  1  0
 31 55  1  0
 32 56  1  0
M  END
>  <smiles>  (9) 
Cc1ccc(NC(=O)[C@H]2C[C@H](O)CN2C(=O)CNC(=O)c2ccc3ccccc3n2)cc1

>  <score_type>  (9) 
oracle

>  <origin>  (9) 
autodockgpu

>  <m_score__min__energy>  (9) 
-9.4600000000000009

>  <m_primary>  (9) 
energy

>  <rmsd>  (9) 
6.541568911843632

>  <m_score__min__rmsd>  (9) 
6.541568911843632

>  <meeko>  (9) 
{"free_energy": -6.24, "intermolecular_energy": -8.32, "internal_energy": -4.31, "cluster_size": 13, "cluster_id": 9, "rank_in_cluster": 10}

>  <energy>  (9) 
-8.69

>  <cluster_rmsd>  (9) 
0.82

>  <cluster>  (9) 
1

$$$$

     RDKit          3D

 56 59  0  0  0  0  0  0  0  0999 V2000
  138.8990   79.7110  223.8710 C   0  0  0  0  0  0  0  0  0  0  0  0
  139.5130   78.6220  223.0670 C   0  0  0  0  0  0  0  0  0  0  0  0
  140.8330   78.6700  222.6560 C   0  0  0  0  0  0  0  0  0  0  0  0
  141.4190   77.6630  221.9070 C   0  0  0  0  0  0  0  0  0  0  0  0
  140.6400   76.5750  221.5680 C   0  0  0  0  0  0  0  0  0  0  0  0
  141.1480   75.4800  220.7970 N   0  0  0  0  0  0  0  0  0  0  0  0
  141.9770   75.6890  219.6650 C   0  0  0  0  0  0  0  0  0  0  0  0
  142.3060   76.8410  219.2820 O   0  0  0  0  0  0  0  0  0  0  0  0
  142.4500   74.4660  218.9350 C   0  0  1  0  0  0  0  0  0  0  0  0
  143.9690   74.5980  218.9050 C   0  0  0  0  0  0  0  0  0  0  0  0
  144.2820   74.3520  220.3750 C   0  0  2  0  0  0  0  0  0  0  0  0
  145.5430   73.8270  220.5730 O   0  0  0  0  0  0  0  0  0  0  0  0
  143.2240   73.3730  220.8130 C   0  0  0  0  0  0  0  0  0  0  0  0
  142.2780   73.2730  219.7100 N   0  0  0  0  0  0  0  0  0  0  0  0
  141.4110   72.1630  219.5470 C   0  0  0  0  0  0  0  0  0  0  0  0
  141.8000   71.2240  218.8030 O   0  0  0  0  0  0  0  0  0  0  0  0
  140.0960   72.1510  220.2500 C   0  0  0  0  0  0  0  0  0  0  0  0
  140.1830   71.3480  221.4510 N   0  0  0  0  0  0  0  0  0  0  0  0
  140.1640   72.0340  222.6940 C   0  0  0  0  0  0  0  0  0  0  0  0
  140.0720   73.2910  222.7160 O   0  0  0  0  0  0  0  0  0  0  0  0
  140.2480   71.2920  223.9410 C   0  0  0  0  0  0  0  0  0  0  0  0
  140.7400   71.8970  225.0790 C   0  0  0  0  0  0  0  0  0  0  0  0
  140.8540   71.2750  226.2930 C   0  0  0  0  0  0  0  0  0  0  0  0
  140.4440   69.9500  226.3640 C   0  0  0  0  0  0  0  0  0  0  0  0
  140.5570   69.3150  227.5840 C   0  0  0  0  0  0  0  0  0  0  0  0
  140.1550   67.9980  227.6720 C   0  0  0  0  0  0  0  0  0  0  0  0
  139.6500   67.3390  226.5490 C   0  0  0  0  0  0  0  0  0  0  0  0
  139.5500   68.0060  225.3360 C   0  0  0  0  0  0  0  0  0  0  0  0
  139.9500   69.3290  225.2350 C   0  0  0  0  0  0  0  0  0  0  0  0
  139.8630   70.0040  224.0600 N   0  0  0  0  0  0  0  0  0  0  0  0
  139.3140   76.4770  221.9540 C   0  0  0  0  0  0  0  0  0  0  0  0
  138.7820   77.5100  222.6990 C   0  0  0  0  0  0  0  0  0  0  0  0
  139.0231   79.4910  224.9416 H   0  0  0  0  0  0  0  0  0  0  0  0
  139.3921   80.6651  223.6332 H   0  0  0  0  0  0  0  0  0  0  0  0
  137.8274   79.7829  223.6332 H   0  0  0  0  0  0  0  0  0  0  0  0
  141.4415   79.5428  222.9352 H   0  0  0  0  0  0  0  0  0  0  0  0
  142.4711   77.7282  221.5925 H   0  0  0  0  0  0  0  0  0  0  0  0
  140.8760   74.5070  221.1110 H   0  0  0  0  0  0  0  0  0  0  0  0
  141.9159   74.4004  217.9756 H   0  0  0  0  0  0  0  0  0  0  0  0
  144.4323   73.8402  218.2561 H   0  0  0  0  0  0  0  0  0  0  0  0
  144.3445   75.5507  218.5034 H   0  0  0  0  0  0  0  0  0  0  0  0
  144.2757   75.2905  220.9487 H   0  0  0  0  0  0  0  0  0  0  0  0
  146.1840   74.4130  220.0920 H   0  0  0  0  0  0  0  0  0  0  0  0
  143.6752   72.3910  221.0181 H   0  0  0  0  0  0  0  0  0  0  0  0
  142.7279   73.7069  221.7363 H   0  0  0  0  0  0  0  0  0  0  0  0
  139.8179   73.1805  220.5197 H   0  0  0  0  0  0  0  0  0  0  0  0
  139.3343   71.7209  219.5830 H   0  0  0  0  0  0  0  0  0  0  0  0
  140.2600   70.3040  221.4370 H   0  0  0  0  0  0  0  0  0  0  0  0
  141.0613   72.9465  225.0061 H   0  0  0  0  0  0  0  0  0  0  0  0
  141.2525   71.8011  227.1730 H   0  0  0  0  0  0  0  0  0  0  0  0
  140.9564   69.8440  228.4618 H   0  0  0  0  0  0  0  0  0  0  0  0
  140.2326   67.4647  228.6310 H   0  0  0  0  0  0  0  0  0  0  0  0
  139.3308   66.2891  226.6260 H   0  0  0  0  0  0  0  0  0  0  0  0
  139.1526   67.4836  224.4533 H   0  0  0  0  0  0  0  0  0  0  0  0
  138.7045   75.6045  221.6761 H   0  0  0  0  0  0  0  0  0  0  0  0
  137.7299   77.4445  223.0132 H   0  0  0  0  0  0  0  0  0  0  0  0
  1  2  1  0
  2  3  2  0
  3  4  1  0
  4  5  2  0
  5  6  1  0
  6  7  1  0
  7  8  2  0
  7  9  1  0
  9 10  1  0
 10 11  1  0
 11 12  1  0
 11 13  1  0
 13 14  1  0
 14 15  1  0
 15 16  2  0
 15 17  1  0
 17 18  1  0
 18 19  1  0
 19 20  2  0
 19 21  1  0
 21 22  2  0
 22 23  1  0
 23 24  2  0
 24 25  1  0
 25 26  2  0
 26 27  1  0
 27 28  2  0
 28 29  1  0
 29 30  2  0
  5 31  1  0
 31 32  2  0
 32  2  1  0
 14  9  1  0
 30 21  1  0
 29 24  1  0
  1 33  1  0
  1 34  1  0
  1 35  1  0
  3 36  1  0
  4 37  1  0
  6 38  1  0
  9 39  1  6
 10 40  1  0
 10 41  1  0
 11 42  1  1
 12 43  1  0
 13 44  1  0
 13 45  1  0
 17 46  1  0
 17 47  1  0
 18 48  1  0
 22 49  1  0
 23 50  1  0
 25 51  1  0
 26 52  1  0
 27 53  1  0
 28 54  1  0
 31 55  1  0
 32 56  1  0
M  END
>  <smiles>  (10) 
Cc1ccc(NC(=O)[C@H]2C[C@H](O)CN2C(=O)CNC(=O)c2ccc3ccccc3n2)cc1

>  <score_type>  (10) 
oracle

>  <origin>  (10) 
autodockgpu

>  <m_score__min__energy>  (10) 
-9.4600000000000009

>  <m_primary>  (10) 
energy

>  <rmsd>  (10) 
3.895729731595154

>  <m_score__min__rmsd>  (10) 
3.895729731595154

>  <meeko>  (10) 
{"free_energy": -8.12, "intermolecular_energy": -10.21, "internal_energy": -2.7, "cluster_size": 8, "cluster_id": 2, "rank_in_cluster": 6}

>  <energy>  (10) 
-8.57

>  <cluster_rmsd>  (10) 
1.37

>  <cluster>  (10) 
1

$$$$

     RDKit          3D

 56 59  0  0  0  0  0  0  0  0999 V2000
  138.0020   80.2840  223.4020 C   0  0  0  0  0  0  0  0  0  0  0  0
  138.9230   79.2070  222.9500 C   0  0  0  0  0  0  0  0  0  0  0  0
  140.1550   79.0010  223.5430 C   0  0  0  0  0  0  0  0  0  0  0  0
  141.0230   78.0010  223.1320 C   0  0  0  0  0  0  0  0  0  0  0  0
  140.6250   77.1910  222.0890 C   0  0  0  0  0  0  0  0  0  0  0  0
  141.4460   76.1300  221.5870 N   0  0  0  0  0  0  0  0  0  0  0  0
  141.0310   74.7740  221.6500 C   0  0  0  0  0  0  0  0  0  0  0  0
  139.9260   74.4380  222.1480 O   0  0  0  0  0  0  0  0  0  0  0  0
  141.9740   73.7490  221.0940 C   0  0  1  0  0  0  0  0  0  0  0  0
  141.1100   72.5110  220.8710 C   0  0  0  0  0  0  0  0  0  0  0  0
  140.2710   72.9870  219.6930 C   0  0  2  0  0  0  0  0  0  0  0  0
  139.8320   71.9490  218.8950 O   0  0  0  0  0  0  0  0  0  0  0  0
  141.2010   73.8910  218.9250 C   0  0  0  0  0  0  0  0  0  0  0  0
  142.3850   74.0610  219.7570 N   0  0  0  0  0  0  0  0  0  0  0  0
  143.6380   74.4600  219.2270 C   0  0  0  0  0  0  0  0  0  0  0  0
  144.6570   73.8200  219.5960 O   0  0  0  0  0  0  0  0  0  0  0  0
  143.6980   75.6020  218.2710 C   0  0  0  0  0  0  0  0  0  0  0  0
  143.3130   76.8280  218.9380 N   0  0  0  0  0  0  0  0  0  0  0  0
  142.1460   77.4850  218.4680 C   0  0  0  0  0  0  0  0  0  0  0  0
  141.4920   76.9940  217.5070 O   0  0  0  0  0  0  0  0  0  0  0  0
  141.7000   78.7200  219.0900 C   0  0  0  0  0  0  0  0  0  0  0  0
  140.7350   79.4980  218.4820 C   0  0  0  0  0  0  0  0  0  0  0  0
  140.2580   80.6720  218.9960 C   0  0  0  0  0  0  0  0  0  0  0  0
  140.7910   81.0940  220.2070 C   0  0  0  0  0  0  0  0  0  0  0  0
  140.3150   82.2790  220.7310 C   0  0  0  0  0  0  0  0  0  0  0  0
  140.8350   82.7130  221.9330 C   0  0  0  0  0  0  0  0  0  0  0  0
  141.8140   81.9640  222.5890 C   0  0  0  0  0  0  0  0  0  0  0  0
  142.2710   80.7770  222.0350 C   0  0  0  0  0  0  0  0  0  0  0  0
  141.7570   80.3300  220.8280 C   0  0  0  0  0  0  0  0  0  0  0  0
  142.1870   79.1720  220.2640 N   0  0  0  0  0  0  0  0  0  0  0  0
  139.4020   77.3550  221.4600 C   0  0  0  0  0  0  0  0  0  0  0  0
  138.5770   78.3660  221.9100 C   0  0  0  0  0  0  0  0  0  0  0  0
  137.9798   80.3100  224.5015 H   0  0  0  0  0  0  0  0  0  0  0  0
  138.3551   81.2530  223.0194 H   0  0  0  0  0  0  0  0  0  0  0  0
  136.9900   80.0855  223.0194 H   0  0  0  0  0  0  0  0  0  0  0  0
  140.4582   79.6560  224.3731 H   0  0  0  0  0  0  0  0  0  0  0  0
  141.9975   77.8582  223.6219 H   0  0  0  0  0  0  0  0  0  0  0  0
  142.3770   76.4030  221.1670 H   0  0  0  0  0  0  0  0  0  0  0  0
  142.8388   73.6633  221.7684 H   0  0  0  0  0  0  0  0  0  0  0  0
  141.7164   71.6306  220.6117 H   0  0  0  0  0  0  0  0  0  0  0  0
  140.5342   72.1821  221.7487 H   0  0  0  0  0  0  0  0  0  0  0  0
  139.3526   73.4888  220.0318 H   0  0  0  0  0  0  0  0  0  0  0  0
  140.5120   71.8180  218.1840 H   0  0  0  0  0  0  0  0  0  0  0  0
  141.4735   73.4297  217.9643 H   0  0  0  0  0  0  0  0  0  0  0  0
  140.7260   74.8580  218.7030 H   0  0  0  0  0  0  0  0  0  0  0  0
  144.7242   75.7027  217.8879 H   0  0  0  0  0  0  0  0  0  0  0  0
  143.0053   75.4118  217.4379 H   0  0  0  0  0  0  0  0  0  0  0  0
  143.8530   77.2390  219.7360 H   0  0  0  0  0  0  0  0  0  0  0  0
  140.3235   79.1513  217.5226 H   0  0  0  0  0  0  0  0  0  0  0  0
  139.4863   81.2562  218.4734 H   0  0  0  0  0  0  0  0  0  0  0  0
  139.5433   82.8606  220.2054 H   0  0  0  0  0  0  0  0  0  0  0  0
  140.4766   83.6536  222.3767 H   0  0  0  0  0  0  0  0  0  0  0  0
  142.2238   82.3159  223.5472 H   0  0  0  0  0  0  0  0  0  0  0  0
  143.0425   80.1897  222.5545 H   0  0  0  0  0  0  0  0  0  0  0  0
  139.0982   76.7011  220.6293 H   0  0  0  0  0  0  0  0  0  0  0  0
  137.6026   78.5081  221.4197 H   0  0  0  0  0  0  0  0  0  0  0  0
  1  2  1  0
  2  3  2  0
  3  4  1  0
  4  5  2  0
  5  6  1  0
  6  7  1  0
  7  8  2  0
  7  9  1  0
  9 10  1  0
 10 11  1  0
 11 12  1  0
 11 13  1  0
 13 14  1  0
 14 15  1  0
 15 16  2  0
 15 17  1  0
 17 18  1  0
 18 19  1  0
 19 20  2  0
 19 21  1  0
 21 22  2  0
 22 23  1  0
 23 24  2  0
 24 25  1  0
 25 26  2  0
 26 27  1  0
 27 28  2  0
 28 29  1  0
 29 30  2  0
  5 31  1  0
 31 32  2  0
 32  2  1  0
 14  9  1  0
 30 21  1  0
 29 24  1  0
  1 33  1  0
  1 34  1  0
  1 35  1  0
  3 36  1  0
  4 37  1  0
  6 38  1  0
  9 39  1  1
 10 40  1  0
 10 41  1  0
 11 42  1  1
 12 43  1  0
 13 44  1  0
 13 45  1  0
 17 46  1  0
 17 47  1  0
 18 48  1  0
 22 49  1  0
 23 50  1  0
 25 51  1  0
 26 52  1  0
 27 53  1  0
 28 54  1  0
 31 55  1  0
 32 56  1  0
M  END
>  <smiles>  (11) 
Cc1ccc(NC(=O)[C@H]2C[C@H](O)CN2C(=O)CNC(=O)c2ccc3ccccc3n2)cc1

>  <score_type>  (11) 
oracle

>  <origin>  (11) 
autodockgpu

>  <m_score__min__energy>  (11) 
-9.4600000000000009

>  <m_primary>  (11) 
energy

>  <rmsd>  (11) 
8.162576463557267

>  <m_score__min__rmsd>  (11) 
8.162576463557267

>  <meeko>  (11) 
{"free_energy": -6.13, "intermolecular_energy": -8.22, "internal_energy": -3.7, "cluster_size": 1, "cluster_id": 10, "rank_in_cluster": 1}

>  <energy>  (11) 
-8.51

>  <cluster_rmsd>  (11) 
1.51

>  <cluster>  (11) 
1

$$$$

     RDKit          3D

 56 59  0  0  0  0  0  0  0  0999 V2000
  140.7600   79.6900  223.0700 C   0  0  0  0  0  0  0  0  0  0  0  0
  141.1110   78.4760  222.2860 C   0  0  0  0  0  0  0  0  0  0  0  0
  141.8120   78.5510  221.0960 C   0  0  0  0  0  0  0  0  0  0  0  0
  142.1460   77.4290  220.3550 C   0  0  0  0  0  0  0  0  0  0  0  0
  141.7550   76.1970  220.8390 C   0  0  0  0  0  0  0  0  0  0  0  0
  142.0490   74.9760  220.1510 N   0  0  0  0  0  0  0  0  0  0  0  0
  143.0470   74.9110  219.1440 C   0  0  0  0  0  0  0  0  0  0  0  0
  143.7200   75.9180  218.8070 O   0  0  0  0  0  0  0  0  0  0  0  0
  143.2680   73.5770  218.4920 C   0  0  1  0  0  0  0  0  0  0  0  0
  144.7840   73.4570  218.3650 C   0  0  0  0  0  0  0  0  0  0  0  0
  145.1540   73.2700  219.8310 C   0  0  2  0  0  0  0  0  0  0  0  0
  146.3260   72.5600  219.9990 O   0  0  0  0  0  0  0  0  0  0  0  0
  143.9870   72.5120  220.4070 C   0  0  0  0  0  0  0  0  0  0  0  0
  142.9630   72.4880  219.3720 N   0  0  0  0  0  0  0  0  0  0  0  0
  141.9220   71.5260  219.3500 C   0  0  0  0  0  0  0  0  0  0  0  0
  142.1890   70.3890  218.8790 O   0  0  0  0  0  0  0  0  0  0  0  0
  140.5750   71.8920  219.8750 C   0  0  0  0  0  0  0  0  0  0  0  0
  140.3300   71.2100  221.1290 N   0  0  0  0  0  0  0  0  0  0  0  0
  140.4510   71.9750  222.3190 C   0  0  0  0  0  0  0  0  0  0  0  0
  140.7600   73.1960  222.2520 O   0  0  0  0  0  0  0  0  0  0  0  0
  140.2200   71.3560  223.6130 C   0  0  0  0  0  0  0  0  0  0  0  0
  139.4500   70.2150  223.7120 C   0  0  0  0  0  0  0  0  0  0  0  0
  139.1800   69.5690  224.8870 C   0  0  0  0  0  0  0  0  0  0  0  0
  139.7250   70.1100  226.0450 C   0  0  0  0  0  0  0  0  0  0  0  0
  139.4580   69.4640  227.2340 C   0  0  0  0  0  0  0  0  0  0  0  0
  139.9900   69.9890  228.3940 C   0  0  0  0  0  0  0  0  0  0  0  0
  140.7750   71.1420  228.3490 C   0  0  0  0  0  0  0  0  0  0  0  0
  141.0260   71.7690  227.1360 C   0  0  0  0  0  0  0  0  0  0  0  0
  140.4970   71.2510  225.9650 C   0  0  0  0  0  0  0  0  0  0  0  0
  140.7260   71.8450  224.7650 N   0  0  0  0  0  0  0  0  0  0  0  0
  141.0510   76.0660  222.0240 C   0  0  0  0  0  0  0  0  0  0  0  0
  140.7450   77.2180  222.7210 C   0  0  0  0  0  0  0  0  0  0  0  0
  140.8253   79.4641  224.1446 H   0  0  0  0  0  0  0  0  0  0  0  0
  141.4603   80.5014  222.8227 H   0  0  0  0  0  0  0  0  0  0  0  0
  139.7347   80.0025  222.8227 H   0  0  0  0  0  0  0  0  0  0  0  0
  142.1162   79.5402  220.7233 H   0  0  0  0  0  0  0  0  0  0  0  0
  142.7047   77.5172  219.4115 H   0  0  0  0  0  0  0  0  0  0  0  0
  141.4880   74.1230  220.4280 H   0  0  0  0  0  0  0  0  0  0  0  0
  142.6651   73.5294  217.5732 H   0  0  0  0  0  0  0  0  0  0  0  0
  145.0759   72.5890  217.7557 H   0  0  0  0  0  0  0  0  0  0  0  0
  145.2772   74.3039  217.8654 H   0  0  0  0  0  0  0  0  0  0  0  0
  145.3362   74.2356  220.3253 H   0  0  0  0  0  0  0  0  0  0  0  0
  146.1600   71.8820  220.7050 H   0  0  0  0  0  0  0  0  0  0  0  0
  144.2898   71.4869  220.6668 H   0  0  0  0  0  0  0  0  0  0  0  0
  143.6151   72.9891  221.3257 H   0  0  0  0  0  0  0  0  0  0  0  0
  140.5301   72.9791  220.0368 H   0  0  0  0  0  0  0  0  0  0  0  0
  139.8090   71.5915  219.1449 H   0  0  0  0  0  0  0  0  0  0  0  0
  140.0730   70.1970  221.1880 H   0  0  0  0  0  0  0  0  0  0  0  0
  139.0261   69.7983  222.7864 H   0  0  0  0  0  0  0  0  0  0  0  0
  138.5590   68.6615  224.9140 H   0  0  0  0  0  0  0  0  0  0  0  0
  138.8382   68.5555  227.2570 H   0  0  0  0  0  0  0  0  0  0  0  0
  139.7946   69.4967  229.3581 H   0  0  0  0  0  0  0  0  0  0  0  0
  141.1961   71.5553  229.2774 H   0  0  0  0  0  0  0  0  0  0  0  0
  141.6453   72.6776  227.1047 H   0  0  0  0  0  0  0  0  0  0  0  0
  140.7457   75.0775  222.3976 H   0  0  0  0  0  0  0  0  0  0  0  0
  140.1853   77.1295  223.6638 H   0  0  0  0  0  0  0  0  0  0  0  0
  1  2  1  0
  2  3  2  0
  3  4  1  0
  4  5  2  0
  5  6  1  0
  6  7  1  0
  7  8  2  0
  7  9  1  0
  9 10  1  0
 10 11  1  0
 11 12  1  0
 11 13  1  0
 13 14  1  0
 14 15  1  0
 15 16  2  0
 15 17  1  0
 17 18  1  0
 18 19  1  0
 19 20  2  0
 19 21  1  0
 21 22  2  0
 22 23  1  0
 23 24  2  0
 24 25  1  0
 25 26  2  0
 26 27  1  0
 27 28  2  0
 28 29  1  0
 29 30  2  0
  5 31  1  0
 31 32  2  0
 32  2  1  0
 14  9  1  0
 30 21  1  0
 29 24  1  0
  1 33  1  0
  1 34  1  0
  1 35  1  0
  3 36  1  0
  4 37  1  0
  6 38  1  0
  9 39  1  6
 10 40  1  0
 10 41  1  0
 11 42  1  1
 12 43  1  0
 13 44  1  0
 13 45  1  0
 17 46  1  0
 17 47  1  0
 18 48  1  0
 22 49  1  0
 23 50  1  0
 25 51  1  0
 26 52  1  0
 27 53  1  0
 28 54  1  0
 31 55  1  0
 32 56  1  0
M  END
>  <smiles>  (12) 
Cc1ccc(NC(=O)[C@H]2C[C@H](O)CN2C(=O)CNC(=O)c2ccc3ccccc3n2)cc1

>  <score_type>  (12) 
oracle

>  <origin>  (12) 
autodockgpu

>  <m_score__min__energy>  (12) 
-9.4600000000000009

>  <m_primary>  (12) 
energy

>  <rmsd>  (12) 
3.820297869106268

>  <m_score__min__rmsd>  (12) 
3.820297869106268

>  <meeko>  (12) 
{"free_energy": -8.79, "intermolecular_energy": -10.87, "internal_energy": -2.37, "cluster_size": 8, "cluster_id": 2, "rank_in_cluster": 1}

>  <energy>  (12) 
-8.19

>  <cluster_rmsd>  (12) 
1.28

>  <cluster>  (12) 
1

$$$$

     RDKit          3D

 56 59  0  0  0  0  0  0  0  0999 V2000
  138.9510   79.4500  223.6920 C   0  0  0  0  0  0  0  0  0  0  0  0
  139.5650   78.3410  222.9160 C   0  0  0  0  0  0  0  0  0  0  0  0
  140.8460   78.4270  222.4040 C   0  0  0  0  0  0  0  0  0  0  0  0
  141.4320   77.4010  221.6790 C   0  0  0  0  0  0  0  0  0  0  0  0
  140.6900   76.2570  221.4690 C   0  0  0  0  0  0  0  0  0  0  0  0
  141.2000   75.1380  220.7330 N   0  0  0  0  0  0  0  0  0  0  0  0
  142.0340   75.3130  219.5980 C   0  0  0  0  0  0  0  0  0  0  0  0
  142.3640   76.4530  219.1820 O   0  0  0  0  0  0  0  0  0  0  0  0
  142.5080   74.0680  218.9070 C   0  0  1  0  0  0  0  0  0  0  0  0
  144.0080   74.2770  218.7240 C   0  0  0  0  0  0  0  0  0  0  0  0
  144.4680   74.1510  220.1700 C   0  0  2  0  0  0  0  0  0  0  0  0
  145.7700   73.7070  220.2800 O   0  0  0  0  0  0  0  0  0  0  0  0
  143.5130   73.1510  220.7690 C   0  0  0  0  0  0  0  0  0  0  0  0
  142.4780   72.9250  219.7700 N   0  0  0  0  0  0  0  0  0  0  0  0
  141.6660   71.7620  219.7620 C   0  0  0  0  0  0  0  0  0  0  0  0
  142.1550   70.7140  219.2660 O   0  0  0  0  0  0  0  0  0  0  0  0
  140.2900   71.8260  220.3310 C   0  0  0  0  0  0  0  0  0  0  0  0
  140.2380   71.1050  221.5860 N   0  0  0  0  0  0  0  0  0  0  0  0
  140.4350   71.8560  222.7750 C   0  0  0  0  0  0  0  0  0  0  0  0
  140.6420   73.0980  222.7070 O   0  0  0  0  0  0  0  0  0  0  0  0
  140.3960   71.1980  224.0700 C   0  0  0  0  0  0  0  0  0  0  0  0
  140.7790   71.8790  225.2090 C   0  0  0  0  0  0  0  0  0  0  0  0
  140.7750   71.3380  226.4650 C   0  0  0  0  0  0  0  0  0  0  0  0
  140.3550   70.0200  226.5840 C   0  0  0  0  0  0  0  0  0  0  0  0
  140.3480   69.4680  227.8490 C   0  0  0  0  0  0  0  0  0  0  0  0
  139.9360   68.1580  227.9850 C   0  0  0  0  0  0  0  0  0  0  0  0
  139.5390   67.4250  226.8650 C   0  0  0  0  0  0  0  0  0  0  0  0
  139.5570   68.0100  225.6060 C   0  0  0  0  0  0  0  0  0  0  0  0
  139.9700   69.3240  225.4570 C   0  0  0  0  0  0  0  0  0  0  0  0
  139.9980   69.9200  224.2370 N   0  0  0  0  0  0  0  0  0  0  0  0
  139.4020   76.1180  221.9580 C   0  0  0  0  0  0  0  0  0  0  0  0
  138.8690   77.1720  222.6740 C   0  0  0  0  0  0  0  0  0  0  0  0
  139.0618   79.2499  224.7680 H   0  0  0  0  0  0  0  0  0  0  0  0
  139.4541   80.3955  223.4412 H   0  0  0  0  0  0  0  0  0  0  0  0
  137.8826   79.5254  223.4412 H   0  0  0  0  0  0  0  0  0  0  0  0
  141.4237   79.3466  222.5789 H   0  0  0  0  0  0  0  0  0  0  0  0
  142.4544   77.4958  221.2844 H   0  0  0  0  0  0  0  0  0  0  0  0
  140.9270   74.1750  221.0750 H   0  0  0  0  0  0  0  0  0  0  0  0
  141.8926   73.9074  218.0095 H   0  0  0  0  0  0  0  0  0  0  0  0
  144.4537   73.5011  218.0843 H   0  0  0  0  0  0  0  0  0  0  0  0
  144.2886   75.2177  218.2277 H   0  0  0  0  0  0  0  0  0  0  0  0
  144.4598   75.1255  220.6801 H   0  0  0  0  0  0  0  0  0  0  0  0
  146.3260   74.2760  219.6860 H   0  0  0  0  0  0  0  0  0  0  0  0
  144.0376   72.2105  220.9934 H   0  0  0  0  0  0  0  0  0  0  0  0
  143.0845   73.5224  221.7116 H   0  0  0  0  0  0  0  0  0  0  0  0
  140.0158   72.8772  220.5034 H   0  0  0  0  0  0  0  0  0  0  0  0
  139.5848   71.3675  219.6221 H   0  0  0  0  0  0  0  0  0  0  0  0
  140.0660   70.0740  221.6470 H   0  0  0  0  0  0  0  0  0  0  0  0
  141.1082   72.9228  225.0988 H   0  0  0  0  0  0  0  0  0  0  0  0
  141.0907   71.9214  227.3425 H   0  0  0  0  0  0  0  0  0  0  0  0
  140.6620   70.0558  228.7242 H   0  0  0  0  0  0  0  0  0  0  0  0
  139.9203   67.6893  228.9800 H   0  0  0  0  0  0  0  0  0  0  0  0
  139.2111   66.3814  226.9804 H   0  0  0  0  0  0  0  0  0  0  0  0
  139.2430   67.4296  224.7259 H   0  0  0  0  0  0  0  0  0  0  0  0
  138.8230   75.1994  221.7822 H   0  0  0  0  0  0  0  0  0  0  0  0
  137.8466   77.0768  223.0685 H   0  0  0  0  0  0  0  0  0  0  0  0
  1  2  1  0
  2  3  2  0
  3  4  1  0
  4  5  2  0
  5  6  1  0
  6  7  1  0
  7  8  2  0
  7  9  1  0
  9 10  1  0
 10 11  1  0
 11 12  1  0
 11 13  1  0
 13 14  1  0
 14 15  1  0
 15 16  2  0
 15 17  1  0
 17 18  1  0
 18 19  1  0
 19 20  2  0
 19 21  1  0
 21 22  2  0
 22 23  1  0
 23 24  2  0
 24 25  1  0
 25 26  2  0
 26 27  1  0
 27 28  2  0
 28 29  1  0
 29 30  2  0
  5 31  1  0
 31 32  2  0
 32  2  1  0
 14  9  1  0
 30 21  1  0
 29 24  1  0
  1 33  1  0
  1 34  1  0
  1 35  1  0
  3 36  1  0
  4 37  1  0
  6 38  1  0
  9 39  1  6
 10 40  1  0
 10 41  1  0
 11 42  1  1
 12 43  1  0
 13 44  1  0
 13 45  1  0
 17 46  1  0
 17 47  1  0
 18 48  1  0
 22 49  1  0
 23 50  1  0
 25 51  1  0
 26 52  1  0
 27 53  1  0
 28 54  1  0
 31 55  1  0
 32 56  1  0
M  END
>  <smiles>  (13) 
Cc1ccc(NC(=O)[C@H]2C[C@H](O)CN2C(=O)CNC(=O)c2ccc3ccccc3n2)cc1

>  <score_type>  (13) 
oracle

>  <origin>  (13) 
autodockgpu

>  <m_score__min__energy>  (13) 
-9.4600000000000009

>  <m_primary>  (13) 
energy

>  <rmsd>  (13) 
4.042363513564365

>  <m_score__min__rmsd>  (13) 
4.042363513564365

>  <meeko>  (13) 
{"free_energy": -8.23, "intermolecular_energy": -10.31, "internal_energy": -2.79, "cluster_size": 8, "cluster_id": 2, "rank_in_cluster": 5}

>  <energy>  (13) 
-8.14

>  <cluster_rmsd>  (13) 
1.7

>  <cluster>  (13) 
1

$$$$

     RDKit          3D

 56 59  0  0  0  0  0  0  0  0999 V2000
  140.8320   83.0630  220.7920 C   0  0  0  0  0  0  0  0  0  0  0  0
  140.8770   81.7010  220.1980 C   0  0  0  0  0  0  0  0  0  0  0  0
  142.0430   81.1650  219.6820 C   0  0  0  0  0  0  0  0  0  0  0  0
  142.1010   79.8980  219.1250 C   0  0  0  0  0  0  0  0  0  0  0  0
  140.9380   79.1550  219.0940 C   0  0  0  0  0  0  0  0  0  0  0  0
  140.8890   77.8340  218.5400 N   0  0  0  0  0  0  0  0  0  0  0  0
  141.6490   76.7700  219.0890 C   0  0  0  0  0  0  0  0  0  0  0  0
  142.4030   76.9310  220.0830 O   0  0  0  0  0  0  0  0  0  0  0  0
  141.5170   75.4300  218.4260 C   0  0  1  0  0  0  0  0  0  0  0  0
  142.2580   75.5810  217.1000 C   0  0  0  0  0  0  0  0  0  0  0  0
  143.6910   75.6540  217.6090 C   0  0  2  0  0  0  0  0  0  0  0  0
  144.6110   75.2050  216.6820 O   0  0  0  0  0  0  0  0  0  0  0  0
  143.6900   74.7690  218.8280 C   0  0  0  0  0  0  0  0  0  0  0  0
  142.2980   74.4230  219.0810 N   0  0  0  0  0  0  0  0  0  0  0  0
  141.9210   73.2870  219.8410 C   0  0  0  0  0  0  0  0  0  0  0  0
  142.1310   72.1520  219.3370 O   0  0  0  0  0  0  0  0  0  0  0  0
  141.3000   73.4780  221.1830 C   0  0  0  0  0  0  0  0  0  0  0  0
  141.4260   74.8600  221.5960 N   0  0  0  0  0  0  0  0  0  0  0  0
  140.2390   75.5310  221.9890 C   0  0  0  0  0  0  0  0  0  0  0  0
  139.1350   74.9210  221.9690 O   0  0  0  0  0  0  0  0  0  0  0  0
  140.2900   76.9200  222.4160 C   0  0  0  0  0  0  0  0  0  0  0  0
  139.1250   77.6130  222.6730 C   0  0  0  0  0  0  0  0  0  0  0  0
  139.0810   78.9190  223.0780 C   0  0  0  0  0  0  0  0  0  0  0  0
  140.2960   79.5730  223.2340 C   0  0  0  0  0  0  0  0  0  0  0  0
  140.2600   80.8910  223.6410 C   0  0  0  0  0  0  0  0  0  0  0  0
  141.4580   81.5560  223.8000 C   0  0  0  0  0  0  0  0  0  0  0  0
  142.6660   80.9010  223.5520 C   0  0  0  0  0  0  0  0  0  0  0  0
  142.6680   79.5740  223.1430 C   0  0  0  0  0  0  0  0  0  0  0  0
  141.4710   78.8960  222.9800 C   0  0  0  0  0  0  0  0  0  0  0  0
  141.4450   77.5980  222.5810 N   0  0  0  0  0  0  0  0  0  0  0  0
  139.7440   79.6430  219.5950 C   0  0  0  0  0  0  0  0  0  0  0  0
  139.7450   80.9130  220.1380 C   0  0  0  0  0  0  0  0  0  0  0  0
  140.8346   82.9848  221.8892 H   0  0  0  0  0  0  0  0  0  0  0  0
  141.7117   83.6357  220.4632 H   0  0  0  0  0  0  0  0  0  0  0  0
  139.9164   83.5764  220.4632 H   0  0  0  0  0  0  0  0  0  0  0  0
  142.9615   81.7693  219.7153 H   0  0  0  0  0  0  0  0  0  0  0  0
  143.0424   79.4973  218.7209 H   0  0  0  0  0  0  0  0  0  0  0  0
  140.2580   77.6890  217.7040 H   0  0  0  0  0  0  0  0  0  0  0  0
  140.4523   75.1550  218.3972 H   0  0  0  0  0  0  0  0  0  0  0  0
  142.1013   74.7129  216.4429 H   0  0  0  0  0  0  0  0  0  0  0  0
  141.9395   76.4351  216.4843 H   0  0  0  0  0  0  0  0  0  0  0  0
  143.9888   76.6915  217.8210 H   0  0  0  0  0  0  0  0  0  0  0  0
  145.4150   74.9100  217.1850 H   0  0  0  0  0  0  0  0  0  0  0  0
  144.2801   73.8601  218.6392 H   0  0  0  0  0  0  0  0  0  0  0  0
  144.1386   75.2795  219.6930 H   0  0  0  0  0  0  0  0  0  0  0  0
  140.2347   73.2087  221.1328 H   0  0  0  0  0  0  0  0  0  0  0  0
  141.8139   72.8352  221.9129 H   0  0  0  0  0  0  0  0  0  0  0  0
  142.3400   75.3700  221.6140 H   0  0  0  0  0  0  0  0  0  0  0  0
  138.1706   77.0815  222.5440 H   0  0  0  0  0  0  0  0  0  0  0  0
  138.1255   79.4285  223.2715 H   0  0  0  0  0  0  0  0  0  0  0  0
  139.3026   81.3973  223.8333 H   0  0  0  0  0  0  0  0  0  0  0  0
  141.4617   82.6073  224.1237 H   0  0  0  0  0  0  0  0  0  0  0  0
  143.6178   81.4372  223.6809 H   0  0  0  0  0  0  0  0  0  0  0  0
  143.6211   79.0606  222.9482 H   0  0  0  0  0  0  0  0  0  0  0  0
  138.8248   79.0397  219.5619 H   0  0  0  0  0  0  0  0  0  0  0  0
  138.8029   81.3140  220.5401 H   0  0  0  0  0  0  0  0  0  0  0  0
  1  2  1  0
  2  3  2  0
  3  4  1  0
  4  5  2  0
  5  6  1  0
  6  7  1  0
  7  8  2  0
  7  9  1  0
  9 10  1  0
 10 11  1  0
 11 12  1  0
 11 13  1  0
 13 14  1  0
 14 15  1  0
 15 16  2  0
 15 17  1  0
 17 18  1  0
 18 19  1  0
 19 20  2  0
 19 21  1  0
 21 22  2  0
 22 23  1  0
 23 24  2  0
 24 25  1  0
 25 26  2  0
 26 27  1  0
 27 28  2  0
 28 29  1  0
 29 30  2  0
  5 31  1  0
 31 32  2  0
 32  2  1  0
 14  9  1  0
 30 21  1  0
 29 24  1  0
  1 33  1  0
  1 34  1  0
  1 35  1  0
  3 36  1  0
  4 37  1  0
  6 38  1  0
  9 39  1  6
 10 40  1  0
 10 41  1  0
 11 42  1  1
 12 43  1  0
 13 44  1  0
 13 45  1  0
 17 46  1  0
 17 47  1  0
 18 48  1  0
 22 49  1  0
 23 50  1  0
 25 51  1  0
 26 52  1  0
 27 53  1  0
 28 54  1  0
 31 55  1  0
 32 56  1  0
M  END
>  <smiles>  (14) 
Cc1ccc(NC(=O)[C@H]2C[C@H](O)CN2C(=O)CNC(=O)c2ccc3ccccc3n2)cc1

>  <score_type>  (14) 
oracle

>  <origin>  (14) 
autodockgpu

>  <m_score__min__energy>  (14) 
-9.4600000000000009

>  <m_primary>  (14) 
energy

>  <rmsd>  (14) 
6.5805354786219725

>  <m_score__min__rmsd>  (14) 
6.5805354786219725

>  <meeko>  (14) 
{"free_energy": -6.29, "intermolecular_energy": -8.38, "internal_energy": -4.31, "cluster_size": 13, "cluster_id": 9, "rank_in_cluster": 8}

>  <energy>  (14) 
-8.13

>  <cluster_rmsd>  (14) 
1.48

>  <cluster>  (14) 
1

$$$$

     RDKit          3D

 56 59  0  0  0  0  0  0  0  0999 V2000
  139.9320   69.4590  228.2800 C   0  0  0  0  0  0  0  0  0  0  0  0
  140.1130   70.0320  226.9200 C   0  0  0  0  0  0  0  0  0  0  0  0
  139.5290   69.4640  225.8030 C   0  0  0  0  0  0  0  0  0  0  0  0
  139.6890   69.9870  224.5290 C   0  0  0  0  0  0  0  0  0  0  0  0
  140.4650   71.1200  224.3910 C   0  0  0  0  0  0  0  0  0  0  0  0
  140.6940   71.7400  223.1200 N   0  0  0  0  0  0  0  0  0  0  0  0
  139.6300   72.2870  222.3570 C   0  0  0  0  0  0  0  0  0  0  0  0
  138.4380   72.2540  222.7560 O   0  0  0  0  0  0  0  0  0  0  0  0
  139.9910   72.9120  221.0410 C   0  0  1  0  0  0  0  0  0  0  0  0
  139.0190   74.0780  220.8890 C   0  0  0  0  0  0  0  0  0  0  0  0
  139.5660   75.0150  221.9580 C   0  0  2  0  0  0  0  0  0  0  0  0
  139.3090   76.3440  221.6870 O   0  0  0  0  0  0  0  0  0  0  0  0
  141.0490   74.7480  221.9510 C   0  0  0  0  0  0  0  0  0  0  0  0
  141.2520   73.5900  221.0910 N   0  0  0  0  0  0  0  0  0  0  0  0
  142.5000   73.3000  220.4840 C   0  0  0  0  0  0  0  0  0  0  0  0
  143.1010   72.2570  220.8550 O   0  0  0  0  0  0  0  0  0  0  0  0
  143.0420   74.2240  219.4470 C   0  0  0  0  0  0  0  0  0  0  0  0
  143.0480   75.5820  219.9490 N   0  0  0  0  0  0  0  0  0  0  0  0
  141.8870   76.3660  219.7170 C   0  0  0  0  0  0  0  0  0  0  0  0
  140.9070   75.8690  219.0980 O   0  0  0  0  0  0  0  0  0  0  0  0
  141.8230   77.7380  220.1920 C   0  0  0  0  0  0  0  0  0  0  0  0
  141.9130   78.7880  219.3020 C   0  0  0  0  0  0  0  0  0  0  0  0
  141.8620   80.1070  219.6610 C   0  0  0  0  0  0  0  0  0  0  0  0
  141.7110   80.3880  221.0120 C   0  0  0  0  0  0  0  0  0  0  0  0
  141.6590   81.7160  221.3820 C   0  0  0  0  0  0  0  0  0  0  0  0
  141.5100   82.0140  222.7210 C   0  0  0  0  0  0  0  0  0  0  0  0
  141.4150   80.9870  223.6640 C   0  0  0  0  0  0  0  0  0  0  0  0
  141.4700   79.6610  223.2590 C   0  0  0  0  0  0  0  0  0  0  0  0
  141.6200   79.3510  221.9170 C   0  0  0  0  0  0  0  0  0  0  0  0
  141.6770   78.0610  221.4940 N   0  0  0  0  0  0  0  0  0  0  0  0
  141.0730   71.7280  225.4760 C   0  0  0  0  0  0  0  0  0  0  0  0
  140.8790   71.1630  226.7220 C   0  0  0  0  0  0  0  0  0  0  0  0
  140.1731   70.2223  229.0345 H   0  0  0  0  0  0  0  0  0  0  0  0
  138.8881   69.1359  228.4058 H   0  0  0  0  0  0  0  0  0  0  0  0
  140.6009   68.5949  228.4058 H   0  0  0  0  0  0  0  0  0  0  0  0
  138.9131   68.5615  225.9301 H   0  0  0  0  0  0  0  0  0  0  0  0
  139.2132   69.5146  223.6570 H   0  0  0  0  0  0  0  0  0  0  0  0
  141.6940   71.7720  222.7770 H   0  0  0  0  0  0  0  0  0  0  0  0
  139.9885   72.1299  220.2675 H   0  0  0  0  0  0  0  0  0  0  0  0
  139.0724   74.5266  219.8861 H   0  0  0  0  0  0  0  0  0  0  0  0
  137.9568   73.8150  221.0012 H   0  0  0  0  0  0  0  0  0  0  0  0
  139.0918   74.8310  222.9333 H   0  0  0  0  0  0  0  0  0  0  0  0
  140.0160   76.6590  221.0650 H   0  0  0  0  0  0  0  0  0  0  0  0
  141.5908   75.6183  221.5521 H   0  0  0  0  0  0  0  0  0  0  0  0
  141.4265   74.5622  222.9674 H   0  0  0  0  0  0  0  0  0  0  0  0
  144.0697   73.9247  219.1936 H   0  0  0  0  0  0  0  0  0  0  0  0
  142.4070   74.1731  218.5502 H   0  0  0  0  0  0  0  0  0  0  0  0
  143.8600   75.9980  220.4630 H   0  0  0  0  0  0  0  0  0  0  0  0
  142.0335   78.5493  218.2350 H   0  0  0  0  0  0  0  0  0  0  0  0
  141.9373   80.9094  218.9123 H   0  0  0  0  0  0  0  0  0  0  0  0
  141.7343   82.5154  220.6302 H   0  0  0  0  0  0  0  0  0  0  0  0
  141.4658   83.0636  223.0473 H   0  0  0  0  0  0  0  0  0  0  0  0
  141.2963   81.2305  224.7301 H   0  0  0  0  0  0  0  0  0  0  0  0
  141.3945   78.8553  224.0040 H   0  0  0  0  0  0  0  0  0  0  0  0
  141.6896   72.6302  225.3505 H   0  0  0  0  0  0  0  0  0  0  0  0
  141.3556   71.6350  227.5938 H   0  0  0  0  0  0  0  0  0  0  0  0
  1  2  1  0
  2  3  2  0
  3  4  1  0
  4  5  2  0
  5  6  1  0
  6  7  1  0
  7  8  2  0
  7  9  1  0
  9 10  1  0
 10 11  1  0
 11 12  1  0
 11 13  1  0
 13 14  1  0
 14 15  1  0
 15 16  2  0
 15 17  1  0
 17 18  1  0
 18 19  1  0
 19 20  2  0
 19 21  1  0
 21 22  2  0
 22 23  1  0
 23 24  2  0
 24 25  1  0
 25 26  2  0
 26 27  1  0
 27 28  2  0
 28 29  1  0
 29 30  2  0
  5 31  1  0
 31 32  2  0
 32  2  1  0
 14  9  1  0
 30 21  1  0
 29 24  1  0
  1 33  1  0
  1 34  1  0
  1 35  1  0
  3 36  1  0
  4 37  1  0
  6 38  1  0
  9 39  1  6
 10 40  1  0
 10 41  1  0
 11 42  1  1
 12 43  1  0
 13 44  1  0
 13 45  1  0
 17 46  1  0
 17 47  1  0
 18 48  1  0
 22 49  1  0
 23 50  1  0
 25 51  1  0
 26 52  1  0
 27 53  1  0
 28 54  1  0
 31 55  1  0
 32 56  1  0
M  END
>  <smiles>  (15) 
Cc1ccc(NC(=O)[C@H]2C[C@H](O)CN2C(=O)CNC(=O)c2ccc3ccccc3n2)cc1

>  <score_type>  (15) 
oracle

>  <origin>  (15) 
autodockgpu

>  <m_score__min__energy>  (15) 
-9.4600000000000009

>  <m_primary>  (15) 
energy

>  <rmsd>  (15) 
9.023657094383505

>  <m_score__min__rmsd>  (15) 
9.023657094383505

>  <meeko>  (15) 
{"free_energy": -7.21, "intermolecular_energy": -9.3, "internal_energy": -3.24, "cluster_size": 5, "cluster_id": 7, "rank_in_cluster": 5}

>  <energy>  (15) 
-8.02

>  <cluster_rmsd>  (15) 
1.62

>  <cluster>  (15) 
1

$$$$

     RDKit          3D

 56 59  0  0  0  0  0  0  0  0999 V2000
  141.0770   82.9730  220.3830 C   0  0  0  0  0  0  0  0  0  0  0  0
  141.0980   81.5850  219.8500 C   0  0  0  0  0  0  0  0  0  0  0  0
  142.1620   81.1000  219.1130 C   0  0  0  0  0  0  0  0  0  0  0  0
  142.1960   79.8090  218.6100 C   0  0  0  0  0  0  0  0  0  0  0  0
  141.1150   78.9900  218.8660 C   0  0  0  0  0  0  0  0  0  0  0  0
  141.0500   77.6390  218.3930 N   0  0  0  0  0  0  0  0  0  0  0  0
  141.7690   76.5930  219.0270 C   0  0  0  0  0  0  0  0  0  0  0  0
  142.4980   76.7980  220.0310 O   0  0  0  0  0  0  0  0  0  0  0  0
  141.6230   75.2180  218.4430 C   0  0  1  0  0  0  0  0  0  0  0  0
  142.3150   75.3010  217.0860 C   0  0  0  0  0  0  0  0  0  0  0  0
  143.7650   75.4100  217.5380 C   0  0  2  0  0  0  0  0  0  0  0  0
  144.6550   74.9160  216.6050 O   0  0  0  0  0  0  0  0  0  0  0  0
  143.8140   74.5920  218.8030 C   0  0  0  0  0  0  0  0  0  0  0  0
  142.4340   74.2530  219.1230 N   0  0  0  0  0  0  0  0  0  0  0  0
  142.0920   73.1580  219.9570 C   0  0  0  0  0  0  0  0  0  0  0  0
  142.4760   72.0130  219.6020 O   0  0  0  0  0  0  0  0  0  0  0  0
  141.3040   73.4020  221.1990 C   0  0  0  0  0  0  0  0  0  0  0  0
  141.4250   74.7890  221.5990 N   0  0  0  0  0  0  0  0  0  0  0  0
  140.2320   75.4660  221.9650 C   0  0  0  0  0  0  0  0  0  0  0  0
  139.1290   74.8560  221.9340 O   0  0  0  0  0  0  0  0  0  0  0  0
  140.2790   76.8590  222.3770 C   0  0  0  0  0  0  0  0  0  0  0  0
  139.1110   77.5470  222.6370 C   0  0  0  0  0  0  0  0  0  0  0  0
  139.0620   78.8570  223.0290 C   0  0  0  0  0  0  0  0  0  0  0  0
  140.2740   79.5200  223.1680 C   0  0  0  0  0  0  0  0  0  0  0  0
  140.2330   80.8420  223.5620 C   0  0  0  0  0  0  0  0  0  0  0  0
  141.4280   81.5170  223.7040 C   0  0  0  0  0  0  0  0  0  0  0  0
  142.6380   80.8660  223.4530 C   0  0  0  0  0  0  0  0  0  0  0  0
  142.6450   79.5350  223.0580 C   0  0  0  0  0  0  0  0  0  0  0  0
  141.4510   78.8480  222.9120 C   0  0  0  0  0  0  0  0  0  0  0  0
  141.4300   77.5460  222.5260 N   0  0  0  0  0  0  0  0  0  0  0  0
  140.0240   79.4250  219.5990 C   0  0  0  0  0  0  0  0  0  0  0  0
  140.0450   80.7210  220.0750 C   0  0  0  0  0  0  0  0  0  0  0  0
  141.0774   82.9436  221.4826 H   0  0  0  0  0  0  0  0  0  0  0  0
  141.9670   83.5147  220.0303 H   0  0  0  0  0  0  0  0  0  0  0  0
  140.1710   83.4875  220.0303 H   0  0  0  0  0  0  0  0  0  0  0  0
  143.0160   81.7653  218.9179 H   0  0  0  0  0  0  0  0  0  0  0  0
  143.0560   79.4491  218.0261 H   0  0  0  0  0  0  0  0  0  0  0  0
  140.4390   77.4570  217.5490 H   0  0  0  0  0  0  0  0  0  0  0  0
  140.5601   74.9357  218.4674 H   0  0  0  0  0  0  0  0  0  0  0  0
  142.1417   74.3975  216.4829 H   0  0  0  0  0  0  0  0  0  0  0  0
  141.9682   76.1187  216.4371 H   0  0  0  0  0  0  0  0  0  0  0  0
  144.0621   76.4593  217.6818 H   0  0  0  0  0  0  0  0  0  0  0  0
  145.5570   75.2470  216.8550 H   0  0  0  0  0  0  0  0  0  0  0  0
  144.4038   73.6774  218.6428 H   0  0  0  0  0  0  0  0  0  0  0  0
  144.2894   75.1506  219.6227 H   0  0  0  0  0  0  0  0  0  0  0  0
  140.2457   73.1684  221.0106 H   0  0  0  0  0  0  0  0  0  0  0  0
  141.6908   72.7595  222.0037 H   0  0  0  0  0  0  0  0  0  0  0  0
  142.3400   75.2980  221.6270 H   0  0  0  0  0  0  0  0  0  0  0  0
  138.1591   77.0079  222.5217 H   0  0  0  0  0  0  0  0  0  0  0  0
  138.1049   79.3624  223.2253 H   0  0  0  0  0  0  0  0  0  0  0  0
  139.2739   81.3439  223.7575 H   0  0  0  0  0  0  0  0  0  0  0  0
  141.4277   82.5718  224.0160 H   0  0  0  0  0  0  0  0  0  0  0  0
  143.5876   81.4091  223.5686 H   0  0  0  0  0  0  0  0  0  0  0  0
  143.5997   79.0255  222.8608 H   0  0  0  0  0  0  0  0  0  0  0  0
  139.1695   78.7608  219.7955 H   0  0  0  0  0  0  0  0  0  0  0  0
  139.1851   81.0808  220.6590 H   0  0  0  0  0  0  0  0  0  0  0  0
  1  2  1  0
  2  3  2  0
  3  4  1  0
  4  5  2  0
  5  6  1  0
  6  7  1  0
  7  8  2  0
  7  9  1  0
  9 10  1  0
 10 11  1  0
 11 12  1  0
 11 13  1  0
 13 14  1  0
 14 15  1  0
 15 16  2  0
 15 17  1  0
 17 18  1  0
 18 19  1  0
 19 20  2  0
 19 21  1  0
 21 22  2  0
 22 23  1  0
 23 24  2  0
 24 25  1  0
 25 26  2  0
 26 27  1  0
 27 28  2  0
 28 29  1  0
 29 30  2  0
  5 31  1  0
 31 32  2  0
 32  2  1  0
 14  9  1  0
 30 21  1  0
 29 24  1  0
  1 33  1  0
  1 34  1  0
  1 35  1  0
  3 36  1  0
  4 37  1  0
  6 38  1  0
  9 39  1  6
 10 40  1  0
 10 41  1  0
 11 42  1  1
 12 43  1  0
 13 44  1  0
 13 45  1  0
 17 46  1  0
 17 47  1  0
 18 48  1  0
 22 49  1  0
 23 50  1  0
 25 51  1  0
 26 52  1  0
 27 53  1  0
 28 54  1  0
 31 55  1  0
 32 56  1  0
M  END
>  <smiles>  (16) 
Cc1ccc(NC(=O)[C@H]2C[C@H](O)CN2C(=O)CNC(=O)c2ccc3ccccc3n2)cc1

>  <score_type>  (16) 
oracle

>  <origin>  (16) 
autodockgpu

>  <m_score__min__energy>  (16) 
-9.4600000000000009

>  <m_primary>  (16) 
energy

>  <rmsd>  (16) 
6.594395272074222

>  <m_score__min__rmsd>  (16) 
6.594395272074222

>  <meeko>  (16) 
{"free_energy": -6.4, "intermolecular_energy": -8.49, "internal_energy": -4.18, "cluster_size": 13, "cluster_id": 9, "rank_in_cluster": 6}

>  <energy>  (16) 
-7.94

>  <cluster_rmsd>  (16) 
1.62

>  <cluster>  (16) 
1

$$$$

     RDKit          3D

 56 59  0  0  0  0  0  0  0  0999 V2000
  140.4930   80.3320  222.9980 C   0  0  0  0  0  0  0  0  0  0  0  0
  140.8360   79.0400  222.3460 C   0  0  0  0  0  0  0  0  0  0  0  0
  140.7230   77.8330  223.0100 C   0  0  0  0  0  0  0  0  0  0  0  0
  141.0380   76.6210  222.4160 C   0  0  0  0  0  0  0  0  0  0  0  0
  141.4810   76.6410  221.1090 C   0  0  0  0  0  0  0  0  0  0  0  0
  141.8340   75.4460  220.4020 N   0  0  0  0  0  0  0  0  0  0  0  0
  143.0090   75.3690  219.6110 C   0  0  0  0  0  0  0  0  0  0  0  0
  143.7970   76.3420  219.4910 O   0  0  0  0  0  0  0  0  0  0  0  0
  143.2750   74.0660  218.9160 C   0  0  1  0  0  0  0  0  0  0  0  0
  144.7570   73.7940  219.1610 C   0  0  0  0  0  0  0  0  0  0  0  0
  144.7210   73.4730  220.6490 C   0  0  2  0  0  0  0  0  0  0  0  0
  145.7450   72.6340  221.0400 O   0  0  0  0  0  0  0  0  0  0  0  0
  143.3840   72.8060  220.8450 C   0  0  0  0  0  0  0  0  0  0  0  0
  142.6620   72.9590  219.5890 N   0  0  0  0  0  0  0  0  0  0  0  0
  141.5840   72.1160  219.2210 C   0  0  0  0  0  0  0  0  0  0  0  0
  141.8060   71.2290  218.3550 O   0  0  0  0  0  0  0  0  0  0  0  0
  140.2520   72.3080  219.8630 C   0  0  0  0  0  0  0  0  0  0  0  0
  140.1770   71.5420  221.0900 N   0  0  0  0  0  0  0  0  0  0  0  0
  140.2410   72.2630  222.3110 C   0  0  0  0  0  0  0  0  0  0  0  0
  140.3570   73.5190  222.2940 O   0  0  0  0  0  0  0  0  0  0  0  0
  140.1720   71.5600  223.5810 C   0  0  0  0  0  0  0  0  0  0  0  0
  139.5410   70.3350  223.6660 C   0  0  0  0  0  0  0  0  0  0  0  0
  139.4290   69.6060  224.8180 C   0  0  0  0  0  0  0  0  0  0  0  0
  139.9930   70.1480  225.9650 C   0  0  0  0  0  0  0  0  0  0  0  0
  139.8840   69.4190  227.1310 C   0  0  0  0  0  0  0  0  0  0  0  0
  140.4380   69.9430  228.2810 C   0  0  0  0  0  0  0  0  0  0  0  0
  141.0870   71.1790  228.2500 C   0  0  0  0  0  0  0  0  0  0  0  0
  141.1790   71.8880  227.0600 C   0  0  0  0  0  0  0  0  0  0  0  0
  140.6270   71.3720  225.8990 C   0  0  0  0  0  0  0  0  0  0  0  0
  140.7030   72.0450  224.7220 N   0  0  0  0  0  0  0  0  0  0  0  0
  141.6130   77.8220  220.3990 C   0  0  0  0  0  0  0  0  0  0  0  0
  141.2840   78.9990  221.0410 C   0  0  0  0  0  0  0  0  0  0  0  0
  140.5251   80.2111  224.0909 H   0  0  0  0  0  0  0  0  0  0  0  0
  141.2182   81.1007  222.6927 H   0  0  0  0  0  0  0  0  0  0  0  0
  139.4820   80.6398  222.6927 H   0  0  0  0  0  0  0  0  0  0  0  0
  140.3690   77.8344  224.0515 H   0  0  0  0  0  0  0  0  0  0  0  0
  140.9382   75.6747  222.9679 H   0  0  0  0  0  0  0  0  0  0  0  0
  141.1770   74.6220  220.4970 H   0  0  0  0  0  0  0  0  0  0  0  0
  142.9268   74.1442  217.8755 H   0  0  0  0  0  0  0  0  0  0  0  0
  145.1197   72.9417  218.5676 H   0  0  0  0  0  0  0  0  0  0  0  0
  145.4328   74.6149  218.8790 H   0  0  0  0  0  0  0  0  0  0  0  0
  144.8524   74.3796  221.2579 H   0  0  0  0  0  0  0  0  0  0  0  0
  145.3470   71.9360  221.6220 H   0  0  0  0  0  0  0  0  0  0  0  0
  143.5209   71.7397  221.0780 H   0  0  0  0  0  0  0  0  0  0  0  0
  142.8308   73.2580  221.6815 H   0  0  0  0  0  0  0  0  0  0  0  0
  140.1078   73.3746  220.0903 H   0  0  0  0  0  0  0  0  0  0  0  0
  139.4667   71.9632  219.1742 H   0  0  0  0  0  0  0  0  0  0  0  0
  140.0810   70.5000  221.1080 H   0  0  0  0  0  0  0  0  0  0  0  0
  139.1000   69.9184  222.7484 H   0  0  0  0  0  0  0  0  0  0  0  0
  138.9150   68.6336  224.8349 H   0  0  0  0  0  0  0  0  0  0  0  0
  139.3696   68.4468  227.1437 H   0  0  0  0  0  0  0  0  0  0  0  0
  140.3681   69.3847  229.2262 H   0  0  0  0  0  0  0  0  0  0  0  0
  141.5262   71.5917  229.1702 H   0  0  0  0  0  0  0  0  0  0  0  0
  141.6911   72.8613  227.0390 H   0  0  0  0  0  0  0  0  0  0  0  0
  141.9682   77.8226  219.3579 H   0  0  0  0  0  0  0  0  0  0  0  0
  141.3831   79.9451  220.4887 H   0  0  0  0  0  0  0  0  0  0  0  0
  1  2  1  0
  2  3  2  0
  3  4  1  0
  4  5  2  0
  5  6  1  0
  6  7  1  0
  7  8  2  0
  7  9  1  0
  9 10  1  0
 10 11  1  0
 11 12  1  0
 11 13  1  0
 13 14  1  0
 14 15  1  0
 15 16  2  0
 15 17  1  0
 17 18  1  0
 18 19  1  0
 19 20  2  0
 19 21  1  0
 21 22  2  0
 22 23  1  0
 23 24  2  0
 24 25  1  0
 25 26  2  0
 26 27  1  0
 27 28  2  0
 28 29  1  0
 29 30  2  0
  5 31  1  0
 31 32  2  0
 32  2  1  0
 14  9  1  0
 30 21  1  0
 29 24  1  0
  1 33  1  0
  1 34  1  0
  1 35  1  0
  3 36  1  0
  4 37  1  0
  6 38  1  0
  9 39  1  6
 10 40  1  0
 10 41  1  0
 11 42  1  1
 12 43  1  0
 13 44  1  0
 13 45  1  0
 17 46  1  0
 17 47  1  0
 18 48  1  0
 22 49  1  0
 23 50  1  0
 25 51  1  0
 26 52  1  0
 27 53  1  0
 28 54  1  0
 31 55  1  0
 32 56  1  0
M  END
>  <smiles>  (17) 
Cc1ccc(NC(=O)[C@H]2C[C@H](O)CN2C(=O)CNC(=O)c2ccc3ccccc3n2)cc1

>  <score_type>  (17) 
oracle

>  <origin>  (17) 
autodockgpu

>  <m_score__min__energy>  (17) 
-9.4600000000000009

>  <m_primary>  (17) 
energy

>  <rmsd>  (17) 
3.6531367409275513

>  <m_score__min__rmsd>  (17) 
3.6531367409275513

>  <meeko>  (17) 
{"free_energy": -8.65, "intermolecular_energy": -10.74, "internal_energy": -2.44, "cluster_size": 8, "cluster_id": 2, "rank_in_cluster": 3}

>  <energy>  (17) 
-8.79

>  <cluster_rmsd>  (17) 
0.0

>  <cluster>  (17) 
2

$$$$

     RDKit          3D

 56 59  0  0  0  0  0  0  0  0999 V2000
  140.7180   80.2610  223.1520 C   0  0  0  0  0  0  0  0  0  0  0  0
  140.9800   78.9970  222.4140 C   0  0  0  0  0  0  0  0  0  0  0  0
  141.4440   78.9920  221.1120 C   0  0  0  0  0  0  0  0  0  0  0  0
  141.6920   77.8220  220.4120 C   0  0  0  0  0  0  0  0  0  0  0  0
  141.4620   76.6240  221.0570 C   0  0  0  0  0  0  0  0  0  0  0  0
  141.6860   75.3580  220.4250 N   0  0  0  0  0  0  0  0  0  0  0  0
  142.6700   75.1950  219.4160 C   0  0  0  0  0  0  0  0  0  0  0  0
  143.3900   76.1500  219.0260 O   0  0  0  0  0  0  0  0  0  0  0  0
  142.8150   73.8230  218.8250 C   0  0  1  0  0  0  0  0  0  0  0  0
  144.2530   73.4200  219.1370 C   0  0  0  0  0  0  0  0  0  0  0  0
  144.1470   73.2160  220.6420 C   0  0  2  0  0  0  0  0  0  0  0  0
  145.0680   72.3080  221.1250 O   0  0  0  0  0  0  0  0  0  0  0  0
  142.7430   72.7070  220.8420 C   0  0  0  0  0  0  0  0  0  0  0  0
  142.0730   72.8390  219.5560 N   0  0  0  0  0  0  0  0  0  0  0  0
  140.9220   72.0860  219.2140 C   0  0  0  0  0  0  0  0  0  0  0  0
  141.0020   71.3170  218.2200 O   0  0  0  0  0  0  0  0  0  0  0  0
  139.6830   72.2310  220.0310 C   0  0  0  0  0  0  0  0  0  0  0  0
  139.7790   71.4200  221.2270 N   0  0  0  0  0  0  0  0  0  0  0  0
  140.0750   72.0890  222.4430 C   0  0  0  0  0  0  0  0  0  0  0  0
  140.2390   73.3390  222.4490 O   0  0  0  0  0  0  0  0  0  0  0  0
  140.1870   71.3380  223.6830 C   0  0  0  0  0  0  0  0  0  0  0  0
  140.7730   71.9110  224.7930 C   0  0  0  0  0  0  0  0  0  0  0  0
  140.9200   71.2780  225.9970 C   0  0  0  0  0  0  0  0  0  0  0  0
  140.4430   69.9770  226.0890 C   0  0  0  0  0  0  0  0  0  0  0  0
  140.5880   69.3320  227.3010 C   0  0  0  0  0  0  0  0  0  0  0  0
  140.1200   68.0390  227.4100 C   0  0  0  0  0  0  0  0  0  0  0  0
  139.5190   67.4130  226.3150 C   0  0  0  0  0  0  0  0  0  0  0  0
  139.3880   68.0900  225.1100 C   0  0  0  0  0  0  0  0  0  0  0  0
  139.8540   69.3890  224.9890 C   0  0  0  0  0  0  0  0  0  0  0  0
  139.7390   70.0730  223.8210 N   0  0  0  0  0  0  0  0  0  0  0  0
  140.9970   76.5720  222.3600 C   0  0  0  0  0  0  0  0  0  0  0  0
  140.7670   77.7690  223.0090 C   0  0  0  0  0  0  0  0  0  0  0  0
  140.7579   80.0687  224.2343 H   0  0  0  0  0  0  0  0  0  0  0  0
  141.4806   81.0070  222.8838 H   0  0  0  0  0  0  0  0  0  0  0  0
  139.7217   80.6424  222.8838 H   0  0  0  0  0  0  0  0  0  0  0  0
  141.6235   79.9550  220.6116 H   0  0  0  0  0  0  0  0  0  0  0  0
  142.0603   77.8475  219.3758 H   0  0  0  0  0  0  0  0  0  0  0  0
  141.0840   74.5500  220.7460 H   0  0  0  0  0  0  0  0  0  0  0  0
  142.5029   73.8580  217.7708 H   0  0  0  0  0  0  0  0  0  0  0  0
  144.5394   72.4933  218.6182 H   0  0  0  0  0  0  0  0  0  0  0  0
  145.0175   74.1443  218.8193 H   0  0  0  0  0  0  0  0  0  0  0  0
  144.3578   74.1470  221.1887 H   0  0  0  0  0  0  0  0  0  0  0  0
  144.5570   71.5690  221.5480 H   0  0  0  0  0  0  0  0  0  0  0  0
  142.7612   71.6528  221.1555 H   0  0  0  0  0  0  0  0  0  0  0  0
  142.2198   73.2749  221.6254 H   0  0  0  0  0  0  0  0  0  0  0  0
  139.5561   73.2859  220.3157 H   0  0  0  0  0  0  0  0  0  0  0  0
  138.8189   71.8975  219.4377 H   0  0  0  0  0  0  0  0  0  0  0  0
  139.6430   70.3820  221.2260 H   0  0  0  0  0  0  0  0  0  0  0  0
  141.1456   72.9422  224.7043 H   0  0  0  0  0  0  0  0  0  0  0  0
  141.3950   71.7775  226.8542 H   0  0  0  0  0  0  0  0  0  0  0  0
  141.0635   69.8351  228.1559 H   0  0  0  0  0  0  0  0  0  0  0  0
  140.2204   67.4986  228.3628 H   0  0  0  0  0  0  0  0  0  0  0  0
  139.1488   66.3814  226.4079 H   0  0  0  0  0  0  0  0  0  0  0  0
  138.9136   67.5943  224.2502 H   0  0  0  0  0  0  0  0  0  0  0  0
  140.8168   75.6096  222.8614 H   0  0  0  0  0  0  0  0  0  0  0  0
  140.3981   77.7433  224.0450 H   0  0  0  0  0  0  0  0  0  0  0  0
  1  2  1  0
  2  3  2  0
  3  4  1  0
  4  5  2  0
  5  6  1  0
  6  7  1  0
  7  8  2  0
  7  9  1  0
  9 10  1  0
 10 11  1  0
 11 12  1  0
 11 13  1  0
 13 14  1  0
 14 15  1  0
 15 16  2  0
 15 17  1  0
 17 18  1  0
 18 19  1  0
 19 20  2  0
 19 21  1  0
 21 22  2  0
 22 23  1  0
 23 24  2  0
 24 25  1  0
 25 26  2  0
 26 27  1  0
 27 28  2  0
 28 29  1  0
 29 30  2  0
  5 31  1  0
 31 32  2  0
 32  2  1  0
 14  9  1  0
 30 21  1  0
 29 24  1  0
  1 33  1  0
  1 34  1  0
  1 35  1  0
  3 36  1  0
  4 37  1  0
  6 38  1  0
  9 39  1  6
 10 40  1  0
 10 41  1  0
 11 42  1  1
 12 43  1  0
 13 44  1  0
 13 45  1  0
 17 46  1  0
 17 47  1  0
 18 48  1  0
 22 49  1  0
 23 50  1  0
 25 51  1  0
 26 52  1  0
 27 53  1  0
 28 54  1  0
 31 55  1  0
 32 56  1  0
M  END
>  <smiles>  (18) 
Cc1ccc(NC(=O)[C@H]2C[C@H](O)CN2C(=O)CNC(=O)c2ccc3ccccc3n2)cc1

>  <score_type>  (18) 
oracle

>  <origin>  (18) 
autodockgpu

>  <m_score__min__energy>  (18) 
-9.4600000000000009

>  <m_primary>  (18) 
energy

>  <rmsd>  (18) 
3.9226493113058973

>  <m_score__min__rmsd>  (18) 
3.9226493113058973

>  <meeko>  (18) 
{"free_energy": -7.79, "intermolecular_energy": -9.88, "internal_energy": -2.54, "cluster_size": 8, "cluster_id": 2, "rank_in_cluster": 8}

>  <energy>  (18) 
-8.77

>  <cluster_rmsd>  (18) 
0.44

>  <cluster>  (18) 
2

$$$$

     RDKit          3D

 56 59  0  0  0  0  0  0  0  0999 V2000
  139.9510   69.2500  228.3950 C   0  0  0  0  0  0  0  0  0  0  0  0
  140.1710   69.8980  227.0740 C   0  0  0  0  0  0  0  0  0  0  0  0
  140.8130   71.1160  226.9540 C   0  0  0  0  0  0  0  0  0  0  0  0
  141.0250   71.7320  225.7310 C   0  0  0  0  0  0  0  0  0  0  0  0
  140.5700   71.0870  224.5990 C   0  0  0  0  0  0  0  0  0  0  0  0
  140.7370   71.6360  223.2860 N   0  0  0  0  0  0  0  0  0  0  0  0
  139.6270   72.0530  222.5070 C   0  0  0  0  0  0  0  0  0  0  0  0
  138.4450   71.9610  222.9270 O   0  0  0  0  0  0  0  0  0  0  0  0
  139.9250   72.6120  221.1460 C   0  0  1  0  0  0  0  0  0  0  0  0
  138.8150   73.6290  220.8970 C   0  0  0  0  0  0  0  0  0  0  0  0
  139.2230   74.7100  221.8900 C   0  0  2  0  0  0  0  0  0  0  0  0
  138.8030   75.9700  221.5120 O   0  0  0  0  0  0  0  0  0  0  0  0
  140.7280   74.6350  221.9110 C   0  0  0  0  0  0  0  0  0  0  0  0
  141.0890   73.4480  221.1480 N   0  0  0  0  0  0  0  0  0  0  0  0
  142.3720   73.2720  220.5720 C   0  0  0  0  0  0  0  0  0  0  0  0
  143.0710   72.3120  220.9880 O   0  0  0  0  0  0  0  0  0  0  0  0
  142.8350   74.2160  219.5140 C   0  0  0  0  0  0  0  0  0  0  0  0
  142.9040   75.5610  220.0450 N   0  0  0  0  0  0  0  0  0  0  0  0
  141.8000   76.4170  219.7920 C   0  0  0  0  0  0  0  0  0  0  0  0
  140.8150   75.9930  219.1290 O   0  0  0  0  0  0  0  0  0  0  0  0
  141.8010   77.7810  220.2950 C   0  0  0  0  0  0  0  0  0  0  0  0
  141.7890   78.8470  219.4190 C   0  0  0  0  0  0  0  0  0  0  0  0
  141.7890   80.1590  219.8040 C   0  0  0  0  0  0  0  0  0  0  0  0
  141.8030   80.4170  221.1690 C   0  0  0  0  0  0  0  0  0  0  0  0
  141.8030   81.7380  221.5650 C   0  0  0  0  0  0  0  0  0  0  0  0
  141.8180   82.0120  222.9170 C   0  0  0  0  0  0  0  0  0  0  0  0
  141.8310   80.9690  223.8470 C   0  0  0  0  0  0  0  0  0  0  0  0
  141.8300   79.6500  223.4150 C   0  0  0  0  0  0  0  0  0  0  0  0
  141.8150   79.3630  222.0600 C   0  0  0  0  0  0  0  0  0  0  0  0
  141.8150   78.0810  221.6100 N   0  0  0  0  0  0  0  0  0  0  0  0
  139.9200   69.8670  224.6620 C   0  0  0  0  0  0  0  0  0  0  0  0
  139.7370   69.2990  225.9080 C   0  0  0  0  0  0  0  0  0  0  0  0
  140.1928   69.9623  229.1976 H   0  0  0  0  0  0  0  0  0  0  0  0
  138.8983   68.9430  228.4821 H   0  0  0  0  0  0  0  0  0  0  0  0
  140.5992   68.3656  228.4821 H   0  0  0  0  0  0  0  0  0  0  0  0
  141.1701   71.6166  227.8661 H   0  0  0  0  0  0  0  0  0  0  0  0
  141.5386   72.7024  225.6647 H   0  0  0  0  0  0  0  0  0  0  0  0
  141.7280   71.7170  222.9240 H   0  0  0  0  0  0  0  0  0  0  0  0
  140.0332   71.7774  220.4376 H   0  0  0  0  0  0  0  0  0  0  0  0
  138.8255   74.0002  219.8616 H   0  0  0  0  0  0  0  0  0  0  0  0
  137.7933   73.2421  221.0255 H   0  0  0  0  0  0  0  0  0  0  0  0
  138.7620   74.5445  222.8749 H   0  0  0  0  0  0  0  0  0  0  0  0
  139.3470   76.2360  220.7250 H   0  0  0  0  0  0  0  0  0  0  0  0
  141.1606   75.5330  221.4457 H   0  0  0  0  0  0  0  0  0  0  0  0
  141.1112   74.5802  222.9406 H   0  0  0  0  0  0  0  0  0  0  0  0
  143.8325   73.9108  219.1649 H   0  0  0  0  0  0  0  0  0  0  0  0
  142.1233   74.1953  218.6756 H   0  0  0  0  0  0  0  0  0  0  0  0
  143.7200   75.9170  220.5960 H   0  0  0  0  0  0  0  0  0  0  0  0
  141.7788   78.6271  218.3413 H   0  0  0  0  0  0  0  0  0  0  0  0
  141.7784   80.9742  219.0655 H   0  0  0  0  0  0  0  0  0  0  0  0
  141.7914   82.5505  220.8236 H   0  0  0  0  0  0  0  0  0  0  0  0
  141.8197   83.0557  223.2644 H   0  0  0  0  0  0  0  0  0  0  0  0
  141.8420   81.1939  224.9237 H   0  0  0  0  0  0  0  0  0  0  0  0
  141.8411   78.8314  224.1497 H   0  0  0  0  0  0  0  0  0  0  0  0
  139.5611   69.3663  223.7507 H   0  0  0  0  0  0  0  0  0  0  0  0
  139.2237   68.3283  225.9740 H   0  0  0  0  0  0  0  0  0  0  0  0
  1  2  1  0
  2  3  2  0
  3  4  1  0
  4  5  2  0
  5  6  1  0
  6  7  1  0
  7  8  2  0
  7  9  1  0
  9 10  1  0
 10 11  1  0
 11 12  1  0
 11 13  1  0
 13 14  1  0
 14 15  1  0
 15 16  2  0
 15 17  1  0
 17 18  1  0
 18 19  1  0
 19 20  2  0
 19 21  1  0
 21 22  2  0
 22 23  1  0
 23 24  2  0
 24 25  1  0
 25 26  2  0
 26 27  1  0
 27 28  2  0
 28 29  1  0
 29 30  2  0
  5 31  1  0
 31 32  2  0
 32  2  1  0
 14  9  1  0
 30 21  1  0
 29 24  1  0
  1 33  1  0
  1 34  1  0
  1 35  1  0
  3 36  1  0
  4 37  1  0
  6 38  1  0
  9 39  1  6
 10 40  1  0
 10 41  1  0
 11 42  1  1
 12 43  1  0
 13 44  1  0
 13 45  1  0
 17 46  1  0
 17 47  1  0
 18 48  1  0
 22 49  1  0
 23 50  1  0
 25 51  1  0
 26 52  1  0
 27 53  1  0
 28 54  1  0
 31 55  1  0
 32 56  1  0
M  END
>  <smiles>  (19) 
Cc1ccc(NC(=O)[C@H]2C[C@H](O)CN2C(=O)CNC(=O)c2ccc3ccccc3n2)cc1

>  <score_type>  (19) 
oracle

>  <origin>  (19) 
autodockgpu

>  <m_score__min__energy>  (19) 
-9.4600000000000009

>  <m_primary>  (19) 
energy

>  <rmsd>  (19) 
9.048046621186097

>  <m_score__min__rmsd>  (19) 
9.048046621186097

>  <meeko>  (19) 
{"free_energy": -7.49, "intermolecular_energy": -9.58, "internal_energy": -2.9, "cluster_size": 5, "cluster_id": 7, "rank_in_cluster": 1}

>  <energy>  (19) 
-8.65

>  <cluster_rmsd>  (19) 
0.64

>  <cluster>  (19) 
2

$$$$

     RDKit          3D

 56 59  0  0  0  0  0  0  0  0999 V2000
  138.8130   80.5560  224.3490 C   0  0  0  0  0  0  0  0  0  0  0  0
  139.3270   79.4360  223.5180 C   0  0  0  0  0  0  0  0  0  0  0  0
  140.6750   79.1340  223.4500 C   0  0  0  0  0  0  0  0  0  0  0  0
  141.1690   78.0930  222.6800 C   0  0  0  0  0  0  0  0  0  0  0  0
  140.2650   77.3390  221.9600 C   0  0  0  0  0  0  0  0  0  0  0  0
  140.6700   76.2410  221.1330 N   0  0  0  0  0  0  0  0  0  0  0  0
  140.6950   76.3460  219.7180 C   0  0  0  0  0  0  0  0  0  0  0  0
  140.3630   77.4020  219.1210 O   0  0  0  0  0  0  0  0  0  0  0  0
  141.1370   75.1310  218.9560 C   0  0  1  0  0  0  0  0  0  0  0  0
  141.7740   75.6840  217.6850 C   0  0  0  0  0  0  0  0  0  0  0  0
  143.0420   76.2920  218.2710 C   0  0  2  0  0  0  0  0  0  0  0  0
  144.0810   76.3390  217.3640 O   0  0  0  0  0  0  0  0  0  0  0  0
  143.3820   75.3830  219.4230 C   0  0  0  0  0  0  0  0  0  0  0  0
  142.2510   74.4780  219.5780 N   0  0  0  0  0  0  0  0  0  0  0  0
  142.3600   73.2260  220.2350 C   0  0  0  0  0  0  0  0  0  0  0  0
  143.3600   73.0420  220.9770 O   0  0  0  0  0  0  0  0  0  0  0  0
  141.3040   72.1950  220.0250 C   0  0  0  0  0  0  0  0  0  0  0  0
  141.0960   71.4410  221.2440 N   0  0  0  0  0  0  0  0  0  0  0  0
  140.5820   72.1460  222.3630 C   0  0  0  0  0  0  0  0  0  0  0  0
  140.3250   73.3770  222.2670 O   0  0  0  0  0  0  0  0  0  0  0  0
  140.3490   71.4540  223.6200 C   0  0  0  0  0  0  0  0  0  0  0  0
  139.6050   70.2920  223.6480 C   0  0  0  0  0  0  0  0  0  0  0  0
  139.3360   69.5780  224.7830 C   0  0  0  0  0  0  0  0  0  0  0  0
  139.8530   70.0690  225.9750 C   0  0  0  0  0  0  0  0  0  0  0  0
  139.5870   69.3540  227.1240 C   0  0  0  0  0  0  0  0  0  0  0  0
  140.0920   69.8280  228.3180 C   0  0  0  0  0  0  0  0  0  0  0  0
  140.8510   71.0000  228.3450 C   0  0  0  0  0  0  0  0  0  0  0  0
  141.1010   71.6960  227.1700 C   0  0  0  0  0  0  0  0  0  0  0  0
  140.5990   71.2300  225.9660 C   0  0  0  0  0  0  0  0  0  0  0  0
  140.8290   71.8920  224.8030 N   0  0  0  0  0  0  0  0  0  0  0  0
  138.9060   77.5980  221.9920 C   0  0  0  0  0  0  0  0  0  0  0  0
  138.4690   78.6480  222.7760 C   0  0  0  0  0  0  0  0  0  0  0  0
  138.9281   80.3053  225.4139 H   0  0  0  0  0  0  0  0  0  0  0  0
  139.3816   81.4704  224.1241 H   0  0  0  0  0  0  0  0  0  0  0  0
  137.7490   80.7212  224.1241 H   0  0  0  0  0  0  0  0  0  0  0  0
  141.3830   79.7442  224.0300 H   0  0  0  0  0  0  0  0  0  0  0  0
  142.2466   77.8749  222.6439 H   0  0  0  0  0  0  0  0  0  0  0  0
  140.9510   75.3490  221.6270 H   0  0  0  0  0  0  0  0  0  0  0  0
  140.2801   74.4490  218.8527 H   0  0  0  0  0  0  0  0  0  0  0  0
  141.9996   74.8873  216.9609 H   0  0  0  0  0  0  0  0  0  0  0  0
  141.1437   76.3833  217.1160 H   0  0  0  0  0  0  0  0  0  0  0  0
  142.8839   77.3386  218.5705 H   0  0  0  0  0  0  0  0  0  0  0  0
  144.8180   75.7840  217.7320 H   0  0  0  0  0  0  0  0  0  0  0  0
  144.2973   74.8143  219.2020 H   0  0  0  0  0  0  0  0  0  0  0  0
  143.5642   75.9562  220.3440 H   0  0  0  0  0  0  0  0  0  0  0  0
  140.3643   72.6897  219.7382 H   0  0  0  0  0  0  0  0  0  0  0  0
  141.6240   71.5088  219.2271 H   0  0  0  0  0  0  0  0  0  0  0  0
  141.3080   70.4200  221.3270 H   0  0  0  0  0  0  0  0  0  0  0  0
  139.2023   69.9158  222.6960 H   0  0  0  0  0  0  0  0  0  0  0  0
  138.7369   68.6560  224.7532 H   0  0  0  0  0  0  0  0  0  0  0  0
  138.9889   68.4314  227.0898 H   0  0  0  0  0  0  0  0  0  0  0  0
  139.8959   69.2806  229.2517 H   0  0  0  0  0  0  0  0  0  0  0  0
  141.2516   71.3725  229.2993 H   0  0  0  0  0  0  0  0  0  0  0  0
  141.6987   72.6191  227.1952 H   0  0  0  0  0  0  0  0  0  0  0  0
  138.1974   76.9881  221.4125 H   0  0  0  0  0  0  0  0  0  0  0  0
  137.3914   78.8659  222.8109 H   0  0  0  0  0  0  0  0  0  0  0  0
  1  2  1  0
  2  3  2  0
  3  4  1  0
  4  5  2  0
  5  6  1  0
  6  7  1  0
  7  8  2  0
  7  9  1  0
  9 10  1  0
 10 11  1  0
 11 12  1  0
 11 13  1  0
 13 14  1  0
 14 15  1  0
 15 16  2  0
 15 17  1  0
 17 18  1  0
 18 19  1  0
 19 20  2  0
 19 21  1  0
 21 22  2  0
 22 23  1  0
 23 24  2  0
 24 25  1  0
 25 26  2  0
 26 27  1  0
 27 28  2  0
 28 29  1  0
 29 30  2  0
  5 31  1  0
 31 32  2  0
 32  2  1  0
 14  9  1  0
 30 21  1  0
 29 24  1  0
  1 33  1  0
  1 34  1  0
  1 35  1  0
  3 36  1  0
  4 37  1  0
  6 38  1  0
  9 39  1  6
 10 40  1  0
 10 41  1  0
 11 42  1  1
 12 43  1  0
 13 44  1  0
 13 45  1  0
 17 46  1  0
 17 47  1  0
 18 48  1  0
 22 49  1  0
 23 50  1  0
 25 51  1  0
 26 52  1  0
 27 53  1  0
 28 54  1  0
 31 55  1  0
 32 56  1  0
M  END
>  <smiles>  (20) 
Cc1ccc(NC(=O)[C@H]2C[C@H](O)CN2C(=O)CNC(=O)c2ccc3ccccc3n2)cc1

>  <score_type>  (20) 
oracle

>  <origin>  (20) 
autodockgpu

>  <m_score__min__energy>  (20) 
-9.4600000000000009

>  <m_primary>  (20) 
energy

>  <rmsd>  (20) 
2.9915881169164624

>  <m_score__min__rmsd>  (20) 
2.9915881169164624

>  <meeko>  (20) 
{"free_energy": -8.14, "intermolecular_energy": -10.23, "internal_energy": -2.41, "cluster_size": 16, "cluster_id": 1, "rank_in_cluster": 13}

>  <energy>  (20) 
-8.39

>  <cluster_rmsd>  (20) 
1.12

>  <cluster>  (20) 
2

$$$$

     RDKit          3D

 56 59  0  0  0  0  0  0  0  0999 V2000
  134.4570   82.0890  226.7530 C   0  0  0  0  0  0  0  0  0  0  0  0
  135.4440   81.4160  225.8690 C   0  0  0  0  0  0  0  0  0  0  0  0
  136.8060   81.6110  226.0100 C   0  0  0  0  0  0  0  0  0  0  0  0
  137.7380   80.9900  225.1940 C   0  0  0  0  0  0  0  0  0  0  0  0
  137.2690   80.1470  224.2080 C   0  0  0  0  0  0  0  0  0  0  0  0
  138.1470   79.4560  223.3110 N   0  0  0  0  0  0  0  0  0  0  0  0
  139.2370   80.1130  222.6830 C   0  0  0  0  0  0  0  0  0  0  0  0
  139.4850   81.3310  222.8800 O   0  0  0  0  0  0  0  0  0  0  0  0
  140.0890   79.2880  221.7630 C   0  0  1  0  0  0  0  0  0  0  0  0
  141.4120   80.0430  221.6820 C   0  0  0  0  0  0  0  0  0  0  0  0
  141.9450   79.7870  223.0860 C   0  0  2  0  0  0  0  0  0  0  0  0
  143.3240   79.8150  223.1470 O   0  0  0  0  0  0  0  0  0  0  0  0
  141.4260   78.4140  223.4270 C   0  0  0  0  0  0  0  0  0  0  0  0
  140.4960   78.0530  222.3660 N   0  0  0  0  0  0  0  0  0  0  0  0
  140.1430   76.7090  222.0840 C   0  0  0  0  0  0  0  0  0  0  0  0
  140.9890   75.8160  222.3540 O   0  0  0  0  0  0  0  0  0  0  0  0
  138.8080   76.4110  221.4910 C   0  0  0  0  0  0  0  0  0  0  0  0
  137.9640   75.7620  222.4720 N   0  0  0  0  0  0  0  0  0  0  0  0
  136.6960   76.3480  222.7270 C   0  0  0  0  0  0  0  0  0  0  0  0
  136.3500   77.3910  222.1080 O   0  0  0  0  0  0  0  0  0  0  0  0
  135.7960   75.7510  223.6990 C   0  0  0  0  0  0  0  0  0  0  0  0
  135.6680   74.3790  223.7790 C   0  0  0  0  0  0  0  0  0  0  0  0
  134.8460   73.7330  224.6610 C   0  0  0  0  0  0  0  0  0  0  0  0
  134.0990   74.5250  225.5240 C   0  0  0  0  0  0  0  0  0  0  0  0
  133.2680   73.8810  226.4170 C   0  0  0  0  0  0  0  0  0  0  0  0
  132.5180   74.6530  227.2810 C   0  0  0  0  0  0  0  0  0  0  0  0
  132.6100   76.0460  227.2410 C   0  0  0  0  0  0  0  0  0  0  0  0
  133.4570   76.6630  226.3310 C   0  0  0  0  0  0  0  0  0  0  0  0
  134.2140   75.8980  225.4580 C   0  0  0  0  0  0  0  0  0  0  0  0
  135.0500   76.4770  224.5570 N   0  0  0  0  0  0  0  0  0  0  0  0
  135.9170   79.9160  224.0230 C   0  0  0  0  0  0  0  0  0  0  0  0
  135.0330   80.5610  224.8650 C   0  0  0  0  0  0  0  0  0  0  0  0
  134.7232   81.9075  227.8048 H   0  0  0  0  0  0  0  0  0  0  0  0
  134.4646   83.1709  226.5543 H   0  0  0  0  0  0  0  0  0  0  0  0
  133.4527   81.6868  226.5543 H   0  0  0  0  0  0  0  0  0  0  0  0
  137.1636   82.2860  226.8015 H   0  0  0  0  0  0  0  0  0  0  0  0
  138.8159   81.1635  225.3280 H   0  0  0  0  0  0  0  0  0  0  0  0
  137.9460   78.4320  223.1380 H   0  0  0  0  0  0  0  0  0  0  0  0
  139.5335   79.1138  220.8297 H   0  0  0  0  0  0  0  0  0  0  0  0
  142.0750   79.6245  220.9104 H   0  0  0  0  0  0  0  0  0  0  0  0
  141.3253   81.1038  221.4042 H   0  0  0  0  0  0  0  0  0  0  0  0
  141.6164   80.5670  223.7886 H   0  0  0  0  0  0  0  0  0  0  0  0
  143.6640   79.3630  222.3320 H   0  0  0  0  0  0  0  0  0  0  0  0
  142.2555   77.6927  223.4681 H   0  0  0  0  0  0  0  0  0  0  0  0
  140.9331   78.4059  224.4103 H   0  0  0  0  0  0  0  0  0  0  0  0
  138.3351   77.3501  221.1679 H   0  0  0  0  0  0  0  0  0  0  0  0
  138.9377   75.7422  220.6274 H   0  0  0  0  0  0  0  0  0  0  0  0
  138.2480   74.8960  222.9870 H   0  0  0  0  0  0  0  0  0  0  0  0
  136.2657   73.7654  223.0888 H   0  0  0  0  0  0  0  0  0  0  0  0
  134.7794   72.6353  224.6859 H   0  0  0  0  0  0  0  0  0  0  0  0
  133.2048   72.7831  226.4399 H   0  0  0  0  0  0  0  0  0  0  0  0
  131.8450   74.1691  228.0041 H   0  0  0  0  0  0  0  0  0  0  0  0
  132.0097   76.6556  227.9324 H   0  0  0  0  0  0  0  0  0  0  0  0
  133.5275   77.7604  226.3027 H   0  0  0  0  0  0  0  0  0  0  0  0
  135.5587   79.2412  223.2317 H   0  0  0  0  0  0  0  0  0  0  0  0
  133.9553   80.3865  224.7305 H   0  0  0  0  0  0  0  0  0  0  0  0
  1  2  1  0
  2  3  2  0
  3  4  1  0
  4  5  2  0
  5  6  1  0
  6  7  1  0
  7  8  2  0
  7  9  1  0
  9 10  1  0
 10 11  1  0
 11 12  1  0
 11 13  1  0
 13 14  1  0
 14 15  1  0
 15 16  2  0
 15 17  1  0
 17 18  1  0
 18 19  1  0
 19 20  2  0
 19 21  1  0
 21 22  2  0
 22 23  1  0
 23 24  2  0
 24 25  1  0
 25 26  2  0
 26 27  1  0
 27 28  2  0
 28 29  1  0
 29 30  2  0
  5 31  1  0
 31 32  2  0
 32  2  1  0
 14  9  1  0
 30 21  1  0
 29 24  1  0
  1 33  1  0
  1 34  1  0
  1 35  1  0
  3 36  1  0
  4 37  1  0
  6 38  1  0
  9 39  1  6
 10 40  1  0
 10 41  1  0
 11 42  1  1
 12 43  1  0
 13 44  1  0
 13 45  1  0
 17 46  1  0
 17 47  1  0
 18 48  1  0
 22 49  1  0
 23 50  1  0
 25 51  1  0
 26 52  1  0
 27 53  1  0
 28 54  1  0
 31 55  1  0
 32 56  1  0
M  END
>  <smiles>  (21) 
Cc1ccc(NC(=O)[C@H]2C[C@H](O)CN2C(=O)CNC(=O)c2ccc3ccccc3n2)cc1

>  <score_type>  (21) 
oracle

>  <origin>  (21) 
autodockgpu

>  <m_score__min__energy>  (21) 
-9.4600000000000009

>  <m_primary>  (21) 
energy

>  <rmsd>  (21) 
6.380086180009564

>  <m_score__min__rmsd>  (21) 
6.380086180009564

>  <meeko>  (21) 
{"free_energy": -7.5, "intermolecular_energy": -9.59, "internal_energy": -2.87, "cluster_size": 1, "cluster_id": 6, "rank_in_cluster": 1}

>  <energy>  (21) 
-8.23

>  <cluster_rmsd>  (21) 
1.24

>  <cluster>  (21) 
2

$$$$

     RDKit          3D

 56 59  0  0  0  0  0  0  0  0999 V2000
  142.0870   81.4210  224.1240 C   0  0  0  0  0  0  0  0  0  0  0  0
  141.8230   80.2940  223.1900 C   0  0  0  0  0  0  0  0  0  0  0  0
  141.3270   79.0800  223.6290 C   0  0  0  0  0  0  0  0  0  0  0  0
  141.0760   78.0210  222.7710 C   0  0  0  0  0  0  0  0  0  0  0  0
  141.3400   78.2040  221.4290 C   0  0  0  0  0  0  0  0  0  0  0  0
  141.1170   77.1740  220.4590 N   0  0  0  0  0  0  0  0  0  0  0  0
  141.2920   75.8020  220.7760 C   0  0  0  0  0  0  0  0  0  0  0  0
  141.6510   75.4230  221.9200 O   0  0  0  0  0  0  0  0  0  0  0  0
  141.0300   74.8130  219.6790 C   0  0  1  0  0  0  0  0  0  0  0  0
  141.5030   75.5120  218.4080 C   0  0  0  0  0  0  0  0  0  0  0  0
  143.0080   75.4860  218.6410 C   0  0  2  0  0  0  0  0  0  0  0  0
  143.7310   75.4930  217.4640 O   0  0  0  0  0  0  0  0  0  0  0  0
  143.2370   74.2040  219.3980 C   0  0  0  0  0  0  0  0  0  0  0  0
  141.9170   73.6900  219.7390 N   0  0  0  0  0  0  0  0  0  0  0  0
  141.6880   72.3260  220.0510 C   0  0  0  0  0  0  0  0  0  0  0  0
  142.6820   71.5540  220.0570 O   0  0  0  0  0  0  0  0  0  0  0  0
  140.3020   71.8670  220.3540 C   0  0  0  0  0  0  0  0  0  0  0  0
  140.2840   71.1310  221.6010 N   0  0  0  0  0  0  0  0  0  0  0  0
  140.3100   71.8880  222.8020 C   0  0  0  0  0  0  0  0  0  0  0  0
  140.3450   73.1470  222.7510 O   0  0  0  0  0  0  0  0  0  0  0  0
  140.2940   71.2160  224.0900 C   0  0  0  0  0  0  0  0  0  0  0  0
  140.6990   71.8830  225.2290 C   0  0  0  0  0  0  0  0  0  0  0  0
  140.7170   71.3290  226.4790 C   0  0  0  0  0  0  0  0  0  0  0  0
  140.2980   70.0090  226.5910 C   0  0  0  0  0  0  0  0  0  0  0  0
  140.3130   69.4430  227.8490 C   0  0  0  0  0  0  0  0  0  0  0  0
  139.9010   68.1330  227.9790 C   0  0  0  0  0  0  0  0  0  0  0  0
  139.4820   67.4130  226.8580 C   0  0  0  0  0  0  0  0  0  0  0  0
  139.4780   68.0120  225.6060 C   0  0  0  0  0  0  0  0  0  0  0  0
  139.8900   69.3270  225.4640 C   0  0  0  0  0  0  0  0  0  0  0  0
  139.8970   69.9370  224.2500 N   0  0  0  0  0  0  0  0  0  0  0  0
  141.8380   79.3970  220.9370 C   0  0  0  0  0  0  0  0  0  0  0  0
  142.0690   80.4190  221.8370 C   0  0  0  0  0  0  0  0  0  0  0  0
  142.0035   81.0647  225.1614 H   0  0  0  0  0  0  0  0  0  0  0  0
  143.1008   81.8110  223.9507 H   0  0  0  0  0  0  0  0  0  0  0  0
  141.3519   82.2207  223.9507 H   0  0  0  0  0  0  0  0  0  0  0  0
  141.1235   78.9497  224.7021 H   0  0  0  0  0  0  0  0  0  0  0  0
  140.6796   77.0664  223.1472 H   0  0  0  0  0  0  0  0  0  0  0  0
  140.8150   77.4830  219.4930 H   0  0  0  0  0  0  0  0  0  0  0  0
  139.9784   74.4954  219.7360 H   0  0  0  0  0  0  0  0  0  0  0  0
  141.2195   74.9528  217.5042 H   0  0  0  0  0  0  0  0  0  0  0  0
  141.0758   76.5118  218.2409 H   0  0  0  0  0  0  0  0  0  0  0  0
  143.3457   76.3813  219.1837 H   0  0  0  0  0  0  0  0  0  0  0  0
  144.6780   75.6690  217.7030 H   0  0  0  0  0  0  0  0  0  0  0  0
  143.7765   73.4810  218.7685 H   0  0  0  0  0  0  0  0  0  0  0  0
  143.8450   74.3743  220.2987 H   0  0  0  0  0  0  0  0  0  0  0  0
  139.6392   72.7409  220.4375 H   0  0  0  0  0  0  0  0  0  0  0  0
  139.9543   71.2104  219.5429 H   0  0  0  0  0  0  0  0  0  0  0  0
  140.2550   70.0860  221.6470 H   0  0  0  0  0  0  0  0  0  0  0  0
  141.0284   72.9273  225.1242 H   0  0  0  0  0  0  0  0  0  0  0  0
  141.0485   71.9029  227.3569 H   0  0  0  0  0  0  0  0  0  0  0  0
  140.6445   70.0206  228.7245 H   0  0  0  0  0  0  0  0  0  0  0  0
  139.9025   67.6537  228.9691 H   0  0  0  0  0  0  0  0  0  0  0  0
  139.1544   66.3687  226.9676 H   0  0  0  0  0  0  0  0  0  0  0  0
  139.1473   67.4419  224.7254 H   0  0  0  0  0  0  0  0  0  0  0  0
  142.0433   79.5275  219.8642 H   0  0  0  0  0  0  0  0  0  0  0  0
  142.4658   81.3731  221.4599 H   0  0  0  0  0  0  0  0  0  0  0  0
  1  2  1  0
  2  3  2  0
  3  4  1  0
  4  5  2  0
  5  6  1  0
  6  7  1  0
  7  8  2  0
  7  9  1  0
  9 10  1  0
 10 11  1  0
 11 12  1  0
 11 13  1  0
 13 14  1  0
 14 15  1  0
 15 16  2  0
 15 17  1  0
 17 18  1  0
 18 19  1  0
 19 20  2  0
 19 21  1  0
 21 22  2  0
 22 23  1  0
 23 24  2  0
 24 25  1  0
 25 26  2  0
 26 27  1  0
 27 28  2  0
 28 29  1  0
 29 30  2  0
  5 31  1  0
 31 32  2  0
 32  2  1  0
 14  9  1  0
 30 21  1  0
 29 24  1  0
  1 33  1  0
  1 34  1  0
  1 35  1  0
  3 36  1  0
  4 37  1  0
  6 38  1  0
  9 39  1  6
 10 40  1  0
 10 41  1  0
 11 42  1  1
 12 43  1  0
 13 44  1  0
 13 45  1  0
 17 46  1  0
 17 47  1  0
 18 48  1  0
 22 49  1  0
 23 50  1  0
 25 51  1  0
 26 52  1  0
 27 53  1  0
 28 54  1  0
 31 55  1  0
 32 56  1  0
M  END
>  <smiles>  (22) 
Cc1ccc(NC(=O)[C@H]2C[C@H](O)CN2C(=O)CNC(=O)c2ccc3ccccc3n2)cc1

>  <score_type>  (22) 
oracle

>  <origin>  (22) 
autodockgpu

>  <m_score__min__energy>  (22) 
-9.4600000000000009

>  <m_primary>  (22) 
energy

>  <rmsd>  (22) 
3.4251812527817562

>  <m_score__min__rmsd>  (22) 
3.4251812527817562

>  <meeko>  (22) 
{"free_energy": -8.91, "intermolecular_energy": -11.0, "internal_energy": -1.76, "cluster_size": 16, "cluster_id": 1, "rank_in_cluster": 5}

>  <energy>  (22) 
-8.12

>  <cluster_rmsd>  (22) 
1.34

>  <cluster>  (22) 
2

$$$$

     RDKit          3D

 56 59  0  0  0  0  0  0  0  0999 V2000
  140.5940   81.1560  223.7820 C   0  0  0  0  0  0  0  0  0  0  0  0
  141.0280   80.1220  222.8050 C   0  0  0  0  0  0  0  0  0  0  0  0
  141.4450   80.4510  221.5290 C   0  0  0  0  0  0  0  0  0  0  0  0
  141.8520   79.4990  220.6070 C   0  0  0  0  0  0  0  0  0  0  0  0
  141.8330   78.1760  220.9980 C   0  0  0  0  0  0  0  0  0  0  0  0
  142.2330   77.1140  220.1240 N   0  0  0  0  0  0  0  0  0  0  0  0
  141.5700   75.8590  220.1260 C   0  0  0  0  0  0  0  0  0  0  0  0
  140.6030   75.6170  220.8920 O   0  0  0  0  0  0  0  0  0  0  0  0
  142.0780   74.8230  219.1660 C   0  0  1  0  0  0  0  0  0  0  0  0
  143.5720   75.1080  219.0460 C   0  0  0  0  0  0  0  0  0  0  0  0
  144.0350   74.6600  220.4260 C   0  0  2  0  0  0  0  0  0  0  0  0
  145.3490   74.2360  220.4370 O   0  0  0  0  0  0  0  0  0  0  0  0
  143.1080   73.5230  220.7700 C   0  0  0  0  0  0  0  0  0  0  0  0
  142.0780   73.5100  219.7400 N   0  0  0  0  0  0  0  0  0  0  0  0
  141.2980   72.3600  219.4560 C   0  0  0  0  0  0  0  0  0  0  0  0
  141.8370   71.4410  218.7850 O   0  0  0  0  0  0  0  0  0  0  0  0
  139.8950   72.2860  219.9550 C   0  0  0  0  0  0  0  0  0  0  0  0
  139.8400   71.4890  221.1630 N   0  0  0  0  0  0  0  0  0  0  0  0
  140.1580   72.1390  222.3850 C   0  0  0  0  0  0  0  0  0  0  0  0
  140.4720   73.3600  222.3840 O   0  0  0  0  0  0  0  0  0  0  0  0
  140.1240   71.4010  223.6360 C   0  0  0  0  0  0  0  0  0  0  0  0
  139.5740   70.1360  223.6850 C   0  0  0  0  0  0  0  0  0  0  0  0
  139.5000   69.3730  224.8170 C   0  0  0  0  0  0  0  0  0  0  0  0
  140.0160   69.9220  225.9840 C   0  0  0  0  0  0  0  0  0  0  0  0
  139.9440   69.1580  227.1310 C   0  0  0  0  0  0  0  0  0  0  0  0
  140.4510   69.6890  228.2990 C   0  0  0  0  0  0  0  0  0  0  0  0
  141.0180   70.9650  228.3050 C   0  0  0  0  0  0  0  0  0  0  0  0
  141.0740   71.7080  227.1340 C   0  0  0  0  0  0  0  0  0  0  0  0
  140.5680   71.1860  225.9550 C   0  0  0  0  0  0  0  0  0  0  0  0
  140.6110   71.8920  224.7950 N   0  0  0  0  0  0  0  0  0  0  0  0
  141.4240   77.7920  222.2640 C   0  0  0  0  0  0  0  0  0  0  0  0
  141.0290   78.7830  223.1410 C   0  0  0  0  0  0  0  0  0  0  0  0
  140.7507   80.7827  224.8048 H   0  0  0  0  0  0  0  0  0  0  0  0
  141.1833   82.0726  223.6319 H   0  0  0  0  0  0  0  0  0  0  0  0
  139.5270   81.3774  223.6319 H   0  0  0  0  0  0  0  0  0  0  0  0
  141.4543   81.5104  221.2332 H   0  0  0  0  0  0  0  0  0  0  0  0
  142.1791   79.7887  219.5975 H   0  0  0  0  0  0  0  0  0  0  0  0
  143.0460   77.3080  219.4760 H   0  0  0  0  0  0  0  0  0  0  0  0
  141.4683   74.8603  218.2512 H   0  0  0  0  0  0  0  0  0  0  0  0
  144.0384   74.5146  218.2458 H   0  0  0  0  0  0  0  0  0  0  0  0
  143.8275   76.1455  218.7844 H   0  0  0  0  0  0  0  0  0  0  0  0
  144.0000   75.4883  221.1489 H   0  0  0  0  0  0  0  0  0  0  0  0
  145.7540   74.5120  219.5740 H   0  0  0  0  0  0  0  0  0  0  0  0
  143.6578   72.5702  220.7711 H   0  0  0  0  0  0  0  0  0  0  0  0
  142.6710   73.6521  221.7712 H   0  0  0  0  0  0  0  0  0  0  0  0
  139.5315   73.3013  220.1717 H   0  0  0  0  0  0  0  0  0  0  0  0
  139.2624   71.8194  219.1856 H   0  0  0  0  0  0  0  0  0  0  0  0
  139.5800   70.4750  221.1680 H   0  0  0  0  0  0  0  0  0  0  0  0
  139.1691   69.7146  222.7531 H   0  0  0  0  0  0  0  0  0  0  0  0
  139.0516   68.3686  224.8042 H   0  0  0  0  0  0  0  0  0  0  0  0
  139.4950   68.1539  227.1144 H   0  0  0  0  0  0  0  0  0  0  0  0
  140.4084   69.1045  229.2299 H   0  0  0  0  0  0  0  0  0  0  0  0
  141.4211   71.3822  229.2396 H   0  0  0  0  0  0  0  0  0  0  0  0
  141.5210   72.7131  227.1423 H   0  0  0  0  0  0  0  0  0  0  0  0
  141.4140   76.7330  222.5612 H   0  0  0  0  0  0  0  0  0  0  0  0
  140.7012   78.4931  224.1502 H   0  0  0  0  0  0  0  0  0  0  0  0
  1  2  1  0
  2  3  2  0
  3  4  1  0
  4  5  2  0
  5  6  1  0
  6  7  1  0
  7  8  2  0
  7  9  1  0
  9 10  1  0
 10 11  1  0
 11 12  1  0
 11 13  1  0
 13 14  1  0
 14 15  1  0
 15 16  2  0
 15 17  1  0
 17 18  1  0
 18 19  1  0
 19 20  2  0
 19 21  1  0
 21 22  2  0
 22 23  1  0
 23 24  2  0
 24 25  1  0
 25 26  2  0
 26 27  1  0
 27 28  2  0
 28 29  1  0
 29 30  2  0
  5 31  1  0
 31 32  2  0
 32  2  1  0
 14  9  1  0
 30 21  1  0
 29 24  1  0
  1 33  1  0
  1 34  1  0
  1 35  1  0
  3 36  1  0
  4 37  1  0
  6 38  1  0
  9 39  1  6
 10 40  1  0
 10 41  1  0
 11 42  1  1
 12 43  1  0
 13 44  1  0
 13 45  1  0
 17 46  1  0
 17 47  1  0
 18 48  1  0
 22 49  1  0
 23 50  1  0
 25 51  1  0
 26 52  1  0
 27 53  1  0
 28 54  1  0
 31 55  1  0
 32 56  1  0
M  END
>  <smiles>  (23) 
Cc1ccc(NC(=O)[C@H]2C[C@H](O)CN2C(=O)CNC(=O)c2ccc3ccccc3n2)cc1

>  <score_type>  (23) 
oracle

>  <origin>  (23) 
autodockgpu

>  <m_score__min__energy>  (23) 
-9.4600000000000009

>  <m_primary>  (23) 
energy

>  <rmsd>  (23) 
2.861842624473189

>  <m_score__min__rmsd>  (23) 
2.861842624473189

>  <meeko>  (23) 
{"free_energy": -8.8, "intermolecular_energy": -10.89, "internal_energy": -1.56, "cluster_size": 16, "cluster_id": 1, "rank_in_cluster": 6}

>  <energy>  (23) 
-7.98

>  <cluster_rmsd>  (23) 
1.11

>  <cluster>  (23) 
2

$$$$

     RDKit          3D

 56 59  0  0  0  0  0  0  0  0999 V2000
  142.5620   82.0360  224.5170 C   0  0  0  0  0  0  0  0  0  0  0  0
  142.1360   80.8070  223.7980 C   0  0  0  0  0  0  0  0  0  0  0  0
  140.8470   80.3150  223.8890 C   0  0  0  0  0  0  0  0  0  0  0  0
  140.4360   79.1700  223.2240 C   0  0  0  0  0  0  0  0  0  0  0  0
  141.3630   78.5090  222.4450 C   0  0  0  0  0  0  0  0  0  0  0  0
  141.0420   77.3180  221.7170 N   0  0  0  0  0  0  0  0  0  0  0  0
  141.2740   77.2140  220.3220 C   0  0  0  0  0  0  0  0  0  0  0  0
  141.7720   78.1590  219.6560 O   0  0  0  0  0  0  0  0  0  0  0  0
  140.8980   75.9180  219.6660 C   0  0  1  0  0  0  0  0  0  0  0  0
  141.9400   75.7240  218.5680 C   0  0  0  0  0  0  0  0  0  0  0  0
  143.1640   75.4190  219.4210 C   0  0  2  0  0  0  0  0  0  0  0  0
  144.0920   74.6380  218.7630 O   0  0  0  0  0  0  0  0  0  0  0  0
  142.6030   74.6880  220.6130 C   0  0  0  0  0  0  0  0  0  0  0  0
  141.1540   74.7900  220.5110 N   0  0  0  0  0  0  0  0  0  0  0  0
  140.2770   73.8890  221.1670 C   0  0  0  0  0  0  0  0  0  0  0  0
  139.5370   74.3520  222.0740 O   0  0  0  0  0  0  0  0  0  0  0  0
  140.2670   72.4530  220.7640 C   0  0  0  0  0  0  0  0  0  0  0  0
  140.5200   71.6130  221.9160 N   0  0  0  0  0  0  0  0  0  0  0  0
  139.4100   71.2930  222.7420 C   0  0  0  0  0  0  0  0  0  0  0  0
  138.2650   71.7380  222.4570 O   0  0  0  0  0  0  0  0  0  0  0  0
  139.5900   70.4550  223.9160 C   0  0  0  0  0  0  0  0  0  0  0  0
  139.0890   69.1690  223.9360 C   0  0  0  0  0  0  0  0  0  0  0  0
  139.2120   68.3130  224.9960 C   0  0  0  0  0  0  0  0  0  0  0  0
  139.8850   68.7850  226.1150 C   0  0  0  0  0  0  0  0  0  0  0  0
  140.0120   67.9280  227.1880 C   0  0  0  0  0  0  0  0  0  0  0  0
  140.6780   68.3810  228.3080 C   0  0  0  0  0  0  0  0  0  0  0  0
  141.2030   69.6750  228.3400 C   0  0  0  0  0  0  0  0  0  0  0  0
  141.0580   70.5130  227.2430 C   0  0  0  0  0  0  0  0  0  0  0  0
  140.3910   70.0690  226.1130 C   0  0  0  0  0  0  0  0  0  0  0  0
  140.2350   70.8690  225.0260 N   0  0  0  0  0  0  0  0  0  0  0  0
  142.6670   78.9580  222.3200 C   0  0  0  0  0  0  0  0  0  0  0  0
  143.0220   80.1040  223.0050 C   0  0  0  0  0  0  0  0  0  0  0  0
  142.5028   81.8652  225.6020 H   0  0  0  0  0  0  0  0  0  0  0  0
  143.5979   82.2821  224.2406 H   0  0  0  0  0  0  0  0  0  0  0  0
  141.9006   82.8704  224.2406 H   0  0  0  0  0  0  0  0  0  0  0  0
  140.1189   80.8533  224.5137 H   0  0  0  0  0  0  0  0  0  0  0  0
  139.4039   78.8005  223.3146 H   0  0  0  0  0  0  0  0  0  0  0  0
  140.6230   76.5190  222.2690 H   0  0  0  0  0  0  0  0  0  0  0  0
  139.8388   75.9664  219.3730 H   0  0  0  0  0  0  0  0  0  0  0  0
  141.6840   74.8842  217.9052 H   0  0  0  0  0  0  0  0  0  0  0  0
  142.0535   76.5745  217.8796 H   0  0  0  0  0  0  0  0  0  0  0  0
  143.7077   76.3376  219.6864 H   0  0  0  0  0  0  0  0  0  0  0  0
  144.6640   75.2480  218.2280 H   0  0  0  0  0  0  0  0  0  0  0  0
  142.9128   73.6327  220.5929 H   0  0  0  0  0  0  0  0  0  0  0  0
  142.9686   75.1212  221.5557 H   0  0  0  0  0  0  0  0  0  0  0  0
  139.2845   72.2011  220.3383 H   0  0  0  0  0  0  0  0  0  0  0  0
  141.0535   72.2832  220.0139 H   0  0  0  0  0  0  0  0  0  0  0  0
  141.4690   71.2420  222.1560 H   0  0  0  0  0  0  0  0  0  0  0  0
  138.5570   68.8096  223.0428 H   0  0  0  0  0  0  0  0  0  0  0  0
  138.7959   67.2953  224.9633 H   0  0  0  0  0  0  0  0  0  0  0  0
  139.5938   66.9113  227.1518 H   0  0  0  0  0  0  0  0  0  0  0  0
  140.7961   67.7204  229.1796 H   0  0  0  0  0  0  0  0  0  0  0  0
  141.7324   70.0306  229.2363 H   0  0  0  0  0  0  0  0  0  0  0  0
  141.4734   71.5312  227.2710 H   0  0  0  0  0  0  0  0  0  0  0  0
  143.3959   78.4201  221.6961 H   0  0  0  0  0  0  0  0  0  0  0  0
  144.0545   80.4725  222.9151 H   0  0  0  0  0  0  0  0  0  0  0  0
  1  2  1  0
  2  3  2  0
  3  4  1  0
  4  5  2  0
  5  6  1  0
  6  7  1  0
  7  8  2  0
  7  9  1  0
  9 10  1  0
 10 11  1  0
 11 12  1  0
 11 13  1  0
 13 14  1  0
 14 15  1  0
 15 16  2  0
 15 17  1  0
 17 18  1  0
 18 19  1  0
 19 20  2  0
 19 21  1  0
 21 22  2  0
 22 23  1  0
 23 24  2  0
 24 25  1  0
 25 26  2  0
 26 27  1  0
 27 28  2  0
 28 29  1  0
 29 30  2  0
  5 31  1  0
 31 32  2  0
 32  2  1  0
 14  9  1  0
 30 21  1  0
 29 24  1  0
  1 33  1  0
  1 34  1  0
  1 35  1  0
  3 36  1  0
  4 37  1  0
  6 38  1  0
  9 39  1  6
 10 40  1  0
 10 41  1  0
 11 42  1  1
 12 43  1  0
 13 44  1  0
 13 45  1  0
 17 46  1  0
 17 47  1  0
 18 48  1  0
 22 49  1  0
 23 50  1  0
 25 51  1  0
 26 52  1  0
 27 53  1  0
 28 54  1  0
 31 55  1  0
 32 56  1  0
M  END
>  <smiles>  (24) 
Cc1ccc(NC(=O)[C@H]2C[C@H](O)CN2C(=O)CNC(=O)c2ccc3ccccc3n2)cc1

>  <score_type>  (24) 
oracle

>  <origin>  (24) 
autodockgpu

>  <m_score__min__energy>  (24) 
-9.4600000000000009

>  <m_primary>  (24) 
energy

>  <rmsd>  (24) 
2.521898482366825

>  <m_score__min__rmsd>  (24) 
2.521898482366825

>  <meeko>  (24) 
{"free_energy": -8.57, "intermolecular_energy": -10.66, "internal_energy": -1.86, "cluster_size": 16, "cluster_id": 1, "rank_in_cluster": 10}

>  <energy>  (24) 
-7.79

>  <cluster_rmsd>  (24) 
1.06

>  <cluster>  (24) 
2

$$$$

     RDKit          3D

 56 59  0  0  0  0  0  0  0  0999 V2000
  141.9910   81.2600  223.8050 C   0  0  0  0  0  0  0  0  0  0  0  0
  141.7920   79.9840  223.0670 C   0  0  0  0  0  0  0  0  0  0  0  0
  141.4070   78.8210  223.7070 C   0  0  0  0  0  0  0  0  0  0  0  0
  141.2180   77.6250  223.0330 C   0  0  0  0  0  0  0  0  0  0  0  0
  141.4280   77.6140  221.6690 C   0  0  0  0  0  0  0  0  0  0  0  0
  141.2600   76.4320  220.8780 N   0  0  0  0  0  0  0  0  0  0  0  0
  142.3160   75.9110  220.0860 C   0  0  0  0  0  0  0  0  0  0  0  0
  143.4470   76.4600  220.0380 O   0  0  0  0  0  0  0  0  0  0  0  0
  142.0240   74.6670  219.2990 C   0  0  1  0  0  0  0  0  0  0  0  0
  143.3820   73.9920  219.1290 C   0  0  0  0  0  0  0  0  0  0  0  0
  143.6260   73.5320  220.5600 C   0  0  2  0  0  0  0  0  0  0  0  0
  144.4370   72.4160  220.6320 O   0  0  0  0  0  0  0  0  0  0  0  0
  142.2480   73.2210  221.0820 C   0  0  0  0  0  0  0  0  0  0  0  0
  141.3110   73.6940  220.0720 N   0  0  0  0  0  0  0  0  0  0  0  0
  139.9830   73.2070  219.9760 C   0  0  0  0  0  0  0  0  0  0  0  0
  139.7190   72.4130  219.0350 O   0  0  0  0  0  0  0  0  0  0  0  0
  138.9680   73.6480  220.9760 C   0  0  0  0  0  0  0  0  0  0  0  0
  139.3010   73.1230  222.2840 N   0  0  0  0  0  0  0  0  0  0  0  0
  139.3030   71.7120  222.4360 C   0  0  0  0  0  0  0  0  0  0  0  0
  139.0230   70.9730  221.4530 O   0  0  0  0  0  0  0  0  0  0  0  0
  139.6270   71.1150  223.7210 C   0  0  0  0  0  0  0  0  0  0  0  0
  139.3740   69.7780  223.9520 C   0  0  0  0  0  0  0  0  0  0  0  0
  139.6460   69.1360  225.1290 C   0  0  0  0  0  0  0  0  0  0  0  0
  140.2140   69.8940  226.1450 C   0  0  0  0  0  0  0  0  0  0  0  0
  140.4910   69.2540  227.3350 C   0  0  0  0  0  0  0  0  0  0  0  0
  141.0540   69.9920  228.3560 C   0  0  0  0  0  0  0  0  0  0  0  0
  141.3300   71.3490  228.1740 C   0  0  0  0  0  0  0  0  0  0  0  0
  141.0380   71.9640  226.9640 C   0  0  0  0  0  0  0  0  0  0  0  0
  140.4730   71.2320  225.9320 C   0  0  0  0  0  0  0  0  0  0  0  0
  140.1780   71.8090  224.7380 N   0  0  0  0  0  0  0  0  0  0  0  0
  141.8140   78.7500  220.9790 C   0  0  0  0  0  0  0  0  0  0  0  0
  141.9880   79.9140  221.7020 C   0  0  0  0  0  0  0  0  0  0  0  0
  141.9608   81.0661  224.8874 H   0  0  0  0  0  0  0  0  0  0  0  0
  142.9671   81.6904  223.5367 H   0  0  0  0  0  0  0  0  0  0  0  0
  141.1923   81.9672  223.5367 H   0  0  0  0  0  0  0  0  0  0  0  0
  141.2441   78.8458  224.7946 H   0  0  0  0  0  0  0  0  0  0  0  0
  140.9106   76.7142  223.5677 H   0  0  0  0  0  0  0  0  0  0  0  0
  140.3120   75.9640  220.9120 H   0  0  0  0  0  0  0  0  0  0  0  0
  141.4658   74.9453  218.3929 H   0  0  0  0  0  0  0  0  0  0  0  0
  143.3324   73.1441  218.4299 H   0  0  0  0  0  0  0  0  0  0  0  0
  144.1697   74.6330  218.7064 H   0  0  0  0  0  0  0  0  0  0  0  0
  144.1530   74.3009  221.1440 H   0  0  0  0  0  0  0  0  0  0  0  0
  144.4340   72.1110  221.5760 H   0  0  0  0  0  0  0  0  0  0  0  0
  142.1327   72.1372  221.2305 H   0  0  0  0  0  0  0  0  0  0  0  0
  142.0690   73.7077  222.0521 H   0  0  0  0  0  0  0  0  0  0  0  0
  138.9515   74.7471  221.0180 H   0  0  0  0  0  0  0  0  0  0  0  0
  137.9788   73.2713  220.6768 H   0  0  0  0  0  0  0  0  0  0  0  0
  139.5330   73.7330  223.1020 H   0  0  0  0  0  0  0  0  0  0  0  0
  138.9248   69.1909  223.1374 H   0  0  0  0  0  0  0  0  0  0  0  0
  139.4247   68.0671  225.2648 H   0  0  0  0  0  0  0  0  0  0  0  0
  140.2692   68.1847  227.4665 H   0  0  0  0  0  0  0  0  0  0  0  0
  141.2863   69.5097  229.3170 H   0  0  0  0  0  0  0  0  0  0  0  0
  141.7798   71.9319  228.9913 H   0  0  0  0  0  0  0  0  0  0  0  0
  141.2553   73.0332  226.8245 H   0  0  0  0  0  0  0  0  0  0  0  0
  141.9767   78.7267  219.8914 H   0  0  0  0  0  0  0  0  0  0  0  0
  142.2960   80.8246  221.1672 H   0  0  0  0  0  0  0  0  0  0  0  0
  1  2  1  0
  2  3  2  0
  3  4  1  0
  4  5  2  0
  5  6  1  0
  6  7  1  0
  7  8  2  0
  7  9  1  0
  9 10  1  0
 10 11  1  0
 11 12  1  0
 11 13  1  0
 13 14  1  0
 14 15  1  0
 15 16  2  0
 15 17  1  0
 17 18  1  0
 18 19  1  0
 19 20  2  0
 19 21  1  0
 21 22  2  0
 22 23  1  0
 23 24  2  0
 24 25  1  0
 25 26  2  0
 26 27  1  0
 27 28  2  0
 28 29  1  0
 29 30  2  0
  5 31  1  0
 31 32  2  0
 32  2  1  0
 14  9  1  0
 30 21  1  0
 29 24  1  0
  1 33  1  0
  1 34  1  0
  1 35  1  0
  3 36  1  0
  4 37  1  0
  6 38  1  0
  9 39  1  6
 10 40  1  0
 10 41  1  0
 11 42  1  1
 12 43  1  0
 13 44  1  0
 13 45  1  0
 17 46  1  0
 17 47  1  0
 18 48  1  0
 22 49  1  0
 23 50  1  0
 25 51  1  0
 26 52  1  0
 27 53  1  0
 28 54  1  0
 31 55  1  0
 32 56  1  0
M  END
>  <smiles>  (25) 
Cc1ccc(NC(=O)[C@H]2C[C@H](O)CN2C(=O)CNC(=O)c2ccc3ccccc3n2)cc1

>  <score_type>  (25) 
oracle

>  <origin>  (25) 
autodockgpu

>  <m_score__min__energy>  (25) 
-9.4600000000000009

>  <m_primary>  (25) 
energy

>  <rmsd>  (25) 
2.9727428471950184

>  <m_score__min__rmsd>  (25) 
2.9727428471950184

>  <meeko>  (25) 
{"free_energy": -8.51, "intermolecular_energy": -10.6, "internal_energy": -1.86, "cluster_size": 16, "cluster_id": 1, "rank_in_cluster": 11}

>  <energy>  (25) 
-8.1

>  <cluster_rmsd>  (25) 
0.0

>  <cluster>  (25) 
3

$$$$

     RDKit          3D

 56 59  0  0  0  0  0  0  0  0999 V2000
  132.4260   74.1320  227.5830 C   0  0  0  0  0  0  0  0  0  0  0  0
  133.4100   74.2250  226.4730 C   0  0  0  0  0  0  0  0  0  0  0  0
  134.0340   75.4150  226.1450 C   0  0  0  0  0  0  0  0  0  0  0  0
  134.9540   75.5160  225.1130 C   0  0  0  0  0  0  0  0  0  0  0  0
  135.2450   74.3740  224.3960 C   0  0  0  0  0  0  0  0  0  0  0  0
  136.1800   74.3700  223.3100 N   0  0  0  0  0  0  0  0  0  0  0  0
  135.8960   75.0210  222.0820 C   0  0  0  0  0  0  0  0  0  0  0  0
  134.8140   75.6310  221.8850 O   0  0  0  0  0  0  0  0  0  0  0  0
  136.9510   74.9500  221.0170 C   0  0  1  0  0  0  0  0  0  0  0  0
  136.6730   76.1510  220.1180 C   0  0  0  0  0  0  0  0  0  0  0  0
  137.0970   77.2780  221.0490 C   0  0  2  0  0  0  0  0  0  0  0  0
  137.5240   78.4010  220.3690 O   0  0  0  0  0  0  0  0  0  0  0  0
  138.2250   76.6820  221.8510 C   0  0  0  0  0  0  0  0  0  0  0  0
  138.2540   75.2630  221.5240 N   0  0  0  0  0  0  0  0  0  0  0  0
  139.4060   74.4600  221.7160 C   0  0  0  0  0  0  0  0  0  0  0  0
  140.3950   74.9860  222.2900 O   0  0  0  0  0  0  0  0  0  0  0  0
  139.4010   73.0470  221.2390 C   0  0  0  0  0  0  0  0  0  0  0  0
  139.8130   72.1610  222.3080 N   0  0  0  0  0  0  0  0  0  0  0  0
  138.7890   71.5930  223.1110 C   0  0  0  0  0  0  0  0  0  0  0  0
  137.5810   71.8690  222.8770 O   0  0  0  0  0  0  0  0  0  0  0  0
  139.1290   70.6950  224.2020 C   0  0  0  0  0  0  0  0  0  0  0  0
  138.6620   69.3970  224.2060 C   0  0  0  0  0  0  0  0  0  0  0  0
  138.9310   68.4850  225.1910 C   0  0  0  0  0  0  0  0  0  0  0  0
  139.7280   68.9130  226.2450 C   0  0  0  0  0  0  0  0  0  0  0  0
  140.0040   68.0000  227.2420 C   0  0  0  0  0  0  0  0  0  0  0  0
  140.7920   68.4070  228.2980 C   0  0  0  0  0  0  0  0  0  0  0  0
  141.2900   69.7110  228.3430 C   0  0  0  0  0  0  0  0  0  0  0  0
  140.9940   70.6060  227.3230 C   0  0  0  0  0  0  0  0  0  0  0  0
  140.2030   70.2080  226.2580 C   0  0  0  0  0  0  0  0  0  0  0  0
  139.8980   71.0630  225.2480 N   0  0  0  0  0  0  0  0  0  0  0  0
  134.6480   73.1580  224.6810 C   0  0  0  0  0  0  0  0  0  0  0  0
  133.7400   73.1150  225.7200 C   0  0  0  0  0  0  0  0  0  0  0  0
  132.9543   74.1819  228.5465 H   0  0  0  0  0  0  0  0  0  0  0  0
  131.7132   74.9668  227.5120 H   0  0  0  0  0  0  0  0  0  0  0  0
  131.8822   73.1785  227.5120 H   0  0  0  0  0  0  0  0  0  0  0  0
  133.7906   76.3168  226.7260 H   0  0  0  0  0  0  0  0  0  0  0  0
  135.4362   76.4753  224.8737 H   0  0  0  0  0  0  0  0  0  0  0  0
  137.0930   73.8590  223.4670 H   0  0  0  0  0  0  0  0  0  0  0  0
  136.9279   73.9473  220.5653 H   0  0  0  0  0  0  0  0  0  0  0  0
  137.2824   76.1260  219.2025 H   0  0  0  0  0  0  0  0  0  0  0  0
  135.6413   76.2216  219.7432 H   0  0  0  0  0  0  0  0  0  0  0  0
  136.2558   77.6261  221.6664 H   0  0  0  0  0  0  0  0  0  0  0  0
  138.1550   78.0970  219.6660 H   0  0  0  0  0  0  0  0  0  0  0  0
  139.1791   77.1556  221.5766 H   0  0  0  0  0  0  0  0  0  0  0  0
  138.0763   76.8408  222.9293 H   0  0  0  0  0  0  0  0  0  0  0  0
  138.3860   72.7764  220.9127 H   0  0  0  0  0  0  0  0  0  0  0  0
  140.1027   72.9478  220.3977 H   0  0  0  0  0  0  0  0  0  0  0  0
  140.8150   71.9300  222.5050 H   0  0  0  0  0  0  0  0  0  0  0  0
  138.0329   69.0739  223.3635 H   0  0  0  0  0  0  0  0  0  0  0  0
  138.5340   67.4600  225.1496 H   0  0  0  0  0  0  0  0  0  0  0  0
  139.6063   66.9754  227.1958 H   0  0  0  0  0  0  0  0  0  0  0  0
  141.0293   67.7017  229.1081 H   0  0  0  0  0  0  0  0  0  0  0  0
  141.9179   70.0299  229.1880 H   0  0  0  0  0  0  0  0  0  0  0  0
  141.3883   71.6322  227.3610 H   0  0  0  0  0  0  0  0  0  0  0  0
  134.8890   72.2562  224.0991 H   0  0  0  0  0  0  0  0  0  0  0  0
  133.2584   72.1552  225.9586 H   0  0  0  0  0  0  0  0  0  0  0  0
  1  2  1  0
  2  3  2  0
  3  4  1  0
  4  5  2  0
  5  6  1  0
  6  7  1  0
  7  8  2  0
  7  9  1  0
  9 10  1  0
 10 11  1  0
 11 12  1  0
 11 13  1  0
 13 14  1  0
 14 15  1  0
 15 16  2  0
 15 17  1  0
 17 18  1  0
 18 19  1  0
 19 20  2  0
 19 21  1  0
 21 22  2  0
 22 23  1  0
 23 24  2  0
 24 25  1  0
 25 26  2  0
 26 27  1  0
 27 28  2  0
 28 29  1  0
 29 30  2  0
  5 31  1  0
 31 32  2  0
 32  2  1  0
 14  9  1  0
 30 21  1  0
 29 24  1  0
  1 33  1  0
  1 34  1  0
  1 35  1  0
  3 36  1  0
  4 37  1  0
  6 38  1  0
  9 39  1  6
 10 40  1  0
 10 41  1  0
 11 42  1  1
 12 43  1  0
 13 44  1  0
 13 45  1  0
 17 46  1  0
 17 47  1  0
 18 48  1  0
 22 49  1  0
 23 50  1  0
 25 51  1  0
 26 52  1  0
 27 53  1  0
 28 54  1  0
 31 55  1  0
 32 56  1  0
M  END
>  <smiles>  (26) 
Cc1ccc(NC(=O)[C@H]2C[C@H](O)CN2C(=O)CNC(=O)c2ccc3ccccc3n2)cc1

>  <score_type>  (26) 
oracle

>  <origin>  (26) 
autodockgpu

>  <m_score__min__energy>  (26) 
-9.4600000000000009

>  <m_primary>  (26) 
energy

>  <rmsd>  (26) 
5.404536051154051

>  <m_score__min__rmsd>  (26) 
5.404536051154051

>  <meeko>  (26) 
{"free_energy": -7.46, "intermolecular_energy": -9.55, "internal_energy": -2.62, "cluster_size": 2, "cluster_id": 8, "rank_in_cluster": 1}

>  <energy>  (26) 
-8.05

>  <cluster_rmsd>  (26) 
0.26

>  <cluster>  (26) 
3

$$$$

     RDKit          3D

 56 59  0  0  0  0  0  0  0  0999 V2000
  140.7810   81.0600  223.5690 C   0  0  0  0  0  0  0  0  0  0  0  0
  141.0800   79.9070  222.6790 C   0  0  0  0  0  0  0  0  0  0  0  0
  140.8800   78.6000  223.0810 C   0  0  0  0  0  0  0  0  0  0  0  0
  141.1550   77.5160  222.2630 C   0  0  0  0  0  0  0  0  0  0  0  0
  141.6470   77.7710  220.9990 C   0  0  0  0  0  0  0  0  0  0  0  0
  141.9640   76.7240  220.0750 N   0  0  0  0  0  0  0  0  0  0  0  0
  141.8750   75.3560  220.4420 C   0  0  0  0  0  0  0  0  0  0  0  0
  141.5170   74.9960  221.5930 O   0  0  0  0  0  0  0  0  0  0  0  0
  142.2320   74.3460  219.3910 C   0  0  1  0  0  0  0  0  0  0  0  0
  143.6560   74.7070  218.9780 C   0  0  0  0  0  0  0  0  0  0  0  0
  144.4070   74.2830  220.2330 C   0  0  2  0  0  0  0  0  0  0  0  0
  145.7160   73.9270  219.9780 O   0  0  0  0  0  0  0  0  0  0  0  0
  143.6240   73.1010  220.7440 C   0  0  0  0  0  0  0  0  0  0  0  0
  142.4120   73.0350  219.9390 N   0  0  0  0  0  0  0  0  0  0  0  0
  141.6490   71.8470  219.8050 C   0  0  0  0  0  0  0  0  0  0  0  0
  142.1950   70.8650  219.2360 O   0  0  0  0  0  0  0  0  0  0  0  0
  140.2550   71.8090  220.3330 C   0  0  0  0  0  0  0  0  0  0  0  0
  140.2190   71.0810  221.5840 N   0  0  0  0  0  0  0  0  0  0  0  0
  140.3750   71.8330  222.7780 C   0  0  0  0  0  0  0  0  0  0  0  0
  140.5360   73.0820  222.7170 O   0  0  0  0  0  0  0  0  0  0  0  0
  140.3490   71.1690  224.0700 C   0  0  0  0  0  0  0  0  0  0  0  0
  140.7260   71.8480  225.2100 C   0  0  0  0  0  0  0  0  0  0  0  0
  140.7330   71.3020  226.4640 C   0  0  0  0  0  0  0  0  0  0  0  0
  140.3310   69.9770  226.5780 C   0  0  0  0  0  0  0  0  0  0  0  0
  140.3350   69.4190  227.8400 C   0  0  0  0  0  0  0  0  0  0  0  0
  139.9390   68.1030  227.9710 C   0  0  0  0  0  0  0  0  0  0  0  0
  139.5480   67.3710  226.8480 C   0  0  0  0  0  0  0  0  0  0  0  0
  139.5550   67.9620  225.5920 C   0  0  0  0  0  0  0  0  0  0  0  0
  139.9510   69.2820  225.4480 C   0  0  0  0  0  0  0  0  0  0  0  0
  139.9670   69.8850  224.2310 N   0  0  0  0  0  0  0  0  0  0  0  0
  141.8670   79.0610  220.5460 C   0  0  0  0  0  0  0  0  0  0  0  0
  141.5760   80.1030  221.4040 C   0  0  0  0  0  0  0  0  0  0  0  0
  140.8631   80.7434  224.6193 H   0  0  0  0  0  0  0  0  0  0  0  0
  141.4988   81.8702  223.3731 H   0  0  0  0  0  0  0  0  0  0  0  0
  139.7600   81.4193  223.3731 H   0  0  0  0  0  0  0  0  0  0  0  0
  140.4867   78.4127  224.0910 H   0  0  0  0  0  0  0  0  0  0  0  0
  140.9867   76.4857  222.6097 H   0  0  0  0  0  0  0  0  0  0  0  0
  142.2670   77.0170  219.1050 H   0  0  0  0  0  0  0  0  0  0  0  0
  141.4501   74.3515  218.6173 H   0  0  0  0  0  0  0  0  0  0  0  0
  143.9821   74.1383  218.0947 H   0  0  0  0  0  0  0  0  0  0  0  0
  143.8019   75.7561  218.6813 H   0  0  0  0  0  0  0  0  0  0  0  0
  144.4766   75.1083  220.9569 H   0  0  0  0  0  0  0  0  0  0  0  0
  145.9270   74.2260  219.0550 H   0  0  0  0  0  0  0  0  0  0  0  0
  144.2095   72.1771  220.6275 H   0  0  0  0  0  0  0  0  0  0  0  0
  143.3886   73.2092  221.8131 H   0  0  0  0  0  0  0  0  0  0  0  0
  139.9003   72.8369  220.4993 H   0  0  0  0  0  0  0  0  0  0  0  0
  139.6059   71.3040  219.6025 H   0  0  0  0  0  0  0  0  0  0  0  0
  140.0850   70.0440  221.6380 H   0  0  0  0  0  0  0  0  0  0  0  0
  141.0414   72.8964  225.1037 H   0  0  0  0  0  0  0  0  0  0  0  0
  141.0431   71.8859  227.3431 H   0  0  0  0  0  0  0  0  0  0  0  0
  140.6450   70.0062  228.7170 H   0  0  0  0  0  0  0  0  0  0  0  0
  139.9314   67.6293  228.9637 H   0  0  0  0  0  0  0  0  0  0  0  0
  139.2335   66.3228  226.9590 H   0  0  0  0  0  0  0  0  0  0  0  0
  139.2458   67.3818  224.7101 H   0  0  0  0  0  0  0  0  0  0  0  0
  142.2605   79.2493  219.5362 H   0  0  0  0  0  0  0  0  0  0  0  0
  141.7462   81.1332  221.0579 H   0  0  0  0  0  0  0  0  0  0  0  0
  1  2  1  0
  2  3  2  0
  3  4  1  0
  4  5  2  0
  5  6  1  0
  6  7  1  0
  7  8  2  0
  7  9  1  0
  9 10  1  0
 10 11  1  0
 11 12  1  0
 11 13  1  0
 13 14  1  0
 14 15  1  0
 15 16  2  0
 15 17  1  0
 17 18  1  0
 18 19  1  0
 19 20  2  0
 19 21  1  0
 21 22  2  0
 22 23  1  0
 23 24  2  0
 24 25  1  0
 25 26  2  0
 26 27  1  0
 27 28  2  0
 28 29  1  0
 29 30  2  0
  5 31  1  0
 31 32  2  0
 32  2  1  0
 14  9  1  0
 30 21  1  0
 29 24  1  0
  1 33  1  0
  1 34  1  0
  1 35  1  0
  3 36  1  0
  4 37  1  0
  6 38  1  0
  9 39  1  6
 10 40  1  0
 10 41  1  0
 11 42  1  1
 12 43  1  0
 13 44  1  0
 13 45  1  0
 17 46  1  0
 17 47  1  0
 18 48  1  0
 22 49  1  0
 23 50  1  0
 25 51  1  0
 26 52  1  0
 27 53  1  0
 28 54  1  0
 31 55  1  0
 32 56  1  0
M  END
>  <smiles>  (27) 
Cc1ccc(NC(=O)[C@H]2C[C@H](O)CN2C(=O)CNC(=O)c2ccc3ccccc3n2)cc1

>  <score_type>  (27) 
oracle

>  <origin>  (27) 
autodockgpu

>  <m_score__min__energy>  (27) 
-9.4600000000000009

>  <m_primary>  (27) 
energy

>  <rmsd>  (27) 
3.7867890132084443

>  <m_score__min__rmsd>  (27) 
3.7867890132084443

>  <meeko>  (27) 
{"free_energy": -8.94, "intermolecular_energy": -11.02, "internal_energy": -1.57, "cluster_size": 16, "cluster_id": 1, "rank_in_cluster": 4}

>  <energy>  (27) 
-8.03

>  <cluster_rmsd>  (27) 
0.0

>  <cluster>  (27) 
4

$$$$

     RDKit          3D

 56 59  0  0  0  0  0  0  0  0999 V2000
  142.5540   81.9160  224.5270 C   0  0  0  0  0  0  0  0  0  0  0  0
  142.2910   80.7340  223.6630 C   0  0  0  0  0  0  0  0  0  0  0  0
  142.4150   80.7910  222.2880 C   0  0  0  0  0  0  0  0  0  0  0  0
  142.1740   79.6980  221.4700 C   0  0  0  0  0  0  0  0  0  0  0  0
  141.7960   78.5150  222.0720 C   0  0  0  0  0  0  0  0  0  0  0  0
  141.5230   77.3270  221.3200 N   0  0  0  0  0  0  0  0  0  0  0  0
  140.6590   77.3410  220.1940 C   0  0  0  0  0  0  0  0  0  0  0  0
  140.0910   78.3930  219.8030 O   0  0  0  0  0  0  0  0  0  0  0  0
  140.4480   76.0360  219.4840 C   0  0  1  0  0  0  0  0  0  0  0  0
  140.8910   76.3020  218.0480 C   0  0  0  0  0  0  0  0  0  0  0  0
  142.3940   76.4240  218.2570 C   0  0  2  0  0  0  0  0  0  0  0  0
  143.1200   76.0790  217.1350 O   0  0  0  0  0  0  0  0  0  0  0  0
  142.6820   75.4720  219.3890 C   0  0  0  0  0  0  0  0  0  0  0  0
  141.3880   75.0370  219.8970 N   0  0  0  0  0  0  0  0  0  0  0  0
  141.2240   73.8410  220.6400 C   0  0  0  0  0  0  0  0  0  0  0  0
  142.2590   73.1820  220.9210 O   0  0  0  0  0  0  0  0  0  0  0  0
  139.8550   73.4190  221.0530 C   0  0  0  0  0  0  0  0  0  0  0  0
  139.8700   72.9610  222.4270 N   0  0  0  0  0  0  0  0  0  0  0  0
  140.2830   71.6230  222.6610 C   0  0  0  0  0  0  0  0  0  0  0  0
  140.6170   70.8890  221.6920 O   0  0  0  0  0  0  0  0  0  0  0  0
  140.3230   71.0960  224.0150 C   0  0  0  0  0  0  0  0  0  0  0  0
  140.7590   71.8870  225.0580 C   0  0  0  0  0  0  0  0  0  0  0  0
  140.8300   71.4730  226.3600 C   0  0  0  0  0  0  0  0  0  0  0  0
  140.4330   70.1700  226.6310 C   0  0  0  0  0  0  0  0  0  0  0  0
  140.5020   69.7440  227.9410 C   0  0  0  0  0  0  0  0  0  0  0  0
  140.1130   68.4520  228.2280 C   0  0  0  0  0  0  0  0  0  0  0  0
  139.6630   67.6100  227.2080 C   0  0  0  0  0  0  0  0  0  0  0  0
  139.6060   68.0680  225.8990 C   0  0  0  0  0  0  0  0  0  0  0  0
  139.9950   69.3640  225.6000 C   0  0  0  0  0  0  0  0  0  0  0  0
  139.9490   69.8370  224.3280 N   0  0  0  0  0  0  0  0  0  0  0  0
  141.6560   78.4040  223.4450 C   0  0  0  0  0  0  0  0  0  0  0  0
  141.9090   79.5250  224.2100 C   0  0  0  0  0  0  0  0  0  0  0  0
  142.4880   81.6194  225.5842 H   0  0  0  0  0  0  0  0  0  0  0  0
  143.5609   82.3063  224.3179 H   0  0  0  0  0  0  0  0  0  0  0  0
  141.8075   82.6964  224.3179 H   0  0  0  0  0  0  0  0  0  0  0  0
  142.7170   81.7415  221.8239 H   0  0  0  0  0  0  0  0  0  0  0  0
  142.2805   79.7712  220.3776 H   0  0  0  0  0  0  0  0  0  0  0  0
  141.9960   76.4370  221.6420 H   0  0  0  0  0  0  0  0  0  0  0  0
  139.4127   75.7059  219.6549 H   0  0  0  0  0  0  0  0  0  0  0  0
  140.6377   75.4652  217.3804 H   0  0  0  0  0  0  0  0  0  0  0  0
  140.4165   77.1711  217.5688 H   0  0  0  0  0  0  0  0  0  0  0  0
  142.6857   77.4626  218.4719 H   0  0  0  0  0  0  0  0  0  0  0  0
  142.4950   75.6290  216.5080 H   0  0  0  0  0  0  0  0  0  0  0  0
  143.2574   74.6087  219.0235 H   0  0  0  0  0  0  0  0  0  0  0  0
  143.2783   75.9561  220.1765 H   0  0  0  0  0  0  0  0  0  0  0  0
  139.1676   74.2729  220.9614 H   0  0  0  0  0  0  0  0  0  0  0  0
  139.5193   72.5977  220.4028 H   0  0  0  0  0  0  0  0  0  0  0  0
  139.5940   73.5670  223.2350 H   0  0  0  0  0  0  0  0  0  0  0  0
  141.0695   72.9169  224.8278 H   0  0  0  0  0  0  0  0  0  0  0  0
  141.1858   72.1425  227.1570 H   0  0  0  0  0  0  0  0  0  0  0  0
  140.8577   70.4164  228.7356 H   0  0  0  0  0  0  0  0  0  0  0  0
  140.1573   68.0834  229.2635 H   0  0  0  0  0  0  0  0  0  0  0  0
  139.3529   66.5811  227.4430 H   0  0  0  0  0  0  0  0  0  0  0  0
  139.2519   67.4019  225.0985 H   0  0  0  0  0  0  0  0  0  0  0  0
  141.3534   77.4545  223.9106 H   0  0  0  0  0  0  0  0  0  0  0  0
  141.8017   79.4520  225.3023 H   0  0  0  0  0  0  0  0  0  0  0  0
  1  2  1  0
  2  3  2  0
  3  4  1  0
  4  5  2  0
  5  6  1  0
  6  7  1  0
  7  8  2  0
  7  9  1  0
  9 10  1  0
 10 11  1  0
 11 12  1  0
 11 13  1  0
 13 14  1  0
 14 15  1  0
 15 16  2  0
 15 17  1  0
 17 18  1  0
 18 19  1  0
 19 20  2  0
 19 21  1  0
 21 22  2  0
 22 23  1  0
 23 24  2  0
 24 25  1  0
 25 26  2  0
 26 27  1  0
 27 28  2  0
 28 29  1  0
 29 30  2  0
  5 31  1  0
 31 32  2  0
 32  2  1  0
 14  9  1  0
 30 21  1  0
 29 24  1  0
  1 33  1  0
  1 34  1  0
  1 35  1  0
  3 36  1  0
  4 37  1  0
  6 38  1  0
  9 39  1  6
 10 40  1  0
 10 41  1  0
 11 42  1  1
 12 43  1  0
 13 44  1  0
 13 45  1  0
 17 46  1  0
 17 47  1  0
 18 48  1  0
 22 49  1  0
 23 50  1  0
 25 51  1  0
 26 52  1  0
 27 53  1  0
 28 54  1  0
 31 55  1  0
 32 56  1  0
M  END
>  <smiles>  (28) 
Cc1ccc(NC(=O)[C@H]2C[C@H](O)CN2C(=O)CNC(=O)c2ccc3ccccc3n2)cc1

>  <score_type>  (28) 
oracle

>  <origin>  (28) 
autodockgpu

>  <m_score__min__energy>  (28) 
-9.4600000000000009

>  <m_primary>  (28) 
energy

>  <rmsd>  (28) 
2.9345037316514984

>  <m_score__min__rmsd>  (28) 
2.9345037316514984

>  <meeko>  (28) 
{"free_energy": -8.69, "intermolecular_energy": -10.78, "internal_energy": -1.45, "cluster_size": 16, "cluster_id": 1, "rank_in_cluster": 9}

>  <energy>  (28) 
-7.53

>  <cluster_rmsd>  (28) 
0.0

>  <cluster>  (28) 
5

$$$$

     RDKit          3D

 56 59  0  0  0  0  0  0  0  0999 V2000
  141.0550   82.9590  220.3680 C   0  0  0  0  0  0  0  0  0  0  0  0
  141.0750   81.5700  219.8400 C   0  0  0  0  0  0  0  0  0  0  0  0
  142.1470   81.0760  219.1180 C   0  0  0  0  0  0  0  0  0  0  0  0
  142.1800   79.7830  218.6200 C   0  0  0  0  0  0  0  0  0  0  0  0
  141.0910   78.9710  218.8640 C   0  0  0  0  0  0  0  0  0  0  0  0
  141.0240   77.6200  218.3940 N   0  0  0  0  0  0  0  0  0  0  0  0
  141.7590   76.5780  219.0180 C   0  0  0  0  0  0  0  0  0  0  0  0
  142.5030   76.7880  220.0090 O   0  0  0  0  0  0  0  0  0  0  0  0
  141.6100   75.2020  218.4380 C   0  0  1  0  0  0  0  0  0  0  0  0
  142.3100   75.2760  217.0840 C   0  0  0  0  0  0  0  0  0  0  0  0
  143.7580   75.3800  217.5440 C   0  0  2  0  0  0  0  0  0  0  0  0
  144.6510   74.8780  216.6180 O   0  0  0  0  0  0  0  0  0  0  0  0
  143.7960   74.5680  218.8130 C   0  0  0  0  0  0  0  0  0  0  0  0
  142.4130   74.2350  219.1270 N   0  0  0  0  0  0  0  0  0  0  0  0
  142.0610   73.1460  219.9630 C   0  0  0  0  0  0  0  0  0  0  0  0
  142.4440   71.9970  219.6150 O   0  0  0  0  0  0  0  0  0  0  0  0
  141.2660   73.3980  221.1980 C   0  0  0  0  0  0  0  0  0  0  0  0
  141.3980   74.7830  221.5990 N   0  0  0  0  0  0  0  0  0  0  0  0
  140.2100   75.4700  221.9630 C   0  0  0  0  0  0  0  0  0  0  0  0
  139.1020   74.8700  221.9280 O   0  0  0  0  0  0  0  0  0  0  0  0
  140.2670   76.8620  222.3750 C   0  0  0  0  0  0  0  0  0  0  0  0
  139.1050   77.5600  222.6360 C   0  0  0  0  0  0  0  0  0  0  0  0
  139.0660   78.8700  223.0280 C   0  0  0  0  0  0  0  0  0  0  0  0
  140.2830   79.5240  223.1680 C   0  0  0  0  0  0  0  0  0  0  0  0
  140.2520   80.8450  223.5620 C   0  0  0  0  0  0  0  0  0  0  0  0
  141.4530   81.5100  223.7050 C   0  0  0  0  0  0  0  0  0  0  0  0
  142.6570   80.8510  223.4530 C   0  0  0  0  0  0  0  0  0  0  0  0
  142.6540   79.5200  223.0570 C   0  0  0  0  0  0  0  0  0  0  0  0
  141.4550   78.8420  222.9110 C   0  0  0  0  0  0  0  0  0  0  0  0
  141.4240   77.5400  222.5240 N   0  0  0  0  0  0  0  0  0  0  0  0
  139.9930   79.4150  219.5800 C   0  0  0  0  0  0  0  0  0  0  0  0
  140.0140   80.7120  220.0530 C   0  0  0  0  0  0  0  0  0  0  0  0
  141.0554   82.9333  221.4677 H   0  0  0  0  0  0  0  0  0  0  0  0
  141.9455   83.4989  220.0136 H   0  0  0  0  0  0  0  0  0  0  0  0
  140.1494   83.4730  220.0136 H   0  0  0  0  0  0  0  0  0  0  0  0
  143.0073   81.7357  218.9318 H   0  0  0  0  0  0  0  0  0  0  0  0
  143.0457   79.4160  218.0491 H   0  0  0  0  0  0  0  0  0  0  0  0
  140.4010   77.4330  217.5600 H   0  0  0  0  0  0  0  0  0  0  0  0
  140.5456   74.9252  218.4571 H   0  0  0  0  0  0  0  0  0  0  0  0
  142.1358   74.3708  216.4838 H   0  0  0  0  0  0  0  0  0  0  0  0
  141.9707   76.0925  216.4296 H   0  0  0  0  0  0  0  0  0  0  0  0
  144.0593   76.4285  217.6851 H   0  0  0  0  0  0  0  0  0  0  0  0
  145.5540   74.9220  217.0280 H   0  0  0  0  0  0  0  0  0  0  0  0
  144.3835   73.6506  218.6607 H   0  0  0  0  0  0  0  0  0  0  0  0
  144.2681   75.1293  219.6328 H   0  0  0  0  0  0  0  0  0  0  0  0
  140.2069   73.1753  221.0010 H   0  0  0  0  0  0  0  0  0  0  0  0
  141.6397   72.7515  222.0057 H   0  0  0  0  0  0  0  0  0  0  0  0
  142.3170   75.2840  221.6290 H   0  0  0  0  0  0  0  0  0  0  0  0
  138.1488   77.0285  222.5214 H   0  0  0  0  0  0  0  0  0  0  0  0
  138.1127   79.3827  223.2237 H   0  0  0  0  0  0  0  0  0  0  0  0
  139.2968   81.3546  223.7569 H   0  0  0  0  0  0  0  0  0  0  0  0
  141.4611   82.5642  224.0190 H   0  0  0  0  0  0  0  0  0  0  0  0
  143.6106   81.3871  223.5683 H   0  0  0  0  0  0  0  0  0  0  0  0
  143.6048   79.0035  222.8591 H   0  0  0  0  0  0  0  0  0  0  0  0
  139.1319   78.7563  219.7661 H   0  0  0  0  0  0  0  0  0  0  0  0
  139.1481   81.0778  220.6243 H   0  0  0  0  0  0  0  0  0  0  0  0
  1  2  1  0
  2  3  2  0
  3  4  1  0
  4  5  2  0
  5  6  1  0
  6  7  1  0
  7  8  2  0
  7  9  1  0
  9 10  1  0
 10 11  1  0
 11 12  1  0
 11 13  1  0
 13 14  1  0
 14 15  1  0
 15 16  2  0
 15 17  1  0
 17 18  1  0
 18 19  1  0
 19 20  2  0
 19 21  1  0
 21 22  2  0
 22 23  1  0
 23 24  2  0
 24 25  1  0
 25 26  2  0
 26 27  1  0
 27 28  2  0
 28 29  1  0
 29 30  2  0
  5 31  1  0
 31 32  2  0
 32  2  1  0
 14  9  1  0
 30 21  1  0
 29 24  1  0
  1 33  1  0
  1 34  1  0
  1 35  1  0
  3 36  1  0
  4 37  1  0
  6 38  1  0
  9 39  1  6
 10 40  1  0
 10 41  1  0
 11 42  1  1
 12 43  1  0
 13 44  1  0
 13 45  1  0
 17 46  1  0
 17 47  1  0
 18 48  1  0
 22 49  1  0
 23 50  1  0
 25 51  1  0
 26 52  1  0
 27 53  1  0
 28 54  1  0
 31 55  1  0
 32 56  1  0
M  END
>  <smiles>  (29) 
Cc1ccc(NC(=O)[C@H]2C[C@H](O)CN2C(=O)CNC(=O)c2ccc3ccccc3n2)cc1

>  <score_type>  (29) 
oracle

>  <origin>  (29) 
autodockgpu

>  <m_score__min__energy>  (29) 
-9.4600000000000009

>  <m_primary>  (29) 
energy

>  <rmsd>  (29) 
6.593754429965204

>  <m_score__min__rmsd>  (29) 
6.593754429965204

>  <meeko>  (29) 
{"free_energy": -6.37, "intermolecular_energy": -8.46, "internal_energy": -4.18, "cluster_size": 13, "cluster_id": 9, "rank_in_cluster": 7}

>  <energy>  (29) 
-7.5

>  <cluster_rmsd>  (29) 
0.0

>  <cluster>  (29) 
6

$$$$

     RDKit          3D

 56 59  0  0  0  0  0  0  0  0999 V2000
  142.5370   81.9840  224.5980 C   0  0  0  0  0  0  0  0  0  0  0  0
  142.3130   80.8300  223.6880 C   0  0  0  0  0  0  0  0  0  0  0  0
  142.3970   80.9550  222.3140 C   0  0  0  0  0  0  0  0  0  0  0  0
  142.1910   79.8880  221.4530 C   0  0  0  0  0  0  0  0  0  0  0  0
  141.8910   78.6610  222.0090 C   0  0  0  0  0  0  0  0  0  0  0  0
  141.6590   77.4950  221.2090 N   0  0  0  0  0  0  0  0  0  0  0  0
  140.9420   77.5620  219.9860 C   0  0  0  0  0  0  0  0  0  0  0  0
  140.4750   78.6430  219.5450 O   0  0  0  0  0  0  0  0  0  0  0  0
  140.7620   76.2760  219.2350 C   0  0  1  0  0  0  0  0  0  0  0  0
  141.4520   76.5130  217.8950 C   0  0  0  0  0  0  0  0  0  0  0  0
  142.9060   76.5290  218.3490 C   0  0  2  0  0  0  0  0  0  0  0  0
  143.7810   76.1360  217.3560 O   0  0  0  0  0  0  0  0  0  0  0  0
  142.9380   75.5580  219.5010 C   0  0  0  0  0  0  0  0  0  0  0  0
  141.5510   75.2130  219.7840 N   0  0  0  0  0  0  0  0  0  0  0  0
  141.1850   74.0310  220.4740 C   0  0  0  0  0  0  0  0  0  0  0  0
  142.0760   73.1600  220.6530 O   0  0  0  0  0  0  0  0  0  0  0  0
  139.7820   73.8680  220.9540 C   0  0  0  0  0  0  0  0  0  0  0  0
  139.7750   73.2660  222.2710 N   0  0  0  0  0  0  0  0  0  0  0  0
  140.0330   71.8720  222.3500 C   0  0  0  0  0  0  0  0  0  0  0  0
  140.2560   71.2140  221.2980 O   0  0  0  0  0  0  0  0  0  0  0  0
  140.0420   71.2020  223.6390 C   0  0  0  0  0  0  0  0  0  0  0  0
  139.5230   69.9300  223.7660 C   0  0  0  0  0  0  0  0  0  0  0  0
  139.4900   69.2260  224.9390 C   0  0  0  0  0  0  0  0  0  0  0  0
  140.0170   69.8480  226.0640 C   0  0  0  0  0  0  0  0  0  0  0  0
  139.9870   69.1450  227.2500 C   0  0  0  0  0  0  0  0  0  0  0  0
  140.5050   69.7480  228.3780 C   0  0  0  0  0  0  0  0  0  0  0  0
  141.0420   71.0350  228.3030 C   0  0  0  0  0  0  0  0  0  0  0  0
  141.0570   71.7160  227.0940 C   0  0  0  0  0  0  0  0  0  0  0  0
  140.5390   71.1200  225.9550 C   0  0  0  0  0  0  0  0  0  0  0  0
  140.5410   71.7640  224.7600 N   0  0  0  0  0  0  0  0  0  0  0  0
  141.7940   78.4820  223.3780 C   0  0  0  0  0  0  0  0  0  0  0  0
  142.0090   79.5790  224.1880 C   0  0  0  0  0  0  0  0  0  0  0  0
  142.4713   81.6454  225.6425 H   0  0  0  0  0  0  0  0  0  0  0  0
  143.5344   82.4091  224.4124 H   0  0  0  0  0  0  0  0  0  0  0  0
  141.7710   82.7514  224.4124 H   0  0  0  0  0  0  0  0  0  0  0  0
  142.6368   81.9399  221.8868 H   0  0  0  0  0  0  0  0  0  0  0  0
  142.2642   80.0152  220.3628 H   0  0  0  0  0  0  0  0  0  0  0  0
  142.0480   76.5810  221.5720 H   0  0  0  0  0  0  0  0  0  0  0  0
  139.6927   76.0180  219.2298 H   0  0  0  0  0  0  0  0  0  0  0  0
  141.2548   75.6973  217.1838 H   0  0  0  0  0  0  0  0  0  0  0  0
  141.1236   77.4142  217.3564 H   0  0  0  0  0  0  0  0  0  0  0  0
  143.2296   77.5442  218.6222 H   0  0  0  0  0  0  0  0  0  0  0  0
  144.6460   75.9220  217.7940 H   0  0  0  0  0  0  0  0  0  0  0  0
  143.5056   74.6573  219.2243 H   0  0  0  0  0  0  0  0  0  0  0  0
  143.4279   75.9987  220.3817 H   0  0  0  0  0  0  0  0  0  0  0  0
  139.2966   74.8540  221.0018 H   0  0  0  0  0  0  0  0  0  0  0  0
  139.2356   73.2161  220.2565 H   0  0  0  0  0  0  0  0  0  0  0  0
  139.5900   73.8100  223.1460 H   0  0  0  0  0  0  0  0  0  0  0  0
  139.1091   69.4509  222.8665 H   0  0  0  0  0  0  0  0  0  0  0  0
  139.0651   68.2126  224.9890 H   0  0  0  0  0  0  0  0  0  0  0  0
  139.5619   68.1315  227.2956 H   0  0  0  0  0  0  0  0  0  0  0  0
  140.4949   69.2133  229.3392 H   0  0  0  0  0  0  0  0  0  0  0  0
  141.4544   71.5104  229.2052 H   0  0  0  0  0  0  0  0  0  0  0  0
  141.4804   72.7298  227.0396 H   0  0  0  0  0  0  0  0  0  0  0  0
  141.5535   77.4979  223.8066 H   0  0  0  0  0  0  0  0  0  0  0  0
  141.9350   79.4513  225.2781 H   0  0  0  0  0  0  0  0  0  0  0  0
  1  2  1  0
  2  3  2  0
  3  4  1  0
  4  5  2  0
  5  6  1  0
  6  7  1  0
  7  8  2  0
  7  9  1  0
  9 10  1  0
 10 11  1  0
 11 12  1  0
 11 13  1  0
 13 14  1  0
 14 15  1  0
 15 16  2  0
 15 17  1  0
 17 18  1  0
 18 19  1  0
 19 20  2  0
 19 21  1  0
 21 22  2  0
 22 23  1  0
 23 24  2  0
 24 25  1  0
 25 26  2  0
 26 27  1  0
 27 28  2  0
 28 29  1  0
 29 30  2  0
  5 31  1  0
 31 32  2  0
 32  2  1  0
 14  9  1  0
 30 21  1  0
 29 24  1  0
  1 33  1  0
  1 34  1  0
  1 35  1  0
  3 36  1  0
  4 37  1  0
  6 38  1  0
  9 39  1  6
 10 40  1  0
 10 41  1  0
 11 42  1  1
 12 43  1  0
 13 44  1  0
 13 45  1  0
 17 46  1  0
 17 47  1  0
 18 48  1  0
 22 49  1  0
 23 50  1  0
 25 51  1  0
 26 52  1  0
 27 53  1  0
 28 54  1  0
 31 55  1  0
 32 56  1  0
M  END
>  <smiles>  (30) 
Cc1ccc(NC(=O)[C@H]2C[C@H](O)CN2C(=O)CNC(=O)c2ccc3ccccc3n2)cc1

>  <score_type>  (30) 
oracle

>  <origin>  (30) 
autodockgpu

>  <m_score__min__energy>  (30) 
-9.4600000000000009

>  <m_primary>  (30) 
energy

>  <rmsd>  (30) 
2.2363627718823973

>  <m_score__min__rmsd>  (30) 
2.2363627718823973

>  <meeko>  (30) 
{"free_energy": -9.46, "intermolecular_energy": -11.54, "internal_energy": -1.48, "cluster_size": 16, "cluster_id": 1, "rank_in_cluster": 1}

>  <energy>  (30) 
-7.49

>  <cluster_rmsd>  (30) 
0.0

>  <cluster>  (30) 
7

$$$$

     RDKit          3D

 56 59  0  0  0  0  0  0  0  0999 V2000
  141.7210   82.2150  219.0530 C   0  0  0  0  0  0  0  0  0  0  0  0
  141.8090   80.7500  218.8170 C   0  0  0  0  0  0  0  0  0  0  0  0
  142.8560   80.1840  218.1130 C   0  0  0  0  0  0  0  0  0  0  0  0
  142.9520   78.8200  217.8840 C   0  0  0  0  0  0  0  0  0  0  0  0
  141.9530   78.0110  218.3870 C   0  0  0  0  0  0  0  0  0  0  0  0
  141.9560   76.5900  218.2070 N   0  0  0  0  0  0  0  0  0  0  0  0
  142.5190   75.7190  219.1760 C   0  0  0  0  0  0  0  0  0  0  0  0
  143.0430   76.1490  220.2350 O   0  0  0  0  0  0  0  0  0  0  0  0
  142.4650   74.2490  218.8790 C   0  0  1  0  0  0  0  0  0  0  0  0
  143.7560   73.9610  218.1190 C   0  0  0  0  0  0  0  0  0  0  0  0
  144.7650   74.1210  219.2490 C   0  0  2  0  0  0  0  0  0  0  0  0
  145.9090   73.3730  219.0540 O   0  0  0  0  0  0  0  0  0  0  0  0
  144.0220   73.6460  220.4710 C   0  0  0  0  0  0  0  0  0  0  0  0
  142.6380   73.4530  220.0580 N   0  0  0  0  0  0  0  0  0  0  0  0
  141.7400   72.6170  220.7680 C   0  0  0  0  0  0  0  0  0  0  0  0
  141.7720   71.3830  220.5190 O   0  0  0  0  0  0  0  0  0  0  0  0
  140.8090   73.2210  221.7630 C   0  0  0  0  0  0  0  0  0  0  0  0
  141.0740   74.6380  221.8940 N   0  0  0  0  0  0  0  0  0  0  0  0
  139.9650   75.4850  222.1550 C   0  0  0  0  0  0  0  0  0  0  0  0
  138.8090   74.9920  222.2650 O   0  0  0  0  0  0  0  0  0  0  0  0
  140.1560   76.9190  222.2990 C   0  0  0  0  0  0  0  0  0  0  0  0
  139.0740   77.7740  222.2600 C   0  0  0  0  0  0  0  0  0  0  0  0
  139.1620   79.1330  222.3860 C   0  0  0  0  0  0  0  0  0  0  0  0
  140.4310   79.6690  222.5630 C   0  0  0  0  0  0  0  0  0  0  0  0
  140.5290   81.0400  222.6900 C   0  0  0  0  0  0  0  0  0  0  0  0
  141.7820   81.5900  222.8650 C   0  0  0  0  0  0  0  0  0  0  0  0
  142.9110   80.7690  222.9100 C   0  0  0  0  0  0  0  0  0  0  0  0
  142.7790   79.3930  222.7790 C   0  0  0  0  0  0  0  0  0  0  0  0
  141.5250   78.8300  222.6030 C   0  0  0  0  0  0  0  0  0  0  0  0
  141.3680   77.4870  222.4710 N   0  0  0  0  0  0  0  0  0  0  0  0
  140.8830   78.5260  219.0980 C   0  0  0  0  0  0  0  0  0  0  0  0
  140.8390   79.8920  219.2960 C   0  0  0  0  0  0  0  0  0  0  0  0
  141.7092   82.4120  220.1351 H   0  0  0  0  0  0  0  0  0  0  0  0
  142.5909   82.7124  218.5992 H   0  0  0  0  0  0  0  0  0  0  0  0
  140.7978   82.6047  218.5992 H   0  0  0  0  0  0  0  0  0  0  0  0
  143.6442   80.8423  217.7189 H   0  0  0  0  0  0  0  0  0  0  0  0
  143.7962   78.3965  217.3202 H   0  0  0  0  0  0  0  0  0  0  0  0
  141.5180   76.2190  217.3190 H   0  0  0  0  0  0  0  0  0  0  0  0
  141.5099   74.0249  218.3815 H   0  0  0  0  0  0  0  0  0  0  0  0
  143.7668   72.9430  217.7024 H   0  0  0  0  0  0  0  0  0  0  0  0
  143.9330   74.6031  217.2435 H   0  0  0  0  0  0  0  0  0  0  0  0
  145.1180   75.1599  219.3269 H   0  0  0  0  0  0  0  0  0  0  0  0
  146.6460   74.0100  218.8600 H   0  0  0  0  0  0  0  0  0  0  0  0
  144.4479   72.6979  220.8312 H   0  0  0  0  0  0  0  0  0  0  0  0
  144.0966   74.3736  221.2926 H   0  0  0  0  0  0  0  0  0  0  0  0
  139.7719   73.0741  221.4271 H   0  0  0  0  0  0  0  0  0  0  0  0
  140.9584   72.7346  222.7382 H   0  0  0  0  0  0  0  0  0  0  0  0
  142.0320   75.0520  221.8040 H   0  0  0  0  0  0  0  0  0  0  0  0
  138.0758   77.3342  222.1184 H   0  0  0  0  0  0  0  0  0  0  0  0
  138.2679   79.7727  222.3488 H   0  0  0  0  0  0  0  0  0  0  0  0
  139.6326   81.6765  222.6527 H   0  0  0  0  0  0  0  0  0  0  0  0
  141.8924   82.6794  222.9695 H   0  0  0  0  0  0  0  0  0  0  0  0
  143.9074   81.2137  223.0496 H   0  0  0  0  0  0  0  0  0  0  0  0
  143.6704   78.7494  222.8150 H   0  0  0  0  0  0  0  0  0  0  0  0
  140.0938   77.8690  219.4923 H   0  0  0  0  0  0  0  0  0  0  0  0
  139.9945   80.3149  219.8598 H   0  0  0  0  0  0  0  0  0  0  0  0
  1  2  1  0
  2  3  2  0
  3  4  1  0
  4  5  2  0
  5  6  1  0
  6  7  1  0
  7  8  2  0
  7  9  1  0
  9 10  1  0
 10 11  1  0
 11 12  1  0
 11 13  1  0
 13 14  1  0
 14 15  1  0
 15 16  2  0
 15 17  1  0
 17 18  1  0
 18 19  1  0
 19 20  2  0
 19 21  1  0
 21 22  2  0
 22 23  1  0
 23 24  2  0
 24 25  1  0
 25 26  2  0
 26 27  1  0
 27 28  2  0
 28 29  1  0
 29 30  2  0
  5 31  1  0
 31 32  2  0
 32  2  1  0
 14  9  1  0
 30 21  1  0
 29 24  1  0
  1 33  1  0
  1 34  1  0
  1 35  1  0
  3 36  1  0
  4 37  1  0
  6 38  1  0
  9 39  1  6
 10 40  1  0
 10 41  1  0
 11 42  1  1
 12 43  1  0
 13 44  1  0
 13 45  1  0
 17 46  1  0
 17 47  1  0
 18 48  1  0
 22 49  1  0
 23 50  1  0
 25 51  1  0
 26 52  1  0
 27 53  1  0
 28 54  1  0
 31 55  1  0
 32 56  1  0
M  END
>  <smiles>  (31) 
Cc1ccc(NC(=O)[C@H]2C[C@H](O)CN2C(=O)CNC(=O)c2ccc3ccccc3n2)cc1

>  <score_type>  (31) 
oracle

>  <origin>  (31) 
autodockgpu

>  <m_score__min__energy>  (31) 
-9.4600000000000009

>  <m_primary>  (31) 
energy

>  <rmsd>  (31) 
6.94782482767073

>  <m_score__min__rmsd>  (31) 
6.94782482767073

>  <meeko>  (31) 
{"free_energy": -6.82, "intermolecular_energy": -8.91, "internal_energy": -3.86, "cluster_size": 13, "cluster_id": 9, "rank_in_cluster": 4}

>  <energy>  (31) 
-7.45

>  <cluster_rmsd>  (31) 
0.35

>  <cluster>  (31) 
7

$$$$

     RDKit          3D

 56 59  0  0  0  0  0  0  0  0999 V2000
  141.0240   83.0890  220.4780 C   0  0  0  0  0  0  0  0  0  0  0  0
  141.0580   81.7430  219.8490 C   0  0  0  0  0  0  0  0  0  0  0  0
  142.0190   81.3930  218.9190 C   0  0  0  0  0  0  0  0  0  0  0  0
  142.0630   80.1420  218.3240 C   0  0  0  0  0  0  0  0  0  0  0  0
  141.1000   79.2230  218.6870 C   0  0  0  0  0  0  0  0  0  0  0  0
  141.0560   77.9020  218.1320 N   0  0  0  0  0  0  0  0  0  0  0  0
  141.5980   76.7870  218.8220 C   0  0  0  0  0  0  0  0  0  0  0  0
  142.1450   76.9010  219.9490 O   0  0  0  0  0  0  0  0  0  0  0  0
  141.4940   75.4530  218.1430 C   0  0  1  0  0  0  0  0  0  0  0  0
  142.3470   75.5930  216.8860 C   0  0  0  0  0  0  0  0  0  0  0  0
  143.7340   75.6320  217.5140 C   0  0  2  0  0  0  0  0  0  0  0  0
  144.7180   75.1660  216.6660 O   0  0  0  0  0  0  0  0  0  0  0  0
  143.6100   74.7430  218.7240 C   0  0  0  0  0  0  0  0  0  0  0  0
  142.1940   74.4270  218.8560 N   0  0  0  0  0  0  0  0  0  0  0  0
  141.7290   73.2970  219.5750 C   0  0  0  0  0  0  0  0  0  0  0  0
  141.5040   72.2430  218.9230 O   0  0  0  0  0  0  0  0  0  0  0  0
  141.5260   73.3990  221.0490 C   0  0  0  0  0  0  0  0  0  0  0  0
  141.5730   74.7870  221.4610 N   0  0  0  0  0  0  0  0  0  0  0  0
  140.3660   75.3650  221.9330 C   0  0  0  0  0  0  0  0  0  0  0  0
  139.3130   74.6720  221.9810 O   0  0  0  0  0  0  0  0  0  0  0  0
  140.3390   76.7530  222.3630 C   0  0  0  0  0  0  0  0  0  0  0  0
  139.1370   77.3790  222.6240 C   0  0  0  0  0  0  0  0  0  0  0  0
  139.0190   78.6790  223.0310 C   0  0  0  0  0  0  0  0  0  0  0  0
  140.1950   79.4010  223.1880 C   0  0  0  0  0  0  0  0  0  0  0  0
  140.0840   80.7130  223.5990 C   0  0  0  0  0  0  0  0  0  0  0  0
  141.2420   81.4460  223.7580 C   0  0  0  0  0  0  0  0  0  0  0  0
  142.4850   80.8600  223.5070 C   0  0  0  0  0  0  0  0  0  0  0  0
  142.5630   79.5370  223.0950 C   0  0  0  0  0  0  0  0  0  0  0  0
  141.4060   78.7920  222.9320 C   0  0  0  0  0  0  0  0  0  0  0  0
  141.4530   77.4960  222.5290 N   0  0  0  0  0  0  0  0  0  0  0  0
  140.1150   79.5210  219.6120 C   0  0  0  0  0  0  0  0  0  0  0  0
  140.1190   80.7830  220.1730 C   0  0  0  0  0  0  0  0  0  0  0  0
  141.0267   82.9823  221.5728 H   0  0  0  0  0  0  0  0  0  0  0  0
  141.9079   83.6632  220.1634 H   0  0  0  0  0  0  0  0  0  0  0  0
  140.1122   83.6178  220.1634 H   0  0  0  0  0  0  0  0  0  0  0  0
  142.7794   82.1373  218.6400 H   0  0  0  0  0  0  0  0  0  0  0  0
  142.8398   79.8902  217.5870 H   0  0  0  0  0  0  0  0  0  0  0  0
  140.5980   77.7970  217.1840 H   0  0  0  0  0  0  0  0  0  0  0  0
  140.4300   75.2012  218.0226 H   0  0  0  0  0  0  0  0  0  0  0  0
  142.2273   74.7313  216.2128 H   0  0  0  0  0  0  0  0  0  0  0  0
  142.1002   76.4568  216.2512 H   0  0  0  0  0  0  0  0  0  0  0  0
  144.0364   76.6617  217.7556 H   0  0  0  0  0  0  0  0  0  0  0  0
  145.5910   75.4500  217.0460 H   0  0  0  0  0  0  0  0  0  0  0  0
  144.1941   73.8219  218.5813 H   0  0  0  0  0  0  0  0  0  0  0  0
  143.9944   75.2405  219.6266 H   0  0  0  0  0  0  0  0  0  0  0  0
  140.5461   72.9740  221.3120 H   0  0  0  0  0  0  0  0  0  0  0  0
  142.3240   72.8428  221.5626 H   0  0  0  0  0  0  0  0  0  0  0  0
  142.4450   75.3650  221.4220 H   0  0  0  0  0  0  0  0  0  0  0  0
  138.2141   76.7942  222.4963 H   0  0  0  0  0  0  0  0  0  0  0  0
  138.0361   79.1329  223.2255 H   0  0  0  0  0  0  0  0  0  0  0  0
  139.0993   81.1625  223.7946 H   0  0  0  0  0  0  0  0  0  0  0  0
  141.1863   82.4953  224.0835 H   0  0  0  0  0  0  0  0  0  0  0  0
  143.4049   81.4491  223.6363 H   0  0  0  0  0  0  0  0  0  0  0  0
  143.5437   79.0796  222.8977 H   0  0  0  0  0  0  0  0  0  0  0  0
  139.3540   78.7774  219.8913 H   0  0  0  0  0  0  0  0  0  0  0  0
  139.3413   81.0344  220.9092 H   0  0  0  0  0  0  0  0  0  0  0  0
  1  2  1  0
  2  3  2  0
  3  4  1  0
  4  5  2  0
  5  6  1  0
  6  7  1  0
  7  8  2  0
  7  9  1  0
  9 10  1  0
 10 11  1  0
 11 12  1  0
 11 13  1  0
 13 14  1  0
 14 15  1  0
 15 16  2  0
 15 17  1  0
 17 18  1  0
 18 19  1  0
 19 20  2  0
 19 21  1  0
 21 22  2  0
 22 23  1  0
 23 24  2  0
 24 25  1  0
 25 26  2  0
 26 27  1  0
 27 28  2  0
 28 29  1  0
 29 30  2  0
  5 31  1  0
 31 32  2  0
 32  2  1  0
 14  9  1  0
 30 21  1  0
 29 24  1  0
  1 33  1  0
  1 34  1  0
  1 35  1  0
  3 36  1  0
  4 37  1  0
  6 38  1  0
  9 39  1  6
 10 40  1  0
 10 41  1  0
 11 42  1  1
 12 43  1  0
 13 44  1  0
 13 45  1  0
 17 46  1  0
 17 47  1  0
 18 48  1  0
 22 49  1  0
 23 50  1  0
 25 51  1  0
 26 52  1  0
 27 53  1  0
 28 54  1  0
 31 55  1  0
 32 56  1  0
M  END
>  <smiles>  (32) 
Cc1ccc(NC(=O)[C@H]2C[C@H](O)CN2C(=O)CNC(=O)c2ccc3ccccc3n2)cc1

>  <score_type>  (32) 
oracle

>  <origin>  (32) 
autodockgpu

>  <m_score__min__energy>  (32) 
-9.4600000000000009

>  <m_primary>  (32) 
energy

>  <rmsd>  (32) 
6.5404452121767465

>  <m_score__min__rmsd>  (32) 
6.5404452121767465

>  <meeko>  (32) 
{"free_energy": -6.26, "intermolecular_energy": -8.34, "internal_energy": -4.04, "cluster_size": 13, "cluster_id": 9, "rank_in_cluster": 9}

>  <energy>  (32) 
-7.45

>  <cluster_rmsd>  (32) 
0.33

>  <cluster>  (32) 
7

$$$$

     RDKit          3D

 56 59  0  0  0  0  0  0  0  0999 V2000
  142.5700   82.0670  224.5680 C   0  0  0  0  0  0  0  0  0  0  0  0
  142.0970   80.8580  223.8430 C   0  0  0  0  0  0  0  0  0  0  0  0
  140.7790   80.4430  223.8950 C   0  0  0  0  0  0  0  0  0  0  0  0
  140.3230   79.3180  223.2240 C   0  0  0  0  0  0  0  0  0  0  0  0
  141.2360   78.5990  222.4800 C   0  0  0  0  0  0  0  0  0  0  0  0
  140.8690   77.4220  221.7500 N   0  0  0  0  0  0  0  0  0  0  0  0
  141.1950   77.2670  220.3770 C   0  0  0  0  0  0  0  0  0  0  0  0
  141.8190   78.1510  219.7360 O   0  0  0  0  0  0  0  0  0  0  0  0
  140.7590   75.9920  219.7160 C   0  0  1  0  0  0  0  0  0  0  0  0
  141.5390   75.9520  218.4050 C   0  0  0  0  0  0  0  0  0  0  0  0
  142.9390   75.6860  218.9420 C   0  0  2  0  0  0  0  0  0  0  0  0
  143.7410   75.0230  218.0350 O   0  0  0  0  0  0  0  0  0  0  0  0
  142.7040   74.8360  220.1640 C   0  0  0  0  0  0  0  0  0  0  0  0
  141.2650   74.8340  220.3900 N   0  0  0  0  0  0  0  0  0  0  0  0
  140.6140   73.8270  221.1460 C   0  0  0  0  0  0  0  0  0  0  0  0
  139.9350   74.1920  222.1420 O   0  0  0  0  0  0  0  0  0  0  0  0
  140.7550   72.3990  220.7390 C   0  0  0  0  0  0  0  0  0  0  0  0
  140.8940   71.5610  221.9120 N   0  0  0  0  0  0  0  0  0  0  0  0
  139.7260   71.3230  222.6830 C   0  0  0  0  0  0  0  0  0  0  0  0
  138.6270   71.8340  222.3330 O   0  0  0  0  0  0  0  0  0  0  0  0
  139.7910   70.4910  223.8730 C   0  0  0  0  0  0  0  0  0  0  0  0
  139.2320   69.2290  223.8720 C   0  0  0  0  0  0  0  0  0  0  0  0
  139.2470   68.3810  224.9450 C   0  0  0  0  0  0  0  0  0  0  0  0
  139.8680   68.8370  226.1010 C   0  0  0  0  0  0  0  0  0  0  0  0
  139.8870   67.9870  227.1880 C   0  0  0  0  0  0  0  0  0  0  0  0
  140.4980   68.4240  228.3450 C   0  0  0  0  0  0  0  0  0  0  0  0
  141.0780   69.6930  228.3990 C   0  0  0  0  0  0  0  0  0  0  0  0
  141.0420   70.5240  227.2880 C   0  0  0  0  0  0  0  0  0  0  0  0
  140.4310   70.0960  226.1200 C   0  0  0  0  0  0  0  0  0  0  0  0
  140.3810   70.8890  225.0190 N   0  0  0  0  0  0  0  0  0  0  0  0
  142.5660   78.9710  222.3940 C   0  0  0  0  0  0  0  0  0  0  0  0
  142.9650   80.0990  223.0830 C   0  0  0  0  0  0  0  0  0  0  0  0
  142.5024   81.8942  225.6522 H   0  0  0  0  0  0  0  0  0  0  0  0
  143.6152   82.2733  224.2940 H   0  0  0  0  0  0  0  0  0  0  0  0
  141.9424   82.9278  224.2940 H   0  0  0  0  0  0  0  0  0  0  0  0
  140.0640   81.0281  224.4920 H   0  0  0  0  0  0  0  0  0  0  0  0
  139.2688   79.0093  223.2830 H   0  0  0  0  0  0  0  0  0  0  0  0
  140.3440   76.6730  222.2810 H   0  0  0  0  0  0  0  0  0  0  0  0
  139.6602   75.9780  219.6666 H   0  0  0  0  0  0  0  0  0  0  0  0
  141.1924   75.1409  217.7477 H   0  0  0  0  0  0  0  0  0  0  0  0
  141.4444   76.8526  217.7805 H   0  0  0  0  0  0  0  0  0  0  0  0
  143.4721   76.6240  219.1564 H   0  0  0  0  0  0  0  0  0  0  0  0
  144.6230   75.4790  218.0350 H   0  0  0  0  0  0  0  0  0  0  0  0
  143.0636   73.8111  219.9900 H   0  0  0  0  0  0  0  0  0  0  0  0
  143.2452   75.2315  221.0362 H   0  0  0  0  0  0  0  0  0  0  0  0
  139.8622   72.0911  220.1751 H   0  0  0  0  0  0  0  0  0  0  0  0
  141.6502   72.2898  220.1091 H   0  0  0  0  0  0  0  0  0  0  0  0
  141.8040   71.1350  222.2060 H   0  0  0  0  0  0  0  0  0  0  0  0
  138.7432   68.8832  222.9492 H   0  0  0  0  0  0  0  0  0  0  0  0
  138.7879   67.3826  224.8949 H   0  0  0  0  0  0  0  0  0  0  0  0
  139.4278   66.9889  227.1334 H   0  0  0  0  0  0  0  0  0  0  0  0
  140.5284   67.7699  229.2289 H   0  0  0  0  0  0  0  0  0  0  0  0
  141.5646   70.0349  229.3244 H   0  0  0  0  0  0  0  0  0  0  0  0
  141.4990   71.5235  227.3345 H   0  0  0  0  0  0  0  0  0  0  0  0
  143.2817   78.3873  221.7965 H   0  0  0  0  0  0  0  0  0  0  0  0
  144.0196   80.4063  223.0240 H   0  0  0  0  0  0  0  0  0  0  0  0
  1  2  1  0
  2  3  2  0
  3  4  1  0
  4  5  2  0
  5  6  1  0
  6  7  1  0
  7  8  2  0
  7  9  1  0
  9 10  1  0
 10 11  1  0
 11 12  1  0
 11 13  1  0
 13 14  1  0
 14 15  1  0
 15 16  2  0
 15 17  1  0
 17 18  1  0
 18 19  1  0
 19 20  2  0
 19 21  1  0
 21 22  2  0
 22 23  1  0
 23 24  2  0
 24 25  1  0
 25 26  2  0
 26 27  1  0
 27 28  2  0
 28 29  1  0
 29 30  2  0
  5 31  1  0
 31 32  2  0
 32  2  1  0
 14  9  1  0
 30 21  1  0
 29 24  1  0
  1 33  1  0
  1 34  1  0
  1 35  1  0
  3 36  1  0
  4 37  1  0
  6 38  1  0
  9 39  1  6
 10 40  1  0
 10 41  1  0
 11 42  1  1
 12 43  1  0
 13 44  1  0
 13 45  1  0
 17 46  1  0
 17 47  1  0
 18 48  1  0
 22 49  1  0
 23 50  1  0
 25 51  1  0
 26 52  1  0
 27 53  1  0
 28 54  1  0
 31 55  1  0
 32 56  1  0
M  END
>  <smiles>  (33) 
Cc1ccc(NC(=O)[C@H]2C[C@H](O)CN2C(=O)CNC(=O)c2ccc3ccccc3n2)cc1

>  <score_type>  (33) 
oracle

>  <origin>  (33) 
autodockgpu

>  <m_score__min__energy>  (33) 
-9.4600000000000009

>  <m_primary>  (33) 
energy

>  <rmsd>  (33) 
2.5116488803878116

>  <m_score__min__rmsd>  (33) 
2.5116488803878116

>  <meeko>  (33) 
{"free_energy": -8.71, "intermolecular_energy": -10.8, "internal_energy": -1.63, "cluster_size": 16, "cluster_id": 1, "rank_in_cluster": 8}

>  <energy>  (33) 
-7.37

>  <cluster_rmsd>  (33) 
0.18

>  <cluster>  (33) 
7

$$$$

     RDKit          3D

 56 59  0  0  0  0  0  0  0  0999 V2000
  141.1140   82.8750  220.6440 C   0  0  0  0  0  0  0  0  0  0  0  0
  141.0200   81.4890  220.1120 C   0  0  0  0  0  0  0  0  0  0  0  0
  139.8520   80.7530  220.1910 C   0  0  0  0  0  0  0  0  0  0  0  0
  139.7490   79.4610  219.7000 C   0  0  0  0  0  0  0  0  0  0  0  0
  140.8670   78.9050  219.1110 C   0  0  0  0  0  0  0  0  0  0  0  0
  140.8670   77.5780  218.5710 N   0  0  0  0  0  0  0  0  0  0  0  0
  141.7160   76.5650  219.0890 C   0  0  0  0  0  0  0  0  0  0  0  0
  142.5070   76.7810  220.0430 O   0  0  0  0  0  0  0  0  0  0  0  0
  141.6300   75.2130  218.4440 C   0  0  1  0  0  0  0  0  0  0  0  0
  142.2750   75.3980  217.0740 C   0  0  0  0  0  0  0  0  0  0  0  0
  143.7290   75.5680  217.4910 C   0  0  2  0  0  0  0  0  0  0  0  0
  144.6170   75.1700  216.5110 O   0  0  0  0  0  0  0  0  0  0  0  0
  143.8620   74.6980  218.7130 C   0  0  0  0  0  0  0  0  0  0  0  0
  142.5140   74.2650  219.0550 N   0  0  0  0  0  0  0  0  0  0  0  0
  142.2580   73.1150  219.8440 C   0  0  0  0  0  0  0  0  0  0  0  0
  142.6250   72.0010  219.3860 O   0  0  0  0  0  0  0  0  0  0  0  0
  141.5780   73.2680  221.1620 C   0  0  0  0  0  0  0  0  0  0  0  0
  141.6060   74.6550  221.5770 N   0  0  0  0  0  0  0  0  0  0  0  0
  140.3750   75.2400  221.9740 C   0  0  0  0  0  0  0  0  0  0  0  0
  139.3180   74.5520  221.9550 O   0  0  0  0  0  0  0  0  0  0  0  0
  140.3280   76.6270  222.4020 C   0  0  0  0  0  0  0  0  0  0  0  0
  139.1150   77.2410  222.6450 C   0  0  0  0  0  0  0  0  0  0  0  0
  138.9790   78.5400  223.0500 C   0  0  0  0  0  0  0  0  0  0  0  0
  140.1450   79.2740  223.2220 C   0  0  0  0  0  0  0  0  0  0  0  0
  140.0160   80.5860  223.6300 C   0  0  0  0  0  0  0  0  0  0  0  0
  141.1640   81.3300  223.8050 C   0  0  0  0  0  0  0  0  0  0  0  0
  142.4160   80.7570  223.5720 C   0  0  0  0  0  0  0  0  0  0  0  0
  142.5130   79.4340  223.1620 C   0  0  0  0  0  0  0  0  0  0  0  0
  141.3660   78.6770  222.9830 C   0  0  0  0  0  0  0  0  0  0  0  0
  141.4320   77.3810  222.5820 N   0  0  0  0  0  0  0  0  0  0  0  0
  142.0600   79.5980  219.0060 C   0  0  0  0  0  0  0  0  0  0  0  0
  142.1060   80.8820  219.5130 C   0  0  0  0  0  0  0  0  0  0  0  0
  141.1121   82.8466  221.7436 H   0  0  0  0  0  0  0  0  0  0  0  0
  142.0458   83.3409  220.2909 H   0  0  0  0  0  0  0  0  0  0  0  0
  140.2536   83.4624  220.2909 H   0  0  0  0  0  0  0  0  0  0  0  0
  138.9698   81.2110  220.6621 H   0  0  0  0  0  0  0  0  0  0  0  0
  138.8076   78.8972  219.7771 H   0  0  0  0  0  0  0  0  0  0  0  0
  140.2060   77.3870  217.7680 H   0  0  0  0  0  0  0  0  0  0  0  0
  140.5858   74.8696  218.4838 H   0  0  0  0  0  0  0  0  0  0  0  0
  142.1340   74.5151  216.4332 H   0  0  0  0  0  0  0  0  0  0  0  0
  141.8640   76.2238  216.4747 H   0  0  0  0  0  0  0  0  0  0  0  0
  143.9711   76.6248  217.6770 H   0  0  0  0  0  0  0  0  0  0  0  0
  145.5310   75.3590  216.8490 H   0  0  0  0  0  0  0  0  0  0  0  0
  144.4975   73.8274  218.4934 H   0  0  0  0  0  0  0  0  0  0  0  0
  144.3292   75.2456  219.5448 H   0  0  0  0  0  0  0  0  0  0  0  0
  140.5332   72.9355  221.0734 H   0  0  0  0  0  0  0  0  0  0  0  0
  142.1023   72.6568  221.9113 H   0  0  0  0  0  0  0  0  0  0  0  0
  142.4810   75.2290  221.5940 H   0  0  0  0  0  0  0  0  0  0  0  0
  138.1999   76.6472  222.5038 H   0  0  0  0  0  0  0  0  0  0  0  0
  137.9891   78.9840  223.2316 H   0  0  0  0  0  0  0  0  0  0  0  0
  139.0244   81.0265  223.8108 H   0  0  0  0  0  0  0  0  0  0  0  0
  141.0932   82.3787  224.1293 H   0  0  0  0  0  0  0  0  0  0  0  0
  143.3280   81.3555  223.7137 H   0  0  0  0  0  0  0  0  0  0  0  0
  143.5010   78.9864  222.9791 H   0  0  0  0  0  0  0  0  0  0  0  0
  142.9427   79.1414  218.5343 H   0  0  0  0  0  0  0  0  0  0  0  0
  143.0479   81.4450  219.4363 H   0  0  0  0  0  0  0  0  0  0  0  0
  1  2  1  0
  2  3  2  0
  3  4  1  0
  4  5  2  0
  5  6  1  0
  6  7  1  0
  7  8  2  0
  7  9  1  0
  9 10  1  0
 10 11  1  0
 11 12  1  0
 11 13  1  0
 13 14  1  0
 14 15  1  0
 15 16  2  0
 15 17  1  0
 17 18  1  0
 18 19  1  0
 19 20  2  0
 19 21  1  0
 21 22  2  0
 22 23  1  0
 23 24  2  0
 24 25  1  0
 25 26  2  0
 26 27  1  0
 27 28  2  0
 28 29  1  0
 29 30  2  0
  5 31  1  0
 31 32  2  0
 32  2  1  0
 14  9  1  0
 30 21  1  0
 29 24  1  0
  1 33  1  0
  1 34  1  0
  1 35  1  0
  3 36  1  0
  4 37  1  0
  6 38  1  0
  9 39  1  6
 10 40  1  0
 10 41  1  0
 11 42  1  1
 12 43  1  0
 13 44  1  0
 13 45  1  0
 17 46  1  0
 17 47  1  0
 18 48  1  0
 22 49  1  0
 23 50  1  0
 25 51  1  0
 26 52  1  0
 27 53  1  0
 28 54  1  0
 31 55  1  0
 32 56  1  0
M  END
>  <smiles>  (34) 
Cc1ccc(NC(=O)[C@H]2C[C@H](O)CN2C(=O)CNC(=O)c2ccc3ccccc3n2)cc1

>  <score_type>  (34) 
oracle

>  <origin>  (34) 
autodockgpu

>  <m_score__min__energy>  (34) 
-9.4600000000000009

>  <m_primary>  (34) 
energy

>  <rmsd>  (34) 
6.4694781976053495

>  <m_score__min__rmsd>  (34) 
6.4694781976053495

>  <meeko>  (34) 
{"free_energy": -6.21, "intermolecular_energy": -8.3, "internal_energy": -4.28, "cluster_size": 13, "cluster_id": 9, "rank_in_cluster": 11}

>  <energy>  (34) 
-7.21

>  <cluster_rmsd>  (34) 
0.32

>  <cluster>  (34) 
7

$$$$

     RDKit          3D

 56 59  0  0  0  0  0  0  0  0999 V2000
  135.8380   84.2610  226.7520 C   0  0  0  0  0  0  0  0  0  0  0  0
  136.4630   83.2060  225.9110 C   0  0  0  0  0  0  0  0  0  0  0  0
  136.9520   82.0320  226.4530 C   0  0  0  0  0  0  0  0  0  0  0  0
  137.5360   81.0400  225.6820 C   0  0  0  0  0  0  0  0  0  0  0  0
  137.6250   81.2500  224.3210 C   0  0  0  0  0  0  0  0  0  0  0  0
  138.2110   80.2890  223.4340 N   0  0  0  0  0  0  0  0  0  0  0  0
  139.2650   80.6380  222.5510 C   0  0  0  0  0  0  0  0  0  0  0  0
  139.7360   81.8030  222.5020 O   0  0  0  0  0  0  0  0  0  0  0  0
  139.7990   79.5480  221.6690 C   0  0  1  0  0  0  0  0  0  0  0  0
  141.2490   79.9440  221.4030 C   0  0  0  0  0  0  0  0  0  0  0  0
  141.8450   79.6940  222.7810 C   0  0  2  0  0  0  0  0  0  0  0  0
  143.1910   79.3880  222.7340 O   0  0  0  0  0  0  0  0  0  0  0  0
  141.0540   78.5280  223.3140 C   0  0  0  0  0  0  0  0  0  0  0  0
  139.9620   78.3120  222.3750 N   0  0  0  0  0  0  0  0  0  0  0  0
  139.2740   77.0760  222.2750 C   0  0  0  0  0  0  0  0  0  0  0  0
  138.1070   77.0180  222.7440 O   0  0  0  0  0  0  0  0  0  0  0  0
  139.9490   75.9130  221.6300 C   0  0  0  0  0  0  0  0  0  0  0  0
  139.6090   74.6920  222.3310 N   0  0  0  0  0  0  0  0  0  0  0  0
  140.3540   73.5270  222.0040 C   0  0  0  0  0  0  0  0  0  0  0  0
  141.2670   73.5880  221.1370 O   0  0  0  0  0  0  0  0  0  0  0  0
  140.0670   72.2660  222.6680 C   0  0  0  0  0  0  0  0  0  0  0  0
  139.4390   71.2460  221.9830 C   0  0  0  0  0  0  0  0  0  0  0  0
  139.1320   70.0300  222.5280 C   0  0  0  0  0  0  0  0  0  0  0  0
  139.4820   69.8260  223.8560 C   0  0  0  0  0  0  0  0  0  0  0  0
  139.1750   68.6020  224.4130 C   0  0  0  0  0  0  0  0  0  0  0  0
  139.5150   68.3830  225.7320 C   0  0  0  0  0  0  0  0  0  0  0  0
  140.1520   69.3830  226.4700 C   0  0  0  0  0  0  0  0  0  0  0  0
  140.4470   70.6040  225.8800 C   0  0  0  0  0  0  0  0  0  0  0  0
  140.1100   70.8350  224.5570 C   0  0  0  0  0  0  0  0  0  0  0  0
  140.3870   72.0210  223.9550 N   0  0  0  0  0  0  0  0  0  0  0  0
  137.1520   82.4080  223.7270 C   0  0  0  0  0  0  0  0  0  0  0  0
  136.5790   83.3630  224.5440 C   0  0  0  0  0  0  0  0  0  0  0  0
  135.9829   84.0165  227.8147 H   0  0  0  0  0  0  0  0  0  0  0  0
  136.3071   85.2313  226.5318 H   0  0  0  0  0  0  0  0  0  0  0  0
  134.7617   84.3157  226.5318 H   0  0  0  0  0  0  0  0  0  0  0  0
  136.8743   81.8794  227.5396 H   0  0  0  0  0  0  0  0  0  0  0  0
  137.9164   80.1150  226.1399 H   0  0  0  0  0  0  0  0  0  0  0  0
  137.8210   79.3070  223.4690 H   0  0  0  0  0  0  0  0  0  0  0  0
  139.1258   79.4308  220.8070 H   0  0  0  0  0  0  0  0  0  0  0  0
  141.7125   79.3068  220.6355 H   0  0  0  0  0  0  0  0  0  0  0  0
  141.3882   80.9637  221.0147 H   0  0  0  0  0  0  0  0  0  0  0  0
  141.7825   80.5918  223.4134 H   0  0  0  0  0  0  0  0  0  0  0  0
  143.3330   78.8120  221.9380 H   0  0  0  0  0  0  0  0  0  0  0  0
  141.6891   77.6317  223.3724 H   0  0  0  0  0  0  0  0  0  0  0  0
  140.6762   78.7306  224.3270 H   0  0  0  0  0  0  0  0  0  0  0  0
  139.6203   75.8357  220.5831 H   0  0  0  0  0  0  0  0  0  0  0  0
  141.0384   76.0605  221.6690 H   0  0  0  0  0  0  0  0  0  0  0  0
  138.8520   74.6380  223.0510 H   0  0  0  0  0  0  0  0  0  0  0  0
  139.1681   71.4223  220.9316 H   0  0  0  0  0  0  0  0  0  0  0  0
  138.6298   69.2477  221.9400 H   0  0  0  0  0  0  0  0  0  0  0  0
  138.6729   67.8220  223.8218 H   0  0  0  0  0  0  0  0  0  0  0  0
  139.2834   67.4169  226.2043 H   0  0  0  0  0  0  0  0  0  0  0  0
  140.4205   69.2024  227.5213 H   0  0  0  0  0  0  0  0  0  0  0  0
  140.9492   71.3893  226.4641 H   0  0  0  0  0  0  0  0  0  0  0  0
  137.2300   82.5622  222.6407 H   0  0  0  0  0  0  0  0  0  0  0  0
  136.1988   84.2881  224.0861 H   0  0  0  0  0  0  0  0  0  0  0  0
  1  2  1  0
  2  3  2  0
  3  4  1  0
  4  5  2  0
  5  6  1  0
  6  7  1  0
  7  8  2  0
  7  9  1  0
  9 10  1  0
 10 11  1  0
 11 12  1  0
 11 13  1  0
 13 14  1  0
 14 15  1  0
 15 16  2  0
 15 17  1  0
 17 18  1  0
 18 19  1  0
 19 20  2  0
 19 21  1  0
 21 22  2  0
 22 23  1  0
 23 24  2  0
 24 25  1  0
 25 26  2  0
 26 27  1  0
 27 28  2  0
 28 29  1  0
 29 30  2  0
  5 31  1  0
 31 32  2  0
 32  2  1  0
 14  9  1  0
 30 21  1  0
 29 24  1  0
  1 33  1  0
  1 34  1  0
  1 35  1  0
  3 36  1  0
  4 37  1  0
  6 38  1  0
  9 39  1  6
 10 40  1  0
 10 41  1  0
 11 42  1  1
 12 43  1  0
 13 44  1  0
 13 45  1  0
 17 46  1  0
 17 47  1  0
 18 48  1  0
 22 49  1  0
 23 50  1  0
 25 51  1  0
 26 52  1  0
 27 53  1  0
 28 54  1  0
 31 55  1  0
 32 56  1  0
M  END
>  <smiles>  (35) 
Cc1ccc(NC(=O)[C@H]2C[C@H](O)CN2C(=O)CNC(=O)c2ccc3ccccc3n2)cc1

>  <score_type>  (35) 
oracle

>  <origin>  (35) 
autodockgpu

>  <m_score__min__energy>  (35) 
-9.4600000000000009

>  <m_primary>  (35) 
energy

>  <rmsd>  (35) 
4.38992717661018

>  <m_score__min__rmsd>  (35) 
4.38992717661018

>  <meeko>  (35) 
{"free_energy": -8.05, "intermolecular_energy": -10.14, "internal_energy": -2.04, "cluster_size": 2, "cluster_id": 3, "rank_in_cluster": 2}

>  <energy>  (35) 
-7.46

>  <cluster_rmsd>  (35) 
0.0

>  <cluster>  (35) 
8

$$$$

     RDKit          3D

 56 59  0  0  0  0  0  0  0  0999 V2000
  139.9730   69.2410  228.3490 C   0  0  0  0  0  0  0  0  0  0  0  0
  140.1740   69.8930  227.0280 C   0  0  0  0  0  0  0  0  0  0  0  0
  140.8390   71.0980  226.8990 C   0  0  0  0  0  0  0  0  0  0  0  0
  141.0340   71.7180  225.6750 C   0  0  0  0  0  0  0  0  0  0  0  0
  140.5370   71.0910  224.5500 C   0  0  0  0  0  0  0  0  0  0  0  0
  140.6830   71.6450  223.2370 N   0  0  0  0  0  0  0  0  0  0  0  0
  139.5680   72.1310  222.5070 C   0  0  0  0  0  0  0  0  0  0  0  0
  138.4000   72.0990  222.9720 O   0  0  0  0  0  0  0  0  0  0  0  0
  139.8440   72.6890  221.1410 C   0  0  1  0  0  0  0  0  0  0  0  0
  138.8620   73.8490  220.9940 C   0  0  0  0  0  0  0  0  0  0  0  0
  139.4760   74.8360  221.9780 C   0  0  2  0  0  0  0  0  0  0  0  0
  139.2000   76.1500  221.6590 O   0  0  0  0  0  0  0  0  0  0  0  0
  140.9550   74.5660  221.8900 C   0  0  0  0  0  0  0  0  0  0  0  0
  141.1050   73.3670  221.0780 N   0  0  0  0  0  0  0  0  0  0  0  0
  142.3120   73.0450  220.4070 C   0  0  0  0  0  0  0  0  0  0  0  0
  142.8120   71.9090  220.6210 O   0  0  0  0  0  0  0  0  0  0  0  0
  142.9300   74.0460  219.4920 C   0  0  0  0  0  0  0  0  0  0  0  0
  142.9030   75.3590  220.1020 N   0  0  0  0  0  0  0  0  0  0  0  0
  142.0050   76.3120  219.5530 C   0  0  0  0  0  0  0  0  0  0  0  0
  141.2740   75.9960  218.5750 O   0  0  0  0  0  0  0  0  0  0  0  0
  141.9240   77.6500  220.1140 C   0  0  0  0  0  0  0  0  0  0  0  0
  141.9480   78.7550  219.2880 C   0  0  0  0  0  0  0  0  0  0  0  0
  141.8770   80.0470  219.7300 C   0  0  0  0  0  0  0  0  0  0  0  0
  141.7750   80.2410  221.1010 C   0  0  0  0  0  0  0  0  0  0  0  0
  141.7030   81.5420  221.5550 C   0  0  0  0  0  0  0  0  0  0  0  0
  141.6020   81.7520  222.9150 C   0  0  0  0  0  0  0  0  0  0  0  0
  141.5740   80.6680  223.7950 C   0  0  0  0  0  0  0  0  0  0  0  0
  141.6480   79.3710  223.3060 C   0  0  0  0  0  0  0  0  0  0  0  0
  141.7500   79.1480  221.9430 C   0  0  0  0  0  0  0  0  0  0  0  0
  141.8240   77.8890  221.4380 N   0  0  0  0  0  0  0  0  0  0  0  0
  139.8630   69.8840  224.6220 C   0  0  0  0  0  0  0  0  0  0  0  0
  139.6980   69.3120  225.8690 C   0  0  0  0  0  0  0  0  0  0  0  0
  140.1949   69.9608  229.1507 H   0  0  0  0  0  0  0  0  0  0  0  0
  138.9294   68.9045  228.4368 H   0  0  0  0  0  0  0  0  0  0  0  0
  140.6460   68.3753  228.4368 H   0  0  0  0  0  0  0  0  0  0  0  0
  141.2294   71.5847  227.8050 H   0  0  0  0  0  0  0  0  0  0  0  0
  141.5669   72.6775  225.6023 H   0  0  0  0  0  0  0  0  0  0  0  0
  141.6620   71.6760  222.8370 H   0  0  0  0  0  0  0  0  0  0  0  0
  139.7936   71.8698  220.4087 H   0  0  0  0  0  0  0  0  0  0  0  0
  138.8503   74.2474  219.9688 H   0  0  0  0  0  0  0  0  0  0  0  0
  137.8094   73.5943  221.1868 H   0  0  0  0  0  0  0  0  0  0  0  0
  139.0662   74.7011  222.9899 H   0  0  0  0  0  0  0  0  0  0  0  0
  140.0700   76.6030  221.5020 H   0  0  0  0  0  0  0  0  0  0  0  0
  141.4692   75.4144  221.4148 H   0  0  0  0  0  0  0  0  0  0  0  0
  141.3962   74.4299  222.8884 H   0  0  0  0  0  0  0  0  0  0  0  0
  143.9727   73.7597  219.2900 H   0  0  0  0  0  0  0  0  0  0  0  0
  142.3613   74.0738  218.5508 H   0  0  0  0  0  0  0  0  0  0  0  0
  143.5080   75.6250  220.9130 H   0  0  0  0  0  0  0  0  0  0  0  0
  142.0295   78.5856  218.2042 H   0  0  0  0  0  0  0  0  0  0  0  0
  141.8997   80.8954  219.0302 H   0  0  0  0  0  0  0  0  0  0  0  0
  141.7255   82.3881  220.8524 H   0  0  0  0  0  0  0  0  0  0  0  0
  141.5433   82.7778  223.3078 H   0  0  0  0  0  0  0  0  0  0  0  0
  141.4931   80.8424  224.8781 H   0  0  0  0  0  0  0  0  0  0  0  0
  141.6256   78.5194  224.0019 H   0  0  0  0  0  0  0  0  0  0  0  0
  139.4719   69.3965  223.7168 H   0  0  0  0  0  0  0  0  0  0  0  0
  139.1646   68.3527  225.9417 H   0  0  0  0  0  0  0  0  0  0  0  0
  1  2  1  0
  2  3  2  0
  3  4  1  0
  4  5  2  0
  5  6  1  0
  6  7  1  0
  7  8  2  0
  7  9  1  0
  9 10  1  0
 10 11  1  0
 11 12  1  0
 11 13  1  0
 13 14  1  0
 14 15  1  0
 15 16  2  0
 15 17  1  0
 17 18  1  0
 18 19  1  0
 19 20  2  0
 19 21  1  0
 21 22  2  0
 22 23  1  0
 23 24  2  0
 24 25  1  0
 25 26  2  0
 26 27  1  0
 27 28  2  0
 28 29  1  0
 29 30  2  0
  5 31  1  0
 31 32  2  0
 32  2  1  0
 14  9  1  0
 30 21  1  0
 29 24  1  0
  1 33  1  0
  1 34  1  0
  1 35  1  0
  3 36  1  0
  4 37  1  0
  6 38  1  0
  9 39  1  6
 10 40  1  0
 10 41  1  0
 11 42  1  1
 12 43  1  0
 13 44  1  0
 13 45  1  0
 17 46  1  0
 17 47  1  0
 18 48  1  0
 22 49  1  0
 23 50  1  0
 25 51  1  0
 26 52  1  0
 27 53  1  0
 28 54  1  0
 31 55  1  0
 32 56  1  0
M  END
>  <smiles>  (36) 
Cc1ccc(NC(=O)[C@H]2C[C@H](O)CN2C(=O)CNC(=O)c2ccc3ccccc3n2)cc1

>  <score_type>  (36) 
oracle

>  <origin>  (36) 
autodockgpu

>  <m_score__min__energy>  (36) 
-9.4600000000000009

>  <m_primary>  (36) 
energy

>  <rmsd>  (36) 
8.990898132837735

>  <m_score__min__rmsd>  (36) 
8.990898132837735

>  <meeko>  (36) 
{"free_energy": -7.45, "intermolecular_energy": -9.54, "internal_energy": -2.89, "cluster_size": 5, "cluster_id": 7, "rank_in_cluster": 3}

>  <energy>  (36) 
-7.45

>  <cluster_rmsd>  (36) 
0.81

>  <cluster>  (36) 
8

$$$$

     RDKit          3D

 56 59  0  0  0  0  0  0  0  0999 V2000
  139.9420   69.2990  228.4470 C   0  0  0  0  0  0  0  0  0  0  0  0
  140.1180   69.8310  227.0700 C   0  0  0  0  0  0  0  0  0  0  0  0
  139.5780   69.1970  225.9660 C   0  0  0  0  0  0  0  0  0  0  0  0
  139.7340   69.6810  224.6760 C   0  0  0  0  0  0  0  0  0  0  0  0
  140.4600   70.8420  224.5080 C   0  0  0  0  0  0  0  0  0  0  0  0
  140.6810   71.4270  223.2190 N   0  0  0  0  0  0  0  0  0  0  0  0
  139.6020   71.8090  222.3810 C   0  0  0  0  0  0  0  0  0  0  0  0
  138.4020   71.6540  222.7260 O   0  0  0  0  0  0  0  0  0  0  0  0
  139.9540   72.4110  221.0520 C   0  0  1  0  0  0  0  0  0  0  0  0
  138.8090   73.3730  220.7490 C   0  0  0  0  0  0  0  0  0  0  0  0
  139.0950   74.4530  221.7840 C   0  0  2  0  0  0  0  0  0  0  0  0
  138.6330   75.6960  221.4010 O   0  0  0  0  0  0  0  0  0  0  0  0
  140.5970   74.4570  221.9000 C   0  0  0  0  0  0  0  0  0  0  0  0
  141.0690   73.3060  221.1430 N   0  0  0  0  0  0  0  0  0  0  0  0
  142.3940   73.2100  220.6470 C   0  0  0  0  0  0  0  0  0  0  0  0
  143.1390   72.3250  221.1440 O   0  0  0  0  0  0  0  0  0  0  0  0
  142.8450   74.1450  219.5770 C   0  0  0  0  0  0  0  0  0  0  0  0
  142.9120   75.4960  220.0940 N   0  0  0  0  0  0  0  0  0  0  0  0
  141.8010   76.3440  219.8420 C   0  0  0  0  0  0  0  0  0  0  0  0
  140.8120   75.9080  219.1930 O   0  0  0  0  0  0  0  0  0  0  0  0
  141.8000   77.7120  220.3310 C   0  0  0  0  0  0  0  0  0  0  0  0
  141.7850   78.7690  219.4440 C   0  0  0  0  0  0  0  0  0  0  0  0
  141.7830   80.0860  219.8160 C   0  0  0  0  0  0  0  0  0  0  0  0
  141.7960   80.3570  221.1780 C   0  0  0  0  0  0  0  0  0  0  0  0
  141.7950   81.6820  221.5610 C   0  0  0  0  0  0  0  0  0  0  0  0
  141.8090   81.9700  222.9100 C   0  0  0  0  0  0  0  0  0  0  0  0
  141.8240   80.9370  223.8500 C   0  0  0  0  0  0  0  0  0  0  0  0
  141.8260   79.6140  223.4320 C   0  0  0  0  0  0  0  0  0  0  0  0
  141.8120   79.3130  222.0790 C   0  0  0  0  0  0  0  0  0  0  0  0
  141.8130   78.0260  221.6430 N   0  0  0  0  0  0  0  0  0  0  0  0
  141.0230   71.5160  225.5780 C   0  0  0  0  0  0  0  0  0  0  0  0
  140.8350   70.9880  226.8410 C   0  0  0  0  0  0  0  0  0  0  0  0
  140.2003   70.0798  229.1775 H   0  0  0  0  0  0  0  0  0  0  0  0
  138.8950   68.9939  228.5912 H   0  0  0  0  0  0  0  0  0  0  0  0
  140.6004   68.4297  228.5912 H   0  0  0  0  0  0  0  0  0  0  0  0
  139.0020   68.2722  226.1172 H   0  0  0  0  0  0  0  0  0  0  0  0
  139.2935   69.1567  223.8152 H   0  0  0  0  0  0  0  0  0  0  0  0
  141.6870   71.5600  222.9200 H   0  0  0  0  0  0  0  0  0  0  0  0
  140.1507   71.5980  220.3376 H   0  0  0  0  0  0  0  0  0  0  0  0
  138.8652   73.7651  219.7228 H   0  0  0  0  0  0  0  0  0  0  0  0
  137.8034   72.9307  220.8046 H   0  0  0  0  0  0  0  0  0  0  0  0
  138.5825   74.2434  222.7345 H   0  0  0  0  0  0  0  0  0  0  0  0
  139.2260   76.0180  220.6720 H   0  0  0  0  0  0  0  0  0  0  0  0
  141.0090   75.3854  221.4778 H   0  0  0  0  0  0  0  0  0  0  0  0
  140.9167   74.4024  222.9511 H   0  0  0  0  0  0  0  0  0  0  0  0
  143.8413   73.8406  219.2237 H   0  0  0  0  0  0  0  0  0  0  0  0
  142.1272   74.1129  218.7441 H   0  0  0  0  0  0  0  0  0  0  0  0
  143.7310   75.8620  220.6330 H   0  0  0  0  0  0  0  0  0  0  0  0
  141.7739   78.5381  218.3686 H   0  0  0  0  0  0  0  0  0  0  0  0
  141.7716   80.8939  219.0695 H   0  0  0  0  0  0  0  0  0  0  0  0
  141.7833   82.4869  220.8114 H   0  0  0  0  0  0  0  0  0  0  0  0
  141.8084   83.0172  223.2467 H   0  0  0  0  0  0  0  0  0  0  0  0
  141.8343   81.1729  224.9244 H   0  0  0  0  0  0  0  0  0  0  0  0
  141.8387   78.8031  224.1751 H   0  0  0  0  0  0  0  0  0  0  0  0
  141.6003   72.4403  225.4280 H   0  0  0  0  0  0  0  0  0  0  0  0
  141.2760   71.5126  227.7014 H   0  0  0  0  0  0  0  0  0  0  0  0
  1  2  1  0
  2  3  2  0
  3  4  1  0
  4  5  2  0
  5  6  1  0
  6  7  1  0
  7  8  2  0
  7  9  1  0
  9 10  1  0
 10 11  1  0
 11 12  1  0
 11 13  1  0
 13 14  1  0
 14 15  1  0
 15 16  2  0
 15 17  1  0
 17 18  1  0
 18 19  1  0
 19 20  2  0
 19 21  1  0
 21 22  2  0
 22 23  1  0
 23 24  2  0
 24 25  1  0
 25 26  2  0
 26 27  1  0
 27 28  2  0
 28 29  1  0
 29 30  2  0
  5 31  1  0
 31 32  2  0
 32  2  1  0
 14  9  1  0
 30 21  1  0
 29 24  1  0
  1 33  1  0
  1 34  1  0
  1 35  1  0
  3 36  1  0
  4 37  1  0
  6 38  1  0
  9 39  1  6
 10 40  1  0
 10 41  1  0
 11 42  1  1
 12 43  1  0
 13 44  1  0
 13 45  1  0
 17 46  1  0
 17 47  1  0
 18 48  1  0
 22 49  1  0
 23 50  1  0
 25 51  1  0
 26 52  1  0
 27 53  1  0
 28 54  1  0
 31 55  1  0
 32 56  1  0
M  END
>  <smiles>  (37) 
Cc1ccc(NC(=O)[C@H]2C[C@H](O)CN2C(=O)CNC(=O)c2ccc3ccccc3n2)cc1

>  <score_type>  (37) 
oracle

>  <origin>  (37) 
autodockgpu

>  <m_score__min__energy>  (37) 
-9.4600000000000009

>  <m_primary>  (37) 
energy

>  <rmsd>  (37) 
9.076814342786928

>  <m_score__min__rmsd>  (37) 
9.076814342786928

>  <meeko>  (37) 
{"free_energy": -7.37, "intermolecular_energy": -9.46, "internal_energy": -2.92, "cluster_size": 5, "cluster_id": 7, "rank_in_cluster": 4}

>  <energy>  (37) 
-7.07

>  <cluster_rmsd>  (37) 
0.0

>  <cluster>  (37) 
9

$$$$

     RDKit          3D

 56 59  0  0  0  0  0  0  0  0999 V2000
  141.8410   82.0730  218.9740 C   0  0  0  0  0  0  0  0  0  0  0  0
  141.8470   80.5960  218.8050 C   0  0  0  0  0  0  0  0  0  0  0  0
  140.9780   79.7760  219.5000 C   0  0  0  0  0  0  0  0  0  0  0  0
  140.9710   78.3980  219.3530 C   0  0  0  0  0  0  0  0  0  0  0  0
  141.8750   77.8410  218.4710 C   0  0  0  0  0  0  0  0  0  0  0  0
  141.9520   76.4290  218.2440 N   0  0  0  0  0  0  0  0  0  0  0  0
  142.4450   75.5420  219.2360 C   0  0  0  0  0  0  0  0  0  0  0  0
  142.8390   75.9490  220.3590 O   0  0  0  0  0  0  0  0  0  0  0  0
  142.4790   74.0830  218.8860 C   0  0  1  0  0  0  0  0  0  0  0  0
  143.8060   73.8920  218.1580 C   0  0  0  0  0  0  0  0  0  0  0  0
  144.7700   74.0620  219.3250 C   0  0  2  0  0  0  0  0  0  0  0  0
  145.9580   73.3830  219.1400 O   0  0  0  0  0  0  0  0  0  0  0  0
  144.0160   73.5030  220.5040 C   0  0  0  0  0  0  0  0  0  0  0  0
  142.6590   73.2530  220.0400 N   0  0  0  0  0  0  0  0  0  0  0  0
  141.7850   72.3450  220.6900 C   0  0  0  0  0  0  0  0  0  0  0  0
  141.9550   71.1170  220.4730 O   0  0  0  0  0  0  0  0  0  0  0  0
  140.7190   72.8710  221.5890 C   0  0  0  0  0  0  0  0  0  0  0  0
  140.9310   74.2820  221.8380 N   0  0  0  0  0  0  0  0  0  0  0  0
  139.7780   75.0910  222.0180 C   0  0  0  0  0  0  0  0  0  0  0  0
  138.6310   74.5710  221.9600 O   0  0  0  0  0  0  0  0  0  0  0  0
  139.9150   76.5150  222.2720 C   0  0  0  0  0  0  0  0  0  0  0  0
  138.7980   77.3220  222.3360 C   0  0  0  0  0  0  0  0  0  0  0  0
  138.8350   78.6700  222.5700 C   0  0  0  0  0  0  0  0  0  0  0  0
  140.0860   79.2450  222.7500 C   0  0  0  0  0  0  0  0  0  0  0  0
  140.1320   80.6040  222.9850 C   0  0  0  0  0  0  0  0  0  0  0  0
  141.3660   81.1920  223.1650 C   0  0  0  0  0  0  0  0  0  0  0  0
  142.5290   80.4200  223.1090 C   0  0  0  0  0  0  0  0  0  0  0  0
  142.4490   79.0550  222.8700 C   0  0  0  0  0  0  0  0  0  0  0  0
  141.2140   78.4540  222.6880 C   0  0  0  0  0  0  0  0  0  0  0  0
  141.1080   77.1200  222.4520 N   0  0  0  0  0  0  0  0  0  0  0  0
  142.7670   78.6160  217.7500 C   0  0  0  0  0  0  0  0  0  0  0  0
  142.7290   79.9840  217.9370 C   0  0  0  0  0  0  0  0  0  0  0  0
  141.8400   82.3194  220.0461 H   0  0  0  0  0  0  0  0  0  0  0  0
  142.7374   82.4999  218.5005 H   0  0  0  0  0  0  0  0  0  0  0  0
  140.9411   82.4926  218.5005 H   0  0  0  0  0  0  0  0  0  0  0  0
  140.2630   80.2359  220.1981 H   0  0  0  0  0  0  0  0  0  0  0  0
  140.2687   77.7693  219.9200 H   0  0  0  0  0  0  0  0  0  0  0  0
  141.6230   76.0770  217.3030 H   0  0  0  0  0  0  0  0  0  0  0  0
  141.5522   73.8280  218.3512 H   0  0  0  0  0  0  0  0  0  0  0  0
  143.8840   72.8924  217.7055 H   0  0  0  0  0  0  0  0  0  0  0  0
  143.9748   74.5749  217.3124 H   0  0  0  0  0  0  0  0  0  0  0  0
  145.0647   75.1141  219.4522 H   0  0  0  0  0  0  0  0  0  0  0  0
  146.6520   74.0600  218.9260 H   0  0  0  0  0  0  0  0  0  0  0  0
  144.4810   72.5658  220.8439 H   0  0  0  0  0  0  0  0  0  0  0  0
  144.0257   74.2025  221.3529 H   0  0  0  0  0  0  0  0  0  0  0  0
  139.7379   72.7288  221.1123 H   0  0  0  0  0  0  0  0  0  0  0  0
  140.7525   72.3272  222.5446 H   0  0  0  0  0  0  0  0  0  0  0  0
  141.8820   74.7170  221.8870 H   0  0  0  0  0  0  0  0  0  0  0  0
  137.8144   76.8519  222.1895 H   0  0  0  0  0  0  0  0  0  0  0  0
  137.9148   79.2710  222.6135 H   0  0  0  0  0  0  0  0  0  0  0  0
  139.2096   81.2017  223.0276 H   0  0  0  0  0  0  0  0  0  0  0  0
  141.4351   82.2735  223.3535 H   0  0  0  0  0  0  0  0  0  0  0  0
  143.5104   80.8950  223.2546 H   0  0  0  0  0  0  0  0  0  0  0  0
  143.3667   78.4501  222.8251 H   0  0  0  0  0  0  0  0  0  0  0  0
  143.4824   78.1576  217.0513 H   0  0  0  0  0  0  0  0  0  0  0  0
  143.4315   80.6126  217.3701 H   0  0  0  0  0  0  0  0  0  0  0  0
  1  2  1  0
  2  3  2  0
  3  4  1  0
  4  5  2  0
  5  6  1  0
  6  7  1  0
  7  8  2  0
  7  9  1  0
  9 10  1  0
 10 11  1  0
 11 12  1  0
 11 13  1  0
 13 14  1  0
 14 15  1  0
 15 16  2  0
 15 17  1  0
 17 18  1  0
 18 19  1  0
 19 20  2  0
 19 21  1  0
 21 22  2  0
 22 23  1  0
 23 24  2  0
 24 25  1  0
 25 26  2  0
 26 27  1  0
 27 28  2  0
 28 29  1  0
 29 30  2  0
  5 31  1  0
 31 32  2  0
 32  2  1  0
 14  9  1  0
 30 21  1  0
 29 24  1  0
  1 33  1  0
  1 34  1  0
  1 35  1  0
  3 36  1  0
  4 37  1  0
  6 38  1  0
  9 39  1  6
 10 40  1  0
 10 41  1  0
 11 42  1  1
 12 43  1  0
 13 44  1  0
 13 45  1  0
 17 46  1  0
 17 47  1  0
 18 48  1  0
 22 49  1  0
 23 50  1  0
 25 51  1  0
 26 52  1  0
 27 53  1  0
 28 54  1  0
 31 55  1  0
 32 56  1  0
M  END
>  <smiles>  (38) 
Cc1ccc(NC(=O)[C@H]2C[C@H](O)CN2C(=O)CNC(=O)c2ccc3ccccc3n2)cc1

>  <score_type>  (38) 
oracle

>  <origin>  (38) 
autodockgpu

>  <m_score__min__energy>  (38) 
-9.4600000000000009

>  <m_primary>  (38) 
energy

>  <rmsd>  (38) 
6.728011066578967

>  <m_score__min__rmsd>  (38) 
6.728011066578967

>  <meeko>  (38) 
{"free_energy": -6.88, "intermolecular_energy": -8.97, "internal_energy": -3.77, "cluster_size": 13, "cluster_id": 9, "rank_in_cluster": 3}

>  <energy>  (38) 
-6.9

>  <cluster_rmsd>  (38) 
0.47

>  <cluster>  (38) 
9

$$$$

     RDKit          3D

 56 59  0  0  0  0  0  0  0  0999 V2000
  139.1080   79.7830  223.8780 C   0  0  0  0  0  0  0  0  0  0  0  0
  139.6180   78.6490  223.0630 C   0  0  0  0  0  0  0  0  0  0  0  0
  138.8150   77.5790  222.7140 C   0  0  0  0  0  0  0  0  0  0  0  0
  139.2770   76.5150  221.9550 C   0  0  0  0  0  0  0  0  0  0  0  0
  140.5930   76.5420  221.5420 C   0  0  0  0  0  0  0  0  0  0  0  0
  141.1700   75.4930  220.7550 N   0  0  0  0  0  0  0  0  0  0  0  0
  141.9980   75.7710  219.6370 C   0  0  0  0  0  0  0  0  0  0  0  0
  142.2650   76.9480  219.2810 O   0  0  0  0  0  0  0  0  0  0  0  0
  142.5460   74.5920  218.8880 C   0  0  1  0  0  0  0  0  0  0  0  0
  144.0530   74.8260  218.8500 C   0  0  0  0  0  0  0  0  0  0  0  0
  144.3920   74.5830  220.3150 C   0  0  2  0  0  0  0  0  0  0  0  0
  145.6870   74.1410  220.4970 O   0  0  0  0  0  0  0  0  0  0  0  0
  143.4040   73.5300  220.7470 C   0  0  0  0  0  0  0  0  0  0  0  0
  142.4590   73.3810  219.6480 N   0  0  0  0  0  0  0  0  0  0  0  0
  141.6680   72.2170  219.4760 C   0  0  0  0  0  0  0  0  0  0  0  0
  142.1970   71.2330  218.8950 O   0  0  0  0  0  0  0  0  0  0  0  0
  140.2650   72.2050  219.9790 C   0  0  0  0  0  0  0  0  0  0  0  0
  140.1840   71.4350  221.2030 N   0  0  0  0  0  0  0  0  0  0  0  0
  140.0970   72.1590  222.4210 C   0  0  0  0  0  0  0  0  0  0  0  0
  140.0920   73.4200  222.4040 O   0  0  0  0  0  0  0  0  0  0  0  0
  140.0130   71.4520  223.6880 C   0  0  0  0  0  0  0  0  0  0  0  0
  139.2780   70.2880  223.7890 C   0  0  0  0  0  0  0  0  0  0  0  0
  139.1450   69.5600  224.9400 C   0  0  0  0  0  0  0  0  0  0  0  0
  139.7980   70.0380  226.0690 C   0  0  0  0  0  0  0  0  0  0  0  0
  139.6680   69.3090  227.2330 C   0  0  0  0  0  0  0  0  0  0  0  0
  140.3080   69.7710  228.3640 C   0  0  0  0  0  0  0  0  0  0  0  0
  141.0640   70.9440  228.3160 C   0  0  0  0  0  0  0  0  0  0  0  0
  141.1750   71.6540  227.1290 C   0  0  0  0  0  0  0  0  0  0  0  0
  140.5360   71.2000  225.9860 C   0  0  0  0  0  0  0  0  0  0  0  0
  140.6280   71.8760  224.8120 N   0  0  0  0  0  0  0  0  0  0  0  0
  141.4400   77.5880  221.8650 C   0  0  0  0  0  0  0  0  0  0  0  0
  140.9270   78.6220  222.6230 C   0  0  0  0  0  0  0  0  0  0  0  0
  139.2154   79.5442  224.9464 H   0  0  0  0  0  0  0  0  0  0  0  0
  139.6847   80.6903  223.6453 H   0  0  0  0  0  0  0  0  0  0  0  0
  138.0465   79.9535  223.6453 H   0  0  0  0  0  0  0  0  0  0  0  0
  137.7682   77.5717  223.0520 H   0  0  0  0  0  0  0  0  0  0  0  0
  138.6159   75.6765  221.6907 H   0  0  0  0  0  0  0  0  0  0  0  0
  140.9500   74.5000  221.0460 H   0  0  0  0  0  0  0  0  0  0  0  0
  142.0109   74.5028  217.9311 H   0  0  0  0  0  0  0  0  0  0  0  0
  144.5614   74.1092  218.1884 H   0  0  0  0  0  0  0  0  0  0  0  0
  144.3611   75.8066  218.4583 H   0  0  0  0  0  0  0  0  0  0  0  0
  144.3271   75.5111  220.9018 H   0  0  0  0  0  0  0  0  0  0  0  0
  146.2440   74.5630  219.7930 H   0  0  0  0  0  0  0  0  0  0  0  0
  143.9208   72.5777  220.9368 H   0  0  0  0  0  0  0  0  0  0  0  0
  142.8931   73.8186  221.6774 H   0  0  0  0  0  0  0  0  0  0  0  0
  139.9398   73.2372  220.1758 H   0  0  0  0  0  0  0  0  0  0  0  0
  139.6134   71.7467  219.2204 H   0  0  0  0  0  0  0  0  0  0  0  0
  140.1880   70.3880  221.2210 H   0  0  0  0  0  0  0  0  0  0  0  0
  138.7665   69.9222  222.8865 H   0  0  0  0  0  0  0  0  0  0  0  0
  138.5474   68.6370  224.9699 H   0  0  0  0  0  0  0  0  0  0  0  0
  139.0709   68.3855  227.2583 H   0  0  0  0  0  0  0  0  0  0  0  0
  140.2225   69.2129  229.3081 H   0  0  0  0  0  0  0  0  0  0  0  0
  141.5729   71.3061  229.2215 H   0  0  0  0  0  0  0  0  0  0  0  0
  141.7708   72.5781  227.0951 H   0  0  0  0  0  0  0  0  0  0  0  0
  142.4874   77.5954  221.5289 H   0  0  0  0  0  0  0  0  0  0  0  0
  141.5889   79.4597  222.8876 H   0  0  0  0  0  0  0  0  0  0  0  0
  1  2  1  0
  2  3  2  0
  3  4  1  0
  4  5  2  0
  5  6  1  0
  6  7  1  0
  7  8  2  0
  7  9  1  0
  9 10  1  0
 10 11  1  0
 11 12  1  0
 11 13  1  0
 13 14  1  0
 14 15  1  0
 15 16  2  0
 15 17  1  0
 17 18  1  0
 18 19  1  0
 19 20  2  0
 19 21  1  0
 21 22  2  0
 22 23  1  0
 23 24  2  0
 24 25  1  0
 25 26  2  0
 26 27  1  0
 27 28  2  0
 28 29  1  0
 29 30  2  0
  5 31  1  0
 31 32  2  0
 32  2  1  0
 14  9  1  0
 30 21  1  0
 29 24  1  0
  1 33  1  0
  1 34  1  0
  1 35  1  0
  3 36  1  0
  4 37  1  0
  6 38  1  0
  9 39  1  6
 10 40  1  0
 10 41  1  0
 11 42  1  1
 12 43  1  0
 13 44  1  0
 13 45  1  0
 17 46  1  0
 17 47  1  0
 18 48  1  0
 22 49  1  0
 23 50  1  0
 25 51  1  0
 26 52  1  0
 27 53  1  0
 28 54  1  0
 31 55  1  0
 32 56  1  0
M  END
>  <smiles>  (39) 
Cc1ccc(NC(=O)[C@H]2C[C@H](O)CN2C(=O)CNC(=O)c2ccc3ccccc3n2)cc1

>  <score_type>  (39) 
oracle

>  <origin>  (39) 
autodockgpu

>  <m_score__min__energy>  (39) 
-9.4600000000000009

>  <m_primary>  (39) 
energy

>  <rmsd>  (39) 
3.3886139522044822

>  <m_score__min__rmsd>  (39) 
3.3886139522044822

>  <meeko>  (39) 
{"free_energy": -8.39, "intermolecular_energy": -10.48, "internal_energy": -2.52, "cluster_size": 8, "cluster_id": 2, "rank_in_cluster": 4}

>  <energy>  (39) 
-6.88

>  <cluster_rmsd>  (39) 
0.18

>  <cluster>  (39) 
9

$$$$

     RDKit          3D

 56 59  0  0  0  0  0  0  0  0999 V2000
  135.8930   84.0000  226.6860 C   0  0  0  0  0  0  0  0  0  0  0  0
  136.5010   83.0180  225.7510 C   0  0  0  0  0  0  0  0  0  0  0  0
  136.5540   83.2400  224.3870 C   0  0  0  0  0  0  0  0  0  0  0  0
  137.1170   82.3340  223.5030 C   0  0  0  0  0  0  0  0  0  0  0  0
  137.6420   81.1690  224.0240 C   0  0  0  0  0  0  0  0  0  0  0  0
  138.2470   80.1660  223.1980 N   0  0  0  0  0  0  0  0  0  0  0  0
  139.3190   80.4730  222.3210 C   0  0  0  0  0  0  0  0  0  0  0  0
  139.7900   81.6350  222.2240 O   0  0  0  0  0  0  0  0  0  0  0  0
  139.8730   79.3420  221.5050 C   0  0  1  0  0  0  0  0  0  0  0  0
  141.3390   79.7060  221.2870 C   0  0  0  0  0  0  0  0  0  0  0  0
  141.8720   79.5010  222.6990 C   0  0  2  0  0  0  0  0  0  0  0  0
  143.2130   79.1730  222.7220 O   0  0  0  0  0  0  0  0  0  0  0  0
  141.0390   78.3680  223.2410 C   0  0  0  0  0  0  0  0  0  0  0  0
  139.9850   78.1320  222.2640 N   0  0  0  0  0  0  0  0  0  0  0  0
  139.2830   76.9030  222.1820 C   0  0  0  0  0  0  0  0  0  0  0  0
  138.1030   76.8750  222.6210 O   0  0  0  0  0  0  0  0  0  0  0  0
  139.9570   75.7120  221.5890 C   0  0  0  0  0  0  0  0  0  0  0  0
  139.6100   74.5220  222.3380 N   0  0  0  0  0  0  0  0  0  0  0  0
  140.4060   73.3660  222.1250 C   0  0  0  0  0  0  0  0  0  0  0  0
  141.3690   73.4070  221.3110 O   0  0  0  0  0  0  0  0  0  0  0  0
  140.1160   72.1360  222.8420 C   0  0  0  0  0  0  0  0  0  0  0  0
  139.3950   71.1280  222.2340 C   0  0  0  0  0  0  0  0  0  0  0  0
  139.0770   69.9400  222.8340 C   0  0  0  0  0  0  0  0  0  0  0  0
  139.5170   69.7540  224.1380 C   0  0  0  0  0  0  0  0  0  0  0  0
  139.2000   68.5590  224.7500 C   0  0  0  0  0  0  0  0  0  0  0  0
  139.6280   68.3570  226.0460 C   0  0  0  0  0  0  0  0  0  0  0  0
  140.3610   69.3450  226.7070 C   0  0  0  0  0  0  0  0  0  0  0  0
  140.6630   70.5370  226.0630 C   0  0  0  0  0  0  0  0  0  0  0  0
  140.2390   70.7510  224.7610 C   0  0  0  0  0  0  0  0  0  0  0  0
  140.5210   71.9080  224.1090 N   0  0  0  0  0  0  0  0  0  0  0  0
  137.6150   80.8950  225.3800 C   0  0  0  0  0  0  0  0  0  0  0  0
  137.0410   81.8340  226.2150 C   0  0  0  0  0  0  0  0  0  0  0  0
  136.0865   83.6875  227.7228 H   0  0  0  0  0  0  0  0  0  0  0  0
  136.3349   84.9925  226.5137 H   0  0  0  0  0  0  0  0  0  0  0  0
  134.8076   84.0469  226.5137 H   0  0  0  0  0  0  0  0  0  0  0  0
  136.1319   84.1740  223.9877 H   0  0  0  0  0  0  0  0  0  0  0  0
  137.1446   82.5365  222.4222 H   0  0  0  0  0  0  0  0  0  0  0  0
  137.8580   79.1850  223.2730 H   0  0  0  0  0  0  0  0  0  0  0  0
  139.2359   79.2015  220.6194 H   0  0  0  0  0  0  0  0  0  0  0  0
  141.8243   79.0327  220.5652 H   0  0  0  0  0  0  0  0  0  0  0  0
  141.5113   80.7077  220.8664 H   0  0  0  0  0  0  0  0  0  0  0  0
  141.7980   80.4236  223.2935 H   0  0  0  0  0  0  0  0  0  0  0  0
  143.3860   78.5890  221.9380 H   0  0  0  0  0  0  0  0  0  0  0  0
  141.6560   77.4653  223.3613 H   0  0  0  0  0  0  0  0  0  0  0  0
  140.6212   78.6154  224.2280 H   0  0  0  0  0  0  0  0  0  0  0  0
  139.6329   75.5925  220.5447 H   0  0  0  0  0  0  0  0  0  0  0  0
  141.0466   75.8576  221.6273 H   0  0  0  0  0  0  0  0  0  0  0  0
  138.8120   74.4840  223.0140 H   0  0  0  0  0  0  0  0  0  0  0  0
  139.0542   71.2902  221.2008 H   0  0  0  0  0  0  0  0  0  0  0  0
  138.4987   69.1668  222.3070 H   0  0  0  0  0  0  0  0  0  0  0  0
  138.6218   67.7883  224.2193 H   0  0  0  0  0  0  0  0  0  0  0  0
  139.3910   67.4141  226.5606 H   0  0  0  0  0  0  0  0  0  0  0  0
  140.6997   69.1782  227.7402 H   0  0  0  0  0  0  0  0  0  0  0  0
  141.2399   71.3132  226.5870 H   0  0  0  0  0  0  0  0  0  0  0  0
  138.0364   79.9609  225.7797 H   0  0  0  0  0  0  0  0  0  0  0  0
  137.0127   81.6303  227.2956 H   0  0  0  0  0  0  0  0  0  0  0  0
  1  2  1  0
  2  3  2  0
  3  4  1  0
  4  5  2  0
  5  6  1  0
  6  7  1  0
  7  8  2  0
  7  9  1  0
  9 10  1  0
 10 11  1  0
 11 12  1  0
 11 13  1  0
 13 14  1  0
 14 15  1  0
 15 16  2  0
 15 17  1  0
 17 18  1  0
 18 19  1  0
 19 20  2  0
 19 21  1  0
 21 22  2  0
 22 23  1  0
 23 24  2  0
 24 25  1  0
 25 26  2  0
 26 27  1  0
 27 28  2  0
 28 29  1  0
 29 30  2  0
  5 31  1  0
 31 32  2  0
 32  2  1  0
 14  9  1  0
 30 21  1  0
 29 24  1  0
  1 33  1  0
  1 34  1  0
  1 35  1  0
  3 36  1  0
  4 37  1  0
  6 38  1  0
  9 39  1  6
 10 40  1  0
 10 41  1  0
 11 42  1  1
 12 43  1  0
 13 44  1  0
 13 45  1  0
 17 46  1  0
 17 47  1  0
 18 48  1  0
 22 49  1  0
 23 50  1  0
 25 51  1  0
 26 52  1  0
 27 53  1  0
 28 54  1  0
 31 55  1  0
 32 56  1  0
M  END
>  <smiles>  (40) 
Cc1ccc(NC(=O)[C@H]2C[C@H](O)CN2C(=O)CNC(=O)c2ccc3ccccc3n2)cc1

>  <score_type>  (40) 
oracle

>  <origin>  (40) 
autodockgpu

>  <m_score__min__energy>  (40) 
-9.4600000000000009

>  <m_primary>  (40) 
energy

>  <rmsd>  (40) 
4.11527004193723

>  <m_score__min__rmsd>  (40) 
4.11527004193723

>  <meeko>  (40) 
{"free_energy": -8.1, "intermolecular_energy": -10.19, "internal_energy": -2.06, "cluster_size": 2, "cluster_id": 3, "rank_in_cluster": 1}

>  <energy>  (40) 
-6.82

>  <cluster_rmsd>  (40) 
0.34

>  <cluster>  (40) 
9

$$$$

     RDKit          3D

 56 59  0  0  0  0  0  0  0  0999 V2000
  142.1940   81.9990  224.3610 C   0  0  0  0  0  0  0  0  0  0  0  0
  142.0820   80.7830  223.5130 C   0  0  0  0  0  0  0  0  0  0  0  0
  142.2200   80.8340  222.1380 C   0  0  0  0  0  0  0  0  0  0  0  0
  142.1180   79.7090  221.3350 C   0  0  0  0  0  0  0  0  0  0  0  0
  141.8680   78.5000  221.9500 C   0  0  0  0  0  0  0  0  0  0  0  0
  141.7440   77.2780  221.2120 N   0  0  0  0  0  0  0  0  0  0  0  0
  141.1930   77.2510  219.9050 C   0  0  0  0  0  0  0  0  0  0  0  0
  140.7870   78.2930  219.3300 O   0  0  0  0  0  0  0  0  0  0  0  0
  141.1130   75.9130  219.2290 C   0  0  1  0  0  0  0  0  0  0  0  0
  141.5920   76.1720  217.8040 C   0  0  0  0  0  0  0  0  0  0  0  0
  143.0720   76.4180  218.0660 C   0  0  2  0  0  0  0  0  0  0  0  0
  143.8670   76.0990  216.9830 O   0  0  0  0  0  0  0  0  0  0  0  0
  143.3870   75.5250  219.2380 C   0  0  0  0  0  0  0  0  0  0  0  0
  142.1120   75.0040  219.7100 N   0  0  0  0  0  0  0  0  0  0  0  0
  142.0110   73.8210  220.4850 C   0  0  0  0  0  0  0  0  0  0  0  0
  143.0730   73.1890  220.7250 O   0  0  0  0  0  0  0  0  0  0  0  0
  140.6740   73.3790  220.9750 C   0  0  0  0  0  0  0  0  0  0  0  0
  140.8310   72.4700  222.0920 N   0  0  0  0  0  0  0  0  0  0  0  0
  139.6510   72.0560  222.7630 C   0  0  0  0  0  0  0  0  0  0  0  0
  138.5270   72.4790  222.3780 O   0  0  0  0  0  0  0  0  0  0  0  0
  139.7330   71.1450  223.8930 C   0  0  0  0  0  0  0  0  0  0  0  0
  139.1690   69.8880  223.8160 C   0  0  0  0  0  0  0  0  0  0  0  0
  139.1980   68.9680  224.8280 C   0  0  0  0  0  0  0  0  0  0  0  0
  139.8420   69.3410  226.0010 C   0  0  0  0  0  0  0  0  0  0  0  0
  139.8760   68.4190  227.0270 C   0  0  0  0  0  0  0  0  0  0  0  0
  140.5100   68.7740  228.2000 C   0  0  0  0  0  0  0  0  0  0  0  0
  141.0980   70.0340  228.3300 C   0  0  0  0  0  0  0  0  0  0  0  0
  141.0460   70.9390  227.2780 C   0  0  0  0  0  0  0  0  0  0  0  0
  140.4110   70.5940  226.0960 C   0  0  0  0  0  0  0  0  0  0  0  0
  140.3460   71.4610  225.0520 N   0  0  0  0  0  0  0  0  0  0  0  0
  141.7200   78.3920  223.3220 C   0  0  0  0  0  0  0  0  0  0  0  0
  141.8320   79.5450  224.0730 C   0  0  0  0  0  0  0  0  0  0  0  0
  142.1674   81.7099  225.4220 H   0  0  0  0  0  0  0  0  0  0  0  0
  143.1431   82.5111  224.1442 H   0  0  0  0  0  0  0  0  0  0  0  0
  141.3544   82.6758  224.1442 H   0  0  0  0  0  0  0  0  0  0  0  0
  142.4186   81.8060  221.6627 H   0  0  0  0  0  0  0  0  0  0  0  0
  142.2326   79.7780  220.2432 H   0  0  0  0  0  0  0  0  0  0  0  0
  142.0820   76.3950  221.6870 H   0  0  0  0  0  0  0  0  0  0  0  0
  140.1006   75.5067  219.3701 H   0  0  0  0  0  0  0  0  0  0  0  0
  141.4316   75.2992  217.1540 H   0  0  0  0  0  0  0  0  0  0  0  0
  141.0714   76.9872  217.2801 H   0  0  0  0  0  0  0  0  0  0  0  0
  143.2739   77.4820  218.2588 H   0  0  0  0  0  0  0  0  0  0  0  0
  144.8010   76.0370  217.3130 H   0  0  0  0  0  0  0  0  0  0  0  0
  144.0422   74.6997  218.9226 H   0  0  0  0  0  0  0  0  0  0  0  0
  143.9112   76.0775  220.0317 H   0  0  0  0  0  0  0  0  0  0  0  0
  140.0961   74.2572  221.2986 H   0  0  0  0  0  0  0  0  0  0  0  0
  140.1439   72.8626  220.1612 H   0  0  0  0  0  0  0  0  0  0  0  0
  141.7620   72.1170  222.4140 H   0  0  0  0  0  0  0  0  0  0  0  0
  138.6633   69.6076  222.8802 H   0  0  0  0  0  0  0  0  0  0  0  0
  138.7324   67.9775  224.7179 H   0  0  0  0  0  0  0  0  0  0  0  0
  139.4108   67.4288  226.9130 H   0  0  0  0  0  0  0  0  0  0  0  0
  140.5524   68.0612  229.0367 H   0  0  0  0  0  0  0  0  0  0  0  0
  141.6032   70.3101  229.2673 H   0  0  0  0  0  0  0  0  0  0  0  0
  141.5096   71.9310  227.3833 H   0  0  0  0  0  0  0  0  0  0  0  0
  141.5200   77.4206  223.7977 H   0  0  0  0  0  0  0  0  0  0  0  0
  141.7172   79.4749  225.1647 H   0  0  0  0  0  0  0  0  0  0  0  0
  1  2  1  0
  2  3  2  0
  3  4  1  0
  4  5  2  0
  5  6  1  0
  6  7  1  0
  7  8  2  0
  7  9  1  0
  9 10  1  0
 10 11  1  0
 11 12  1  0
 11 13  1  0
 13 14  1  0
 14 15  1  0
 15 16  2  0
 15 17  1  0
 17 18  1  0
 18 19  1  0
 19 20  2  0
 19 21  1  0
 21 22  2  0
 22 23  1  0
 23 24  2  0
 24 25  1  0
 25 26  2  0
 26 27  1  0
 27 28  2  0
 28 29  1  0
 29 30  2  0
  5 31  1  0
 31 32  2  0
 32  2  1  0
 14  9  1  0
 30 21  1  0
 29 24  1  0
  1 33  1  0
  1 34  1  0
  1 35  1  0
  3 36  1  0
  4 37  1  0
  6 38  1  0
  9 39  1  6
 10 40  1  0
 10 41  1  0
 11 42  1  1
 12 43  1  0
 13 44  1  0
 13 45  1  0
 17 46  1  0
 17 47  1  0
 18 48  1  0
 22 49  1  0
 23 50  1  0
 25 51  1  0
 26 52  1  0
 27 53  1  0
 28 54  1  0
 31 55  1  0
 32 56  1  0
M  END
>  <smiles>  (41) 
Cc1ccc(NC(=O)[C@H]2C[C@H](O)CN2C(=O)CNC(=O)c2ccc3ccccc3n2)cc1

>  <score_type>  (41) 
oracle

>  <origin>  (41) 
autodockgpu

>  <m_score__min__energy>  (41) 
-9.4600000000000009

>  <m_primary>  (41) 
energy

>  <rmsd>  (41) 
2.4250454492897155

>  <m_score__min__rmsd>  (41) 
2.4250454492897155

>  <meeko>  (41) 
{"free_energy": -8.76, "intermolecular_energy": -10.85, "internal_energy": -1.79, "cluster_size": 16, "cluster_id": 1, "rank_in_cluster": 7}

>  <energy>  (41) 
-6.41

>  <cluster_rmsd>  (41) 
1.23

>  <cluster>  (41) 
9

$$$$

     RDKit          3D

 56 59  0  0  0  0  0  0  0  0999 V2000
  142.5910   81.7600  224.2450 C   0  0  0  0  0  0  0  0  0  0  0  0
  142.0680   80.6040  223.4710 C   0  0  0  0  0  0  0  0  0  0  0  0
  141.8300   80.6810  222.1110 C   0  0  0  0  0  0  0  0  0  0  0  0
  141.3420   79.6130  221.3750 C   0  0  0  0  0  0  0  0  0  0  0  0
  141.0900   78.4320  222.0450 C   0  0  0  0  0  0  0  0  0  0  0  0
  140.5850   77.2680  221.3790 N   0  0  0  0  0  0  0  0  0  0  0  0
  141.3330   76.6040  220.3730 C   0  0  0  0  0  0  0  0  0  0  0  0
  142.4710   77.0030  220.0150 O   0  0  0  0  0  0  0  0  0  0  0  0
  140.7020   75.3950  219.7460 C   0  0  1  0  0  0  0  0  0  0  0  0
  141.8750   74.4780  219.4120 C   0  0  0  0  0  0  0  0  0  0  0  0
  142.2830   74.0540  220.8170 C   0  0  2  0  0  0  0  0  0  0  0  0
  142.8930   72.8160  220.8450 O   0  0  0  0  0  0  0  0  0  0  0  0
  140.9840   74.0240  221.5790 C   0  0  0  0  0  0  0  0  0  0  0  0
  139.9800   74.6060  220.7000 N   0  0  0  0  0  0  0  0  0  0  0  0
  138.5920   74.3640  220.8600 C   0  0  0  0  0  0  0  0  0  0  0  0
  137.8310   75.3630  220.9390 O   0  0  0  0  0  0  0  0  0  0  0  0
  138.0980   72.9580  220.9280 C   0  0  0  0  0  0  0  0  0  0  0  0
  138.3220   72.4170  222.2520 N   0  0  0  0  0  0  0  0  0  0  0  0
  139.4370   71.5540  222.4200 C   0  0  0  0  0  0  0  0  0  0  0  0
  140.1820   71.2900  221.4370 O   0  0  0  0  0  0  0  0  0  0  0  0
  139.7230   70.9740  223.7210 C   0  0  0  0  0  0  0  0  0  0  0  0
  139.4420   69.6460  223.9690 C   0  0  0  0  0  0  0  0  0  0  0  0
  139.6780   69.0190  225.1620 C   0  0  0  0  0  0  0  0  0  0  0  0
  140.2370   69.7850  226.1780 C   0  0  0  0  0  0  0  0  0  0  0  0
  140.4780   69.1600  227.3840 C   0  0  0  0  0  0  0  0  0  0  0  0
  141.0310   69.9060  228.4040 C   0  0  0  0  0  0  0  0  0  0  0  0
  141.3350   71.2550  228.2060 C   0  0  0  0  0  0  0  0  0  0  0  0
  141.0800   71.8530  226.9800 C   0  0  0  0  0  0  0  0  0  0  0  0
  140.5240   71.1140  225.9480 C   0  0  0  0  0  0  0  0  0  0  0  0
  140.2640   71.6760  224.7390 N   0  0  0  0  0  0  0  0  0  0  0  0
  141.3100   78.3010  223.4050 C   0  0  0  0  0  0  0  0  0  0  0  0
  141.7970   79.3980  224.0870 C   0  0  0  0  0  0  0  0  0  0  0  0
  142.4974   81.5531  225.3213 H   0  0  0  0  0  0  0  0  0  0  0  0
  143.6496   81.9210  223.9933 H   0  0  0  0  0  0  0  0  0  0  0  0
  142.0131   82.6614  223.9933 H   0  0  0  0  0  0  0  0  0  0  0  0
  142.0365   81.6287  221.5921 H   0  0  0  0  0  0  0  0  0  0  0  0
  141.1615   79.7029  220.2936 H   0  0  0  0  0  0  0  0  0  0  0  0
  139.6290   76.9260  221.6740 H   0  0  0  0  0  0  0  0  0  0  0  0
  140.0500   75.7242  218.9235 H   0  0  0  0  0  0  0  0  0  0  0  0
  141.5612   73.6190  218.8007 H   0  0  0  0  0  0  0  0  0  0  0  0
  142.6742   74.9439  218.8168 H   0  0  0  0  0  0  0  0  0  0  0  0
  143.0261   74.7431  221.2447 H   0  0  0  0  0  0  0  0  0  0  0  0
  142.1850   72.1430  221.0230 H   0  0  0  0  0  0  0  0  0  0  0  0
  140.7145   72.9878  221.8313 H   0  0  0  0  0  0  0  0  0  0  0  0
  141.0615   74.5839  222.5227 H   0  0  0  0  0  0  0  0  0  0  0  0
  137.0211   72.9392  220.7044 H   0  0  0  0  0  0  0  0  0  0  0  0
  138.6430   72.3483  220.1923 H   0  0  0  0  0  0  0  0  0  0  0  0
  137.7070   72.6340  223.0700 H   0  0  0  0  0  0  0  0  0  0  0  0
  138.9996   69.0531  223.1549 H   0  0  0  0  0  0  0  0  0  0  0  0
  139.4361   67.9562  225.3103 H   0  0  0  0  0  0  0  0  0  0  0  0
  140.2360   68.0967  227.5282 H   0  0  0  0  0  0  0  0  0  0  0  0
  141.2336   69.4364  229.3779 H   0  0  0  0  0  0  0  0  0  0  0  0
  141.7771   71.8440  229.0230 H   0  0  0  0  0  0  0  0  0  0  0  0
  141.3197   72.9156  226.8271 H   0  0  0  0  0  0  0  0  0  0  0  0
  141.1036   77.3541  223.9254 H   0  0  0  0  0  0  0  0  0  0  0  0
  141.9771   79.3076  225.1684 H   0  0  0  0  0  0  0  0  0  0  0  0
  1  2  1  0
  2  3  2  0
  3  4  1  0
  4  5  2  0
  5  6  1  0
  6  7  1  0
  7  8  2  0
  7  9  1  0
  9 10  1  0
 10 11  1  0
 11 12  1  0
 11 13  1  0
 13 14  1  0
 14 15  1  0
 15 16  2  0
 15 17  1  0
 17 18  1  0
 18 19  1  0
 19 20  2  0
 19 21  1  0
 21 22  2  0
 22 23  1  0
 23 24  2  0
 24 25  1  0
 25 26  2  0
 26 27  1  0
 27 28  2  0
 28 29  1  0
 29 30  2  0
  5 31  1  0
 31 32  2  0
 32  2  1  0
 14  9  1  0
 30 21  1  0
 29 24  1  0
  1 33  1  0
  1 34  1  0
  1 35  1  0
  3 36  1  0
  4 37  1  0
  6 38  1  0
  9 39  1  6
 10 40  1  0
 10 41  1  0
 11 42  1  1
 12 43  1  0
 13 44  1  0
 13 45  1  0
 17 46  1  0
 17 47  1  0
 18 48  1  0
 22 49  1  0
 23 50  1  0
 25 51  1  0
 26 52  1  0
 27 53  1  0
 28 54  1  0
 31 55  1  0
 32 56  1  0
M  END
>  <smiles>  (42) 
Cc1ccc(NC(=O)[C@H]2C[C@H](O)CN2C(=O)CNC(=O)c2ccc3ccccc3n2)cc1

>  <score_type>  (42) 
oracle

>  <origin>  (42) 
autodockgpu

>  <m_score__min__energy>  (42) 
-9.4600000000000009

>  <m_primary>  (42) 
energy

>  <rmsd>  (42) 
2.434556947486179

>  <m_score__min__rmsd>  (42) 
2.434556947486179

>  <meeko>  (42) 
{"free_energy": -8.13, "intermolecular_energy": -10.22, "internal_energy": -2.61, "cluster_size": 16, "cluster_id": 1, "rank_in_cluster": 14}

>  <energy>  (42) 
-6.4

>  <cluster_rmsd>  (42) 
1.23

>  <cluster>  (42) 
9

$$$$

     RDKit          3D

 56 59  0  0  0  0  0  0  0  0999 V2000
  132.4570   72.3400  227.2500 C   0  0  0  0  0  0  0  0  0  0  0  0
  133.4400   72.7350  226.2060 C   0  0  0  0  0  0  0  0  0  0  0  0
  134.0500   71.8040  225.3860 C   0  0  0  0  0  0  0  0  0  0  0  0
  134.9680   72.1570  224.4090 C   0  0  0  0  0  0  0  0  0  0  0  0
  135.2710   73.4950  224.2640 C   0  0  0  0  0  0  0  0  0  0  0  0
  136.2050   73.9670  223.2850 N   0  0  0  0  0  0  0  0  0  0  0  0
  135.8150   74.8590  222.2540 C   0  0  0  0  0  0  0  0  0  0  0  0
  134.6340   75.2780  222.1460 O   0  0  0  0  0  0  0  0  0  0  0  0
  136.8800   75.2850  221.2860 C   0  0  1  0  0  0  0  0  0  0  0  0
  136.5640   76.7470  220.9840 C   0  0  0  0  0  0  0  0  0  0  0  0
  136.9400   77.3750  222.3200 C   0  0  2  0  0  0  0  0  0  0  0  0
  137.3310   78.6940  222.1980 O   0  0  0  0  0  0  0  0  0  0  0  0
  138.0830   76.5260  222.8130 C   0  0  0  0  0  0  0  0  0  0  0  0
  138.1660   75.3880  221.9080 N   0  0  0  0  0  0  0  0  0  0  0  0
  139.3460   74.6140  221.7620 C   0  0  0  0  0  0  0  0  0  0  0  0
  140.4480   75.1890  221.9610 O   0  0  0  0  0  0  0  0  0  0  0  0
  139.2360   73.1760  221.3850 C   0  0  0  0  0  0  0  0  0  0  0  0
  139.6750   72.3410  222.4830 N   0  0  0  0  0  0  0  0  0  0  0  0
  138.6930   71.5400  223.1240 C   0  0  0  0  0  0  0  0  0  0  0  0
  137.4970   71.5770  222.7290 O   0  0  0  0  0  0  0  0  0  0  0  0
  139.0630   70.6780  224.2340 C   0  0  0  0  0  0  0  0  0  0  0  0
  138.5910   69.3820  224.2950 C   0  0  0  0  0  0  0  0  0  0  0  0
  138.8870   68.5030  225.3010 C   0  0  0  0  0  0  0  0  0  0  0  0
  139.7160   68.9610  226.3170 C   0  0  0  0  0  0  0  0  0  0  0  0
  140.0190   68.0810  227.3350 C   0  0  0  0  0  0  0  0  0  0  0  0
  140.8410   68.5200  228.3530 C   0  0  0  0  0  0  0  0  0  0  0  0
  141.3440   69.8230  228.3380 C   0  0  0  0  0  0  0  0  0  0  0  0
  141.0200   70.6840  227.2990 C   0  0  0  0  0  0  0  0  0  0  0  0
  140.1960   70.2540  226.2720 C   0  0  0  0  0  0  0  0  0  0  0  0
  139.8640   71.0770  225.2430 N   0  0  0  0  0  0  0  0  0  0  0  0
  134.6900   74.4680  225.0590 C   0  0  0  0  0  0  0  0  0  0  0  0
  133.7820   74.0590  226.0160 C   0  0  0  0  0  0  0  0  0  0  0  0
  132.8901   72.5140  228.2460 H   0  0  0  0  0  0  0  0  0  0  0  0
  131.5421   72.9403  227.1380 H   0  0  0  0  0  0  0  0  0  0  0  0
  132.2118   71.2735  227.1380 H   0  0  0  0  0  0  0  0  0  0  0  0
  133.7970   70.7412  225.5138 H   0  0  0  0  0  0  0  0  0  0  0  0
  135.4393   71.3953  223.7704 H   0  0  0  0  0  0  0  0  0  0  0  0
  137.2010   73.6190  223.3680 H   0  0  0  0  0  0  0  0  0  0  0  0
  136.8979   74.5743  220.4466 H   0  0  0  0  0  0  0  0  0  0  0  0
  137.1804   77.1371  220.1607 H   0  0  0  0  0  0  0  0  0  0  0  0
  135.5334   76.9413  220.6523 H   0  0  0  0  0  0  0  0  0  0  0  0
  136.0824   77.3973  223.0085 H   0  0  0  0  0  0  0  0  0  0  0  0
  136.8130   79.0860  221.4480 H   0  0  0  0  0  0  0  0  0  0  0  0
  139.0212   77.0999  222.7906 H   0  0  0  0  0  0  0  0  0  0  0  0
  137.9209   76.2006  223.8512 H   0  0  0  0  0  0  0  0  0  0  0  0
  138.1884   72.9414  221.1453 H   0  0  0  0  0  0  0  0  0  0  0  0
  139.8717   72.9831  220.5082 H   0  0  0  0  0  0  0  0  0  0  0  0
  140.6680   72.3070  222.8140 H   0  0  0  0  0  0  0  0  0  0  0  0
  137.9353   69.0339  223.4833 H   0  0  0  0  0  0  0  0  0  0  0  0
  138.4860   67.4787  225.3049 H   0  0  0  0  0  0  0  0  0  0  0  0
  139.6165   67.0573  227.3355 H   0  0  0  0  0  0  0  0  0  0  0  0
  141.1009   67.8415  229.1789 H   0  0  0  0  0  0  0  0  0  0  0  0
  141.9987   70.1676  229.1520 H   0  0  0  0  0  0  0  0  0  0  0  0
  141.4181   71.7094  227.2910 H   0  0  0  0  0  0  0  0  0  0  0  0
  134.9430   75.5311  224.9328 H   0  0  0  0  0  0  0  0  0  0  0  0
  133.3110   74.8210  226.6543 H   0  0  0  0  0  0  0  0  0  0  0  0
  1  2  1  0
  2  3  2  0
  3  4  1  0
  4  5  2  0
  5  6  1  0
  6  7  1  0
  7  8  2  0
  7  9  1  0
  9 10  1  0
 10 11  1  0
 11 12  1  0
 11 13  1  0
 13 14  1  0
 14 15  1  0
 15 16  2  0
 15 17  1  0
 17 18  1  0
 18 19  1  0
 19 20  2  0
 19 21  1  0
 21 22  2  0
 22 23  1  0
 23 24  2  0
 24 25  1  0
 25 26  2  0
 26 27  1  0
 27 28  2  0
 28 29  1  0
 29 30  2  0
  5 31  1  0
 31 32  2  0
 32  2  1  0
 14  9  1  0
 30 21  1  0
 29 24  1  0
  1 33  1  0
  1 34  1  0
  1 35  1  0
  3 36  1  0
  4 37  1  0
  6 38  1  0
  9 39  1  6
 10 40  1  0
 10 41  1  0
 11 42  1  1
 12 43  1  0
 13 44  1  0
 13 45  1  0
 17 46  1  0
 17 47  1  0
 18 48  1  0
 22 49  1  0
 23 50  1  0
 25 51  1  0
 26 52  1  0
 27 53  1  0
 28 54  1  0
 31 55  1  0
 32 56  1  0
M  END
>  <smiles>  (43) 
Cc1ccc(NC(=O)[C@H]2C[C@H](O)CN2C(=O)CNC(=O)c2ccc3ccccc3n2)cc1

>  <score_type>  (43) 
oracle

>  <origin>  (43) 
autodockgpu

>  <m_score__min__energy>  (43) 
-9.4600000000000009

>  <m_primary>  (43) 
energy

>  <rmsd>  (43) 
5.826064472108293

>  <m_score__min__rmsd>  (43) 
5.826064472108293

>  <meeko>  (43) 
{"free_energy": -7.45, "intermolecular_energy": -9.53, "internal_energy": -2.85, "cluster_size": 2, "cluster_id": 8, "rank_in_cluster": 2}

>  <energy>  (43) 
-6.37

>  <cluster_rmsd>  (43) 
1.21

>  <cluster>  (43) 
9

$$$$

     RDKit          3D

 56 59  0  0  0  0  0  0  0  0999 V2000
  142.5380   81.9340  224.2490 C   0  0  0  0  0  0  0  0  0  0  0  0
  142.2450   80.6740  223.5160 C   0  0  0  0  0  0  0  0  0  0  0  0
  142.1390   80.6360  222.1380 C   0  0  0  0  0  0  0  0  0  0  0  0
  141.8660   79.4690  221.4420 C   0  0  0  0  0  0  0  0  0  0  0  0
  141.6960   78.3090  222.1710 C   0  0  0  0  0  0  0  0  0  0  0  0
  141.4110   77.0500  221.5490 N   0  0  0  0  0  0  0  0  0  0  0  0
  140.0880   76.5450  221.4650 C   0  0  0  0  0  0  0  0  0  0  0  0
  139.1030   77.1750  221.9290 O   0  0  0  0  0  0  0  0  0  0  0  0
  139.9100   75.2160  220.7920 C   0  0  1  0  0  0  0  0  0  0  0  0
  138.8530   75.4640  219.7210 C   0  0  0  0  0  0  0  0  0  0  0  0
  139.6590   76.3170  218.7500 C   0  0  2  0  0  0  0  0  0  0  0  0
  139.2120   76.2120  217.4480 O   0  0  0  0  0  0  0  0  0  0  0  0
  141.0620   75.7830  218.8760 C   0  0  0  0  0  0  0  0  0  0  0  0
  141.0480   74.8550  219.9990 N   0  0  0  0  0  0  0  0  0  0  0  0
  142.0230   73.8390  220.1620 C   0  0  0  0  0  0  0  0  0  0  0  0
  143.2230   74.1990  220.2890 O   0  0  0  0  0  0  0  0  0  0  0  0
  141.5970   72.4100  220.1760 C   0  0  0  0  0  0  0  0  0  0  0  0
  141.5460   71.9220  221.5380 N   0  0  0  0  0  0  0  0  0  0  0  0
  140.2620   71.6720  222.0900 C   0  0  0  0  0  0  0  0  0  0  0  0
  139.2290   71.8760  221.3960 O   0  0  0  0  0  0  0  0  0  0  0  0
  140.1340   71.1800  223.4510 C   0  0  0  0  0  0  0  0  0  0  0  0
  139.3820   70.0540  223.7180 C   0  0  0  0  0  0  0  0  0  0  0  0
  139.2080   69.5240  224.9670 C   0  0  0  0  0  0  0  0  0  0  0  0
  139.8350   70.1730  226.0220 C   0  0  0  0  0  0  0  0  0  0  0  0
  139.6640   69.6440  227.2840 C   0  0  0  0  0  0  0  0  0  0  0  0
  140.2800   70.2760  228.3440 C   0  0  0  0  0  0  0  0  0  0  0  0
  141.0520   71.4200  228.1290 C   0  0  0  0  0  0  0  0  0  0  0  0
  141.2050   71.9270  226.8460 C   0  0  0  0  0  0  0  0  0  0  0  0
  140.5910   71.3000  225.7740 C   0  0  0  0  0  0  0  0  0  0  0  0
  140.7240   71.7760  224.5090 N   0  0  0  0  0  0  0  0  0  0  0  0
  141.7910   78.2920  223.5510 C   0  0  0  0  0  0  0  0  0  0  0  0
  142.0650   79.4830  224.1930 C   0  0  0  0  0  0  0  0  0  0  0  0
  142.4944   81.7467  225.3321 H   0  0  0  0  0  0  0  0  0  0  0  0
  143.5430   82.2903  223.9786 H   0  0  0  0  0  0  0  0  0  0  0  0
  141.7933   82.6971  223.9786 H   0  0  0  0  0  0  0  0  0  0  0  0
  142.2768   81.5689  221.5717 H   0  0  0  0  0  0  0  0  0  0  0  0
  141.7873   79.4671  220.3448 H   0  0  0  0  0  0  0  0  0  0  0  0
  142.2330   76.5130  221.1560 H   0  0  0  0  0  0  0  0  0  0  0  0
  139.7009   74.4573  221.5606 H   0  0  0  0  0  0  0  0  0  0  0  0
  138.5139   74.5262  219.2567 H   0  0  0  0  0  0  0  0  0  0  0  0
  137.9236   75.9268  220.0843 H   0  0  0  0  0  0  0  0  0  0  0  0
  139.5743   77.3872  218.9898 H   0  0  0  0  0  0  0  0  0  0  0  0
  139.4150   75.2900  217.1410 H   0  0  0  0  0  0  0  0  0  0  0  0
  141.3546   75.2600  217.9536 H   0  0  0  0  0  0  0  0  0  0  0  0
  141.7855   76.5955  219.0383 H   0  0  0  0  0  0  0  0  0  0  0  0
  140.5997   72.3227  219.7202 H   0  0  0  0  0  0  0  0  0  0  0  0
  142.3219   71.8115  219.6048 H   0  0  0  0  0  0  0  0  0  0  0  0
  142.4010   71.7510  222.1160 H   0  0  0  0  0  0  0  0  0  0  0  0
  138.8911   69.5504  222.8722 H   0  0  0  0  0  0  0  0  0  0  0  0
  138.5979   68.6230  225.1284 H   0  0  0  0  0  0  0  0  0  0  0  0
  139.0531   68.7428  227.4410 H   0  0  0  0  0  0  0  0  0  0  0  0
  140.1628   69.8776  229.3626 H   0  0  0  0  0  0  0  0  0  0  0  0
  141.5399   71.9203  228.9785 H   0  0  0  0  0  0  0  0  0  0  0  0
  141.8144   72.8276  226.6802 H   0  0  0  0  0  0  0  0  0  0  0  0
  141.6527   77.3598  224.1183 H   0  0  0  0  0  0  0  0  0  0  0  0
  142.1434   79.4839  225.2902 H   0  0  0  0  0  0  0  0  0  0  0  0
  1  2  1  0
  2  3  2  0
  3  4  1  0
  4  5  2  0
  5  6  1  0
  6  7  1  0
  7  8  2  0
  7  9  1  0
  9 10  1  0
 10 11  1  0
 11 12  1  0
 11 13  1  0
 13 14  1  0
 14 15  1  0
 15 16  2  0
 15 17  1  0
 17 18  1  0
 18 19  1  0
 19 20  2  0
 19 21  1  0
 21 22  2  0
 22 23  1  0
 23 24  2  0
 24 25  1  0
 25 26  2  0
 26 27  1  0
 27 28  2  0
 28 29  1  0
 29 30  2  0
  5 31  1  0
 31 32  2  0
 32  2  1  0
 14  9  1  0
 30 21  1  0
 29 24  1  0
  1 33  1  0
  1 34  1  0
  1 35  1  0
  3 36  1  0
  4 37  1  0
  6 38  1  0
  9 39  1  1
 10 40  1  0
 10 41  1  0
 11 42  1  1
 12 43  1  0
 13 44  1  0
 13 45  1  0
 17 46  1  0
 17 47  1  0
 18 48  1  0
 22 49  1  0
 23 50  1  0
 25 51  1  0
 26 52  1  0
 27 53  1  0
 28 54  1  0
 31 55  1  0
 32 56  1  0
M  END
>  <smiles>  (44) 
Cc1ccc(NC(=O)[C@H]2C[C@H](O)CN2C(=O)CNC(=O)c2ccc3ccccc3n2)cc1

>  <score_type>  (44) 
oracle

>  <origin>  (44) 
autodockgpu

>  <m_score__min__energy>  (44) 
-9.4600000000000009

>  <m_primary>  (44) 
energy

>  <rmsd>  (44) 
2.4821675053322645

>  <m_score__min__rmsd>  (44) 
2.4821675053322645

>  <meeko>  (44) 
{"free_energy": -7.94, "intermolecular_energy": -10.02, "internal_energy": -1.98, "cluster_size": 16, "cluster_id": 1, "rank_in_cluster": 16}

>  <energy>  (44) 
-6.29

>  <cluster_rmsd>  (44) 
1.35

>  <cluster>  (44) 
9

$$$$

     RDKit          3D

 56 59  0  0  0  0  0  0  0  0999 V2000
  140.6040   69.1900  228.3190 C   0  0  0  0  0  0  0  0  0  0  0  0
  140.2820   69.8440  227.0240 C   0  0  0  0  0  0  0  0  0  0  0  0
  139.2670   69.3870  226.2050 C   0  0  0  0  0  0  0  0  0  0  0  0
  138.9550   69.9860  224.9940 C   0  0  0  0  0  0  0  0  0  0  0  0
  139.7000   71.0820  224.6090 C   0  0  0  0  0  0  0  0  0  0  0  0
  139.4600   71.7740  223.3770 N   0  0  0  0  0  0  0  0  0  0  0  0
  139.6130   71.1330  222.1210 C   0  0  0  0  0  0  0  0  0  0  0  0
  139.9660   69.9290  222.0260 O   0  0  0  0  0  0  0  0  0  0  0  0
  139.3350   71.9580  220.8990 C   0  0  1  0  0  0  0  0  0  0  0  0
  139.4740   70.9820  219.7350 C   0  0  0  0  0  0  0  0  0  0  0  0
  138.2290   70.1330  219.9560 C   0  0  2  0  0  0  0  0  0  0  0  0
  137.7520   69.5700  218.7890 O   0  0  0  0  0  0  0  0  0  0  0  0
  137.2260   71.1000  220.5290 C   0  0  0  0  0  0  0  0  0  0  0  0
  137.9550   72.3310  220.8010 N   0  0  0  0  0  0  0  0  0  0  0  0
  137.3100   73.5880  220.9230 C   0  0  0  0  0  0  0  0  0  0  0  0
  136.7850   74.0760  219.8880 O   0  0  0  0  0  0  0  0  0  0  0  0
  137.2810   74.2700  222.2490 C   0  0  0  0  0  0  0  0  0  0  0  0
  137.9720   75.5400  222.1680 N   0  0  0  0  0  0  0  0  0  0  0  0
  139.3900   75.5120  222.2170 C   0  0  0  0  0  0  0  0  0  0  0  0
  139.9940   74.4100  222.3240 O   0  0  0  0  0  0  0  0  0  0  0  0
  140.1500   76.7490  222.1410 C   0  0  0  0  0  0  0  0  0  0  0  0
  141.0810   76.9340  221.1400 C   0  0  0  0  0  0  0  0  0  0  0  0
  141.8390   78.0640  220.9940 C   0  0  0  0  0  0  0  0  0  0  0  0
  141.6450   79.0780  221.9230 C   0  0  0  0  0  0  0  0  0  0  0  0
  142.4060   80.2210  221.7830 C   0  0  0  0  0  0  0  0  0  0  0  0
  142.2270   81.2380  222.6970 C   0  0  0  0  0  0  0  0  0  0  0  0
  141.2970   81.1010  223.7300 C   0  0  0  0  0  0  0  0  0  0  0  0
  140.5470   79.9380  223.8430 C   0  0  0  0  0  0  0  0  0  0  0  0
  140.7190   78.9100  222.9310 C   0  0  0  0  0  0  0  0  0  0  0  0
  139.9980   77.7620  223.0190 N   0  0  0  0  0  0  0  0  0  0  0  0
  140.7270   71.5810  225.3900 C   0  0  0  0  0  0  0  0  0  0  0  0
  140.9940   70.9440  226.5860 C   0  0  0  0  0  0  0  0  0  0  0  0
  140.2842   69.8394  229.1472 H   0  0  0  0  0  0  0  0  0  0  0  0
  140.0773   68.2265  228.3842 H   0  0  0  0  0  0  0  0  0  0  0  0
  141.6888   69.0200  228.3842 H   0  0  0  0  0  0  0  0  0  0  0  0
  138.6828   68.5124  226.5269 H   0  0  0  0  0  0  0  0  0  0  0  0
  138.1414   69.6007  224.3618 H   0  0  0  0  0  0  0  0  0  0  0  0
  139.1640   72.7870  223.4480 H   0  0  0  0  0  0  0  0  0  0  0  0
  139.9886   72.8426  220.9152 H   0  0  0  0  0  0  0  0  0  0  0  0
  139.4498   71.4980  218.7638 H   0  0  0  0  0  0  0  0  0  0  0  0
  140.4201   70.4214  219.7093 H   0  0  0  0  0  0  0  0  0  0  0  0
  138.4385   69.2776  220.6151 H   0  0  0  0  0  0  0  0  0  0  0  0
  136.8510   69.2020  218.9870 H   0  0  0  0  0  0  0  0  0  0  0  0
  136.4199   71.2868  219.8042 H   0  0  0  0  0  0  0  0  0  0  0  0
  136.7615   70.7001  221.4424 H   0  0  0  0  0  0  0  0  0  0  0  0
  136.2363   74.4421  222.5473 H   0  0  0  0  0  0  0  0  0  0  0  0
  137.7816   73.6334  222.9934 H   0  0  0  0  0  0  0  0  0  0  0  0
  137.4740   76.4570  222.0790 H   0  0  0  0  0  0  0  0  0  0  0  0
  141.2232   76.1212  220.4126 H   0  0  0  0  0  0  0  0  0  0  0  0
  142.5692   78.1647  220.1775 H   0  0  0  0  0  0  0  0  0  0  0  0
  143.1351   80.3180  220.9650 H   0  0  0  0  0  0  0  0  0  0  0  0
  142.8192   82.1611  222.6121 H   0  0  0  0  0  0  0  0  0  0  0  0
  141.1584   81.9161  224.4555 H   0  0  0  0  0  0  0  0  0  0  0  0
  139.8154   79.8330  224.6577 H   0  0  0  0  0  0  0  0  0  0  0  0
  141.3115   72.4559  225.0692 H   0  0  0  0  0  0  0  0  0  0  0  0
  141.8086   71.3290  227.2170 H   0  0  0  0  0  0  0  0  0  0  0  0
  1  2  1  0
  2  3  2  0
  3  4  1  0
  4  5  2  0
  5  6  1  0
  6  7  1  0
  7  8  2  0
  7  9  1  0
  9 10  1  0
 10 11  1  0
 11 12  1  0
 11 13  1  0
 13 14  1  0
 14 15  1  0
 15 16  2  0
 15 17  1  0
 17 18  1  0
 18 19  1  0
 19 20  2  0
 19 21  1  0
 21 22  2  0
 22 23  1  0
 23 24  2  0
 24 25  1  0
 25 26  2  0
 26 27  1  0
 27 28  2  0
 28 29  1  0
 29 30  2  0
  5 31  1  0
 31 32  2  0
 32  2  1  0
 14  9  1  0
 30 21  1  0
 29 24  1  0
  1 33  1  0
  1 34  1  0
  1 35  1  0
  3 36  1  0
  4 37  1  0
  6 38  1  0
  9 39  1  6
 10 40  1  0
 10 41  1  0
 11 42  1  1
 12 43  1  0
 13 44  1  0
 13 45  1  0
 17 46  1  0
 17 47  1  0
 18 48  1  0
 22 49  1  0
 23 50  1  0
 25 51  1  0
 26 52  1  0
 27 53  1  0
 28 54  1  0
 31 55  1  0
 32 56  1  0
M  END
>  <smiles>  (45) 
Cc1ccc(NC(=O)[C@H]2C[C@H](O)CN2C(=O)CNC(=O)c2ccc3ccccc3n2)cc1

>  <score_type>  (45) 
oracle

>  <origin>  (45) 
autodockgpu

>  <m_score__min__energy>  (45) 
-9.4600000000000009

>  <m_primary>  (45) 
energy

>  <rmsd>  (45) 
8.607387004663993

>  <m_score__min__rmsd>  (45) 
8.607387004663993

>  <meeko>  (45) 
{"free_energy": -7.53, "intermolecular_energy": -9.62, "internal_energy": -2.39, "cluster_size": 1, "cluster_id": 5, "rank_in_cluster": 1}

>  <energy>  (45) 
-6.26

>  <cluster_rmsd>  (45) 
1.37

>  <cluster>  (45) 
9

$$$$

     RDKit          3D

 56 59  0  0  0  0  0  0  0  0999 V2000
  140.6960   82.8520  220.9540 C   0  0  0  0  0  0  0  0  0  0  0  0
  140.7670   81.5060  220.3260 C   0  0  0  0  0  0  0  0  0  0  0  0
  141.9690   80.9400  219.9420 C   0  0  0  0  0  0  0  0  0  0  0  0
  142.0500   79.6860  219.3550 C   0  0  0  0  0  0  0  0  0  0  0  0
  140.8750   78.9910  219.1560 C   0  0  0  0  0  0  0  0  0  0  0  0
  140.8480   77.6890  218.5590 N   0  0  0  0  0  0  0  0  0  0  0  0
  141.6540   76.6290  219.0490 C   0  0  0  0  0  0  0  0  0  0  0  0
  142.4290   76.7790  220.0280 O   0  0  0  0  0  0  0  0  0  0  0  0
  141.5420   75.3100  218.3430 C   0  0  1  0  0  0  0  0  0  0  0  0
  142.2400   75.5280  217.0040 C   0  0  0  0  0  0  0  0  0  0  0  0
  143.6850   75.6260  217.4760 C   0  0  2  0  0  0  0  0  0  0  0  0
  144.5910   75.2370  216.5100 O   0  0  0  0  0  0  0  0  0  0  0  0
  143.7430   74.7010  218.6640 C   0  0  0  0  0  0  0  0  0  0  0  0
  142.3690   74.3050  218.9410 N   0  0  0  0  0  0  0  0  0  0  0  0
  142.0460   73.1330  219.6710 C   0  0  0  0  0  0  0  0  0  0  0  0
  141.9870   72.0480  219.0350 O   0  0  0  0  0  0  0  0  0  0  0  0
  141.7920   73.2290  221.1370 C   0  0  0  0  0  0  0  0  0  0  0  0
  141.7460   74.6190  221.5420 N   0  0  0  0  0  0  0  0  0  0  0  0
  140.4860   75.1380  221.9380 C   0  0  0  0  0  0  0  0  0  0  0  0
  139.4680   74.3940  221.9280 O   0  0  0  0  0  0  0  0  0  0  0  0
  140.3640   76.5250  222.3560 C   0  0  0  0  0  0  0  0  0  0  0  0
  139.1190   77.1040  222.4950 C   0  0  0  0  0  0  0  0  0  0  0  0
  138.9130   78.4000  222.8830 C   0  0  0  0  0  0  0  0  0  0  0  0
  140.0400   79.1660  223.1500 C   0  0  0  0  0  0  0  0  0  0  0  0
  139.8400   80.4740  223.5410 C   0  0  0  0  0  0  0  0  0  0  0  0
  140.9480   81.2500  223.8090 C   0  0  0  0  0  0  0  0  0  0  0  0
  142.2310   80.7120  223.6840 C   0  0  0  0  0  0  0  0  0  0  0  0
  142.3980   79.3920  223.2880 C   0  0  0  0  0  0  0  0  0  0  0  0
  141.2920   78.6040  223.0160 C   0  0  0  0  0  0  0  0  0  0  0  0
  141.4280   77.3090  222.6270 N   0  0  0  0  0  0  0  0  0  0  0  0
  139.6460   79.5110  219.5220 C   0  0  0  0  0  0  0  0  0  0  0  0
  139.6240   80.7650  220.1020 C   0  0  0  0  0  0  0  0  0  0  0  0
  140.7016   82.7465  222.0489 H   0  0  0  0  0  0  0  0  0  0  0  0
  141.5639   83.4499  220.6388 H   0  0  0  0  0  0  0  0  0  0  0  0
  139.7701   83.3553  220.6388 H   0  0  0  0  0  0  0  0  0  0  0  0
  142.8971   81.5065  220.1086 H   0  0  0  0  0  0  0  0  0  0  0  0
  143.0194   79.2595  219.0578 H   0  0  0  0  0  0  0  0  0  0  0  0
  140.1990   77.5550  217.7340 H   0  0  0  0  0  0  0  0  0  0  0  0
  140.4852   75.0048  218.3331 H   0  0  0  0  0  0  0  0  0  0  0  0
  142.0896   74.6786  216.3215 H   0  0  0  0  0  0  0  0  0  0  0  0
  141.8798   76.3929  216.4276 H   0  0  0  0  0  0  0  0  0  0  0  0
  143.9594   76.6640  217.7152 H   0  0  0  0  0  0  0  0  0  0  0  0
  145.4990   75.3880  216.8810 H   0  0  0  0  0  0  0  0  0  0  0  0
  144.3542   73.8171  218.4291 H   0  0  0  0  0  0  0  0  0  0  0  0
  144.1997   75.1955  219.5339 H   0  0  0  0  0  0  0  0  0  0  0  0
  140.8306   72.7490  221.3723 H   0  0  0  0  0  0  0  0  0  0  0  0
  142.6045   72.7220  221.6781 H   0  0  0  0  0  0  0  0  0  0  0  0
  142.5890   75.2400  221.5510 H   0  0  0  0  0  0  0  0  0  0  0  0
  138.2360   76.4842  222.2802 H   0  0  0  0  0  0  0  0  0  0  0  0
  137.8995   78.8165  222.9791 H   0  0  0  0  0  0  0  0  0  0  0  0
  138.8247   80.8864  223.6363 H   0  0  0  0  0  0  0  0  0  0  0  0
  140.8210   82.2967  224.1224 H   0  0  0  0  0  0  0  0  0  0  0  0
  143.1110   81.3357  223.8999 H   0  0  0  0  0  0  0  0  0  0  0  0
  143.4097   78.9715  223.1901 H   0  0  0  0  0  0  0  0  0  0  0  0
  138.7174   78.9449  219.3567 H   0  0  0  0  0  0  0  0  0  0  0  0
  138.6540   81.1911  220.3979 H   0  0  0  0  0  0  0  0  0  0  0  0
  1  2  1  0
  2  3  2  0
  3  4  1  0
  4  5  2  0
  5  6  1  0
  6  7  1  0
  7  8  2  0
  7  9  1  0
  9 10  1  0
 10 11  1  0
 11 12  1  0
 11 13  1  0
 13 14  1  0
 14 15  1  0
 15 16  2  0
 15 17  1  0
 17 18  1  0
 18 19  1  0
 19 20  2  0
 19 21  1  0
 21 22  2  0
 22 23  1  0
 23 24  2  0
 24 25  1  0
 25 26  2  0
 26 27  1  0
 27 28  2  0
 28 29  1  0
 29 30  2  0
  5 31  1  0
 31 32  2  0
 32  2  1  0
 14  9  1  0
 30 21  1  0
 29 24  1  0
  1 33  1  0
  1 34  1  0
  1 35  1  0
  3 36  1  0
  4 37  1  0
  6 38  1  0
  9 39  1  6
 10 40  1  0
 10 41  1  0
 11 42  1  1
 12 43  1  0
 13 44  1  0
 13 45  1  0
 17 46  1  0
 17 47  1  0
 18 48  1  0
 22 49  1  0
 23 50  1  0
 25 51  1  0
 26 52  1  0
 27 53  1  0
 28 54  1  0
 31 55  1  0
 32 56  1  0
M  END
>  <smiles>  (46) 
Cc1ccc(NC(=O)[C@H]2C[C@H](O)CN2C(=O)CNC(=O)c2ccc3ccccc3n2)cc1

>  <score_type>  (46) 
oracle

>  <origin>  (46) 
autodockgpu

>  <m_score__min__energy>  (46) 
-9.4600000000000009

>  <m_primary>  (46) 
energy

>  <rmsd>  (46) 
6.42655240790008

>  <m_score__min__rmsd>  (46) 
6.42655240790008

>  <meeko>  (46) 
{"free_energy": -6.14, "intermolecular_energy": -8.23, "internal_energy": -4.31, "cluster_size": 13, "cluster_id": 9, "rank_in_cluster": 13}

>  <energy>  (46) 
-6.24

>  <cluster_rmsd>  (46) 
1.41

>  <cluster>  (46) 
9

$$$$

     RDKit          3D

 56 59  0  0  0  0  0  0  0  0999 V2000
  141.6590   81.8670  219.5450 C   0  0  0  0  0  0  0  0  0  0  0  0
  141.8680   80.4370  219.1940 C   0  0  0  0  0  0  0  0  0  0  0  0
  142.7390   80.0490  218.1930 C   0  0  0  0  0  0  0  0  0  0  0  0
  142.9440   78.7210  217.8550 C   0  0  0  0  0  0  0  0  0  0  0  0
  142.2430   77.7620  218.5570 C   0  0  0  0  0  0  0  0  0  0  0  0
  142.3810   76.3620  218.2880 N   0  0  0  0  0  0  0  0  0  0  0  0
  142.5520   75.4170  219.3320 C   0  0  0  0  0  0  0  0  0  0  0  0
  142.5920   75.7600  220.5420 O   0  0  0  0  0  0  0  0  0  0  0  0
  142.6870   73.9780  218.9290 C   0  0  1  0  0  0  0  0  0  0  0  0
  144.0880   73.8740  218.3340 C   0  0  0  0  0  0  0  0  0  0  0  0
  144.9220   74.0320  219.5980 C   0  0  2  0  0  0  0  0  0  0  0  0
  146.1520   73.4120  219.5090 O   0  0  0  0  0  0  0  0  0  0  0  0
  144.0800   73.3910  220.6720 C   0  0  0  0  0  0  0  0  0  0  0  0
  142.7880   73.1060  220.0630 N   0  0  0  0  0  0  0  0  0  0  0  0
  141.8970   72.1350  220.5840 C   0  0  0  0  0  0  0  0  0  0  0  0
  142.0910   70.9330  220.2630 O   0  0  0  0  0  0  0  0  0  0  0  0
  140.7830   72.5680  221.4760 C   0  0  0  0  0  0  0  0  0  0  0  0
  140.9360   73.9670  221.8170 N   0  0  0  0  0  0  0  0  0  0  0  0
  139.7490   74.7300  221.9770 C   0  0  0  0  0  0  0  0  0  0  0  0
  138.6240   74.1820  221.8220 O   0  0  0  0  0  0  0  0  0  0  0  0
  139.8260   76.1400  222.3190 C   0  0  0  0  0  0  0  0  0  0  0  0
  138.6880   76.9200  222.3210 C   0  0  0  0  0  0  0  0  0  0  0  0
  138.6690   78.2530  222.6290 C   0  0  0  0  0  0  0  0  0  0  0  0
  139.8830   78.8410  222.9590 C   0  0  0  0  0  0  0  0  0  0  0  0
  139.8720   80.1850  223.2710 C   0  0  0  0  0  0  0  0  0  0  0  0
  141.0690   80.7870  223.6010 C   0  0  0  0  0  0  0  0  0  0  0  0
  142.2510   80.0420  223.6130 C   0  0  0  0  0  0  0  0  0  0  0  0
  142.2280   78.6920  223.2940 C   0  0  0  0  0  0  0  0  0  0  0  0
  141.0310   78.0770  222.9620 C   0  0  0  0  0  0  0  0  0  0  0  0
  140.9810   76.7570  222.6460 N   0  0  0  0  0  0  0  0  0  0  0  0
  141.3590   78.0960  219.5690 C   0  0  0  0  0  0  0  0  0  0  0  0
  141.1930   79.4350  219.8630 C   0  0  0  0  0  0  0  0  0  0  0  0
  141.6429   81.9774  220.6393 H   0  0  0  0  0  0  0  0  0  0  0  0
  142.4785   82.4705  219.1276 H   0  0  0  0  0  0  0  0  0  0  0  0
  140.7011   82.2108  219.1276 H   0  0  0  0  0  0  0  0  0  0  0  0
  143.2912   80.8253  217.6431 H   0  0  0  0  0  0  0  0  0  0  0  0
  143.6428   78.4404  217.0532 H   0  0  0  0  0  0  0  0  0  0  0  0
  142.3500   76.0650  217.2730 H   0  0  0  0  0  0  0  0  0  0  0  0
  141.8316   73.7088  218.2919 H   0  0  0  0  0  0  0  0  0  0  0  0
  144.2562   72.8993  217.8527 H   0  0  0  0  0  0  0  0  0  0  0  0
  144.3093   74.6003  217.5381 H   0  0  0  0  0  0  0  0  0  0  0  0
  145.1544   75.0889  219.7951 H   0  0  0  0  0  0  0  0  0  0  0  0
  146.8200   74.1140  219.2930 H   0  0  0  0  0  0  0  0  0  0  0  0
  144.5508   72.4597  221.0199 H   0  0  0  0  0  0  0  0  0  0  0  0
  143.9735   74.0524  221.5445 H   0  0  0  0  0  0  0  0  0  0  0  0
  139.8238   72.4223  220.9576 H   0  0  0  0  0  0  0  0  0  0  0  0
  140.8044   71.9676  222.3974 H   0  0  0  0  0  0  0  0  0  0  0  0
  141.8680   74.4250  221.9470 H   0  0  0  0  0  0  0  0  0  0  0  0
  137.7343   76.4391  222.0580 H   0  0  0  0  0  0  0  0  0  0  0  0
  137.7343   78.8327  222.6158 H   0  0  0  0  0  0  0  0  0  0  0  0
  138.9348   80.7607  223.2570 H   0  0  0  0  0  0  0  0  0  0  0  0
  141.0927   81.8569  223.8554 H   0  0  0  0  0  0  0  0  0  0  0  0
  143.2025   80.5272  223.8761 H   0  0  0  0  0  0  0  0  0  0  0  0
  143.1608   78.1090  223.3046 H   0  0  0  0  0  0  0  0  0  0  0  0
  140.8072   77.3205  220.1205 H   0  0  0  0  0  0  0  0  0  0  0  0
  140.4933   79.7154  220.6642 H   0  0  0  0  0  0  0  0  0  0  0  0
  1  2  1  0
  2  3  2  0
  3  4  1  0
  4  5  2  0
  5  6  1  0
  6  7  1  0
  7  8  2  0
  7  9  1  0
  9 10  1  0
 10 11  1  0
 11 12  1  0
 11 13  1  0
 13 14  1  0
 14 15  1  0
 15 16  2  0
 15 17  1  0
 17 18  1  0
 18 19  1  0
 19 20  2  0
 19 21  1  0
 21 22  2  0
 22 23  1  0
 23 24  2  0
 24 25  1  0
 25 26  2  0
 26 27  1  0
 27 28  2  0
 28 29  1  0
 29 30  2  0
  5 31  1  0
 31 32  2  0
 32  2  1  0
 14  9  1  0
 30 21  1  0
 29 24  1  0
  1 33  1  0
  1 34  1  0
  1 35  1  0
  3 36  1  0
  4 37  1  0
  6 38  1  0
  9 39  1  6
 10 40  1  0
 10 41  1  0
 11 42  1  1
 12 43  1  0
 13 44  1  0
 13 45  1  0
 17 46  1  0
 17 47  1  0
 18 48  1  0
 22 49  1  0
 23 50  1  0
 25 51  1  0
 26 52  1  0
 27 53  1  0
 28 54  1  0
 31 55  1  0
 32 56  1  0
M  END
>  <smiles>  (47) 
Cc1ccc(NC(=O)[C@H]2C[C@H](O)CN2C(=O)CNC(=O)c2ccc3ccccc3n2)cc1

>  <score_type>  (47) 
oracle

>  <origin>  (47) 
autodockgpu

>  <m_score__min__energy>  (47) 
-9.4600000000000009

>  <m_primary>  (47) 
energy

>  <rmsd>  (47) 
6.510452197209813

>  <m_score__min__rmsd>  (47) 
6.510452197209813

>  <meeko>  (47) 
{"free_energy": -6.9, "intermolecular_energy": -8.99, "internal_energy": -3.7, "cluster_size": 13, "cluster_id": 9, "rank_in_cluster": 2}

>  <energy>  (47) 
-6.21

>  <cluster_rmsd>  (47) 
1.31

>  <cluster>  (47) 
9

$$$$

     RDKit          3D

 56 59  0  0  0  0  0  0  0  0999 V2000
  146.1560   67.6560  218.6140 C   0  0  0  0  0  0  0  0  0  0  0  0
  145.4320   68.9150  218.9350 C   0  0  0  0  0  0  0  0  0  0  0  0
  144.3480   68.9370  219.7920 C   0  0  0  0  0  0  0  0  0  0  0  0
  143.6620   70.1020  220.1000 C   0  0  0  0  0  0  0  0  0  0  0  0
  144.0950   71.2760  219.5180 C   0  0  0  0  0  0  0  0  0  0  0  0
  143.4570   72.5340  219.7680 N   0  0  0  0  0  0  0  0  0  0  0  0
  144.2050   73.7330  219.9030 C   0  0  0  0  0  0  0  0  0  0  0  0
  145.4590   73.7500  219.8110 O   0  0  0  0  0  0  0  0  0  0  0  0
  143.4290   74.9910  220.1640 C   0  0  1  0  0  0  0  0  0  0  0  0
  143.6920   75.8660  218.9430 C   0  0  0  0  0  0  0  0  0  0  0  0
  142.8980   75.0970  217.8950 C   0  0  2  0  0  0  0  0  0  0  0  0
  142.4480   75.9030  216.8680 O   0  0  0  0  0  0  0  0  0  0  0  0
  141.7390   74.5220  218.6670 C   0  0  0  0  0  0  0  0  0  0  0  0
  142.0150   74.7820  220.0730 N   0  0  0  0  0  0  0  0  0  0  0  0
  140.9970   74.7990  221.0600 C   0  0  0  0  0  0  0  0  0  0  0  0
  141.1440   75.5790  222.0370 O   0  0  0  0  0  0  0  0  0  0  0  0
  139.8120   73.9060  220.9040 C   0  0  0  0  0  0  0  0  0  0  0  0
  139.5760   73.1770  222.1330 N   0  0  0  0  0  0  0  0  0  0  0  0
  140.4620   72.1090  222.4350 C   0  0  0  0  0  0  0  0  0  0  0  0
  141.4060   71.8330  221.6450 O   0  0  0  0  0  0  0  0  0  0  0  0
  140.2850   71.3330  223.6510 C   0  0  0  0  0  0  0  0  0  0  0  0
  139.6140   70.1280  223.6170 C   0  0  0  0  0  0  0  0  0  0  0  0
  139.4020   69.3350  224.7110 C   0  0  0  0  0  0  0  0  0  0  0  0
  139.9020   69.7880  225.9260 C   0  0  0  0  0  0  0  0  0  0  0  0
  139.6920   68.9930  227.0340 C   0  0  0  0  0  0  0  0  0  0  0  0
  140.1810   69.4290  228.2490 C   0  0  0  0  0  0  0  0  0  0  0  0
  140.8670   70.6420  228.3370 C   0  0  0  0  0  0  0  0  0  0  0  0
  141.0610   71.4180  227.2030 C   0  0  0  0  0  0  0  0  0  0  0  0
  140.5750   70.9910  225.9780 C   0  0  0  0  0  0  0  0  0  0  0  0
  140.7510   71.7310  224.8530 N   0  0  0  0  0  0  0  0  0  0  0  0
  145.1740   71.3100  218.6520 C   0  0  0  0  0  0  0  0  0  0  0  0
  145.8190   70.1190  218.3810 C   0  0  0  0  0  0  0  0  0  0  0  0
  146.4461   67.1516  219.5475 H   0  0  0  0  0  0  0  0  0  0  0  0
  145.5001   66.9949  218.0285 H   0  0  0  0  0  0  0  0  0  0  0  0
  147.0573   67.8904  218.0285 H   0  0  0  0  0  0  0  0  0  0  0  0
  144.0162   67.9926  220.2480 H   0  0  0  0  0  0  0  0  0  0  0  0
  142.8016   70.0908  220.7852 H   0  0  0  0  0  0  0  0  0  0  0  0
  142.4030   72.5290  219.8480 H   0  0  0  0  0  0  0  0  0  0  0  0
  143.7125   75.3817  221.1524 H   0  0  0  0  0  0  0  0  0  0  0  0
  143.3059   76.8867  219.0807 H   0  0  0  0  0  0  0  0  0  0  0  0
  144.7541   76.0192  218.7012 H   0  0  0  0  0  0  0  0  0  0  0  0
  143.5177   74.3336  217.4018 H   0  0  0  0  0  0  0  0  0  0  0  0
  142.8930   76.7840  216.9700 H   0  0  0  0  0  0  0  0  0  0  0  0
  140.8008   75.0113  218.3662 H   0  0  0  0  0  0  0  0  0  0  0  0
  141.6255   73.4450  218.4745 H   0  0  0  0  0  0  0  0  0  0  0  0
  138.9268   74.5138  220.6652 H   0  0  0  0  0  0  0  0  0  0  0  0
  140.0036   73.1905  220.0908 H   0  0  0  0  0  0  0  0  0  0  0  0
  138.7940   73.4030  222.7910 H   0  0  0  0  0  0  0  0  0  0  0  0
  139.2245   69.7829  222.6479 H   0  0  0  0  0  0  0  0  0  0  0  0
  138.8598   68.3811  224.6327 H   0  0  0  0  0  0  0  0  0  0  0  0
  139.1504   68.0391  226.9515 H   0  0  0  0  0  0  0  0  0  0  0  0
  140.0297   68.8185  229.1514 H   0  0  0  0  0  0  0  0  0  0  0  0
  141.2548   70.9835  229.3081 H   0  0  0  0  0  0  0  0  0  0  0  0
  141.6013   72.3733  227.2769 H   0  0  0  0  0  0  0  0  0  0  0  0
  145.5067   72.2536  218.1949 H   0  0  0  0  0  0  0  0  0  0  0  0
  146.6781   70.1303  217.6941 H   0  0  0  0  0  0  0  0  0  0  0  0
  1  2  1  0
  2  3  2  0
  3  4  1  0
  4  5  2  0
  5  6  1  0
  6  7  1  0
  7  8  2  0
  7  9  1  0
  9 10  1  0
 10 11  1  0
 11 12  1  0
 11 13  1  0
 13 14  1  0
 14 15  1  0
 15 16  2  0
 15 17  1  0
 17 18  1  0
 18 19  1  0
 19 20  2  0
 19 21  1  0
 21 22  2  0
 22 23  1  0
 23 24  2  0
 24 25  1  0
 25 26  2  0
 26 27  1  0
 27 28  2  0
 28 29  1  0
 29 30  2  0
  5 31  1  0
 31 32  2  0
 32  2  1  0
 14  9  1  0
 30 21  1  0
 29 24  1  0
  1 33  1  0
  1 34  1  0
  1 35  1  0
  3 36  1  0
  4 37  1  0
  6 38  1  0
  9 39  1  1
 10 40  1  0
 10 41  1  0
 11 42  1  6
 12 43  1  0
 13 44  1  0
 13 45  1  0
 17 46  1  0
 17 47  1  0
 18 48  1  0
 22 49  1  0
 23 50  1  0
 25 51  1  0
 26 52  1  0
 27 53  1  0
 28 54  1  0
 31 55  1  0
 32 56  1  0
M  END
>  <smiles>  (48) 
Cc1ccc(NC(=O)[C@H]2C[C@H](O)CN2C(=O)CNC(=O)c2ccc3ccccc3n2)cc1

>  <score_type>  (48) 
oracle

>  <origin>  (48) 
autodockgpu

>  <m_score__min__energy>  (48) 
-9.4600000000000009

>  <m_primary>  (48) 
energy

>  <rmsd>  (48) 
5.744967847251523

>  <m_score__min__rmsd>  (48) 
5.744967847251523

>  <meeko>  (48) 
{"free_energy": -8.03, "intermolecular_energy": -10.12, "internal_energy": -2.39, "cluster_size": 1, "cluster_id": 4, "rank_in_cluster": 1}

>  <energy>  (48) 
-6.18

>  <cluster_rmsd>  (48) 
1.42

>  <cluster>  (48) 
9

$$$$

     RDKit          3D

 56 59  0  0  0  0  0  0  0  0999 V2000
  141.0530   83.0830  220.6740 C   0  0  0  0  0  0  0  0  0  0  0  0
  140.9330   81.7150  220.1050 C   0  0  0  0  0  0  0  0  0  0  0  0
  139.7570   80.9910  220.1800 C   0  0  0  0  0  0  0  0  0  0  0  0
  139.6290   79.7150  219.6550 C   0  0  0  0  0  0  0  0  0  0  0  0
  140.7310   79.1620  219.0340 C   0  0  0  0  0  0  0  0  0  0  0  0
  140.7060   77.8500  218.4580 N   0  0  0  0  0  0  0  0  0  0  0  0
  141.5050   76.7970  218.9720 C   0  0  0  0  0  0  0  0  0  0  0  0
  142.2720   76.9600  219.9550 O   0  0  0  0  0  0  0  0  0  0  0  0
  141.3950   75.4660  218.2870 C   0  0  1  0  0  0  0  0  0  0  0  0
  142.1800   75.6350  216.9890 C   0  0  0  0  0  0  0  0  0  0  0  0
  143.5960   75.7010  217.5470 C   0  0  2  0  0  0  0  0  0  0  0  0
  144.5460   75.2650  216.6460 O   0  0  0  0  0  0  0  0  0  0  0  0
  143.5540   74.8000  218.7530 C   0  0  0  0  0  0  0  0  0  0  0  0
  142.1550   74.4500  218.9540 N   0  0  0  0  0  0  0  0  0  0  0  0
  141.7520   73.3040  219.6860 C   0  0  0  0  0  0  0  0  0  0  0  0
  141.6270   72.2230  219.0530 O   0  0  0  0  0  0  0  0  0  0  0  0
  141.4980   73.4220  221.1500 C   0  0  0  0  0  0  0  0  0  0  0  0
  141.5550   74.8120  221.5530 N   0  0  0  0  0  0  0  0  0  0  0  0
  140.3420   75.4160  221.9770 C   0  0  0  0  0  0  0  0  0  0  0  0
  139.2760   74.7420  221.9920 O   0  0  0  0  0  0  0  0  0  0  0  0
  140.3250   76.8080  222.3950 C   0  0  0  0  0  0  0  0  0  0  0  0
  139.1270   77.4430  222.6500 C   0  0  0  0  0  0  0  0  0  0  0  0
  139.0180   78.7480  223.0470 C   0  0  0  0  0  0  0  0  0  0  0  0
  140.1990   79.4630  223.1980 C   0  0  0  0  0  0  0  0  0  0  0  0
  140.0970   80.7800  223.5970 C   0  0  0  0  0  0  0  0  0  0  0  0
  141.2610   81.5050  223.7510 C   0  0  0  0  0  0  0  0  0  0  0  0
  142.4990   80.9090  223.5050 C   0  0  0  0  0  0  0  0  0  0  0  0
  142.5680   79.5820  223.1040 C   0  0  0  0  0  0  0  0  0  0  0  0
  141.4060   78.8440  222.9460 C   0  0  0  0  0  0  0  0  0  0  0  0
  141.4440   77.5440  222.5550 N   0  0  0  0  0  0  0  0  0  0  0  0
  141.9320   79.8420  218.9310 C   0  0  0  0  0  0  0  0  0  0  0  0
  142.0020   81.1100  219.4730 C   0  0  0  0  0  0  0  0  0  0  0  0
  141.0479   83.0250  221.7725 H   0  0  0  0  0  0  0  0  0  0  0  0
  141.9946   83.5397  220.3353 H   0  0  0  0  0  0  0  0  0  0  0  0
  140.2052   83.6967  220.3353 H   0  0  0  0  0  0  0  0  0  0  0  0
  138.8877   81.4467  220.6767 H   0  0  0  0  0  0  0  0  0  0  0  0
  138.6814   79.1615  219.7305 H   0  0  0  0  0  0  0  0  0  0  0  0
  140.0630   77.7030  217.6300 H   0  0  0  0  0  0  0  0  0  0  0  0
  140.3320   75.1914  218.2192 H   0  0  0  0  0  0  0  0  0  0  0  0
  142.0457   74.7759  216.3153 H   0  0  0  0  0  0  0  0  0  0  0  0
  141.8820   76.4975  216.3747 H   0  0  0  0  0  0  0  0  0  0  0  0
  143.8865   76.7354  217.7829 H   0  0  0  0  0  0  0  0  0  0  0  0
  145.4320   75.3580  217.0850 H   0  0  0  0  0  0  0  0  0  0  0  0
  144.1510   73.8939  218.5723 H   0  0  0  0  0  0  0  0  0  0  0  0
  143.9722   75.2993  219.6395 H   0  0  0  0  0  0  0  0  0  0  0  0
  140.5018   73.0166  221.3806 H   0  0  0  0  0  0  0  0  0  0  0  0
  142.2671   72.8562  221.6963 H   0  0  0  0  0  0  0  0  0  0  0  0
  142.4380   75.3740  221.5420 H   0  0  0  0  0  0  0  0  0  0  0  0
  138.2004   76.8633  222.5263 H   0  0  0  0  0  0  0  0  0  0  0  0
  138.0383   79.2103  223.2381 H   0  0  0  0  0  0  0  0  0  0  0  0
  139.1155   81.2390  223.7869 H   0  0  0  0  0  0  0  0  0  0  0  0
  141.2131   82.5570  224.0690 H   0  0  0  0  0  0  0  0  0  0  0  0
  143.4229   81.4929  223.6293 H   0  0  0  0  0  0  0  0  0  0  0  0
  143.5456   79.1160  222.9115 H   0  0  0  0  0  0  0  0  0  0  0  0
  142.8017   79.3875  218.4340 H   0  0  0  0  0  0  0  0  0  0  0  0
  142.9503   81.6624  219.3983 H   0  0  0  0  0  0  0  0  0  0  0  0
  1  2  1  0
  2  3  2  0
  3  4  1  0
  4  5  2  0
  5  6  1  0
  6  7  1  0
  7  8  2  0
  7  9  1  0
  9 10  1  0
 10 11  1  0
 11 12  1  0
 11 13  1  0
 13 14  1  0
 14 15  1  0
 15 16  2  0
 15 17  1  0
 17 18  1  0
 18 19  1  0
 19 20  2  0
 19 21  1  0
 21 22  2  0
 22 23  1  0
 23 24  2  0
 24 25  1  0
 25 26  2  0
 26 27  1  0
 27 28  2  0
 28 29  1  0
 29 30  2  0
  5 31  1  0
 31 32  2  0
 32  2  1  0
 14  9  1  0
 30 21  1  0
 29 24  1  0
  1 33  1  0
  1 34  1  0
  1 35  1  0
  3 36  1  0
  4 37  1  0
  6 38  1  0
  9 39  1  6
 10 40  1  0
 10 41  1  0
 11 42  1  1
 12 43  1  0
 13 44  1  0
 13 45  1  0
 17 46  1  0
 17 47  1  0
 18 48  1  0
 22 49  1  0
 23 50  1  0
 25 51  1  0
 26 52  1  0
 27 53  1  0
 28 54  1  0
 31 55  1  0
 32 56  1  0
M  END
>  <smiles>  (49) 
Cc1ccc(NC(=O)[C@H]2C[C@H](O)CN2C(=O)CNC(=O)c2ccc3ccccc3n2)cc1

>  <score_type>  (49) 
oracle

>  <origin>  (49) 
autodockgpu

>  <m_score__min__energy>  (49) 
-9.4600000000000009

>  <m_primary>  (49) 
energy

>  <rmsd>  (49) 
6.536148345709644

>  <m_score__min__rmsd>  (49) 
6.536148345709644

>  <meeko>  (49) 
{"free_energy": -6.18, "intermolecular_energy": -8.27, "internal_energy": -4.22, "cluster_size": 13, "cluster_id": 9, "rank_in_cluster": 12}

>  <energy>  (49) 
-6.14

>  <cluster_rmsd>  (49) 
1.41

>  <cluster>  (49) 
9

$$$$

     RDKit          3D

 56 59  0  0  0  0  0  0  0  0999 V2000
  142.9430   81.2970  224.0370 C   0  0  0  0  0  0  0  0  0  0  0  0
  142.3090   80.1540  223.3270 C   0  0  0  0  0  0  0  0  0  0  0  0
  142.1660   80.1360  221.9520 C   0  0  0  0  0  0  0  0  0  0  0  0
  141.5780   79.0780  221.2760 C   0  0  0  0  0  0  0  0  0  0  0  0
  141.1240   78.0100  222.0230 C   0  0  0  0  0  0  0  0  0  0  0  0
  140.5020   76.8670  221.4240 N   0  0  0  0  0  0  0  0  0  0  0  0
  141.2030   76.0260  220.5210 C   0  0  0  0  0  0  0  0  0  0  0  0
  142.4010   76.2400  220.2030 O   0  0  0  0  0  0  0  0  0  0  0  0
  140.4480   74.8580  219.9560 C   0  0  1  0  0  0  0  0  0  0  0  0
  141.5060   73.7770  219.7540 C   0  0  0  0  0  0  0  0  0  0  0  0
  141.7980   73.4210  221.2060 C   0  0  2  0  0  0  0  0  0  0  0  0
  142.2410   72.1230  221.3590 O   0  0  0  0  0  0  0  0  0  0  0  0
  140.4750   73.6170  221.9000 C   0  0  0  0  0  0  0  0  0  0  0  0
  139.5920   74.2460  220.9280 N   0  0  0  0  0  0  0  0  0  0  0  0
  138.1790   74.1930  221.0350 C   0  0  0  0  0  0  0  0  0  0  0  0
  137.5450   75.2760  220.9230 O   0  0  0  0  0  0  0  0  0  0  0  0
  137.5110   72.8810  221.2710 C   0  0  0  0  0  0  0  0  0  0  0  0
  137.8960   72.3550  222.5640 N   0  0  0  0  0  0  0  0  0  0  0  0
  138.8620   71.3140  222.5800 C   0  0  0  0  0  0  0  0  0  0  0  0
  139.3460   70.8900  221.4960 O   0  0  0  0  0  0  0  0  0  0  0  0
  139.2950   70.7380  223.8420 C   0  0  0  0  0  0  0  0  0  0  0  0
  139.1680   69.3830  224.0680 C   0  0  0  0  0  0  0  0  0  0  0  0
  139.5490   68.7570  225.2240 C   0  0  0  0  0  0  0  0  0  0  0  0
  140.0960   69.5530  226.2220 C   0  0  0  0  0  0  0  0  0  0  0  0
  140.4820   68.9300  227.3910 C   0  0  0  0  0  0  0  0  0  0  0  0
  141.0270   69.7060  228.3930 C   0  0  0  0  0  0  0  0  0  0  0  0
  141.1770   71.0830  228.2150 C   0  0  0  0  0  0  0  0  0  0  0  0
  140.7780   71.6800  227.0270 C   0  0  0  0  0  0  0  0  0  0  0  0
  140.2300   70.9100  226.0130 C   0  0  0  0  0  0  0  0  0  0  0  0
  139.8320   71.4690  224.8410 N   0  0  0  0  0  0  0  0  0  0  0  0
  141.2430   77.9770  223.4010 C   0  0  0  0  0  0  0  0  0  0  0  0
  141.8370   79.0580  224.0220 C   0  0  0  0  0  0  0  0  0  0  0  0
  142.8592   81.1458  225.1233 H   0  0  0  0  0  0  0  0  0  0  0  0
  144.0048   81.3596  223.7564 H   0  0  0  0  0  0  0  0  0  0  0  0
  142.4339   82.2309  223.7564 H   0  0  0  0  0  0  0  0  0  0  0  0
  142.5333   80.9951  221.3714 H   0  0  0  0  0  0  0  0  0  0  0  0
  141.4767   79.0894  220.1807 H   0  0  0  0  0  0  0  0  0  0  0  0
  139.4940   76.6790  221.6850 H   0  0  0  0  0  0  0  0  0  0  0  0
  139.8785   75.1981  219.0785 H   0  0  0  0  0  0  0  0  0  0  0  0
  141.1097   72.9170  219.1942 H   0  0  0  0  0  0  0  0  0  0  0  0
  142.3826   74.0894  219.1675 H   0  0  0  0  0  0  0  0  0  0  0  0
  142.6060   74.0434  221.6180 H   0  0  0  0  0  0  0  0  0  0  0  0
  141.4380   71.5390  221.3850 H   0  0  0  0  0  0  0  0  0  0  0  0
  140.0637   72.6471  222.2164 H   0  0  0  0  0  0  0  0  0  0  0  0
  140.5847   74.2385  222.8009 H   0  0  0  0  0  0  0  0  0  0  0  0
  136.4199   73.0175  221.2434 H   0  0  0  0  0  0  0  0  0  0  0  0
  137.8182   72.1731  220.4871 H   0  0  0  0  0  0  0  0  0  0  0  0
  137.4960   72.7050  223.4660 H   0  0  0  0  0  0  0  0  0  0  0  0
  138.7327   68.7662  223.2679 H   0  0  0  0  0  0  0  0  0  0  0  0
  139.4274   67.6718  225.3567 H   0  0  0  0  0  0  0  0  0  0  0  0
  140.3586   67.8446  227.5205 H   0  0  0  0  0  0  0  0  0  0  0  0
  141.3448   69.2380  229.3364 H   0  0  0  0  0  0  0  0  0  0  0  0
  141.6123   71.6959  229.0180 H   0  0  0  0  0  0  0  0  0  0  0  0
  140.8968   72.7650  226.8902 H   0  0  0  0  0  0  0  0  0  0  0  0
  140.8766   77.1182  223.9826 H   0  0  0  0  0  0  0  0  0  0  0  0
  141.9385   79.0455  225.1172 H   0  0  0  0  0  0  0  0  0  0  0  0
  1  2  1  0
  2  3  2  0
  3  4  1  0
  4  5  2  0
  5  6  1  0
  6  7  1  0
  7  8  2  0
  7  9  1  0
  9 10  1  0
 10 11  1  0
 11 12  1  0
 11 13  1  0
 13 14  1  0
 14 15  1  0
 15 16  2  0
 15 17  1  0
 17 18  1  0
 18 19  1  0
 19 20  2  0
 19 21  1  0
 21 22  2  0
 22 23  1  0
 23 24  2  0
 24 25  1  0
 25 26  2  0
 26 27  1  0
 27 28  2  0
 28 29  1  0
 29 30  2  0
  5 31  1  0
 31 32  2  0
 32  2  1  0
 14  9  1  0
 30 21  1  0
 29 24  1  0
  1 33  1  0
  1 34  1  0
  1 35  1  0
  3 36  1  0
  4 37  1  0
  6 38  1  0
  9 39  1  6
 10 40  1  0
 10 41  1  0
 11 42  1  1
 12 43  1  0
 13 44  1  0
 13 45  1  0
 17 46  1  0
 17 47  1  0
 18 48  1  0
 22 49  1  0
 23 50  1  0
 25 51  1  0
 26 52  1  0
 27 53  1  0
 28 54  1  0
 31 55  1  0
 32 56  1  0
M  END
>  <smiles>  (50) 
Cc1ccc(NC(=O)[C@H]2C[C@H](O)CN2C(=O)CNC(=O)c2ccc3ccccc3n2)cc1

>  <score_type>  (50) 
oracle

>  <origin>  (50) 
autodockgpu

>  <m_score__min__energy>  (50) 
-9.4600000000000009

>  <m_primary>  (50) 
energy

>  <rmsd>  (50) 
2.6362840184334644

>  <m_score__min__rmsd>  (50) 
2.6362840184334644

>  <meeko>  (50) 
{"free_energy": -8.02, "intermolecular_energy": -10.11, "internal_energy": -2.6, "cluster_size": 16, "cluster_id": 1, "rank_in_cluster": 15}

>  <energy>  (50) 
-6.13

>  <cluster_rmsd>  (50) 
0.0

>  <cluster>  (50) 
10

$$$$
