
     RDKit          3D

 51 54  0  0  0  0  0  0  0  0999 V2000
  139.3160   72.0300  220.7080 O   0  0  0  0  0  0  0  0  0  0  0  0
  139.4530   72.4250  221.9010 C   0  0  0  0  0  0  0  0  0  0  0  0
  139.4570   73.8180  222.1840 N   0  0  0  0  0  0  0  0  0  0  0  0
  139.3080   74.7990  221.1500 C   0  0  0  0  0  0  0  0  0  0  0  0
  139.4080   76.1970  221.7050 C   0  0  0  0  0  0  0  0  0  0  0  0
  138.9020   76.3660  222.8390 O   0  0  0  0  0  0  0  0  0  0  0  0
  140.0420   77.2310  220.9580 N   0  0  0  0  0  0  0  0  0  0  0  0
  139.3430   77.8270  219.8630 C   0  0  0  0  0  0  0  0  0  0  0  0
  140.2330   78.3730  218.7890 C   0  0  0  0  0  0  0  0  0  0  0  0
  141.5480   78.8840  219.3200 C   0  0  0  0  0  0  0  0  0  0  0  0
  142.2060   77.8050  220.1350 C   0  0  0  0  0  0  0  0  0  0  0  0
  141.3840   77.6010  221.3800 C   0  0  1  0  0  0  0  0  0  0  0  0
  141.4430   78.7870  222.2350 C   0  0  0  0  0  0  0  0  0  0  0  0
  140.3610   79.3820  222.8470 C   0  0  0  0  0  0  0  0  0  0  0  0
  140.4650   80.4990  223.6530 C   0  0  0  0  0  0  0  0  0  0  0  0
  141.6960   81.0790  223.8810 C   0  0  0  0  0  0  0  0  0  0  0  0
  142.7880   80.4990  223.2790 C   0  0  0  0  0  0  0  0  0  0  0  0
  142.6760   79.3660  222.4630 C   0  0  0  0  0  0  0  0  0  0  0  0
  139.6110   71.4760  223.0090 C   0  0  0  0  0  0  0  0  0  0  0  0
  139.2040   70.1660  222.8690 C   0  0  0  0  0  0  0  0  0  0  0  0
  139.3500   69.2680  223.9100 C   0  0  0  0  0  0  0  0  0  0  0  0
  139.9110   69.6870  225.1090 C   0  0  0  0  0  0  0  0  0  0  0  0
  140.0840   68.8430  226.1850 C   0  0  0  0  0  0  0  0  0  0  0  0
  140.6520   69.3440  227.3450 C   0  0  0  0  0  0  0  0  0  0  0  0
  140.8790   68.2810  228.7210 Cl  0  0  0  0  0  0  0  0  0  0  0  0
  141.0490   70.6750  227.4450 C   0  0  0  0  0  0  0  0  0  0  0  0
  140.8710   71.5120  226.3640 C   0  0  0  0  0  0  0  0  0  0  0  0
  140.3010   71.0050  225.2010 C   0  0  0  0  0  0  0  0  0  0  0  0
  140.1510   71.8620  224.1810 N   0  0  0  0  0  0  0  0  0  0  0  0
  139.5740   74.1060  223.1970 H   0  0  0  0  0  0  0  0  0  0  0  0
  140.0999   74.6532  220.4005 H   0  0  0  0  0  0  0  0  0  0  0  0
  138.3145   74.6759  220.6942 H   0  0  0  0  0  0  0  0  0  0  0  0
  138.6899   77.0639  219.4146 H   0  0  0  0  0  0  0  0  0  0  0  0
  138.7832   78.6805  220.2731 H   0  0  0  0  0  0  0  0  0  0  0  0
  140.4353   77.5737  218.0609 H   0  0  0  0  0  0  0  0  0  0  0  0
  139.7101   79.2240  218.3281 H   0  0  0  0  0  0  0  0  0  0  0  0
  142.2016   79.1603  218.4795 H   0  0  0  0  0  0  0  0  0  0  0  0
  141.3730   79.7681  219.9506 H   0  0  0  0  0  0  0  0  0  0  0  0
  142.2458   76.8706  219.5559 H   0  0  0  0  0  0  0  0  0  0  0  0
  143.2341   78.0952  220.3972 H   0  0  0  0  0  0  0  0  0  0  0  0
  141.7795   76.7878  222.0063 H   0  0  0  0  0  0  0  0  0  0  0  0
  139.3643   78.9454  222.6855 H   0  0  0  0  0  0  0  0  0  0  0  0
  139.5632   80.9276  224.1147 H   0  0  0  0  0  0  0  0  0  0  0  0
  141.7998   81.9694  224.5185 H   0  0  0  0  0  0  0  0  0  0  0  0
  143.7824   80.9394  223.4438 H   0  0  0  0  0  0  0  0  0  0  0  0
  143.5761   78.9345  222.0007 H   0  0  0  0  0  0  0  0  0  0  0  0
  138.7589   69.8323  221.9200 H   0  0  0  0  0  0  0  0  0  0  0  0
  139.0228   68.2248  223.7888 H   0  0  0  0  0  0  0  0  0  0  0  0
  139.7761   67.7888  226.1236 H   0  0  0  0  0  0  0  0  0  0  0  0
  141.4989   71.0538  228.3746 H   0  0  0  0  0  0  0  0  0  0  0  0
  141.1759   72.5674  226.4206 H   0  0  0  0  0  0  0  0  0  0  0  0
  1  2  2  0
  2  3  1  0
  3  4  1  0
  4  5  1  0
  5  6  2  0
  5  7  1  0
  7  8  1  0
  8  9  1  0
  9 10  1  0
 10 11  1  0
 11 12  1  0
 12 13  1  0
 13 14  2  0
 14 15  1  0
 15 16  2  0
 16 17  1  0
 17 18  2  0
  2 19  1  0
 19 20  2  0
 20 21  1  0
 21 22  2  0
 22 23  1  0
 23 24  2  0
 24 25  1  0
 24 26  1  0
 26 27  2  0
 27 28  1  0
 28 29  2  0
 12  7  1  0
 18 13  1  0
 29 19  1  0
 28 22  1  0
  3 30  1  0
  4 31  1  0
  4 32  1  0
  8 33  1  0
  8 34  1  0
  9 35  1  0
  9 36  1  0
 10 37  1  0
 10 38  1  0
 11 39  1  0
 11 40  1  0
 12 41  1  1
 14 42  1  0
 15 43  1  0
 16 44  1  0
 17 45  1  0
 18 46  1  0
 20 47  1  0
 21 48  1  0
 23 49  1  0
 26 50  1  0
 27 51  1  0
M  END
>  <smiles>  (1) 
O=C(NCC(=O)N1CCCC[C@H]1c1ccccc1)c1ccc2cc(Cl)ccc2n1

>  <score_type>  (1) 
oracle

>  <origin>  (1) 
autodockgpu

>  <m_score__min__energy>  (1) 
-9.1300000000000008

>  <m_primary>  (1) 
energy

>  <rmsd>  (1) 
1.9326530842590999

>  <m_score__min__rmsd>  (1) 
1.9326530842590999

>  <meeko>  (1) 
{"free_energy": -8.92, "intermolecular_energy": -10.41, "internal_energy": -1.95, "cluster_size": 29, "cluster_id": 1, "rank_in_cluster": 17}

>  <energy>  (1) 
-9.13

>  <cluster_rmsd>  (1) 
0.0

>  <cluster>  (1) 
1

$$$$

     RDKit          3D

 51 54  0  0  0  0  0  0  0  0999 V2000
  140.8990   72.6480  220.9050 O   0  0  0  0  0  0  0  0  0  0  0  0
  140.2820   72.8830  221.9840 C   0  0  0  0  0  0  0  0  0  0  0  0
  139.6530   74.1430  222.1720 N   0  0  0  0  0  0  0  0  0  0  0  0
  139.6950   75.1670  221.1700 C   0  0  0  0  0  0  0  0  0  0  0  0
  139.0060   76.4210  221.6410 C   0  0  0  0  0  0  0  0  0  0  0  0
  138.1560   76.2640  222.5480 O   0  0  0  0  0  0  0  0  0  0  0  0
  139.3270   77.6860  221.0660 N   0  0  0  0  0  0  0  0  0  0  0  0
  138.2710   78.6010  220.7670 C   0  0  0  0  0  0  0  0  0  0  0  0
  138.5720   79.5400  219.6390 C   0  0  0  0  0  0  0  0  0  0  0  0
  140.0360   79.8890  219.5420 C   0  0  0  0  0  0  0  0  0  0  0  0
  140.8440   78.6230  219.4820 C   0  0  0  0  0  0  0  0  0  0  0  0
  140.7380   77.9440  220.8220 C   0  0  1  0  0  0  0  0  0  0  0  0
  141.3930   78.7430  221.8570 C   0  0  0  0  0  0  0  0  0  0  0  0
  142.2080   79.8300  221.6260 C   0  0  0  0  0  0  0  0  0  0  0  0
  142.8020   80.5620  222.6370 C   0  0  0  0  0  0  0  0  0  0  0  0
  142.5930   80.2180  223.9570 C   0  0  0  0  0  0  0  0  0  0  0  0
  141.7810   79.1360  224.2080 C   0  0  0  0  0  0  0  0  0  0  0  0
  141.1830   78.3990  223.1780 C   0  0  0  0  0  0  0  0  0  0  0  0
  140.1990   71.8820  223.0530 C   0  0  0  0  0  0  0  0  0  0  0  0
  139.6470   70.6430  222.8070 C   0  0  0  0  0  0  0  0  0  0  0  0
  139.5660   69.6950  223.8110 C   0  0  0  0  0  0  0  0  0  0  0  0
  140.0450   69.9920  225.0800 C   0  0  0  0  0  0  0  0  0  0  0  0
  139.9950   69.0940  226.1240 C   0  0  0  0  0  0  0  0  0  0  0  0
  140.4960   69.4730  227.3590 C   0  0  0  0  0  0  0  0  0  0  0  0
  140.4390   68.3400  228.6950 Cl  0  0  0  0  0  0  0  0  0  0  0  0
  141.0460   70.7350  227.5650 C   0  0  0  0  0  0  0  0  0  0  0  0
  141.0920   71.6280  226.5150 C   0  0  0  0  0  0  0  0  0  0  0  0
  140.5880   71.2430  225.2770 C   0  0  0  0  0  0  0  0  0  0  0  0
  140.6570   72.1500  224.2910 N   0  0  0  0  0  0  0  0  0  0  0  0
  139.1470   74.3000  223.0900 H   0  0  0  0  0  0  0  0  0  0  0  0
  140.7450   75.4000  220.9393 H   0  0  0  0  0  0  0  0  0  0  0  0
  139.1727   74.7988  220.2746 H   0  0  0  0  0  0  0  0  0  0  0  0
  137.3756   78.0195  220.5020 H   0  0  0  0  0  0  0  0  0  0  0  0
  138.1270   79.2210  221.6641 H   0  0  0  0  0  0  0  0  0  0  0  0
  138.2605   79.0673  218.6959 H   0  0  0  0  0  0  0  0  0  0  0  0
  138.0217   80.4731  219.8299 H   0  0  0  0  0  0  0  0  0  0  0  0
  140.2132   80.4818  218.6325 H   0  0  0  0  0  0  0  0  0  0  0  0
  140.3347   80.4761  220.4230 H   0  0  0  0  0  0  0  0  0  0  0  0
  140.4477   77.9633  218.6960 H   0  0  0  0  0  0  0  0  0  0  0  0
  141.8948   78.8491  219.2484 H   0  0  0  0  0  0  0  0  0  0  0  0
  141.2685   76.9805  220.8389 H   0  0  0  0  0  0  0  0  0  0  0  0
  142.3953   80.1303  220.5845 H   0  0  0  0  0  0  0  0  0  0  0  0
  143.4429   81.4208  222.3887 H   0  0  0  0  0  0  0  0  0  0  0  0
  143.0573   80.7865  224.7763 H   0  0  0  0  0  0  0  0  0  0  0  0
  141.5955   78.8403  225.2511 H   0  0  0  0  0  0  0  0  0  0  0  0
  140.5413   77.5398  223.4230 H   0  0  0  0  0  0  0  0  0  0  0  0
  139.2672   70.4059  221.8023 H   0  0  0  0  0  0  0  0  0  0  0  0
  139.1236   68.7092  223.6048 H   0  0  0  0  0  0  0  0  0  0  0  0
  139.5642   68.0923  225.9792 H   0  0  0  0  0  0  0  0  0  0  0  0
  141.4391   71.0166  228.5530 H   0  0  0  0  0  0  0  0  0  0  0  0
  141.5214   72.6311  226.6546 H   0  0  0  0  0  0  0  0  0  0  0  0
  1  2  2  0
  2  3  1  0
  3  4  1  0
  4  5  1  0
  5  6  2  0
  5  7  1  0
  7  8  1  0
  8  9  1  0
  9 10  1  0
 10 11  1  0
 11 12  1  0
 12 13  1  0
 13 14  2  0
 14 15  1  0
 15 16  2  0
 16 17  1  0
 17 18  2  0
  2 19  1  0
 19 20  2  0
 20 21  1  0
 21 22  2  0
 22 23  1  0
 23 24  2  0
 24 25  1  0
 24 26  1  0
 26 27  2  0
 27 28  1  0
 28 29  2  0
 12  7  1  0
 18 13  1  0
 29 19  1  0
 28 22  1  0
  3 30  1  0
  4 31  1  0
  4 32  1  0
  8 33  1  0
  8 34  1  0
  9 35  1  0
  9 36  1  0
 10 37  1  0
 10 38  1  0
 11 39  1  0
 11 40  1  0
 12 41  1  6
 14 42  1  0
 15 43  1  0
 16 44  1  0
 17 45  1  0
 18 46  1  0
 20 47  1  0
 21 48  1  0
 23 49  1  0
 26 50  1  0
 27 51  1  0
M  END
>  <smiles>  (2) 
O=C(NCC(=O)N1CCCC[C@H]1c1ccccc1)c1ccc2cc(Cl)ccc2n1

>  <score_type>  (2) 
oracle

>  <origin>  (2) 
autodockgpu

>  <m_score__min__energy>  (2) 
-9.1300000000000008

>  <m_primary>  (2) 
energy

>  <rmsd>  (2) 
2.4693141611232075

>  <m_score__min__rmsd>  (2) 
2.4693141611232075

>  <meeko>  (2) 
{"free_energy": -8.75, "intermolecular_energy": -10.24, "internal_energy": -1.78, "cluster_size": 29, "cluster_id": 1, "rank_in_cluster": 25}

>  <energy>  (2) 
-9.12

>  <cluster_rmsd>  (2) 
1.22

>  <cluster>  (2) 
1

$$$$

     RDKit          3D

 51 54  0  0  0  0  0  0  0  0999 V2000
  133.6440   69.2570  226.1250 O   0  0  0  0  0  0  0  0  0  0  0  0
  134.1200   70.3820  225.7980 C   0  0  0  0  0  0  0  0  0  0  0  0
  135.2450   70.4430  224.9330 N   0  0  0  0  0  0  0  0  0  0  0  0
  135.8650   69.2600  224.4130 C   0  0  0  0  0  0  0  0  0  0  0  0
  137.3400   69.2350  224.7210 C   0  0  0  0  0  0  0  0  0  0  0  0
  137.7440   68.2320  225.3540 O   0  0  0  0  0  0  0  0  0  0  0  0
  138.1870   70.3020  224.3030 N   0  0  0  0  0  0  0  0  0  0  0  0
  137.6000   71.4700  223.7260 C   0  0  0  0  0  0  0  0  0  0  0  0
  138.4930   72.1970  222.7670 C   0  0  0  0  0  0  0  0  0  0  0  0
  139.9530   72.0820  223.1230 C   0  0  0  0  0  0  0  0  0  0  0  0
  140.3130   70.6310  223.2740 C   0  0  0  0  0  0  0  0  0  0  0  0
  139.6150   70.1070  224.5010 C   0  0  1  0  0  0  0  0  0  0  0  0
  140.1500   70.7400  225.7060 C   0  0  0  0  0  0  0  0  0  0  0  0
  141.1070   71.7320  225.7270 C   0  0  0  0  0  0  0  0  0  0  0  0
  141.5780   72.3080  226.8920 C   0  0  0  0  0  0  0  0  0  0  0  0
  141.0920   71.8960  228.1150 C   0  0  0  0  0  0  0  0  0  0  0  0
  140.1350   70.9070  228.1150 C   0  0  0  0  0  0  0  0  0  0  0  0
  139.6620   70.3290  226.9310 C   0  0  0  0  0  0  0  0  0  0  0  0
  133.5370   71.6340  226.2930 C   0  0  0  0  0  0  0  0  0  0  0  0
  132.4030   71.6140  227.0770 C   0  0  0  0  0  0  0  0  0  0  0  0
  131.8490   72.7910  227.5460 C   0  0  0  0  0  0  0  0  0  0  0  0
  132.4390   74.0060  227.2250 C   0  0  0  0  0  0  0  0  0  0  0  0
  131.9380   75.2150  227.6590 C   0  0  0  0  0  0  0  0  0  0  0  0
  132.5890   76.3810  227.2920 C   0  0  0  0  0  0  0  0  0  0  0  0
  131.9620   77.9250  227.8380 Cl  0  0  0  0  0  0  0  0  0  0  0  0
  133.7320   76.3570  226.4980 C   0  0  0  0  0  0  0  0  0  0  0  0
  134.2260   75.1440  226.0680 C   0  0  0  0  0  0  0  0  0  0  0  0
  133.5700   73.9760  226.4390 C   0  0  0  0  0  0  0  0  0  0  0  0
  134.0920   72.8240  225.9930 N   0  0  0  0  0  0  0  0  0  0  0  0
  135.6140   71.4050  224.6840 H   0  0  0  0  0  0  0  0  0  0  0  0
  135.3893   68.3775  224.8656 H   0  0  0  0  0  0  0  0  0  0  0  0
  135.7380   69.2528  223.3204 H   0  0  0  0  0  0  0  0  0  0  0  0
  136.6891   71.1684  223.1881 H   0  0  0  0  0  0  0  0  0  0  0  0
  137.3958   72.1634  224.5551 H   0  0  0  0  0  0  0  0  0  0  0  0
  138.3429   71.7779  221.7611 H   0  0  0  0  0  0  0  0  0  0  0  0
  138.2256   73.2631  222.8103 H   0  0  0  0  0  0  0  0  0  0  0  0
  140.5626   72.5310  222.3250 H   0  0  0  0  0  0  0  0  0  0  0  0
  140.1451   72.6103  224.0685 H   0  0  0  0  0  0  0  0  0  0  0  0
  139.9827   70.0696  222.3876 H   0  0  0  0  0  0  0  0  0  0  0  0
  141.4023   70.5145  223.3733 H   0  0  0  0  0  0  0  0  0  0  0  0
  139.7939   69.0320  224.6503 H   0  0  0  0  0  0  0  0  0  0  0  0
  141.5165   72.0829  224.7683 H   0  0  0  0  0  0  0  0  0  0  0  0
  142.3427   73.0972  226.8434 H   0  0  0  0  0  0  0  0  0  0  0  0
  141.4549   72.3403  229.0535 H   0  0  0  0  0  0  0  0  0  0  0  0
  139.7287   70.5595  229.0763 H   0  0  0  0  0  0  0  0  0  0  0  0
  138.8956   69.5412  226.9766 H   0  0  0  0  0  0  0  0  0  0  0  0
  131.9343   70.6521  227.3320 H   0  0  0  0  0  0  0  0  0  0  0  0
  130.9442   72.7647  228.1711 H   0  0  0  0  0  0  0  0  0  0  0  0
  131.0355   75.2528  228.2868 H   0  0  0  0  0  0  0  0  0  0  0  0
  134.2348   77.2942  226.2172 H   0  0  0  0  0  0  0  0  0  0  0  0
  135.1277   75.1009  225.4394 H   0  0  0  0  0  0  0  0  0  0  0  0
  1  2  2  0
  2  3  1  0
  3  4  1  0
  4  5  1  0
  5  6  2  0
  5  7  1  0
  7  8  1  0
  8  9  1  0
  9 10  1  0
 10 11  1  0
 11 12  1  0
 12 13  1  0
 13 14  2  0
 14 15  1  0
 15 16  2  0
 16 17  1  0
 17 18  2  0
  2 19  1  0
 19 20  2  0
 20 21  1  0
 21 22  2  0
 22 23  1  0
 23 24  2  0
 24 25  1  0
 24 26  1  0
 26 27  2  0
 27 28  1  0
 28 29  2  0
 12  7  1  0
 18 13  1  0
 29 19  1  0
 28 22  1  0
  3 30  1  0
  4 31  1  0
  4 32  1  0
  8 33  1  0
  8 34  1  0
  9 35  1  0
  9 36  1  0
 10 37  1  0
 10 38  1  0
 11 39  1  0
 11 40  1  0
 12 41  1  1
 14 42  1  0
 15 43  1  0
 16 44  1  0
 17 45  1  0
 18 46  1  0
 20 47  1  0
 21 48  1  0
 23 49  1  0
 26 50  1  0
 27 51  1  0
M  END
>  <smiles>  (3) 
O=C(NCC(=O)N1CCCC[C@H]1c1ccccc1)c1ccc2cc(Cl)ccc2n1

>  <score_type>  (3) 
oracle

>  <origin>  (3) 
autodockgpu

>  <m_score__min__energy>  (3) 
-9.1300000000000008

>  <m_primary>  (3) 
energy

>  <rmsd>  (3) 
7.87397906525139

>  <m_score__min__rmsd>  (3) 
7.87397906525139

>  <meeko>  (3) 
{"free_energy": -8.43, "intermolecular_energy": -9.92, "internal_energy": -1.39, "cluster_size": 3, "cluster_id": 3, "rank_in_cluster": 1}

>  <energy>  (3) 
-9.11

>  <cluster_rmsd>  (3) 
1.22

>  <cluster>  (3) 
1

$$$$

     RDKit          3D

 51 54  0  0  0  0  0  0  0  0999 V2000
  140.1230   72.3910  220.6550 O   0  0  0  0  0  0  0  0  0  0  0  0
  139.8940   72.7490  221.8460 C   0  0  0  0  0  0  0  0  0  0  0  0
  139.5860   74.1070  222.1240 N   0  0  0  0  0  0  0  0  0  0  0  0
  139.5250   75.0960  221.0880 C   0  0  0  0  0  0  0  0  0  0  0  0
  139.5410   76.4890  221.6610 C   0  0  0  0  0  0  0  0  0  0  0  0
  139.0330   76.6130  222.7990 O   0  0  0  0  0  0  0  0  0  0  0  0
  140.1060   77.5710  220.9250 N   0  0  0  0  0  0  0  0  0  0  0  0
  139.2970   78.2560  219.9660 C   0  0  0  0  0  0  0  0  0  0  0  0
  140.0680   78.8730  218.8390 C   0  0  0  0  0  0  0  0  0  0  0  0
  141.4460   79.3280  219.2510 C   0  0  0  0  0  0  0  0  0  0  0  0
  142.1710   78.1830  219.9010 C   0  0  0  0  0  0  0  0  0  0  0  0
  141.4950   77.8930  221.2150 C   0  0  1  0  0  0  0  0  0  0  0  0
  141.6750   79.0100  222.1420 C   0  0  0  0  0  0  0  0  0  0  0  0
  142.8850   79.4470  222.6370 C   0  0  0  0  0  0  0  0  0  0  0  0
  143.0080   80.5130  223.5070 C   0  0  0  0  0  0  0  0  0  0  0  0
  141.8870   81.2000  223.9270 C   0  0  0  0  0  0  0  0  0  0  0  0
  140.6700   80.7790  223.4430 C   0  0  0  0  0  0  0  0  0  0  0  0
  140.5520   79.6980  222.5610 C   0  0  0  0  0  0  0  0  0  0  0  0
  139.9380   71.7900  222.9560 C   0  0  0  0  0  0  0  0  0  0  0  0
  139.4870   70.4990  222.7820 C   0  0  0  0  0  0  0  0  0  0  0  0
  139.5270   69.5920  223.8250 C   0  0  0  0  0  0  0  0  0  0  0  0
  140.0260   69.9820  225.0600 C   0  0  0  0  0  0  0  0  0  0  0  0
  140.0930   69.1280  226.1400 C   0  0  0  0  0  0  0  0  0  0  0  0
  140.6050   69.6010  227.3370 C   0  0  0  0  0  0  0  0  0  0  0  0
  140.6970   68.5250  228.7180 Cl  0  0  0  0  0  0  0  0  0  0  0  0
  141.0500   70.9130  227.4710 C   0  0  0  0  0  0  0  0  0  0  0  0
  140.9790   71.7610  226.3860 C   0  0  0  0  0  0  0  0  0  0  0  0
  140.4640   71.2820  225.1860 C   0  0  0  0  0  0  0  0  0  0  0  0
  140.4180   72.1480  224.1630 N   0  0  0  0  0  0  0  0  0  0  0  0
  139.4000   74.3650  223.1350 H   0  0  0  0  0  0  0  0  0  0  0  0
  140.3921   74.9721  220.4225 H   0  0  0  0  0  0  0  0  0  0  0  0
  138.5857   74.9596  220.5320 H   0  0  0  0  0  0  0  0  0  0  0  0
  138.5820   77.5361  219.5411 H   0  0  0  0  0  0  0  0  0  0  0  0
  138.8046   79.0816  220.5007 H   0  0  0  0  0  0  0  0  0  0  0  0
  140.1696   78.1295  218.0347 H   0  0  0  0  0  0  0  0  0  0  0  0
  139.5123   79.7621  218.5064 H   0  0  0  0  0  0  0  0  0  0  0  0
  142.0043   79.6606  218.3635 H   0  0  0  0  0  0  0  0  0  0  0  0
  141.3621   80.1634  219.9617 H   0  0  0  0  0  0  0  0  0  0  0  0
  142.1248   77.2953  219.2530 H   0  0  0  0  0  0  0  0  0  0  0  0
  143.2280   78.4412  220.0627 H   0  0  0  0  0  0  0  0  0  0  0  0
  141.9441   77.0305  221.7292 H   0  0  0  0  0  0  0  0  0  0  0  0
  143.7985   78.9205  222.3235 H   0  0  0  0  0  0  0  0  0  0  0  0
  144.0027   80.8153  223.8663 H   0  0  0  0  0  0  0  0  0  0  0  0
  141.9636   82.0501  224.6209 H   0  0  0  0  0  0  0  0  0  0  0  0
  139.7596   81.3091  223.7593 H   0  0  0  0  0  0  0  0  0  0  0  0
  139.5587   79.3942  222.1991 H   0  0  0  0  0  0  0  0  0  0  0  0
  139.0915   70.1874  221.8040 H   0  0  0  0  0  0  0  0  0  0  0  0
  139.1643   68.5642  223.6763 H   0  0  0  0  0  0  0  0  0  0  0  0
  139.7456   68.0880  226.0527 H   0  0  0  0  0  0  0  0  0  0  0  0
  141.4533   71.2690  228.4305 H   0  0  0  0  0  0  0  0  0  0  0  0
  141.3249   72.8020  226.4683 H   0  0  0  0  0  0  0  0  0  0  0  0
  1  2  2  0
  2  3  1  0
  3  4  1  0
  4  5  1  0
  5  6  2  0
  5  7  1  0
  7  8  1  0
  8  9  1  0
  9 10  1  0
 10 11  1  0
 11 12  1  0
 12 13  1  0
 13 14  2  0
 14 15  1  0
 15 16  2  0
 16 17  1  0
 17 18  2  0
  2 19  1  0
 19 20  2  0
 20 21  1  0
 21 22  2  0
 22 23  1  0
 23 24  2  0
 24 25  1  0
 24 26  1  0
 26 27  2  0
 27 28  1  0
 28 29  2  0
 12  7  1  0
 18 13  1  0
 29 19  1  0
 28 22  1  0
  3 30  1  0
  4 31  1  0
  4 32  1  0
  8 33  1  0
  8 34  1  0
  9 35  1  0
  9 36  1  0
 10 37  1  0
 10 38  1  0
 11 39  1  0
 11 40  1  0
 12 41  1  1
 14 42  1  0
 15 43  1  0
 16 44  1  0
 17 45  1  0
 18 46  1  0
 20 47  1  0
 21 48  1  0
 23 49  1  0
 26 50  1  0
 27 51  1  0
M  END
>  <smiles>  (4) 
O=C(NCC(=O)N1CCCC[C@H]1c1ccccc1)c1ccc2cc(Cl)ccc2n1

>  <score_type>  (4) 
oracle

>  <origin>  (4) 
autodockgpu

>  <m_score__min__energy>  (4) 
-9.1300000000000008

>  <m_primary>  (4) 
energy

>  <rmsd>  (4) 
2.1693050786770587

>  <m_score__min__rmsd>  (4) 
2.1693050786770587

>  <meeko>  (4) 
{"free_energy": -9.04, "intermolecular_energy": -10.53, "internal_energy": -1.93, "cluster_size": 29, "cluster_id": 1, "rank_in_cluster": 9}

>  <energy>  (4) 
-9.11

>  <cluster_rmsd>  (4) 
0.18

>  <cluster>  (4) 
1

$$$$

     RDKit          3D

 51 54  0  0  0  0  0  0  0  0999 V2000
  139.3050   72.1170  220.8090 O   0  0  0  0  0  0  0  0  0  0  0  0
  139.4440   72.4850  222.0110 C   0  0  0  0  0  0  0  0  0  0  0  0
  139.4370   73.8700  222.3260 N   0  0  0  0  0  0  0  0  0  0  0  0
  139.2770   74.8750  221.3170 C   0  0  0  0  0  0  0  0  0  0  0  0
  140.5360   75.6850  221.1480 C   0  0  0  0  0  0  0  0  0  0  0  0
  141.5900   75.1360  221.5440 O   0  0  0  0  0  0  0  0  0  0  0  0
  140.4890   76.9870  220.5710 N   0  0  0  0  0  0  0  0  0  0  0  0
  139.2610   77.4550  220.0090 C   0  0  0  0  0  0  0  0  0  0  0  0
  139.4310   78.4580  218.9080 C   0  0  0  0  0  0  0  0  0  0  0  0
  140.6540   79.3210  219.0840 C   0  0  0  0  0  0  0  0  0  0  0  0
  141.8590   78.4410  219.2670 C   0  0  0  0  0  0  0  0  0  0  0  0
  141.7280   77.7490  220.5980 C   0  0  1  0  0  0  0  0  0  0  0  0
  141.8180   78.7170  221.6910 C   0  0  0  0  0  0  0  0  0  0  0  0
  142.2450   80.0210  221.5670 C   0  0  0  0  0  0  0  0  0  0  0  0
  142.3060   80.9040  222.6280 C   0  0  0  0  0  0  0  0  0  0  0  0
  141.9300   80.4980  223.8910 C   0  0  0  0  0  0  0  0  0  0  0  0
  141.5000   79.2000  224.0360 C   0  0  0  0  0  0  0  0  0  0  0  0
  141.4400   78.3100  222.9560 C   0  0  0  0  0  0  0  0  0  0  0  0
  139.6120   71.5110  223.0950 C   0  0  0  0  0  0  0  0  0  0  0  0
  139.2180   70.2010  222.9240 C   0  0  0  0  0  0  0  0  0  0  0  0
  139.3750   69.2790  223.9430 C   0  0  0  0  0  0  0  0  0  0  0  0
  139.9340   69.6740  225.1500 C   0  0  0  0  0  0  0  0  0  0  0  0
  140.1180   68.8060  226.2050 C   0  0  0  0  0  0  0  0  0  0  0  0
  140.6840   69.2840  227.3760 C   0  0  0  0  0  0  0  0  0  0  0  0
  140.9240   68.1910  228.7250 Cl  0  0  0  0  0  0  0  0  0  0  0  0
  141.0690   70.6160  227.5070 C   0  0  0  0  0  0  0  0  0  0  0  0
  140.8810   71.4770  226.4470 C   0  0  0  0  0  0  0  0  0  0  0  0
  140.3120   70.9930  225.2740 C   0  0  0  0  0  0  0  0  0  0  0  0
  140.1520   71.8730  224.2750 N   0  0  0  0  0  0  0  0  0  0  0  0
  139.5560   74.1350  223.3450 H   0  0  0  0  0  0  0  0  0  0  0  0
  139.0331   74.3879  220.3614 H   0  0  0  0  0  0  0  0  0  0  0  0
  138.4670   75.5520  221.6261 H   0  0  0  0  0  0  0  0  0  0  0  0
  138.7144   76.5897  219.6058 H   0  0  0  0  0  0  0  0  0  0  0  0
  138.7170   77.9638  220.8184 H   0  0  0  0  0  0  0  0  0  0  0  0
  139.5161   77.9194  217.9527 H   0  0  0  0  0  0  0  0  0  0  0  0
  138.5536   79.1212  218.9275 H   0  0  0  0  0  0  0  0  0  0  0  0
  140.7908   79.9511  218.1928 H   0  0  0  0  0  0  0  0  0  0  0  0
  140.5284   79.9634  219.9680 H   0  0  0  0  0  0  0  0  0  0  0  0
  141.9028   77.6945  218.4602 H   0  0  0  0  0  0  0  0  0  0  0  0
  142.7804   79.0411  219.2358 H   0  0  0  0  0  0  0  0  0  0  0  0
  142.5546   77.0466  220.7805 H   0  0  0  0  0  0  0  0  0  0  0  0
  142.5530   80.3772  220.5729 H   0  0  0  0  0  0  0  0  0  0  0  0
  142.6556   81.9341  222.4646 H   0  0  0  0  0  0  0  0  0  0  0  0
  141.9724   81.1854  224.7487 H   0  0  0  0  0  0  0  0  0  0  0  0
  141.1932   78.8492  225.0324 H   0  0  0  0  0  0  0  0  0  0  0  0
  141.0894   77.2797  223.1162 H   0  0  0  0  0  0  0  0  0  0  0  0
  138.7745   69.8860  221.9679 H   0  0  0  0  0  0  0  0  0  0  0  0
  139.0577   68.2359  223.7970 H   0  0  0  0  0  0  0  0  0  0  0  0
  139.8202   67.7506  226.1186 H   0  0  0  0  0  0  0  0  0  0  0  0
  141.5175   70.9765  228.4445 H   0  0  0  0  0  0  0  0  0  0  0  0
  141.1772   72.5333  226.5279 H   0  0  0  0  0  0  0  0  0  0  0  0
  1  2  2  0
  2  3  1  0
  3  4  1  0
  4  5  1  0
  5  6  2  0
  5  7  1  0
  7  8  1  0
  8  9  1  0
  9 10  1  0
 10 11  1  0
 11 12  1  0
 12 13  1  0
 13 14  2  0
 14 15  1  0
 15 16  2  0
 16 17  1  0
 17 18  2  0
  2 19  1  0
 19 20  2  0
 20 21  1  0
 21 22  2  0
 22 23  1  0
 23 24  2  0
 24 25  1  0
 24 26  1  0
 26 27  2  0
 27 28  1  0
 28 29  2  0
 12  7  1  0
 18 13  1  0
 29 19  1  0
 28 22  1  0
  3 30  1  0
  4 31  1  0
  4 32  1  0
  8 33  1  0
  8 34  1  0
  9 35  1  0
  9 36  1  0
 10 37  1  0
 10 38  1  0
 11 39  1  0
 11 40  1  0
 12 41  1  1
 14 42  1  0
 15 43  1  0
 16 44  1  0
 17 45  1  0
 18 46  1  0
 20 47  1  0
 21 48  1  0
 23 49  1  0
 26 50  1  0
 27 51  1  0
M  END
>  <smiles>  (5) 
O=C(NCC(=O)N1CCCC[C@H]1c1ccccc1)c1ccc2cc(Cl)ccc2n1

>  <score_type>  (5) 
oracle

>  <origin>  (5) 
autodockgpu

>  <m_score__min__energy>  (5) 
-9.1300000000000008

>  <m_primary>  (5) 
energy

>  <rmsd>  (5) 
1.7965889134429955

>  <m_score__min__rmsd>  (5) 
1.7965889134429955

>  <meeko>  (5) 
{"free_energy": -8.9, "intermolecular_energy": -10.39, "internal_energy": -1.54, "cluster_size": 29, "cluster_id": 1, "rank_in_cluster": 21}

>  <energy>  (5) 
-9.08

>  <cluster_rmsd>  (5) 
0.43

>  <cluster>  (5) 
1

$$$$

     RDKit          3D

 51 54  0  0  0  0  0  0  0  0999 V2000
  140.8210   72.2560  220.6370 O   0  0  0  0  0  0  0  0  0  0  0  0
  140.2140   72.5830  221.6970 C   0  0  0  0  0  0  0  0  0  0  0  0
  139.6140   73.8670  221.7960 N   0  0  0  0  0  0  0  0  0  0  0  0
  139.6740   74.8140  220.7230 C   0  0  0  0  0  0  0  0  0  0  0  0
  140.3640   76.0830  221.1520 C   0  0  0  0  0  0  0  0  0  0  0  0
  141.6110   76.0890  221.0320 O   0  0  0  0  0  0  0  0  0  0  0  0
  139.6120   77.1830  221.6590 N   0  0  0  0  0  0  0  0  0  0  0  0
  138.5780   76.9360  222.6140 C   0  0  0  0  0  0  0  0  0  0  0  0
  137.4710   77.9450  222.5960 C   0  0  0  0  0  0  0  0  0  0  0  0
  137.9400   79.3240  222.2060 C   0  0  0  0  0  0  0  0  0  0  0  0
  138.6820   79.2440  220.9010 C   0  0  0  0  0  0  0  0  0  0  0  0
  139.9670   78.4970  221.1460 C   0  0  1  0  0  0  0  0  0  0  0  0
  140.8510   79.2680  222.0200 C   0  0  0  0  0  0  0  0  0  0  0  0
  141.3030   80.5460  221.7690 C   0  0  0  0  0  0  0  0  0  0  0  0
  142.1330   81.2400  222.6280 C   0  0  0  0  0  0  0  0  0  0  0  0
  142.5540   80.6590  223.8070 C   0  0  0  0  0  0  0  0  0  0  0  0
  142.1120   79.3840  224.0760 C   0  0  0  0  0  0  0  0  0  0  0  0
  141.2710   78.6870  223.2010 C   0  0  0  0  0  0  0  0  0  0  0  0
  140.1130   71.6630  222.8360 C   0  0  0  0  0  0  0  0  0  0  0  0
  139.4980   70.4370  222.6910 C   0  0  0  0  0  0  0  0  0  0  0  0
  139.4010   69.5670  223.7610 C   0  0  0  0  0  0  0  0  0  0  0  0
  139.9260   69.9280  224.9940 C   0  0  0  0  0  0  0  0  0  0  0  0
  139.8620   69.1080  226.1000 C   0  0  0  0  0  0  0  0  0  0  0  0
  140.4110   69.5470  227.2930 C   0  0  0  0  0  0  0  0  0  0  0  0
  140.3380   68.5140  228.7070 Cl  0  0  0  0  0  0  0  0  0  0  0  0
  141.0240   70.7930  227.3970 C   0  0  0  0  0  0  0  0  0  0  0  0
  141.0830   71.6080  226.2860 C   0  0  0  0  0  0  0  0  0  0  0  0
  140.5300   71.1620  225.0900 C   0  0  0  0  0  0  0  0  0  0  0  0
  140.6150   71.9940  224.0410 N   0  0  0  0  0  0  0  0  0  0  0  0
  139.1150   74.1000  222.7010 H   0  0  0  0  0  0  0  0  0  0  0  0
  140.2294   74.3701  219.8837 H   0  0  0  0  0  0  0  0  0  0  0  0
  138.6459   75.0624  220.4207 H   0  0  0  0  0  0  0  0  0  0  0  0
  138.1458   75.9461  222.4060 H   0  0  0  0  0  0  0  0  0  0  0  0
  139.0450   76.9972  223.6081 H   0  0  0  0  0  0  0  0  0  0  0  0
  136.7084   77.6165  221.8744 H   0  0  0  0  0  0  0  0  0  0  0  0
  137.0673   78.0102  223.6172 H   0  0  0  0  0  0  0  0  0  0  0  0
  137.0717   79.9901  222.0951 H   0  0  0  0  0  0  0  0  0  0  0  0
  138.6062   79.7216  222.9857 H   0  0  0  0  0  0  0  0  0  0  0  0
  138.0739   78.7083  220.1572 H   0  0  0  0  0  0  0  0  0  0  0  0
  138.8919   80.2529  220.5163 H   0  0  0  0  0  0  0  0  0  0  0  0
  140.5457   78.3565  220.2211 H   0  0  0  0  0  0  0  0  0  0  0  0
  140.9867   81.0381  220.8374 H   0  0  0  0  0  0  0  0  0  0  0  0
  142.4593   82.2587  222.3716 H   0  0  0  0  0  0  0  0  0  0  0  0
  143.2163   81.1937  224.5037 H   0  0  0  0  0  0  0  0  0  0  0  0
  142.4301   78.8966  225.0094 H   0  0  0  0  0  0  0  0  0  0  0  0
  140.9419   77.6687  223.4556 H   0  0  0  0  0  0  0  0  0  0  0  0
  139.0808   70.1488  221.7148 H   0  0  0  0  0  0  0  0  0  0  0  0
  138.9090   68.5912  223.6355 H   0  0  0  0  0  0  0  0  0  0  0  0
  139.3823   68.1202  226.0360 H   0  0  0  0  0  0  0  0  0  0  0  0
  141.4558   71.1231  228.3533 H   0  0  0  0  0  0  0  0  0  0  0  0
  141.5607   72.5971  226.3448 H   0  0  0  0  0  0  0  0  0  0  0  0
  1  2  2  0
  2  3  1  0
  3  4  1  0
  4  5  1  0
  5  6  2  0
  5  7  1  0
  7  8  1  0
  8  9  1  0
  9 10  1  0
 10 11  1  0
 11 12  1  0
 12 13  1  0
 13 14  2  0
 14 15  1  0
 15 16  2  0
 16 17  1  0
 17 18  2  0
  2 19  1  0
 19 20  2  0
 20 21  1  0
 21 22  2  0
 22 23  1  0
 23 24  2  0
 24 25  1  0
 24 26  1  0
 26 27  2  0
 27 28  1  0
 28 29  2  0
 12  7  1  0
 18 13  1  0
 29 19  1  0
 28 22  1  0
  3 30  1  0
  4 31  1  0
  4 32  1  0
  8 33  1  0
  8 34  1  0
  9 35  1  0
  9 36  1  0
 10 37  1  0
 10 38  1  0
 11 39  1  0
 11 40  1  0
 12 41  1  6
 14 42  1  0
 15 43  1  0
 16 44  1  0
 17 45  1  0
 18 46  1  0
 20 47  1  0
 21 48  1  0
 23 49  1  0
 26 50  1  0
 27 51  1  0
M  END
>  <smiles>  (6) 
O=C(NCC(=O)N1CCCC[C@H]1c1ccccc1)c1ccc2cc(Cl)ccc2n1

>  <score_type>  (6) 
oracle

>  <origin>  (6) 
autodockgpu

>  <m_score__min__energy>  (6) 
-9.1300000000000008

>  <m_primary>  (6) 
energy

>  <rmsd>  (6) 
2.9436183514725496

>  <m_score__min__rmsd>  (6) 
2.9436183514725496

>  <meeko>  (6) 
{"free_energy": -8.9, "intermolecular_energy": -10.39, "internal_energy": -1.4, "cluster_size": 29, "cluster_id": 1, "rank_in_cluster": 20}

>  <energy>  (6) 
-9.08

>  <cluster_rmsd>  (6) 
0.2

>  <cluster>  (6) 
1

$$$$

     RDKit          3D

 51 54  0  0  0  0  0  0  0  0999 V2000
  140.2630   72.4540  220.7150 O   0  0  0  0  0  0  0  0  0  0  0  0
  139.8180   72.7400  221.8640 C   0  0  0  0  0  0  0  0  0  0  0  0
  139.2500   74.0210  222.0960 N   0  0  0  0  0  0  0  0  0  0  0  0
  139.1630   75.0100  221.0630 C   0  0  0  0  0  0  0  0  0  0  0  0
  139.3240   76.4000  221.6210 C   0  0  0  0  0  0  0  0  0  0  0  0
  138.8140   76.5930  222.7480 O   0  0  0  0  0  0  0  0  0  0  0  0
  140.0170   77.4030  220.8820 N   0  0  0  0  0  0  0  0  0  0  0  0
  139.3440   78.0670  219.8100 C   0  0  0  0  0  0  0  0  0  0  0  0
  140.2530   78.5720  218.7320 C   0  0  0  0  0  0  0  0  0  0  0  0
  141.6080   78.9800  219.2500 C   0  0  0  0  0  0  0  0  0  0  0  0
  142.2020   77.8430  220.0340 C   0  0  0  0  0  0  0  0  0  0  0  0
  141.3880   77.6710  221.2890 C   0  0  1  0  0  0  0  0  0  0  0  0
  141.5420   78.8340  222.1640 C   0  0  0  0  0  0  0  0  0  0  0  0
  142.7440   79.3790  222.5590 C   0  0  0  0  0  0  0  0  0  0  0  0
  142.8420   80.4840  223.3830 C   0  0  0  0  0  0  0  0  0  0  0  0
  141.7020   81.1000  223.8550 C   0  0  0  0  0  0  0  0  0  0  0  0
  140.4920   80.5710  223.4710 C   0  0  0  0  0  0  0  0  0  0  0  0
  140.4000   79.4510  222.6360 C   0  0  0  0  0  0  0  0  0  0  0  0
  139.8750   71.7770  222.9690 C   0  0  0  0  0  0  0  0  0  0  0  0
  139.4400   70.4810  222.7880 C   0  0  0  0  0  0  0  0  0  0  0  0
  139.4920   69.5700  223.8270 C   0  0  0  0  0  0  0  0  0  0  0  0
  139.9850   69.9610  225.0640 C   0  0  0  0  0  0  0  0  0  0  0  0
  140.0620   69.1030  226.1400 C   0  0  0  0  0  0  0  0  0  0  0  0
  140.5680   69.5760  227.3400 C   0  0  0  0  0  0  0  0  0  0  0  0
  140.6730   68.4950  228.7160 Cl  0  0  0  0  0  0  0  0  0  0  0  0
  140.9960   70.8940  227.4800 C   0  0  0  0  0  0  0  0  0  0  0  0
  140.9140   71.7450  226.3990 C   0  0  0  0  0  0  0  0  0  0  0  0
  140.4060   71.2660  225.1960 C   0  0  0  0  0  0  0  0  0  0  0  0
  140.3490   72.1360  224.1780 N   0  0  0  0  0  0  0  0  0  0  0  0
  138.8890   74.2210  223.0730 H   0  0  0  0  0  0  0  0  0  0  0  0
  139.9565   74.8266  220.3236 H   0  0  0  0  0  0  0  0  0  0  0  0
  138.1703   74.9367  220.5949 H   0  0  0  0  0  0  0  0  0  0  0  0
  138.6333   77.3594  219.3582 H   0  0  0  0  0  0  0  0  0  0  0  0
  138.8503   78.9485  220.2451 H   0  0  0  0  0  0  0  0  0  0  0  0
  140.3881   77.7756  217.9853 H   0  0  0  0  0  0  0  0  0  0  0  0
  139.7833   79.4664  218.2967 H   0  0  0  0  0  0  0  0  0  0  0  0
  142.2662   79.2265  218.4038 H   0  0  0  0  0  0  0  0  0  0  0  0
  141.5045   79.8617  219.8996 H   0  0  0  0  0  0  0  0  0  0  0  0
  142.1682   76.9196  219.4371 H   0  0  0  0  0  0  0  0  0  0  0  0
  143.2515   78.0573  220.2844 H   0  0  0  0  0  0  0  0  0  0  0  0
  141.7359   76.8205  221.8938 H   0  0  0  0  0  0  0  0  0  0  0  0
  143.6726   78.9109  222.2004 H   0  0  0  0  0  0  0  0  0  0  0  0
  143.8319   80.8733  223.6632 H   0  0  0  0  0  0  0  0  0  0  0  0
  141.7583   81.9799  224.5128 H   0  0  0  0  0  0  0  0  0  0  0  0
  139.5663   81.0433  223.8317 H   0  0  0  0  0  0  0  0  0  0  0  0
  139.4114   79.0597  222.3539 H   0  0  0  0  0  0  0  0  0  0  0  0
  139.0482   70.1692  221.8086 H   0  0  0  0  0  0  0  0  0  0  0  0
  139.1435   68.5380  223.6734 H   0  0  0  0  0  0  0  0  0  0  0  0
  139.7270   68.0593  226.0475 H   0  0  0  0  0  0  0  0  0  0  0  0
  141.3944   71.2512  228.4411 H   0  0  0  0  0  0  0  0  0  0  0  0
  141.2462   72.7900  226.4865 H   0  0  0  0  0  0  0  0  0  0  0  0
  1  2  2  0
  2  3  1  0
  3  4  1  0
  4  5  1  0
  5  6  2  0
  5  7  1  0
  7  8  1  0
  8  9  1  0
  9 10  1  0
 10 11  1  0
 11 12  1  0
 12 13  1  0
 13 14  2  0
 14 15  1  0
 15 16  2  0
 16 17  1  0
 17 18  2  0
  2 19  1  0
 19 20  2  0
 20 21  1  0
 21 22  2  0
 22 23  1  0
 23 24  2  0
 24 25  1  0
 24 26  1  0
 26 27  2  0
 27 28  1  0
 28 29  2  0
 12  7  1  0
 18 13  1  0
 29 19  1  0
 28 22  1  0
  3 30  1  0
  4 31  1  0
  4 32  1  0
  8 33  1  0
  8 34  1  0
  9 35  1  0
  9 36  1  0
 10 37  1  0
 10 38  1  0
 11 39  1  0
 11 40  1  0
 12 41  1  1
 14 42  1  0
 15 43  1  0
 16 44  1  0
 17 45  1  0
 18 46  1  0
 20 47  1  0
 21 48  1  0
 23 49  1  0
 26 50  1  0
 27 51  1  0
M  END
>  <smiles>  (7) 
O=C(NCC(=O)N1CCCC[C@H]1c1ccccc1)c1ccc2cc(Cl)ccc2n1

>  <score_type>  (7) 
oracle

>  <origin>  (7) 
autodockgpu

>  <m_score__min__energy>  (7) 
-9.1300000000000008

>  <m_primary>  (7) 
energy

>  <rmsd>  (7) 
2.0541765156511462

>  <m_score__min__rmsd>  (7) 
2.0541765156511462

>  <meeko>  (7) 
{"free_energy": -9.11, "intermolecular_energy": -10.6, "internal_energy": -1.79, "cluster_size": 29, "cluster_id": 1, "rank_in_cluster": 4}

>  <energy>  (7) 
-9.07

>  <cluster_rmsd>  (7) 
0.29

>  <cluster>  (7) 
1

$$$$

     RDKit          3D

 51 54  0  0  0  0  0  0  0  0999 V2000
  139.9940   72.1860  220.7080 O   0  0  0  0  0  0  0  0  0  0  0  0
  139.8680   72.5390  221.9160 C   0  0  0  0  0  0  0  0  0  0  0  0
  139.6590   73.9090  222.2280 N   0  0  0  0  0  0  0  0  0  0  0  0
  139.5860   74.9150  221.2100 C   0  0  0  0  0  0  0  0  0  0  0  0
  140.7000   75.9190  221.3520 C   0  0  0  0  0  0  0  0  0  0  0  0
  140.7020   76.5790  222.4170 O   0  0  0  0  0  0  0  0  0  0  0  0
  141.6690   76.0790  220.3190 N   0  0  0  0  0  0  0  0  0  0  0  0
  142.1960   77.3810  220.0560 C   0  0  0  0  0  0  0  0  0  0  0  0
  142.6500   77.5880  218.6440 C   0  0  0  0  0  0  0  0  0  0  0  0
  143.1760   76.3270  218.0060 C   0  0  0  0  0  0  0  0  0  0  0  0
  142.1480   75.2390  218.1380 C   0  0  0  0  0  0  0  0  0  0  0  0
  142.0460   74.8740  219.5960 C   0  0  1  0  0  0  0  0  0  0  0  0
  143.2890   74.2570  220.0590 C   0  0  0  0  0  0  0  0  0  0  0  0
  144.4380   74.9380  220.3990 C   0  0  0  0  0  0  0  0  0  0  0  0
  145.5880   74.3120  220.8390 C   0  0  0  0  0  0  0  0  0  0  0  0
  145.6290   72.9380  220.9580 C   0  0  0  0  0  0  0  0  0  0  0  0
  144.4910   72.2410  220.6240 C   0  0  0  0  0  0  0  0  0  0  0  0
  143.3290   72.8810  220.1790 C   0  0  0  0  0  0  0  0  0  0  0  0
  139.9320   71.5640  223.0090 C   0  0  0  0  0  0  0  0  0  0  0  0
  139.5080   70.2670  222.8140 C   0  0  0  0  0  0  0  0  0  0  0  0
  139.5660   69.3430  223.8410 C   0  0  0  0  0  0  0  0  0  0  0  0
  140.0560   69.7240  225.0830 C   0  0  0  0  0  0  0  0  0  0  0  0
  140.1410   68.8530  226.1490 C   0  0  0  0  0  0  0  0  0  0  0  0
  140.6430   69.3170  227.3540 C   0  0  0  0  0  0  0  0  0  0  0  0
  140.7570   68.2200  228.7170 Cl  0  0  0  0  0  0  0  0  0  0  0  0
  141.0610   70.6350  227.5100 C   0  0  0  0  0  0  0  0  0  0  0  0
  140.9720   71.4990  226.4390 C   0  0  0  0  0  0  0  0  0  0  0  0
  140.4680   71.0300  225.2310 C   0  0  0  0  0  0  0  0  0  0  0  0
  140.4030   71.9120  224.2220 N   0  0  0  0  0  0  0  0  0  0  0  0
  139.5580   74.1630  223.2520 H   0  0  0  0  0  0  0  0  0  0  0  0
  139.6613   74.4332  220.2240 H   0  0  0  0  0  0  0  0  0  0  0  0
  138.6269   75.4437  221.3124 H   0  0  0  0  0  0  0  0  0  0  0  0
  141.4130   78.1210  220.2782 H   0  0  0  0  0  0  0  0  0  0  0  0
  143.0854   77.4956  220.6930 H   0  0  0  0  0  0  0  0  0  0  0  0
  141.7980   77.9523  218.0512 H   0  0  0  0  0  0  0  0  0  0  0  0
  143.4745   78.3158  218.6657 H   0  0  0  0  0  0  0  0  0  0  0  0
  143.3812   76.5117  216.9412 H   0  0  0  0  0  0  0  0  0  0  0  0
  144.1053   76.0195  218.5078 H   0  0  0  0  0  0  0  0  0  0  0  0
  141.1743   75.5983  217.7735 H   0  0  0  0  0  0  0  0  0  0  0  0
  142.4397   74.3614  217.5424 H   0  0  0  0  0  0  0  0  0  0  0  0
  141.2733   74.1124  219.7773 H   0  0  0  0  0  0  0  0  0  0  0  0
  144.4393   76.0349  220.3158 H   0  0  0  0  0  0  0  0  0  0  0  0
  146.4742   74.9110  221.0954 H   0  0  0  0  0  0  0  0  0  0  0  0
  146.5353   72.4207  221.3060 H   0  0  0  0  0  0  0  0  0  0  0  0
  144.4946   71.1443  220.7096 H   0  0  0  0  0  0  0  0  0  0  0  0
  142.4410   72.2845  219.9229 H   0  0  0  0  0  0  0  0  0  0  0  0
  139.1193   69.9638  221.8307 H   0  0  0  0  0  0  0  0  0  0  0  0
  139.2253   68.3104  223.6748 H   0  0  0  0  0  0  0  0  0  0  0  0
  139.8157   67.8074  226.0442 H   0  0  0  0  0  0  0  0  0  0  0  0
  141.4573   70.9832  228.4752 H   0  0  0  0  0  0  0  0  0  0  0  0
  141.2955   72.5456  226.5390 H   0  0  0  0  0  0  0  0  0  0  0  0
  1  2  2  0
  2  3  1  0
  3  4  1  0
  4  5  1  0
  5  6  2  0
  5  7  1  0
  7  8  1  0
  8  9  1  0
  9 10  1  0
 10 11  1  0
 11 12  1  0
 12 13  1  0
 13 14  2  0
 14 15  1  0
 15 16  2  0
 16 17  1  0
 17 18  2  0
  2 19  1  0
 19 20  2  0
 20 21  1  0
 21 22  2  0
 22 23  1  0
 23 24  2  0
 24 25  1  0
 24 26  1  0
 26 27  2  0
 27 28  1  0
 28 29  2  0
 12  7  1  0
 18 13  1  0
 29 19  1  0
 28 22  1  0
  3 30  1  0
  4 31  1  0
  4 32  1  0
  8 33  1  0
  8 34  1  0
  9 35  1  0
  9 36  1  0
 10 37  1  0
 10 38  1  0
 11 39  1  0
 11 40  1  0
 12 41  1  6
 14 42  1  0
 15 43  1  0
 16 44  1  0
 17 45  1  0
 18 46  1  0
 20 47  1  0
 21 48  1  0
 23 49  1  0
 26 50  1  0
 27 51  1  0
M  END
>  <smiles>  (8) 
O=C(NCC(=O)N1CCCC[C@H]1c1ccccc1)c1ccc2cc(Cl)ccc2n1

>  <score_type>  (8) 
oracle

>  <origin>  (8) 
autodockgpu

>  <m_score__min__energy>  (8) 
-9.1300000000000008

>  <m_primary>  (8) 
energy

>  <rmsd>  (8) 
2.253398821143129

>  <m_score__min__rmsd>  (8) 
2.253398821143129

>  <meeko>  (8) 
{"free_energy": -8.86, "intermolecular_energy": -10.35, "internal_energy": -1.95, "cluster_size": 16, "cluster_id": 2, "rank_in_cluster": 4}

>  <energy>  (8) 
-9.06

>  <cluster_rmsd>  (8) 
0.32

>  <cluster>  (8) 
1

$$$$

     RDKit          3D

 51 54  0  0  0  0  0  0  0  0999 V2000
  139.9520   72.2430  220.7750 O   0  0  0  0  0  0  0  0  0  0  0  0
  139.8400   72.5850  221.9870 C   0  0  0  0  0  0  0  0  0  0  0  0
  139.6410   73.9530  222.3140 N   0  0  0  0  0  0  0  0  0  0  0  0
  139.5630   74.9690  221.3060 C   0  0  0  0  0  0  0  0  0  0  0  0
  140.7100   75.9390  221.4180 C   0  0  0  0  0  0  0  0  0  0  0  0
  140.7500   76.6100  222.4750 O   0  0  0  0  0  0  0  0  0  0  0  0
  141.6650   76.0600  220.3670 N   0  0  0  0  0  0  0  0  0  0  0  0
  142.1970   77.3490  220.0550 C   0  0  0  0  0  0  0  0  0  0  0  0
  142.6330   77.5070  218.6310 C   0  0  0  0  0  0  0  0  0  0  0  0
  143.1410   76.2220  218.0270 C   0  0  0  0  0  0  0  0  0  0  0  0
  142.1070   75.1460  218.2090 C   0  0  0  0  0  0  0  0  0  0  0  0
  142.0240   74.8290  219.6780 C   0  0  1  0  0  0  0  0  0  0  0  0
  143.2690   74.2180  220.1440 C   0  0  0  0  0  0  0  0  0  0  0  0
  144.4420   74.8960  220.3980 C   0  0  0  0  0  0  0  0  0  0  0  0
  145.5940   74.2760  220.8450 C   0  0  0  0  0  0  0  0  0  0  0  0
  145.6110   72.9140  221.0580 C   0  0  0  0  0  0  0  0  0  0  0  0
  144.4490   72.2200  220.8110 C   0  0  0  0  0  0  0  0  0  0  0  0
  143.2850   72.8540  220.3590 C   0  0  0  0  0  0  0  0  0  0  0  0
  139.9100   71.5990  223.0710 C   0  0  0  0  0  0  0  0  0  0  0  0
  139.4780   70.3060  222.8670 C   0  0  0  0  0  0  0  0  0  0  0  0
  139.5420   69.3720  223.8860 C   0  0  0  0  0  0  0  0  0  0  0  0
  140.0460   69.7390  225.1260 C   0  0  0  0  0  0  0  0  0  0  0  0
  140.1370   68.8590  226.1830 C   0  0  0  0  0  0  0  0  0  0  0  0
  140.6520   69.3080  227.3870 C   0  0  0  0  0  0  0  0  0  0  0  0
  140.7750   68.1980  228.7390 Cl  0  0  0  0  0  0  0  0  0  0  0  0
  141.0780   70.6240  227.5510 C   0  0  0  0  0  0  0  0  0  0  0  0
  140.9830   71.4980  226.4900 C   0  0  0  0  0  0  0  0  0  0  0  0
  140.4650   71.0420  225.2820 C   0  0  0  0  0  0  0  0  0  0  0  0
  140.3950   71.9340  224.2820 N   0  0  0  0  0  0  0  0  0  0  0  0
  139.5520   74.1970  223.3420 H   0  0  0  0  0  0  0  0  0  0  0  0
  139.5913   74.4933  220.3146 H   0  0  0  0  0  0  0  0  0  0  0  0
  138.6235   75.5242  221.4441 H   0  0  0  0  0  0  0  0  0  0  0  0
  141.4221   78.1013  220.2636 H   0  0  0  0  0  0  0  0  0  0  0  0
  143.0958   77.4778  220.6760 H   0  0  0  0  0  0  0  0  0  0  0  0
  141.7756   77.8586  218.0383 H   0  0  0  0  0  0  0  0  0  0  0  0
  143.4630   78.2288  218.6180 H   0  0  0  0  0  0  0  0  0  0  0  0
  143.3322   76.3705  216.9540 H   0  0  0  0  0  0  0  0  0  0  0  0
  144.0753   75.9241  218.5254 H   0  0  0  0  0  0  0  0  0  0  0  0
  141.1306   75.5007  217.8473 H   0  0  0  0  0  0  0  0  0  0  0  0
  142.3838   74.2476  217.6378 H   0  0  0  0  0  0  0  0  0  0  0  0
  141.2492   74.0787  219.8944 H   0  0  0  0  0  0  0  0  0  0  0  0
  144.4625   75.9840  220.2371 H   0  0  0  0  0  0  0  0  0  0  0  0
  146.5000   74.8713  221.0313 H   0  0  0  0  0  0  0  0  0  0  0  0
  146.5182   72.4022  221.4116 H   0  0  0  0  0  0  0  0  0  0  0  0
  144.4338   71.1322  220.9738 H   0  0  0  0  0  0  0  0  0  0  0  0
  142.3770   72.2613  220.1739 H   0  0  0  0  0  0  0  0  0  0  0  0
  139.0785   70.0138  221.8846 H   0  0  0  0  0  0  0  0  0  0  0  0
  139.1948   68.3425  223.7139 H   0  0  0  0  0  0  0  0  0  0  0  0
  139.8055   67.8161  226.0716 H   0  0  0  0  0  0  0  0  0  0  0  0
  141.4852   70.9613  228.5156 H   0  0  0  0  0  0  0  0  0  0  0  0
  141.3123   72.5421  226.5967 H   0  0  0  0  0  0  0  0  0  0  0  0
  1  2  2  0
  2  3  1  0
  3  4  1  0
  4  5  1  0
  5  6  2  0
  5  7  1  0
  7  8  1  0
  8  9  1  0
  9 10  1  0
 10 11  1  0
 11 12  1  0
 12 13  1  0
 13 14  2  0
 14 15  1  0
 15 16  2  0
 16 17  1  0
 17 18  2  0
  2 19  1  0
 19 20  2  0
 20 21  1  0
 21 22  2  0
 22 23  1  0
 23 24  2  0
 24 25  1  0
 24 26  1  0
 26 27  2  0
 27 28  1  0
 28 29  2  0
 12  7  1  0
 18 13  1  0
 29 19  1  0
 28 22  1  0
  3 30  1  0
  4 31  1  0
  4 32  1  0
  8 33  1  0
  8 34  1  0
  9 35  1  0
  9 36  1  0
 10 37  1  0
 10 38  1  0
 11 39  1  0
 11 40  1  0
 12 41  1  6
 14 42  1  0
 15 43  1  0
 16 44  1  0
 17 45  1  0
 18 46  1  0
 20 47  1  0
 21 48  1  0
 23 49  1  0
 26 50  1  0
 27 51  1  0
M  END
>  <smiles>  (9) 
O=C(NCC(=O)N1CCCC[C@H]1c1ccccc1)c1ccc2cc(Cl)ccc2n1

>  <score_type>  (9) 
oracle

>  <origin>  (9) 
autodockgpu

>  <m_score__min__energy>  (9) 
-9.1300000000000008

>  <m_primary>  (9) 
energy

>  <rmsd>  (9) 
2.256678234737707

>  <m_score__min__rmsd>  (9) 
2.256678234737707

>  <meeko>  (9) 
{"free_energy": -8.88, "intermolecular_energy": -10.37, "internal_energy": -1.95, "cluster_size": 16, "cluster_id": 2, "rank_in_cluster": 1}

>  <energy>  (9) 
-9.04

>  <cluster_rmsd>  (9) 
0.33

>  <cluster>  (9) 
1

$$$$

     RDKit          3D

 51 54  0  0  0  0  0  0  0  0999 V2000
  140.5780   72.7570  220.9140 O   0  0  0  0  0  0  0  0  0  0  0  0
  139.9120   72.9060  221.9790 C   0  0  0  0  0  0  0  0  0  0  0  0
  139.0910   74.0540  222.1380 N   0  0  0  0  0  0  0  0  0  0  0  0
  138.9910   75.0600  221.1220 C   0  0  0  0  0  0  0  0  0  0  0  0
  139.2340   76.4350  221.6890 C   0  0  0  0  0  0  0  0  0  0  0  0
  138.7570   76.6430  222.8280 O   0  0  0  0  0  0  0  0  0  0  0  0
  139.9610   77.4090  220.9450 N   0  0  0  0  0  0  0  0  0  0  0  0
  139.3470   78.0160  219.8060 C   0  0  0  0  0  0  0  0  0  0  0  0
  140.3130   78.4780  218.7590 C   0  0  0  0  0  0  0  0  0  0  0  0
  141.6330   78.9240  219.3350 C   0  0  0  0  0  0  0  0  0  0  0  0
  142.1890   77.8300  220.2040 C   0  0  0  0  0  0  0  0  0  0  0  0
  141.3040   77.7100  221.4170 C   0  0  1  0  0  0  0  0  0  0  0  0
  141.3990   78.9130  222.2430 C   0  0  0  0  0  0  0  0  0  0  0  0
  140.3280   79.6340  222.7260 C   0  0  0  0  0  0  0  0  0  0  0  0
  140.4650   80.7620  223.5110 C   0  0  0  0  0  0  0  0  0  0  0  0
  141.7200   81.2230  223.8510 C   0  0  0  0  0  0  0  0  0  0  0  0
  142.8020   80.5170  223.3790 C   0  0  0  0  0  0  0  0  0  0  0  0
  142.6560   79.3730  222.5840 C   0  0  0  0  0  0  0  0  0  0  0  0
  139.9650   71.9160  223.0600 C   0  0  0  0  0  0  0  0  0  0  0  0
  139.5200   70.6280  222.8510 C   0  0  0  0  0  0  0  0  0  0  0  0
  139.5690   69.6920  223.8670 C   0  0  0  0  0  0  0  0  0  0  0  0
  140.0700   70.0490  225.1110 C   0  0  0  0  0  0  0  0  0  0  0  0
  140.1460   69.1650  226.1660 C   0  0  0  0  0  0  0  0  0  0  0  0
  140.6600   69.6060  227.3740 C   0  0  0  0  0  0  0  0  0  0  0  0
  140.7630   68.4910  228.7230 Cl  0  0  0  0  0  0  0  0  0  0  0  0
  141.0990   70.9160  227.5440 C   0  0  0  0  0  0  0  0  0  0  0  0
  141.0200   71.7940  226.4840 C   0  0  0  0  0  0  0  0  0  0  0  0
  140.5030   71.3480  225.2720 C   0  0  0  0  0  0  0  0  0  0  0  0
  140.4480   72.2420  224.2750 N   0  0  0  0  0  0  0  0  0  0  0  0
  138.5480   74.1400  223.0440 H   0  0  0  0  0  0  0  0  0  0  0  0
  139.7388   74.8568  220.3413 H   0  0  0  0  0  0  0  0  0  0  0  0
  137.9743   75.0313  220.7030 H   0  0  0  0  0  0  0  0  0  0  0  0
  138.6678   77.2817  219.3483 H   0  0  0  0  0  0  0  0  0  0  0  0
  138.8240   78.9126  220.1701 H   0  0  0  0  0  0  0  0  0  0  0  0
  140.4971   77.6483  218.0606 H   0  0  0  0  0  0  0  0  0  0  0  0
  139.8630   79.3455  218.2542 H   0  0  0  0  0  0  0  0  0  0  0  0
  142.3373   79.1383  218.5177 H   0  0  0  0  0  0  0  0  0  0  0  0
  141.4853   79.8336  219.9357 H   0  0  0  0  0  0  0  0  0  0  0  0
  142.1958   76.8795  219.6504 H   0  0  0  0  0  0  0  0  0  0  0  0
  143.2211   78.0646  220.5034 H   0  0  0  0  0  0  0  0  0  0  0  0
  141.6220   76.8926  222.0809 H   0  0  0  0  0  0  0  0  0  0  0  0
  139.3129   79.2937  222.4734 H   0  0  0  0  0  0  0  0  0  0  0  0
  139.5705   81.2946  223.8663 H   0  0  0  0  0  0  0  0  0  0  0  0
  141.8502   82.1196  224.4748 H   0  0  0  0  0  0  0  0  0  0  0  0
  143.8149   80.8620  223.6341 H   0  0  0  0  0  0  0  0  0  0  0  0
  143.5486   78.8372  222.2288 H   0  0  0  0  0  0  0  0  0  0  0  0
  139.1221   70.3424  221.8661 H   0  0  0  0  0  0  0  0  0  0  0  0
  139.2118   68.6668  223.6899 H   0  0  0  0  0  0  0  0  0  0  0  0
  139.8039   68.1260  226.0502 H   0  0  0  0  0  0  0  0  0  0  0  0
  141.5038   71.2465  228.5119 H   0  0  0  0  0  0  0  0  0  0  0  0
  141.3614   72.8338  226.5952 H   0  0  0  0  0  0  0  0  0  0  0  0
  1  2  2  0
  2  3  1  0
  3  4  1  0
  4  5  1  0
  5  6  2  0
  5  7  1  0
  7  8  1  0
  8  9  1  0
  9 10  1  0
 10 11  1  0
 11 12  1  0
 12 13  1  0
 13 14  2  0
 14 15  1  0
 15 16  2  0
 16 17  1  0
 17 18  2  0
  2 19  1  0
 19 20  2  0
 20 21  1  0
 21 22  2  0
 22 23  1  0
 23 24  2  0
 24 25  1  0
 24 26  1  0
 26 27  2  0
 27 28  1  0
 28 29  2  0
 12  7  1  0
 18 13  1  0
 29 19  1  0
 28 22  1  0
  3 30  1  0
  4 31  1  0
  4 32  1  0
  8 33  1  0
  8 34  1  0
  9 35  1  0
  9 36  1  0
 10 37  1  0
 10 38  1  0
 11 39  1  0
 11 40  1  0
 12 41  1  1
 14 42  1  0
 15 43  1  0
 16 44  1  0
 17 45  1  0
 18 46  1  0
 20 47  1  0
 21 48  1  0
 23 49  1  0
 26 50  1  0
 27 51  1  0
M  END
>  <smiles>  (10) 
O=C(NCC(=O)N1CCCC[C@H]1c1ccccc1)c1ccc2cc(Cl)ccc2n1

>  <score_type>  (10) 
oracle

>  <origin>  (10) 
autodockgpu

>  <m_score__min__energy>  (10) 
-9.1300000000000008

>  <m_primary>  (10) 
energy

>  <rmsd>  (10) 
2.0983466312084826

>  <m_score__min__rmsd>  (10) 
2.0983466312084826

>  <meeko>  (10) 
{"free_energy": -9.13, "intermolecular_energy": -10.62, "internal_energy": -1.66, "cluster_size": 29, "cluster_id": 1, "rank_in_cluster": 1}

>  <energy>  (10) 
-9.03

>  <cluster_rmsd>  (10) 
0.34

>  <cluster>  (10) 
1

$$$$

     RDKit          3D

 51 54  0  0  0  0  0  0  0  0999 V2000
  139.2130   72.0520  220.7170 O   0  0  0  0  0  0  0  0  0  0  0  0
  139.3810   72.4450  221.9080 C   0  0  0  0  0  0  0  0  0  0  0  0
  139.3880   73.8370  222.1920 N   0  0  0  0  0  0  0  0  0  0  0  0
  139.2100   74.8200  221.1650 C   0  0  0  0  0  0  0  0  0  0  0  0
  139.3570   76.2160  221.7130 C   0  0  0  0  0  0  0  0  0  0  0  0
  138.8720   76.4050  222.8520 O   0  0  0  0  0  0  0  0  0  0  0  0
  140.0110   77.2290  220.9530 N   0  0  0  0  0  0  0  0  0  0  0  0
  139.3110   77.8470  219.8700 C   0  0  0  0  0  0  0  0  0  0  0  0
  140.1970   78.3630  218.7790 C   0  0  0  0  0  0  0  0  0  0  0  0
  141.5380   78.8320  219.2850 C   0  0  0  0  0  0  0  0  0  0  0  0
  142.1760   77.7320  220.0880 C   0  0  0  0  0  0  0  0  0  0  0  0
  141.3720   77.5560  221.3490 C   0  0  1  0  0  0  0  0  0  0  0  0
  141.4850   78.7400  222.2010 C   0  0  0  0  0  0  0  0  0  0  0  0
  142.6600   79.3950  222.5020 C   0  0  0  0  0  0  0  0  0  0  0  0
  142.7190   80.5160  223.3070 C   0  0  0  0  0  0  0  0  0  0  0  0
  141.5660   81.0360  223.8570 C   0  0  0  0  0  0  0  0  0  0  0  0
  140.3830   80.3970  223.5680 C   0  0  0  0  0  0  0  0  0  0  0  0
  140.3310   79.2610  222.7510 C   0  0  0  0  0  0  0  0  0  0  0  0
  139.5690   71.4940  223.0090 C   0  0  0  0  0  0  0  0  0  0  0  0
  139.2010   70.1740  222.8620 C   0  0  0  0  0  0  0  0  0  0  0  0
  139.3770   69.2740  223.8970 C   0  0  0  0  0  0  0  0  0  0  0  0
  139.9290   69.7020  225.0970 C   0  0  0  0  0  0  0  0  0  0  0  0
  140.1300   68.8570  226.1670 C   0  0  0  0  0  0  0  0  0  0  0  0
  140.6870   69.3680  227.3280 C   0  0  0  0  0  0  0  0  0  0  0  0
  140.9500   68.3040  228.6970 Cl  0  0  0  0  0  0  0  0  0  0  0  0
  141.0450   70.7090  227.4360 C   0  0  0  0  0  0  0  0  0  0  0  0
  140.8390   71.5470  226.3600 C   0  0  0  0  0  0  0  0  0  0  0  0
  140.2800   71.0310  225.1960 C   0  0  0  0  0  0  0  0  0  0  0  0
  140.1020   71.8890  224.1810 N   0  0  0  0  0  0  0  0  0  0  0  0
  139.5310   74.1240  223.2020 H   0  0  0  0  0  0  0  0  0  0  0  0
  139.9658   74.6610  220.3817 H   0  0  0  0  0  0  0  0  0  0  0  0
  138.1954   74.7131  220.7537 H   0  0  0  0  0  0  0  0  0  0  0  0
  138.6251   77.1052  219.4350 H   0  0  0  0  0  0  0  0  0  0  0  0
  138.7873   78.7186  220.2896 H   0  0  0  0  0  0  0  0  0  0  0  0
  140.3598   77.5571  218.0483 H   0  0  0  0  0  0  0  0  0  0  0  0
  139.6931   79.2299  218.3266 H   0  0  0  0  0  0  0  0  0  0  0  0
  142.1842   79.0873  218.4322 H   0  0  0  0  0  0  0  0  0  0  0  0
  141.4036   79.7214  219.9181 H   0  0  0  0  0  0  0  0  0  0  0  0
  142.1736   76.7966  219.5092 H   0  0  0  0  0  0  0  0  0  0  0  0
  143.2182   77.9879  220.3297 H   0  0  0  0  0  0  0  0  0  0  0  0
  141.7535   76.7313  221.9690 H   0  0  0  0  0  0  0  0  0  0  0  0
  143.5980   79.0053  222.0798 H   0  0  0  0  0  0  0  0  0  0  0  0
  143.6881   80.9952  223.5099 H   0  0  0  0  0  0  0  0  0  0  0  0
  141.5916   81.9270  224.5016 H   0  0  0  0  0  0  0  0  0  0  0  0
  139.4477   80.7909  223.9922 H   0  0  0  0  0  0  0  0  0  0  0  0
  139.3632   78.7801  222.5459 H   0  0  0  0  0  0  0  0  0  0  0  0
  138.7631   69.8331  221.9122 H   0  0  0  0  0  0  0  0  0  0  0  0
  139.0806   68.2223  223.7700 H   0  0  0  0  0  0  0  0  0  0  0  0
  139.8528   67.7946  226.1003 H   0  0  0  0  0  0  0  0  0  0  0  0
  141.4861   71.0950  228.3668 H   0  0  0  0  0  0  0  0  0  0  0  0
  141.1135   72.6104  226.4219 H   0  0  0  0  0  0  0  0  0  0  0  0
  1  2  2  0
  2  3  1  0
  3  4  1  0
  4  5  1  0
  5  6  2  0
  5  7  1  0
  7  8  1  0
  8  9  1  0
  9 10  1  0
 10 11  1  0
 11 12  1  0
 12 13  1  0
 13 14  2  0
 14 15  1  0
 15 16  2  0
 16 17  1  0
 17 18  2  0
  2 19  1  0
 19 20  2  0
 20 21  1  0
 21 22  2  0
 22 23  1  0
 23 24  2  0
 24 25  1  0
 24 26  1  0
 26 27  2  0
 27 28  1  0
 28 29  2  0
 12  7  1  0
 18 13  1  0
 29 19  1  0
 28 22  1  0
  3 30  1  0
  4 31  1  0
  4 32  1  0
  8 33  1  0
  8 34  1  0
  9 35  1  0
  9 36  1  0
 10 37  1  0
 10 38  1  0
 11 39  1  0
 11 40  1  0
 12 41  1  1
 14 42  1  0
 15 43  1  0
 16 44  1  0
 17 45  1  0
 18 46  1  0
 20 47  1  0
 21 48  1  0
 23 49  1  0
 26 50  1  0
 27 51  1  0
M  END
>  <smiles>  (11) 
O=C(NCC(=O)N1CCCC[C@H]1c1ccccc1)c1ccc2cc(Cl)ccc2n1

>  <score_type>  (11) 
oracle

>  <origin>  (11) 
autodockgpu

>  <m_score__min__energy>  (11) 
-9.1300000000000008

>  <m_primary>  (11) 
energy

>  <rmsd>  (11) 
1.9196721134753005

>  <m_score__min__rmsd>  (11) 
1.9196721134753005

>  <meeko>  (11) 
{"free_energy": -8.92, "intermolecular_energy": -10.42, "internal_energy": -1.93, "cluster_size": 29, "cluster_id": 1, "rank_in_cluster": 14}

>  <energy>  (11) 
-9.02

>  <cluster_rmsd>  (11) 
0.33

>  <cluster>  (11) 
1

$$$$

     RDKit          3D

 51 54  0  0  0  0  0  0  0  0999 V2000
  140.6270   72.3310  220.7820 O   0  0  0  0  0  0  0  0  0  0  0  0
  140.1590   72.6420  221.9150 C   0  0  0  0  0  0  0  0  0  0  0  0
  139.6550   73.9520  222.1310 N   0  0  0  0  0  0  0  0  0  0  0  0
  139.6610   74.9450  221.0980 C   0  0  0  0  0  0  0  0  0  0  0  0
  140.8380   75.8750  221.2400 C   0  0  0  0  0  0  0  0  0  0  0  0
  140.9100   76.4940  222.3260 O   0  0  0  0  0  0  0  0  0  0  0  0
  141.7840   76.0160  220.1830 N   0  0  0  0  0  0  0  0  0  0  0  0
  142.3110   77.3110  219.8890 C   0  0  0  0  0  0  0  0  0  0  0  0
  142.7350   77.4940  218.4640 C   0  0  0  0  0  0  0  0  0  0  0  0
  143.2420   76.2220  217.8350 C   0  0  0  0  0  0  0  0  0  0  0  0
  142.2120   75.1400  218.0060 C   0  0  0  0  0  0  0  0  0  0  0  0
  142.1410   74.7980  219.4710 C   0  0  1  0  0  0  0  0  0  0  0  0
  143.3910   74.1820  219.9170 C   0  0  0  0  0  0  0  0  0  0  0  0
  144.4770   74.8630  220.4250 C   0  0  0  0  0  0  0  0  0  0  0  0
  145.6370   74.2370  220.8410 C   0  0  0  0  0  0  0  0  0  0  0  0
  145.7540   72.8660  220.7590 C   0  0  0  0  0  0  0  0  0  0  0  0
  144.6800   72.1690  220.2550 C   0  0  0  0  0  0  0  0  0  0  0  0
  143.5070   72.8090  219.8360 C   0  0  0  0  0  0  0  0  0  0  0  0
  140.1210   71.6760  223.0190 C   0  0  0  0  0  0  0  0  0  0  0  0
  139.5970   70.4150  222.8260 C   0  0  0  0  0  0  0  0  0  0  0  0
  139.5600   69.5010  223.8630 C   0  0  0  0  0  0  0  0  0  0  0  0
  140.0540   69.8550  225.1120 C   0  0  0  0  0  0  0  0  0  0  0  0
  140.0460   68.9920  226.1870 C   0  0  0  0  0  0  0  0  0  0  0  0
  140.5590   69.4260  227.3980 C   0  0  0  0  0  0  0  0  0  0  0  0
  140.5560   68.3390  228.7730 Cl  0  0  0  0  0  0  0  0  0  0  0  0
  141.0790   70.7080  227.5510 C   0  0  0  0  0  0  0  0  0  0  0  0
  141.0830   71.5650  226.4700 C   0  0  0  0  0  0  0  0  0  0  0  0
  140.5670   71.1250  225.2560 C   0  0  0  0  0  0  0  0  0  0  0  0
  140.5950   71.9980  224.2380 N   0  0  0  0  0  0  0  0  0  0  0  0
  139.2710   74.1710  223.0940 H   0  0  0  0  0  0  0  0  0  0  0  0
  139.7157   74.4445  220.1200 H   0  0  0  0  0  0  0  0  0  0  0  0
  138.7380   75.5377  221.1805 H   0  0  0  0  0  0  0  0  0  0  0  0
  141.5365   78.0582  220.1168 H   0  0  0  0  0  0  0  0  0  0  0  0
  143.2145   77.4311  220.5048 H   0  0  0  0  0  0  0  0  0  0  0  0
  141.8716   77.8524  217.8842 H   0  0  0  0  0  0  0  0  0  0  0  0
  143.5625   78.2187  218.4563 H   0  0  0  0  0  0  0  0  0  0  0  0
  143.4252   76.3893  216.7633 H   0  0  0  0  0  0  0  0  0  0  0  0
  144.1807   75.9183  218.3215 H   0  0  0  0  0  0  0  0  0  0  0  0
  141.2320   75.4981  217.6576 H   0  0  0  0  0  0  0  0  0  0  0  0
  142.4866   74.2522  217.4175 H   0  0  0  0  0  0  0  0  0  0  0  0
  141.3698   74.0422  219.6810 H   0  0  0  0  0  0  0  0  0  0  0  0
  144.4173   75.9586  220.5031 H   0  0  0  0  0  0  0  0  0  0  0  0
  146.4699   74.8352  221.2390 H   0  0  0  0  0  0  0  0  0  0  0  0
  146.6695   72.3497  221.0835 H   0  0  0  0  0  0  0  0  0  0  0  0
  144.7449   71.0736  220.1788 H   0  0  0  0  0  0  0  0  0  0  0  0
  142.6718   72.2131  219.4393 H   0  0  0  0  0  0  0  0  0  0  0  0
  139.2047   70.1336  221.8376 H   0  0  0  0  0  0  0  0  0  0  0  0
  139.1409   68.4972  223.6994 H   0  0  0  0  0  0  0  0  0  0  0  0
  139.6388   67.9753  226.0846 H   0  0  0  0  0  0  0  0  0  0  0  0
  141.4816   71.0336  228.5215 H   0  0  0  0  0  0  0  0  0  0  0  0
  141.4889   72.5828  226.5671 H   0  0  0  0  0  0  0  0  0  0  0  0
  1  2  2  0
  2  3  1  0
  3  4  1  0
  4  5  1  0
  5  6  2  0
  5  7  1  0
  7  8  1  0
  8  9  1  0
  9 10  1  0
 10 11  1  0
 11 12  1  0
 12 13  1  0
 13 14  2  0
 14 15  1  0
 15 16  2  0
 16 17  1  0
 17 18  2  0
  2 19  1  0
 19 20  2  0
 20 21  1  0
 21 22  2  0
 22 23  1  0
 23 24  2  0
 24 25  1  0
 24 26  1  0
 26 27  2  0
 27 28  1  0
 28 29  2  0
 12  7  1  0
 18 13  1  0
 29 19  1  0
 28 22  1  0
  3 30  1  0
  4 31  1  0
  4 32  1  0
  8 33  1  0
  8 34  1  0
  9 35  1  0
  9 36  1  0
 10 37  1  0
 10 38  1  0
 11 39  1  0
 11 40  1  0
 12 41  1  6
 14 42  1  0
 15 43  1  0
 16 44  1  0
 17 45  1  0
 18 46  1  0
 20 47  1  0
 21 48  1  0
 23 49  1  0
 26 50  1  0
 27 51  1  0
M  END
>  <smiles>  (12) 
O=C(NCC(=O)N1CCCC[C@H]1c1ccccc1)c1ccc2cc(Cl)ccc2n1

>  <score_type>  (12) 
oracle

>  <origin>  (12) 
autodockgpu

>  <m_score__min__energy>  (12) 
-9.1300000000000008

>  <m_primary>  (12) 
energy

>  <rmsd>  (12) 
2.3100264549013025

>  <m_score__min__rmsd>  (12) 
2.3100264549013025

>  <meeko>  (12) 
{"free_energy": -8.86, "intermolecular_energy": -10.35, "internal_energy": -1.89, "cluster_size": 16, "cluster_id": 2, "rank_in_cluster": 3}

>  <energy>  (12) 
-8.99

>  <cluster_rmsd>  (12) 
0.49

>  <cluster>  (12) 
1

$$$$

     RDKit          3D

 51 54  0  0  0  0  0  0  0  0999 V2000
  140.1600   72.5830  220.7320 O   0  0  0  0  0  0  0  0  0  0  0  0
  139.9340   72.9020  221.9350 C   0  0  0  0  0  0  0  0  0  0  0  0
  139.6330   74.2520  222.2590 N   0  0  0  0  0  0  0  0  0  0  0  0
  139.5750   75.2750  221.2580 C   0  0  0  0  0  0  0  0  0  0  0  0
  140.8050   76.1440  221.2930 C   0  0  0  0  0  0  0  0  0  0  0  0
  140.9400   76.8510  222.3190 O   0  0  0  0  0  0  0  0  0  0  0  0
  141.7310   76.1360  220.2090 N   0  0  0  0  0  0  0  0  0  0  0  0
  142.2840   77.3740  219.7580 C   0  0  0  0  0  0  0  0  0  0  0  0
  142.6800   77.3820  218.3130 C   0  0  0  0  0  0  0  0  0  0  0  0
  143.1400   76.0320  217.8250 C   0  0  0  0  0  0  0  0  0  0  0  0
  142.0860   75.0060  218.1390 C   0  0  0  0  0  0  0  0  0  0  0  0
  142.0400   74.8360  219.6350 C   0  0  1  0  0  0  0  0  0  0  0  0
  143.2830   74.2400  220.1230 C   0  0  0  0  0  0  0  0  0  0  0  0
  144.4480   74.9290  220.3840 C   0  0  0  0  0  0  0  0  0  0  0  0
  145.5990   74.3240  220.8520 C   0  0  0  0  0  0  0  0  0  0  0  0
  145.6240   72.9650  221.0830 C   0  0  0  0  0  0  0  0  0  0  0  0
  144.4700   72.2590  220.8300 C   0  0  0  0  0  0  0  0  0  0  0  0
  143.3070   72.8790  220.3550 C   0  0  0  0  0  0  0  0  0  0  0  0
  139.9760   71.9060  223.0120 C   0  0  0  0  0  0  0  0  0  0  0  0
  139.5430   70.6170  222.7880 C   0  0  0  0  0  0  0  0  0  0  0  0
  139.5810   69.6740  223.7990 C   0  0  0  0  0  0  0  0  0  0  0  0
  140.0590   70.0280  225.0530 C   0  0  0  0  0  0  0  0  0  0  0  0
  140.1230   69.1370  226.1030 C   0  0  0  0  0  0  0  0  0  0  0  0
  140.6150   69.5740  227.3230 C   0  0  0  0  0  0  0  0  0  0  0  0
  140.7030   68.4520  228.6670 Cl  0  0  0  0  0  0  0  0  0  0  0  0
  141.0430   70.8860  227.5080 C   0  0  0  0  0  0  0  0  0  0  0  0
  140.9750   71.7700  226.4520 C   0  0  0  0  0  0  0  0  0  0  0  0
  140.4810   71.3270  225.2290 C   0  0  0  0  0  0  0  0  0  0  0  0
  140.4370   72.2280  224.2360 N   0  0  0  0  0  0  0  0  0  0  0  0
  139.4500   74.4760  223.2790 H   0  0  0  0  0  0  0  0  0  0  0  0
  139.4974   74.8032  220.2673 H   0  0  0  0  0  0  0  0  0  0  0  0
  138.6970   75.9070  221.4573 H   0  0  0  0  0  0  0  0  0  0  0  0
  141.5342   78.1635  219.9141 H   0  0  0  0  0  0  0  0  0  0  0  0
  143.2043   77.5379  220.3379 H   0  0  0  0  0  0  0  0  0  0  0  0
  141.8131   77.6958  217.7129 H   0  0  0  0  0  0  0  0  0  0  0  0
  143.5249   78.0782  218.2054 H   0  0  0  0  0  0  0  0  0  0  0  0
  143.3037   76.0702  216.7379 H   0  0  0  0  0  0  0  0  0  0  0  0
  144.0810   75.7596  218.3253 H   0  0  0  0  0  0  0  0  0  0  0  0
  141.1079   75.3497  217.7712 H   0  0  0  0  0  0  0  0  0  0  0  0
  142.3235   74.0493  217.6508 H   0  0  0  0  0  0  0  0  0  0  0  0
  141.2546   74.1316  219.9462 H   0  0  0  0  0  0  0  0  0  0  0  0
  144.4622   76.0152  220.2110 H   0  0  0  0  0  0  0  0  0  0  0  0
  146.4982   74.9287  221.0409 H   0  0  0  0  0  0  0  0  0  0  0  0
  146.5304   72.4648  221.4548 H   0  0  0  0  0  0  0  0  0  0  0  0
  144.4605   71.1733  221.0064 H   0  0  0  0  0  0  0  0  0  0  0  0
  142.4061   72.2770  220.1654 H   0  0  0  0  0  0  0  0  0  0  0  0
  139.1632   70.3352  221.7948 H   0  0  0  0  0  0  0  0  0  0  0  0
  139.2337   68.6475  223.6100 H   0  0  0  0  0  0  0  0  0  0  0  0
  139.7892   68.0967  225.9748 H   0  0  0  0  0  0  0  0  0  0  0  0
  141.4304   71.2131  228.4842 H   0  0  0  0  0  0  0  0  0  0  0  0
  141.3069   72.8115  226.5748 H   0  0  0  0  0  0  0  0  0  0  0  0
  1  2  2  0
  2  3  1  0
  3  4  1  0
  4  5  1  0
  5  6  2  0
  5  7  1  0
  7  8  1  0
  8  9  1  0
  9 10  1  0
 10 11  1  0
 11 12  1  0
 12 13  1  0
 13 14  2  0
 14 15  1  0
 15 16  2  0
 16 17  1  0
 17 18  2  0
  2 19  1  0
 19 20  2  0
 20 21  1  0
 21 22  2  0
 22 23  1  0
 23 24  2  0
 24 25  1  0
 24 26  1  0
 26 27  2  0
 27 28  1  0
 28 29  2  0
 12  7  1  0
 18 13  1  0
 29 19  1  0
 28 22  1  0
  3 30  1  0
  4 31  1  0
  4 32  1  0
  8 33  1  0
  8 34  1  0
  9 35  1  0
  9 36  1  0
 10 37  1  0
 10 38  1  0
 11 39  1  0
 11 40  1  0
 12 41  1  6
 14 42  1  0
 15 43  1  0
 16 44  1  0
 17 45  1  0
 18 46  1  0
 20 47  1  0
 21 48  1  0
 23 49  1  0
 26 50  1  0
 27 51  1  0
M  END
>  <smiles>  (13) 
O=C(NCC(=O)N1CCCC[C@H]1c1ccccc1)c1ccc2cc(Cl)ccc2n1

>  <score_type>  (13) 
oracle

>  <origin>  (13) 
autodockgpu

>  <m_score__min__energy>  (13) 
-9.1300000000000008

>  <m_primary>  (13) 
energy

>  <rmsd>  (13) 
2.3459519110568685

>  <m_score__min__rmsd>  (13) 
2.3459519110568685

>  <meeko>  (13) 
{"free_energy": -8.78, "intermolecular_energy": -10.27, "internal_energy": -2.0, "cluster_size": 16, "cluster_id": 2, "rank_in_cluster": 10}

>  <energy>  (13) 
-8.96

>  <cluster_rmsd>  (13) 
0.47

>  <cluster>  (13) 
1

$$$$

     RDKit          3D

 51 54  0  0  0  0  0  0  0  0999 V2000
  141.2030   72.7400  221.5230 O   0  0  0  0  0  0  0  0  0  0  0  0
  140.2330   72.6970  222.3330 C   0  0  0  0  0  0  0  0  0  0  0  0
  139.1740   73.6350  222.2120 N   0  0  0  0  0  0  0  0  0  0  0  0
  139.1680   74.6410  221.1910 C   0  0  0  0  0  0  0  0  0  0  0  0
  140.0310   75.8140  221.5740 C   0  0  0  0  0  0  0  0  0  0  0  0
  141.2620   75.5880  221.6210 O   0  0  0  0  0  0  0  0  0  0  0  0
  139.4480   77.0830  221.8590 N   0  0  0  0  0  0  0  0  0  0  0  0
  138.3020   77.1460  222.7100 C   0  0  0  0  0  0  0  0  0  0  0  0
  137.4020   78.3150  222.4460 C   0  0  0  0  0  0  0  0  0  0  0  0
  138.1480   79.5290  221.9540 C   0  0  0  0  0  0  0  0  0  0  0  0
  138.9820   79.1500  220.7620 C   0  0  0  0  0  0  0  0  0  0  0  0
  140.0810   78.2380  221.2390 C   0  0  1  0  0  0  0  0  0  0  0  0
  141.0060   78.9600  222.1130 C   0  0  0  0  0  0  0  0  0  0  0  0
  141.2750   78.6400  223.4260 C   0  0  0  0  0  0  0  0  0  0  0  0
  142.1630   79.3480  224.2130 C   0  0  0  0  0  0  0  0  0  0  0  0
  142.8330   80.4370  223.6950 C   0  0  0  0  0  0  0  0  0  0  0  0
  142.5790   80.7710  222.3860 C   0  0  0  0  0  0  0  0  0  0  0  0
  141.6770   80.0490  221.5940 C   0  0  0  0  0  0  0  0  0  0  0  0
  140.1740   71.6940  223.4030 C   0  0  0  0  0  0  0  0  0  0  0  0
  139.6390   70.4470  223.1620 C   0  0  0  0  0  0  0  0  0  0  0  0
  139.5820   69.4980  224.1670 C   0  0  0  0  0  0  0  0  0  0  0  0
  140.0660   69.8040  225.4320 C   0  0  0  0  0  0  0  0  0  0  0  0
  140.0380   68.9050  226.4770 C   0  0  0  0  0  0  0  0  0  0  0  0
  140.5430   69.2930  227.7070 C   0  0  0  0  0  0  0  0  0  0  0  0
  140.5150   68.1590  229.0450 Cl  0  0  0  0  0  0  0  0  0  0  0  0
  141.0750   70.5630  227.9090 C   0  0  0  0  0  0  0  0  0  0  0  0
  141.0980   71.4560  226.8580 C   0  0  0  0  0  0  0  0  0  0  0  0
  140.5910   71.0630  225.6240 C   0  0  0  0  0  0  0  0  0  0  0  0
  140.6380   71.9700  224.6370 N   0  0  0  0  0  0  0  0  0  0  0  0
  138.3810   73.5640  222.9110 H   0  0  0  0  0  0  0  0  0  0  0  0
  139.5501   74.2051  220.2561 H   0  0  0  0  0  0  0  0  0  0  0  0
  138.1355   74.9973  221.0606 H   0  0  0  0  0  0  0  0  0  0  0  0
  137.7187   76.2238  222.5714 H   0  0  0  0  0  0  0  0  0  0  0  0
  138.6781   77.2633  223.7371 H   0  0  0  0  0  0  0  0  0  0  0  0
  136.6631   78.0244  221.6847 H   0  0  0  0  0  0  0  0  0  0  0  0
  136.9229   78.5851  223.3986 H   0  0  0  0  0  0  0  0  0  0  0  0
  137.4292   80.3104  221.6662 H   0  0  0  0  0  0  0  0  0  0  0  0
  138.7999   79.9102  222.7538 H   0  0  0  0  0  0  0  0  0  0  0  0
  138.3591   78.6288  220.0202 H   0  0  0  0  0  0  0  0  0  0  0  0
  139.4066   80.0481  220.2895 H   0  0  0  0  0  0  0  0  0  0  0  0
  140.7068   77.8787  220.4088 H   0  0  0  0  0  0  0  0  0  0  0  0
  140.7566   77.7774  223.8700 H   0  0  0  0  0  0  0  0  0  0  0  0
  142.3362   79.0425  225.2554 H   0  0  0  0  0  0  0  0  0  0  0  0
  143.5424   81.0152  224.3053 H   0  0  0  0  0  0  0  0  0  0  0  0
  143.1011   81.6335  221.9461 H   0  0  0  0  0  0  0  0  0  0  0  0
  141.5021   80.3520  220.5511 H   0  0  0  0  0  0  0  0  0  0  0  0
  139.2536   70.2039  222.1608 H   0  0  0  0  0  0  0  0  0  0  0  0
  139.1548   68.5047  223.9647 H   0  0  0  0  0  0  0  0  0  0  0  0
  139.6216   67.8966  226.3363 H   0  0  0  0  0  0  0  0  0  0  0  0
  141.4719   70.8509  228.8937 H   0  0  0  0  0  0  0  0  0  0  0  0
  141.5120   72.4660  226.9941 H   0  0  0  0  0  0  0  0  0  0  0  0
  1  2  2  0
  2  3  1  0
  3  4  1  0
  4  5  1  0
  5  6  2  0
  5  7  1  0
  7  8  1  0
  8  9  1  0
  9 10  1  0
 10 11  1  0
 11 12  1  0
 12 13  1  0
 13 14  2  0
 14 15  1  0
 15 16  2  0
 16 17  1  0
 17 18  2  0
  2 19  1  0
 19 20  2  0
 20 21  1  0
 21 22  2  0
 22 23  1  0
 23 24  2  0
 24 25  1  0
 24 26  1  0
 26 27  2  0
 27 28  1  0
 28 29  2  0
 12  7  1  0
 18 13  1  0
 29 19  1  0
 28 22  1  0
  3 30  1  0
  4 31  1  0
  4 32  1  0
  8 33  1  0
  8 34  1  0
  9 35  1  0
  9 36  1  0
 10 37  1  0
 10 38  1  0
 11 39  1  0
 11 40  1  0
 12 41  1  6
 14 42  1  0
 15 43  1  0
 16 44  1  0
 17 45  1  0
 18 46  1  0
 20 47  1  0
 21 48  1  0
 23 49  1  0
 26 50  1  0
 27 51  1  0
M  END
>  <smiles>  (14) 
O=C(NCC(=O)N1CCCC[C@H]1c1ccccc1)c1ccc2cc(Cl)ccc2n1

>  <score_type>  (14) 
oracle

>  <origin>  (14) 
autodockgpu

>  <m_score__min__energy>  (14) 
-9.1300000000000008

>  <m_primary>  (14) 
energy

>  <rmsd>  (14) 
2.8693062593960907

>  <m_score__min__rmsd>  (14) 
2.8693062593960907

>  <meeko>  (14) 
{"free_energy": -9.12, "intermolecular_energy": -10.61, "internal_energy": -1.35, "cluster_size": 29, "cluster_id": 1, "rank_in_cluster": 2}

>  <energy>  (14) 
-8.92

>  <cluster_rmsd>  (14) 
0.47

>  <cluster>  (14) 
1

$$$$

     RDKit          3D

 51 54  0  0  0  0  0  0  0  0999 V2000
  140.3600   72.5230  220.6610 O   0  0  0  0  0  0  0  0  0  0  0  0
  140.0900   72.8630  221.8490 C   0  0  0  0  0  0  0  0  0  0  0  0
  139.7840   74.2190  222.1380 N   0  0  0  0  0  0  0  0  0  0  0  0
  139.7700   75.2260  221.1180 C   0  0  0  0  0  0  0  0  0  0  0  0
  141.0560   76.0100  221.1070 C   0  0  0  0  0  0  0  0  0  0  0  0
  141.2840   76.6910  222.1330 O   0  0  0  0  0  0  0  0  0  0  0  0
  141.9310   75.9560  219.9820 N   0  0  0  0  0  0  0  0  0  0  0  0
  142.4660   77.1730  219.4590 C   0  0  0  0  0  0  0  0  0  0  0  0
  142.7940   77.1230  217.9980 C   0  0  0  0  0  0  0  0  0  0  0  0
  143.2260   75.7530  217.5410 C   0  0  0  0  0  0  0  0  0  0  0  0
  142.1850   74.7460  217.9430 C   0  0  0  0  0  0  0  0  0  0  0  0
  142.2080   74.6330  219.4450 C   0  0  1  0  0  0  0  0  0  0  0  0
  143.4710   74.0500  219.8970 C   0  0  0  0  0  0  0  0  0  0  0  0
  144.5090   74.7490  220.4740 C   0  0  0  0  0  0  0  0  0  0  0  0
  145.6830   74.1530  220.8940 C   0  0  0  0  0  0  0  0  0  0  0  0
  145.8640   72.7940  220.7460 C   0  0  0  0  0  0  0  0  0  0  0  0
  144.8380   72.0790  220.1730 C   0  0  0  0  0  0  0  0  0  0  0  0
  143.6500   72.6880  219.7500 C   0  0  0  0  0  0  0  0  0  0  0  0
  140.0850   71.8850  222.9420 C   0  0  0  0  0  0  0  0  0  0  0  0
  139.6060   70.6090  222.7360 C   0  0  0  0  0  0  0  0  0  0  0  0
  139.6000   69.6840  223.7640 C   0  0  0  0  0  0  0  0  0  0  0  0
  140.0790   70.0410  225.0170 C   0  0  0  0  0  0  0  0  0  0  0  0
  140.1000   69.1680  226.0830 C   0  0  0  0  0  0  0  0  0  0  0  0
  140.5960   69.6080  227.2990 C   0  0  0  0  0  0  0  0  0  0  0  0
  140.6300   68.5070  228.6630 Cl  0  0  0  0  0  0  0  0  0  0  0  0
  141.0710   70.9060  227.4660 C   0  0  0  0  0  0  0  0  0  0  0  0
  141.0460   71.7730  226.3940 C   0  0  0  0  0  0  0  0  0  0  0  0
  140.5470   71.3270  225.1740 C   0  0  0  0  0  0  0  0  0  0  0  0
  140.5450   72.2110  224.1660 N   0  0  0  0  0  0  0  0  0  0  0  0
  139.5630   74.4620  223.1460 H   0  0  0  0  0  0  0  0  0  0  0  0
  139.6363   74.7428  220.1389 H   0  0  0  0  0  0  0  0  0  0  0  0
  138.9417   75.9195  221.3254 H   0  0  0  0  0  0  0  0  0  0  0  0
  141.7267   77.9716  219.6192 H   0  0  0  0  0  0  0  0  0  0  0  0
  143.4126   77.3551  219.9890 H   0  0  0  0  0  0  0  0  0  0  0  0
  141.9011   77.4181  217.4274 H   0  0  0  0  0  0  0  0  0  0  0  0
  143.6356   77.8097  217.8246 H   0  0  0  0  0  0  0  0  0  0  0  0
  143.3385   75.7488  216.4468 H   0  0  0  0  0  0  0  0  0  0  0  0
  144.1886   75.4949  218.0066 H   0  0  0  0  0  0  0  0  0  0  0  0
  141.1920   75.0806  217.6082 H   0  0  0  0  0  0  0  0  0  0  0  0
  142.3965   73.7702  217.4814 H   0  0  0  0  0  0  0  0  0  0  0  0
  141.4357   73.9449  219.8193 H   0  0  0  0  0  0  0  0  0  0  0  0
  144.3976   75.8352  220.6069 H   0  0  0  0  0  0  0  0  0  0  0  0
  146.4762   74.7651  221.3481 H   0  0  0  0  0  0  0  0  0  0  0  0
  146.7916   72.3014  221.0730 H   0  0  0  0  0  0  0  0  0  0  0  0
  144.9546   70.9930  220.0428 H   0  0  0  0  0  0  0  0  0  0  0  0
  142.8542   72.0780  219.2977 H   0  0  0  0  0  0  0  0  0  0  0  0
  139.2249   70.3238  221.7443 H   0  0  0  0  0  0  0  0  0  0  0  0
  139.2166   68.6679  223.5892 H   0  0  0  0  0  0  0  0  0  0  0  0
  139.7290   68.1386  225.9700 H   0  0  0  0  0  0  0  0  0  0  0  0
  141.4611   71.2356  228.4403 H   0  0  0  0  0  0  0  0  0  0  0  0
  141.4156   72.8034  226.5018 H   0  0  0  0  0  0  0  0  0  0  0  0
  1  2  2  0
  2  3  1  0
  3  4  1  0
  4  5  1  0
  5  6  2  0
  5  7  1  0
  7  8  1  0
  8  9  1  0
  9 10  1  0
 10 11  1  0
 11 12  1  0
 12 13  1  0
 13 14  2  0
 14 15  1  0
 15 16  2  0
 16 17  1  0
 17 18  2  0
  2 19  1  0
 19 20  2  0
 20 21  1  0
 21 22  2  0
 22 23  1  0
 23 24  2  0
 24 25  1  0
 24 26  1  0
 26 27  2  0
 27 28  1  0
 28 29  2  0
 12  7  1  0
 18 13  1  0
 29 19  1  0
 28 22  1  0
  3 30  1  0
  4 31  1  0
  4 32  1  0
  8 33  1  0
  8 34  1  0
  9 35  1  0
  9 36  1  0
 10 37  1  0
 10 38  1  0
 11 39  1  0
 11 40  1  0
 12 41  1  6
 14 42  1  0
 15 43  1  0
 16 44  1  0
 17 45  1  0
 18 46  1  0
 20 47  1  0
 21 48  1  0
 23 49  1  0
 26 50  1  0
 27 51  1  0
M  END
>  <smiles>  (15) 
O=C(NCC(=O)N1CCCC[C@H]1c1ccccc1)c1ccc2cc(Cl)ccc2n1

>  <score_type>  (15) 
oracle

>  <origin>  (15) 
autodockgpu

>  <m_score__min__energy>  (15) 
-9.1300000000000008

>  <m_primary>  (15) 
energy

>  <rmsd>  (15) 
2.403124189156408

>  <m_score__min__rmsd>  (15) 
2.403124189156408

>  <meeko>  (15) 
{"free_energy": -8.63, "intermolecular_energy": -10.12, "internal_energy": -2.01, "cluster_size": 16, "cluster_id": 2, "rank_in_cluster": 13}

>  <energy>  (15) 
-8.92

>  <cluster_rmsd>  (15) 
0.45

>  <cluster>  (15) 
1

$$$$

     RDKit          3D

 51 54  0  0  0  0  0  0  0  0999 V2000
  140.0390   72.3940  220.6790 O   0  0  0  0  0  0  0  0  0  0  0  0
  139.8460   72.7480  221.8770 C   0  0  0  0  0  0  0  0  0  0  0  0
  139.5670   74.1100  222.1700 N   0  0  0  0  0  0  0  0  0  0  0  0
  139.4970   75.1060  221.1410 C   0  0  0  0  0  0  0  0  0  0  0  0
  139.5270   76.4960  221.7230 C   0  0  0  0  0  0  0  0  0  0  0  0
  139.0370   76.6130  222.8700 O   0  0  0  0  0  0  0  0  0  0  0  0
  140.0820   77.5810  220.9840 N   0  0  0  0  0  0  0  0  0  0  0  0
  139.2640   78.2640  220.0320 C   0  0  0  0  0  0  0  0  0  0  0  0
  140.0260   78.8850  218.9010 C   0  0  0  0  0  0  0  0  0  0  0  0
  141.4040   79.3440  219.3030 C   0  0  0  0  0  0  0  0  0  0  0  0
  142.1380   78.2010  219.9470 C   0  0  0  0  0  0  0  0  0  0  0  0
  141.4720   77.9070  221.2650 C   0  0  1  0  0  0  0  0  0  0  0  0
  141.6540   79.0230  222.1930 C   0  0  0  0  0  0  0  0  0  0  0  0
  142.8620   79.4380  222.7120 C   0  0  0  0  0  0  0  0  0  0  0  0
  142.9870   80.5040  223.5820 C   0  0  0  0  0  0  0  0  0  0  0  0
  141.8720   81.2140  223.9750 C   0  0  0  0  0  0  0  0  0  0  0  0
  140.6580   80.8160  223.4670 C   0  0  0  0  0  0  0  0  0  0  0  0
  140.5370   79.7340  222.5850 C   0  0  0  0  0  0  0  0  0  0  0  0
  139.9020   71.7830  222.9800 C   0  0  0  0  0  0  0  0  0  0  0  0
  139.4710   70.4860  222.7960 C   0  0  0  0  0  0  0  0  0  0  0  0
  139.5230   69.5720  223.8320 C   0  0  0  0  0  0  0  0  0  0  0  0
  140.0130   69.9620  225.0710 C   0  0  0  0  0  0  0  0  0  0  0  0
  140.0910   69.1010  226.1450 C   0  0  0  0  0  0  0  0  0  0  0  0
  140.5930   69.5730  227.3470 C   0  0  0  0  0  0  0  0  0  0  0  0
  140.6980   68.4890  228.7210 Cl  0  0  0  0  0  0  0  0  0  0  0  0
  141.0180   70.8910  227.4910 C   0  0  0  0  0  0  0  0  0  0  0  0
  140.9360   71.7450  226.4120 C   0  0  0  0  0  0  0  0  0  0  0  0
  140.4310   71.2670  225.2070 C   0  0  0  0  0  0  0  0  0  0  0  0
  140.3740   72.1400  224.1900 N   0  0  0  0  0  0  0  0  0  0  0  0
  139.4110   74.3650  223.1860 H   0  0  0  0  0  0  0  0  0  0  0  0
  140.3547   74.9824  220.4634 H   0  0  0  0  0  0  0  0  0  0  0  0
  138.5499   74.9774  220.5965 H   0  0  0  0  0  0  0  0  0  0  0  0
  138.5488   77.5422  219.6108 H   0  0  0  0  0  0  0  0  0  0  0  0
  138.7716   79.0869  220.5709 H   0  0  0  0  0  0  0  0  0  0  0  0
  140.1247   78.1428  218.0952 H   0  0  0  0  0  0  0  0  0  0  0  0
  139.4651   79.7730  218.5740 H   0  0  0  0  0  0  0  0  0  0  0  0
  141.9546   79.6792  218.4117 H   0  0  0  0  0  0  0  0  0  0  0  0
  141.3223   80.1785  220.0150 H   0  0  0  0  0  0  0  0  0  0  0  0
  142.0909   77.3138  219.2984 H   0  0  0  0  0  0  0  0  0  0  0  0
  143.1950   78.4632  220.1020 H   0  0  0  0  0  0  0  0  0  0  0  0
  141.9280   77.0453  221.7745 H   0  0  0  0  0  0  0  0  0  0  0  0
  143.7716   78.8933  222.4188 H   0  0  0  0  0  0  0  0  0  0  0  0
  143.9794   80.7874  223.9625 H   0  0  0  0  0  0  0  0  0  0  0  0
  141.9508   82.0650  224.6675 H   0  0  0  0  0  0  0  0  0  0  0  0
  139.7519   81.3651  223.7627 H   0  0  0  0  0  0  0  0  0  0  0  0
  139.5458   79.4491  222.2024 H   0  0  0  0  0  0  0  0  0  0  0  0
  139.0819   70.1755  221.8151 H   0  0  0  0  0  0  0  0  0  0  0  0
  139.1774   68.5396  223.6751 H   0  0  0  0  0  0  0  0  0  0  0  0
  139.7601   68.0563  226.0491 H   0  0  0  0  0  0  0  0  0  0  0  0
  141.4142   71.2464  228.4537 H   0  0  0  0  0  0  0  0  0  0  0  0
  141.2655   72.7906  226.5026 H   0  0  0  0  0  0  0  0  0  0  0  0
  1  2  2  0
  2  3  1  0
  3  4  1  0
  4  5  1  0
  5  6  2  0
  5  7  1  0
  7  8  1  0
  8  9  1  0
  9 10  1  0
 10 11  1  0
 11 12  1  0
 12 13  1  0
 13 14  2  0
 14 15  1  0
 15 16  2  0
 16 17  1  0
 17 18  2  0
  2 19  1  0
 19 20  2  0
 20 21  1  0
 21 22  2  0
 22 23  1  0
 23 24  2  0
 24 25  1  0
 24 26  1  0
 26 27  2  0
 27 28  1  0
 28 29  2  0
 12  7  1  0
 18 13  1  0
 29 19  1  0
 28 22  1  0
  3 30  1  0
  4 31  1  0
  4 32  1  0
  8 33  1  0
  8 34  1  0
  9 35  1  0
  9 36  1  0
 10 37  1  0
 10 38  1  0
 11 39  1  0
 11 40  1  0
 12 41  1  1
 14 42  1  0
 15 43  1  0
 16 44  1  0
 17 45  1  0
 18 46  1  0
 20 47  1  0
 21 48  1  0
 23 49  1  0
 26 50  1  0
 27 51  1  0
M  END
>  <smiles>  (16) 
O=C(NCC(=O)N1CCCC[C@H]1c1ccccc1)c1ccc2cc(Cl)ccc2n1

>  <score_type>  (16) 
oracle

>  <origin>  (16) 
autodockgpu

>  <m_score__min__energy>  (16) 
-9.1300000000000008

>  <m_primary>  (16) 
energy

>  <rmsd>  (16) 
2.177308112457878

>  <m_score__min__rmsd>  (16) 
2.177308112457878

>  <meeko>  (16) 
{"free_energy": -9.03, "intermolecular_energy": -10.52, "internal_energy": -1.94, "cluster_size": 29, "cluster_id": 1, "rank_in_cluster": 10}

>  <energy>  (16) 
-8.92

>  <cluster_rmsd>  (16) 
0.43

>  <cluster>  (16) 
1

$$$$

     RDKit          3D

 51 54  0  0  0  0  0  0  0  0999 V2000
  139.4370   72.0550  220.6890 O   0  0  0  0  0  0  0  0  0  0  0  0
  139.5260   72.4480  221.8870 C   0  0  0  0  0  0  0  0  0  0  0  0
  139.4820   73.8390  222.1750 N   0  0  0  0  0  0  0  0  0  0  0  0
  139.3390   74.8210  221.1410 C   0  0  0  0  0  0  0  0  0  0  0  0
  139.4350   76.2180  221.6970 C   0  0  0  0  0  0  0  0  0  0  0  0
  138.9650   76.3770  222.8470 O   0  0  0  0  0  0  0  0  0  0  0  0
  140.0270   77.2650  220.9320 N   0  0  0  0  0  0  0  0  0  0  0  0
  139.2910   77.8360  219.8480 C   0  0  0  0  0  0  0  0  0  0  0  0
  140.1450   78.4000  218.7530 C   0  0  0  0  0  0  0  0  0  0  0  0
  141.4560   78.9470  219.2560 C   0  0  0  0  0  0  0  0  0  0  0  0
  142.1580   77.8900  220.0620 C   0  0  0  0  0  0  0  0  0  0  0  0
  141.3680   77.6720  221.3250 C   0  0  1  0  0  0  0  0  0  0  0  0
  141.4130   78.8630  222.1720 C   0  0  0  0  0  0  0  0  0  0  0  0
  140.3140   79.5140  222.6900 C   0  0  0  0  0  0  0  0  0  0  0  0
  140.4050   80.6350  223.4940 C   0  0  0  0  0  0  0  0  0  0  0  0
  141.6390   81.1590  223.8160 C   0  0  0  0  0  0  0  0  0  0  0  0
  142.7480   80.5230  223.3090 C   0  0  0  0  0  0  0  0  0  0  0  0
  142.6490   79.3870  222.4950 C   0  0  0  0  0  0  0  0  0  0  0  0
  139.6740   71.4990  222.9960 C   0  0  0  0  0  0  0  0  0  0  0  0
  139.2470   70.1950  222.8610 C   0  0  0  0  0  0  0  0  0  0  0  0
  139.3840   69.2970  223.9030 C   0  0  0  0  0  0  0  0  0  0  0  0
  139.9580   69.7090  225.0980 C   0  0  0  0  0  0  0  0  0  0  0  0
  140.1240   68.8650  226.1740 C   0  0  0  0  0  0  0  0  0  0  0  0
  140.7060   69.3590  227.3300 C   0  0  0  0  0  0  0  0  0  0  0  0
  140.9240   68.2950  228.7070 Cl  0  0  0  0  0  0  0  0  0  0  0  0
  141.1250   70.6830  227.4260 C   0  0  0  0  0  0  0  0  0  0  0  0
  140.9540   71.5210  226.3440 C   0  0  0  0  0  0  0  0  0  0  0  0
  140.3690   71.0210  225.1860 C   0  0  0  0  0  0  0  0  0  0  0  0
  140.2270   71.8780  224.1640 N   0  0  0  0  0  0  0  0  0  0  0  0
  139.5600   74.1260  223.1920 H   0  0  0  0  0  0  0  0  0  0  0  0
  140.1355   74.6760  220.3963 H   0  0  0  0  0  0  0  0  0  0  0  0
  138.3482   74.6979  220.6794 H   0  0  0  0  0  0  0  0  0  0  0  0
  138.6499   77.0532  219.4165 H   0  0  0  0  0  0  0  0  0  0  0  0
  138.7169   78.6766  220.2648 H   0  0  0  0  0  0  0  0  0  0  0  0
  140.3535   77.6028  218.0243 H   0  0  0  0  0  0  0  0  0  0  0  0
  139.5912   79.2347  218.2985 H   0  0  0  0  0  0  0  0  0  0  0  0
  142.0855   79.2364  218.4017 H   0  0  0  0  0  0  0  0  0  0  0  0
  141.2700   79.8289  219.8867 H   0  0  0  0  0  0  0  0  0  0  0  0
  142.2095   76.9538  219.4868 H   0  0  0  0  0  0  0  0  0  0  0  0
  143.1836   78.2078  220.3010 H   0  0  0  0  0  0  0  0  0  0  0  0
  141.7979   76.8733  221.9473 H   0  0  0  0  0  0  0  0  0  0  0  0
  139.3143   79.1219  222.4517 H   0  0  0  0  0  0  0  0  0  0  0  0
  139.4903   81.1103  223.8779 H   0  0  0  0  0  0  0  0  0  0  0  0
  141.7328   82.0506  224.4533 H   0  0  0  0  0  0  0  0  0  0  0  0
  143.7454   80.9192  223.5505 H   0  0  0  0  0  0  0  0  0  0  0  0
  143.5622   78.9092  222.1106 H   0  0  0  0  0  0  0  0  0  0  0  0
  138.7928   69.8659  221.9147 H   0  0  0  0  0  0  0  0  0  0  0  0
  139.0392   68.2590  223.7856 H   0  0  0  0  0  0  0  0  0  0  0  0
  139.7996   67.8155  226.1162 H   0  0  0  0  0  0  0  0  0  0  0  0
  141.5863   71.0559  228.3524 H   0  0  0  0  0  0  0  0  0  0  0  0
  141.2763   72.5714  226.3965 H   0  0  0  0  0  0  0  0  0  0  0  0
  1  2  2  0
  2  3  1  0
  3  4  1  0
  4  5  1  0
  5  6  2  0
  5  7  1  0
  7  8  1  0
  8  9  1  0
  9 10  1  0
 10 11  1  0
 11 12  1  0
 12 13  1  0
 13 14  2  0
 14 15  1  0
 15 16  2  0
 16 17  1  0
 17 18  2  0
  2 19  1  0
 19 20  2  0
 20 21  1  0
 21 22  2  0
 22 23  1  0
 23 24  2  0
 24 25  1  0
 24 26  1  0
 26 27  2  0
 27 28  1  0
 28 29  2  0
 12  7  1  0
 18 13  1  0
 29 19  1  0
 28 22  1  0
  3 30  1  0
  4 31  1  0
  4 32  1  0
  8 33  1  0
  8 34  1  0
  9 35  1  0
  9 36  1  0
 10 37  1  0
 10 38  1  0
 11 39  1  0
 11 40  1  0
 12 41  1  1
 14 42  1  0
 15 43  1  0
 16 44  1  0
 17 45  1  0
 18 46  1  0
 20 47  1  0
 21 48  1  0
 23 49  1  0
 26 50  1  0
 27 51  1  0
M  END
>  <smiles>  (17) 
O=C(NCC(=O)N1CCCC[C@H]1c1ccccc1)c1ccc2cc(Cl)ccc2n1

>  <score_type>  (17) 
oracle

>  <origin>  (17) 
autodockgpu

>  <m_score__min__energy>  (17) 
-9.1300000000000008

>  <m_primary>  (17) 
energy

>  <rmsd>  (17) 
1.9356280420355794

>  <m_score__min__rmsd>  (17) 
1.9356280420355794

>  <meeko>  (17) 
{"free_energy": -8.92, "intermolecular_energy": -10.41, "internal_energy": -1.97, "cluster_size": 29, "cluster_id": 1, "rank_in_cluster": 16}

>  <energy>  (17) 
-8.92

>  <cluster_rmsd>  (17) 
0.46

>  <cluster>  (17) 
1

$$$$

     RDKit          3D

 51 54  0  0  0  0  0  0  0  0999 V2000
  139.2880   72.1080  220.7790 O   0  0  0  0  0  0  0  0  0  0  0  0
  139.4430   72.4870  221.9750 C   0  0  0  0  0  0  0  0  0  0  0  0
  139.4440   73.8740  222.2780 N   0  0  0  0  0  0  0  0  0  0  0  0
  139.2740   74.8710  221.2620 C   0  0  0  0  0  0  0  0  0  0  0  0
  139.4420   76.2590  221.8240 C   0  0  0  0  0  0  0  0  0  0  0  0
  139.0130   76.4270  222.9880 O   0  0  0  0  0  0  0  0  0  0  0  0
  140.0530   77.2870  221.0480 N   0  0  0  0  0  0  0  0  0  0  0  0
  139.3310   77.8550  219.9540 C   0  0  0  0  0  0  0  0  0  0  0  0
  140.1980   78.3920  218.8560 C   0  0  0  0  0  0  0  0  0  0  0  0
  141.5150   78.9260  219.3580 C   0  0  0  0  0  0  0  0  0  0  0  0
  142.1970   77.8700  220.1810 C   0  0  0  0  0  0  0  0  0  0  0  0
  141.3980   77.6790  221.4430 C   0  0  1  0  0  0  0  0  0  0  0  0
  141.4560   78.8810  222.2750 C   0  0  0  0  0  0  0  0  0  0  0  0
  140.3640   79.5920  222.7240 C   0  0  0  0  0  0  0  0  0  0  0  0
  140.4670   80.7200  223.5160 C   0  0  0  0  0  0  0  0  0  0  0  0
  141.7070   81.1900  223.8970 C   0  0  0  0  0  0  0  0  0  0  0  0
  142.8090   80.4930  223.4590 C   0  0  0  0  0  0  0  0  0  0  0  0
  142.6980   79.3510  222.6560 C   0  0  0  0  0  0  0  0  0  0  0  0
  139.6220   71.5220  223.0660 C   0  0  0  0  0  0  0  0  0  0  0  0
  139.2440   70.2060  222.9030 C   0  0  0  0  0  0  0  0  0  0  0  0
  139.4110   69.2930  223.9290 C   0  0  0  0  0  0  0  0  0  0  0  0
  139.9630   69.7030  225.1340 C   0  0  0  0  0  0  0  0  0  0  0  0
  140.1560   68.8450  226.1950 C   0  0  0  0  0  0  0  0  0  0  0  0
  140.7140   69.3380  227.3630 C   0  0  0  0  0  0  0  0  0  0  0  0
  140.9660   68.2560  228.7200 Cl  0  0  0  0  0  0  0  0  0  0  0  0
  141.0820   70.6750  227.4870 C   0  0  0  0  0  0  0  0  0  0  0  0
  140.8850   71.5270  226.4210 C   0  0  0  0  0  0  0  0  0  0  0  0
  140.3240   71.0280  225.2500 C   0  0  0  0  0  0  0  0  0  0  0  0
  140.1550   71.8990  224.2440 N   0  0  0  0  0  0  0  0  0  0  0  0
  139.5760   74.1490  223.2930 H   0  0  0  0  0  0  0  0  0  0  0  0
  140.0238   74.7105  220.4733 H   0  0  0  0  0  0  0  0  0  0  0  0
  138.2560   74.7820  220.8548 H   0  0  0  0  0  0  0  0  0  0  0  0
  138.6800   77.0766  219.5295 H   0  0  0  0  0  0  0  0  0  0  0  0
  138.7680   78.7095  220.3576 H   0  0  0  0  0  0  0  0  0  0  0  0
  140.3978   77.5825  218.1386 H   0  0  0  0  0  0  0  0  0  0  0  0
  139.6587   79.2289  218.3883 H   0  0  0  0  0  0  0  0  0  0  0  0
  142.1527   79.1944  218.5029 H   0  0  0  0  0  0  0  0  0  0  0  0
  141.3394   79.8189  219.9760 H   0  0  0  0  0  0  0  0  0  0  0  0
  142.2379   76.9259  219.6180 H   0  0  0  0  0  0  0  0  0  0  0  0
  143.2257   78.1766  220.4215 H   0  0  0  0  0  0  0  0  0  0  0  0
  141.8131   76.8821  222.0775 H   0  0  0  0  0  0  0  0  0  0  0  0
  139.3604   79.2444  222.4377 H   0  0  0  0  0  0  0  0  0  0  0  0
  139.5574   81.2447  223.8437 H   0  0  0  0  0  0  0  0  0  0  0  0
  141.8102   82.0865  224.5260 H   0  0  0  0  0  0  0  0  0  0  0  0
  143.8103   80.8441  223.7490 H   0  0  0  0  0  0  0  0  0  0  0  0
  143.6059   78.8246  222.3264 H   0  0  0  0  0  0  0  0  0  0  0  0
  138.8057   69.8791  221.9485 H   0  0  0  0  0  0  0  0  0  0  0  0
  139.1070   68.2451  223.7898 H   0  0  0  0  0  0  0  0  0  0  0  0
  139.8714   67.7854  226.1156 H   0  0  0  0  0  0  0  0  0  0  0  0
  141.5241   71.0467  228.4231 H   0  0  0  0  0  0  0  0  0  0  0  0
  141.1677   72.5874  226.4956 H   0  0  0  0  0  0  0  0  0  0  0  0
  1  2  2  0
  2  3  1  0
  3  4  1  0
  4  5  1  0
  5  6  2  0
  5  7  1  0
  7  8  1  0
  8  9  1  0
  9 10  1  0
 10 11  1  0
 11 12  1  0
 12 13  1  0
 13 14  2  0
 14 15  1  0
 15 16  2  0
 16 17  1  0
 17 18  2  0
  2 19  1  0
 19 20  2  0
 20 21  1  0
 21 22  2  0
 22 23  1  0
 23 24  2  0
 24 25  1  0
 24 26  1  0
 26 27  2  0
 27 28  1  0
 28 29  2  0
 12  7  1  0
 18 13  1  0
 29 19  1  0
 28 22  1  0
  3 30  1  0
  4 31  1  0
  4 32  1  0
  8 33  1  0
  8 34  1  0
  9 35  1  0
  9 36  1  0
 10 37  1  0
 10 38  1  0
 11 39  1  0
 11 40  1  0
 12 41  1  1
 14 42  1  0
 15 43  1  0
 16 44  1  0
 17 45  1  0
 18 46  1  0
 20 47  1  0
 21 48  1  0
 23 49  1  0
 26 50  1  0
 27 51  1  0
M  END
>  <smiles>  (18) 
O=C(NCC(=O)N1CCCC[C@H]1c1ccccc1)c1ccc2cc(Cl)ccc2n1

>  <score_type>  (18) 
oracle

>  <origin>  (18) 
autodockgpu

>  <m_score__min__energy>  (18) 
-9.1300000000000008

>  <m_primary>  (18) 
energy

>  <rmsd>  (18) 
1.9722975482078795

>  <m_score__min__rmsd>  (18) 
1.9722975482078795

>  <meeko>  (18) 
{"free_energy": -8.92, "intermolecular_energy": -10.41, "internal_energy": -1.97, "cluster_size": 29, "cluster_id": 1, "rank_in_cluster": 15}

>  <energy>  (18) 
-8.91

>  <cluster_rmsd>  (18) 
0.5

>  <cluster>  (18) 
1

$$$$

     RDKit          3D

 51 54  0  0  0  0  0  0  0  0999 V2000
  138.6760   72.1970  220.9830 O   0  0  0  0  0  0  0  0  0  0  0  0
  139.4820   72.3870  221.9390 C   0  0  0  0  0  0  0  0  0  0  0  0
  140.2980   73.5500  221.9490 N   0  0  0  0  0  0  0  0  0  0  0  0
  140.2380   74.5250  220.9000 C   0  0  0  0  0  0  0  0  0  0  0  0
  140.7550   75.8610  221.3660 C   0  0  0  0  0  0  0  0  0  0  0  0
  141.4560   75.8380  222.4040 O   0  0  0  0  0  0  0  0  0  0  0  0
  140.4440   77.0510  220.6470 N   0  0  0  0  0  0  0  0  0  0  0  0
  139.1640   77.1710  220.0230 C   0  0  0  0  0  0  0  0  0  0  0  0
  139.1470   78.0630  218.8190 C   0  0  0  0  0  0  0  0  0  0  0  0
  140.1430   79.1910  218.9110 C   0  0  0  0  0  0  0  0  0  0  0  0
  141.5050   78.6260  219.2040 C   0  0  0  0  0  0  0  0  0  0  0  0
  141.4830   78.0690  220.6030 C   0  0  1  0  0  0  0  0  0  0  0  0
  141.3180   79.1430  221.5820 C   0  0  0  0  0  0  0  0  0  0  0  0
  140.2930   79.2340  222.5000 C   0  0  0  0  0  0  0  0  0  0  0  0
  140.1820   80.2650  223.4120 C   0  0  0  0  0  0  0  0  0  0  0  0
  141.1210   81.2740  223.4370 C   0  0  0  0  0  0  0  0  0  0  0  0
  142.1520   81.2010  222.5300 C   0  0  0  0  0  0  0  0  0  0  0  0
  142.2600   80.1530  221.6070 C   0  0  0  0  0  0  0  0  0  0  0  0
  139.5960   71.4300  223.0460 C   0  0  0  0  0  0  0  0  0  0  0  0
  139.0790   70.1580  222.9250 C   0  0  0  0  0  0  0  0  0  0  0  0
  139.1830   69.2530  223.9660 C   0  0  0  0  0  0  0  0  0  0  0  0
  139.8150   69.6270  225.1440 C   0  0  0  0  0  0  0  0  0  0  0  0
  139.9520   68.7750  226.2180 C   0  0  0  0  0  0  0  0  0  0  0  0
  140.5960   69.2300  227.3570 C   0  0  0  0  0  0  0  0  0  0  0  0
  140.7790   68.1550  228.7300 Cl  0  0  0  0  0  0  0  0  0  0  0  0
  141.1050   70.5230  227.4380 C   0  0  0  0  0  0  0  0  0  0  0  0
  140.9620   71.3700  226.3590 C   0  0  0  0  0  0  0  0  0  0  0  0
  140.3150   70.9090  225.2180 C   0  0  0  0  0  0  0  0  0  0  0  0
  140.2040   71.7730  224.1980 N   0  0  0  0  0  0  0  0  0  0  0  0
  140.9600   73.6710  222.7680 H   0  0  0  0  0  0  0  0  0  0  0  0
  140.8497   74.1792  220.0537 H   0  0  0  0  0  0  0  0  0  0  0  0
  139.1875   74.6452  220.5966 H   0  0  0  0  0  0  0  0  0  0  0  0
  138.8361   76.1677  219.7133 H   0  0  0  0  0  0  0  0  0  0  0  0
  138.4933   77.6295  220.7646 H   0  0  0  0  0  0  0  0  0  0  0  0
  139.3824   77.4584  217.9308 H   0  0  0  0  0  0  0  0  0  0  0  0
  138.1448   78.5118  218.7545 H   0  0  0  0  0  0  0  0  0  0  0  0
  140.1690   79.7374  217.9567 H   0  0  0  0  0  0  0  0  0  0  0  0
  139.8478   79.8796  219.7164 H   0  0  0  0  0  0  0  0  0  0  0  0
  141.7401   77.8259  218.4867 H   0  0  0  0  0  0  0  0  0  0  0  0
  142.2723   79.4091  219.1150 H   0  0  0  0  0  0  0  0  0  0  0  0
  142.4375   77.5934  220.8726 H   0  0  0  0  0  0  0  0  0  0  0  0
  139.5255   78.4460  222.5061 H   0  0  0  0  0  0  0  0  0  0  0  0
  139.3412   80.2812  224.1211 H   0  0  0  0  0  0  0  0  0  0  0  0
  141.0484   82.1048  224.1543 H   0  0  0  0  0  0  0  0  0  0  0  0
  142.9169   81.9915  222.5293 H   0  0  0  0  0  0  0  0  0  0  0  0
  143.1004   80.1341  220.8975 H   0  0  0  0  0  0  0  0  0  0  0  0
  138.5789   69.8597  221.9917 H   0  0  0  0  0  0  0  0  0  0  0  0
  138.7663   68.2404  223.8607 H   0  0  0  0  0  0  0  0  0  0  0  0
  139.5563   67.7497  226.1718 H   0  0  0  0  0  0  0  0  0  0  0  0
  141.6147   70.8649  228.3509 H   0  0  0  0  0  0  0  0  0  0  0  0
  141.3547   72.3967  226.4006 H   0  0  0  0  0  0  0  0  0  0  0  0
  1  2  2  0
  2  3  1  0
  3  4  1  0
  4  5  1  0
  5  6  2  0
  5  7  1  0
  7  8  1  0
  8  9  1  0
  9 10  1  0
 10 11  1  0
 11 12  1  0
 12 13  1  0
 13 14  2  0
 14 15  1  0
 15 16  2  0
 16 17  1  0
 17 18  2  0
  2 19  1  0
 19 20  2  0
 20 21  1  0
 21 22  2  0
 22 23  1  0
 23 24  2  0
 24 25  1  0
 24 26  1  0
 26 27  2  0
 27 28  1  0
 28 29  2  0
 12  7  1  0
 18 13  1  0
 29 19  1  0
 28 22  1  0
  3 30  1  0
  4 31  1  0
  4 32  1  0
  8 33  1  0
  8 34  1  0
  9 35  1  0
  9 36  1  0
 10 37  1  0
 10 38  1  0
 11 39  1  0
 11 40  1  0
 12 41  1  1
 14 42  1  0
 15 43  1  0
 16 44  1  0
 17 45  1  0
 18 46  1  0
 20 47  1  0
 21 48  1  0
 23 49  1  0
 26 50  1  0
 27 51  1  0
M  END
>  <smiles>  (19) 
O=C(NCC(=O)N1CCCC[C@H]1c1ccccc1)c1ccc2cc(Cl)ccc2n1

>  <score_type>  (19) 
oracle

>  <origin>  (19) 
autodockgpu

>  <m_score__min__energy>  (19) 
-9.1300000000000008

>  <m_primary>  (19) 
energy

>  <rmsd>  (19) 
1.840191284503126

>  <m_score__min__rmsd>  (19) 
1.840191284503126

>  <meeko>  (19) 
{"free_energy": -7.62, "intermolecular_energy": -9.12, "internal_energy": -2.14, "cluster_size": 29, "cluster_id": 1, "rank_in_cluster": 29}

>  <energy>  (19) 
-8.91

>  <cluster_rmsd>  (19) 
1.29

>  <cluster>  (19) 
1

$$$$

     RDKit          3D

 51 54  0  0  0  0  0  0  0  0999 V2000
  138.6890   72.7120  221.4430 O   0  0  0  0  0  0  0  0  0  0  0  0
  139.7360   72.5930  222.1440 C   0  0  0  0  0  0  0  0  0  0  0  0
  140.8480   73.4410  221.8940 N   0  0  0  0  0  0  0  0  0  0  0  0
  140.8240   74.4370  220.8640 C   0  0  0  0  0  0  0  0  0  0  0  0
  140.1730   75.7070  221.3470 C   0  0  0  0  0  0  0  0  0  0  0  0
  139.4660   75.5960  222.3750 O   0  0  0  0  0  0  0  0  0  0  0  0
  140.3710   76.9340  220.6500 N   0  0  0  0  0  0  0  0  0  0  0  0
  139.3030   77.4680  219.8640 C   0  0  0  0  0  0  0  0  0  0  0  0
  139.7510   78.3180  218.7140 C   0  0  0  0  0  0  0  0  0  0  0  0
  141.0340   79.0570  218.9950 C   0  0  0  0  0  0  0  0  0  0  0  0
  142.0820   78.0760  219.4430 C   0  0  0  0  0  0  0  0  0  0  0  0
  141.6790   77.5550  220.7970 C   0  0  1  0  0  0  0  0  0  0  0  0
  141.7310   78.6230  221.7950 C   0  0  0  0  0  0  0  0  0  0  0  0
  142.2000   79.9000  221.5710 C   0  0  0  0  0  0  0  0  0  0  0  0
  142.2240   80.8810  222.5450 C   0  0  0  0  0  0  0  0  0  0  0  0
  141.7660   80.6070  223.8170 C   0  0  0  0  0  0  0  0  0  0  0  0
  141.2930   79.3390  224.0590 C   0  0  0  0  0  0  0  0  0  0  0  0
  141.2720   78.3490  223.0680 C   0  0  0  0  0  0  0  0  0  0  0  0
  139.8300   71.5950  223.2150 C   0  0  0  0  0  0  0  0  0  0  0  0
  139.3970   70.3030  223.0060 C   0  0  0  0  0  0  0  0  0  0  0  0
  139.4830   69.3590  224.0120 C   0  0  0  0  0  0  0  0  0  0  0  0
  140.0110   69.7130  225.2460 C   0  0  0  0  0  0  0  0  0  0  0  0
  140.1250   68.8210  226.2910 C   0  0  0  0  0  0  0  0  0  0  0  0
  140.6640   69.2590  227.4900 C   0  0  0  0  0  0  0  0  0  0  0  0
  140.8150   68.1350  228.8270 Cl  0  0  0  0  0  0  0  0  0  0  0  0
  141.0890   70.5730  227.6600 C   0  0  0  0  0  0  0  0  0  0  0  0
  140.9710   71.4590  226.6100 C   0  0  0  0  0  0  0  0  0  0  0  0
  140.4300   71.0160  225.4080 C   0  0  0  0  0  0  0  0  0  0  0  0
  140.3380   71.9180  224.4200 N   0  0  0  0  0  0  0  0  0  0  0  0
  141.7050   73.3080  222.5040 H   0  0  0  0  0  0  0  0  0  0  0  0
  141.8563   74.6583  220.5552 H   0  0  0  0  0  0  0  0  0  0  0  0
  140.2400   74.0473  220.0172 H   0  0  0  0  0  0  0  0  0  0  0  0
  138.7160   76.6282  219.4639 H   0  0  0  0  0  0  0  0  0  0  0  0
  138.7170   78.1197  220.5288 H   0  0  0  0  0  0  0  0  0  0  0  0
  139.9036   77.6707  217.8378 H   0  0  0  0  0  0  0  0  0  0  0  0
  138.9690   79.0708  218.5360 H   0  0  0  0  0  0  0  0  0  0  0  0
  141.3733   79.5658  218.0807 H   0  0  0  0  0  0  0  0  0  0  0  0
  140.8650   79.8035  219.7850 H   0  0  0  0  0  0  0  0  0  0  0  0
  142.1460   77.2440  218.7262 H   0  0  0  0  0  0  0  0  0  0  0  0
  143.0660   78.5645  219.4976 H   0  0  0  0  0  0  0  0  0  0  0  0
  142.3783   76.7923  221.1703 H   0  0  0  0  0  0  0  0  0  0  0  0
  142.5737   80.1509  220.5673 H   0  0  0  0  0  0  0  0  0  0  0  0
  142.6094   81.8829  222.3049 H   0  0  0  0  0  0  0  0  0  0  0  0
  141.7787   81.3728  224.6065 H   0  0  0  0  0  0  0  0  0  0  0  0
  140.9187   79.0937  225.0639 H   0  0  0  0  0  0  0  0  0  0  0  0
  140.8871   77.3463  223.3057 H   0  0  0  0  0  0  0  0  0  0  0  0
  138.9788   70.0204  222.0286 H   0  0  0  0  0  0  0  0  0  0  0  0
  139.1342   68.3308  223.8353 H   0  0  0  0  0  0  0  0  0  0  0  0
  139.7935   67.7786  226.1748 H   0  0  0  0  0  0  0  0  0  0  0  0
  141.5139   70.9009  228.6202 H   0  0  0  0  0  0  0  0  0  0  0  0
  141.3005   72.5025  226.7217 H   0  0  0  0  0  0  0  0  0  0  0  0
  1  2  2  0
  2  3  1  0
  3  4  1  0
  4  5  1  0
  5  6  2  0
  5  7  1  0
  7  8  1  0
  8  9  1  0
  9 10  1  0
 10 11  1  0
 11 12  1  0
 12 13  1  0
 13 14  2  0
 14 15  1  0
 15 16  2  0
 16 17  1  0
 17 18  2  0
  2 19  1  0
 19 20  2  0
 20 21  1  0
 21 22  2  0
 22 23  1  0
 23 24  2  0
 24 25  1  0
 24 26  1  0
 26 27  2  0
 27 28  1  0
 28 29  2  0
 12  7  1  0
 18 13  1  0
 29 19  1  0
 28 22  1  0
  3 30  1  0
  4 31  1  0
  4 32  1  0
  8 33  1  0
  8 34  1  0
  9 35  1  0
  9 36  1  0
 10 37  1  0
 10 38  1  0
 11 39  1  0
 11 40  1  0
 12 41  1  1
 14 42  1  0
 15 43  1  0
 16 44  1  0
 17 45  1  0
 18 46  1  0
 20 47  1  0
 21 48  1  0
 23 49  1  0
 26 50  1  0
 27 51  1  0
M  END
>  <smiles>  (20) 
O=C(NCC(=O)N1CCCC[C@H]1c1ccccc1)c1ccc2cc(Cl)ccc2n1

>  <score_type>  (20) 
oracle

>  <origin>  (20) 
autodockgpu

>  <m_score__min__energy>  (20) 
-9.1300000000000008

>  <m_primary>  (20) 
energy

>  <rmsd>  (20) 
2.0207063067625572

>  <m_score__min__rmsd>  (20) 
2.0207063067625572

>  <meeko>  (20) 
{"free_energy": -8.57, "intermolecular_energy": -10.06, "internal_energy": -1.32, "cluster_size": 29, "cluster_id": 1, "rank_in_cluster": 27}

>  <energy>  (20) 
-8.9

>  <cluster_rmsd>  (20) 
1.27

>  <cluster>  (20) 
1

$$$$

     RDKit          3D

 51 54  0  0  0  0  0  0  0  0999 V2000
  140.1790   72.5640  220.7500 O   0  0  0  0  0  0  0  0  0  0  0  0
  139.9350   72.8840  221.9490 C   0  0  0  0  0  0  0  0  0  0  0  0
  139.6160   74.2310  222.2660 N   0  0  0  0  0  0  0  0  0  0  0  0
  139.5590   75.2510  221.2610 C   0  0  0  0  0  0  0  0  0  0  0  0
  140.7830   76.1290  221.3030 C   0  0  0  0  0  0  0  0  0  0  0  0
  140.9100   76.8320  222.3320 O   0  0  0  0  0  0  0  0  0  0  0  0
  141.7120   76.1310  220.2220 N   0  0  0  0  0  0  0  0  0  0  0  0
  142.2600   77.3750  219.7790 C   0  0  0  0  0  0  0  0  0  0  0  0
  142.6610   77.3910  218.3360 C   0  0  0  0  0  0  0  0  0  0  0  0
  143.1290   76.0460  217.8420 C   0  0  0  0  0  0  0  0  0  0  0  0
  142.0810   75.0130  218.1480 C   0  0  0  0  0  0  0  0  0  0  0  0
  142.0310   74.8350  219.6420 C   0  0  1  0  0  0  0  0  0  0  0  0
  143.2760   74.2440  220.1320 C   0  0  0  0  0  0  0  0  0  0  0  0
  144.4410   74.9360  220.3820 C   0  0  0  0  0  0  0  0  0  0  0  0
  145.5940   74.3350  220.8520 C   0  0  0  0  0  0  0  0  0  0  0  0
  145.6200   72.9780  221.0950 C   0  0  0  0  0  0  0  0  0  0  0  0
  144.4650   72.2700  220.8520 C   0  0  0  0  0  0  0  0  0  0  0  0
  143.3010   72.8850  220.3760 C   0  0  0  0  0  0  0  0  0  0  0  0
  139.9750   71.8910  223.0290 C   0  0  0  0  0  0  0  0  0  0  0  0
  139.5390   70.6020  222.8090 C   0  0  0  0  0  0  0  0  0  0  0  0
  139.5750   69.6630  223.8240 C   0  0  0  0  0  0  0  0  0  0  0  0
  140.0540   70.0200  225.0770 C   0  0  0  0  0  0  0  0  0  0  0  0
  140.1160   69.1330  226.1300 C   0  0  0  0  0  0  0  0  0  0  0  0
  140.6080   69.5730  227.3480 C   0  0  0  0  0  0  0  0  0  0  0  0
  140.6930   68.4550  228.6960 Cl  0  0  0  0  0  0  0  0  0  0  0  0
  141.0390   70.8840  227.5290 C   0  0  0  0  0  0  0  0  0  0  0  0
  140.9730   71.7650  226.4700 C   0  0  0  0  0  0  0  0  0  0  0  0
  140.4780   71.3190  225.2490 C   0  0  0  0  0  0  0  0  0  0  0  0
  140.4360   72.2160  224.2530 N   0  0  0  0  0  0  0  0  0  0  0  0
  139.4190   74.4560  223.2820 H   0  0  0  0  0  0  0  0  0  0  0  0
  139.4926   74.7757  220.2712 H   0  0  0  0  0  0  0  0  0  0  0  0
  138.6752   75.8776  221.4515 H   0  0  0  0  0  0  0  0  0  0  0  0
  141.5052   78.1596  219.9359 H   0  0  0  0  0  0  0  0  0  0  0  0
  143.1768   77.5421  220.3634 H   0  0  0  0  0  0  0  0  0  0  0  0
  141.7948   77.7038  217.7345 H   0  0  0  0  0  0  0  0  0  0  0  0
  143.5036   78.0909  218.2354 H   0  0  0  0  0  0  0  0  0  0  0  0
  143.2947   76.0908  216.7555 H   0  0  0  0  0  0  0  0  0  0  0  0
  144.0702   75.7761  218.3432 H   0  0  0  0  0  0  0  0  0  0  0  0
  141.1020   75.3527  217.7789 H   0  0  0  0  0  0  0  0  0  0  0  0
  142.3262   74.0602  217.6560 H   0  0  0  0  0  0  0  0  0  0  0  0
  141.2489   74.1239  219.9464 H   0  0  0  0  0  0  0  0  0  0  0  0
  144.4544   76.0205  220.1985 H   0  0  0  0  0  0  0  0  0  0  0  0
  146.4937   74.9415  221.0327 H   0  0  0  0  0  0  0  0  0  0  0  0
  146.5276   72.4811  221.4682 H   0  0  0  0  0  0  0  0  0  0  0  0
  144.4563   71.1858  221.0378 H   0  0  0  0  0  0  0  0  0  0  0  0
  142.3995   72.2812  220.1950 H   0  0  0  0  0  0  0  0  0  0  0  0
  139.1588   70.3174  221.8168 H   0  0  0  0  0  0  0  0  0  0  0  0
  139.2252   68.6367  223.6389 H   0  0  0  0  0  0  0  0  0  0  0  0
  139.7804   68.0929  226.0054 H   0  0  0  0  0  0  0  0  0  0  0  0
  141.4273   71.2132  228.5041 H   0  0  0  0  0  0  0  0  0  0  0  0
  141.3073   72.8062  226.5893 H   0  0  0  0  0  0  0  0  0  0  0  0
  1  2  2  0
  2  3  1  0
  3  4  1  0
  4  5  1  0
  5  6  2  0
  5  7  1  0
  7  8  1  0
  8  9  1  0
  9 10  1  0
 10 11  1  0
 11 12  1  0
 12 13  1  0
 13 14  2  0
 14 15  1  0
 15 16  2  0
 16 17  1  0
 17 18  2  0
  2 19  1  0
 19 20  2  0
 20 21  1  0
 21 22  2  0
 22 23  1  0
 23 24  2  0
 24 25  1  0
 24 26  1  0
 26 27  2  0
 27 28  1  0
 28 29  2  0
 12  7  1  0
 18 13  1  0
 29 19  1  0
 28 22  1  0
  3 30  1  0
  4 31  1  0
  4 32  1  0
  8 33  1  0
  8 34  1  0
  9 35  1  0
  9 36  1  0
 10 37  1  0
 10 38  1  0
 11 39  1  0
 11 40  1  0
 12 41  1  6
 14 42  1  0
 15 43  1  0
 16 44  1  0
 17 45  1  0
 18 46  1  0
 20 47  1  0
 21 48  1  0
 23 49  1  0
 26 50  1  0
 27 51  1  0
M  END
>  <smiles>  (21) 
O=C(NCC(=O)N1CCCC[C@H]1c1ccccc1)c1ccc2cc(Cl)ccc2n1

>  <score_type>  (21) 
oracle

>  <origin>  (21) 
autodockgpu

>  <m_score__min__energy>  (21) 
-9.1300000000000008

>  <m_primary>  (21) 
energy

>  <rmsd>  (21) 
2.3342156925243382

>  <m_score__min__rmsd>  (21) 
2.3342156925243382

>  <meeko>  (21) 
{"free_energy": -8.81, "intermolecular_energy": -10.3, "internal_energy": -1.99, "cluster_size": 16, "cluster_id": 2, "rank_in_cluster": 8}

>  <energy>  (21) 
-8.9

>  <cluster_rmsd>  (21) 
0.94

>  <cluster>  (21) 
1

$$$$

     RDKit          3D

 51 54  0  0  0  0  0  0  0  0999 V2000
  140.2450   72.2550  220.7270 O   0  0  0  0  0  0  0  0  0  0  0  0
  139.9730   72.5830  221.9180 C   0  0  0  0  0  0  0  0  0  0  0  0
  139.6350   73.9300  222.2150 N   0  0  0  0  0  0  0  0  0  0  0  0
  139.5920   74.9410  221.2000 C   0  0  0  0  0  0  0  0  0  0  0  0
  140.7430   75.9030  221.3380 C   0  0  0  0  0  0  0  0  0  0  0  0
  140.7890   76.5410  222.4150 O   0  0  0  0  0  0  0  0  0  0  0  0
  141.6960   76.0520  220.2880 N   0  0  0  0  0  0  0  0  0  0  0  0
  142.2150   77.3510  219.9980 C   0  0  0  0  0  0  0  0  0  0  0  0
  142.6470   77.5380  218.5760 C   0  0  0  0  0  0  0  0  0  0  0  0
  143.1690   76.2700  217.9510 C   0  0  0  0  0  0  0  0  0  0  0  0
  142.1460   75.1800  218.1140 C   0  0  0  0  0  0  0  0  0  0  0  0
  142.0670   74.8370  219.5790 C   0  0  1  0  0  0  0  0  0  0  0  0
  143.3190   74.2310  220.0330 C   0  0  0  0  0  0  0  0  0  0  0  0
  144.4560   74.9240  220.3890 C   0  0  0  0  0  0  0  0  0  0  0  0
  145.6160   74.3090  220.8210 C   0  0  0  0  0  0  0  0  0  0  0  0
  145.6790   72.9340  220.9120 C   0  0  0  0  0  0  0  0  0  0  0  0
  144.5540   72.2240  220.5610 C   0  0  0  0  0  0  0  0  0  0  0  0
  143.3820   72.8540  220.1250 C   0  0  0  0  0  0  0  0  0  0  0  0
  139.9970   71.6000  223.0070 C   0  0  0  0  0  0  0  0  0  0  0  0
  139.5170   70.3230  222.8060 C   0  0  0  0  0  0  0  0  0  0  0  0
  139.5380   69.3930  223.8290 C   0  0  0  0  0  0  0  0  0  0  0  0
  140.0450   69.7470  225.0720 C   0  0  0  0  0  0  0  0  0  0  0  0
  140.0950   68.8690  226.1340 C   0  0  0  0  0  0  0  0  0  0  0  0
  140.6170   69.3050  227.3400 C   0  0  0  0  0  0  0  0  0  0  0  0
  140.6870   68.1980  228.6980 Cl  0  0  0  0  0  0  0  0  0  0  0  0
  141.0920   70.6040  227.5010 C   0  0  0  0  0  0  0  0  0  0  0  0
  141.0380   71.4760  226.4340 C   0  0  0  0  0  0  0  0  0  0  0  0
  140.5130   71.0340  225.2250 C   0  0  0  0  0  0  0  0  0  0  0  0
  140.4840   71.9230  224.2200 N   0  0  0  0  0  0  0  0  0  0  0  0
  139.4130   74.1630  223.2250 H   0  0  0  0  0  0  0  0  0  0  0  0
  139.6435   74.4597  220.2122 H   0  0  0  0  0  0  0  0  0  0  0  0
  138.6533   75.5040  221.3096 H   0  0  0  0  0  0  0  0  0  0  0  0
  141.4333   78.0921  220.2210 H   0  0  0  0  0  0  0  0  0  0  0  0
  143.1135   77.4776  220.6198 H   0  0  0  0  0  0  0  0  0  0  0  0
  141.7846   77.8890  217.9903 H   0  0  0  0  0  0  0  0  0  0  0  0
  143.4681   78.2700  218.5736 H   0  0  0  0  0  0  0  0  0  0  0  0
  143.3593   76.4387  216.8808 H   0  0  0  0  0  0  0  0  0  0  0  0
  144.1062   75.9736  218.4448 H   0  0  0  0  0  0  0  0  0  0  0  0
  141.1659   75.5307  217.7585 H   0  0  0  0  0  0  0  0  0  0  0  0
  142.4316   74.2945  217.5272 H   0  0  0  0  0  0  0  0  0  0  0  0
  141.3002   74.0754  219.7841 H   0  0  0  0  0  0  0  0  0  0  0  0
  144.4394   76.0221  220.3262 H   0  0  0  0  0  0  0  0  0  0  0  0
  146.4911   74.9175  221.0929 H   0  0  0  0  0  0  0  0  0  0  0  0
  146.5930   72.4251  221.2519 H   0  0  0  0  0  0  0  0  0  0  0  0
  144.5760   71.1261  220.6250 H   0  0  0  0  0  0  0  0  0  0  0  0
  142.5050   72.2480  219.8537 H   0  0  0  0  0  0  0  0  0  0  0  0
  139.1135   70.0414  221.8222 H   0  0  0  0  0  0  0  0  0  0  0  0
  139.1543   68.3763  223.6586 H   0  0  0  0  0  0  0  0  0  0  0  0
  139.7260   67.8385  226.0248 H   0  0  0  0  0  0  0  0  0  0  0  0
  141.5050   70.9304  228.4669 H   0  0  0  0  0  0  0  0  0  0  0  0
  141.4054   72.5076  226.5382 H   0  0  0  0  0  0  0  0  0  0  0  0
  1  2  2  0
  2  3  1  0
  3  4  1  0
  4  5  1  0
  5  6  2  0
  5  7  1  0
  7  8  1  0
  8  9  1  0
  9 10  1  0
 10 11  1  0
 11 12  1  0
 12 13  1  0
 13 14  2  0
 14 15  1  0
 15 16  2  0
 16 17  1  0
 17 18  2  0
  2 19  1  0
 19 20  2  0
 20 21  1  0
 21 22  2  0
 22 23  1  0
 23 24  2  0
 24 25  1  0
 24 26  1  0
 26 27  2  0
 27 28  1  0
 28 29  2  0
 12  7  1  0
 18 13  1  0
 29 19  1  0
 28 22  1  0
  3 30  1  0
  4 31  1  0
  4 32  1  0
  8 33  1  0
  8 34  1  0
  9 35  1  0
  9 36  1  0
 10 37  1  0
 10 38  1  0
 11 39  1  0
 11 40  1  0
 12 41  1  6
 14 42  1  0
 15 43  1  0
 16 44  1  0
 17 45  1  0
 18 46  1  0
 20 47  1  0
 21 48  1  0
 23 49  1  0
 26 50  1  0
 27 51  1  0
M  END
>  <smiles>  (22) 
O=C(NCC(=O)N1CCCC[C@H]1c1ccccc1)c1ccc2cc(Cl)ccc2n1

>  <score_type>  (22) 
oracle

>  <origin>  (22) 
autodockgpu

>  <m_score__min__energy>  (22) 
-9.1300000000000008

>  <m_primary>  (22) 
energy

>  <rmsd>  (22) 
2.2654444996608207

>  <m_score__min__rmsd>  (22) 
2.2654444996608207

>  <meeko>  (22) 
{"free_energy": -8.86, "intermolecular_energy": -10.35, "internal_energy": -1.92, "cluster_size": 16, "cluster_id": 2, "rank_in_cluster": 5}

>  <energy>  (22) 
-8.89

>  <cluster_rmsd>  (22) 
0.44

>  <cluster>  (22) 
1

$$$$

     RDKit          3D

 51 54  0  0  0  0  0  0  0  0999 V2000
  140.2230   72.4420  220.6770 O   0  0  0  0  0  0  0  0  0  0  0  0
  139.9850   72.7860  221.8700 C   0  0  0  0  0  0  0  0  0  0  0  0
  139.6840   74.1430  222.1620 N   0  0  0  0  0  0  0  0  0  0  0  0
  139.6410   75.1460  221.1390 C   0  0  0  0  0  0  0  0  0  0  0  0
  140.8400   76.0550  221.2140 C   0  0  0  0  0  0  0  0  0  0  0  0
  140.9350   76.7420  222.2570 O   0  0  0  0  0  0  0  0  0  0  0  0
  141.7830   76.1040  220.1450 N   0  0  0  0  0  0  0  0  0  0  0  0
  142.3560   77.3610  219.7810 C   0  0  0  0  0  0  0  0  0  0  0  0
  142.7750   77.4540  218.3460 C   0  0  0  0  0  0  0  0  0  0  0  0
  143.2270   76.1320  217.7800 C   0  0  0  0  0  0  0  0  0  0  0  0
  142.1580   75.1010  218.0140 C   0  0  0  0  0  0  0  0  0  0  0  0
  142.0860   74.8390  219.4950 C   0  0  1  0  0  0  0  0  0  0  0  0
  143.3150   74.1990  219.9640 C   0  0  0  0  0  0  0  0  0  0  0  0
  144.4550   74.8620  220.3660 C   0  0  0  0  0  0  0  0  0  0  0  0
  145.5920   74.2140  220.8100 C   0  0  0  0  0  0  0  0  0  0  0  0
  145.6300   72.8370  220.8660 C   0  0  0  0  0  0  0  0  0  0  0  0
  144.5020   72.1570  220.4690 C   0  0  0  0  0  0  0  0  0  0  0  0
  143.3520   72.8190  220.0210 C   0  0  0  0  0  0  0  0  0  0  0  0
  140.0110   71.8130  222.9670 C   0  0  0  0  0  0  0  0  0  0  0  0
  139.5630   70.5240  222.7690 C   0  0  0  0  0  0  0  0  0  0  0  0
  139.5860   69.6040  223.8010 C   0  0  0  0  0  0  0  0  0  0  0  0
  140.0650   69.9780  225.0490 C   0  0  0  0  0  0  0  0  0  0  0  0
  140.1150   69.1100  226.1180 C   0  0  0  0  0  0  0  0  0  0  0  0
  140.6070   69.5670  227.3300 C   0  0  0  0  0  0  0  0  0  0  0  0
  140.6770   68.4730  228.6980 Cl  0  0  0  0  0  0  0  0  0  0  0  0
  141.0500   70.8770  227.4880 C   0  0  0  0  0  0  0  0  0  0  0  0
  140.9970   71.7390  226.4130 C   0  0  0  0  0  0  0  0  0  0  0  0
  140.5010   71.2760  225.1990 C   0  0  0  0  0  0  0  0  0  0  0  0
  140.4710   72.1560  224.1870 N   0  0  0  0  0  0  0  0  0  0  0  0
  139.4910   74.3900  223.1740 H   0  0  0  0  0  0  0  0  0  0  0  0
  139.6250   74.6542  220.1552 H   0  0  0  0  0  0  0  0  0  0  0  0
  138.7352   75.7528  221.2851 H   0  0  0  0  0  0  0  0  0  0  0  0
  141.6121   78.1479  219.9745 H   0  0  0  0  0  0  0  0  0  0  0  0
  143.2684   77.4782  220.3842 H   0  0  0  0  0  0  0  0  0  0  0  0
  141.9215   77.8159  217.7539 H   0  0  0  0  0  0  0  0  0  0  0  0
  143.6300   78.1442  218.2958 H   0  0  0  0  0  0  0  0  0  0  0  0
  143.4067   76.2367  216.6998 H   0  0  0  0  0  0  0  0  0  0  0  0
  144.1576   75.8175  218.2751 H   0  0  0  0  0  0  0  0  0  0  0  0
  141.1896   75.4779  217.6534 H   0  0  0  0  0  0  0  0  0  0  0  0
  142.3938   74.1737  217.4713 H   0  0  0  0  0  0  0  0  0  0  0  0
  141.2874   74.1264  219.7488 H   0  0  0  0  0  0  0  0  0  0  0  0
  144.4598   75.9615  220.3316 H   0  0  0  0  0  0  0  0  0  0  0  0
  146.4703   74.7993  221.1200 H   0  0  0  0  0  0  0  0  0  0  0  0
  146.5266   72.3033  221.2143 H   0  0  0  0  0  0  0  0  0  0  0  0
  144.5033   71.0576  220.5046 H   0  0  0  0  0  0  0  0  0  0  0  0
  142.4718   72.2360  219.7122 H   0  0  0  0  0  0  0  0  0  0  0  0
  139.1838   70.2248  221.7807 H   0  0  0  0  0  0  0  0  0  0  0  0
  139.2256   68.5783  223.6334 H   0  0  0  0  0  0  0  0  0  0  0  0
  139.7699   68.0710  226.0109 H   0  0  0  0  0  0  0  0  0  0  0  0
  141.4376   71.2204  228.4585 H   0  0  0  0  0  0  0  0  0  0  0  0
  141.3422   72.7785  226.5143 H   0  0  0  0  0  0  0  0  0  0  0  0
  1  2  2  0
  2  3  1  0
  3  4  1  0
  4  5  1  0
  5  6  2  0
  5  7  1  0
  7  8  1  0
  8  9  1  0
  9 10  1  0
 10 11  1  0
 11 12  1  0
 12 13  1  0
 13 14  2  0
 14 15  1  0
 15 16  2  0
 16 17  1  0
 17 18  2  0
  2 19  1  0
 19 20  2  0
 20 21  1  0
 21 22  2  0
 22 23  1  0
 23 24  2  0
 24 25  1  0
 24 26  1  0
 26 27  2  0
 27 28  1  0
 28 29  2  0
 12  7  1  0
 18 13  1  0
 29 19  1  0
 28 22  1  0
  3 30  1  0
  4 31  1  0
  4 32  1  0
  8 33  1  0
  8 34  1  0
  9 35  1  0
  9 36  1  0
 10 37  1  0
 10 38  1  0
 11 39  1  0
 11 40  1  0
 12 41  1  6
 14 42  1  0
 15 43  1  0
 16 44  1  0
 17 45  1  0
 18 46  1  0
 20 47  1  0
 21 48  1  0
 23 49  1  0
 26 50  1  0
 27 51  1  0
M  END
>  <smiles>  (23) 
O=C(NCC(=O)N1CCCC[C@H]1c1ccccc1)c1ccc2cc(Cl)ccc2n1

>  <score_type>  (23) 
oracle

>  <origin>  (23) 
autodockgpu

>  <m_score__min__energy>  (23) 
-9.1300000000000008

>  <m_primary>  (23) 
energy

>  <rmsd>  (23) 
2.3438418600195345

>  <m_score__min__rmsd>  (23) 
2.3438418600195345

>  <meeko>  (23) 
{"free_energy": -8.78, "intermolecular_energy": -10.27, "internal_energy": -1.99, "cluster_size": 16, "cluster_id": 2, "rank_in_cluster": 11}

>  <energy>  (23) 
-8.89

>  <cluster_rmsd>  (23) 
1.32

>  <cluster>  (23) 
1

$$$$

     RDKit          3D

 51 54  0  0  0  0  0  0  0  0999 V2000
  139.8890   72.1630  220.6310 O   0  0  0  0  0  0  0  0  0  0  0  0
  139.6790   72.5250  221.8240 C   0  0  0  0  0  0  0  0  0  0  0  0
  139.3240   73.8740  222.0960 N   0  0  0  0  0  0  0  0  0  0  0  0
  139.1950   74.8470  221.0520 C   0  0  0  0  0  0  0  0  0  0  0  0
  139.3040   76.2480  221.5950 C   0  0  0  0  0  0  0  0  0  0  0  0
  138.7540   76.4440  222.7030 O   0  0  0  0  0  0  0  0  0  0  0  0
  139.9950   77.2580  220.8640 N   0  0  0  0  0  0  0  0  0  0  0  0
  139.3360   77.8970  219.7680 C   0  0  0  0  0  0  0  0  0  0  0  0
  140.2620   78.4100  218.7080 C   0  0  0  0  0  0  0  0  0  0  0  0
  141.5940   78.8520  219.2570 C   0  0  0  0  0  0  0  0  0  0  0  0
  142.1920   77.7350  220.0670 C   0  0  0  0  0  0  0  0  0  0  0  0
  141.3490   77.5590  221.3020 C   0  0  1  0  0  0  0  0  0  0  0  0
  141.4560   78.7330  222.1690 C   0  0  0  0  0  0  0  0  0  0  0  0
  142.6250   79.4020  222.4620 C   0  0  0  0  0  0  0  0  0  0  0  0
  142.6780   80.5140  223.2810 C   0  0  0  0  0  0  0  0  0  0  0  0
  141.5250   81.0080  223.8560 C   0  0  0  0  0  0  0  0  0  0  0  0
  140.3480   80.3540  223.5750 C   0  0  0  0  0  0  0  0  0  0  0  0
  140.3020   79.2280  222.7430 C   0  0  0  0  0  0  0  0  0  0  0  0
  139.7940   71.5820  222.9420 C   0  0  0  0  0  0  0  0  0  0  0  0
  139.3850   70.2740  222.7970 C   0  0  0  0  0  0  0  0  0  0  0  0
  139.4910   69.3810  223.8480 C   0  0  0  0  0  0  0  0  0  0  0  0
  140.0140   69.8050  225.0620 C   0  0  0  0  0  0  0  0  0  0  0  0
  140.1470   68.9670  226.1490 C   0  0  0  0  0  0  0  0  0  0  0  0
  140.6790   69.4720  227.3230 C   0  0  0  0  0  0  0  0  0  0  0  0
  140.8540   68.4170  228.7120 Cl  0  0  0  0  0  0  0  0  0  0  0  0
  141.0810   70.8010  227.4290 C   0  0  0  0  0  0  0  0  0  0  0  0
  140.9440   71.6320  226.3370 C   0  0  0  0  0  0  0  0  0  0  0  0
  140.4090   71.1210  225.1590 C   0  0  0  0  0  0  0  0  0  0  0  0
  140.2980   71.9720  224.1290 N   0  0  0  0  0  0  0  0  0  0  0  0
  139.1570   74.1360  223.1090 H   0  0  0  0  0  0  0  0  0  0  0  0
  139.9925   74.6863  220.3115 H   0  0  0  0  0  0  0  0  0  0  0  0
  138.2046   74.7299  220.5878 H   0  0  0  0  0  0  0  0  0  0  0  0
  138.6519   77.1701  219.3058 H   0  0  0  0  0  0  0  0  0  0  0  0
  138.8132   78.7723  220.1810 H   0  0  0  0  0  0  0  0  0  0  0  0
  140.4333   77.6090  217.9738 H   0  0  0  0  0  0  0  0  0  0  0  0
  139.7852   79.2894  218.2504 H   0  0  0  0  0  0  0  0  0  0  0  0
  142.2685   79.1052  218.4258 H   0  0  0  0  0  0  0  0  0  0  0  0
  141.4546   79.7369  219.8954 H   0  0  0  0  0  0  0  0  0  0  0  0
  142.1928   76.8054  219.4790 H   0  0  0  0  0  0  0  0  0  0  0  0
  143.2303   77.9729  220.3415 H   0  0  0  0  0  0  0  0  0  0  0  0
  141.6991   76.7218  221.9237 H   0  0  0  0  0  0  0  0  0  0  0  0
  143.5628   79.0322  222.0219 H   0  0  0  0  0  0  0  0  0  0  0  0
  143.6421   81.0067  223.4751 H   0  0  0  0  0  0  0  0  0  0  0  0
  141.5463   81.8899  224.5131 H   0  0  0  0  0  0  0  0  0  0  0  0
  139.4128   80.7272  224.0179 H   0  0  0  0  0  0  0  0  0  0  0  0
  139.3390   78.7344  222.5454 H   0  0  0  0  0  0  0  0  0  0  0  0
  138.9700   69.9367  221.8357 H   0  0  0  0  0  0  0  0  0  0  0  0
  139.1621   68.3389  223.7223 H   0  0  0  0  0  0  0  0  0  0  0  0
  139.8353   67.9141  226.0843 H   0  0  0  0  0  0  0  0  0  0  0  0
  141.5020   71.1827  228.3708 H   0  0  0  0  0  0  0  0  0  0  0  0
  141.2539   72.6858  226.3968 H   0  0  0  0  0  0  0  0  0  0  0  0
  1  2  2  0
  2  3  1  0
  3  4  1  0
  4  5  1  0
  5  6  2  0
  5  7  1  0
  7  8  1  0
  8  9  1  0
  9 10  1  0
 10 11  1  0
 11 12  1  0
 12 13  1  0
 13 14  2  0
 14 15  1  0
 15 16  2  0
 16 17  1  0
 17 18  2  0
  2 19  1  0
 19 20  2  0
 20 21  1  0
 21 22  2  0
 22 23  1  0
 23 24  2  0
 24 25  1  0
 24 26  1  0
 26 27  2  0
 27 28  1  0
 28 29  2  0
 12  7  1  0
 18 13  1  0
 29 19  1  0
 28 22  1  0
  3 30  1  0
  4 31  1  0
  4 32  1  0
  8 33  1  0
  8 34  1  0
  9 35  1  0
  9 36  1  0
 10 37  1  0
 10 38  1  0
 11 39  1  0
 11 40  1  0
 12 41  1  1
 14 42  1  0
 15 43  1  0
 16 44  1  0
 17 45  1  0
 18 46  1  0
 20 47  1  0
 21 48  1  0
 23 49  1  0
 26 50  1  0
 27 51  1  0
M  END
>  <smiles>  (24) 
O=C(NCC(=O)N1CCCC[C@H]1c1ccccc1)c1ccc2cc(Cl)ccc2n1

>  <score_type>  (24) 
oracle

>  <origin>  (24) 
autodockgpu

>  <m_score__min__energy>  (24) 
-9.1300000000000008

>  <m_primary>  (24) 
energy

>  <rmsd>  (24) 
1.9506747477365245

>  <m_score__min__rmsd>  (24) 
1.9506747477365245

>  <meeko>  (24) 
{"free_energy": -9.02, "intermolecular_energy": -10.51, "internal_energy": -1.86, "cluster_size": 29, "cluster_id": 1, "rank_in_cluster": 11}

>  <energy>  (24) 
-8.85

>  <cluster_rmsd>  (24) 
0.95

>  <cluster>  (24) 
1

$$$$

     RDKit          3D

 51 54  0  0  0  0  0  0  0  0999 V2000
  139.1620   72.0530  220.8510 O   0  0  0  0  0  0  0  0  0  0  0  0
  139.3590   72.4270  222.0420 C   0  0  0  0  0  0  0  0  0  0  0  0
  139.3930   73.8150  222.3450 N   0  0  0  0  0  0  0  0  0  0  0  0
  139.2110   74.8150  221.3350 C   0  0  0  0  0  0  0  0  0  0  0  0
  140.4630   75.6310  221.1410 C   0  0  0  0  0  0  0  0  0  0  0  0
  141.5290   75.0810  221.5020 O   0  0  0  0  0  0  0  0  0  0  0  0
  140.3970   76.9400  220.5830 N   0  0  0  0  0  0  0  0  0  0  0  0
  139.1490   77.4190  220.0780 C   0  0  0  0  0  0  0  0  0  0  0  0
  139.2760   78.4340  218.9840 C   0  0  0  0  0  0  0  0  0  0  0  0
  140.5080   79.2910  219.1190 C   0  0  0  0  0  0  0  0  0  0  0  0
  141.7170   78.4060  219.2410 C   0  0  0  0  0  0  0  0  0  0  0  0
  141.6390   77.6980  220.5680 C   0  0  1  0  0  0  0  0  0  0  0  0
  141.7760   78.6530  221.6680 C   0  0  0  0  0  0  0  0  0  0  0  0
  142.2330   79.9470  221.5470 C   0  0  0  0  0  0  0  0  0  0  0  0
  142.3400   80.8180  222.6150 C   0  0  0  0  0  0  0  0  0  0  0  0
  141.9820   80.4080  223.8820 C   0  0  0  0  0  0  0  0  0  0  0  0
  141.5230   79.1190  224.0240 C   0  0  0  0  0  0  0  0  0  0  0  0
  141.4170   78.2420  222.9370 C   0  0  0  0  0  0  0  0  0  0  0  0
  139.5530   71.4590  223.1270 C   0  0  0  0  0  0  0  0  0  0  0  0
  139.1800   70.1420  222.9620 C   0  0  0  0  0  0  0  0  0  0  0  0
  139.3610   69.2250  223.9820 C   0  0  0  0  0  0  0  0  0  0  0  0
  139.9240   69.6330  225.1830 C   0  0  0  0  0  0  0  0  0  0  0  0
  140.1310   68.7700  226.2390 C   0  0  0  0  0  0  0  0  0  0  0  0
  140.6980   69.2610  227.4030 C   0  0  0  0  0  0  0  0  0  0  0  0
  140.9690   68.1750  228.7530 Cl  0  0  0  0  0  0  0  0  0  0  0  0
  141.0610   70.5990  227.5290 C   0  0  0  0  0  0  0  0  0  0  0  0
  140.8500   71.4550  226.4690 C   0  0  0  0  0  0  0  0  0  0  0  0
  140.2800   70.9580  225.3010 C   0  0  0  0  0  0  0  0  0  0  0  0
  140.0960   71.8330  224.3010 N   0  0  0  0  0  0  0  0  0  0  0  0
  139.5610   74.0860  223.3560 H   0  0  0  0  0  0  0  0  0  0  0  0
  138.9533   74.3228  220.3856 H   0  0  0  0  0  0  0  0  0  0  0  0
  138.4031   75.4893  221.6554 H   0  0  0  0  0  0  0  0  0  0  0  0
  138.5830   76.5605  219.6875 H   0  0  0  0  0  0  0  0  0  0  0  0
  138.6416   77.9201  220.9155 H   0  0  0  0  0  0  0  0  0  0  0  0
  139.3192   77.9069  218.0195 H   0  0  0  0  0  0  0  0  0  0  0  0
  138.4025   79.0994  219.0482 H   0  0  0  0  0  0  0  0  0  0  0  0
  140.6094   79.9315  218.2305 H   0  0  0  0  0  0  0  0  0  0  0  0
  140.4214   79.9227  220.0154 H   0  0  0  0  0  0  0  0  0  0  0  0
  141.7252   77.6694  218.4241 H   0  0  0  0  0  0  0  0  0  0  0  0
  142.6381   79.0041  219.1788 H   0  0  0  0  0  0  0  0  0  0  0  0
  142.4704   76.9914  220.7077 H   0  0  0  0  0  0  0  0  0  0  0  0
  142.5278   80.3053  220.5497 H   0  0  0  0  0  0  0  0  0  0  0  0
  142.7116   81.8407  222.4538 H   0  0  0  0  0  0  0  0  0  0  0  0
  142.0604   81.0851  224.7453 H   0  0  0  0  0  0  0  0  0  0  0  0
  141.2297   78.7656  225.0235 H   0  0  0  0  0  0  0  0  0  0  0  0
  141.0453   77.2188  223.0950 H   0  0  0  0  0  0  0  0  0  0  0  0
  138.7342   69.8172  222.0103 H   0  0  0  0  0  0  0  0  0  0  0  0
  139.0598   68.1764  223.8415 H   0  0  0  0  0  0  0  0  0  0  0  0
  139.8504   67.7095  226.1578 H   0  0  0  0  0  0  0  0  0  0  0  0
  141.5105   70.9686  228.4625 H   0  0  0  0  0  0  0  0  0  0  0  0
  141.1285   72.5164  226.5456 H   0  0  0  0  0  0  0  0  0  0  0  0
  1  2  2  0
  2  3  1  0
  3  4  1  0
  4  5  1  0
  5  6  2  0
  5  7  1  0
  7  8  1  0
  8  9  1  0
  9 10  1  0
 10 11  1  0
 11 12  1  0
 12 13  1  0
 13 14  2  0
 14 15  1  0
 15 16  2  0
 16 17  1  0
 17 18  2  0
  2 19  1  0
 19 20  2  0
 20 21  1  0
 21 22  2  0
 22 23  1  0
 23 24  2  0
 24 25  1  0
 24 26  1  0
 26 27  2  0
 27 28  1  0
 28 29  2  0
 12  7  1  0
 18 13  1  0
 29 19  1  0
 28 22  1  0
  3 30  1  0
  4 31  1  0
  4 32  1  0
  8 33  1  0
  8 34  1  0
  9 35  1  0
  9 36  1  0
 10 37  1  0
 10 38  1  0
 11 39  1  0
 11 40  1  0
 12 41  1  6
 14 42  1  0
 15 43  1  0
 16 44  1  0
 17 45  1  0
 18 46  1  0
 20 47  1  0
 21 48  1  0
 23 49  1  0
 26 50  1  0
 27 51  1  0
M  END
>  <smiles>  (25) 
O=C(NCC(=O)N1CCCC[C@H]1c1ccccc1)c1ccc2cc(Cl)ccc2n1

>  <score_type>  (25) 
oracle

>  <origin>  (25) 
autodockgpu

>  <m_score__min__energy>  (25) 
-9.1300000000000008

>  <m_primary>  (25) 
energy

>  <rmsd>  (25) 
1.7631163570506394

>  <m_score__min__rmsd>  (25) 
1.7631163570506394

>  <meeko>  (25) 
{"free_energy": -8.85, "intermolecular_energy": -10.34, "internal_energy": -1.58, "cluster_size": 29, "cluster_id": 1, "rank_in_cluster": 24}

>  <energy>  (25) 
-8.75

>  <cluster_rmsd>  (25) 
0.81

>  <cluster>  (25) 
1

$$$$

     RDKit          3D

 51 54  0  0  0  0  0  0  0  0999 V2000
  141.0560   73.5770  221.9430 O   0  0  0  0  0  0  0  0  0  0  0  0
  139.9910   73.0170  222.3320 C   0  0  0  0  0  0  0  0  0  0  0  0
  138.7450   73.4160  221.7770 N   0  0  0  0  0  0  0  0  0  0  0  0
  138.6550   74.4420  220.7800 C   0  0  0  0  0  0  0  0  0  0  0  0
  138.9030   75.8040  221.3740 C   0  0  0  0  0  0  0  0  0  0  0  0
  138.3260   76.0330  222.4620 O   0  0  0  0  0  0  0  0  0  0  0  0
  139.7430   76.7440  220.7090 N   0  0  0  0  0  0  0  0  0  0  0  0
  139.2710   77.3790  219.5190 C   0  0  0  0  0  0  0  0  0  0  0  0
  140.3550   77.7970  218.5730 C   0  0  0  0  0  0  0  0  0  0  0  0
  141.6310   78.1810  219.2770 C   0  0  0  0  0  0  0  0  0  0  0  0
  142.0490   77.0620  220.1900 C   0  0  0  0  0  0  0  0  0  0  0  0
  141.0460   76.9820  221.3110 C   0  0  1  0  0  0  0  0  0  0  0  0
  141.1150   78.1790  222.1490 C   0  0  0  0  0  0  0  0  0  0  0  0
  142.2120   79.0050  222.2690 C   0  0  0  0  0  0  0  0  0  0  0  0
  142.2300   80.1310  223.0680 C   0  0  0  0  0  0  0  0  0  0  0  0
  141.1140   80.4800  223.8000 C   0  0  0  0  0  0  0  0  0  0  0  0
  140.0080   79.6690  223.6930 C   0  0  0  0  0  0  0  0  0  0  0  0
  139.9970   78.5280  222.8800 C   0  0  0  0  0  0  0  0  0  0  0  0
  140.0090   71.9600  223.3480 C   0  0  0  0  0  0  0  0  0  0  0  0
  139.5060   70.7090  223.0630 C   0  0  0  0  0  0  0  0  0  0  0  0
  139.5210   69.7080  224.0180 C   0  0  0  0  0  0  0  0  0  0  0  0
  140.0480   69.9650  225.2770 C   0  0  0  0  0  0  0  0  0  0  0  0
  140.0930   69.0130  226.2730 C   0  0  0  0  0  0  0  0  0  0  0  0
  140.6350   69.3540  227.5010 C   0  0  0  0  0  0  0  0  0  0  0  0
  140.7000   68.1530  228.7770 Cl  0  0  0  0  0  0  0  0  0  0  0  0
  141.1330   70.6310  227.7480 C   0  0  0  0  0  0  0  0  0  0  0  0
  141.0840   71.5760  226.7460 C   0  0  0  0  0  0  0  0  0  0  0  0
  140.5380   71.2300  225.5150 C   0  0  0  0  0  0  0  0  0  0  0  0
  140.5150   72.1880  224.5760 N   0  0  0  0  0  0  0  0  0  0  0  0
  137.8770   72.9210  222.1300 H   0  0  0  0  0  0  0  0  0  0  0  0
  139.4051   74.2496  219.9988 H   0  0  0  0  0  0  0  0  0  0  0  0
  137.6400   74.4270  220.3563 H   0  0  0  0  0  0  0  0  0  0  0  0
  138.6069   76.6768  218.9937 H   0  0  0  0  0  0  0  0  0  0  0  0
  138.7561   78.2983  219.8349 H   0  0  0  0  0  0  0  0  0  0  0  0
  140.5681   76.9603  217.8915 H   0  0  0  0  0  0  0  0  0  0  0  0
  139.9965   78.6847  218.0313 H   0  0  0  0  0  0  0  0  0  0  0  0
  142.4208   78.3633  218.5333 H   0  0  0  0  0  0  0  0  0  0  0  0
  141.4671   79.0959  219.8654 H   0  0  0  0  0  0  0  0  0  0  0  0
  142.0658   76.1126  219.6347 H   0  0  0  0  0  0  0  0  0  0  0  0
  143.0568   77.2486  220.5893 H   0  0  0  0  0  0  0  0  0  0  0  0
  141.2605   76.1504  221.9984 H   0  0  0  0  0  0  0  0  0  0  0  0
  143.1191   78.7544  221.6994 H   0  0  0  0  0  0  0  0  0  0  0  0
  143.1367   80.7515  223.1210 H   0  0  0  0  0  0  0  0  0  0  0  0
  141.1087   81.3718  224.4440 H   0  0  0  0  0  0  0  0  0  0  0  0
  139.1032   79.9245  224.2640 H   0  0  0  0  0  0  0  0  0  0  0  0
  139.0915   77.9060  222.8237 H   0  0  0  0  0  0  0  0  0  0  0  0
  139.0884   70.5042  222.0662 H   0  0  0  0  0  0  0  0  0  0  0  0
  139.1171   68.7126  223.7811 H   0  0  0  0  0  0  0  0  0  0  0  0
  139.7048   67.9992  226.0953 H   0  0  0  0  0  0  0  0  0  0  0  0
  141.5599   70.8821  228.7302 H   0  0  0  0  0  0  0  0  0  0  0  0
  141.4719   72.5909  226.9179 H   0  0  0  0  0  0  0  0  0  0  0  0
  1  2  2  0
  2  3  1  0
  3  4  1  0
  4  5  1  0
  5  6  2  0
  5  7  1  0
  7  8  1  0
  8  9  1  0
  9 10  1  0
 10 11  1  0
 11 12  1  0
 12 13  1  0
 13 14  2  0
 14 15  1  0
 15 16  2  0
 16 17  1  0
 17 18  2  0
  2 19  1  0
 19 20  2  0
 20 21  1  0
 21 22  2  0
 22 23  1  0
 23 24  2  0
 24 25  1  0
 24 26  1  0
 26 27  2  0
 27 28  1  0
 28 29  2  0
 12  7  1  0
 18 13  1  0
 29 19  1  0
 28 22  1  0
  3 30  1  0
  4 31  1  0
  4 32  1  0
  8 33  1  0
  8 34  1  0
  9 35  1  0
  9 36  1  0
 10 37  1  0
 10 38  1  0
 11 39  1  0
 11 40  1  0
 12 41  1  1
 14 42  1  0
 15 43  1  0
 16 44  1  0
 17 45  1  0
 18 46  1  0
 20 47  1  0
 21 48  1  0
 23 49  1  0
 26 50  1  0
 27 51  1  0
M  END
>  <smiles>  (26) 
O=C(NCC(=O)N1CCCC[C@H]1c1ccccc1)c1ccc2cc(Cl)ccc2n1

>  <score_type>  (26) 
oracle

>  <origin>  (26) 
autodockgpu

>  <m_score__min__energy>  (26) 
-9.1300000000000008

>  <m_primary>  (26) 
energy

>  <rmsd>  (26) 
1.8706387518852632

>  <m_score__min__rmsd>  (26) 
1.8706387518852632

>  <meeko>  (26) 
{"free_energy": -8.6, "intermolecular_energy": -10.09, "internal_energy": -1.49, "cluster_size": 29, "cluster_id": 1, "rank_in_cluster": 26}

>  <energy>  (26) 
-8.6

>  <cluster_rmsd>  (26) 
0.74

>  <cluster>  (26) 
1

$$$$

     RDKit          3D

 51 54  0  0  0  0  0  0  0  0999 V2000
  140.2170   72.4390  220.6710 O   0  0  0  0  0  0  0  0  0  0  0  0
  139.9060   72.7730  221.8500 C   0  0  0  0  0  0  0  0  0  0  0  0
  139.5100   74.1110  222.1190 N   0  0  0  0  0  0  0  0  0  0  0  0
  139.4510   75.1040  221.0880 C   0  0  0  0  0  0  0  0  0  0  0  0
  139.4980   76.4950  221.6650 C   0  0  0  0  0  0  0  0  0  0  0  0
  138.9860   76.6270  222.8000 O   0  0  0  0  0  0  0  0  0  0  0  0
  140.0940   77.5650  220.9350 N   0  0  0  0  0  0  0  0  0  0  0  0
  139.3140   78.2590  219.9600 C   0  0  0  0  0  0  0  0  0  0  0  0
  140.1160   78.8600  218.8450 C   0  0  0  0  0  0  0  0  0  0  0  0
  141.4920   79.2930  219.2800 C   0  0  0  0  0  0  0  0  0  0  0  0
  142.1870   78.1380  219.9470 C   0  0  0  0  0  0  0  0  0  0  0  0
  141.4820   77.8650  221.2490 C   0  0  1  0  0  0  0  0  0  0  0  0
  141.6640   78.9810  222.1770 C   0  0  0  0  0  0  0  0  0  0  0  0
  142.8760   79.4300  222.6550 C   0  0  0  0  0  0  0  0  0  0  0  0
  143.0010   80.4960  223.5250 C   0  0  0  0  0  0  0  0  0  0  0  0
  141.8800   81.1700  223.9620 C   0  0  0  0  0  0  0  0  0  0  0  0
  140.6600   80.7370  223.4950 C   0  0  0  0  0  0  0  0  0  0  0  0
  140.5410   79.6570  222.6130 C   0  0  0  0  0  0  0  0  0  0  0  0
  139.9440   71.8080  222.9540 C   0  0  0  0  0  0  0  0  0  0  0  0
  139.4770   70.5240  222.7760 C   0  0  0  0  0  0  0  0  0  0  0  0
  139.5100   69.6100  223.8140 C   0  0  0  0  0  0  0  0  0  0  0  0
  140.0180   69.9890  225.0490 C   0  0  0  0  0  0  0  0  0  0  0  0
  140.0800   69.1290  226.1240 C   0  0  0  0  0  0  0  0  0  0  0  0
  140.6020   69.5890  227.3220 C   0  0  0  0  0  0  0  0  0  0  0  0
  140.6870   68.5050  228.6970 Cl  0  0  0  0  0  0  0  0  0  0  0  0
  141.0630   70.8950  227.4610 C   0  0  0  0  0  0  0  0  0  0  0  0
  140.9970   71.7490  226.3800 C   0  0  0  0  0  0  0  0  0  0  0  0
  140.4730   71.2830  225.1790 C   0  0  0  0  0  0  0  0  0  0  0  0
  140.4320   72.1550  224.1610 N   0  0  0  0  0  0  0  0  0  0  0  0
  139.2580   74.3490  223.1200 H   0  0  0  0  0  0  0  0  0  0  0  0
  140.3066   74.9681  220.4101 H   0  0  0  0  0  0  0  0  0  0  0  0
  138.5018   74.9850  220.5450 H   0  0  0  0  0  0  0  0  0  0  0  0
  138.5955   77.5492  219.5243 H   0  0  0  0  0  0  0  0  0  0  0  0
  138.8248   79.0940  220.4829 H   0  0  0  0  0  0  0  0  0  0  0  0
  140.2199   78.1124  218.0448 H   0  0  0  0  0  0  0  0  0  0  0  0
  139.5812   79.7572  218.5000 H   0  0  0  0  0  0  0  0  0  0  0  0
  142.0716   79.6134  218.4016 H   0  0  0  0  0  0  0  0  0  0  0  0
  141.4089   80.1319  219.9867 H   0  0  0  0  0  0  0  0  0  0  0  0
  142.1379   77.2487  219.3015 H   0  0  0  0  0  0  0  0  0  0  0  0
  143.2452   78.3788  220.1267 H   0  0  0  0  0  0  0  0  0  0  0  0
  141.9074   76.9970  221.7739 H   0  0  0  0  0  0  0  0  0  0  0  0
  143.7903   78.9135  222.3273 H   0  0  0  0  0  0  0  0  0  0  0  0
  143.9977   80.8081  223.8701 H   0  0  0  0  0  0  0  0  0  0  0  0
  141.9579   82.0198  224.6561 H   0  0  0  0  0  0  0  0  0  0  0  0
  139.7487   81.2568  223.8258 H   0  0  0  0  0  0  0  0  0  0  0  0
  139.5458   79.3441  222.2643 H   0  0  0  0  0  0  0  0  0  0  0  0
  139.0736   70.2224  221.7981 H   0  0  0  0  0  0  0  0  0  0  0  0
  139.1352   68.5872  223.6613 H   0  0  0  0  0  0  0  0  0  0  0  0
  139.7206   68.0934  226.0323 H   0  0  0  0  0  0  0  0  0  0  0  0
  141.4746   71.2414  228.4205 H   0  0  0  0  0  0  0  0  0  0  0  0
  141.3543   72.7857  226.4667 H   0  0  0  0  0  0  0  0  0  0  0  0
  1  2  2  0
  2  3  1  0
  3  4  1  0
  4  5  1  0
  5  6  2  0
  5  7  1  0
  7  8  1  0
  8  9  1  0
  9 10  1  0
 10 11  1  0
 11 12  1  0
 12 13  1  0
 13 14  2  0
 14 15  1  0
 15 16  2  0
 16 17  1  0
 17 18  2  0
  2 19  1  0
 19 20  2  0
 20 21  1  0
 21 22  2  0
 22 23  1  0
 23 24  2  0
 24 25  1  0
 24 26  1  0
 26 27  2  0
 27 28  1  0
 28 29  2  0
 12  7  1  0
 18 13  1  0
 29 19  1  0
 28 22  1  0
  3 30  1  0
  4 31  1  0
  4 32  1  0
  8 33  1  0
  8 34  1  0
  9 35  1  0
  9 36  1  0
 10 37  1  0
 10 38  1  0
 11 39  1  0
 11 40  1  0
 12 41  1  1
 14 42  1  0
 15 43  1  0
 16 44  1  0
 17 45  1  0
 18 46  1  0
 20 47  1  0
 21 48  1  0
 23 49  1  0
 26 50  1  0
 27 51  1  0
M  END
>  <smiles>  (27) 
O=C(NCC(=O)N1CCCC[C@H]1c1ccccc1)c1ccc2cc(Cl)ccc2n1

>  <score_type>  (27) 
oracle

>  <origin>  (27) 
autodockgpu

>  <m_score__min__energy>  (27) 
-9.1300000000000008

>  <m_primary>  (27) 
energy

>  <rmsd>  (27) 
2.1714702361147613

>  <m_score__min__rmsd>  (27) 
2.1714702361147613

>  <meeko>  (27) 
{"free_energy": -9.07, "intermolecular_energy": -10.56, "internal_energy": -1.89, "cluster_size": 29, "cluster_id": 1, "rank_in_cluster": 7}

>  <energy>  (27) 
-8.57

>  <cluster_rmsd>  (27) 
1.11

>  <cluster>  (27) 
1

$$$$

     RDKit          3D

 51 54  0  0  0  0  0  0  0  0999 V2000
  139.2430   71.9500  220.6620 O   0  0  0  0  0  0  0  0  0  0  0  0
  139.4110   72.3660  221.8440 C   0  0  0  0  0  0  0  0  0  0  0  0
  139.4550   73.7630  222.0970 N   0  0  0  0  0  0  0  0  0  0  0  0
  139.3140   74.7270  221.0460 C   0  0  0  0  0  0  0  0  0  0  0  0
  140.1010   75.9770  221.3420 C   0  0  0  0  0  0  0  0  0  0  0  0
  141.3370   75.8960  221.1550 O   0  0  0  0  0  0  0  0  0  0  0  0
  139.4450   77.1550  221.8050 N   0  0  0  0  0  0  0  0  0  0  0  0
  138.3610   77.0310  222.7270 C   0  0  0  0  0  0  0  0  0  0  0  0
  137.3600   78.1430  222.6540 C   0  0  0  0  0  0  0  0  0  0  0  0
  137.9760   79.4610  222.2590 C   0  0  0  0  0  0  0  0  0  0  0  0
  138.7490   79.2830  220.9820 C   0  0  0  0  0  0  0  0  0  0  0  0
  139.9450   78.4180  221.2830 C   0  0  1  0  0  0  0  0  0  0  0  0
  140.8720   79.1150  222.1750 C   0  0  0  0  0  0  0  0  0  0  0  0
  141.3140   78.6420  223.3910 C   0  0  0  0  0  0  0  0  0  0  0  0
  142.1980   79.3330  224.1980 C   0  0  0  0  0  0  0  0  0  0  0  0
  142.6850   80.5620  223.8020 C   0  0  0  0  0  0  0  0  0  0  0  0
  142.2560   81.0500  222.5890 C   0  0  0  0  0  0  0  0  0  0  0  0
  141.3600   80.3450  221.7770 C   0  0  0  0  0  0  0  0  0  0  0  0
  139.5630   71.4360  222.9680 C   0  0  0  0  0  0  0  0  0  0  0  0
  139.1150   70.1360  222.8650 C   0  0  0  0  0  0  0  0  0  0  0  0
  139.2560   69.2560  223.9220 C   0  0  0  0  0  0  0  0  0  0  0  0
  139.8530   69.6830  225.1000 C   0  0  0  0  0  0  0  0  0  0  0  0
  140.0240   68.8570  226.1910 C   0  0  0  0  0  0  0  0  0  0  0  0
  140.6300   69.3640  227.3280 C   0  0  0  0  0  0  0  0  0  0  0  0
  140.8540   68.3250  228.7210 Cl  0  0  0  0  0  0  0  0  0  0  0  0
  141.0690   70.6840  227.3910 C   0  0  0  0  0  0  0  0  0  0  0  0
  140.8940   71.5040  226.2960 C   0  0  0  0  0  0  0  0  0  0  0  0
  140.2850   70.9900  225.1560 C   0  0  0  0  0  0  0  0  0  0  0  0
  140.1390   71.8300  224.1210 N   0  0  0  0  0  0  0  0  0  0  0  0
  139.5970   74.0690  223.1020 H   0  0  0  0  0  0  0  0  0  0  0  0
  139.6786   74.2880  220.1056 H   0  0  0  0  0  0  0  0  0  0  0  0
  138.2510   74.9971  220.9624 H   0  0  0  0  0  0  0  0  0  0  0  0
  137.8400   76.0843  222.5211 H   0  0  0  0  0  0  0  0  0  0  0  0
  138.7991   77.0670  223.7353 H   0  0  0  0  0  0  0  0  0  0  0  0
  136.5934   77.8771  221.9113 H   0  0  0  0  0  0  0  0  0  0  0  0
  136.9303   78.2672  223.6589 H   0  0  0  0  0  0  0  0  0  0  0  0
  137.1822   80.2073  222.1075 H   0  0  0  0  0  0  0  0  0  0  0  0
  138.6522   79.8060  223.0551 H   0  0  0  0  0  0  0  0  0  0  0  0
  138.1156   78.7955  220.2263 H   0  0  0  0  0  0  0  0  0  0  0  0
  139.0704   80.2588  220.5888 H   0  0  0  0  0  0  0  0  0  0  0  0
  140.5366   78.2036  220.3808 H   0  0  0  0  0  0  0  0  0  0  0  0
  140.9448   77.6653  223.7371 H   0  0  0  0  0  0  0  0  0  0  0  0
  142.5145   78.9019  225.1592 H   0  0  0  0  0  0  0  0  0  0  0  0
  143.3877   81.1286  224.4306 H   0  0  0  0  0  0  0  0  0  0  0  0
  142.6295   82.0262  222.2462 H   0  0  0  0  0  0  0  0  0  0  0  0
  141.0420   80.7732  220.8150 H   0  0  0  0  0  0  0  0  0  0  0  0
  138.6407   69.7957  221.9327 H   0  0  0  0  0  0  0  0  0  0  0  0
  138.8961   68.2206  223.8296 H   0  0  0  0  0  0  0  0  0  0  0  0
  139.6841   67.8113  226.1584 H   0  0  0  0  0  0  0  0  0  0  0  0
  141.5495   71.0680  228.3030 H   0  0  0  0  0  0  0  0  0  0  0  0
  141.2315   72.5506  226.3238 H   0  0  0  0  0  0  0  0  0  0  0  0
  1  2  2  0
  2  3  1  0
  3  4  1  0
  4  5  1  0
  5  6  2  0
  5  7  1  0
  7  8  1  0
  8  9  1  0
  9 10  1  0
 10 11  1  0
 11 12  1  0
 12 13  1  0
 13 14  2  0
 14 15  1  0
 15 16  2  0
 16 17  1  0
 17 18  2  0
  2 19  1  0
 19 20  2  0
 20 21  1  0
 21 22  2  0
 22 23  1  0
 23 24  2  0
 24 25  1  0
 24 26  1  0
 26 27  2  0
 27 28  1  0
 28 29  2  0
 12  7  1  0
 18 13  1  0
 29 19  1  0
 28 22  1  0
  3 30  1  0
  4 31  1  0
  4 32  1  0
  8 33  1  0
  8 34  1  0
  9 35  1  0
  9 36  1  0
 10 37  1  0
 10 38  1  0
 11 39  1  0
 11 40  1  0
 12 41  1  6
 14 42  1  0
 15 43  1  0
 16 44  1  0
 17 45  1  0
 18 46  1  0
 20 47  1  0
 21 48  1  0
 23 49  1  0
 26 50  1  0
 27 51  1  0
M  END
>  <smiles>  (28) 
O=C(NCC(=O)N1CCCC[C@H]1c1ccccc1)c1ccc2cc(Cl)ccc2n1

>  <score_type>  (28) 
oracle

>  <origin>  (28) 
autodockgpu

>  <m_score__min__energy>  (28) 
-9.1300000000000008

>  <m_primary>  (28) 
energy

>  <rmsd>  (28) 
2.898862926446505

>  <m_score__min__rmsd>  (28) 
2.898862926446505

>  <meeko>  (28) 
{"free_energy": -8.89, "intermolecular_energy": -10.38, "internal_energy": -1.61, "cluster_size": 29, "cluster_id": 1, "rank_in_cluster": 23}

>  <energy>  (28) 
-8.27

>  <cluster_rmsd>  (28) 
1.05

>  <cluster>  (28) 
1

$$$$

     RDKit          3D

 51 54  0  0  0  0  0  0  0  0999 V2000
  140.0090   72.1780  220.7340 O   0  0  0  0  0  0  0  0  0  0  0  0
  139.8730   72.5290  221.9410 C   0  0  0  0  0  0  0  0  0  0  0  0
  139.6570   73.8980  222.2530 N   0  0  0  0  0  0  0  0  0  0  0  0
  139.5870   74.9040  221.2360 C   0  0  0  0  0  0  0  0  0  0  0  0
  140.7100   75.8990  221.3720 C   0  0  0  0  0  0  0  0  0  0  0  0
  140.7270   76.5540  222.4390 O   0  0  0  0  0  0  0  0  0  0  0  0
  141.6720   76.0550  220.3310 N   0  0  0  0  0  0  0  0  0  0  0  0
  142.2020   77.3550  220.0650 C   0  0  0  0  0  0  0  0  0  0  0  0
  142.6460   77.5610  218.6490 C   0  0  0  0  0  0  0  0  0  0  0  0
  143.1620   76.2980  218.0070 C   0  0  0  0  0  0  0  0  0  0  0  0
  142.1290   75.2140  218.1470 C   0  0  0  0  0  0  0  0  0  0  0  0
  142.0380   74.8490  219.6050 C   0  0  1  0  0  0  0  0  0  0  0  0
  143.2820   74.2260  220.0580 C   0  0  0  0  0  0  0  0  0  0  0  0
  144.4330   74.9030  220.3990 C   0  0  0  0  0  0  0  0  0  0  0  0
  145.5850   74.2720  220.8300 C   0  0  0  0  0  0  0  0  0  0  0  0
  145.6240   72.8970  220.9370 C   0  0  0  0  0  0  0  0  0  0  0  0
  144.4840   72.2040  220.6020 C   0  0  0  0  0  0  0  0  0  0  0  0
  143.3200   72.8500  220.1660 C   0  0  0  0  0  0  0  0  0  0  0  0
  139.9340   71.5520  223.0340 C   0  0  0  0  0  0  0  0  0  0  0  0
  139.4970   70.2590  222.8400 C   0  0  0  0  0  0  0  0  0  0  0  0
  139.5520   69.3350  223.8670 C   0  0  0  0  0  0  0  0  0  0  0  0
  140.0510   69.7100  225.1060 C   0  0  0  0  0  0  0  0  0  0  0  0
  140.1330   68.8390  226.1710 C   0  0  0  0  0  0  0  0  0  0  0  0
  140.6440   69.2970  227.3740 C   0  0  0  0  0  0  0  0  0  0  0  0
  140.7550   68.1990  228.7360 Cl  0  0  0  0  0  0  0  0  0  0  0  0
  141.0750   70.6120  227.5290 C   0  0  0  0  0  0  0  0  0  0  0  0
  140.9890   71.4770  226.4590 C   0  0  0  0  0  0  0  0  0  0  0  0
  140.4750   71.0130  225.2520 C   0  0  0  0  0  0  0  0  0  0  0  0
  140.4140   71.8960  224.2450 N   0  0  0  0  0  0  0  0  0  0  0  0
  139.5470   74.1500  223.2770 H   0  0  0  0  0  0  0  0  0  0  0  0
  139.6532   74.4216  220.2496 H   0  0  0  0  0  0  0  0  0  0  0  0
  138.6328   75.4406  221.3435 H   0  0  0  0  0  0  0  0  0  0  0  0
  141.4237   78.0979  220.2937 H   0  0  0  0  0  0  0  0  0  0  0  0
  143.0966   77.4659  220.6953 H   0  0  0  0  0  0  0  0  0  0  0  0
  141.7909   77.9288  218.0629 H   0  0  0  0  0  0  0  0  0  0  0  0
  143.4734   78.2857  218.6643 H   0  0  0  0  0  0  0  0  0  0  0  0
  143.3601   76.4818  216.9407 H   0  0  0  0  0  0  0  0  0  0  0  0
  144.0939   75.9863  218.5015 H   0  0  0  0  0  0  0  0  0  0  0  0
  141.1540   75.5783  217.7911 H   0  0  0  0  0  0  0  0  0  0  0  0
  142.4111   74.3354  217.5483 H   0  0  0  0  0  0  0  0  0  0  0  0
  141.2638   74.0904  219.7924 H   0  0  0  0  0  0  0  0  0  0  0  0
  144.4351   76.0005  220.3245 H   0  0  0  0  0  0  0  0  0  0  0  0
  146.4729   74.8677  221.0883 H   0  0  0  0  0  0  0  0  0  0  0  0
  146.5310   72.3755  221.2768 H   0  0  0  0  0  0  0  0  0  0  0  0
  144.4865   71.1067  220.6790 H   0  0  0  0  0  0  0  0  0  0  0  0
  142.4302   72.2570  219.9079 H   0  0  0  0  0  0  0  0  0  0  0  0
  139.1007   69.9595  221.8586 H   0  0  0  0  0  0  0  0  0  0  0  0
  139.2012   68.3056  223.7022 H   0  0  0  0  0  0  0  0  0  0  0  0
  139.7978   67.7965  226.0671 H   0  0  0  0  0  0  0  0  0  0  0  0
  141.4788   70.9561  228.4926 H   0  0  0  0  0  0  0  0  0  0  0  0
  141.3224   72.5206  226.5581 H   0  0  0  0  0  0  0  0  0  0  0  0
  1  2  2  0
  2  3  1  0
  3  4  1  0
  4  5  1  0
  5  6  2  0
  5  7  1  0
  7  8  1  0
  8  9  1  0
  9 10  1  0
 10 11  1  0
 11 12  1  0
 12 13  1  0
 13 14  2  0
 14 15  1  0
 15 16  2  0
 16 17  1  0
 17 18  2  0
  2 19  1  0
 19 20  2  0
 20 21  1  0
 21 22  2  0
 22 23  1  0
 23 24  2  0
 24 25  1  0
 24 26  1  0
 26 27  2  0
 27 28  1  0
 28 29  2  0
 12  7  1  0
 18 13  1  0
 29 19  1  0
 28 22  1  0
  3 30  1  0
  4 31  1  0
  4 32  1  0
  8 33  1  0
  8 34  1  0
  9 35  1  0
  9 36  1  0
 10 37  1  0
 10 38  1  0
 11 39  1  0
 11 40  1  0
 12 41  1  6
 14 42  1  0
 15 43  1  0
 16 44  1  0
 17 45  1  0
 18 46  1  0
 20 47  1  0
 21 48  1  0
 23 49  1  0
 26 50  1  0
 27 51  1  0
M  END
>  <smiles>  (29) 
O=C(NCC(=O)N1CCCC[C@H]1c1ccccc1)c1ccc2cc(Cl)ccc2n1

>  <score_type>  (29) 
oracle

>  <origin>  (29) 
autodockgpu

>  <m_score__min__energy>  (29) 
-9.1300000000000008

>  <m_primary>  (29) 
energy

>  <rmsd>  (29) 
2.2497117424973507

>  <m_score__min__rmsd>  (29) 
2.2497117424973507

>  <meeko>  (29) 
{"free_energy": -8.87, "intermolecular_energy": -10.36, "internal_energy": -1.95, "cluster_size": 16, "cluster_id": 2, "rank_in_cluster": 2}

>  <energy>  (29) 
-7.62

>  <cluster_rmsd>  (29) 
1.1

>  <cluster>  (29) 
1

$$$$

     RDKit          3D

 51 54  0  0  0  0  0  0  0  0999 V2000
  140.2250   72.5840  220.6530 O   0  0  0  0  0  0  0  0  0  0  0  0
  139.9770   72.9150  221.8480 C   0  0  0  0  0  0  0  0  0  0  0  0
  139.6730   74.2690  222.1520 N   0  0  0  0  0  0  0  0  0  0  0  0
  139.6380   75.2830  221.1400 C   0  0  0  0  0  0  0  0  0  0  0  0
  139.4620   76.6520  221.7430 C   0  0  0  0  0  0  0  0  0  0  0  0
  138.9010   76.6830  222.8620 O   0  0  0  0  0  0  0  0  0  0  0  0
  139.9170   77.8140  221.0530 N   0  0  0  0  0  0  0  0  0  0  0  0
  138.9830   78.5750  220.2830 C   0  0  0  0  0  0  0  0  0  0  0  0
  139.5940   79.3170  219.1340 C   0  0  0  0  0  0  0  0  0  0  0  0
  141.0100   79.7550  219.4050 C   0  0  0  0  0  0  0  0  0  0  0  0
  141.8240   78.5660  219.8330 C   0  0  0  0  0  0  0  0  0  0  0  0
  141.3300   78.1330  221.1880 C   0  0  1  0  0  0  0  0  0  0  0  0
  141.6240   79.1540  222.1930 C   0  0  0  0  0  0  0  0  0  0  0  0
  142.8860   79.5300  222.6000 C   0  0  0  0  0  0  0  0  0  0  0  0
  143.1170   80.5070  223.5500 C   0  0  0  0  0  0  0  0  0  0  0  0
  142.0590   81.1620  224.1440 C   0  0  0  0  0  0  0  0  0  0  0  0
  140.7910   80.8010  223.7500 C   0  0  0  0  0  0  0  0  0  0  0  0
  140.5640   79.8100  222.7870 C   0  0  0  0  0  0  0  0  0  0  0  0
  139.9950   71.9300  222.9350 C   0  0  0  0  0  0  0  0  0  0  0  0
  139.5170   70.6540  222.7290 C   0  0  0  0  0  0  0  0  0  0  0  0
  139.5320   69.7220  223.7500 C   0  0  0  0  0  0  0  0  0  0  0  0
  140.0320   70.0730  224.9970 C   0  0  0  0  0  0  0  0  0  0  0  0
  140.0750   69.1930  226.0570 C   0  0  0  0  0  0  0  0  0  0  0  0
  140.5900   69.6260  227.2670 C   0  0  0  0  0  0  0  0  0  0  0  0
  140.6510   68.5160  228.6230 Cl  0  0  0  0  0  0  0  0  0  0  0  0
  141.0630   70.9250  227.4340 C   0  0  0  0  0  0  0  0  0  0  0  0
  141.0150   71.7990  226.3690 C   0  0  0  0  0  0  0  0  0  0  0  0
  140.4970   71.3600  225.1550 C   0  0  0  0  0  0  0  0  0  0  0  0
  140.4750   72.2500  224.1530 N   0  0  0  0  0  0  0  0  0  0  0  0
  139.4710   74.5050  223.1660 H   0  0  0  0  0  0  0  0  0  0  0  0
  140.5818   75.2587  220.5756 H   0  0  0  0  0  0  0  0  0  0  0  0
  138.7831   75.0829  220.4774 H   0  0  0  0  0  0  0  0  0  0  0  0
  138.2232   77.8868  219.8842 H   0  0  0  0  0  0  0  0  0  0  0  0
  138.5595   79.3326  220.9589 H   0  0  0  0  0  0  0  0  0  0  0  0
  139.5926   78.6602  218.2516 H   0  0  0  0  0  0  0  0  0  0  0  0
  138.9936   80.2241  218.9703 H   0  0  0  0  0  0  0  0  0  0  0  0
  141.4426   80.1866  218.4904 H   0  0  0  0  0  0  0  0  0  0  0  0
  141.0154   80.5121  220.2030 H   0  0  0  0  0  0  0  0  0  0  0  0
  141.6985   77.7468  219.1097 H   0  0  0  0  0  0  0  0  0  0  0  0
  142.8914   78.8278  219.8790 H   0  0  0  0  0  0  0  0  0  0  0  0
  141.8496   77.2324  221.5470 H   0  0  0  0  0  0  0  0  0  0  0  0
  143.7528   79.0274  222.1460 H   0  0  0  0  0  0  0  0  0  0  0  0
  144.1486   80.7629  223.8332 H   0  0  0  0  0  0  0  0  0  0  0  0
  142.2221   81.9419  224.9024 H   0  0  0  0  0  0  0  0  0  0  0  0
  139.9276   81.3073  224.2063 H   0  0  0  0  0  0  0  0  0  0  0  0
  139.5334   79.5522  222.5016 H   0  0  0  0  0  0  0  0  0  0  0  0
  139.1195   70.3742  221.7422 H   0  0  0  0  0  0  0  0  0  0  0  0
  139.1491   68.7057  223.5751 H   0  0  0  0  0  0  0  0  0  0  0  0
  139.7060   68.1630  225.9434 H   0  0  0  0  0  0  0  0  0  0  0  0
  141.4697   71.2495  228.4032 H   0  0  0  0  0  0  0  0  0  0  0  0
  141.3816   72.8304  226.4778 H   0  0  0  0  0  0  0  0  0  0  0  0
  1  2  2  0
  2  3  1  0
  3  4  1  0
  4  5  1  0
  5  6  2  0
  5  7  1  0
  7  8  1  0
  8  9  1  0
  9 10  1  0
 10 11  1  0
 11 12  1  0
 12 13  1  0
 13 14  2  0
 14 15  1  0
 15 16  2  0
 16 17  1  0
 17 18  2  0
  2 19  1  0
 19 20  2  0
 20 21  1  0
 21 22  2  0
 22 23  1  0
 23 24  2  0
 24 25  1  0
 24 26  1  0
 26 27  2  0
 27 28  1  0
 28 29  2  0
 12  7  1  0
 18 13  1  0
 29 19  1  0
 28 22  1  0
  3 30  1  0
  4 31  1  0
  4 32  1  0
  8 33  1  0
  8 34  1  0
  9 35  1  0
  9 36  1  0
 10 37  1  0
 10 38  1  0
 11 39  1  0
 11 40  1  0
 12 41  1  1
 14 42  1  0
 15 43  1  0
 16 44  1  0
 17 45  1  0
 18 46  1  0
 20 47  1  0
 21 48  1  0
 23 49  1  0
 26 50  1  0
 27 51  1  0
M  END
>  <smiles>  (30) 
O=C(NCC(=O)N1CCCC[C@H]1c1ccccc1)c1ccc2cc(Cl)ccc2n1

>  <score_type>  (30) 
oracle

>  <origin>  (30) 
autodockgpu

>  <m_score__min__energy>  (30) 
-9.1300000000000008

>  <m_primary>  (30) 
energy

>  <rmsd>  (30) 
2.3729736876699166

>  <m_score__min__rmsd>  (30) 
2.3729736876699166

>  <meeko>  (30) 
{"free_energy": -8.99, "intermolecular_energy": -10.48, "internal_energy": -1.95, "cluster_size": 29, "cluster_id": 1, "rank_in_cluster": 12}

>  <energy>  (30) 
-8.88

>  <cluster_rmsd>  (30) 
0.0

>  <cluster>  (30) 
2

$$$$

     RDKit          3D

 51 54  0  0  0  0  0  0  0  0999 V2000
  139.0690   71.9780  220.8390 O   0  0  0  0  0  0  0  0  0  0  0  0
  139.2970   72.3630  222.0210 C   0  0  0  0  0  0  0  0  0  0  0  0
  139.3490   73.7540  222.3090 N   0  0  0  0  0  0  0  0  0  0  0  0
  139.1500   74.7440  221.2920 C   0  0  0  0  0  0  0  0  0  0  0  0
  140.0250   75.9490  221.5250 C   0  0  0  0  0  0  0  0  0  0  0  0
  141.2570   75.7520  221.4190 O   0  0  0  0  0  0  0  0  0  0  0  0
  139.4490   77.2130  221.8440 N   0  0  0  0  0  0  0  0  0  0  0  0
  138.3050   77.2600  222.6990 C   0  0  0  0  0  0  0  0  0  0  0  0
  137.4120   78.4410  222.4680 C   0  0  0  0  0  0  0  0  0  0  0  0
  138.1640   79.6630  222.0070 C   0  0  0  0  0  0  0  0  0  0  0  0
  138.9920   79.3100  220.8030 C   0  0  0  0  0  0  0  0  0  0  0  0
  140.0880   78.3800  221.2530 C   0  0  1  0  0  0  0  0  0  0  0  0
  141.0180   79.0740  222.1430 C   0  0  0  0  0  0  0  0  0  0  0  0
  141.3080   78.7030  223.4390 C   0  0  0  0  0  0  0  0  0  0  0  0
  142.2020   79.3860  224.2420 C   0  0  0  0  0  0  0  0  0  0  0  0
  142.8560   80.5000  223.7600 C   0  0  0  0  0  0  0  0  0  0  0  0
  142.5810   80.8860  222.4680 C   0  0  0  0  0  0  0  0  0  0  0  0
  141.6740   80.1890  221.6600 C   0  0  0  0  0  0  0  0  0  0  0  0
  139.5110   71.4050  223.1110 C   0  0  0  0  0  0  0  0  0  0  0  0
  139.1470   70.0840  222.9600 C   0  0  0  0  0  0  0  0  0  0  0  0
  139.3460   69.1760  223.9850 C   0  0  0  0  0  0  0  0  0  0  0  0
  139.9170   69.5980  225.1780 C   0  0  0  0  0  0  0  0  0  0  0  0
  140.1430   68.7450  226.2370 C   0  0  0  0  0  0  0  0  0  0  0  0
  140.7180   69.2490  227.3920 C   0  0  0  0  0  0  0  0  0  0  0  0
  141.0110   68.1760  228.7470 Cl  0  0  0  0  0  0  0  0  0  0  0  0
  141.0700   70.5920  227.5040 C   0  0  0  0  0  0  0  0  0  0  0  0
  140.8410   71.4370  226.4400 C   0  0  0  0  0  0  0  0  0  0  0  0
  140.2640   70.9270  225.2820 C   0  0  0  0  0  0  0  0  0  0  0  0
  140.0630   71.7930  224.2770 N   0  0  0  0  0  0  0  0  0  0  0  0
  139.5430   74.0340  223.3120 H   0  0  0  0  0  0  0  0  0  0  0  0
  139.3950   74.3067  220.3129 H   0  0  0  0  0  0  0  0  0  0  0  0
  138.0987   75.0664  221.3210 H   0  0  0  0  0  0  0  0  0  0  0  0
  137.7157   76.3454  222.5370 H   0  0  0  0  0  0  0  0  0  0  0  0
  138.6836   77.3472  223.7281 H   0  0  0  0  0  0  0  0  0  0  0  0
  136.6699   78.1753  221.7008 H   0  0  0  0  0  0  0  0  0  0  0  0
  136.9366   78.6886  223.4286 H   0  0  0  0  0  0  0  0  0  0  0  0
  137.4495   80.4563  221.7422 H   0  0  0  0  0  0  0  0  0  0  0  0
  138.8202   80.0192  222.8148 H   0  0  0  0  0  0  0  0  0  0  0  0
  138.3638   78.8112  220.0503 H   0  0  0  0  0  0  0  0  0  0  0  0
  139.4199   80.2175  220.3521 H   0  0  0  0  0  0  0  0  0  0  0  0
  140.7109   78.0391  220.4129 H   0  0  0  0  0  0  0  0  0  0  0  0
  140.8024   77.8190  223.8548 H   0  0  0  0  0  0  0  0  0  0  0  0
  142.3922   79.0398  225.2686 H   0  0  0  0  0  0  0  0  0  0  0  0
  143.5696   81.0583  224.3837 H   0  0  0  0  0  0  0  0  0  0  0  0
  143.0899   81.7703  222.0568 H   0  0  0  0  0  0  0  0  0  0  0  0
  141.4827   80.5324  220.6326 H   0  0  0  0  0  0  0  0  0  0  0  0
  138.6939   69.7484  222.0155 H   0  0  0  0  0  0  0  0  0  0  0  0
  139.0528   68.1238  223.8551 H   0  0  0  0  0  0  0  0  0  0  0  0
  139.8712   67.6815  226.1660 H   0  0  0  0  0  0  0  0  0  0  0  0
  141.5250   70.9732  228.4301 H   0  0  0  0  0  0  0  0  0  0  0  0
  141.1111   72.5013  226.5057 H   0  0  0  0  0  0  0  0  0  0  0  0
  1  2  2  0
  2  3  1  0
  3  4  1  0
  4  5  1  0
  5  6  2  0
  5  7  1  0
  7  8  1  0
  8  9  1  0
  9 10  1  0
 10 11  1  0
 11 12  1  0
 12 13  1  0
 13 14  2  0
 14 15  1  0
 15 16  2  0
 16 17  1  0
 17 18  2  0
  2 19  1  0
 19 20  2  0
 20 21  1  0
 21 22  2  0
 22 23  1  0
 23 24  2  0
 24 25  1  0
 24 26  1  0
 26 27  2  0
 27 28  1  0
 28 29  2  0
 12  7  1  0
 18 13  1  0
 29 19  1  0
 28 22  1  0
  3 30  1  0
  4 31  1  0
  4 32  1  0
  8 33  1  0
  8 34  1  0
  9 35  1  0
  9 36  1  0
 10 37  1  0
 10 38  1  0
 11 39  1  0
 11 40  1  0
 12 41  1  6
 14 42  1  0
 15 43  1  0
 16 44  1  0
 17 45  1  0
 18 46  1  0
 20 47  1  0
 21 48  1  0
 23 49  1  0
 26 50  1  0
 27 51  1  0
M  END
>  <smiles>  (31) 
O=C(NCC(=O)N1CCCC[C@H]1c1ccccc1)c1ccc2cc(Cl)ccc2n1

>  <score_type>  (31) 
oracle

>  <origin>  (31) 
autodockgpu

>  <m_score__min__energy>  (31) 
-9.1300000000000008

>  <m_primary>  (31) 
energy

>  <rmsd>  (31) 
2.843590785191224

>  <m_score__min__rmsd>  (31) 
2.843590785191224

>  <meeko>  (31) 
{"free_energy": -8.91, "intermolecular_energy": -10.4, "internal_energy": -1.62, "cluster_size": 29, "cluster_id": 1, "rank_in_cluster": 19}

>  <energy>  (31) 
-8.87

>  <cluster_rmsd>  (31) 
0.08

>  <cluster>  (31) 
2

$$$$

     RDKit          3D

 51 54  0  0  0  0  0  0  0  0999 V2000
  140.6800   72.6610  221.0920 O   0  0  0  0  0  0  0  0  0  0  0  0
  139.9210   72.7280  222.1010 C   0  0  0  0  0  0  0  0  0  0  0  0
  139.0070   73.8080  222.2210 N   0  0  0  0  0  0  0  0  0  0  0  0
  138.9140   74.8350  221.2260 C   0  0  0  0  0  0  0  0  0  0  0  0
  139.8370   75.9840  221.5390 C   0  0  0  0  0  0  0  0  0  0  0  0
  141.0610   75.7190  221.5080 O   0  0  0  0  0  0  0  0  0  0  0  0
  139.3130   77.2730  221.8480 N   0  0  0  0  0  0  0  0  0  0  0  0
  138.1760   77.3740  222.7070 C   0  0  0  0  0  0  0  0  0  0  0  0
  137.3290   78.5860  222.4670 C   0  0  0  0  0  0  0  0  0  0  0  0
  138.1260   79.7740  221.9910 C   0  0  0  0  0  0  0  0  0  0  0  0
  138.9350   79.3760  220.7880 C   0  0  0  0  0  0  0  0  0  0  0  0
  139.9950   78.4080  221.2440 C   0  0  1  0  0  0  0  0  0  0  0  0
  140.9560   79.0730  222.1230 C   0  0  0  0  0  0  0  0  0  0  0  0
  141.2520   78.6900  223.4140 C   0  0  0  0  0  0  0  0  0  0  0  0
  142.1740   79.3460  224.2070 C   0  0  0  0  0  0  0  0  0  0  0  0
  142.8530   80.4440  223.7200 C   0  0  0  0  0  0  0  0  0  0  0  0
  142.5720   80.8410  222.4330 C   0  0  0  0  0  0  0  0  0  0  0  0
  141.6360   80.1720  221.6340 C   0  0  0  0  0  0  0  0  0  0  0  0
  139.9620   71.7110  223.1580 C   0  0  0  0  0  0  0  0  0  0  0  0
  139.5040   70.4340  222.9160 C   0  0  0  0  0  0  0  0  0  0  0  0
  139.5400   69.4720  223.9090 C   0  0  0  0  0  0  0  0  0  0  0  0
  140.0420   69.7940  225.1630 C   0  0  0  0  0  0  0  0  0  0  0  0
  140.1060   68.8840  226.1960 C   0  0  0  0  0  0  0  0  0  0  0  0
  140.6220   69.2900  227.4160 C   0  0  0  0  0  0  0  0  0  0  0  0
  140.7100   68.1410  228.7380 Cl  0  0  0  0  0  0  0  0  0  0  0  0
  141.0750   70.5910  227.6190 C   0  0  0  0  0  0  0  0  0  0  0  0
  141.0060   71.4950  226.5800 C   0  0  0  0  0  0  0  0  0  0  0  0
  140.4880   71.0840  225.3570 C   0  0  0  0  0  0  0  0  0  0  0  0
  140.4450   72.0030  224.3820 N   0  0  0  0  0  0  0  0  0  0  0  0
  138.3890   73.8260  223.0820 H   0  0  0  0  0  0  0  0  0  0  0  0
  139.1867   74.4122  220.2478 H   0  0  0  0  0  0  0  0  0  0  0  0
  137.8810   75.2128  221.2117 H   0  0  0  0  0  0  0  0  0  0  0  0
  137.5507   76.4814  222.5575 H   0  0  0  0  0  0  0  0  0  0  0  0
  138.5626   77.4576  223.7334 H   0  0  0  0  0  0  0  0  0  0  0  0
  136.5744   78.3415  221.7049 H   0  0  0  0  0  0  0  0  0  0  0  0
  136.8674   78.8614  223.4267 H   0  0  0  0  0  0  0  0  0  0  0  0
  137.4417   80.5916  221.7202 H   0  0  0  0  0  0  0  0  0  0  0  0
  138.7982   80.1136  222.7928 H   0  0  0  0  0  0  0  0  0  0  0  0
  138.2848   78.8947  220.0426 H   0  0  0  0  0  0  0  0  0  0  0  0
  139.3968   80.2612  220.3263 H   0  0  0  0  0  0  0  0  0  0  0  0
  140.6008   78.0346  220.4052 H   0  0  0  0  0  0  0  0  0  0  0  0
  140.7280   77.8186  223.8337 H   0  0  0  0  0  0  0  0  0  0  0  0
  142.3674   78.9916  225.2302 H   0  0  0  0  0  0  0  0  0  0  0  0
  143.5896   80.9805  224.3361 H   0  0  0  0  0  0  0  0  0  0  0  0
  143.0997   81.7123  222.0179 H   0  0  0  0  0  0  0  0  0  0  0  0
  141.4410   80.5239  220.6102 H   0  0  0  0  0  0  0  0  0  0  0  0
  139.1058   70.1773  221.9232 H   0  0  0  0  0  0  0  0  0  0  0  0
  139.1722   68.4553  223.7061 H   0  0  0  0  0  0  0  0  0  0  0  0
  139.7531   67.8519  226.0542 H   0  0  0  0  0  0  0  0  0  0  0  0
  141.4824   70.8935  228.5950 H   0  0  0  0  0  0  0  0  0  0  0  0
  141.3565   72.5286  226.7171 H   0  0  0  0  0  0  0  0  0  0  0  0
  1  2  2  0
  2  3  1  0
  3  4  1  0
  4  5  1  0
  5  6  2  0
  5  7  1  0
  7  8  1  0
  8  9  1  0
  9 10  1  0
 10 11  1  0
 11 12  1  0
 12 13  1  0
 13 14  2  0
 14 15  1  0
 15 16  2  0
 16 17  1  0
 17 18  2  0
  2 19  1  0
 19 20  2  0
 20 21  1  0
 21 22  2  0
 22 23  1  0
 23 24  2  0
 24 25  1  0
 24 26  1  0
 26 27  2  0
 27 28  1  0
 28 29  2  0
 12  7  1  0
 18 13  1  0
 29 19  1  0
 28 22  1  0
  3 30  1  0
  4 31  1  0
  4 32  1  0
  8 33  1  0
  8 34  1  0
  9 35  1  0
  9 36  1  0
 10 37  1  0
 10 38  1  0
 11 39  1  0
 11 40  1  0
 12 41  1  6
 14 42  1  0
 15 43  1  0
 16 44  1  0
 17 45  1  0
 18 46  1  0
 20 47  1  0
 21 48  1  0
 23 49  1  0
 26 50  1  0
 27 51  1  0
M  END
>  <smiles>  (32) 
O=C(NCC(=O)N1CCCC[C@H]1c1ccccc1)c1ccc2cc(Cl)ccc2n1

>  <score_type>  (32) 
oracle

>  <origin>  (32) 
autodockgpu

>  <m_score__min__energy>  (32) 
-9.1300000000000008

>  <m_primary>  (32) 
energy

>  <rmsd>  (32) 
2.9321309744750472

>  <m_score__min__rmsd>  (32) 
2.9321309744750472

>  <meeko>  (32) 
{"free_energy": -9.11, "intermolecular_energy": -10.6, "internal_energy": -1.38, "cluster_size": 29, "cluster_id": 1, "rank_in_cluster": 3}

>  <energy>  (32) 
-8.86

>  <cluster_rmsd>  (32) 
0.28

>  <cluster>  (32) 
2

$$$$

     RDKit          3D

 51 54  0  0  0  0  0  0  0  0999 V2000
  140.7820   72.6790  220.8470 O   0  0  0  0  0  0  0  0  0  0  0  0
  140.2130   72.9450  221.9450 C   0  0  0  0  0  0  0  0  0  0  0  0
  139.6240   74.2230  222.1390 N   0  0  0  0  0  0  0  0  0  0  0  0
  139.6530   75.2320  221.1210 C   0  0  0  0  0  0  0  0  0  0  0  0
  139.5110   76.6100  221.7130 C   0  0  0  0  0  0  0  0  0  0  0  0
  138.9720   76.6610  222.8430 O   0  0  0  0  0  0  0  0  0  0  0  0
  139.9720   77.7570  221.0030 N   0  0  0  0  0  0  0  0  0  0  0  0
  139.0530   78.4790  220.1790 C   0  0  0  0  0  0  0  0  0  0  0  0
  139.6910   79.1950  219.0280 C   0  0  0  0  0  0  0  0  0  0  0  0
  141.0910   79.6640  219.3320 C   0  0  0  0  0  0  0  0  0  0  0  0
  141.9070   78.5010  219.8240 C   0  0  0  0  0  0  0  0  0  0  0  0
  141.3740   78.1020  221.1750 C   0  0  1  0  0  0  0  0  0  0  0  0
  141.6190   79.1590  222.1570 C   0  0  0  0  0  0  0  0  0  0  0  0
  142.8540   79.5090  222.6590 C   0  0  0  0  0  0  0  0  0  0  0  0
  143.0400   80.5210  223.5810 C   0  0  0  0  0  0  0  0  0  0  0  0
  141.9590   81.2390  224.0490 C   0  0  0  0  0  0  0  0  0  0  0  0
  140.7180   80.9050  223.5600 C   0  0  0  0  0  0  0  0  0  0  0  0
  140.5370   79.8790  222.6250 C   0  0  0  0  0  0  0  0  0  0  0  0
  140.1460   71.9600  223.0300 C   0  0  0  0  0  0  0  0  0  0  0  0
  139.5930   70.7170  222.8110 C   0  0  0  0  0  0  0  0  0  0  0  0
  139.5280   69.7850  223.8310 C   0  0  0  0  0  0  0  0  0  0  0  0
  140.0230   70.1030  225.0890 C   0  0  0  0  0  0  0  0  0  0  0  0
  139.9880   69.2220  226.1480 C   0  0  0  0  0  0  0  0  0  0  0  0
  140.5040   69.6210  227.3700 C   0  0  0  0  0  0  0  0  0  0  0  0
  140.4670   68.5100  228.7250 Cl  0  0  0  0  0  0  0  0  0  0  0  0
  141.0540   70.8880  227.5490 C   0  0  0  0  0  0  0  0  0  0  0  0
  141.0840   71.7640  226.4840 C   0  0  0  0  0  0  0  0  0  0  0  0
  140.5650   71.3590  225.2590 C   0  0  0  0  0  0  0  0  0  0  0  0
  140.6200   72.2490  224.2580 N   0  0  0  0  0  0  0  0  0  0  0  0
  139.1580   74.4050  223.0730 H   0  0  0  0  0  0  0  0  0  0  0  0
  140.6100   75.1702  220.5822 H   0  0  0  0  0  0  0  0  0  0  0  0
  138.8095   75.0593  220.4364 H   0  0  0  0  0  0  0  0  0  0  0  0
  138.3173   77.7668  219.7770 H   0  0  0  0  0  0  0  0  0  0  0  0
  138.5959   79.2502  220.8164 H   0  0  0  0  0  0  0  0  0  0  0  0
  139.7291   78.5114  218.1670 H   0  0  0  0  0  0  0  0  0  0  0  0
  139.0829   80.0868  218.8161 H   0  0  0  0  0  0  0  0  0  0  0  0
  141.5479   80.0738  218.4192 H   0  0  0  0  0  0  0  0  0  0  0  0
  141.0588   80.4458  220.1052 H   0  0  0  0  0  0  0  0  0  0  0  0
  141.8176   77.6582  219.1229 H   0  0  0  0  0  0  0  0  0  0  0  0
  142.9683   78.7806  219.8974 H   0  0  0  0  0  0  0  0  0  0  0  0
  141.8942   77.2212  221.5793 H   0  0  0  0  0  0  0  0  0  0  0  0
  143.7365   78.9543  222.3076 H   0  0  0  0  0  0  0  0  0  0  0  0
  144.0522   80.7547  223.9427 H   0  0  0  0  0  0  0  0  0  0  0  0
  142.0849   82.0471  224.7846 H   0  0  0  0  0  0  0  0  0  0  0  0
  139.8386   81.4623  223.9152 H   0  0  0  0  0  0  0  0  0  0  0  0
  139.5260   79.6445  222.2604 H   0  0  0  0  0  0  0  0  0  0  0  0
  139.1995   70.4635  221.8156 H   0  0  0  0  0  0  0  0  0  0  0  0
  139.0856   68.7950  223.6463 H   0  0  0  0  0  0  0  0  0  0  0  0
  139.5570   68.2175  226.0249 H   0  0  0  0  0  0  0  0  0  0  0  0
  141.4593   71.1862  228.5272 H   0  0  0  0  0  0  0  0  0  0  0  0
  141.5129   72.7700  226.6021 H   0  0  0  0  0  0  0  0  0  0  0  0
  1  2  2  0
  2  3  1  0
  3  4  1  0
  4  5  1  0
  5  6  2  0
  5  7  1  0
  7  8  1  0
  8  9  1  0
  9 10  1  0
 10 11  1  0
 11 12  1  0
 12 13  1  0
 13 14  2  0
 14 15  1  0
 15 16  2  0
 16 17  1  0
 17 18  2  0
  2 19  1  0
 19 20  2  0
 20 21  1  0
 21 22  2  0
 22 23  1  0
 23 24  2  0
 24 25  1  0
 24 26  1  0
 26 27  2  0
 27 28  1  0
 28 29  2  0
 12  7  1  0
 18 13  1  0
 29 19  1  0
 28 22  1  0
  3 30  1  0
  4 31  1  0
  4 32  1  0
  8 33  1  0
  8 34  1  0
  9 35  1  0
  9 36  1  0
 10 37  1  0
 10 38  1  0
 11 39  1  0
 11 40  1  0
 12 41  1  1
 14 42  1  0
 15 43  1  0
 16 44  1  0
 17 45  1  0
 18 46  1  0
 20 47  1  0
 21 48  1  0
 23 49  1  0
 26 50  1  0
 27 51  1  0
M  END
>  <smiles>  (33) 
O=C(NCC(=O)N1CCCC[C@H]1c1ccccc1)c1ccc2cc(Cl)ccc2n1

>  <score_type>  (33) 
oracle

>  <origin>  (33) 
autodockgpu

>  <m_score__min__energy>  (33) 
-9.1300000000000008

>  <m_primary>  (33) 
energy

>  <rmsd>  (33) 
2.3396770013430426

>  <m_score__min__rmsd>  (33) 
2.3396770013430426

>  <meeko>  (33) 
{"free_energy": -9.08, "intermolecular_energy": -10.58, "internal_energy": -1.84, "cluster_size": 29, "cluster_id": 1, "rank_in_cluster": 5}

>  <energy>  (33) 
-8.86

>  <cluster_rmsd>  (33) 
0.09

>  <cluster>  (33) 
2

$$$$

     RDKit          3D

 51 54  0  0  0  0  0  0  0  0999 V2000
  138.6110   71.6830  221.1550 O   0  0  0  0  0  0  0  0  0  0  0  0
  139.1020   72.0880  222.2470 C   0  0  0  0  0  0  0  0  0  0  0  0
  139.4290   73.4610  222.4030 N   0  0  0  0  0  0  0  0  0  0  0  0
  139.2190   74.4130  221.3530 C   0  0  0  0  0  0  0  0  0  0  0  0
  140.4400   75.2680  221.1380 C   0  0  0  0  0  0  0  0  0  0  0  0
  141.5210   74.7790  221.5390 O   0  0  0  0  0  0  0  0  0  0  0  0
  140.3310   76.5460  220.5150 N   0  0  0  0  0  0  0  0  0  0  0  0
  139.1430   76.8670  219.7890 C   0  0  0  0  0  0  0  0  0  0  0  0
  139.3460   77.8590  218.6850 C   0  0  0  0  0  0  0  0  0  0  0  0
  140.4390   78.8530  218.9830 C   0  0  0  0  0  0  0  0  0  0  0  0
  141.6970   78.1130  219.3450 C   0  0  0  0  0  0  0  0  0  0  0  0
  141.4700   77.4390  220.6720 C   0  0  1  0  0  0  0  0  0  0  0  0
  141.3160   78.4330  221.7350 C   0  0  0  0  0  0  0  0  0  0  0  0
  142.1810   79.4770  221.9790 C   0  0  0  0  0  0  0  0  0  0  0  0
  141.9920   80.3980  222.9910 C   0  0  0  0  0  0  0  0  0  0  0  0
  140.8940   80.3020  223.8210 C   0  0  0  0  0  0  0  0  0  0  0  0
  140.0180   79.2660  223.5930 C   0  0  0  0  0  0  0  0  0  0  0  0
  140.2160   78.3360  222.5650 C   0  0  0  0  0  0  0  0  0  0  0  0
  139.3450   71.1680  223.3650 C   0  0  0  0  0  0  0  0  0  0  0  0
  138.9690   69.8450  223.2750 C   0  0  0  0  0  0  0  0  0  0  0  0
  139.1960   68.9750  224.3250 C   0  0  0  0  0  0  0  0  0  0  0  0
  139.8070   69.4360  225.4830 C   0  0  0  0  0  0  0  0  0  0  0  0
  140.0610   68.6220  226.5660 C   0  0  0  0  0  0  0  0  0  0  0  0
  140.6750   69.1650  227.6830 C   0  0  0  0  0  0  0  0  0  0  0  0
  141.0050   68.1410  229.0670 Cl  0  0  0  0  0  0  0  0  0  0  0  0
  141.0390   70.5080  227.7330 C   0  0  0  0  0  0  0  0  0  0  0  0
  140.7810   71.3150  226.6460 C   0  0  0  0  0  0  0  0  0  0  0  0
  140.1640   70.7660  225.5260 C   0  0  0  0  0  0  0  0  0  0  0  0
  139.9360   71.5960  224.4970 N   0  0  0  0  0  0  0  0  0  0  0  0
  139.8390   73.7590  223.3350 H   0  0  0  0  0  0  0  0  0  0  0  0
  138.9899   73.8746  220.4215 H   0  0  0  0  0  0  0  0  0  0  0  0
  138.3826   75.0675  221.6396 H   0  0  0  0  0  0  0  0  0  0  0  0
  138.7457   75.9397  219.3505 H   0  0  0  0  0  0  0  0  0  0  0  0
  138.4502   77.3307  220.5066 H   0  0  0  0  0  0  0  0  0  0  0  0
  139.6087   77.3133  217.7668 H   0  0  0  0  0  0  0  0  0  0  0  0
  138.4086   78.4233  218.5719 H   0  0  0  0  0  0  0  0  0  0  0  0
  140.6215   79.4760  218.0950 H   0  0  0  0  0  0  0  0  0  0  0  0
  140.1345   79.4957  219.8222 H   0  0  0  0  0  0  0  0  0  0  0  0
  141.9218   77.3591  218.5762 H   0  0  0  0  0  0  0  0  0  0  0  0
  142.5468   78.8086  219.4082 H   0  0  0  0  0  0  0  0  0  0  0  0
  142.3361   76.8354  220.9810 H   0  0  0  0  0  0  0  0  0  0  0  0
  143.0669   79.5825  221.3355 H   0  0  0  0  0  0  0  0  0  0  0  0
  142.7192   81.2106  223.1356 H   0  0  0  0  0  0  0  0  0  0  0  0
  140.7257   81.0251  224.6327 H   0  0  0  0  0  0  0  0  0  0  0  0
  139.1335   79.1649  224.2391 H   0  0  0  0  0  0  0  0  0  0  0  0
  139.4905   77.5225  222.4173 H   0  0  0  0  0  0  0  0  0  0  0  0
  138.4836   69.4779  222.3587 H   0  0  0  0  0  0  0  0  0  0  0  0
  138.8934   67.9206  224.2431 H   0  0  0  0  0  0  0  0  0  0  0  0
  139.7808   67.5585  226.5438 H   0  0  0  0  0  0  0  0  0  0  0  0
  141.5265   70.9198  228.6290 H   0  0  0  0  0  0  0  0  0  0  0  0
  141.0592   72.3791  226.6635 H   0  0  0  0  0  0  0  0  0  0  0  0
  1  2  2  0
  2  3  1  0
  3  4  1  0
  4  5  1  0
  5  6  2  0
  5  7  1  0
  7  8  1  0
  8  9  1  0
  9 10  1  0
 10 11  1  0
 11 12  1  0
 12 13  1  0
 13 14  2  0
 14 15  1  0
 15 16  2  0
 16 17  1  0
 17 18  2  0
  2 19  1  0
 19 20  2  0
 20 21  1  0
 21 22  2  0
 22 23  1  0
 23 24  2  0
 24 25  1  0
 24 26  1  0
 26 27  2  0
 27 28  1  0
 28 29  2  0
 12  7  1  0
 18 13  1  0
 29 19  1  0
 28 22  1  0
  3 30  1  0
  4 31  1  0
  4 32  1  0
  8 33  1  0
  8 34  1  0
  9 35  1  0
  9 36  1  0
 10 37  1  0
 10 38  1  0
 11 39  1  0
 11 40  1  0
 12 41  1  1
 14 42  1  0
 15 43  1  0
 16 44  1  0
 17 45  1  0
 18 46  1  0
 20 47  1  0
 21 48  1  0
 23 49  1  0
 26 50  1  0
 27 51  1  0
M  END
>  <smiles>  (34) 
O=C(NCC(=O)N1CCCC[C@H]1c1ccccc1)c1ccc2cc(Cl)ccc2n1

>  <score_type>  (34) 
oracle

>  <origin>  (34) 
autodockgpu

>  <m_score__min__energy>  (34) 
-9.1300000000000008

>  <m_primary>  (34) 
energy

>  <rmsd>  (34) 
1.4784535413438806

>  <m_score__min__rmsd>  (34) 
1.4784535413438806

>  <meeko>  (34) 
{"free_energy": -8.27, "intermolecular_energy": -9.77, "internal_energy": -1.78, "cluster_size": 29, "cluster_id": 1, "rank_in_cluster": 28}

>  <energy>  (34) 
-8.86

>  <cluster_rmsd>  (34) 
0.13

>  <cluster>  (34) 
2

$$$$

     RDKit          3D

 51 54  0  0  0  0  0  0  0  0999 V2000
  140.9800   73.2000  221.4420 O   0  0  0  0  0  0  0  0  0  0  0  0
  140.0040   73.0130  222.2240 C   0  0  0  0  0  0  0  0  0  0  0  0
  138.8490   73.8330  222.1140 N   0  0  0  0  0  0  0  0  0  0  0  0
  138.7530   74.8770  221.1360 C   0  0  0  0  0  0  0  0  0  0  0  0
  139.1110   76.2150  221.7290 C   0  0  0  0  0  0  0  0  0  0  0  0
  138.6730   76.4320  222.8820 O   0  0  0  0  0  0  0  0  0  0  0  0
  139.8980   77.1480  220.9920 N   0  0  0  0  0  0  0  0  0  0  0  0
  139.3610   77.7210  219.7990 C   0  0  0  0  0  0  0  0  0  0  0  0
  140.3940   78.1280  218.7920 C   0  0  0  0  0  0  0  0  0  0  0  0
  141.6880   78.5720  219.4260 C   0  0  0  0  0  0  0  0  0  0  0  0
  142.1720   77.5020  220.3650 C   0  0  0  0  0  0  0  0  0  0  0  0
  141.2180   77.4430  221.5290 C   0  0  1  0  0  0  0  0  0  0  0  0
  141.2890   78.6750  222.3150 C   0  0  0  0  0  0  0  0  0  0  0  0
  140.2040   79.3870  222.7790 C   0  0  0  0  0  0  0  0  0  0  0  0
  140.3190   80.5440  223.5250 C   0  0  0  0  0  0  0  0  0  0  0  0
  141.5650   81.0440  223.8430 C   0  0  0  0  0  0  0  0  0  0  0  0
  142.6600   80.3470  223.3900 C   0  0  0  0  0  0  0  0  0  0  0  0
  142.5360   79.1750  222.6340 C   0  0  0  0  0  0  0  0  0  0  0  0
  140.0340   71.9630  223.2480 C   0  0  0  0  0  0  0  0  0  0  0  0
  139.5860   70.6920  222.9580 C   0  0  0  0  0  0  0  0  0  0  0  0
  139.6120   69.6990  223.9200 C   0  0  0  0  0  0  0  0  0  0  0  0
  140.0930   69.9820  225.1910 C   0  0  0  0  0  0  0  0  0  0  0  0
  140.1460   69.0390  226.1940 C   0  0  0  0  0  0  0  0  0  0  0  0
  140.6410   69.4070  227.4350 C   0  0  0  0  0  0  0  0  0  0  0  0
  140.7160   68.2180  228.7200 Cl  0  0  0  0  0  0  0  0  0  0  0  0
  141.0840   70.7030  227.6860 C   0  0  0  0  0  0  0  0  0  0  0  0
  141.0270   71.6410  226.6770 C   0  0  0  0  0  0  0  0  0  0  0  0
  140.5290   71.2670  225.4330 C   0  0  0  0  0  0  0  0  0  0  0  0
  140.4960   72.2170  224.4870 N   0  0  0  0  0  0  0  0  0  0  0  0
  138.0540   73.6430  222.7880 H   0  0  0  0  0  0  0  0  0  0  0  0
  139.4416   74.6563  220.3071 H   0  0  0  0  0  0  0  0  0  0  0  0
  137.7144   74.9225  220.7765 H   0  0  0  0  0  0  0  0  0  0  0  0
  138.6957   76.9809  219.3304 H   0  0  0  0  0  0  0  0  0  0  0  0
  138.8345   78.6389  220.0993 H   0  0  0  0  0  0  0  0  0  0  0  0
  140.6011   77.2703  218.1352 H   0  0  0  0  0  0  0  0  0  0  0  0
  139.9899   78.9841  218.2319 H   0  0  0  0  0  0  0  0  0  0  0  0
  142.4416   78.7426  218.6431 H   0  0  0  0  0  0  0  0  0  0  0  0
  141.5247   79.5062  219.9834 H   0  0  0  0  0  0  0  0  0  0  0  0
  142.1913   76.5314  219.8478 H   0  0  0  0  0  0  0  0  0  0  0  0
  143.1898   77.7299  220.7144 H   0  0  0  0  0  0  0  0  0  0  0  0
  141.4825   76.6458  222.2394 H   0  0  0  0  0  0  0  0  0  0  0  0
  139.1958   79.0153  222.5435 H   0  0  0  0  0  0  0  0  0  0  0  0
  139.4143   81.0683  223.8665 H   0  0  0  0  0  0  0  0  0  0  0  0
  141.6778   81.9639  224.4355 H   0  0  0  0  0  0  0  0  0  0  0  0
  143.6660   80.7222  223.6292 H   0  0  0  0  0  0  0  0  0  0  0  0
  143.4390   78.6484  222.2915 H   0  0  0  0  0  0  0  0  0  0  0  0
  139.2041   70.4655  221.9516 H   0  0  0  0  0  0  0  0  0  0  0  0
  139.2526   68.6878  223.6788 H   0  0  0  0  0  0  0  0  0  0  0  0
  139.8009   68.0104  226.0127 H   0  0  0  0  0  0  0  0  0  0  0  0
  141.4748   70.9753  228.6775 H   0  0  0  0  0  0  0  0  0  0  0  0
  141.3706   72.6710  226.8533 H   0  0  0  0  0  0  0  0  0  0  0  0
  1  2  2  0
  2  3  1  0
  3  4  1  0
  4  5  1  0
  5  6  2  0
  5  7  1  0
  7  8  1  0
  8  9  1  0
  9 10  1  0
 10 11  1  0
 11 12  1  0
 12 13  1  0
 13 14  2  0
 14 15  1  0
 15 16  2  0
 16 17  1  0
 17 18  2  0
  2 19  1  0
 19 20  2  0
 20 21  1  0
 21 22  2  0
 22 23  1  0
 23 24  2  0
 24 25  1  0
 24 26  1  0
 26 27  2  0
 27 28  1  0
 28 29  2  0
 12  7  1  0
 18 13  1  0
 29 19  1  0
 28 22  1  0
  3 30  1  0
  4 31  1  0
  4 32  1  0
  8 33  1  0
  8 34  1  0
  9 35  1  0
  9 36  1  0
 10 37  1  0
 10 38  1  0
 11 39  1  0
 11 40  1  0
 12 41  1  1
 14 42  1  0
 15 43  1  0
 16 44  1  0
 17 45  1  0
 18 46  1  0
 20 47  1  0
 21 48  1  0
 23 49  1  0
 26 50  1  0
 27 51  1  0
M  END
>  <smiles>  (35) 
O=C(NCC(=O)N1CCCC[C@H]1c1ccccc1)c1ccc2cc(Cl)ccc2n1

>  <score_type>  (35) 
oracle

>  <origin>  (35) 
autodockgpu

>  <m_score__min__energy>  (35) 
-9.1300000000000008

>  <m_primary>  (35) 
energy

>  <rmsd>  (35) 
2.031707754088963

>  <m_score__min__rmsd>  (35) 
2.031707754088963

>  <meeko>  (35) 
{"free_energy": -9.06, "intermolecular_energy": -10.55, "internal_energy": -1.51, "cluster_size": 29, "cluster_id": 1, "rank_in_cluster": 8}

>  <energy>  (35) 
-8.82

>  <cluster_rmsd>  (35) 
0.25

>  <cluster>  (35) 
2

$$$$

     RDKit          3D

 51 54  0  0  0  0  0  0  0  0999 V2000
  139.6230   73.1770  220.2840 O   0  0  0  0  0  0  0  0  0  0  0  0
  139.6940   73.3770  221.5300 C   0  0  0  0  0  0  0  0  0  0  0  0
  139.7070   74.7080  222.0280 N   0  0  0  0  0  0  0  0  0  0  0  0
  139.6410   75.8420  221.1550 C   0  0  0  0  0  0  0  0  0  0  0  0
  140.9820   76.5180  221.0350 C   0  0  0  0  0  0  0  0  0  0  0  0
  141.2690   77.3190  221.9550 O   0  0  0  0  0  0  0  0  0  0  0  0
  141.8400   76.2400  219.9310 N   0  0  0  0  0  0  0  0  0  0  0  0
  142.4740   77.3260  219.2530 C   0  0  0  0  0  0  0  0  0  0  0  0
  142.7850   77.0540  217.8130 C   0  0  0  0  0  0  0  0  0  0  0  0
  143.0940   75.6030  217.5430 C   0  0  0  0  0  0  0  0  0  0  0  0
  141.9730   74.7520  218.0720 C   0  0  0  0  0  0  0  0  0  0  0  0
  141.9980   74.8380  219.5750 C   0  0  1  0  0  0  0  0  0  0  0  0
  143.2090   74.2140  220.1070 C   0  0  0  0  0  0  0  0  0  0  0  0
  144.4010   74.8630  220.3450 C   0  0  0  0  0  0  0  0  0  0  0  0
  145.5200   74.2330  220.8560 C   0  0  0  0  0  0  0  0  0  0  0  0
  145.4820   72.8870  221.1540 C   0  0  0  0  0  0  0  0  0  0  0  0
  144.3010   72.2210  220.9230 C   0  0  0  0  0  0  0  0  0  0  0  0
  143.1710   72.8660  220.4060 C   0  0  0  0  0  0  0  0  0  0  0  0
  139.7650   72.2620  222.4820 C   0  0  0  0  0  0  0  0  0  0  0  0
  139.3300   71.0060  222.1190 C   0  0  0  0  0  0  0  0  0  0  0  0
  139.3940   69.9520  223.0120 C   0  0  0  0  0  0  0  0  0  0  0  0
  139.9010   70.1600  224.2880 C   0  0  0  0  0  0  0  0  0  0  0  0
  139.9920   69.1540  225.2250 C   0  0  0  0  0  0  0  0  0  0  0  0
  140.5110   69.4480  226.4760 C   0  0  0  0  0  0  0  0  0  0  0  0
  140.6340   68.1770  227.6770 Cl  0  0  0  0  0  0  0  0  0  0  0  0
  140.9400   70.7310  226.8020 C   0  0  0  0  0  0  0  0  0  0  0  0
  140.8440   71.7320  225.8580 C   0  0  0  0  0  0  0  0  0  0  0  0
  140.3230   71.4320  224.6040 C   0  0  0  0  0  0  0  0  0  0  0  0
  140.2530   72.4420  223.7250 N   0  0  0  0  0  0  0  0  0  0  0  0
  139.7670   74.8310  223.0790 H   0  0  0  0  0  0  0  0  0  0  0  0
  139.3171   75.5086  220.1580 H   0  0  0  0  0  0  0  0  0  0  0  0
  138.9246   76.5631  221.5754 H   0  0  0  0  0  0  0  0  0  0  0  0
  141.8076   78.1998  219.3028 H   0  0  0  0  0  0  0  0  0  0  0  0
  143.4368   77.4945  219.7577 H   0  0  0  0  0  0  0  0  0  0  0  0
  141.9163   77.3468  217.2050 H   0  0  0  0  0  0  0  0  0  0  0  0
  143.6815   77.6361  217.5534 H   0  0  0  0  0  0  0  0  0  0  0  0
  143.1966   75.4442  216.4594 H   0  0  0  0  0  0  0  0  0  0  0  0
  144.0348   75.3265  218.0415 H   0  0  0  0  0  0  0  0  0  0  0  0
  141.0099   75.1237  217.6921 H   0  0  0  0  0  0  0  0  0  0  0  0
  142.0960   73.7089  217.7453 H   0  0  0  0  0  0  0  0  0  0  0  0
  141.1720   74.2742  220.0331 H   0  0  0  0  0  0  0  0  0  0  0  0
  144.4652   75.9371  220.1167 H   0  0  0  0  0  0  0  0  0  0  0  0
  146.4432   74.8066  221.0254 H   0  0  0  0  0  0  0  0  0  0  0  0
  146.3617   72.3665  221.5605 H   0  0  0  0  0  0  0  0  0  0  0  0
  144.2424   71.1467  221.1519 H   0  0  0  0  0  0  0  0  0  0  0  0
  142.2461   72.2951  220.2367 H   0  0  0  0  0  0  0  0  0  0  0  0
  138.9278   70.8400  221.1087 H   0  0  0  0  0  0  0  0  0  0  0  0
  139.0447   68.9528  222.7127 H   0  0  0  0  0  0  0  0  0  0  0  0
  139.6581   68.1340  224.9841 H   0  0  0  0  0  0  0  0  0  0  0  0
  141.3505   70.9442  227.8000 H   0  0  0  0  0  0  0  0  0  0  0  0
  141.1751   72.7541  226.0939 H   0  0  0  0  0  0  0  0  0  0  0  0
  1  2  2  0
  2  3  1  0
  3  4  1  0
  4  5  1  0
  5  6  2  0
  5  7  1  0
  7  8  1  0
  8  9  1  0
  9 10  1  0
 10 11  1  0
 11 12  1  0
 12 13  1  0
 13 14  2  0
 14 15  1  0
 15 16  2  0
 16 17  1  0
 17 18  2  0
  2 19  1  0
 19 20  2  0
 20 21  1  0
 21 22  2  0
 22 23  1  0
 23 24  2  0
 24 25  1  0
 24 26  1  0
 26 27  2  0
 27 28  1  0
 28 29  2  0
 12  7  1  0
 18 13  1  0
 29 19  1  0
 28 22  1  0
  3 30  1  0
  4 31  1  0
  4 32  1  0
  8 33  1  0
  8 34  1  0
  9 35  1  0
  9 36  1  0
 10 37  1  0
 10 38  1  0
 11 39  1  0
 11 40  1  0
 12 41  1  1
 14 42  1  0
 15 43  1  0
 16 44  1  0
 17 45  1  0
 18 46  1  0
 20 47  1  0
 21 48  1  0
 23 49  1  0
 26 50  1  0
 27 51  1  0
M  END
>  <smiles>  (36) 
O=C(NCC(=O)N1CCCC[C@H]1c1ccccc1)c1ccc2cc(Cl)ccc2n1

>  <score_type>  (36) 
oracle

>  <origin>  (36) 
autodockgpu

>  <m_score__min__energy>  (36) 
-9.1300000000000008

>  <m_primary>  (36) 
energy

>  <rmsd>  (36) 
2.570770781435052

>  <m_score__min__rmsd>  (36) 
2.570770781435052

>  <meeko>  (36) 
{"free_energy": -7.79, "intermolecular_energy": -9.28, "internal_energy": -2.23, "cluster_size": 16, "cluster_id": 2, "rank_in_cluster": 15}

>  <energy>  (36) 
-8.81

>  <cluster_rmsd>  (36) 
0.34

>  <cluster>  (36) 
2

$$$$

     RDKit          3D

 51 54  0  0  0  0  0  0  0  0999 V2000
  139.0500   72.0400  220.7690 O   0  0  0  0  0  0  0  0  0  0  0  0
  139.2920   72.4350  221.9450 C   0  0  0  0  0  0  0  0  0  0  0  0
  139.3560   73.8270  222.2190 N   0  0  0  0  0  0  0  0  0  0  0  0
  139.1530   74.8100  221.1950 C   0  0  0  0  0  0  0  0  0  0  0  0
  139.3160   76.2060  221.7380 C   0  0  0  0  0  0  0  0  0  0  0  0
  138.8290   76.4060  222.8740 O   0  0  0  0  0  0  0  0  0  0  0  0
  139.9860   77.2070  220.9750 N   0  0  0  0  0  0  0  0  0  0  0  0
  139.3060   77.8130  219.8740 C   0  0  0  0  0  0  0  0  0  0  0  0
  140.2130   78.3130  218.7910 C   0  0  0  0  0  0  0  0  0  0  0  0
  141.5470   78.7820  219.3130 C   0  0  0  0  0  0  0  0  0  0  0  0
  142.1670   77.6910  220.1400 C   0  0  0  0  0  0  0  0  0  0  0  0
  141.3420   77.5340  221.3900 C   0  0  1  0  0  0  0  0  0  0  0  0
  141.4460   78.7280  222.2290 C   0  0  0  0  0  0  0  0  0  0  0  0
  142.6100   79.4180  222.4900 C   0  0  0  0  0  0  0  0  0  0  0  0
  142.6590   80.5480  223.2840 C   0  0  0  0  0  0  0  0  0  0  0  0
  141.5080   81.0410  223.8630 C   0  0  0  0  0  0  0  0  0  0  0  0
  140.3360   80.3660  223.6130 C   0  0  0  0  0  0  0  0  0  0  0  0
  140.2930   79.2210  222.8070 C   0  0  0  0  0  0  0  0  0  0  0  0
  139.5100   71.4850  223.0420 C   0  0  0  0  0  0  0  0  0  0  0  0
  139.1490   70.1620  222.9030 C   0  0  0  0  0  0  0  0  0  0  0  0
  139.3520   69.2630  223.9330 C   0  0  0  0  0  0  0  0  0  0  0  0
  139.9260   69.6950  225.1210 C   0  0  0  0  0  0  0  0  0  0  0  0
  140.1560   68.8510  226.1870 C   0  0  0  0  0  0  0  0  0  0  0  0
  140.7330   69.3660  227.3360 C   0  0  0  0  0  0  0  0  0  0  0  0
  141.0320   68.3040  228.6990 Cl  0  0  0  0  0  0  0  0  0  0  0  0
  141.0840   70.7090  227.4370 C   0  0  0  0  0  0  0  0  0  0  0  0
  140.8500   71.5460  226.3660 C   0  0  0  0  0  0  0  0  0  0  0  0
  140.2700   71.0260  225.2140 C   0  0  0  0  0  0  0  0  0  0  0  0
  140.0650   71.8830  224.2040 N   0  0  0  0  0  0  0  0  0  0  0  0
  139.5610   74.1160  223.2180 H   0  0  0  0  0  0  0  0  0  0  0  0
  139.8882   74.6492  220.3928 H   0  0  0  0  0  0  0  0  0  0  0  0
  138.1281   74.7042  220.8097 H   0  0  0  0  0  0  0  0  0  0  0  0
  138.6251   77.0679  219.4369 H   0  0  0  0  0  0  0  0  0  0  0  0
  138.7776   78.6910  220.2738 H   0  0  0  0  0  0  0  0  0  0  0  0
  140.3842   77.4979  218.0724 H   0  0  0  0  0  0  0  0  0  0  0  0
  139.7205   79.1768  218.3206 H   0  0  0  0  0  0  0  0  0  0  0  0
  142.2082   79.0235  218.4678 H   0  0  0  0  0  0  0  0  0  0  0  0
  141.4057   79.6797  219.9328 H   0  0  0  0  0  0  0  0  0  0  0  0
  142.1705   76.7482  219.5733 H   0  0  0  0  0  0  0  0  0  0  0  0
  143.2060   77.9465  220.3955 H   0  0  0  0  0  0  0  0  0  0  0  0
  141.7098   76.7161  222.0269 H   0  0  0  0  0  0  0  0  0  0  0  0
  143.5464   79.0512  222.0443 H   0  0  0  0  0  0  0  0  0  0  0  0
  143.6194   81.0563  223.4550 H   0  0  0  0  0  0  0  0  0  0  0  0
  141.5268   81.9381  224.4992 H   0  0  0  0  0  0  0  0  0  0  0  0
  139.4022   80.7372  224.0604 H   0  0  0  0  0  0  0  0  0  0  0  0
  139.3339   78.7111  222.6334 H   0  0  0  0  0  0  0  0  0  0  0  0
  138.6945   69.8180  221.9622 H   0  0  0  0  0  0  0  0  0  0  0  0
  139.0599   68.2094  223.8119 H   0  0  0  0  0  0  0  0  0  0  0  0
  139.8857   67.7865  226.1258 H   0  0  0  0  0  0  0  0  0  0  0  0
  141.5419   71.0977  228.3586 H   0  0  0  0  0  0  0  0  0  0  0  0
  141.1187   72.6112  226.4223 H   0  0  0  0  0  0  0  0  0  0  0  0
  1  2  2  0
  2  3  1  0
  3  4  1  0
  4  5  1  0
  5  6  2  0
  5  7  1  0
  7  8  1  0
  8  9  1  0
  9 10  1  0
 10 11  1  0
 11 12  1  0
 12 13  1  0
 13 14  2  0
 14 15  1  0
 15 16  2  0
 16 17  1  0
 17 18  2  0
  2 19  1  0
 19 20  2  0
 20 21  1  0
 21 22  2  0
 22 23  1  0
 23 24  2  0
 24 25  1  0
 24 26  1  0
 26 27  2  0
 27 28  1  0
 28 29  2  0
 12  7  1  0
 18 13  1  0
 29 19  1  0
 28 22  1  0
  3 30  1  0
  4 31  1  0
  4 32  1  0
  8 33  1  0
  8 34  1  0
  9 35  1  0
  9 36  1  0
 10 37  1  0
 10 38  1  0
 11 39  1  0
 11 40  1  0
 12 41  1  1
 14 42  1  0
 15 43  1  0
 16 44  1  0
 17 45  1  0
 18 46  1  0
 20 47  1  0
 21 48  1  0
 23 49  1  0
 26 50  1  0
 27 51  1  0
M  END
>  <smiles>  (37) 
O=C(NCC(=O)N1CCCC[C@H]1c1ccccc1)c1ccc2cc(Cl)ccc2n1

>  <score_type>  (37) 
oracle

>  <origin>  (37) 
autodockgpu

>  <m_score__min__energy>  (37) 
-9.1300000000000008

>  <m_primary>  (37) 
energy

>  <rmsd>  (37) 
1.9096517738917065

>  <m_score__min__rmsd>  (37) 
1.9096517738917065

>  <meeko>  (37) 
{"free_energy": -8.91, "intermolecular_energy": -10.4, "internal_energy": -1.91, "cluster_size": 29, "cluster_id": 1, "rank_in_cluster": 18}

>  <energy>  (37) 
-8.81

>  <cluster_rmsd>  (37) 
0.25

>  <cluster>  (37) 
2

$$$$

     RDKit          3D

 51 54  0  0  0  0  0  0  0  0999 V2000
  140.8540   72.2690  220.7300 O   0  0  0  0  0  0  0  0  0  0  0  0
  140.3070   72.5890  221.8250 C   0  0  0  0  0  0  0  0  0  0  0  0
  139.7680   73.8940  221.9840 N   0  0  0  0  0  0  0  0  0  0  0  0
  139.8240   74.8690  220.9360 C   0  0  0  0  0  0  0  0  0  0  0  0
  141.0390   75.7500  221.0740 C   0  0  0  0  0  0  0  0  0  0  0  0
  141.1520   76.3500  222.1670 O   0  0  0  0  0  0  0  0  0  0  0  0
  141.9750   75.8680  220.0050 N   0  0  0  0  0  0  0  0  0  0  0  0
  142.5200   77.1530  219.6970 C   0  0  0  0  0  0  0  0  0  0  0  0
  142.9300   77.3210  218.2660 C   0  0  0  0  0  0  0  0  0  0  0  0
  143.4070   76.0370  217.6380 C   0  0  0  0  0  0  0  0  0  0  0  0
  142.3610   74.9740  217.8280 C   0  0  0  0  0  0  0  0  0  0  0  0
  142.3020   74.6410  219.2950 C   0  0  1  0  0  0  0  0  0  0  0  0
  143.5470   74.0060  219.7290 C   0  0  0  0  0  0  0  0  0  0  0  0
  144.3080   74.4020  220.8080 C   0  0  0  0  0  0  0  0  0  0  0  0
  145.4750   73.7660  221.1860 C   0  0  0  0  0  0  0  0  0  0  0  0
  145.9360   72.6780  220.4730 C   0  0  0  0  0  0  0  0  0  0  0  0
  145.1890   72.2680  219.3930 C   0  0  0  0  0  0  0  0  0  0  0  0
  144.0060   72.9170  219.0160 C   0  0  0  0  0  0  0  0  0  0  0  0
  140.2140   71.6410  222.9400 C   0  0  0  0  0  0  0  0  0  0  0  0
  139.6410   70.4010  222.7570 C   0  0  0  0  0  0  0  0  0  0  0  0
  139.5510   69.5040  223.8060 C   0  0  0  0  0  0  0  0  0  0  0  0
  140.0420   69.8540  225.0560 C   0  0  0  0  0  0  0  0  0  0  0  0
  139.9830   69.0070  226.1430 C   0  0  0  0  0  0  0  0  0  0  0  0
  140.4970   69.4370  227.3550 C   0  0  0  0  0  0  0  0  0  0  0  0
  140.4300   68.3700  228.7450 Cl  0  0  0  0  0  0  0  0  0  0  0  0
  141.0690   70.6980  227.4980 C   0  0  0  0  0  0  0  0  0  0  0  0
  141.1230   71.5390  226.4060 C   0  0  0  0  0  0  0  0  0  0  0  0
  140.6060   71.1040  225.1910 C   0  0  0  0  0  0  0  0  0  0  0  0
  140.6840   71.9610  224.1620 N   0  0  0  0  0  0  0  0  0  0  0  0
  139.3180   74.1210  222.9160 H   0  0  0  0  0  0  0  0  0  0  0  0
  139.8648   74.3512  219.9663 H   0  0  0  0  0  0  0  0  0  0  0  0
  138.9265   75.5016  221.0012 H   0  0  0  0  0  0  0  0  0  0  0  0
  141.7607   77.9142  219.9296 H   0  0  0  0  0  0  0  0  0  0  0  0
  143.4327   77.2615  220.3014 H   0  0  0  0  0  0  0  0  0  0  0  0
  142.0661   77.6914  217.6946 H   0  0  0  0  0  0  0  0  0  0  0  0
  143.7700   78.0309  218.2445 H   0  0  0  0  0  0  0  0  0  0  0  0
  143.5794   76.1952  216.5632 H   0  0  0  0  0  0  0  0  0  0  0  0
  144.3463   75.7198  218.1145 H   0  0  0  0  0  0  0  0  0  0  0  0
  141.3831   75.3470  217.4897 H   0  0  0  0  0  0  0  0  0  0  0  0
  142.6133   74.0784  217.2413 H   0  0  0  0  0  0  0  0  0  0  0  0
  141.5204   73.8999  219.5181 H   0  0  0  0  0  0  0  0  0  0  0  0
  143.9695   75.2670  221.3972 H   0  0  0  0  0  0  0  0  0  0  0  0
  146.0387   74.1282  222.0584 H   0  0  0  0  0  0  0  0  0  0  0  0
  146.8636   72.1594  220.7569 H   0  0  0  0  0  0  0  0  0  0  0  0
  145.5316   71.4027  218.8065 H   0  0  0  0  0  0  0  0  0  0  0  0
  143.4388   72.5560  218.1454 H   0  0  0  0  0  0  0  0  0  0  0  0
  139.2514   70.1219  221.7669 H   0  0  0  0  0  0  0  0  0  0  0  0
  139.0918   68.5167  223.6500 H   0  0  0  0  0  0  0  0  0  0  0  0
  139.5352   68.0067  226.0488 H   0  0  0  0  0  0  0  0  0  0  0  0
  141.4728   71.0196  228.4694 H   0  0  0  0  0  0  0  0  0  0  0  0
  141.5692   72.5405  226.4953 H   0  0  0  0  0  0  0  0  0  0  0  0
  1  2  2  0
  2  3  1  0
  3  4  1  0
  4  5  1  0
  5  6  2  0
  5  7  1  0
  7  8  1  0
  8  9  1  0
  9 10  1  0
 10 11  1  0
 11 12  1  0
 12 13  1  0
 13 14  2  0
 14 15  1  0
 15 16  2  0
 16 17  1  0
 17 18  2  0
  2 19  1  0
 19 20  2  0
 20 21  1  0
 21 22  2  0
 22 23  1  0
 23 24  2  0
 24 25  1  0
 24 26  1  0
 26 27  2  0
 27 28  1  0
 28 29  2  0
 12  7  1  0
 18 13  1  0
 29 19  1  0
 28 22  1  0
  3 30  1  0
  4 31  1  0
  4 32  1  0
  8 33  1  0
  8 34  1  0
  9 35  1  0
  9 36  1  0
 10 37  1  0
 10 38  1  0
 11 39  1  0
 11 40  1  0
 12 41  1  6
 14 42  1  0
 15 43  1  0
 16 44  1  0
 17 45  1  0
 18 46  1  0
 20 47  1  0
 21 48  1  0
 23 49  1  0
 26 50  1  0
 27 51  1  0
M  END
>  <smiles>  (38) 
O=C(NCC(=O)N1CCCC[C@H]1c1ccccc1)c1ccc2cc(Cl)ccc2n1

>  <score_type>  (38) 
oracle

>  <origin>  (38) 
autodockgpu

>  <m_score__min__energy>  (38) 
-9.1300000000000008

>  <m_primary>  (38) 
energy

>  <rmsd>  (38) 
2.3795032061830654

>  <m_score__min__rmsd>  (38) 
2.3795032061830654

>  <meeko>  (38) 
{"free_energy": -8.58, "intermolecular_energy": -10.07, "internal_energy": -1.94, "cluster_size": 16, "cluster_id": 2, "rank_in_cluster": 14}

>  <energy>  (38) 
-8.79

>  <cluster_rmsd>  (38) 
0.24

>  <cluster>  (38) 
2

$$$$

     RDKit          3D

 51 54  0  0  0  0  0  0  0  0999 V2000
  139.6510   72.1460  220.6470 O   0  0  0  0  0  0  0  0  0  0  0  0
  139.6490   72.5380  221.8490 C   0  0  0  0  0  0  0  0  0  0  0  0
  139.5500   73.9270  222.1340 N   0  0  0  0  0  0  0  0  0  0  0  0
  139.4510   74.9070  221.0940 C   0  0  0  0  0  0  0  0  0  0  0  0
  139.3810   76.3010  221.6620 C   0  0  0  0  0  0  0  0  0  0  0  0
  138.8830   76.3950  222.8070 O   0  0  0  0  0  0  0  0  0  0  0  0
  139.8590   77.4160  220.9130 N   0  0  0  0  0  0  0  0  0  0  0  0
  138.9870   78.0480  219.9740 C   0  0  0  0  0  0  0  0  0  0  0  0
  139.6910   78.7110  218.8300 C   0  0  0  0  0  0  0  0  0  0  0  0
  141.0470   79.2500  219.2080 C   0  0  0  0  0  0  0  0  0  0  0  0
  141.8580   78.1530  219.8400 C   0  0  0  0  0  0  0  0  0  0  0  0
  141.2320   77.8230  221.1690 C   0  0  1  0  0  0  0  0  0  0  0  0
  141.3650   78.9500  222.0930 C   0  0  0  0  0  0  0  0  0  0  0  0
  140.3230   79.5630  222.7550 C   0  0  0  0  0  0  0  0  0  0  0  0
  140.4970   80.6220  223.6270 C   0  0  0  0  0  0  0  0  0  0  0  0
  141.7600   81.1190  223.8720 C   0  0  0  0  0  0  0  0  0  0  0  0
  142.8120   80.5190  223.2220 C   0  0  0  0  0  0  0  0  0  0  0  0
  142.6300   79.4460  222.3400 C   0  0  0  0  0  0  0  0  0  0  0  0
  139.7470   71.5900  222.9640 C   0  0  0  0  0  0  0  0  0  0  0  0
  139.2920   70.2960  222.8220 C   0  0  0  0  0  0  0  0  0  0  0  0
  139.3830   69.3990  223.8700 C   0  0  0  0  0  0  0  0  0  0  0  0
  139.9360   69.8020  225.0780 C   0  0  0  0  0  0  0  0  0  0  0  0
  140.0560   68.9580  226.1610 C   0  0  0  0  0  0  0  0  0  0  0  0
  140.6210   69.4420  227.3290 C   0  0  0  0  0  0  0  0  0  0  0  0
  140.7790   68.3790  228.7140 Cl  0  0  0  0  0  0  0  0  0  0  0  0
  141.0680   70.7570  227.4310 C   0  0  0  0  0  0  0  0  0  0  0  0
  140.9450   71.5940  226.3420 C   0  0  0  0  0  0  0  0  0  0  0  0
  140.3770   71.1040  225.1710 C   0  0  0  0  0  0  0  0  0  0  0  0
  140.2800   71.9610  224.1440 N   0  0  0  0  0  0  0  0  0  0  0  0
  139.5510   74.2130  223.1540 H   0  0  0  0  0  0  0  0  0  0  0  0
  140.3340   74.8291  220.4427 H   0  0  0  0  0  0  0  0  0  0  0  0
  138.5297   74.7171  220.5238 H   0  0  0  0  0  0  0  0  0  0  0  0
  138.3087   77.2844  219.5654 H   0  0  0  0  0  0  0  0  0  0  0  0
  138.4567   78.8417  220.5207 H   0  0  0  0  0  0  0  0  0  0  0  0
  139.8186   77.9750  218.0225 H   0  0  0  0  0  0  0  0  0  0  0  0
  139.0736   79.5643  218.5127 H   0  0  0  0  0  0  0  0  0  0  0  0
  141.5616   79.6153  218.3070 H   0  0  0  0  0  0  0  0  0  0  0  0
  140.9288   80.0791  219.9211 H   0  0  0  0  0  0  0  0  0  0  0  0
  141.8524   77.2635  219.1929 H   0  0  0  0  0  0  0  0  0  0  0  0
  142.9004   78.4767  219.9768 H   0  0  0  0  0  0  0  0  0  0  0  0
  141.7455   76.9896  221.6708 H   0  0  0  0  0  0  0  0  0  0  0  0
  139.3024   79.1914  222.5810 H   0  0  0  0  0  0  0  0  0  0  0  0
  139.6253   81.0695  224.1269 H   0  0  0  0  0  0  0  0  0  0  0  0
  141.9191   81.9622  224.5603 H   0  0  0  0  0  0  0  0  0  0  0  0
  143.8307   80.8938  223.4003 H   0  0  0  0  0  0  0  0  0  0  0  0
  143.5005   78.9955  221.8408 H   0  0  0  0  0  0  0  0  0  0  0  0
  138.8527   69.9746  221.8661 H   0  0  0  0  0  0  0  0  0  0  0  0
  139.0182   68.3686  223.7471 H   0  0  0  0  0  0  0  0  0  0  0  0
  139.7084   67.9162  226.0985 H   0  0  0  0  0  0  0  0  0  0  0  0
  141.5133   71.1232  228.3678 H   0  0  0  0  0  0  0  0  0  0  0  0
  141.2919   72.6363  226.3988 H   0  0  0  0  0  0  0  0  0  0  0  0
  1  2  2  0
  2  3  1  0
  3  4  1  0
  4  5  1  0
  5  6  2  0
  5  7  1  0
  7  8  1  0
  8  9  1  0
  9 10  1  0
 10 11  1  0
 11 12  1  0
 12 13  1  0
 13 14  2  0
 14 15  1  0
 15 16  2  0
 16 17  1  0
 17 18  2  0
  2 19  1  0
 19 20  2  0
 20 21  1  0
 21 22  2  0
 22 23  1  0
 23 24  2  0
 24 25  1  0
 24 26  1  0
 26 27  2  0
 27 28  1  0
 28 29  2  0
 12  7  1  0
 18 13  1  0
 29 19  1  0
 28 22  1  0
  3 30  1  0
  4 31  1  0
  4 32  1  0
  8 33  1  0
  8 34  1  0
  9 35  1  0
  9 36  1  0
 10 37  1  0
 10 38  1  0
 11 39  1  0
 11 40  1  0
 12 41  1  1
 14 42  1  0
 15 43  1  0
 16 44  1  0
 17 45  1  0
 18 46  1  0
 20 47  1  0
 21 48  1  0
 23 49  1  0
 26 50  1  0
 27 51  1  0
M  END
>  <smiles>  (39) 
O=C(NCC(=O)N1CCCC[C@H]1c1ccccc1)c1ccc2cc(Cl)ccc2n1

>  <score_type>  (39) 
oracle

>  <origin>  (39) 
autodockgpu

>  <m_score__min__energy>  (39) 
-9.1300000000000008

>  <m_primary>  (39) 
energy

>  <rmsd>  (39) 
2.019646464544078

>  <m_score__min__rmsd>  (39) 
2.019646464544078

>  <meeko>  (39) 
{"free_energy": -8.89, "intermolecular_energy": -10.38, "internal_energy": -1.99, "cluster_size": 29, "cluster_id": 1, "rank_in_cluster": 22}

>  <energy>  (39) 
-8.78

>  <cluster_rmsd>  (39) 
0.26

>  <cluster>  (39) 
2

$$$$

     RDKit          3D

 51 54  0  0  0  0  0  0  0  0999 V2000
  135.7330   71.3060  223.0520 O   0  0  0  0  0  0  0  0  0  0  0  0
  135.8570   72.5190  223.3900 C   0  0  0  0  0  0  0  0  0  0  0  0
  136.8780   73.3110  222.8010 N   0  0  0  0  0  0  0  0  0  0  0  0
  137.7830   72.7760  221.8260 C   0  0  0  0  0  0  0  0  0  0  0  0
  139.0270   72.2290  222.4770 C   0  0  0  0  0  0  0  0  0  0  0  0
  139.9810   73.0330  222.5830 O   0  0  0  0  0  0  0  0  0  0  0  0
  139.0760   70.8780  222.9290 N   0  0  0  0  0  0  0  0  0  0  0  0
  139.7220   69.8960  222.1160 C   0  0  0  0  0  0  0  0  0  0  0  0
  139.1930   68.5060  222.2930 C   0  0  0  0  0  0  0  0  0  0  0  0
  138.6980   68.2410  223.6920 C   0  0  0  0  0  0  0  0  0  0  0  0
  137.7020   69.3000  224.0740 C   0  0  0  0  0  0  0  0  0  0  0  0
  138.4450   70.6030  224.2110 C   0  0  1  0  0  0  0  0  0  0  0  0
  139.3710   70.5520  225.3410 C   0  0  0  0  0  0  0  0  0  0  0  0
  140.4880   71.3460  225.4930 C   0  0  0  0  0  0  0  0  0  0  0  0
  141.3320   71.2670  226.5840 C   0  0  0  0  0  0  0  0  0  0  0  0
  141.0800   70.3600  227.5920 C   0  0  0  0  0  0  0  0  0  0  0  0
  139.9700   69.5600  227.4600 C   0  0  0  0  0  0  0  0  0  0  0  0
  139.1180   69.6450  226.3520 C   0  0  0  0  0  0  0  0  0  0  0  0
  134.9660   73.1320  224.3810 C   0  0  0  0  0  0  0  0  0  0  0  0
  134.2080   72.3440  225.2200 C   0  0  0  0  0  0  0  0  0  0  0  0
  133.3660   72.9180  226.1560 C   0  0  0  0  0  0  0  0  0  0  0  0
  133.2830   74.3000  226.2530 C   0  0  0  0  0  0  0  0  0  0  0  0
  132.4650   74.9340  227.1630 C   0  0  0  0  0  0  0  0  0  0  0  0
  132.4420   76.3190  227.1930 C   0  0  0  0  0  0  0  0  0  0  0  0
  131.4070   77.1390  228.3460 Cl  0  0  0  0  0  0  0  0  0  0  0  0
  133.2250   77.0780  226.3270 C   0  0  0  0  0  0  0  0  0  0  0  0
  134.0400   76.4360  225.4190 C   0  0  0  0  0  0  0  0  0  0  0  0
  134.0600   75.0450  225.3930 C   0  0  0  0  0  0  0  0  0  0  0  0
  134.8690   74.4710  224.4920 N   0  0  0  0  0  0  0  0  0  0  0  0
  136.9470   74.3220  223.1110 H   0  0  0  0  0  0  0  0  0  0  0  0
  137.2804   71.9664  221.2765 H   0  0  0  0  0  0  0  0  0  0  0  0
  138.0761   73.5863  221.1423 H   0  0  0  0  0  0  0  0  0  0  0  0
  139.5930   70.1823  221.0618 H   0  0  0  0  0  0  0  0  0  0  0  0
  140.7771   69.8739  222.4264 H   0  0  0  0  0  0  0  0  0  0  0  0
  138.3594   68.3556  221.5913 H   0  0  0  0  0  0  0  0  0  0  0  0
  140.0221   67.8098  222.0985 H   0  0  0  0  0  0  0  0  0  0  0  0
  138.2168   67.2526  223.7307 H   0  0  0  0  0  0  0  0  0  0  0  0
  139.5453   68.2610  224.3933 H   0  0  0  0  0  0  0  0  0  0  0  0
  136.9321   69.3886  223.2934 H   0  0  0  0  0  0  0  0  0  0  0  0
  137.2073   69.0384  225.0210 H   0  0  0  0  0  0  0  0  0  0  0  0
  137.7700   71.4394  224.4451 H   0  0  0  0  0  0  0  0  0  0  0  0
  140.7187   72.0792  224.7061 H   0  0  0  0  0  0  0  0  0  0  0  0
  142.2077   71.9296  226.6489 H   0  0  0  0  0  0  0  0  0  0  0  0
  141.7414   70.2799  228.4673 H   0  0  0  0  0  0  0  0  0  0  0  0
  139.7437   68.8293  228.2505 H   0  0  0  0  0  0  0  0  0  0  0  0
  138.2407   68.9847  226.2861 H   0  0  0  0  0  0  0  0  0  0  0  0
  134.2730   71.2485  225.1448 H   0  0  0  0  0  0  0  0  0  0  0  0
  132.7644   72.2811  226.8211 H   0  0  0  0  0  0  0  0  0  0  0  0
  131.8402   74.3497  227.8546 H   0  0  0  0  0  0  0  0  0  0  0  0
  133.1937   78.1768  226.3669 H   0  0  0  0  0  0  0  0  0  0  0  0
  134.6659   77.0156  224.7245 H   0  0  0  0  0  0  0  0  0  0  0  0
  1  2  2  0
  2  3  1  0
  3  4  1  0
  4  5  1  0
  5  6  2  0
  5  7  1  0
  7  8  1  0
  8  9  1  0
  9 10  1  0
 10 11  1  0
 11 12  1  0
 12 13  1  0
 13 14  2  0
 14 15  1  0
 15 16  2  0
 16 17  1  0
 17 18  2  0
  2 19  1  0
 19 20  2  0
 20 21  1  0
 21 22  2  0
 22 23  1  0
 23 24  2  0
 24 25  1  0
 24 26  1  0
 26 27  2  0
 27 28  1  0
 28 29  2  0
 12  7  1  0
 18 13  1  0
 29 19  1  0
 28 22  1  0
  3 30  1  0
  4 31  1  0
  4 32  1  0
  8 33  1  0
  8 34  1  0
  9 35  1  0
  9 36  1  0
 10 37  1  0
 10 38  1  0
 11 39  1  0
 11 40  1  0
 12 41  1  1
 14 42  1  0
 15 43  1  0
 16 44  1  0
 17 45  1  0
 18 46  1  0
 20 47  1  0
 21 48  1  0
 23 49  1  0
 26 50  1  0
 27 51  1  0
M  END
>  <smiles>  (40) 
O=C(NCC(=O)N1CCCC[C@H]1c1ccccc1)c1ccc2cc(Cl)ccc2n1

>  <score_type>  (40) 
oracle

>  <origin>  (40) 
autodockgpu

>  <m_score__min__energy>  (40) 
-9.1300000000000008

>  <m_primary>  (40) 
energy

>  <rmsd>  (40) 
7.448875452026153

>  <m_score__min__rmsd>  (40) 
7.448875452026153

>  <meeko>  (40) 
{"free_energy": -7.59, "intermolecular_energy": -9.08, "internal_energy": -1.98, "cluster_size": 1, "cluster_id": 4, "rank_in_cluster": 1}

>  <energy>  (40) 
-8.78

>  <cluster_rmsd>  (40) 
0.26

>  <cluster>  (40) 
2

$$$$

     RDKit          3D

 51 54  0  0  0  0  0  0  0  0999 V2000
  138.4670   71.6230  221.0590 O   0  0  0  0  0  0  0  0  0  0  0  0
  138.9320   72.0510  222.1540 C   0  0  0  0  0  0  0  0  0  0  0  0
  139.1550   73.4440  222.3250 N   0  0  0  0  0  0  0  0  0  0  0  0
  138.8690   74.3890  221.2870 C   0  0  0  0  0  0  0  0  0  0  0  0
  140.1170   74.7700  220.5340 C   0  0  0  0  0  0  0  0  0  0  0  0
  140.4480   75.9750  220.6080 O   0  0  0  0  0  0  0  0  0  0  0  0
  140.8470   73.7920  219.7960 N   0  0  0  0  0  0  0  0  0  0  0  0
  140.7030   73.7450  218.3750 C   0  0  0  0  0  0  0  0  0  0  0  0
  140.9340   72.3900  217.7780 C   0  0  0  0  0  0  0  0  0  0  0  0
  141.9440   71.5750  218.5460 C   0  0  0  0  0  0  0  0  0  0  0  0
  141.5370   71.5180  219.9920 C   0  0  0  0  0  0  0  0  0  0  0  0
  141.6940   72.8990  220.5710 C   0  0  1  0  0  0  0  0  0  0  0  0
  143.1050   73.2850  220.6060 C   0  0  0  0  0  0  0  0  0  0  0  0
  143.5850   74.5650  220.4300 C   0  0  0  0  0  0  0  0  0  0  0  0
  144.9290   74.8840  220.4790 C   0  0  0  0  0  0  0  0  0  0  0  0
  145.8680   73.9010  220.7110 C   0  0  0  0  0  0  0  0  0  0  0  0
  145.4080   72.6170  220.8900 C   0  0  0  0  0  0  0  0  0  0  0  0
  144.0450   72.3000  220.8400 C   0  0  0  0  0  0  0  0  0  0  0  0
  139.2480   71.1410  223.2600 C   0  0  0  0  0  0  0  0  0  0  0  0
  138.9410   69.8000  223.1700 C   0  0  0  0  0  0  0  0  0  0  0  0
  139.2370   68.9380  224.2100 C   0  0  0  0  0  0  0  0  0  0  0  0
  139.8490   69.4250  225.3570 C   0  0  0  0  0  0  0  0  0  0  0  0
  140.1700   68.6200  226.4290 C   0  0  0  0  0  0  0  0  0  0  0  0
  140.7800   69.1890  227.5350 C   0  0  0  0  0  0  0  0  0  0  0  0
  141.1950   68.1760  228.9050 Cl  0  0  0  0  0  0  0  0  0  0  0  0
  141.0730   70.5490  227.5860 C   0  0  0  0  0  0  0  0  0  0  0  0
  140.7480   71.3470  226.5090 C   0  0  0  0  0  0  0  0  0  0  0  0
  140.1360   70.7720  225.4010 C   0  0  0  0  0  0  0  0  0  0  0  0
  139.8410   71.5930  224.3820 N   0  0  0  0  0  0  0  0  0  0  0  0
  139.5450   73.7610  223.2580 H   0  0  0  0  0  0  0  0  0  0  0  0
  138.1491   73.9431  220.5850 H   0  0  0  0  0  0  0  0  0  0  0  0
  138.4518   75.2960  221.7488 H   0  0  0  0  0  0  0  0  0  0  0  0
  139.6813   74.0640  218.1212 H   0  0  0  0  0  0  0  0  0  0  0  0
  141.4736   74.4097  217.9573 H   0  0  0  0  0  0  0  0  0  0  0  0
  139.9789   71.8444  217.7657 H   0  0  0  0  0  0  0  0  0  0  0  0
  141.3329   72.5397  216.7639 H   0  0  0  0  0  0  0  0  0  0  0  0
  141.9835   70.5556  218.1345 H   0  0  0  0  0  0  0  0  0  0  0  0
  142.9369   72.0406  218.4598 H   0  0  0  0  0  0  0  0  0  0  0  0
  140.4884   71.1957  220.0728 H   0  0  0  0  0  0  0  0  0  0  0  0
  142.1648   70.7992  220.5390 H   0  0  0  0  0  0  0  0  0  0  0  0
  141.3678   72.9453  221.6205 H   0  0  0  0  0  0  0  0  0  0  0  0
  142.8626   75.3728  220.2411 H   0  0  0  0  0  0  0  0  0  0  0  0
  145.2507   75.9256  220.3324 H   0  0  0  0  0  0  0  0  0  0  0  0
  146.9422   74.1344  220.7513 H   0  0  0  0  0  0  0  0  0  0  0  0
  146.1346   71.8130  221.0786 H   0  0  0  0  0  0  0  0  0  0  0  0
  143.7205   71.2594  220.9881 H   0  0  0  0  0  0  0  0  0  0  0  0
  138.4559   69.4120  222.2622 H   0  0  0  0  0  0  0  0  0  0  0  0
  138.9883   67.8696  224.1287 H   0  0  0  0  0  0  0  0  0  0  0  0
  139.9454   67.5434  226.4066 H   0  0  0  0  0  0  0  0  0  0  0  0
  141.5575   70.9816  228.4738 H   0  0  0  0  0  0  0  0  0  0  0  0
  140.9701   72.4242  226.5265 H   0  0  0  0  0  0  0  0  0  0  0  0
  1  2  2  0
  2  3  1  0
  3  4  1  0
  4  5  1  0
  5  6  2  0
  5  7  1  0
  7  8  1  0
  8  9  1  0
  9 10  1  0
 10 11  1  0
 11 12  1  0
 12 13  1  0
 13 14  2  0
 14 15  1  0
 15 16  2  0
 16 17  1  0
 17 18  2  0
  2 19  1  0
 19 20  2  0
 20 21  1  0
 21 22  2  0
 22 23  1  0
 23 24  2  0
 24 25  1  0
 24 26  1  0
 26 27  2  0
 27 28  1  0
 28 29  2  0
 12  7  1  0
 18 13  1  0
 29 19  1  0
 28 22  1  0
  3 30  1  0
  4 31  1  0
  4 32  1  0
  8 33  1  0
  8 34  1  0
  9 35  1  0
  9 36  1  0
 10 37  1  0
 10 38  1  0
 11 39  1  0
 11 40  1  0
 12 41  1  1
 14 42  1  0
 15 43  1  0
 16 44  1  0
 17 45  1  0
 18 46  1  0
 20 47  1  0
 21 48  1  0
 23 49  1  0
 26 50  1  0
 27 51  1  0
M  END
>  <smiles>  (41) 
O=C(NCC(=O)N1CCCC[C@H]1c1ccccc1)c1ccc2cc(Cl)ccc2n1

>  <score_type>  (41) 
oracle

>  <origin>  (41) 
autodockgpu

>  <m_score__min__energy>  (41) 
-9.1300000000000008

>  <m_primary>  (41) 
energy

>  <rmsd>  (41) 
2.660065851805942

>  <m_score__min__rmsd>  (41) 
2.660065851805942

>  <meeko>  (41) 
{"free_energy": -7.42, "intermolecular_energy": -8.91, "internal_energy": -2.22, "cluster_size": 16, "cluster_id": 2, "rank_in_cluster": 16}

>  <energy>  (41) 
-8.77

>  <cluster_rmsd>  (41) 
0.25

>  <cluster>  (41) 
2

$$$$

     RDKit          3D

 51 54  0  0  0  0  0  0  0  0999 V2000
  140.1540   72.4110  220.6780 O   0  0  0  0  0  0  0  0  0  0  0  0
  139.9470   72.7670  221.8740 C   0  0  0  0  0  0  0  0  0  0  0  0
  139.6800   74.1320  222.1640 N   0  0  0  0  0  0  0  0  0  0  0  0
  139.6370   75.1290  221.1360 C   0  0  0  0  0  0  0  0  0  0  0  0
  140.8310   76.0450  221.2130 C   0  0  0  0  0  0  0  0  0  0  0  0
  140.9120   76.7430  222.2500 O   0  0  0  0  0  0  0  0  0  0  0  0
  141.7840   76.0870  220.1530 N   0  0  0  0  0  0  0  0  0  0  0  0
  142.3680   77.3400  219.7930 C   0  0  0  0  0  0  0  0  0  0  0  0
  142.8010   77.4280  218.3610 C   0  0  0  0  0  0  0  0  0  0  0  0
  143.2510   76.1030  217.8020 C   0  0  0  0  0  0  0  0  0  0  0  0
  142.1740   75.0790  218.0270 C   0  0  0  0  0  0  0  0  0  0  0  0
  142.0870   74.8190  219.5080 C   0  0  1  0  0  0  0  0  0  0  0  0
  143.3080   74.1720  219.9890 C   0  0  0  0  0  0  0  0  0  0  0  0
  144.4500   74.8290  220.3940 C   0  0  0  0  0  0  0  0  0  0  0  0
  145.5790   74.1760  220.8490 C   0  0  0  0  0  0  0  0  0  0  0  0
  145.6050   72.7990  220.9160 C   0  0  0  0  0  0  0  0  0  0  0  0
  144.4740   72.1250  220.5180 C   0  0  0  0  0  0  0  0  0  0  0  0
  143.3320   72.7930  220.0580 C   0  0  0  0  0  0  0  0  0  0  0  0
  139.9750   71.7990  222.9760 C   0  0  0  0  0  0  0  0  0  0  0  0
  139.5280   70.5100  222.7850 C   0  0  0  0  0  0  0  0  0  0  0  0
  139.5530   69.5940  223.8210 C   0  0  0  0  0  0  0  0  0  0  0  0
  140.0320   69.9750  225.0670 C   0  0  0  0  0  0  0  0  0  0  0  0
  140.0830   69.1130  226.1410 C   0  0  0  0  0  0  0  0  0  0  0  0
  140.5760   69.5760  227.3500 C   0  0  0  0  0  0  0  0  0  0  0  0
  140.6480   68.4890  228.7240 Cl  0  0  0  0  0  0  0  0  0  0  0  0
  141.0180   70.8880  227.5010 C   0  0  0  0  0  0  0  0  0  0  0  0
  140.9630   71.7440  226.4220 C   0  0  0  0  0  0  0  0  0  0  0  0
  140.4670   71.2750  225.2100 C   0  0  0  0  0  0  0  0  0  0  0  0
  140.4350   72.1490  224.1940 N   0  0  0  0  0  0  0  0  0  0  0  0
  139.5120   74.3880  223.1790 H   0  0  0  0  0  0  0  0  0  0  0  0
  139.6290   74.6320  220.1547 H   0  0  0  0  0  0  0  0  0  0  0  0
  138.7271   75.7315  221.2738 H   0  0  0  0  0  0  0  0  0  0  0  0
  141.6272   78.1317  219.9785 H   0  0  0  0  0  0  0  0  0  0  0  0
  143.2752   77.4529  220.4047 H   0  0  0  0  0  0  0  0  0  0  0  0
  141.9550   77.7932  217.7603 H   0  0  0  0  0  0  0  0  0  0  0  0
  143.6601   78.1136  218.3174 H   0  0  0  0  0  0  0  0  0  0  0  0
  143.4422   76.2047  216.7235 H   0  0  0  0  0  0  0  0  0  0  0  0
  144.1748   75.7840  218.3068 H   0  0  0  0  0  0  0  0  0  0  0  0
  141.2112   75.4614  217.6571 H   0  0  0  0  0  0  0  0  0  0  0  0
  142.4089   74.1498  217.4872 H   0  0  0  0  0  0  0  0  0  0  0  0
  141.2827   74.1108  219.7562 H   0  0  0  0  0  0  0  0  0  0  0  0
  144.4630   75.9282  220.3528 H   0  0  0  0  0  0  0  0  0  0  0  0
  146.4604   74.7565  221.1590 H   0  0  0  0  0  0  0  0  0  0  0  0
  146.4952   72.2608  221.2736 H   0  0  0  0  0  0  0  0  0  0  0  0
  144.4661   71.0259  220.5624 H   0  0  0  0  0  0  0  0  0  0  0  0
  142.4482   72.2152  219.7496 H   0  0  0  0  0  0  0  0  0  0  0  0
  139.1474   70.2062  221.7987 H   0  0  0  0  0  0  0  0  0  0  0  0
  139.1945   68.5669  223.6581 H   0  0  0  0  0  0  0  0  0  0  0  0
  139.7376   68.0735  226.0399 H   0  0  0  0  0  0  0  0  0  0  0  0
  141.4062   71.2368  228.4693 H   0  0  0  0  0  0  0  0  0  0  0  0
  141.3069   72.7844  226.5181 H   0  0  0  0  0  0  0  0  0  0  0  0
  1  2  2  0
  2  3  1  0
  3  4  1  0
  4  5  1  0
  5  6  2  0
  5  7  1  0
  7  8  1  0
  8  9  1  0
  9 10  1  0
 10 11  1  0
 11 12  1  0
 12 13  1  0
 13 14  2  0
 14 15  1  0
 15 16  2  0
 16 17  1  0
 17 18  2  0
  2 19  1  0
 19 20  2  0
 20 21  1  0
 21 22  2  0
 22 23  1  0
 23 24  2  0
 24 25  1  0
 24 26  1  0
 26 27  2  0
 27 28  1  0
 28 29  2  0
 12  7  1  0
 18 13  1  0
 29 19  1  0
 28 22  1  0
  3 30  1  0
  4 31  1  0
  4 32  1  0
  8 33  1  0
  8 34  1  0
  9 35  1  0
  9 36  1  0
 10 37  1  0
 10 38  1  0
 11 39  1  0
 11 40  1  0
 12 41  1  6
 14 42  1  0
 15 43  1  0
 16 44  1  0
 17 45  1  0
 18 46  1  0
 20 47  1  0
 21 48  1  0
 23 49  1  0
 26 50  1  0
 27 51  1  0
M  END
>  <smiles>  (42) 
O=C(NCC(=O)N1CCCC[C@H]1c1ccccc1)c1ccc2cc(Cl)ccc2n1

>  <score_type>  (42) 
oracle

>  <origin>  (42) 
autodockgpu

>  <m_score__min__energy>  (42) 
-9.1300000000000008

>  <m_primary>  (42) 
energy

>  <rmsd>  (42) 
2.3402757950932003

>  <m_score__min__rmsd>  (42) 
2.3402757950932003

>  <meeko>  (42) 
{"free_energy": -8.77, "intermolecular_energy": -10.26, "internal_energy": -2.0, "cluster_size": 16, "cluster_id": 2, "rank_in_cluster": 12}

>  <energy>  (42) 
-8.63

>  <cluster_rmsd>  (42) 
0.45

>  <cluster>  (42) 
2

$$$$

     RDKit          3D

 51 54  0  0  0  0  0  0  0  0999 V2000
  140.1730   72.5170  220.7010 O   0  0  0  0  0  0  0  0  0  0  0  0
  139.9520   72.8610  221.8970 C   0  0  0  0  0  0  0  0  0  0  0  0
  139.6740   74.2220  222.1960 N   0  0  0  0  0  0  0  0  0  0  0  0
  139.6370   75.2280  221.1760 C   0  0  0  0  0  0  0  0  0  0  0  0
  139.4540   76.6010  221.7690 C   0  0  0  0  0  0  0  0  0  0  0  0
  138.9000   76.6360  222.8920 O   0  0  0  0  0  0  0  0  0  0  0  0
  139.8930   77.7600  221.0660 N   0  0  0  0  0  0  0  0  0  0  0  0
  138.9630   78.4690  220.2440 C   0  0  0  0  0  0  0  0  0  0  0  0
  139.5890   79.2040  219.0990 C   0  0  0  0  0  0  0  0  0  0  0  0
  140.9790   79.6980  219.4090 C   0  0  0  0  0  0  0  0  0  0  0  0
  141.8170   78.5490  219.8970 C   0  0  0  0  0  0  0  0  0  0  0  0
  141.2880   78.1320  221.2440 C   0  0  1  0  0  0  0  0  0  0  0  0
  141.5100   79.1880  222.2320 C   0  0  0  0  0  0  0  0  0  0  0  0
  140.5190   79.9010  222.8710 C   0  0  0  0  0  0  0  0  0  0  0  0
  140.7760   80.8870  223.8050 C   0  0  0  0  0  0  0  0  0  0  0  0
  142.0760   81.2020  224.1420 C   0  0  0  0  0  0  0  0  0  0  0  0
  143.0790   80.5000  223.5150 C   0  0  0  0  0  0  0  0  0  0  0  0
  142.8120   79.5020  222.5700 C   0  0  0  0  0  0  0  0  0  0  0  0
  139.9740   71.8840  222.9920 C   0  0  0  0  0  0  0  0  0  0  0  0
  139.5200   70.5980  222.7890 C   0  0  0  0  0  0  0  0  0  0  0  0
  139.5390   69.6740  223.8180 C   0  0  0  0  0  0  0  0  0  0  0  0
  140.0190   70.0420  225.0670 C   0  0  0  0  0  0  0  0  0  0  0  0
  140.0650   69.1710  226.1340 C   0  0  0  0  0  0  0  0  0  0  0  0
  140.5590   69.6220  227.3470 C   0  0  0  0  0  0  0  0  0  0  0  0
  140.6240   68.5230  228.7120 Cl  0  0  0  0  0  0  0  0  0  0  0  0
  141.0070   70.9300  227.5100 C   0  0  0  0  0  0  0  0  0  0  0  0
  140.9570   71.7950  226.4380 C   0  0  0  0  0  0  0  0  0  0  0  0
  140.4610   71.3380  225.2210 C   0  0  0  0  0  0  0  0  0  0  0  0
  140.4340   72.2210  224.2120 N   0  0  0  0  0  0  0  0  0  0  0  0
  139.4940   74.4680  223.2110 H   0  0  0  0  0  0  0  0  0  0  0  0
  140.5821   75.2034  220.6137 H   0  0  0  0  0  0  0  0  0  0  0  0
  138.7846   75.0194  220.5127 H   0  0  0  0  0  0  0  0  0  0  0  0
  138.2421   77.7452  219.8360 H   0  0  0  0  0  0  0  0  0  0  0  0
  138.4903   79.2277  220.8850 H   0  0  0  0  0  0  0  0  0  0  0  0
  139.6420   78.5266  218.2340 H   0  0  0  0  0  0  0  0  0  0  0  0
  138.9642   80.0851  218.8911 H   0  0  0  0  0  0  0  0  0  0  0  0
  141.4299   80.1214  218.4994 H   0  0  0  0  0  0  0  0  0  0  0  0
  140.9294   80.4745  220.1866 H   0  0  0  0  0  0  0  0  0  0  0  0
  141.7468   77.7084  219.1910 H   0  0  0  0  0  0  0  0  0  0  0  0
  142.8723   78.8494  219.9752 H   0  0  0  0  0  0  0  0  0  0  0  0
  141.8238   77.2591  221.6452 H   0  0  0  0  0  0  0  0  0  0  0  0
  139.4710   79.6742  222.6256 H   0  0  0  0  0  0  0  0  0  0  0  0
  139.9412   81.4222  224.2811 H   0  0  0  0  0  0  0  0  0  0  0  0
  142.3016   81.9834  224.8826 H   0  0  0  0  0  0  0  0  0  0  0  0
  144.1254   80.7303  223.7642 H   0  0  0  0  0  0  0  0  0  0  0  0
  143.6449   78.9642  222.0934 H   0  0  0  0  0  0  0  0  0  0  0  0
  139.1392   70.3042  221.7997 H   0  0  0  0  0  0  0  0  0  0  0  0
  139.1747   68.6503  223.6468 H   0  0  0  0  0  0  0  0  0  0  0  0
  139.7150   68.1340  226.0241 H   0  0  0  0  0  0  0  0  0  0  0  0
  141.3958   71.2688  228.4816 H   0  0  0  0  0  0  0  0  0  0  0  0
  141.3048   72.8333  226.5433 H   0  0  0  0  0  0  0  0  0  0  0  0
  1  2  2  0
  2  3  1  0
  3  4  1  0
  4  5  1  0
  5  6  2  0
  5  7  1  0
  7  8  1  0
  8  9  1  0
  9 10  1  0
 10 11  1  0
 11 12  1  0
 12 13  1  0
 13 14  2  0
 14 15  1  0
 15 16  2  0
 16 17  1  0
 17 18  2  0
  2 19  1  0
 19 20  2  0
 20 21  1  0
 21 22  2  0
 22 23  1  0
 23 24  2  0
 24 25  1  0
 24 26  1  0
 26 27  2  0
 27 28  1  0
 28 29  2  0
 12  7  1  0
 18 13  1  0
 29 19  1  0
 28 22  1  0
  3 30  1  0
  4 31  1  0
  4 32  1  0
  8 33  1  0
  8 34  1  0
  9 35  1  0
  9 36  1  0
 10 37  1  0
 10 38  1  0
 11 39  1  0
 11 40  1  0
 12 41  1  1
 14 42  1  0
 15 43  1  0
 16 44  1  0
 17 45  1  0
 18 46  1  0
 20 47  1  0
 21 48  1  0
 23 49  1  0
 26 50  1  0
 27 51  1  0
M  END
>  <smiles>  (43) 
O=C(NCC(=O)N1CCCC[C@H]1c1ccccc1)c1ccc2cc(Cl)ccc2n1

>  <score_type>  (43) 
oracle

>  <origin>  (43) 
autodockgpu

>  <m_score__min__energy>  (43) 
-9.1300000000000008

>  <m_primary>  (43) 
energy

>  <rmsd>  (43) 
2.3267290321277465

>  <m_score__min__rmsd>  (43) 
2.3267290321277465

>  <meeko>  (43) 
{"free_energy": -8.96, "intermolecular_energy": -10.45, "internal_energy": -1.99, "cluster_size": 29, "cluster_id": 1, "rank_in_cluster": 13}

>  <energy>  (43) 
-8.58

>  <cluster_rmsd>  (43) 
0.6

>  <cluster>  (43) 
2

$$$$

     RDKit          3D

 51 54  0  0  0  0  0  0  0  0999 V2000
  133.6780   69.2280  226.4800 O   0  0  0  0  0  0  0  0  0  0  0  0
  134.1310   70.3650  226.1620 C   0  0  0  0  0  0  0  0  0  0  0  0
  135.3520   70.4570  225.4410 N   0  0  0  0  0  0  0  0  0  0  0  0
  136.0940   69.2930  225.0590 C   0  0  0  0  0  0  0  0  0  0  0  0
  137.5050   69.6480  224.6670 C   0  0  0  0  0  0  0  0  0  0  0  0
  137.6150   70.5100  223.7640 O   0  0  0  0  0  0  0  0  0  0  0  0
  138.6160   69.0220  225.3040 N   0  0  0  0  0  0  0  0  0  0  0  0
  139.4090   68.0930  224.5630 C   0  0  0  0  0  0  0  0  0  0  0  0
  140.0780   67.0480  225.4030 C   0  0  0  0  0  0  0  0  0  0  0  0
  140.4380   67.5450  226.7800 C   0  0  0  0  0  0  0  0  0  0  0  0
  139.2140   68.1260  227.4320 C   0  0  0  0  0  0  0  0  0  0  0  0
  138.8520   69.3870  226.6930 C   0  0  1  0  0  0  0  0  0  0  0  0
  139.8830   70.4080  226.8810 C   0  0  0  0  0  0  0  0  0  0  0  0
  140.6960   70.9110  225.8890 C   0  0  0  0  0  0  0  0  0  0  0  0
  141.6540   71.8820  226.1120 C   0  0  0  0  0  0  0  0  0  0  0  0
  141.8360   72.3990  227.3780 C   0  0  0  0  0  0  0  0  0  0  0  0
  141.0330   71.9090  228.3820 C   0  0  0  0  0  0  0  0  0  0  0  0
  140.0650   70.9250  228.1490 C   0  0  0  0  0  0  0  0  0  0  0  0
  133.4230   71.5990  226.5210 C   0  0  0  0  0  0  0  0  0  0  0  0
  132.1810   71.5440  227.1150 C   0  0  0  0  0  0  0  0  0  0  0  0
  131.5100   72.7040  227.4550 C   0  0  0  0  0  0  0  0  0  0  0  0
  132.0910   73.9380  227.1960 C   0  0  0  0  0  0  0  0  0  0  0  0
  131.4760   75.1310  227.5090 C   0  0  0  0  0  0  0  0  0  0  0  0
  132.1270   76.3180  227.2150 C   0  0  0  0  0  0  0  0  0  0  0  0
  131.3570   77.8430  227.6080 Cl  0  0  0  0  0  0  0  0  0  0  0  0
  133.3830   76.3300  226.6130 C   0  0  0  0  0  0  0  0  0  0  0  0
  133.9900   75.1320  226.3030 C   0  0  0  0  0  0  0  0  0  0  0  0
  133.3330   73.9420  226.6000 C   0  0  0  0  0  0  0  0  0  0  0  0
  133.9690   72.8060  226.2770 N   0  0  0  0  0  0  0  0  0  0  0  0
  135.6960   71.4280  225.1940 H   0  0  0  0  0  0  0  0  0  0  0  0
  136.1230   68.5923  225.9065 H   0  0  0  0  0  0  0  0  0  0  0  0
  135.5975   68.8338  224.1915 H   0  0  0  0  0  0  0  0  0  0  0  0
  138.7571   67.5860  223.8364 H   0  0  0  0  0  0  0  0  0  0  0  0
  140.2109   68.6741  224.0842 H   0  0  0  0  0  0  0  0  0  0  0  0
  139.3962   66.1910  225.5062 H   0  0  0  0  0  0  0  0  0  0  0  0
  141.0140   66.7675  224.8978 H   0  0  0  0  0  0  0  0  0  0  0  0
  140.8155   66.7082  227.3860 H   0  0  0  0  0  0  0  0  0  0  0  0
  141.2170   68.3177  226.7019 H   0  0  0  0  0  0  0  0  0  0  0  0
  138.3831   67.4074  227.3749 H   0  0  0  0  0  0  0  0  0  0  0  0
  139.4113   68.3455  228.4917 H   0  0  0  0  0  0  0  0  0  0  0  0
  137.9327   69.8454  227.0864 H   0  0  0  0  0  0  0  0  0  0  0  0
  140.5766   70.5200  224.8678 H   0  0  0  0  0  0  0  0  0  0  0  0
  142.2731   72.2436  225.2777 H   0  0  0  0  0  0  0  0  0  0  0  0
  142.5928   73.1721  227.5768 H   0  0  0  0  0  0  0  0  0  0  0  0
  141.1557   72.3035  229.4015 H   0  0  0  0  0  0  0  0  0  0  0  0
  139.4449   70.5609  228.9814 H   0  0  0  0  0  0  0  0  0  0  0  0
  131.7187   70.5673  227.3208 H   0  0  0  0  0  0  0  0  0  0  0  0
  130.5190   72.6494  227.9292 H   0  0  0  0  0  0  0  0  0  0  0  0
  130.4842   75.1405  227.9846 H   0  0  0  0  0  0  0  0  0  0  0  0
  133.8839   77.2831  226.3879 H   0  0  0  0  0  0  0  0  0  0  0  0
  134.9814   75.1169  225.8267 H   0  0  0  0  0  0  0  0  0  0  0  0
  1  2  2  0
  2  3  1  0
  3  4  1  0
  4  5  1  0
  5  6  2  0
  5  7  1  0
  7  8  1  0
  8  9  1  0
  9 10  1  0
 10 11  1  0
 11 12  1  0
 12 13  1  0
 13 14  2  0
 14 15  1  0
 15 16  2  0
 16 17  1  0
 17 18  2  0
  2 19  1  0
 19 20  2  0
 20 21  1  0
 21 22  2  0
 22 23  1  0
 23 24  2  0
 24 25  1  0
 24 26  1  0
 26 27  2  0
 27 28  1  0
 28 29  2  0
 12  7  1  0
 18 13  1  0
 29 19  1  0
 28 22  1  0
  3 30  1  0
  4 31  1  0
  4 32  1  0
  8 33  1  0
  8 34  1  0
  9 35  1  0
  9 36  1  0
 10 37  1  0
 10 38  1  0
 11 39  1  0
 11 40  1  0
 12 41  1  1
 14 42  1  0
 15 43  1  0
 16 44  1  0
 17 45  1  0
 18 46  1  0
 20 47  1  0
 21 48  1  0
 23 49  1  0
 26 50  1  0
 27 51  1  0
M  END
>  <smiles>  (44) 
O=C(NCC(=O)N1CCCC[C@H]1c1ccccc1)c1ccc2cc(Cl)ccc2n1

>  <score_type>  (44) 
oracle

>  <origin>  (44) 
autodockgpu

>  <m_score__min__energy>  (44) 
-9.1300000000000008

>  <m_primary>  (44) 
energy

>  <rmsd>  (44) 
9.323446792780038

>  <m_score__min__rmsd>  (44) 
9.323446792780038

>  <meeko>  (44) 
{"free_energy": -8.2, "intermolecular_energy": -9.7, "internal_energy": -1.9, "cluster_size": 3, "cluster_id": 3, "rank_in_cluster": 2}

>  <energy>  (44) 
-7.79

>  <cluster_rmsd>  (44) 
0.72

>  <cluster>  (44) 
2

$$$$

     RDKit          3D

 51 54  0  0  0  0  0  0  0  0999 V2000
  140.1470   72.5200  220.7090 O   0  0  0  0  0  0  0  0  0  0  0  0
  139.9210   72.8540  221.9070 C   0  0  0  0  0  0  0  0  0  0  0  0
  139.6190   74.2070  222.2150 N   0  0  0  0  0  0  0  0  0  0  0  0
  139.5630   75.2190  221.2010 C   0  0  0  0  0  0  0  0  0  0  0  0
  140.7710   76.1170  221.2570 C   0  0  0  0  0  0  0  0  0  0  0  0
  140.8690   76.8300  222.2820 O   0  0  0  0  0  0  0  0  0  0  0  0
  141.7180   76.1270  220.1910 N   0  0  0  0  0  0  0  0  0  0  0  0
  142.2780   77.3730  219.7710 C   0  0  0  0  0  0  0  0  0  0  0  0
  142.7020   77.4050  218.3350 C   0  0  0  0  0  0  0  0  0  0  0  0
  143.1730   76.0630  217.8330 C   0  0  0  0  0  0  0  0  0  0  0  0
  142.1150   75.0320  218.1100 C   0  0  0  0  0  0  0  0  0  0  0  0
  142.0390   74.8370  219.6010 C   0  0  1  0  0  0  0  0  0  0  0  0
  143.2740   74.2340  220.1040 C   0  0  0  0  0  0  0  0  0  0  0  0
  144.4450   74.9130  220.3590 C   0  0  0  0  0  0  0  0  0  0  0  0
  145.5870   74.3020  220.8420 C   0  0  0  0  0  0  0  0  0  0  0  0
  145.5950   72.9460  221.0930 C   0  0  0  0  0  0  0  0  0  0  0  0
  144.4340   72.2510  220.8450 C   0  0  0  0  0  0  0  0  0  0  0  0
  143.2810   72.8760  220.3560 C   0  0  0  0  0  0  0  0  0  0  0  0
  139.9620   71.8710  222.9960 C   0  0  0  0  0  0  0  0  0  0  0  0
  139.5270   70.5790  222.7870 C   0  0  0  0  0  0  0  0  0  0  0  0
  139.5640   69.6490  223.8100 C   0  0  0  0  0  0  0  0  0  0  0  0
  140.0430   70.0180  225.0600 C   0  0  0  0  0  0  0  0  0  0  0  0
  140.1060   69.1400  226.1210 C   0  0  0  0  0  0  0  0  0  0  0  0
  140.5980   69.5910  227.3350 C   0  0  0  0  0  0  0  0  0  0  0  0
  140.6850   68.4860  228.6930 Cl  0  0  0  0  0  0  0  0  0  0  0  0
  141.0270   70.9050  227.5040 C   0  0  0  0  0  0  0  0  0  0  0  0
  140.9600   71.7760  226.4370 C   0  0  0  0  0  0  0  0  0  0  0  0
  140.4660   71.3190  225.2200 C   0  0  0  0  0  0  0  0  0  0  0  0
  140.4220   72.2070  224.2160 N   0  0  0  0  0  0  0  0  0  0  0  0
  139.4360   74.4440  223.2310 H   0  0  0  0  0  0  0  0  0  0  0  0
  139.5215   74.7353  220.2139 H   0  0  0  0  0  0  0  0  0  0  0  0
  138.6660   75.8324  221.3718 H   0  0  0  0  0  0  0  0  0  0  0  0
  141.5241   78.1590  219.9252 H   0  0  0  0  0  0  0  0  0  0  0  0
  143.1865   77.5285  220.3714 H   0  0  0  0  0  0  0  0  0  0  0  0
  141.8467   77.7282  217.7234 H   0  0  0  0  0  0  0  0  0  0  0  0
  143.5484   78.1031  218.2558 H   0  0  0  0  0  0  0  0  0  0  0  0
  143.3570   76.1194  216.7500 H   0  0  0  0  0  0  0  0  0  0  0  0
  144.1049   75.7830  218.3461 H   0  0  0  0  0  0  0  0  0  0  0  0
  141.1440   75.3809  217.7286 H   0  0  0  0  0  0  0  0  0  0  0  0
  142.3639   74.0836  217.6114 H   0  0  0  0  0  0  0  0  0  0  0  0
  141.2478   74.1271  219.8840 H   0  0  0  0  0  0  0  0  0  0  0  0
  144.4728   75.9961  220.1687 H   0  0  0  0  0  0  0  0  0  0  0  0
  146.4921   74.8992  221.0267 H   0  0  0  0  0  0  0  0  0  0  0  0
  146.4937   72.4404  221.4761 H   0  0  0  0  0  0  0  0  0  0  0  0
  144.4110   71.1682  221.0374 H   0  0  0  0  0  0  0  0  0  0  0  0
  142.3741   72.2815  220.1711 H   0  0  0  0  0  0  0  0  0  0  0  0
  139.1470   70.2855  221.7973 H   0  0  0  0  0  0  0  0  0  0  0  0
  139.2152   68.6207  223.6340 H   0  0  0  0  0  0  0  0  0  0  0  0
  139.7712   68.0986  226.0056 H   0  0  0  0  0  0  0  0  0  0  0  0
  141.4143   71.2438  228.4762 H   0  0  0  0  0  0  0  0  0  0  0  0
  141.2930   72.8186  226.5471 H   0  0  0  0  0  0  0  0  0  0  0  0
  1  2  2  0
  2  3  1  0
  3  4  1  0
  4  5  1  0
  5  6  2  0
  5  7  1  0
  7  8  1  0
  8  9  1  0
  9 10  1  0
 10 11  1  0
 11 12  1  0
 12 13  1  0
 13 14  2  0
 14 15  1  0
 15 16  2  0
 16 17  1  0
 17 18  2  0
  2 19  1  0
 19 20  2  0
 20 21  1  0
 21 22  2  0
 22 23  1  0
 23 24  2  0
 24 25  1  0
 24 26  1  0
 26 27  2  0
 27 28  1  0
 28 29  2  0
 12  7  1  0
 18 13  1  0
 29 19  1  0
 28 22  1  0
  3 30  1  0
  4 31  1  0
  4 32  1  0
  8 33  1  0
  8 34  1  0
  9 35  1  0
  9 36  1  0
 10 37  1  0
 10 38  1  0
 11 39  1  0
 11 40  1  0
 12 41  1  6
 14 42  1  0
 15 43  1  0
 16 44  1  0
 17 45  1  0
 18 46  1  0
 20 47  1  0
 21 48  1  0
 23 49  1  0
 26 50  1  0
 27 51  1  0
M  END
>  <smiles>  (45) 
O=C(NCC(=O)N1CCCC[C@H]1c1ccccc1)c1ccc2cc(Cl)ccc2n1

>  <score_type>  (45) 
oracle

>  <origin>  (45) 
autodockgpu

>  <m_score__min__energy>  (45) 
-9.1300000000000008

>  <m_primary>  (45) 
energy

>  <rmsd>  (45) 
2.3329066915475503

>  <m_score__min__rmsd>  (45) 
2.3329066915475503

>  <meeko>  (45) 
{"free_energy": -8.82, "intermolecular_energy": -10.31, "internal_energy": -1.98, "cluster_size": 16, "cluster_id": 2, "rank_in_cluster": 6}

>  <energy>  (45) 
-7.42

>  <cluster_rmsd>  (45) 
1.4

>  <cluster>  (45) 
2

$$$$

     RDKit          3D

 51 54  0  0  0  0  0  0  0  0999 V2000
  140.0900   72.1800  220.6460 O   0  0  0  0  0  0  0  0  0  0  0  0
  139.9210   72.5450  221.8450 C   0  0  0  0  0  0  0  0  0  0  0  0
  139.6880   73.9150  222.1350 N   0  0  0  0  0  0  0  0  0  0  0  0
  139.6370   74.9090  221.1040 C   0  0  0  0  0  0  0  0  0  0  0  0
  140.7750   75.8880  221.2310 C   0  0  0  0  0  0  0  0  0  0  0  0
  140.8200   76.5310  222.3050 O   0  0  0  0  0  0  0  0  0  0  0  0
  141.7190   76.0450  220.1740 N   0  0  0  0  0  0  0  0  0  0  0  0
  142.2420   77.3450  219.8960 C   0  0  0  0  0  0  0  0  0  0  0  0
  142.6620   77.5480  218.4730 C   0  0  0  0  0  0  0  0  0  0  0  0
  143.1710   76.2860  217.8260 C   0  0  0  0  0  0  0  0  0  0  0  0
  142.1440   75.1990  217.9850 C   0  0  0  0  0  0  0  0  0  0  0  0
  142.0770   74.8380  219.4460 C   0  0  1  0  0  0  0  0  0  0  0  0
  143.3300   74.2190  219.8800 C   0  0  0  0  0  0  0  0  0  0  0  0
  144.4100   74.8940  220.4080 C   0  0  0  0  0  0  0  0  0  0  0  0
  145.5720   74.2660  220.8130 C   0  0  0  0  0  0  0  0  0  0  0  0
  145.6980   72.8970  220.6980 C   0  0  0  0  0  0  0  0  0  0  0  0
  144.6310   72.2060  220.1740 C   0  0  0  0  0  0  0  0  0  0  0  0
  143.4550   72.8490  219.7660 C   0  0  0  0  0  0  0  0  0  0  0  0
  139.9600   71.5810  222.9500 C   0  0  0  0  0  0  0  0  0  0  0  0
  139.5060   70.2920  222.7700 C   0  0  0  0  0  0  0  0  0  0  0  0
  139.5410   69.3810  223.8090 C   0  0  0  0  0  0  0  0  0  0  0  0
  140.0380   69.7650  225.0470 C   0  0  0  0  0  0  0  0  0  0  0  0
  140.1010   68.9060  226.1240 C   0  0  0  0  0  0  0  0  0  0  0  0
  140.6120   69.3730  227.3240 C   0  0  0  0  0  0  0  0  0  0  0  0
  140.6980   68.2910  228.7010 Cl  0  0  0  0  0  0  0  0  0  0  0  0
  141.0600   70.6830  227.4640 C   0  0  0  0  0  0  0  0  0  0  0  0
  140.9940   71.5350  226.3820 C   0  0  0  0  0  0  0  0  0  0  0  0
  140.4800   71.0630  225.1790 C   0  0  0  0  0  0  0  0  0  0  0  0
  140.4380   71.9340  224.1600 N   0  0  0  0  0  0  0  0  0  0  0  0
  139.5510   74.1790  223.1530 H   0  0  0  0  0  0  0  0  0  0  0  0
  139.6989   74.4127  220.1243 H   0  0  0  0  0  0  0  0  0  0  0  0
  138.6909   75.4617  221.2010 H   0  0  0  0  0  0  0  0  0  0  0  0
  141.4662   78.0871  220.1356 H   0  0  0  0  0  0  0  0  0  0  0  0
  143.1467   77.4592  220.5112 H   0  0  0  0  0  0  0  0  0  0  0  0
  141.7963   77.9116  217.9000 H   0  0  0  0  0  0  0  0  0  0  0  0
  143.4875   78.2750  218.4731 H   0  0  0  0  0  0  0  0  0  0  0  0
  143.3513   76.4680  216.7563 H   0  0  0  0  0  0  0  0  0  0  0  0
  144.1117   75.9784  218.3061 H   0  0  0  0  0  0  0  0  0  0  0  0
  141.1624   75.5589  217.6432 H   0  0  0  0  0  0  0  0  0  0  0  0
  142.4196   74.3196  217.3845 H   0  0  0  0  0  0  0  0  0  0  0  0
  141.3079   74.0782  219.6489 H   0  0  0  0  0  0  0  0  0  0  0  0
  144.3432   75.9870  220.5120 H   0  0  0  0  0  0  0  0  0  0  0  0
  146.3996   74.8596  221.2286 H   0  0  0  0  0  0  0  0  0  0  0  0
  146.6157   72.3788  221.0130 H   0  0  0  0  0  0  0  0  0  0  0  0
  144.7030   71.1131  220.0718 H   0  0  0  0  0  0  0  0  0  0  0  0
  142.6251   72.2577  219.3517 H   0  0  0  0  0  0  0  0  0  0  0  0
  139.1119   69.9853  221.7899 H   0  0  0  0  0  0  0  0  0  0  0  0
  139.1761   68.3547  223.6553 H   0  0  0  0  0  0  0  0  0  0  0  0
  139.7513   67.8672  226.0318 H   0  0  0  0  0  0  0  0  0  0  0  0
  141.4617   71.0344  228.4258 H   0  0  0  0  0  0  0  0  0  0  0  0
  141.3433   72.5744  226.4691 H   0  0  0  0  0  0  0  0  0  0  0  0
  1  2  2  0
  2  3  1  0
  3  4  1  0
  4  5  1  0
  5  6  2  0
  5  7  1  0
  7  8  1  0
  8  9  1  0
  9 10  1  0
 10 11  1  0
 11 12  1  0
 12 13  1  0
 13 14  2  0
 14 15  1  0
 15 16  2  0
 16 17  1  0
 17 18  2  0
  2 19  1  0
 19 20  2  0
 20 21  1  0
 21 22  2  0
 22 23  1  0
 23 24  2  0
 24 25  1  0
 24 26  1  0
 26 27  2  0
 27 28  1  0
 28 29  2  0
 12  7  1  0
 18 13  1  0
 29 19  1  0
 28 22  1  0
  3 30  1  0
  4 31  1  0
  4 32  1  0
  8 33  1  0
  8 34  1  0
  9 35  1  0
  9 36  1  0
 10 37  1  0
 10 38  1  0
 11 39  1  0
 11 40  1  0
 12 41  1  6
 14 42  1  0
 15 43  1  0
 16 44  1  0
 17 45  1  0
 18 46  1  0
 20 47  1  0
 21 48  1  0
 23 49  1  0
 26 50  1  0
 27 51  1  0
M  END
>  <smiles>  (46) 
O=C(NCC(=O)N1CCCC[C@H]1c1ccccc1)c1ccc2cc(Cl)ccc2n1

>  <score_type>  (46) 
oracle

>  <origin>  (46) 
autodockgpu

>  <m_score__min__energy>  (46) 
-9.1300000000000008

>  <m_primary>  (46) 
energy

>  <rmsd>  (46) 
2.260434191728355

>  <m_score__min__rmsd>  (46) 
2.260434191728355

>  <meeko>  (46) 
{"free_energy": -8.79, "intermolecular_energy": -10.28, "internal_energy": -1.97, "cluster_size": 16, "cluster_id": 2, "rank_in_cluster": 9}

>  <energy>  (46) 
-8.43

>  <cluster_rmsd>  (46) 
0.0

>  <cluster>  (46) 
3

$$$$

     RDKit          3D

 51 54  0  0  0  0  0  0  0  0999 V2000
  140.3590   72.4690  220.7170 O   0  0  0  0  0  0  0  0  0  0  0  0
  139.9150   72.7640  221.8640 C   0  0  0  0  0  0  0  0  0  0  0  0
  139.3700   74.0550  222.0940 N   0  0  0  0  0  0  0  0  0  0  0  0
  139.3050   75.0450  221.0600 C   0  0  0  0  0  0  0  0  0  0  0  0
  139.3910   76.4370  221.6300 C   0  0  0  0  0  0  0  0  0  0  0  0
  138.8940   76.5870  222.7700 O   0  0  0  0  0  0  0  0  0  0  0  0
  140.0040   77.4890  220.8880 N   0  0  0  0  0  0  0  0  0  0  0  0
  139.2660   78.1210  219.8400 C   0  0  0  0  0  0  0  0  0  0  0  0
  140.1170   78.6920  218.7470 C   0  0  0  0  0  0  0  0  0  0  0  0
  141.4570   79.1780  219.2390 C   0  0  0  0  0  0  0  0  0  0  0  0
  142.1380   78.0710  219.9950 C   0  0  0  0  0  0  0  0  0  0  0  0
  141.3650   77.8370  221.2660 C   0  0  1  0  0  0  0  0  0  0  0  0
  141.4670   78.9970  222.1520 C   0  0  0  0  0  0  0  0  0  0  0  0
  140.4030   79.7350  222.6230 C   0  0  0  0  0  0  0  0  0  0  0  0
  140.5480   80.8210  223.4650 C   0  0  0  0  0  0  0  0  0  0  0  0
  141.8030   81.2180  223.8770 C   0  0  0  0  0  0  0  0  0  0  0  0
  142.8780   80.4920  223.4180 C   0  0  0  0  0  0  0  0  0  0  0  0
  142.7240   79.3930  222.5650 C   0  0  0  0  0  0  0  0  0  0  0  0
  139.9490   71.8000  222.9690 C   0  0  0  0  0  0  0  0  0  0  0  0
  139.4790   70.5160  222.7910 C   0  0  0  0  0  0  0  0  0  0  0  0
  139.5100   69.6040  223.8300 C   0  0  0  0  0  0  0  0  0  0  0  0
  140.0170   69.9820  225.0650 C   0  0  0  0  0  0  0  0  0  0  0  0
  140.0760   69.1230  226.1410 C   0  0  0  0  0  0  0  0  0  0  0  0
  140.5980   69.5830  227.3390 C   0  0  0  0  0  0  0  0  0  0  0  0
  140.6790   68.5000  228.7150 Cl  0  0  0  0  0  0  0  0  0  0  0  0
  141.0620   70.8880  227.4770 C   0  0  0  0  0  0  0  0  0  0  0  0
  140.9990   71.7410  226.3960 C   0  0  0  0  0  0  0  0  0  0  0  0
  140.4750   71.2750  225.1950 C   0  0  0  0  0  0  0  0  0  0  0  0
  140.4370   72.1460  224.1760 N   0  0  0  0  0  0  0  0  0  0  0  0
  139.0090   74.2610  223.0690 H   0  0  0  0  0  0  0  0  0  0  0  0
  140.1418   74.8907  220.3629 H   0  0  0  0  0  0  0  0  0  0  0  0
  138.3414   74.9414  220.5396 H   0  0  0  0  0  0  0  0  0  0  0  0
  138.5894   77.3756  219.3966 H   0  0  0  0  0  0  0  0  0  0  0  0
  138.7294   78.9658  220.2965 H   0  0  0  0  0  0  0  0  0  0  0  0
  140.2832   77.9129  217.9884 H   0  0  0  0  0  0  0  0  0  0  0  0
  139.5832   79.5600  218.3326 H   0  0  0  0  0  0  0  0  0  0  0  0
  142.0785   79.4740  218.3811 H   0  0  0  0  0  0  0  0  0  0  0  0
  141.3150   80.0446  219.9014 H   0  0  0  0  0  0  0  0  0  0  0  0
  142.1464   77.1536  219.3881 H   0  0  0  0  0  0  0  0  0  0  0  0
  143.1784   78.3457  220.2235 H   0  0  0  0  0  0  0  0  0  0  0  0
  141.7795   77.0034  221.8520 H   0  0  0  0  0  0  0  0  0  0  0  0
  139.3880   79.4453  222.3134 H   0  0  0  0  0  0  0  0  0  0  0  0
  139.6592   81.3710  223.8080 H   0  0  0  0  0  0  0  0  0  0  0  0
  141.9391   82.0806  224.5459 H   0  0  0  0  0  0  0  0  0  0  0  0
  143.8909   80.7847  223.7315 H   0  0  0  0  0  0  0  0  0  0  0  0
  143.6108   78.8405  222.2210 H   0  0  0  0  0  0  0  0  0  0  0  0
  139.0755   70.2143  221.8132 H   0  0  0  0  0  0  0  0  0  0  0  0
  139.1337   68.5816  223.6778 H   0  0  0  0  0  0  0  0  0  0  0  0
  139.7142   68.0882  226.0501 H   0  0  0  0  0  0  0  0  0  0  0  0
  141.4737   71.2342  228.4365 H   0  0  0  0  0  0  0  0  0  0  0  0
  141.3586   72.7770  226.4822 H   0  0  0  0  0  0  0  0  0  0  0  0
  1  2  2  0
  2  3  1  0
  3  4  1  0
  4  5  1  0
  5  6  2  0
  5  7  1  0
  7  8  1  0
  8  9  1  0
  9 10  1  0
 10 11  1  0
 11 12  1  0
 12 13  1  0
 13 14  2  0
 14 15  1  0
 15 16  2  0
 16 17  1  0
 17 18  2  0
  2 19  1  0
 19 20  2  0
 20 21  1  0
 21 22  2  0
 22 23  1  0
 23 24  2  0
 24 25  1  0
 24 26  1  0
 26 27  2  0
 27 28  1  0
 28 29  2  0
 12  7  1  0
 18 13  1  0
 29 19  1  0
 28 22  1  0
  3 30  1  0
  4 31  1  0
  4 32  1  0
  8 33  1  0
  8 34  1  0
  9 35  1  0
  9 36  1  0
 10 37  1  0
 10 38  1  0
 11 39  1  0
 11 40  1  0
 12 41  1  1
 14 42  1  0
 15 43  1  0
 16 44  1  0
 17 45  1  0
 18 46  1  0
 20 47  1  0
 21 48  1  0
 23 49  1  0
 26 50  1  0
 27 51  1  0
M  END
>  <smiles>  (47) 
O=C(NCC(=O)N1CCCC[C@H]1c1ccccc1)c1ccc2cc(Cl)ccc2n1

>  <score_type>  (47) 
oracle

>  <origin>  (47) 
autodockgpu

>  <m_score__min__energy>  (47) 
-9.1300000000000008

>  <m_primary>  (47) 
energy

>  <rmsd>  (47) 
2.1031983043009648

>  <m_score__min__rmsd>  (47) 
2.1031983043009648

>  <meeko>  (47) 
{"free_energy": -9.08, "intermolecular_energy": -10.57, "internal_energy": -1.84, "cluster_size": 29, "cluster_id": 1, "rank_in_cluster": 6}

>  <energy>  (47) 
-8.2

>  <cluster_rmsd>  (47) 
1.41

>  <cluster>  (47) 
3

$$$$

     RDKit          3D

 51 54  0  0  0  0  0  0  0  0999 V2000
  133.5500   69.9430  226.2670 O   0  0  0  0  0  0  0  0  0  0  0  0
  133.6360   71.0580  225.6760 C   0  0  0  0  0  0  0  0  0  0  0  0
  134.2390   71.1250  224.3910 N   0  0  0  0  0  0  0  0  0  0  0  0
  134.7560   69.9600  223.7360 C   0  0  0  0  0  0  0  0  0  0  0  0
  135.9260   69.3840  224.4900 C   0  0  0  0  0  0  0  0  0  0  0  0
  135.6430   68.5140  225.3460 O   0  0  0  0  0  0  0  0  0  0  0  0
  137.2540   69.8270  224.2210 N   0  0  0  0  0  0  0  0  0  0  0  0
  137.4810   71.2080  223.9340 C   0  0  0  0  0  0  0  0  0  0  0  0
  138.6730   71.4680  223.0650 C   0  0  0  0  0  0  0  0  0  0  0  0
  139.7780   70.4630  223.2680 C   0  0  0  0  0  0  0  0  0  0  0  0
  139.2220   69.0760  223.1010 C   0  0  0  0  0  0  0  0  0  0  0  0
  138.2930   68.8090  224.2560 C   0  0  1  0  0  0  0  0  0  0  0  0
  139.0390   68.7520  225.5140 C   0  0  0  0  0  0  0  0  0  0  0  0
  138.8790   69.6170  226.5740 C   0  0  0  0  0  0  0  0  0  0  0  0
  139.6020   69.5200  227.7480 C   0  0  0  0  0  0  0  0  0  0  0  0
  140.5410   68.5220  227.9040 C   0  0  0  0  0  0  0  0  0  0  0  0
  140.7140   67.6470  226.8560 C   0  0  0  0  0  0  0  0  0  0  0  0
  139.9780   67.7510  225.6700 C   0  0  0  0  0  0  0  0  0  0  0  0
  133.1280   72.2900  226.2870 C   0  0  0  0  0  0  0  0  0  0  0  0
  132.0250   72.2560  227.1140 C   0  0  0  0  0  0  0  0  0  0  0  0
  131.5420   73.4160  227.6930 C   0  0  0  0  0  0  0  0  0  0  0  0
  132.1710   74.6270  227.4390 C   0  0  0  0  0  0  0  0  0  0  0  0
  131.7410   75.8180  227.9830 C   0  0  0  0  0  0  0  0  0  0  0  0
  132.4270   76.9820  227.6770 C   0  0  0  0  0  0  0  0  0  0  0  0
  131.8910   78.5030  228.3630 Cl  0  0  0  0  0  0  0  0  0  0  0  0
  133.5370   76.9720  226.8370 C   0  0  0  0  0  0  0  0  0  0  0  0
  133.9610   75.7770  226.2970 C   0  0  0  0  0  0  0  0  0  0  0  0
  133.2690   74.6110  226.6060 C   0  0  0  0  0  0  0  0  0  0  0  0
  133.7230   73.4760  226.0540 N   0  0  0  0  0  0  0  0  0  0  0  0
  134.2910   72.0780  223.9300 H   0  0  0  0  0  0  0  0  0  0  0  0
  133.9616   69.2018  223.6730 H   0  0  0  0  0  0  0  0  0  0  0  0
  135.0978   70.2487  222.7311 H   0  0  0  0  0  0  0  0  0  0  0  0
  136.5903   71.6053  223.4253 H   0  0  0  0  0  0  0  0  0  0  0  0
  137.6787   71.7020  224.8968 H   0  0  0  0  0  0  0  0  0  0  0  0
  138.3547   71.4317  222.0127 H   0  0  0  0  0  0  0  0  0  0  0  0
  139.0715   72.4561  223.3386 H   0  0  0  0  0  0  0  0  0  0  0  0
  140.5712   70.6333  222.5251 H   0  0  0  0  0  0  0  0  0  0  0  0
  140.1970   70.5738  224.2790 H   0  0  0  0  0  0  0  0  0  0  0  0
  138.6692   69.0064  222.1526 H   0  0  0  0  0  0  0  0  0  0  0  0
  140.0356   68.3359  223.0839 H   0  0  0  0  0  0  0  0  0  0  0  0
  137.8086   67.8247  224.1755 H   0  0  0  0  0  0  0  0  0  0  0  0
  138.1388   70.4254  226.4815 H   0  0  0  0  0  0  0  0  0  0  0  0
  139.4279   70.2410  228.5603 H   0  0  0  0  0  0  0  0  0  0  0  0
  141.1284   68.4291  228.8294 H   0  0  0  0  0  0  0  0  0  0  0  0
  141.4547   66.8397  226.9536 H   0  0  0  0  0  0  0  0  0  0  0  0
  140.1485   67.0305  224.8564 H   0  0  0  0  0  0  0  0  0  0  0  0
  131.5244   71.2974  227.3152 H   0  0  0  0  0  0  0  0  0  0  0  0
  130.6624   73.3787  228.3525 H   0  0  0  0  0  0  0  0  0  0  0  0
  130.8666   75.8440  228.6499 H   0  0  0  0  0  0  0  0  0  0  0  0
  134.0694   77.9067  226.6070 H   0  0  0  0  0  0  0  0  0  0  0  0
  134.8354   75.7459  225.6303 H   0  0  0  0  0  0  0  0  0  0  0  0
  1  2  2  0
  2  3  1  0
  3  4  1  0
  4  5  1  0
  5  6  2  0
  5  7  1  0
  7  8  1  0
  8  9  1  0
  9 10  1  0
 10 11  1  0
 11 12  1  0
 12 13  1  0
 13 14  2  0
 14 15  1  0
 15 16  2  0
 16 17  1  0
 17 18  2  0
  2 19  1  0
 19 20  2  0
 20 21  1  0
 21 22  2  0
 22 23  1  0
 23 24  2  0
 24 25  1  0
 24 26  1  0
 26 27  2  0
 27 28  1  0
 28 29  2  0
 12  7  1  0
 18 13  1  0
 29 19  1  0
 28 22  1  0
  3 30  1  0
  4 31  1  0
  4 32  1  0
  8 33  1  0
  8 34  1  0
  9 35  1  0
  9 36  1  0
 10 37  1  0
 10 38  1  0
 11 39  1  0
 11 40  1  0
 12 41  1  6
 14 42  1  0
 15 43  1  0
 16 44  1  0
 17 45  1  0
 18 46  1  0
 20 47  1  0
 21 48  1  0
 23 49  1  0
 26 50  1  0
 27 51  1  0
M  END
>  <smiles>  (48) 
O=C(NCC(=O)N1CCCC[C@H]1c1ccccc1)c1ccc2cc(Cl)ccc2n1

>  <score_type>  (48) 
oracle

>  <origin>  (48) 
autodockgpu

>  <m_score__min__energy>  (48) 
-9.1300000000000008

>  <m_primary>  (48) 
energy

>  <rmsd>  (48) 
8.470479287279378

>  <m_score__min__rmsd>  (48) 
8.470479287279378

>  <meeko>  (48) 
{"free_energy": -8.19, "intermolecular_energy": -9.68, "internal_energy": -1.64, "cluster_size": 3, "cluster_id": 3, "rank_in_cluster": 3}

>  <energy>  (48) 
-8.19

>  <cluster_rmsd>  (48) 
1.34

>  <cluster>  (48) 
3

$$$$

     RDKit          3D

 51 54  0  0  0  0  0  0  0  0999 V2000
  140.3960   72.4070  220.6750 O   0  0  0  0  0  0  0  0  0  0  0  0
  140.0820   72.7540  221.8500 C   0  0  0  0  0  0  0  0  0  0  0  0
  139.7330   74.1060  222.1130 N   0  0  0  0  0  0  0  0  0  0  0  0
  139.7250   75.1000  221.0810 C   0  0  0  0  0  0  0  0  0  0  0  0
  140.9450   75.9810  221.1610 C   0  0  0  0  0  0  0  0  0  0  0  0
  141.0640   76.6450  222.2170 O   0  0  0  0  0  0  0  0  0  0  0  0
  141.8780   76.0300  220.0850 N   0  0  0  0  0  0  0  0  0  0  0  0
  142.4470   77.2870  219.7150 C   0  0  0  0  0  0  0  0  0  0  0  0
  142.8530   77.3790  218.2760 C   0  0  0  0  0  0  0  0  0  0  0  0
  143.3020   76.0570  217.7070 C   0  0  0  0  0  0  0  0  0  0  0  0
  142.2360   75.0260  217.9510 C   0  0  0  0  0  0  0  0  0  0  0  0
  142.1770   74.7640  219.4330 C   0  0  1  0  0  0  0  0  0  0  0  0
  143.4110   74.1260  219.8920 C   0  0  0  0  0  0  0  0  0  0  0  0
  144.5030   74.7860  220.4120 C   0  0  0  0  0  0  0  0  0  0  0  0
  145.6470   74.1390  220.8410 C   0  0  0  0  0  0  0  0  0  0  0  0
  145.7390   72.7650  220.7580 C   0  0  0  0  0  0  0  0  0  0  0  0
  144.6590   72.0890  220.2420 C   0  0  0  0  0  0  0  0  0  0  0  0
  143.5030   72.7500  219.8100 C   0  0  0  0  0  0  0  0  0  0  0  0
  140.0680   71.7890  222.9550 C   0  0  0  0  0  0  0  0  0  0  0  0
  139.5730   70.5170  222.7650 C   0  0  0  0  0  0  0  0  0  0  0  0
  139.5580   69.6040  223.8030 C   0  0  0  0  0  0  0  0  0  0  0  0
  140.0460   69.9700  225.0500 C   0  0  0  0  0  0  0  0  0  0  0  0
  140.0590   69.1090  226.1270 C   0  0  0  0  0  0  0  0  0  0  0  0
  140.5640   69.5570  227.3370 C   0  0  0  0  0  0  0  0  0  0  0  0
  140.5880   68.4720  228.7140 Cl  0  0  0  0  0  0  0  0  0  0  0  0
  141.0550   70.8510  227.4870 C   0  0  0  0  0  0  0  0  0  0  0  0
  141.0370   71.7060  226.4050 C   0  0  0  0  0  0  0  0  0  0  0  0
  140.5300   71.2520  225.1920 C   0  0  0  0  0  0  0  0  0  0  0  0
  140.5360   72.1240  224.1730 N   0  0  0  0  0  0  0  0  0  0  0  0
  139.4760   74.3540  223.1100 H   0  0  0  0  0  0  0  0  0  0  0  0
  139.7077   74.5997  220.1015 H   0  0  0  0  0  0  0  0  0  0  0  0
  138.8325   75.7296  221.2117 H   0  0  0  0  0  0  0  0  0  0  0  0
  141.7045   78.0736  219.9146 H   0  0  0  0  0  0  0  0  0  0  0  0
  143.3647   77.4053  220.3099 H   0  0  0  0  0  0  0  0  0  0  0  0
  141.9936   77.7390  217.6913 H   0  0  0  0  0  0  0  0  0  0  0  0
  143.7066   78.0703  218.2176 H   0  0  0  0  0  0  0  0  0  0  0  0
  143.4725   76.1610  216.6253 H   0  0  0  0  0  0  0  0  0  0  0  0
  144.2373   75.7438  218.1939 H   0  0  0  0  0  0  0  0  0  0  0  0
  141.2642   75.4024  217.5989 H   0  0  0  0  0  0  0  0  0  0  0  0
  142.4676   74.0987  217.4065 H   0  0  0  0  0  0  0  0  0  0  0  0
  141.3818   74.0501  219.6939 H   0  0  0  0  0  0  0  0  0  0  0  0
  144.4626   75.8825  220.4897 H   0  0  0  0  0  0  0  0  0  0  0  0
  146.4861   74.7213  221.2496 H   0  0  0  0  0  0  0  0  0  0  0  0
  146.6412   72.2313  221.0916 H   0  0  0  0  0  0  0  0  0  0  0  0
  144.7046   70.9926  220.1660 H   0  0  0  0  0  0  0  0  0  0  0  0
  142.6621   72.1697  219.4024 H   0  0  0  0  0  0  0  0  0  0  0  0
  139.1860   70.2252  221.7776 H   0  0  0  0  0  0  0  0  0  0  0  0
  139.1608   68.5910  223.6414 H   0  0  0  0  0  0  0  0  0  0  0  0
  139.6747   68.0832  226.0272 H   0  0  0  0  0  0  0  0  0  0  0  0
  141.4522   71.1872  228.4561 H   0  0  0  0  0  0  0  0  0  0  0  0
  141.4185   72.7333  226.5001 H   0  0  0  0  0  0  0  0  0  0  0  0
  1  2  2  0
  2  3  1  0
  3  4  1  0
  4  5  1  0
  5  6  2  0
  5  7  1  0
  7  8  1  0
  8  9  1  0
  9 10  1  0
 10 11  1  0
 11 12  1  0
 12 13  1  0
 13 14  2  0
 14 15  1  0
 15 16  2  0
 16 17  1  0
 17 18  2  0
  2 19  1  0
 19 20  2  0
 20 21  1  0
 21 22  2  0
 22 23  1  0
 23 24  2  0
 24 25  1  0
 24 26  1  0
 26 27  2  0
 27 28  1  0
 28 29  2  0
 12  7  1  0
 18 13  1  0
 29 19  1  0
 28 22  1  0
  3 30  1  0
  4 31  1  0
  4 32  1  0
  8 33  1  0
  8 34  1  0
  9 35  1  0
  9 36  1  0
 10 37  1  0
 10 38  1  0
 11 39  1  0
 11 40  1  0
 12 41  1  6
 14 42  1  0
 15 43  1  0
 16 44  1  0
 17 45  1  0
 18 46  1  0
 20 47  1  0
 21 48  1  0
 23 49  1  0
 26 50  1  0
 27 51  1  0
M  END
>  <smiles>  (49) 
O=C(NCC(=O)N1CCCC[C@H]1c1ccccc1)c1ccc2cc(Cl)ccc2n1

>  <score_type>  (49) 
oracle

>  <origin>  (49) 
autodockgpu

>  <m_score__min__energy>  (49) 
-9.1300000000000008

>  <m_primary>  (49) 
energy

>  <rmsd>  (49) 
2.36976301240273

>  <m_score__min__rmsd>  (49) 
2.36976301240273

>  <meeko>  (49) 
{"free_energy": -8.81, "intermolecular_energy": -10.3, "internal_energy": -1.97, "cluster_size": 16, "cluster_id": 2, "rank_in_cluster": 7}

>  <energy>  (49) 
-7.59

>  <cluster_rmsd>  (49) 
0.0

>  <cluster>  (49) 
4

$$$$

     RDKit          3D

 51 54  0  0  0  0  0  0  0  0999 V2000
  138.3600   76.0120  222.9700 O   0  0  0  0  0  0  0  0  0  0  0  0
  139.1940   76.2440  222.0480 C   0  0  0  0  0  0  0  0  0  0  0  0
  139.1470   77.4820  221.3530 N   0  0  0  0  0  0  0  0  0  0  0  0
  138.1760   78.4880  221.6660 C   0  0  0  0  0  0  0  0  0  0  0  0
  138.7860   79.6050  222.4730 C   0  0  0  0  0  0  0  0  0  0  0  0
  137.9730   80.3880  223.0160 O   0  0  0  0  0  0  0  0  0  0  0  0
  140.2010   79.7300  222.5850 N   0  0  0  0  0  0  0  0  0  0  0  0
  140.9080   78.8600  223.4710 C   0  0  0  0  0  0  0  0  0  0  0  0
  142.1800   79.4360  224.0150 C   0  0  0  0  0  0  0  0  0  0  0  0
  142.8550   80.3800  223.0540 C   0  0  0  0  0  0  0  0  0  0  0  0
  141.8720   81.4320  222.6200 C   0  0  0  0  0  0  0  0  0  0  0  0
  140.8240   80.7630  221.7710 C   0  0  1  0  0  0  0  0  0  0  0  0
  141.4080   80.2760  220.5210 C   0  0  0  0  0  0  0  0  0  0  0  0
  141.7740   81.0660  219.4530 C   0  0  0  0  0  0  0  0  0  0  0  0
  142.3300   80.5630  218.2930 C   0  0  0  0  0  0  0  0  0  0  0  0
  142.5460   79.2070  218.1580 C   0  0  0  0  0  0  0  0  0  0  0  0
  142.1890   78.4020  219.2150 C   0  0  0  0  0  0  0  0  0  0  0  0
  141.6250   78.9190  220.3880 C   0  0  0  0  0  0  0  0  0  0  0  0
  140.2150   75.2590  221.6750 C   0  0  0  0  0  0  0  0  0  0  0  0
  140.0250   73.9200  221.9420 C   0  0  0  0  0  0  0  0  0  0  0  0
  140.9850   72.9880  221.5920 C   0  0  0  0  0  0  0  0  0  0  0  0
  142.1530   73.4030  220.9660 C   0  0  0  0  0  0  0  0  0  0  0  0
  143.1490   72.5260  220.5920 C   0  0  0  0  0  0  0  0  0  0  0  0
  144.2820   73.0250  219.9720 C   0  0  0  0  0  0  0  0  0  0  0  0
  145.5560   71.9210  219.4900 Cl  0  0  0  0  0  0  0  0  0  0  0  0
  144.4350   74.3860  219.7200 C   0  0  0  0  0  0  0  0  0  0  0  0
  143.4350   75.2550  220.0980 C   0  0  0  0  0  0  0  0  0  0  0  0
  142.2980   74.7500  220.7200 C   0  0  0  0  0  0  0  0  0  0  0  0
  141.3560   75.6400  221.0670 N   0  0  0  0  0  0  0  0  0  0  0  0
  139.8630   77.6360  220.5880 H   0  0  0  0  0  0  0  0  0  0  0  0
  137.7732   78.9011  220.7294 H   0  0  0  0  0  0  0  0  0  0  0  0
  137.3762   78.0251  222.2627 H   0  0  0  0  0  0  0  0  0  0  0  0
  140.2483   78.6204  224.3179 H   0  0  0  0  0  0  0  0  0  0  0  0
  141.1891   77.9730  222.8842 H   0  0  0  0  0  0  0  0  0  0  0  0
  141.9495   79.9833  224.9409 H   0  0  0  0  0  0  0  0  0  0  0  0
  142.8706   78.5990  224.1950 H   0  0  0  0  0  0  0  0  0  0  0  0
  143.7116   80.8595  223.5502 H   0  0  0  0  0  0  0  0  0  0  0  0
  143.2095   79.8212  222.1754 H   0  0  0  0  0  0  0  0  0  0  0  0
  141.4016   81.8908  223.5022 H   0  0  0  0  0  0  0  0  0  0  0  0
  142.3823   82.2211  222.0482 H   0  0  0  0  0  0  0  0  0  0  0  0
  140.0397   81.4664  221.4548 H   0  0  0  0  0  0  0  0  0  0  0  0
  141.6154   82.1519  219.5280 H   0  0  0  0  0  0  0  0  0  0  0  0
  142.6014   81.2456  217.4743 H   0  0  0  0  0  0  0  0  0  0  0  0
  142.9861   78.7863  217.2418 H   0  0  0  0  0  0  0  0  0  0  0  0
  142.3518   77.3170  219.1362 H   0  0  0  0  0  0  0  0  0  0  0  0
  141.3530   78.2393  221.2090 H   0  0  0  0  0  0  0  0  0  0  0  0
  139.1006   73.5895  222.4384 H   0  0  0  0  0  0  0  0  0  0  0  0
  140.8239   71.9217  221.8087 H   0  0  0  0  0  0  0  0  0  0  0  0
  143.0452   71.4477  220.7830 H   0  0  0  0  0  0  0  0  0  0  0  0
  145.3426   74.7624  219.2255 H   0  0  0  0  0  0  0  0  0  0  0  0
  143.5345   76.3343  219.9103 H   0  0  0  0  0  0  0  0  0  0  0  0
  1  2  2  0
  2  3  1  0
  3  4  1  0
  4  5  1  0
  5  6  2  0
  5  7  1  0
  7  8  1  0
  8  9  1  0
  9 10  1  0
 10 11  1  0
 11 12  1  0
 12 13  1  0
 13 14  2  0
 14 15  1  0
 15 16  2  0
 16 17  1  0
 17 18  2  0
  2 19  1  0
 19 20  2  0
 20 21  1  0
 21 22  2  0
 22 23  1  0
 23 24  2  0
 24 25  1  0
 24 26  1  0
 26 27  2  0
 27 28  1  0
 28 29  2  0
 12  7  1  0
 18 13  1  0
 29 19  1  0
 28 22  1  0
  3 30  1  0
  4 31  1  0
  4 32  1  0
  8 33  1  0
  8 34  1  0
  9 35  1  0
  9 36  1  0
 10 37  1  0
 10 38  1  0
 11 39  1  0
 11 40  1  0
 12 41  1  6
 14 42  1  0
 15 43  1  0
 16 44  1  0
 17 45  1  0
 18 46  1  0
 20 47  1  0
 21 48  1  0
 23 49  1  0
 26 50  1  0
 27 51  1  0
M  END
>  <smiles>  (50) 
O=C(NCC(=O)N1CCCC[C@H]1c1ccccc1)c1ccc2cc(Cl)ccc2n1

>  <score_type>  (50) 
oracle

>  <origin>  (50) 
autodockgpu

>  <m_score__min__energy>  (50) 
-9.1300000000000008

>  <m_primary>  (50) 
energy

>  <rmsd>  (50) 
6.606711612613508

>  <m_score__min__rmsd>  (50) 
6.606711612613508

>  <meeko>  (50) 
{"free_energy": -7.06, "intermolecular_energy": -8.55, "internal_energy": -2.4, "cluster_size": 1, "cluster_id": 5, "rank_in_cluster": 1}

>  <energy>  (50) 
-7.06

>  <cluster_rmsd>  (50) 
0.0

>  <cluster>  (50) 
5

$$$$
