
     RDKit          3D

 46 49  0  0  0  0  0  0  0  0999 V2000
  144.6230   68.1850  217.6710 C   0  0  0  0  0  0  0  0  0  0  0  0
  145.4500   69.1920  218.8980 S   0  0  0  0  0  0  0  0  0  0  0  0
  145.9160   68.3260  220.0570 O   0  0  0  0  0  0  0  0  0  0  0  0
  146.6930   69.7900  218.2980 O   0  0  0  0  0  0  0  0  0  0  0  0
  144.3750   70.4290  219.5090 C   0  0  0  0  0  0  0  0  0  0  0  0
  144.9510   71.5370  220.0950 C   0  0  0  0  0  0  0  0  0  0  0  0
  144.1830   72.5720  220.6090 C   0  0  0  0  0  0  0  0  0  0  0  0
  142.8040   72.4850  220.5280 C   0  0  0  0  0  0  0  0  0  0  0  0
  141.9250   73.4770  221.0160 N   0  0  0  0  0  0  0  0  0  0  0  0
  140.9160   73.1730  221.8540 C   0  0  0  0  0  0  0  0  0  0  0  0
  140.6900   71.7800  222.2930 C   0  0  0  0  0  0  0  0  0  0  0  0
  139.8280   71.5150  223.2610 C   0  0  0  0  0  0  0  0  0  0  0  0
  140.2110   71.0640  224.5710 C   0  0  0  0  0  0  0  0  0  0  0  0
  140.7650   71.8790  225.5110 C   0  0  0  0  0  0  0  0  0  0  0  0
  141.1280   71.4120  226.7740 C   0  0  0  0  0  0  0  0  0  0  0  0
  140.9090   70.0640  227.0750 C   0  0  0  0  0  0  0  0  0  0  0  0
  140.3480   69.2620  226.1040 C   0  0  0  0  0  0  0  0  0  0  0  0
  140.0200   69.7680  224.9070 N   0  0  0  0  0  0  0  0  0  0  0  0
  140.1000   74.1460  222.2980 N   0  0  0  0  0  0  0  0  0  0  0  0
  140.2130   75.4440  221.9620 C   0  0  0  0  0  0  0  0  0  0  0  0
  139.3480   76.4040  222.4480 C   0  0  0  0  0  0  0  0  0  0  0  0
  139.5470   77.7120  222.0450 C   0  0  0  0  0  0  0  0  0  0  0  0
  140.5580   78.0480  221.2000 C   0  0  0  0  0  0  0  0  0  0  0  0
  141.4190   77.0780  220.7220 C   0  0  0  0  0  0  0  0  0  0  0  0
  141.2550   75.7690  221.0980 C   0  0  0  0  0  0  0  0  0  0  0  0
  142.0840   74.7610  220.6500 C   0  0  0  0  0  0  0  0  0  0  0  0
  143.0150   75.1050  219.8650 O   0  0  0  0  0  0  0  0  0  0  0  0
  142.2430   71.3600  219.9320 C   0  0  0  0  0  0  0  0  0  0  0  0
  143.0000   70.3370  219.4250 C   0  0  0  0  0  0  0  0  0  0  0  0
  144.0024   67.4293  218.1747 H   0  0  0  0  0  0  0  0  0  0  0  0
  143.9851   68.8234  217.0421 H   0  0  0  0  0  0  0  0  0  0  0  0
  145.3733   67.6834  217.0421 H   0  0  0  0  0  0  0  0  0  0  0  0
  146.0474   71.6017  220.1564 H   0  0  0  0  0  0  0  0  0  0  0  0
  144.6620   73.4468  221.0730 H   0  0  0  0  0  0  0  0  0  0  0  0
  141.2417   70.9588  221.8121 H   0  0  0  0  0  0  0  0  0  0  0  0
  138.7563   71.6474  223.0513 H   0  0  0  0  0  0  0  0  0  0  0  0
  140.9313   72.9385  225.2665 H   0  0  0  0  0  0  0  0  0  0  0  0
  141.5764   72.0885  227.5165 H   0  0  0  0  0  0  0  0  0  0  0  0
  141.1771   69.6545  228.0601 H   0  0  0  0  0  0  0  0  0  0  0  0
  140.1680   68.1973  226.3136 H   0  0  0  0  0  0  0  0  0  0  0  0
  138.5288   76.1378  223.1321 H   0  0  0  0  0  0  0  0  0  0  0  0
  138.8726   78.4978  222.4162 H   0  0  0  0  0  0  0  0  0  0  0  0
  140.6913   79.0966  220.8954 H   0  0  0  0  0  0  0  0  0  0  0  0
  142.2360   77.3559  220.0399 H   0  0  0  0  0  0  0  0  0  0  0  0
  141.1473   71.2891  219.8652 H   0  0  0  0  0  0  0  0  0  0  0  0
  142.5227   69.4613  218.9610 H   0  0  0  0  0  0  0  0  0  0  0  0
  1  2  1  0
  2  3  2  0
  2  4  2  0
  2  5  1  0
  5  6  2  0
  6  7  1  0
  7  8  2  0
  8  9  1  0
  9 10  1  0
 10 11  1  0
 11 12  2  0
 12 13  1  0
 13 14  2  0
 14 15  1  0
 15 16  2  0
 16 17  1  0
 17 18  2  0
 10 19  2  0
 19 20  1  0
 20 21  2  0
 21 22  1  0
 22 23  2  0
 23 24  1  0
 24 25  2  0
 25 26  1  0
 26 27  2  0
  8 28  1  0
 28 29  2  0
 29  5  1  0
 26  9  1  0
 18 13  1  0
 25 20  1  0
  1 30  1  0
  1 31  1  0
  1 32  1  0
  6 33  1  0
  7 34  1  0
 11 35  1  0
 12 36  1  0
 14 37  1  0
 15 38  1  0
 16 39  1  0
 17 40  1  0
 21 41  1  0
 22 42  1  0
 23 43  1  0
 24 44  1  0
 28 45  1  0
 29 46  1  0
M  END
>  <smiles>  (1) 
CS(=O)(=O)c1ccc(-n2c(/C=C/c3ccccn3)nc3ccccc3c2=O)cc1

>  <score_type>  (1) 
oracle

>  <origin>  (1) 
autodockgpu

>  <m_score__min__energy>  (1) 
-8.7100000000000009

>  <m_primary>  (1) 
energy

>  <rmsd>  (1) 
5.624374636519398

>  <m_score__min__rmsd>  (1) 
5.624374636519398

>  <meeko>  (1) 
{"free_energy": -8.63, "intermolecular_energy": -10.12, "internal_energy": -0.91, "cluster_size": 30, "cluster_id": 1, "rank_in_cluster": 8}

>  <energy>  (1) 
-8.71

>  <cluster_rmsd>  (1) 
0.0

>  <cluster>  (1) 
1

$$$$

     RDKit          3D

 46 49  0  0  0  0  0  0  0  0999 V2000
  144.5990   68.1430  217.6950 C   0  0  0  0  0  0  0  0  0  0  0  0
  145.4430   69.1430  218.9150 S   0  0  0  0  0  0  0  0  0  0  0  0
  145.8920   68.2770  220.0810 O   0  0  0  0  0  0  0  0  0  0  0  0
  146.6980   69.7140  218.3120 O   0  0  0  0  0  0  0  0  0  0  0  0
  144.3910   70.4050  219.5160 C   0  0  0  0  0  0  0  0  0  0  0  0
  144.9870   71.5070  220.0940 C   0  0  0  0  0  0  0  0  0  0  0  0
  144.2380   72.5590  220.6000 C   0  0  0  0  0  0  0  0  0  0  0  0
  142.8580   72.4960  220.5180 C   0  0  0  0  0  0  0  0  0  0  0  0
  141.9970   73.5080  220.9990 N   0  0  0  0  0  0  0  0  0  0  0  0
  141.0320   73.2430  221.8990 C   0  0  0  0  0  0  0  0  0  0  0  0
  140.8380   71.8730  222.4190 C   0  0  0  0  0  0  0  0  0  0  0  0
  139.9060   71.6270  223.3250 C   0  0  0  0  0  0  0  0  0  0  0  0
  140.1830   71.1040  224.6350 C   0  0  0  0  0  0  0  0  0  0  0  0
  139.8480   69.8440  225.0250 C   0  0  0  0  0  0  0  0  0  0  0  0
  140.1290   69.3640  226.3040 C   0  0  0  0  0  0  0  0  0  0  0  0
  140.7780   70.2140  227.2060 C   0  0  0  0  0  0  0  0  0  0  0  0
  141.1050   71.4850  226.7840 C   0  0  0  0  0  0  0  0  0  0  0  0
  140.8090   71.8890  225.5420 N   0  0  0  0  0  0  0  0  0  0  0  0
  140.2320   74.2340  222.3330 N   0  0  0  0  0  0  0  0  0  0  0  0
  140.3200   75.5130  221.9270 C   0  0  0  0  0  0  0  0  0  0  0  0
  139.4730   76.4930  222.4050 C   0  0  0  0  0  0  0  0  0  0  0  0
  139.6430   77.7800  221.9280 C   0  0  0  0  0  0  0  0  0  0  0  0
  140.6090   78.0770  221.0190 C   0  0  0  0  0  0  0  0  0  0  0  0
  141.4520   77.0870  220.5480 C   0  0  0  0  0  0  0  0  0  0  0  0
  141.3160   75.7990  220.9970 C   0  0  0  0  0  0  0  0  0  0  0  0
  142.1290   74.7730  220.5600 C   0  0  0  0  0  0  0  0  0  0  0  0
  143.0180   75.0810  219.7140 O   0  0  0  0  0  0  0  0  0  0  0  0
  142.2760   71.3770  219.9310 C   0  0  0  0  0  0  0  0  0  0  0  0
  143.0140   70.3370  219.4320 C   0  0  0  0  0  0  0  0  0  0  0  0
  143.9699   67.3976  218.2035 H   0  0  0  0  0  0  0  0  0  0  0  0
  143.9677   68.7876  217.0657 H   0  0  0  0  0  0  0  0  0  0  0  0
  145.3405   67.6290  217.0657 H   0  0  0  0  0  0  0  0  0  0  0  0
  146.0844   71.5524  220.1551 H   0  0  0  0  0  0  0  0  0  0  0  0
  144.7323   73.4282  221.0585 H   0  0  0  0  0  0  0  0  0  0  0  0
  141.4723   71.0533  222.0505 H   0  0  0  0  0  0  0  0  0  0  0  0
  138.8586   71.8346  223.0607 H   0  0  0  0  0  0  0  0  0  0  0  0
  139.3391   69.1827  224.3083 H   0  0  0  0  0  0  0  0  0  0  0  0
  139.8471   68.3417  226.5965 H   0  0  0  0  0  0  0  0  0  0  0  0
  141.0209   69.8772  228.2246 H   0  0  0  0  0  0  0  0  0  0  0  0
  141.6140   72.1740  227.4741 H   0  0  0  0  0  0  0  0  0  0  0  0
  138.6894   76.2581  223.1404 H   0  0  0  0  0  0  0  0  0  0  0  0
  138.9822   78.5805  222.2921 H   0  0  0  0  0  0  0  0  0  0  0  0
  140.7207   79.1095  220.6564 H   0  0  0  0  0  0  0  0  0  0  0  0
  142.2321   77.3333  219.8126 H   0  0  0  0  0  0  0  0  0  0  0  0
  141.1792   71.3256  219.8651 H   0  0  0  0  0  0  0  0  0  0  0  0
  142.5211   69.4666  218.9744 H   0  0  0  0  0  0  0  0  0  0  0  0
  1  2  1  0
  2  3  2  0
  2  4  2  0
  2  5  1  0
  5  6  2  0
  6  7  1  0
  7  8  2  0
  8  9  1  0
  9 10  1  0
 10 11  1  0
 11 12  2  0
 12 13  1  0
 13 14  2  0
 14 15  1  0
 15 16  2  0
 16 17  1  0
 17 18  2  0
 10 19  2  0
 19 20  1  0
 20 21  2  0
 21 22  1  0
 22 23  2  0
 23 24  1  0
 24 25  2  0
 25 26  1  0
 26 27  2  0
  8 28  1  0
 28 29  2  0
 29  5  1  0
 26  9  1  0
 18 13  1  0
 25 20  1  0
  1 30  1  0
  1 31  1  0
  1 32  1  0
  6 33  1  0
  7 34  1  0
 11 35  1  0
 12 36  1  0
 14 37  1  0
 15 38  1  0
 16 39  1  0
 17 40  1  0
 21 41  1  0
 22 42  1  0
 23 43  1  0
 24 44  1  0
 28 45  1  0
 29 46  1  0
M  END
>  <smiles>  (2) 
CS(=O)(=O)c1ccc(-n2c(/C=C/c3ccccn3)nc3ccccc3c2=O)cc1

>  <score_type>  (2) 
oracle

>  <origin>  (2) 
autodockgpu

>  <m_score__min__energy>  (2) 
-8.7100000000000009

>  <m_primary>  (2) 
energy

>  <rmsd>  (2) 
5.61706559051631

>  <m_score__min__rmsd>  (2) 
5.61706559051631

>  <meeko>  (2) 
{"free_energy": -8.65, "intermolecular_energy": -10.14, "internal_energy": -0.95, "cluster_size": 30, "cluster_id": 1, "rank_in_cluster": 3}

>  <energy>  (2) 
-8.66

>  <cluster_rmsd>  (2) 
0.18

>  <cluster>  (2) 
1

$$$$

     RDKit          3D

 46 49  0  0  0  0  0  0  0  0999 V2000
  143.9020   67.4330  218.3440 C   0  0  0  0  0  0  0  0  0  0  0  0
  144.9160   68.8420  218.7760 S   0  0  0  0  0  0  0  0  0  0  0  0
  145.9440   68.4460  219.8220 O   0  0  0  0  0  0  0  0  0  0  0  0
  145.6980   69.2850  217.5690 O   0  0  0  0  0  0  0  0  0  0  0  0
  143.9310   70.1410  219.4110 C   0  0  0  0  0  0  0  0  0  0  0  0
  144.5750   71.1500  220.0980 C   0  0  0  0  0  0  0  0  0  0  0  0
  143.8820   72.2220  220.6390 C   0  0  0  0  0  0  0  0  0  0  0  0
  142.5080   72.2770  220.4810 C   0  0  0  0  0  0  0  0  0  0  0  0
  141.7010   73.3200  220.9880 N   0  0  0  0  0  0  0  0  0  0  0  0
  140.6760   73.0740  221.8250 C   0  0  0  0  0  0  0  0  0  0  0  0
  140.3550   71.6930  222.2440 C   0  0  0  0  0  0  0  0  0  0  0  0
  139.5850   71.4750  223.2970 C   0  0  0  0  0  0  0  0  0  0  0  0
  140.0730   70.9830  224.5560 C   0  0  0  0  0  0  0  0  0  0  0  0
  139.8560   69.7140  224.9990 C   0  0  0  0  0  0  0  0  0  0  0  0
  140.3420   69.2650  226.2270 C   0  0  0  0  0  0  0  0  0  0  0  0
  141.0740   70.1550  227.0190 C   0  0  0  0  0  0  0  0  0  0  0  0
  141.2770   71.4340  226.5460 C   0  0  0  0  0  0  0  0  0  0  0  0
  140.7850   71.8080  225.3570 N   0  0  0  0  0  0  0  0  0  0  0  0
  139.9300   74.0940  222.2870 N   0  0  0  0  0  0  0  0  0  0  0  0
  140.1330   75.3860  221.9710 C   0  0  0  0  0  0  0  0  0  0  0  0
  139.3370   76.3960  222.4740 C   0  0  0  0  0  0  0  0  0  0  0  0
  139.6250   77.6940  222.0910 C   0  0  0  0  0  0  0  0  0  0  0  0
  140.6550   77.9710  221.2470 C   0  0  0  0  0  0  0  0  0  0  0  0
  141.4450   76.9520  220.7510 C   0  0  0  0  0  0  0  0  0  0  0  0
  141.1920   75.6520  221.1070 C   0  0  0  0  0  0  0  0  0  0  0  0
  141.9480   74.5960  220.6410 C   0  0  0  0  0  0  0  0  0  0  0  0
  142.8990   74.8870  219.8580 O   0  0  0  0  0  0  0  0  0  0  0  0
  141.8770   71.2510  219.7860 C   0  0  0  0  0  0  0  0  0  0  0  0
  142.5600   70.1910  219.2520 C   0  0  0  0  0  0  0  0  0  0  0  0
  143.5479   66.9409  219.2618 H   0  0  0  0  0  0  0  0  0  0  0  0
  143.0383   67.7705  217.7522 H   0  0  0  0  0  0  0  0  0  0  0  0
  144.4963   66.7212  217.7522 H   0  0  0  0  0  0  0  0  0  0  0  0
  145.6672   71.1024  220.2196 H   0  0  0  0  0  0  0  0  0  0  0  0
  144.4148   73.0150  221.1843 H   0  0  0  0  0  0  0  0  0  0  0  0
  140.7590   70.8417  221.6765 H   0  0  0  0  0  0  0  0  0  0  0  0
  138.5087   71.6823  223.2037 H   0  0  0  0  0  0  0  0  0  0  0  0
  139.2793   69.0210  224.3687 H   0  0  0  0  0  0  0  0  0  0  0  0
  140.1538   68.2351  226.5644 H   0  0  0  0  0  0  0  0  0  0  0  0
  141.4773   69.8429  227.9937 H   0  0  0  0  0  0  0  0  0  0  0  0
  141.8481   72.1542  227.1503 H   0  0  0  0  0  0  0  0  0  0  0  0
  138.5024   76.1762  223.1560 H   0  0  0  0  0  0  0  0  0  0  0  0
  139.0082   78.5189  222.4771 H   0  0  0  0  0  0  0  0  0  0  0  0
  140.8601   79.0123  220.9577 H   0  0  0  0  0  0  0  0  0  0  0  0
  142.2774   77.1835  220.0702 H   0  0  0  0  0  0  0  0  0  0  0  0
  140.7850   71.2926  219.6601 H   0  0  0  0  0  0  0  0  0  0  0  0
  142.0281   69.3965  218.7081 H   0  0  0  0  0  0  0  0  0  0  0  0
  1  2  1  0
  2  3  2  0
  2  4  2  0
  2  5  1  0
  5  6  2  0
  6  7  1  0
  7  8  2  0
  8  9  1  0
  9 10  1  0
 10 11  1  0
 11 12  2  0
 12 13  1  0
 13 14  2  0
 14 15  1  0
 15 16  2  0
 16 17  1  0
 17 18  2  0
 10 19  2  0
 19 20  1  0
 20 21  2  0
 21 22  1  0
 22 23  2  0
 23 24  1  0
 24 25  2  0
 25 26  1  0
 26 27  2  0
  8 28  1  0
 28 29  2  0
 29  5  1  0
 26  9  1  0
 18 13  1  0
 25 20  1  0
  1 30  1  0
  1 31  1  0
  1 32  1  0
  6 33  1  0
  7 34  1  0
 11 35  1  0
 12 36  1  0
 14 37  1  0
 15 38  1  0
 16 39  1  0
 17 40  1  0
 21 41  1  0
 22 42  1  0
 23 43  1  0
 24 44  1  0
 28 45  1  0
 29 46  1  0
M  END
>  <smiles>  (3) 
CS(=O)(=O)c1ccc(-n2c(/C=C/c3ccccn3)nc3ccccc3c2=O)cc1

>  <score_type>  (3) 
oracle

>  <origin>  (3) 
autodockgpu

>  <m_score__min__energy>  (3) 
-8.7100000000000009

>  <m_primary>  (3) 
energy

>  <rmsd>  (3) 
5.67424778453645

>  <m_score__min__rmsd>  (3) 
5.67424778453645

>  <meeko>  (3) 
{"free_energy": -8.17, "intermolecular_energy": -9.66, "internal_energy": -1.02, "cluster_size": 30, "cluster_id": 1, "rank_in_cluster": 18}

>  <energy>  (3) 
-8.65

>  <cluster_rmsd>  (3) 
0.17

>  <cluster>  (3) 
1

$$$$

     RDKit          3D

 46 49  0  0  0  0  0  0  0  0999 V2000
  145.1790   68.9420  217.4400 C   0  0  0  0  0  0  0  0  0  0  0  0
  145.6550   69.4840  219.0770 S   0  0  0  0  0  0  0  0  0  0  0  0
  145.6460   68.3080  220.0400 O   0  0  0  0  0  0  0  0  0  0  0  0
  147.0730   69.9860  219.0460 O   0  0  0  0  0  0  0  0  0  0  0  0
  144.5540   70.7100  219.6670 C   0  0  0  0  0  0  0  0  0  0  0  0
  143.2030   70.4670  219.5330 C   0  0  0  0  0  0  0  0  0  0  0  0
  142.2520   71.3770  219.9690 C   0  0  0  0  0  0  0  0  0  0  0  0
  142.6770   72.5580  220.5540 C   0  0  0  0  0  0  0  0  0  0  0  0
  141.7990   73.5550  221.0340 N   0  0  0  0  0  0  0  0  0  0  0  0
  140.8170   73.2670  221.9080 C   0  0  0  0  0  0  0  0  0  0  0  0
  140.6200   71.8870  222.3990 C   0  0  0  0  0  0  0  0  0  0  0  0
  139.7100   71.6280  223.3230 C   0  0  0  0  0  0  0  0  0  0  0  0
  140.0250   71.1620  224.6460 C   0  0  0  0  0  0  0  0  0  0  0  0
  140.8020   71.8590  225.5200 C   0  0  0  0  0  0  0  0  0  0  0  0
  141.0910   71.3800  226.7980 C   0  0  0  0  0  0  0  0  0  0  0  0
  140.5590   70.1450  227.1830 C   0  0  0  0  0  0  0  0  0  0  0  0
  139.7770   69.4610  226.2770 C   0  0  0  0  0  0  0  0  0  0  0  0
  139.5340   69.9720  225.0620 N   0  0  0  0  0  0  0  0  0  0  0  0
  140.0000   74.2450  222.3430 N   0  0  0  0  0  0  0  0  0  0  0  0
  140.0890   75.5330  221.9620 C   0  0  0  0  0  0  0  0  0  0  0  0
  139.2250   76.4970  222.4400 C   0  0  0  0  0  0  0  0  0  0  0  0
  139.3960   77.7950  221.9900 C   0  0  0  0  0  0  0  0  0  0  0  0
  140.3810   78.1140  221.1070 C   0  0  0  0  0  0  0  0  0  0  0  0
  141.2400   77.1390  220.6380 C   0  0  0  0  0  0  0  0  0  0  0  0
  141.1030   75.8410  221.0600 C   0  0  0  0  0  0  0  0  0  0  0  0
  141.9320   74.8290  220.6220 C   0  0  0  0  0  0  0  0  0  0  0  0
  142.8380   75.1580  219.8020 O   0  0  0  0  0  0  0  0  0  0  0  0
  144.0430   72.7840  220.6800 C   0  0  0  0  0  0  0  0  0  0  0  0
  144.9840   71.8860  220.2490 C   0  0  0  0  0  0  0  0  0  0  0  0
  144.4552   68.1178  217.5227 H   0  0  0  0  0  0  0  0  0  0  0  0
  144.7197   69.7801  216.8954 H   0  0  0  0  0  0  0  0  0  0  0  0
  146.0694   68.5948  216.8954 H   0  0  0  0  0  0  0  0  0  0  0  0
  142.8713   69.5268  219.0682 H   0  0  0  0  0  0  0  0  0  0  0  0
  141.1790   71.1646  219.8523 H   0  0  0  0  0  0  0  0  0  0  0  0
  141.2344   71.0698  221.9932 H   0  0  0  0  0  0  0  0  0  0  0  0
  138.6514   71.7777  223.0644 H   0  0  0  0  0  0  0  0  0  0  0  0
  141.2148   72.8300  225.2088 H   0  0  0  0  0  0  0  0  0  0  0  0
  141.7226   71.9601  227.4869 H   0  0  0  0  0  0  0  0  0  0  0  0
  140.7593   69.7306  228.1821 H   0  0  0  0  0  0  0  0  0  0  0  0
  139.3483   68.4865  226.5538 H   0  0  0  0  0  0  0  0  0  0  0  0
  138.4278   76.2428  223.1541 H   0  0  0  0  0  0  0  0  0  0  0  0
  138.7219   78.5845  222.3536 H   0  0  0  0  0  0  0  0  0  0  0  0
  140.4938   79.1534  220.7649 H   0  0  0  0  0  0  0  0  0  0  0  0
  142.0349   77.4039  219.9252 H   0  0  0  0  0  0  0  0  0  0  0  0
  144.3821   73.7217  221.1445 H   0  0  0  0  0  0  0  0  0  0  0  0
  146.0574   72.0972  220.3640 H   0  0  0  0  0  0  0  0  0  0  0  0
  1  2  1  0
  2  3  2  0
  2  4  2  0
  2  5  1  0
  5  6  2  0
  6  7  1  0
  7  8  2  0
  8  9  1  0
  9 10  1  0
 10 11  1  0
 11 12  2  0
 12 13  1  0
 13 14  2  0
 14 15  1  0
 15 16  2  0
 16 17  1  0
 17 18  2  0
 10 19  2  0
 19 20  1  0
 20 21  2  0
 21 22  1  0
 22 23  2  0
 23 24  1  0
 24 25  2  0
 25 26  1  0
 26 27  2  0
  8 28  1  0
 28 29  2  0
 29  5  1  0
 26  9  1  0
 18 13  1  0
 25 20  1  0
  1 30  1  0
  1 31  1  0
  1 32  1  0
  6 33  1  0
  7 34  1  0
 11 35  1  0
 12 36  1  0
 14 37  1  0
 15 38  1  0
 16 39  1  0
 17 40  1  0
 21 41  1  0
 22 42  1  0
 23 43  1  0
 24 44  1  0
 28 45  1  0
 29 46  1  0
M  END
>  <smiles>  (4) 
CS(=O)(=O)c1ccc(-n2c(/C=C/c3ccccn3)nc3ccccc3c2=O)cc1

>  <score_type>  (4) 
oracle

>  <origin>  (4) 
autodockgpu

>  <m_score__min__energy>  (4) 
-8.7100000000000009

>  <m_primary>  (4) 
energy

>  <rmsd>  (4) 
5.739603500515501

>  <m_score__min__rmsd>  (4) 
5.739603500515501

>  <meeko>  (4) 
{"free_energy": -8.57, "intermolecular_energy": -10.06, "internal_energy": -0.98, "cluster_size": 30, "cluster_id": 1, "rank_in_cluster": 14}

>  <energy>  (4) 
-8.65

>  <cluster_rmsd>  (4) 
0.26

>  <cluster>  (4) 
1

$$$$

     RDKit          3D

 46 49  0  0  0  0  0  0  0  0999 V2000
  135.5280   80.2080  224.1300 C   0  0  0  0  0  0  0  0  0  0  0  0
  137.2030   80.8300  224.2230 S   0  0  0  0  0  0  0  0  0  0  0  0
  137.2700   82.2380  223.6570 O   0  0  0  0  0  0  0  0  0  0  0  0
  137.6160   80.9400  225.6660 O   0  0  0  0  0  0  0  0  0  0  0  0
  138.2960   79.8020  223.3220 C   0  0  0  0  0  0  0  0  0  0  0  0
  137.9190   79.4410  222.0450 C   0  0  0  0  0  0  0  0  0  0  0  0
  138.7170   78.6290  221.2520 C   0  0  0  0  0  0  0  0  0  0  0  0
  139.9210   78.1750  221.7610 C   0  0  0  0  0  0  0  0  0  0  0  0
  140.8120   77.3450  221.0440 N   0  0  0  0  0  0  0  0  0  0  0  0
  141.5160   77.8090  219.9940 C   0  0  0  0  0  0  0  0  0  0  0  0
  141.3790   79.2120  219.5510 C   0  0  0  0  0  0  0  0  0  0  0  0
  142.1860   80.1460  220.0260 C   0  0  0  0  0  0  0  0  0  0  0  0
  142.2000   80.5680  221.4000 C   0  0  0  0  0  0  0  0  0  0  0  0
  143.0200   80.0250  222.3420 C   0  0  0  0  0  0  0  0  0  0  0  0
  143.0100   80.4550  223.6680 C   0  0  0  0  0  0  0  0  0  0  0  0
  142.1270   81.4770  224.0310 C   0  0  0  0  0  0  0  0  0  0  0  0
  141.3080   82.0070  223.0570 C   0  0  0  0  0  0  0  0  0  0  0  0
  141.3630   81.5530  221.7980 N   0  0  0  0  0  0  0  0  0  0  0  0
  142.3550   76.9880  219.3360 N   0  0  0  0  0  0  0  0  0  0  0  0
  142.5550   75.6950  219.6530 C   0  0  0  0  0  0  0  0  0  0  0  0
  143.4290   74.8960  218.9440 C   0  0  0  0  0  0  0  0  0  0  0  0
  143.5690   73.5800  219.3470 C   0  0  0  0  0  0  0  0  0  0  0  0
  142.8700   73.0850  220.4040 C   0  0  0  0  0  0  0  0  0  0  0  0
  141.9990   73.8960  221.1060 C   0  0  0  0  0  0  0  0  0  0  0  0
  141.8330   75.2060  220.7380 C   0  0  0  0  0  0  0  0  0  0  0  0
  140.9760   76.0590  221.4030 C   0  0  0  0  0  0  0  0  0  0  0  0
  140.3420   75.5690  222.3820 O   0  0  0  0  0  0  0  0  0  0  0  0
  140.2830   78.5500  223.0500 C   0  0  0  0  0  0  0  0  0  0  0  0
  139.4960   79.3510  223.8350 C   0  0  0  0  0  0  0  0  0  0  0  0
  135.1342   80.0618  225.1466 H   0  0  0  0  0  0  0  0  0  0  0  0
  134.8973   80.9319  223.5931 H   0  0  0  0  0  0  0  0  0  0  0  0
  135.5227   79.2479  223.5931 H   0  0  0  0  0  0  0  0  0  0  0  0
  136.9615   79.8062  221.6453 H   0  0  0  0  0  0  0  0  0  0  0  0
  138.3982   78.3510  220.2366 H   0  0  0  0  0  0  0  0  0  0  0  0
  140.6009   79.4813  218.8216 H   0  0  0  0  0  0  0  0  0  0  0  0
  142.8873   80.6280  219.3290 H   0  0  0  0  0  0  0  0  0  0  0  0
  143.7118   79.2221  222.0474 H   0  0  0  0  0  0  0  0  0  0  0  0
  143.6812   80.0009  224.4118 H   0  0  0  0  0  0  0  0  0  0  0  0
  142.0871   81.8479  225.0658 H   0  0  0  0  0  0  0  0  0  0  0  0
  140.6027   82.8103  223.3161 H   0  0  0  0  0  0  0  0  0  0  0  0
  143.9949   75.2920  218.0879 H   0  0  0  0  0  0  0  0  0  0  0  0
  144.2598   72.9202  218.8015 H   0  0  0  0  0  0  0  0  0  0  0  0
  142.9989   72.0338  220.7013 H   0  0  0  0  0  0  0  0  0  0  0  0
  141.4383   73.4901  221.9609 H   0  0  0  0  0  0  0  0  0  0  0  0
  141.2396   78.1891  223.4558 H   0  0  0  0  0  0  0  0  0  0  0  0
  139.8130   79.6286  224.8511 H   0  0  0  0  0  0  0  0  0  0  0  0
  1  2  1  0
  2  3  2  0
  2  4  2  0
  2  5  1  0
  5  6  2  0
  6  7  1  0
  7  8  2  0
  8  9  1  0
  9 10  1  0
 10 11  1  0
 11 12  2  0
 12 13  1  0
 13 14  2  0
 14 15  1  0
 15 16  2  0
 16 17  1  0
 17 18  2  0
 10 19  2  0
 19 20  1  0
 20 21  2  0
 21 22  1  0
 22 23  2  0
 23 24  1  0
 24 25  2  0
 25 26  1  0
 26 27  2  0
  8 28  1  0
 28 29  2  0
 29  5  1  0
 26  9  1  0
 18 13  1  0
 25 20  1  0
  1 30  1  0
  1 31  1  0
  1 32  1  0
  6 33  1  0
  7 34  1  0
 11 35  1  0
 12 36  1  0
 14 37  1  0
 15 38  1  0
 16 39  1  0
 17 40  1  0
 21 41  1  0
 22 42  1  0
 23 43  1  0
 24 44  1  0
 28 45  1  0
 29 46  1  0
M  END
>  <smiles>  (5) 
CS(=O)(=O)c1ccc(-n2c(/C=C/c3ccccn3)nc3ccccc3c2=O)cc1

>  <score_type>  (5) 
oracle

>  <origin>  (5) 
autodockgpu

>  <m_score__min__energy>  (5) 
-8.7100000000000009

>  <m_primary>  (5) 
energy

>  <rmsd>  (5) 
7.193964221307708

>  <m_score__min__rmsd>  (5) 
7.193964221307708

>  <meeko>  (5) 
{"free_energy": -6.77, "intermolecular_energy": -8.26, "internal_energy": -2.09, "cluster_size": 15, "cluster_id": 4, "rank_in_cluster": 2}

>  <energy>  (5) 
-8.65

>  <cluster_rmsd>  (5) 
0.17

>  <cluster>  (5) 
1

$$$$

     RDKit          3D

 46 49  0  0  0  0  0  0  0  0999 V2000
  145.9310   69.0760  217.4840 C   0  0  0  0  0  0  0  0  0  0  0  0
  145.0970   68.6860  219.0180 S   0  0  0  0  0  0  0  0  0  0  0  0
  144.1430   67.5210  218.8130 O   0  0  0  0  0  0  0  0  0  0  0  0
  146.1070   68.2250  220.0340 O   0  0  0  0  0  0  0  0  0  0  0  0
  144.1920   70.0670  219.5970 C   0  0  0  0  0  0  0  0  0  0  0  0
  142.8150   69.9880  219.5520 C   0  0  0  0  0  0  0  0  0  0  0  0
  142.0110   71.0300  219.9880 C   0  0  0  0  0  0  0  0  0  0  0  0
  142.6110   72.1760  220.4820 C   0  0  0  0  0  0  0  0  0  0  0  0
  141.8920   73.2970  220.9520 N   0  0  0  0  0  0  0  0  0  0  0  0
  140.9570   73.1800  221.9140 C   0  0  0  0  0  0  0  0  0  0  0  0
  140.6460   71.8650  222.5130 C   0  0  0  0  0  0  0  0  0  0  0  0
  139.7660   71.7690  223.4960 C   0  0  0  0  0  0  0  0  0  0  0  0
  140.0650   71.2070  224.7840 C   0  0  0  0  0  0  0  0  0  0  0  0
  140.7810   71.8610  225.7400 C   0  0  0  0  0  0  0  0  0  0  0  0
  141.0560   71.2890  226.9810 C   0  0  0  0  0  0  0  0  0  0  0  0
  140.5760   70.0010  227.2430 C   0  0  0  0  0  0  0  0  0  0  0  0
  139.8550   69.3620  226.2570 C   0  0  0  0  0  0  0  0  0  0  0  0
  139.6220   69.9640  225.0830 N   0  0  0  0  0  0  0  0  0  0  0  0
  140.2930   74.2720  222.3370 N   0  0  0  0  0  0  0  0  0  0  0  0
  140.4940   75.5140  221.8600 C   0  0  0  0  0  0  0  0  0  0  0  0
  139.7850   76.6020  222.3300 C   0  0  0  0  0  0  0  0  0  0  0  0
  140.0640   77.8390  221.7780 C   0  0  0  0  0  0  0  0  0  0  0  0
  141.0040   77.9860  220.8060 C   0  0  0  0  0  0  0  0  0  0  0  0
  141.7080   76.8900  220.3450 C   0  0  0  0  0  0  0  0  0  0  0  0
  141.4600   75.6460  220.8670 C   0  0  0  0  0  0  0  0  0  0  0  0
  142.1330   74.5180  220.4430 C   0  0  0  0  0  0  0  0  0  0  0  0
  143.0010   74.6870  219.5370 O   0  0  0  0  0  0  0  0  0  0  0  0
  144.0000   72.2350  220.5190 C   0  0  0  0  0  0  0  0  0  0  0  0
  144.7960   71.2070  220.0880 C   0  0  0  0  0  0  0  0  0  0  0  0
  146.9074   69.5326  217.7033 H   0  0  0  0  0  0  0  0  0  0  0  0
  146.0796   68.1540  216.9028 H   0  0  0  0  0  0  0  0  0  0  0  0
  145.3187   69.7812  216.9028 H   0  0  0  0  0  0  0  0  0  0  0  0
  142.3432   69.0749  219.1601 H   0  0  0  0  0  0  0  0  0  0  0  0
  140.9150   70.9477  219.9423 H   0  0  0  0  0  0  0  0  0  0  0  0
  141.1492   70.9611  222.1392 H   0  0  0  0  0  0  0  0  0  0  0  0
  138.7464   72.1409  223.3169 H   0  0  0  0  0  0  0  0  0  0  0  0
  141.1544   72.8733  225.5260 H   0  0  0  0  0  0  0  0  0  0  0  0
  141.6370   71.8375  227.7370 H   0  0  0  0  0  0  0  0  0  0  0  0
  140.7687   69.5118  228.2092 H   0  0  0  0  0  0  0  0  0  0  0  0
  139.4673   68.3482  226.4358 H   0  0  0  0  0  0  0  0  0  0  0  0
  139.0244   76.4886  223.1165 H   0  0  0  0  0  0  0  0  0  0  0  0
  139.5138   78.7230  222.1327 H   0  0  0  0  0  0  0  0  0  0  0  0
  141.2047   78.9822  220.3849 H   0  0  0  0  0  0  0  0  0  0  0  0
  142.4675   77.0151  219.5592 H   0  0  0  0  0  0  0  0  0  0  0  0
  144.4790   73.1446  220.9105 H   0  0  0  0  0  0  0  0  0  0  0  0
  145.8921   71.2881  220.1321 H   0  0  0  0  0  0  0  0  0  0  0  0
  1  2  1  0
  2  3  2  0
  2  4  2  0
  2  5  1  0
  5  6  2  0
  6  7  1  0
  7  8  2  0
  8  9  1  0
  9 10  1  0
 10 11  1  0
 11 12  2  0
 12 13  1  0
 13 14  2  0
 14 15  1  0
 15 16  2  0
 16 17  1  0
 17 18  2  0
 10 19  2  0
 19 20  1  0
 20 21  2  0
 21 22  1  0
 22 23  2  0
 23 24  1  0
 24 25  2  0
 25 26  1  0
 26 27  2  0
  8 28  1  0
 28 29  2  0
 29  5  1  0
 26  9  1  0
 18 13  1  0
 25 20  1  0
  1 30  1  0
  1 31  1  0
  1 32  1  0
  6 33  1  0
  7 34  1  0
 11 35  1  0
 12 36  1  0
 14 37  1  0
 15 38  1  0
 16 39  1  0
 17 40  1  0
 21 41  1  0
 22 42  1  0
 23 43  1  0
 24 44  1  0
 28 45  1  0
 29 46  1  0
M  END
>  <smiles>  (6) 
CS(=O)(=O)c1ccc(-n2c(/C=C/c3ccccn3)nc3ccccc3c2=O)cc1

>  <score_type>  (6) 
oracle

>  <origin>  (6) 
autodockgpu

>  <m_score__min__energy>  (6) 
-8.7100000000000009

>  <m_primary>  (6) 
energy

>  <rmsd>  (6) 
5.930270361712813

>  <m_score__min__rmsd>  (6) 
5.930270361712813

>  <meeko>  (6) 
{"free_energy": -8.07, "intermolecular_energy": -9.56, "internal_energy": -0.99, "cluster_size": 30, "cluster_id": 1, "rank_in_cluster": 24}

>  <energy>  (6) 
-8.64

>  <cluster_rmsd>  (6) 
0.5

>  <cluster>  (6) 
1

$$$$

     RDKit          3D

 46 49  0  0  0  0  0  0  0  0999 V2000
  144.6580   68.3000  217.5940 C   0  0  0  0  0  0  0  0  0  0  0  0
  145.3830   69.1720  218.9780 S   0  0  0  0  0  0  0  0  0  0  0  0
  145.6710   68.2040  220.1130 O   0  0  0  0  0  0  0  0  0  0  0  0
  146.7150   69.7410  218.5670 O   0  0  0  0  0  0  0  0  0  0  0  0
  144.3040   70.4220  219.5550 C   0  0  0  0  0  0  0  0  0  0  0  0
  144.8770   71.5500  220.1070 C   0  0  0  0  0  0  0  0  0  0  0  0
  144.1060   72.5950  220.5920 C   0  0  0  0  0  0  0  0  0  0  0  0
  142.7270   72.4990  220.5180 C   0  0  0  0  0  0  0  0  0  0  0  0
  141.8450   73.5010  220.9810 N   0  0  0  0  0  0  0  0  0  0  0  0
  140.9100   73.2400  221.9130 C   0  0  0  0  0  0  0  0  0  0  0  0
  140.7720   71.8860  222.4890 C   0  0  0  0  0  0  0  0  0  0  0  0
  139.8870   71.6520  223.4440 C   0  0  0  0  0  0  0  0  0  0  0  0
  140.2230   71.0920  224.7240 C   0  0  0  0  0  0  0  0  0  0  0  0
  140.0750   69.7730  225.0270 C   0  0  0  0  0  0  0  0  0  0  0  0
  140.4080   69.2580  226.2790 C   0  0  0  0  0  0  0  0  0  0  0  0
  140.9110   70.1340  227.2470 C   0  0  0  0  0  0  0  0  0  0  0  0
  141.0500   71.4640  226.9130 C   0  0  0  0  0  0  0  0  0  0  0  0
  140.7120   71.9000  225.6930 N   0  0  0  0  0  0  0  0  0  0  0  0
  140.0880   74.2220  222.3280 N   0  0  0  0  0  0  0  0  0  0  0  0
  140.1250   75.4870  221.8720 C   0  0  0  0  0  0  0  0  0  0  0  0
  139.2580   76.4570  222.3330 C   0  0  0  0  0  0  0  0  0  0  0  0
  139.3750   77.7290  221.8030 C   0  0  0  0  0  0  0  0  0  0  0  0
  140.3110   78.0210  220.8600 C   0  0  0  0  0  0  0  0  0  0  0  0
  141.1740   77.0410  220.4080 C   0  0  0  0  0  0  0  0  0  0  0  0
  141.0900   75.7670  220.9080 C   0  0  0  0  0  0  0  0  0  0  0  0
  141.9260   74.7520  220.4910 C   0  0  0  0  0  0  0  0  0  0  0  0
  142.7860   75.0550  219.6130 O   0  0  0  0  0  0  0  0  0  0  0  0
  142.1700   71.3540  219.9590 C   0  0  0  0  0  0  0  0  0  0  0  0
  142.9300   70.3200  219.4790 C   0  0  0  0  0  0  0  0  0  0  0  0
  143.9966   67.5045  217.9677 H   0  0  0  0  0  0  0  0  0  0  0  0
  144.0752   69.0039  216.9817 H   0  0  0  0  0  0  0  0  0  0  0  0
  145.4565   67.8555  216.9817 H   0  0  0  0  0  0  0  0  0  0  0  0
  145.9732   71.6215  220.1635 H   0  0  0  0  0  0  0  0  0  0  0  0
  144.5820   73.4855  221.0283 H   0  0  0  0  0  0  0  0  0  0  0  0
  141.4090   71.0680  222.1215 H   0  0  0  0  0  0  0  0  0  0  0  0
  138.8336   71.9003  223.2470 H   0  0  0  0  0  0  0  0  0  0  0  0
  139.6799   69.0916  224.2591 H   0  0  0  0  0  0  0  0  0  0  0  0
  140.2784   68.1884  226.5005 H   0  0  0  0  0  0  0  0  0  0  0  0
  141.1881   69.7711  228.2477 H   0  0  0  0  0  0  0  0  0  0  0  0
  141.4424   72.1741  227.6559 H   0  0  0  0  0  0  0  0  0  0  0  0
  138.4999   76.2262  223.0959 H   0  0  0  0  0  0  0  0  0  0  0  0
  138.6966   78.5217  222.1514 H   0  0  0  0  0  0  0  0  0  0  0  0
  140.3812   79.0416  220.4556 H   0  0  0  0  0  0  0  0  0  0  0  0
  141.9294   77.2833  219.6460 H   0  0  0  0  0  0  0  0  0  0  0  0
  141.0744   71.2752  219.8998 H   0  0  0  0  0  0  0  0  0  0  0  0
  142.4555   69.4286  219.0429 H   0  0  0  0  0  0  0  0  0  0  0  0
  1  2  1  0
  2  3  2  0
  2  4  2  0
  2  5  1  0
  5  6  2  0
  6  7  1  0
  7  8  2  0
  8  9  1  0
  9 10  1  0
 10 11  1  0
 11 12  2  0
 12 13  1  0
 13 14  2  0
 14 15  1  0
 15 16  2  0
 16 17  1  0
 17 18  2  0
 10 19  2  0
 19 20  1  0
 20 21  2  0
 21 22  1  0
 22 23  2  0
 23 24  1  0
 24 25  2  0
 25 26  1  0
 26 27  2  0
  8 28  1  0
 28 29  2  0
 29  5  1  0
 26  9  1  0
 18 13  1  0
 25 20  1  0
  1 30  1  0
  1 31  1  0
  1 32  1  0
  6 33  1  0
  7 34  1  0
 11 35  1  0
 12 36  1  0
 14 37  1  0
 15 38  1  0
 16 39  1  0
 17 40  1  0
 21 41  1  0
 22 42  1  0
 23 43  1  0
 24 44  1  0
 28 45  1  0
 29 46  1  0
M  END
>  <smiles>  (7) 
CS(=O)(=O)c1ccc(-n2c(/C=C/c3ccccn3)nc3ccccc3c2=O)cc1

>  <score_type>  (7) 
oracle

>  <origin>  (7) 
autodockgpu

>  <m_score__min__energy>  (7) 
-8.7100000000000009

>  <m_primary>  (7) 
energy

>  <rmsd>  (7) 
5.582406546017319

>  <m_score__min__rmsd>  (7) 
5.582406546017319

>  <meeko>  (7) 
{"free_energy": -8.58, "intermolecular_energy": -10.07, "internal_energy": -0.98, "cluster_size": 30, "cluster_id": 1, "rank_in_cluster": 13}

>  <energy>  (7) 
-8.64

>  <cluster_rmsd>  (7) 
0.52

>  <cluster>  (7) 
1

$$$$

     RDKit          3D

 46 49  0  0  0  0  0  0  0  0999 V2000
  136.9010   82.2260  223.2780 C   0  0  0  0  0  0  0  0  0  0  0  0
  137.1460   80.6660  224.1180 S   0  0  0  0  0  0  0  0  0  0  0  0
  137.6890   80.9050  225.5170 O   0  0  0  0  0  0  0  0  0  0  0  0
  135.8180   79.9810  224.2980 O   0  0  0  0  0  0  0  0  0  0  0  0
  138.2720   79.6590  223.2360 C   0  0  0  0  0  0  0  0  0  0  0  0
  137.8970   79.2410  221.9750 C   0  0  0  0  0  0  0  0  0  0  0  0
  138.7200   78.4400  221.1980 C   0  0  0  0  0  0  0  0  0  0  0  0
  139.9490   78.0540  221.7050 C   0  0  0  0  0  0  0  0  0  0  0  0
  140.8660   77.2420  221.0040 N   0  0  0  0  0  0  0  0  0  0  0  0
  141.5680   77.7150  219.9570 C   0  0  0  0  0  0  0  0  0  0  0  0
  141.4000   79.1110  219.5010 C   0  0  0  0  0  0  0  0  0  0  0  0
  142.1950   80.0640  219.9580 C   0  0  0  0  0  0  0  0  0  0  0  0
  142.1860   80.5270  221.3190 C   0  0  0  0  0  0  0  0  0  0  0  0
  141.4410   81.5830  221.7460 C   0  0  0  0  0  0  0  0  0  0  0  0
  141.4550   82.0110  223.0730 C   0  0  0  0  0  0  0  0  0  0  0  0
  142.2620   81.3240  223.9860 C   0  0  0  0  0  0  0  0  0  0  0  0
  143.0060   80.2590  223.5260 C   0  0  0  0  0  0  0  0  0  0  0  0
  142.9520   79.8950  222.2380 N   0  0  0  0  0  0  0  0  0  0  0  0
  142.4340   76.9090  219.3130 N   0  0  0  0  0  0  0  0  0  0  0  0
  142.6630   75.6250  219.6420 C   0  0  0  0  0  0  0  0  0  0  0  0
  143.5640   74.8420  218.9480 C   0  0  0  0  0  0  0  0  0  0  0  0
  143.7320   73.5330  219.3630 C   0  0  0  0  0  0  0  0  0  0  0  0
  143.0370   73.0290  220.4170 C   0  0  0  0  0  0  0  0  0  0  0  0
  142.1390   73.8240  221.1050 C   0  0  0  0  0  0  0  0  0  0  0  0
  141.9440   75.1270  220.7250 C   0  0  0  0  0  0  0  0  0  0  0  0
  141.0600   75.9630  221.3750 C   0  0  0  0  0  0  0  0  0  0  0  0
  140.4280   75.4650  222.3520 O   0  0  0  0  0  0  0  0  0  0  0  0
  140.3080   78.4860  222.9780 C   0  0  0  0  0  0  0  0  0  0  0  0
  139.4960   79.2760  223.7470 C   0  0  0  0  0  0  0  0  0  0  0  0
  136.7752   83.0269  224.0214 H   0  0  0  0  0  0  0  0  0  0  0  0
  137.7758   82.4446  222.6480 H   0  0  0  0  0  0  0  0  0  0  0  0
  136.0013   82.1659  222.6480 H   0  0  0  0  0  0  0  0  0  0  0  0
  136.9200   79.5514  221.5762 H   0  0  0  0  0  0  0  0  0  0  0  0
  138.4018   78.1168  220.1959 H   0  0  0  0  0  0  0  0  0  0  0  0
  140.6093   79.3586  218.7775 H   0  0  0  0  0  0  0  0  0  0  0  0
  142.9036   80.5289  219.2567 H   0  0  0  0  0  0  0  0  0  0  0  0
  140.8078   82.1157  221.0213 H   0  0  0  0  0  0  0  0  0  0  0  0
  140.8458   82.8687  223.3943 H   0  0  0  0  0  0  0  0  0  0  0  0
  142.3017   81.6258  225.0430 H   0  0  0  0  0  0  0  0  0  0  0  0
  143.6501   79.7028  224.2229 H   0  0  0  0  0  0  0  0  0  0  0  0
  144.1288   75.2452  218.0945 H   0  0  0  0  0  0  0  0  0  0  0  0
  144.4433   72.8861  218.8286 H   0  0  0  0  0  0  0  0  0  0  0  0
  143.1898   71.9838  220.7240 H   0  0  0  0  0  0  0  0  0  0  0  0
  141.5806   73.4108  221.9579 H   0  0  0  0  0  0  0  0  0  0  0  0
  141.2840   78.1804  223.3831 H   0  0  0  0  0  0  0  0  0  0  0  0
  139.8120   79.5985  224.7501 H   0  0  0  0  0  0  0  0  0  0  0  0
  1  2  1  0
  2  3  2  0
  2  4  2  0
  2  5  1  0
  5  6  2  0
  6  7  1  0
  7  8  2  0
  8  9  1  0
  9 10  1  0
 10 11  1  0
 11 12  2  0
 12 13  1  0
 13 14  2  0
 14 15  1  0
 15 16  2  0
 16 17  1  0
 17 18  2  0
 10 19  2  0
 19 20  1  0
 20 21  2  0
 21 22  1  0
 22 23  2  0
 23 24  1  0
 24 25  2  0
 25 26  1  0
 26 27  2  0
  8 28  1  0
 28 29  2  0
 29  5  1  0
 26  9  1  0
 18 13  1  0
 25 20  1  0
  1 30  1  0
  1 31  1  0
  1 32  1  0
  6 33  1  0
  7 34  1  0
 11 35  1  0
 12 36  1  0
 14 37  1  0
 15 38  1  0
 16 39  1  0
 17 40  1  0
 21 41  1  0
 22 42  1  0
 23 43  1  0
 24 44  1  0
 28 45  1  0
 29 46  1  0
M  END
>  <smiles>  (8) 
CS(=O)(=O)c1ccc(-n2c(/C=C/c3ccccn3)nc3ccccc3c2=O)cc1

>  <score_type>  (8) 
oracle

>  <origin>  (8) 
autodockgpu

>  <m_score__min__energy>  (8) 
-8.7100000000000009

>  <m_primary>  (8) 
energy

>  <rmsd>  (8) 
7.220402300876451

>  <m_score__min__rmsd>  (8) 
7.220402300876451

>  <meeko>  (8) 
{"free_energy": -6.72, "intermolecular_energy": -8.21, "internal_energy": -2.09, "cluster_size": 15, "cluster_id": 4, "rank_in_cluster": 9}

>  <energy>  (8) 
-8.63

>  <cluster_rmsd>  (8) 
0.53

>  <cluster>  (8) 
1

$$$$

     RDKit          3D

 46 49  0  0  0  0  0  0  0  0999 V2000
  136.4490   82.5600  224.0420 C   0  0  0  0  0  0  0  0  0  0  0  0
  136.7440   80.9040  224.6500 S   0  0  0  0  0  0  0  0  0  0  0  0
  137.2800   80.9560  226.0710 O   0  0  0  0  0  0  0  0  0  0  0  0
  135.4380   80.1590  224.7240 O   0  0  0  0  0  0  0  0  0  0  0  0
  137.9000   80.0700  223.6360 C   0  0  0  0  0  0  0  0  0  0  0  0
  137.5270   79.8020  222.3350 C   0  0  0  0  0  0  0  0  0  0  0  0
  138.3730   79.1450  221.4550 C   0  0  0  0  0  0  0  0  0  0  0  0
  139.6240   78.7520  221.8980 C   0  0  0  0  0  0  0  0  0  0  0  0
  140.5670   78.0790  221.0900 N   0  0  0  0  0  0  0  0  0  0  0  0
  141.1440   78.6780  220.0330 C   0  0  0  0  0  0  0  0  0  0  0  0
  140.8080   80.0730  219.6760 C   0  0  0  0  0  0  0  0  0  0  0  0
  141.4050   81.0830  220.2870 C   0  0  0  0  0  0  0  0  0  0  0  0
  141.8950   81.0230  221.6370 C   0  0  0  0  0  0  0  0  0  0  0  0
  141.4210   81.8120  222.6410 C   0  0  0  0  0  0  0  0  0  0  0  0
  141.9170   81.7320  223.9420 C   0  0  0  0  0  0  0  0  0  0  0  0
  142.9320   80.8080  224.2130 C   0  0  0  0  0  0  0  0  0  0  0  0
  143.3930   80.0230  223.1770 C   0  0  0  0  0  0  0  0  0  0  0  0
  142.8770   80.1460  221.9460 N   0  0  0  0  0  0  0  0  0  0  0  0
  142.0380   78.0040  219.2860 N   0  0  0  0  0  0  0  0  0  0  0  0
  142.4160   76.7340  219.5200 C   0  0  0  0  0  0  0  0  0  0  0  0
  143.3390   76.0870  218.7220 C   0  0  0  0  0  0  0  0  0  0  0  0
  143.6650   74.7810  219.0430 C   0  0  0  0  0  0  0  0  0  0  0  0
  143.0970   74.1510  220.1060 C   0  0  0  0  0  0  0  0  0  0  0  0
  142.1750   74.8090  220.8980 C   0  0  0  0  0  0  0  0  0  0  0  0
  141.8260   76.1050  220.6120 C   0  0  0  0  0  0  0  0  0  0  0  0
  140.9110   76.8080  221.3680 C   0  0  0  0  0  0  0  0  0  0  0  0
  140.4020   76.1940  222.3500 O   0  0  0  0  0  0  0  0  0  0  0  0
  139.9820   79.0320  223.2130 C   0  0  0  0  0  0  0  0  0  0  0  0
  139.1460   79.6790  224.0840 C   0  0  0  0  0  0  0  0  0  0  0  0
  136.3267   83.2466  224.8927 H   0  0  0  0  0  0  0  0  0  0  0  0
  137.3037   82.8835  223.4297 H   0  0  0  0  0  0  0  0  0  0  0  0
  135.5352   82.5684  223.4297 H   0  0  0  0  0  0  0  0  0  0  0  0
  136.5325   80.1179  221.9870 H   0  0  0  0  0  0  0  0  0  0  0  0
  138.0554   78.9395  220.4221 H   0  0  0  0  0  0  0  0  0  0  0  0
  140.0569   80.2721  218.8974 H   0  0  0  0  0  0  0  0  0  0  0  0
  141.5339   82.0228  219.7300 H   0  0  0  0  0  0  0  0  0  0  0  0
  140.6221   82.5348  222.4188 H   0  0  0  0  0  0  0  0  0  0  0  0
  141.5194   82.3804  224.7367 H   0  0  0  0  0  0  0  0  0  0  0  0
  143.3511   80.7102  225.2253 H   0  0  0  0  0  0  0  0  0  0  0  0
  144.1913   79.2894  223.3626 H   0  0  0  0  0  0  0  0  0  0  0  0
  143.7994   76.5927  217.8604 H   0  0  0  0  0  0  0  0  0  0  0  0
  144.3985   74.2415  218.4258 H   0  0  0  0  0  0  0  0  0  0  0  0
  143.3730   73.1115  220.3369 H   0  0  0  0  0  0  0  0  0  0  0  0
  141.7210   74.2939  221.7574 H   0  0  0  0  0  0  0  0  0  0  0  0
  140.9760   78.7214  223.5673 H   0  0  0  0  0  0  0  0  0  0  0  0
  139.4606   79.8827  225.1182 H   0  0  0  0  0  0  0  0  0  0  0  0
  1  2  1  0
  2  3  2  0
  2  4  2  0
  2  5  1  0
  5  6  2  0
  6  7  1  0
  7  8  2  0
  8  9  1  0
  9 10  1  0
 10 11  1  0
 11 12  2  0
 12 13  1  0
 13 14  2  0
 14 15  1  0
 15 16  2  0
 16 17  1  0
 17 18  2  0
 10 19  2  0
 19 20  1  0
 20 21  2  0
 21 22  1  0
 22 23  2  0
 23 24  1  0
 24 25  2  0
 25 26  1  0
 26 27  2  0
  8 28  1  0
 28 29  2  0
 29  5  1  0
 26  9  1  0
 18 13  1  0
 25 20  1  0
  1 30  1  0
  1 31  1  0
  1 32  1  0
  6 33  1  0
  7 34  1  0
 11 35  1  0
 12 36  1  0
 14 37  1  0
 15 38  1  0
 16 39  1  0
 17 40  1  0
 21 41  1  0
 22 42  1  0
 23 43  1  0
 24 44  1  0
 28 45  1  0
 29 46  1  0
M  END
>  <smiles>  (9) 
CS(=O)(=O)c1ccc(-n2c(/C=C/c3ccccn3)nc3ccccc3c2=O)cc1

>  <score_type>  (9) 
oracle

>  <origin>  (9) 
autodockgpu

>  <m_score__min__energy>  (9) 
-8.7100000000000009

>  <m_primary>  (9) 
energy

>  <rmsd>  (9) 
6.836652239575813

>  <m_score__min__rmsd>  (9) 
6.836652239575813

>  <meeko>  (9) 
{"free_energy": -6.71, "intermolecular_energy": -8.21, "internal_energy": -1.99, "cluster_size": 15, "cluster_id": 4, "rank_in_cluster": 11}

>  <energy>  (9) 
-8.62

>  <cluster_rmsd>  (9) 
0.52

>  <cluster>  (9) 
1

$$$$

     RDKit          3D

 46 49  0  0  0  0  0  0  0  0999 V2000
  136.8830   82.3700  223.2550 C   0  0  0  0  0  0  0  0  0  0  0  0
  137.1080   80.8150  224.1100 S   0  0  0  0  0  0  0  0  0  0  0  0
  137.6460   81.0610  225.5100 O   0  0  0  0  0  0  0  0  0  0  0  0
  135.7720   80.1450  224.2890 O   0  0  0  0  0  0  0  0  0  0  0  0
  138.2270   79.7880  223.2420 C   0  0  0  0  0  0  0  0  0  0  0  0
  137.9030   79.4500  221.9440 C   0  0  0  0  0  0  0  0  0  0  0  0
  138.7260   78.6410  221.1750 C   0  0  0  0  0  0  0  0  0  0  0  0
  139.9020   78.1650  221.7290 C   0  0  0  0  0  0  0  0  0  0  0  0
  140.8140   77.3360  221.0390 N   0  0  0  0  0  0  0  0  0  0  0  0
  141.5390   77.7970  220.0030 C   0  0  0  0  0  0  0  0  0  0  0  0
  141.4040   79.1960  219.5460 C   0  0  0  0  0  0  0  0  0  0  0  0
  142.1910   80.1390  220.0360 C   0  0  0  0  0  0  0  0  0  0  0  0
  142.2220   80.5110  221.4240 C   0  0  0  0  0  0  0  0  0  0  0  0
  142.9520   79.8470  222.3620 C   0  0  0  0  0  0  0  0  0  0  0  0
  142.9620   80.2310  223.7020 C   0  0  0  0  0  0  0  0  0  0  0  0
  142.1950   81.3370  224.0840 C   0  0  0  0  0  0  0  0  0  0  0  0
  141.4650   81.9900  223.1140 C   0  0  0  0  0  0  0  0  0  0  0  0
  141.4950   81.5740  221.8410 N   0  0  0  0  0  0  0  0  0  0  0  0
  142.3990   76.9760  219.3700 N   0  0  0  0  0  0  0  0  0  0  0  0
  142.5990   75.6870  219.7010 C   0  0  0  0  0  0  0  0  0  0  0  0
  143.4950   74.8880  219.0190 C   0  0  0  0  0  0  0  0  0  0  0  0
  143.6330   73.5760  219.4350 C   0  0  0  0  0  0  0  0  0  0  0  0
  142.9130   73.0840  220.4790 C   0  0  0  0  0  0  0  0  0  0  0  0
  142.0210   73.8950  221.1550 C   0  0  0  0  0  0  0  0  0  0  0  0
  141.8550   75.2020  220.7730 C   0  0  0  0  0  0  0  0  0  0  0  0
  140.9780   76.0540  221.4120 C   0  0  0  0  0  0  0  0  0  0  0  0
  140.3240   75.5670  222.3790 O   0  0  0  0  0  0  0  0  0  0  0  0
  140.2100   78.5170  223.0380 C   0  0  0  0  0  0  0  0  0  0  0  0
  139.3980   79.3150  223.8000 C   0  0  0  0  0  0  0  0  0  0  0  0
  136.7659   83.1793  223.9907 H   0  0  0  0  0  0  0  0  0  0  0  0
  137.7613   82.5721  222.6243 H   0  0  0  0  0  0  0  0  0  0  0  0
  135.9835   82.3148  222.6243 H   0  0  0  0  0  0  0  0  0  0  0  0
  136.9681   79.8320  221.5081 H   0  0  0  0  0  0  0  0  0  0  0  0
  138.4491   78.3819  220.1424 H   0  0  0  0  0  0  0  0  0  0  0  0
  140.6442   79.4544  218.7937 H   0  0  0  0  0  0  0  0  0  0  0  0
  142.8599   80.6688  219.3419 H   0  0  0  0  0  0  0  0  0  0  0  0
  143.5533   78.9795  222.0524 H   0  0  0  0  0  0  0  0  0  0  0  0
  143.5590   79.6774  224.4417 H   0  0  0  0  0  0  0  0  0  0  0  0
  142.1750   81.6763  225.1302 H   0  0  0  0  0  0  0  0  0  0  0  0
  140.8518   82.8612  223.3880 H   0  0  0  0  0  0  0  0  0  0  0  0
  144.0790   75.2813  218.1739 H   0  0  0  0  0  0  0  0  0  0  0  0
  144.3400   72.9165  218.9104 H   0  0  0  0  0  0  0  0  0  0  0  0
  143.0413   72.0357  220.7867 H   0  0  0  0  0  0  0  0  0  0  0  0
  141.4436   73.4920  222.0001 H   0  0  0  0  0  0  0  0  0  0  0  0
  141.1438   78.1394  223.4800 H   0  0  0  0  0  0  0  0  0  0  0  0
  139.6728   79.5732  224.8334 H   0  0  0  0  0  0  0  0  0  0  0  0
  1  2  1  0
  2  3  2  0
  2  4  2  0
  2  5  1  0
  5  6  2  0
  6  7  1  0
  7  8  2  0
  8  9  1  0
  9 10  1  0
 10 11  1  0
 11 12  2  0
 12 13  1  0
 13 14  2  0
 14 15  1  0
 15 16  2  0
 16 17  1  0
 17 18  2  0
 10 19  2  0
 19 20  1  0
 20 21  2  0
 21 22  1  0
 22 23  2  0
 23 24  1  0
 24 25  2  0
 25 26  1  0
 26 27  2  0
  8 28  1  0
 28 29  2  0
 29  5  1  0
 26  9  1  0
 18 13  1  0
 25 20  1  0
  1 30  1  0
  1 31  1  0
  1 32  1  0
  6 33  1  0
  7 34  1  0
 11 35  1  0
 12 36  1  0
 14 37  1  0
 15 38  1  0
 16 39  1  0
 17 40  1  0
 21 41  1  0
 22 42  1  0
 23 43  1  0
 24 44  1  0
 28 45  1  0
 29 46  1  0
M  END
>  <smiles>  (10) 
CS(=O)(=O)c1ccc(-n2c(/C=C/c3ccccn3)nc3ccccc3c2=O)cc1

>  <score_type>  (10) 
oracle

>  <origin>  (10) 
autodockgpu

>  <m_score__min__energy>  (10) 
-8.7100000000000009

>  <m_primary>  (10) 
energy

>  <rmsd>  (10) 
7.187946071640798

>  <m_score__min__rmsd>  (10) 
7.187946071640798

>  <meeko>  (10) 
{"free_energy": -6.8, "intermolecular_energy": -8.3, "internal_energy": -2.07, "cluster_size": 15, "cluster_id": 4, "rank_in_cluster": 1}

>  <energy>  (10) 
-8.6

>  <cluster_rmsd>  (10) 
0.54

>  <cluster>  (10) 
1

$$$$

     RDKit          3D

 46 49  0  0  0  0  0  0  0  0999 V2000
  144.6210   68.2050  217.6380 C   0  0  0  0  0  0  0  0  0  0  0  0
  145.4230   69.1620  218.9200 S   0  0  0  0  0  0  0  0  0  0  0  0
  145.8210   68.2590  220.0760 O   0  0  0  0  0  0  0  0  0  0  0  0
  146.7050   69.7410  218.3830 O   0  0  0  0  0  0  0  0  0  0  0  0
  144.3560   70.4130  219.5160 C   0  0  0  0  0  0  0  0  0  0  0  0
  144.9390   71.5240  220.0910 C   0  0  0  0  0  0  0  0  0  0  0  0
  144.1780   72.5690  220.5930 C   0  0  0  0  0  0  0  0  0  0  0  0
  142.7980   72.4900  220.5110 C   0  0  0  0  0  0  0  0  0  0  0  0
  141.9260   73.4930  220.9890 N   0  0  0  0  0  0  0  0  0  0  0  0
  140.9510   73.2150  221.8750 C   0  0  0  0  0  0  0  0  0  0  0  0
  140.7580   71.8400  222.3810 C   0  0  0  0  0  0  0  0  0  0  0  0
  139.8130   71.5820  223.2700 C   0  0  0  0  0  0  0  0  0  0  0  0
  140.0780   71.1480  224.6150 C   0  0  0  0  0  0  0  0  0  0  0  0
  140.8350   71.8580  225.4950 C   0  0  0  0  0  0  0  0  0  0  0  0
  141.0750   71.4110  226.7940 C   0  0  0  0  0  0  0  0  0  0  0  0
  140.5150   70.1940  227.1940 C   0  0  0  0  0  0  0  0  0  0  0  0
  139.7540   69.4950  226.2820 C   0  0  0  0  0  0  0  0  0  0  0  0
  139.5580   69.9760  225.0470 N   0  0  0  0  0  0  0  0  0  0  0  0
  140.1400   74.1980  222.3060 N   0  0  0  0  0  0  0  0  0  0  0  0
  140.2260   75.4820  221.9110 C   0  0  0  0  0  0  0  0  0  0  0  0
  139.3670   76.4530  222.3860 C   0  0  0  0  0  0  0  0  0  0  0  0
  139.5350   77.7450  221.9210 C   0  0  0  0  0  0  0  0  0  0  0  0
  140.5120   78.0540  221.0260 C   0  0  0  0  0  0  0  0  0  0  0  0
  141.3660   77.0730  220.5590 C   0  0  0  0  0  0  0  0  0  0  0  0
  141.2320   75.7800  220.9960 C   0  0  0  0  0  0  0  0  0  0  0  0
  142.0560   74.7620  220.5620 C   0  0  0  0  0  0  0  0  0  0  0  0
  142.9540   75.0820  219.7300 O   0  0  0  0  0  0  0  0  0  0  0  0
  142.2300   71.3620  219.9280 C   0  0  0  0  0  0  0  0  0  0  0  0
  142.9800   70.3290  219.4330 C   0  0  0  0  0  0  0  0  0  0  0  0
  143.9795   67.4395  218.0989 H   0  0  0  0  0  0  0  0  0  0  0  0
  144.0069   68.8705  217.0135 H   0  0  0  0  0  0  0  0  0  0  0  0
  145.3837   67.7167  217.0135 H   0  0  0  0  0  0  0  0  0  0  0  0
  146.0357   71.5821  220.1527 H   0  0  0  0  0  0  0  0  0  0  0  0
  144.6622   73.4454  221.0484 H   0  0  0  0  0  0  0  0  0  0  0  0
  141.4033   71.0271  222.0166 H   0  0  0  0  0  0  0  0  0  0  0  0
  138.7642   71.7066  222.9627 H   0  0  0  0  0  0  0  0  0  0  0  0
  141.2714   72.8146  225.1716 H   0  0  0  0  0  0  0  0  0  0  0  0
  141.6906   72.0022  227.4879 H   0  0  0  0  0  0  0  0  0  0  0  0
  140.6775   69.8046  228.2099 H   0  0  0  0  0  0  0  0  0  0  0  0
  139.3036   68.5338  226.5706 H   0  0  0  0  0  0  0  0  0  0  0  0
  138.5758   76.2075  223.1097 H   0  0  0  0  0  0  0  0  0  0  0  0
  138.8648   78.5389  222.2823 H   0  0  0  0  0  0  0  0  0  0  0  0
  140.6227   79.0897  220.6724 H   0  0  0  0  0  0  0  0  0  0  0  0
  142.1542   77.3296  219.8359 H   0  0  0  0  0  0  0  0  0  0  0  0
  141.1339   71.2973  219.8620 H   0  0  0  0  0  0  0  0  0  0  0  0
  142.4970   69.4511  218.9790 H   0  0  0  0  0  0  0  0  0  0  0  0
  1  2  1  0
  2  3  2  0
  2  4  2  0
  2  5  1  0
  5  6  2  0
  6  7  1  0
  7  8  2  0
  8  9  1  0
  9 10  1  0
 10 11  1  0
 11 12  2  0
 12 13  1  0
 13 14  2  0
 14 15  1  0
 15 16  2  0
 16 17  1  0
 17 18  2  0
 10 19  2  0
 19 20  1  0
 20 21  2  0
 21 22  1  0
 22 23  2  0
 23 24  1  0
 24 25  2  0
 25 26  1  0
 26 27  2  0
  8 28  1  0
 28 29  2  0
 29  5  1  0
 26  9  1  0
 18 13  1  0
 25 20  1  0
  1 30  1  0
  1 31  1  0
  1 32  1  0
  6 33  1  0
  7 34  1  0
 11 35  1  0
 12 36  1  0
 14 37  1  0
 15 38  1  0
 16 39  1  0
 17 40  1  0
 21 41  1  0
 22 42  1  0
 23 43  1  0
 24 44  1  0
 28 45  1  0
 29 46  1  0
M  END
>  <smiles>  (11) 
CS(=O)(=O)c1ccc(-n2c(/C=C/c3ccccn3)nc3ccccc3c2=O)cc1

>  <score_type>  (11) 
oracle

>  <origin>  (11) 
autodockgpu

>  <m_score__min__energy>  (11) 
-8.7100000000000009

>  <m_primary>  (11) 
energy

>  <rmsd>  (11) 
5.607604557595953

>  <m_score__min__rmsd>  (11) 
5.607604557595953

>  <meeko>  (11) 
{"free_energy": -8.59, "intermolecular_energy": -10.08, "internal_energy": -0.96, "cluster_size": 30, "cluster_id": 1, "rank_in_cluster": 11}

>  <energy>  (11) 
-8.59

>  <cluster_rmsd>  (11) 
0.52

>  <cluster>  (11) 
1

$$$$

     RDKit          3D

 46 49  0  0  0  0  0  0  0  0999 V2000
  136.9330   82.2460  223.2930 C   0  0  0  0  0  0  0  0  0  0  0  0
  137.1640   80.6730  224.1120 S   0  0  0  0  0  0  0  0  0  0  0  0
  137.6950   80.8890  225.5190 O   0  0  0  0  0  0  0  0  0  0  0  0
  135.8310   79.9910  224.2710 O   0  0  0  0  0  0  0  0  0  0  0  0
  138.2920   79.6730  223.2250 C   0  0  0  0  0  0  0  0  0  0  0  0
  137.9340   79.2890  221.9490 C   0  0  0  0  0  0  0  0  0  0  0  0
  138.7610   78.4970  221.1670 C   0  0  0  0  0  0  0  0  0  0  0  0
  139.9770   78.0850  221.6850 C   0  0  0  0  0  0  0  0  0  0  0  0
  140.8970   77.2790  220.9790 N   0  0  0  0  0  0  0  0  0  0  0  0
  141.5900   77.7560  219.9290 C   0  0  0  0  0  0  0  0  0  0  0  0
  141.4110   79.1510  219.4730 C   0  0  0  0  0  0  0  0  0  0  0  0
  142.1910   80.1120  219.9380 C   0  0  0  0  0  0  0  0  0  0  0  0
  142.1870   80.5530  221.3060 C   0  0  0  0  0  0  0  0  0  0  0  0
  141.4520   81.6090  221.7510 C   0  0  0  0  0  0  0  0  0  0  0  0
  141.4690   82.0150  223.0850 C   0  0  0  0  0  0  0  0  0  0  0  0
  142.2700   81.3060  223.9860 C   0  0  0  0  0  0  0  0  0  0  0  0
  143.0050   80.2420  223.5080 C   0  0  0  0  0  0  0  0  0  0  0  0
  142.9470   79.8990  222.2140 N   0  0  0  0  0  0  0  0  0  0  0  0
  142.4590   76.9570  219.2820 N   0  0  0  0  0  0  0  0  0  0  0  0
  142.6990   75.6740  219.6100 C   0  0  0  0  0  0  0  0  0  0  0  0
  143.6010   74.8970  218.9120 C   0  0  0  0  0  0  0  0  0  0  0  0
  143.7810   73.5890  219.3270 C   0  0  0  0  0  0  0  0  0  0  0  0
  143.0930   73.0810  220.3850 C   0  0  0  0  0  0  0  0  0  0  0  0
  142.1930   73.8700  221.0760 C   0  0  0  0  0  0  0  0  0  0  0  0
  141.9880   75.1720  220.6960 C   0  0  0  0  0  0  0  0  0  0  0  0
  141.1010   76.0020  221.3500 C   0  0  0  0  0  0  0  0  0  0  0  0
  140.4770   75.5000  222.3300 O   0  0  0  0  0  0  0  0  0  0  0  0
  140.3200   78.4840  222.9720 C   0  0  0  0  0  0  0  0  0  0  0  0
  139.5040   79.2650  223.7470 C   0  0  0  0  0  0  0  0  0  0  0  0
  136.8166   83.0384  224.0470 H   0  0  0  0  0  0  0  0  0  0  0  0
  137.8088   82.4641  222.6641 H   0  0  0  0  0  0  0  0  0  0  0  0
  136.0315   82.2031  222.6641 H   0  0  0  0  0  0  0  0  0  0  0  0
  136.9673   79.6198  221.5415 H   0  0  0  0  0  0  0  0  0  0  0  0
  138.4561   78.2011  220.1524 H   0  0  0  0  0  0  0  0  0  0  0  0
  140.6242   79.3908  218.7426 H   0  0  0  0  0  0  0  0  0  0  0  0
  142.8830   80.6023  219.2375 H   0  0  0  0  0  0  0  0  0  0  0  0
  140.8243   82.1599  221.0351 H   0  0  0  0  0  0  0  0  0  0  0  0
  140.8669   82.8723  223.4206 H   0  0  0  0  0  0  0  0  0  0  0  0
  142.3125   81.5898  225.0479 H   0  0  0  0  0  0  0  0  0  0  0  0
  143.6450   79.6693  224.1953 H   0  0  0  0  0  0  0  0  0  0  0  0
  144.1580   75.3035  218.0549 H   0  0  0  0  0  0  0  0  0  0  0  0
  144.4950   72.9470  218.7903 H   0  0  0  0  0  0  0  0  0  0  0  0
  143.2539   72.0370  220.6920 H   0  0  0  0  0  0  0  0  0  0  0  0
  141.6407   73.4536  221.9313 H   0  0  0  0  0  0  0  0  0  0  0  0
  141.2864   78.1591  223.3849 H   0  0  0  0  0  0  0  0  0  0  0  0
  139.8071   79.5606  224.7622 H   0  0  0  0  0  0  0  0  0  0  0  0
  1  2  1  0
  2  3  2  0
  2  4  2  0
  2  5  1  0
  5  6  2  0
  6  7  1  0
  7  8  2  0
  8  9  1  0
  9 10  1  0
 10 11  1  0
 11 12  2  0
 12 13  1  0
 13 14  2  0
 14 15  1  0
 15 16  2  0
 16 17  1  0
 17 18  2  0
 10 19  2  0
 19 20  1  0
 20 21  2  0
 21 22  1  0
 22 23  2  0
 23 24  1  0
 24 25  2  0
 25 26  1  0
 26 27  2  0
  8 28  1  0
 28 29  2  0
 29  5  1  0
 26  9  1  0
 18 13  1  0
 25 20  1  0
  1 30  1  0
  1 31  1  0
  1 32  1  0
  6 33  1  0
  7 34  1  0
 11 35  1  0
 12 36  1  0
 14 37  1  0
 15 38  1  0
 16 39  1  0
 17 40  1  0
 21 41  1  0
 22 42  1  0
 23 43  1  0
 24 44  1  0
 28 45  1  0
 29 46  1  0
M  END
>  <smiles>  (12) 
CS(=O)(=O)c1ccc(-n2c(/C=C/c3ccccn3)nc3ccccc3c2=O)cc1

>  <score_type>  (12) 
oracle

>  <origin>  (12) 
autodockgpu

>  <m_score__min__energy>  (12) 
-8.7100000000000009

>  <m_primary>  (12) 
energy

>  <rmsd>  (12) 
7.200204779382834

>  <m_score__min__rmsd>  (12) 
7.200204779382834

>  <meeko>  (12) 
{"free_energy": -6.72, "intermolecular_energy": -8.22, "internal_energy": -2.09, "cluster_size": 15, "cluster_id": 4, "rank_in_cluster": 8}

>  <energy>  (12) 
-8.58

>  <cluster_rmsd>  (12) 
0.51

>  <cluster>  (12) 
1

$$$$

     RDKit          3D

 46 49  0  0  0  0  0  0  0  0999 V2000
  145.2870   68.2900  218.9440 C   0  0  0  0  0  0  0  0  0  0  0  0
  145.8790   69.9770  218.8900 S   0  0  0  0  0  0  0  0  0  0  0  0
  147.1450   70.1140  219.7200 O   0  0  0  0  0  0  0  0  0  0  0  0
  146.2670   70.3260  217.4780 O   0  0  0  0  0  0  0  0  0  0  0  0
  144.6690   71.0770  219.5120 C   0  0  0  0  0  0  0  0  0  0  0  0
  145.1060   72.1170  220.3070 C   0  0  0  0  0  0  0  0  0  0  0  0
  144.2240   73.0410  220.8470 C   0  0  0  0  0  0  0  0  0  0  0  0
  142.8720   72.9120  220.5770 C   0  0  0  0  0  0  0  0  0  0  0  0
  141.8860   73.7930  221.0720 N   0  0  0  0  0  0  0  0  0  0  0  0
  140.8890   73.3590  221.8660 C   0  0  0  0  0  0  0  0  0  0  0  0
  140.7910   71.9350  222.2500 C   0  0  0  0  0  0  0  0  0  0  0  0
  139.8550   71.5320  223.0920 C   0  0  0  0  0  0  0  0  0  0  0  0
  140.1250   71.0750  224.4280 C   0  0  0  0  0  0  0  0  0  0  0  0
  139.7470   69.8530  224.8940 C   0  0  0  0  0  0  0  0  0  0  0  0
  140.0220   69.4390  226.1960 C   0  0  0  0  0  0  0  0  0  0  0  0
  140.7120   70.3140  227.0420 C   0  0  0  0  0  0  0  0  0  0  0  0
  141.0820   71.5450  226.5450 C   0  0  0  0  0  0  0  0  0  0  0  0
  140.7890   71.8880  225.2830 N   0  0  0  0  0  0  0  0  0  0  0  0
  139.9680   74.2300  222.3190 N   0  0  0  0  0  0  0  0  0  0  0  0
  139.9600   75.5440  222.0320 C   0  0  0  0  0  0  0  0  0  0  0  0
  138.9900   76.3950  222.5240 C   0  0  0  0  0  0  0  0  0  0  0  0
  139.0680   77.7310  222.1740 C   0  0  0  0  0  0  0  0  0  0  0  0
  140.0640   78.1960  221.3730 C   0  0  0  0  0  0  0  0  0  0  0  0
  141.0300   77.3350  220.8880 C   0  0  0  0  0  0  0  0  0  0  0  0
  140.9880   76.0030  221.2120 C   0  0  0  0  0  0  0  0  0  0  0  0
  141.9260   75.1000  220.7560 C   0  0  0  0  0  0  0  0  0  0  0  0
  142.8390   75.5640  220.0130 O   0  0  0  0  0  0  0  0  0  0  0  0
  142.4530   71.8570  219.7730 C   0  0  0  0  0  0  0  0  0  0  0  0
  143.3220   70.9430  219.2400 C   0  0  0  0  0  0  0  0  0  0  0  0
  145.1760   67.9737  219.9917 H   0  0  0  0  0  0  0  0  0  0  0  0
  144.3130   68.2268  218.4368 H   0  0  0  0  0  0  0  0  0  0  0  0
  146.0079   67.6320  218.4368 H   0  0  0  0  0  0  0  0  0  0  0  0
  146.1811   72.2155  220.5177 H   0  0  0  0  0  0  0  0  0  0  0  0
  144.5922   73.8625  221.4791 H   0  0  0  0  0  0  0  0  0  0  0  0
  141.5013   71.2061  221.8326 H   0  0  0  0  0  0  0  0  0  0  0  0
  138.8094   71.5472  222.7507 H   0  0  0  0  0  0  0  0  0  0  0  0
  139.2071   69.1704  224.2212 H   0  0  0  0  0  0  0  0  0  0  0  0
  139.7040   68.4474  226.5503 H   0  0  0  0  0  0  0  0  0  0  0  0
  140.9528   70.0271  228.0763 H   0  0  0  0  0  0  0  0  0  0  0  0
  141.6230   72.2528  227.1903 H   0  0  0  0  0  0  0  0  0  0  0  0
  138.1828   76.0231  223.1722 H   0  0  0  0  0  0  0  0  0  0  0  0
  138.3087   78.4318  222.5513 H   0  0  0  0  0  0  0  0  0  0  0  0
  140.1008   79.2634  221.1098 H   0  0  0  0  0  0  0  0  0  0  0  0
  141.8332   77.7183  220.2416 H   0  0  0  0  0  0  0  0  0  0  0  0
  141.3796   71.7528  219.5566 H   0  0  0  0  0  0  0  0  0  0  0  0
  142.9551   70.1201  218.6090 H   0  0  0  0  0  0  0  0  0  0  0  0
  1  2  1  0
  2  3  2  0
  2  4  2  0
  2  5  1  0
  5  6  2  0
  6  7  1  0
  7  8  2  0
  8  9  1  0
  9 10  1  0
 10 11  1  0
 11 12  2  0
 12 13  1  0
 13 14  2  0
 14 15  1  0
 15 16  2  0
 16 17  1  0
 17 18  2  0
 10 19  2  0
 19 20  1  0
 20 21  2  0
 21 22  1  0
 22 23  2  0
 23 24  1  0
 24 25  2  0
 25 26  1  0
 26 27  2  0
  8 28  1  0
 28 29  2  0
 29  5  1  0
 26  9  1  0
 18 13  1  0
 25 20  1  0
  1 30  1  0
  1 31  1  0
  1 32  1  0
  6 33  1  0
  7 34  1  0
 11 35  1  0
 12 36  1  0
 14 37  1  0
 15 38  1  0
 16 39  1  0
 17 40  1  0
 21 41  1  0
 22 42  1  0
 23 43  1  0
 24 44  1  0
 28 45  1  0
 29 46  1  0
M  END
>  <smiles>  (13) 
CS(=O)(=O)c1ccc(-n2c(/C=C/c3ccccn3)nc3ccccc3c2=O)cc1

>  <score_type>  (13) 
oracle

>  <origin>  (13) 
autodockgpu

>  <m_score__min__energy>  (13) 
-8.7100000000000009

>  <m_primary>  (13) 
energy

>  <rmsd>  (13) 
5.4202412599407745

>  <m_score__min__rmsd>  (13) 
5.4202412599407745

>  <meeko>  (13) 
{"free_energy": -8.12, "intermolecular_energy": -9.61, "internal_energy": -1.05, "cluster_size": 30, "cluster_id": 1, "rank_in_cluster": 20}

>  <energy>  (13) 
-8.58

>  <cluster_rmsd>  (13) 
0.21

>  <cluster>  (13) 
1

$$$$

     RDKit          3D

 46 49  0  0  0  0  0  0  0  0999 V2000
  136.8610   82.2750  223.3050 C   0  0  0  0  0  0  0  0  0  0  0  0
  137.1140   80.7150  224.1440 S   0  0  0  0  0  0  0  0  0  0  0  0
  137.6610   80.9560  225.5420 O   0  0  0  0  0  0  0  0  0  0  0  0
  135.7890   80.0250  224.3280 O   0  0  0  0  0  0  0  0  0  0  0  0
  138.2400   79.7120  223.2580 C   0  0  0  0  0  0  0  0  0  0  0  0
  137.8800   79.3260  221.9830 C   0  0  0  0  0  0  0  0  0  0  0  0
  138.7050   78.5310  221.2020 C   0  0  0  0  0  0  0  0  0  0  0  0
  139.9210   78.1180  221.7200 C   0  0  0  0  0  0  0  0  0  0  0  0
  140.8390   77.3090  221.0150 N   0  0  0  0  0  0  0  0  0  0  0  0
  141.5480   77.7890  219.9760 C   0  0  0  0  0  0  0  0  0  0  0  0
  141.3890   79.1900  219.5330 C   0  0  0  0  0  0  0  0  0  0  0  0
  142.1790   80.1370  220.0110 C   0  0  0  0  0  0  0  0  0  0  0  0
  142.1690   80.5710  221.3810 C   0  0  0  0  0  0  0  0  0  0  0  0
  142.9820   80.0490  222.3390 C   0  0  0  0  0  0  0  0  0  0  0  0
  142.9480   80.4900  223.6610 C   0  0  0  0  0  0  0  0  0  0  0  0
  142.0470   81.5030  224.0030 C   0  0  0  0  0  0  0  0  0  0  0  0
  141.2340   82.0140  223.0130 C   0  0  0  0  0  0  0  0  0  0  0  0
  141.3120   81.5480  221.7590 N   0  0  0  0  0  0  0  0  0  0  0  0
  142.4140   76.9870  219.3300 N   0  0  0  0  0  0  0  0  0  0  0  0
  142.6360   75.6980  219.6470 C   0  0  0  0  0  0  0  0  0  0  0  0
  143.5370   74.9180  218.9500 C   0  0  0  0  0  0  0  0  0  0  0  0
  143.6980   73.6040  219.3530 C   0  0  0  0  0  0  0  0  0  0  0  0
  142.9940   73.0930  220.3990 C   0  0  0  0  0  0  0  0  0  0  0  0
  142.0960   73.8840  221.0890 C   0  0  0  0  0  0  0  0  0  0  0  0
  141.9090   75.1920  220.7210 C   0  0  0  0  0  0  0  0  0  0  0  0
  141.0240   76.0260  221.3740 C   0  0  0  0  0  0  0  0  0  0  0  0
  140.3860   75.5200  222.3430 O   0  0  0  0  0  0  0  0  0  0  0  0
  140.2660   78.5180  223.0060 C   0  0  0  0  0  0  0  0  0  0  0  0
  139.4520   79.3030  223.7800 C   0  0  0  0  0  0  0  0  0  0  0  0
  136.7313   83.0747  224.0491 H   0  0  0  0  0  0  0  0  0  0  0  0
  137.7346   82.4985  222.6751 H   0  0  0  0  0  0  0  0  0  0  0  0
  135.9615   82.2109  222.6751 H   0  0  0  0  0  0  0  0  0  0  0  0
  136.9135   79.6576  221.5757 H   0  0  0  0  0  0  0  0  0  0  0  0
  138.3988   78.2335  220.1882 H   0  0  0  0  0  0  0  0  0  0  0  0
  140.6089   79.4467  218.8013 H   0  0  0  0  0  0  0  0  0  0  0  0
  142.8848   80.6206  219.3196 H   0  0  0  0  0  0  0  0  0  0  0  0
  143.6889   79.2533  222.0614 H   0  0  0  0  0  0  0  0  0  0  0  0
  143.6148   80.0511  224.4178 H   0  0  0  0  0  0  0  0  0  0  0  0
  141.9882   81.8822  225.0339 H   0  0  0  0  0  0  0  0  0  0  0  0
  140.5154   82.8109  223.2548 H   0  0  0  0  0  0  0  0  0  0  0  0
  144.1075   75.3271  218.1031 H   0  0  0  0  0  0  0  0  0  0  0  0
  144.4098   72.9594  218.8166 H   0  0  0  0  0  0  0  0  0  0  0  0
  143.1407   72.0443  220.6969 H   0  0  0  0  0  0  0  0  0  0  0  0
  141.5305   73.4646  221.9342 H   0  0  0  0  0  0  0  0  0  0  0  0
  141.2317   78.1911  223.4190 H   0  0  0  0  0  0  0  0  0  0  0  0
  139.7567   79.6008  224.7941 H   0  0  0  0  0  0  0  0  0  0  0  0
  1  2  1  0
  2  3  2  0
  2  4  2  0
  2  5  1  0
  5  6  2  0
  6  7  1  0
  7  8  2  0
  8  9  1  0
  9 10  1  0
 10 11  1  0
 11 12  2  0
 12 13  1  0
 13 14  2  0
 14 15  1  0
 15 16  2  0
 16 17  1  0
 17 18  2  0
 10 19  2  0
 19 20  1  0
 20 21  2  0
 21 22  1  0
 22 23  2  0
 23 24  1  0
 24 25  2  0
 25 26  1  0
 26 27  2  0
  8 28  1  0
 28 29  2  0
 29  5  1  0
 26  9  1  0
 18 13  1  0
 25 20  1  0
  1 30  1  0
  1 31  1  0
  1 32  1  0
  6 33  1  0
  7 34  1  0
 11 35  1  0
 12 36  1  0
 14 37  1  0
 15 38  1  0
 16 39  1  0
 17 40  1  0
 21 41  1  0
 22 42  1  0
 23 43  1  0
 24 44  1  0
 28 45  1  0
 29 46  1  0
M  END
>  <smiles>  (14) 
CS(=O)(=O)c1ccc(-n2c(/C=C/c3ccccn3)nc3ccccc3c2=O)cc1

>  <score_type>  (14) 
oracle

>  <origin>  (14) 
autodockgpu

>  <m_score__min__energy>  (14) 
-8.7100000000000009

>  <m_primary>  (14) 
energy

>  <rmsd>  (14) 
7.191220404041599

>  <m_score__min__rmsd>  (14) 
7.191220404041599

>  <meeko>  (14) 
{"free_energy": -6.75, "intermolecular_energy": -8.25, "internal_energy": -2.1, "cluster_size": 15, "cluster_id": 4, "rank_in_cluster": 4}

>  <energy>  (14) 
-8.57

>  <cluster_rmsd>  (14) 
0.61

>  <cluster>  (14) 
1

$$$$

     RDKit          3D

 46 49  0  0  0  0  0  0  0  0999 V2000
  145.8890   69.1020  217.5320 C   0  0  0  0  0  0  0  0  0  0  0  0
  144.9930   68.6710  219.0200 S   0  0  0  0  0  0  0  0  0  0  0  0
  144.0360   67.5240  218.7410 O   0  0  0  0  0  0  0  0  0  0  0  0
  145.9600   68.1650  220.0560 O   0  0  0  0  0  0  0  0  0  0  0  0
  144.0810   70.0420  219.6110 C   0  0  0  0  0  0  0  0  0  0  0  0
  142.7050   69.9490  219.5830 C   0  0  0  0  0  0  0  0  0  0  0  0
  141.8960   70.9820  220.0300 C   0  0  0  0  0  0  0  0  0  0  0  0
  142.4900   72.1350  220.5160 C   0  0  0  0  0  0  0  0  0  0  0  0
  141.7650   73.2480  220.9960 N   0  0  0  0  0  0  0  0  0  0  0  0
  140.7770   73.1080  221.8990 C   0  0  0  0  0  0  0  0  0  0  0  0
  140.4110   71.7750  222.4220 C   0  0  0  0  0  0  0  0  0  0  0  0
  139.6540   71.6640  223.5000 C   0  0  0  0  0  0  0  0  0  0  0  0
  140.1140   71.1170  224.7470 C   0  0  0  0  0  0  0  0  0  0  0  0
  140.6810   71.8680  225.7310 C   0  0  0  0  0  0  0  0  0  0  0  0
  141.1190   71.3080  226.9300 C   0  0  0  0  0  0  0  0  0  0  0  0
  140.9650   69.9300  227.1190 C   0  0  0  0  0  0  0  0  0  0  0  0
  140.3880   69.1950  226.1050 C   0  0  0  0  0  0  0  0  0  0  0  0
  139.9870   69.7890  224.9740 N   0  0  0  0  0  0  0  0  0  0  0  0
  140.1090   74.1940  222.3330 N   0  0  0  0  0  0  0  0  0  0  0  0
  140.3580   75.4510  221.9240 C   0  0  0  0  0  0  0  0  0  0  0  0
  139.6420   76.5310  222.4020 C   0  0  0  0  0  0  0  0  0  0  0  0
  139.9730   77.7850  221.9220 C   0  0  0  0  0  0  0  0  0  0  0  0
  140.9670   77.9550  221.0090 C   0  0  0  0  0  0  0  0  0  0  0  0
  141.6770   76.8670  220.5390 C   0  0  0  0  0  0  0  0  0  0  0  0
  141.3790   75.6060  220.9910 C   0  0  0  0  0  0  0  0  0  0  0  0
  142.0550   74.4850  220.5550 C   0  0  0  0  0  0  0  0  0  0  0  0
  142.9740   74.6770  219.7060 O   0  0  0  0  0  0  0  0  0  0  0  0
  143.8780   72.2090  220.5350 C   0  0  0  0  0  0  0  0  0  0  0  0
  144.6800   71.1890  220.0940 C   0  0  0  0  0  0  0  0  0  0  0  0
  146.8497   69.5641  217.8033 H   0  0  0  0  0  0  0  0  0  0  0  0
  146.0734   68.1940  216.9390 H   0  0  0  0  0  0  0  0  0  0  0  0
  145.2947   69.8128  216.9390 H   0  0  0  0  0  0  0  0  0  0  0  0
  142.2377   69.0315  219.1960 H   0  0  0  0  0  0  0  0  0  0  0  0
  140.8005   70.8876  219.9993 H   0  0  0  0  0  0  0  0  0  0  0  0
  140.7707   70.8697  221.9111 H   0  0  0  0  0  0  0  0  0  0  0  0
  138.6117   72.0103  223.4392 H   0  0  0  0  0  0  0  0  0  0  0  0
  140.7971   72.9507  225.5749 H   0  0  0  0  0  0  0  0  0  0  0  0
  141.5754   71.9351  227.7100 H   0  0  0  0  0  0  0  0  0  0  0  0
  141.2950   69.4467  228.0504 H   0  0  0  0  0  0  0  0  0  0  0  0
  140.2558   68.1097  226.2265 H   0  0  0  0  0  0  0  0  0  0  0  0
  138.8363   76.3983  223.1390 H   0  0  0  0  0  0  0  0  0  0  0  0
  139.4207   78.6638  222.2863 H   0  0  0  0  0  0  0  0  0  0  0  0
  141.2068   78.9642  220.6429 H   0  0  0  0  0  0  0  0  0  0  0  0
  142.4812   77.0115  219.8025 H   0  0  0  0  0  0  0  0  0  0  0  0
  144.3521   73.1239  220.9199 H   0  0  0  0  0  0  0  0  0  0  0  0
  145.7757   71.2816  220.1240 H   0  0  0  0  0  0  0  0  0  0  0  0
  1  2  1  0
  2  3  2  0
  2  4  2  0
  2  5  1  0
  5  6  2  0
  6  7  1  0
  7  8  2  0
  8  9  1  0
  9 10  1  0
 10 11  1  0
 11 12  2  0
 12 13  1  0
 13 14  2  0
 14 15  1  0
 15 16  2  0
 16 17  1  0
 17 18  2  0
 10 19  2  0
 19 20  1  0
 20 21  2  0
 21 22  1  0
 22 23  2  0
 23 24  1  0
 24 25  2  0
 25 26  1  0
 26 27  2  0
  8 28  1  0
 28 29  2  0
 29  5  1  0
 26  9  1  0
 18 13  1  0
 25 20  1  0
  1 30  1  0
  1 31  1  0
  1 32  1  0
  6 33  1  0
  7 34  1  0
 11 35  1  0
 12 36  1  0
 14 37  1  0
 15 38  1  0
 16 39  1  0
 17 40  1  0
 21 41  1  0
 22 42  1  0
 23 43  1  0
 24 44  1  0
 28 45  1  0
 29 46  1  0
M  END
>  <smiles>  (15) 
CS(=O)(=O)c1ccc(-n2c(/C=C/c3ccccn3)nc3ccccc3c2=O)cc1

>  <score_type>  (15) 
oracle

>  <origin>  (15) 
autodockgpu

>  <m_score__min__energy>  (15) 
-8.7100000000000009

>  <m_primary>  (15) 
energy

>  <rmsd>  (15) 
5.940762027252794

>  <m_score__min__rmsd>  (15) 
5.940762027252794

>  <meeko>  (15) 
{"free_energy": -8.13, "intermolecular_energy": -9.62, "internal_energy": -0.93, "cluster_size": 30, "cluster_id": 1, "rank_in_cluster": 19}

>  <energy>  (15) 
-8.56

>  <cluster_rmsd>  (15) 
0.52

>  <cluster>  (15) 
1

$$$$

     RDKit          3D

 46 49  0  0  0  0  0  0  0  0999 V2000
  144.6110   68.1930  217.6410 C   0  0  0  0  0  0  0  0  0  0  0  0
  145.4470   69.1370  218.9100 S   0  0  0  0  0  0  0  0  0  0  0  0
  145.8560   68.2260  220.0560 O   0  0  0  0  0  0  0  0  0  0  0  0
  146.7260   69.7020  218.3510 O   0  0  0  0  0  0  0  0  0  0  0  0
  144.4070   70.3990  219.5290 C   0  0  0  0  0  0  0  0  0  0  0  0
  143.0440   70.2020  219.4360 C   0  0  0  0  0  0  0  0  0  0  0  0
  142.1380   71.1440  219.8980 C   0  0  0  0  0  0  0  0  0  0  0  0
  142.6190   72.3100  220.4690 C   0  0  0  0  0  0  0  0  0  0  0  0
  141.7900   73.3360  220.9730 N   0  0  0  0  0  0  0  0  0  0  0  0
  140.7550   73.0670  221.7920 C   0  0  0  0  0  0  0  0  0  0  0  0
  140.4480   71.6780  222.1930 C   0  0  0  0  0  0  0  0  0  0  0  0
  139.6730   71.4400  223.2370 C   0  0  0  0  0  0  0  0  0  0  0  0
  140.1670   71.0270  224.5230 C   0  0  0  0  0  0  0  0  0  0  0  0
  140.7010   71.8890  225.4320 C   0  0  0  0  0  0  0  0  0  0  0  0
  141.1740   71.4580  226.6710 C   0  0  0  0  0  0  0  0  0  0  0  0
  141.0910   70.0970  226.9800 C   0  0  0  0  0  0  0  0  0  0  0  0
  140.5460   69.2470  226.0400 C   0  0  0  0  0  0  0  0  0  0  0  0
  140.1090   69.7200  224.8650 N   0  0  0  0  0  0  0  0  0  0  0  0
  139.9880   74.0730  222.2520 N   0  0  0  0  0  0  0  0  0  0  0  0
  140.1760   75.3700  221.9510 C   0  0  0  0  0  0  0  0  0  0  0  0
  139.3590   76.3640  222.4510 C   0  0  0  0  0  0  0  0  0  0  0  0
  139.6330   77.6690  222.0840 C   0  0  0  0  0  0  0  0  0  0  0  0
  140.6720   77.9700  221.2590 C   0  0  0  0  0  0  0  0  0  0  0  0
  141.4840   76.9660  220.7660 C   0  0  0  0  0  0  0  0  0  0  0  0
  141.2440   75.6590  221.1060 C   0  0  0  0  0  0  0  0  0  0  0  0
  142.0230   74.6190  220.6410 C   0  0  0  0  0  0  0  0  0  0  0  0
  142.9810   74.9310  219.8760 O   0  0  0  0  0  0  0  0  0  0  0  0
  143.9950   72.4900  220.5540 C   0  0  0  0  0  0  0  0  0  0  0  0
  144.8920   71.5610  220.0970 C   0  0  0  0  0  0  0  0  0  0  0  0
  143.9519   67.4488  218.1119 H   0  0  0  0  0  0  0  0  0  0  0  0
  144.0111   68.8703  217.0154 H   0  0  0  0  0  0  0  0  0  0  0  0
  145.3559   67.6794  217.0154 H   0  0  0  0  0  0  0  0  0  0  0  0
  142.6668   69.2731  218.9834 H   0  0  0  0  0  0  0  0  0  0  0  0
  141.0555   70.9681  219.8124 H   0  0  0  0  0  0  0  0  0  0  0  0
  140.8667   70.8378  221.6196 H   0  0  0  0  0  0  0  0  0  0  0  0
  138.5870   71.5651  223.1151 H   0  0  0  0  0  0  0  0  0  0  0  0
  140.7611   72.9583  225.1812 H   0  0  0  0  0  0  0  0  0  0  0  0
  141.6027   72.1726  227.3890 H   0  0  0  0  0  0  0  0  0  0  0  0
  141.4506   69.7143  227.9466 H   0  0  0  0  0  0  0  0  0  0  0  0
  140.4695   68.1713  226.2570 H   0  0  0  0  0  0  0  0  0  0  0  0
  138.5181   76.1261  223.1190 H   0  0  0  0  0  0  0  0  0  0  0  0
  138.9973   78.4808  222.4673 H   0  0  0  0  0  0  0  0  0  0  0  0
  140.8667   79.0169  220.9831 H   0  0  0  0  0  0  0  0  0  0  0  0
  142.3235   77.2154  220.1004 H   0  0  0  0  0  0  0  0  0  0  0  0
  144.3790   73.4161  221.0067 H   0  0  0  0  0  0  0  0  0  0  0  0
  145.9747   71.7365  220.1805 H   0  0  0  0  0  0  0  0  0  0  0  0
  1  2  1  0
  2  3  2  0
  2  4  2  0
  2  5  1  0
  5  6  2  0
  6  7  1  0
  7  8  2  0
  8  9  1  0
  9 10  1  0
 10 11  1  0
 11 12  2  0
 12 13  1  0
 13 14  2  0
 14 15  1  0
 15 16  2  0
 16 17  1  0
 17 18  2  0
 10 19  2  0
 19 20  1  0
 20 21  2  0
 21 22  1  0
 22 23  2  0
 23 24  1  0
 24 25  2  0
 25 26  1  0
 26 27  2  0
  8 28  1  0
 28 29  2  0
 29  5  1  0
 26  9  1  0
 18 13  1  0
 25 20  1  0
  1 30  1  0
  1 31  1  0
  1 32  1  0
  6 33  1  0
  7 34  1  0
 11 35  1  0
 12 36  1  0
 14 37  1  0
 15 38  1  0
 16 39  1  0
 17 40  1  0
 21 41  1  0
 22 42  1  0
 23 43  1  0
 24 44  1  0
 28 45  1  0
 29 46  1  0
M  END
>  <smiles>  (16) 
CS(=O)(=O)c1ccc(-n2c(/C=C/c3ccccn3)nc3ccccc3c2=O)cc1

>  <score_type>  (16) 
oracle

>  <origin>  (16) 
autodockgpu

>  <m_score__min__energy>  (16) 
-8.7100000000000009

>  <m_primary>  (16) 
energy

>  <rmsd>  (16) 
5.895361464089781

>  <m_score__min__rmsd>  (16) 
5.895361464089781

>  <meeko>  (16) 
{"free_energy": -8.6, "intermolecular_energy": -10.1, "internal_energy": -0.92, "cluster_size": 30, "cluster_id": 1, "rank_in_cluster": 10}

>  <energy>  (16) 
-8.45

>  <cluster_rmsd>  (16) 
0.72

>  <cluster>  (16) 
1

$$$$

     RDKit          3D

 46 49  0  0  0  0  0  0  0  0999 V2000
  135.5090   79.9860  224.1360 C   0  0  0  0  0  0  0  0  0  0  0  0
  137.1520   80.6930  224.1290 S   0  0  0  0  0  0  0  0  0  0  0  0
  137.1300   82.0640  223.4730 O   0  0  0  0  0  0  0  0  0  0  0  0
  137.6060   80.9170  225.5460 O   0  0  0  0  0  0  0  0  0  0  0  0
  138.2650   79.6630  223.2560 C   0  0  0  0  0  0  0  0  0  0  0  0
  137.8940   79.2550  221.9910 C   0  0  0  0  0  0  0  0  0  0  0  0
  138.7070   78.4380  221.2210 C   0  0  0  0  0  0  0  0  0  0  0  0
  139.9230   78.0250  221.7390 C   0  0  0  0  0  0  0  0  0  0  0  0
  140.8300   77.1950  221.0450 N   0  0  0  0  0  0  0  0  0  0  0  0
  141.5420   77.6500  219.9980 C   0  0  0  0  0  0  0  0  0  0  0  0
  141.3980   79.0460  219.5340 C   0  0  0  0  0  0  0  0  0  0  0  0
  142.2000   79.9910  219.9940 C   0  0  0  0  0  0  0  0  0  0  0  0
  142.1510   80.4960  221.3400 C   0  0  0  0  0  0  0  0  0  0  0  0
  142.9510   80.0380  222.3410 C   0  0  0  0  0  0  0  0  0  0  0  0
  142.8790   80.5470  223.6380 C   0  0  0  0  0  0  0  0  0  0  0  0
  141.9530   81.5600  223.9050 C   0  0  0  0  0  0  0  0  0  0  0  0
  141.1550   82.0040  222.8720 C   0  0  0  0  0  0  0  0  0  0  0  0
  141.2700   81.4750  221.6470 N   0  0  0  0  0  0  0  0  0  0  0  0
  142.3970   76.8280  219.3620 N   0  0  0  0  0  0  0  0  0  0  0  0
  142.6060   75.5420  219.6990 C   0  0  0  0  0  0  0  0  0  0  0  0
  143.4960   74.7410  219.0130 C   0  0  0  0  0  0  0  0  0  0  0  0
  143.6430   73.4320  219.4350 C   0  0  0  0  0  0  0  0  0  0  0  0
  142.9360   72.9450  220.4910 C   0  0  0  0  0  0  0  0  0  0  0  0
  142.0480   73.7580  221.1700 C   0  0  0  0  0  0  0  0  0  0  0  0
  141.8750   75.0620  220.7820 C   0  0  0  0  0  0  0  0  0  0  0  0
  141.0020   75.9150  221.4250 C   0  0  0  0  0  0  0  0  0  0  0  0
  140.3600   75.4330  222.4020 O   0  0  0  0  0  0  0  0  0  0  0  0
  140.2790   78.4480  223.0160 C   0  0  0  0  0  0  0  0  0  0  0  0
  139.4760   79.2540  223.7780 C   0  0  0  0  0  0  0  0  0  0  0  0
  135.1759   79.8427  225.1745 H   0  0  0  0  0  0  0  0  0  0  0  0
  134.8153   80.6653  223.6189 H   0  0  0  0  0  0  0  0  0  0  0  0
  135.5253   79.0153  223.6189 H   0  0  0  0  0  0  0  0  0  0  0  0
  136.9278   79.5868  221.5830 H   0  0  0  0  0  0  0  0  0  0  0  0
  138.3915   78.1230  220.2154 H   0  0  0  0  0  0  0  0  0  0  0  0
  140.6182   79.3003  218.8010 H   0  0  0  0  0  0  0  0  0  0  0  0
  142.9478   80.4155  219.3080 H   0  0  0  0  0  0  0  0  0  0  0  0
  143.6771   79.2416  222.1207 H   0  0  0  0  0  0  0  0  0  0  0  0
  143.5352   80.1605  224.4317 H   0  0  0  0  0  0  0  0  0  0  0  0
  141.8635   81.9915  224.9129 H   0  0  0  0  0  0  0  0  0  0  0  0
  140.4177   82.7994  223.0555 H   0  0  0  0  0  0  0  0  0  0  0  0
  144.0695   75.1306  218.1590 H   0  0  0  0  0  0  0  0  0  0  0  0
  144.3457   72.7711  218.9063 H   0  0  0  0  0  0  0  0  0  0  0  0
  143.0718   71.8997  220.8056 H   0  0  0  0  0  0  0  0  0  0  0  0
  141.4793   73.3586  222.0227 H   0  0  0  0  0  0  0  0  0  0  0  0
  141.2445   78.1217  223.4301 H   0  0  0  0  0  0  0  0  0  0  0  0
  139.7890   79.5689  224.7844 H   0  0  0  0  0  0  0  0  0  0  0  0
  1  2  1  0
  2  3  2  0
  2  4  2  0
  2  5  1  0
  5  6  2  0
  6  7  1  0
  7  8  2  0
  8  9  1  0
  9 10  1  0
 10 11  1  0
 11 12  2  0
 12 13  1  0
 13 14  2  0
 14 15  1  0
 15 16  2  0
 16 17  1  0
 17 18  2  0
 10 19  2  0
 19 20  1  0
 20 21  2  0
 21 22  1  0
 22 23  2  0
 23 24  1  0
 24 25  2  0
 25 26  1  0
 26 27  2  0
  8 28  1  0
 28 29  2  0
 29  5  1  0
 26  9  1  0
 18 13  1  0
 25 20  1  0
  1 30  1  0
  1 31  1  0
  1 32  1  0
  6 33  1  0
  7 34  1  0
 11 35  1  0
 12 36  1  0
 14 37  1  0
 15 38  1  0
 16 39  1  0
 17 40  1  0
 21 41  1  0
 22 42  1  0
 23 43  1  0
 24 44  1  0
 28 45  1  0
 29 46  1  0
M  END
>  <smiles>  (17) 
CS(=O)(=O)c1ccc(-n2c(/C=C/c3ccccn3)nc3ccccc3c2=O)cc1

>  <score_type>  (17) 
oracle

>  <origin>  (17) 
autodockgpu

>  <m_score__min__energy>  (17) 
-8.7100000000000009

>  <m_primary>  (17) 
energy

>  <rmsd>  (17) 
7.2507417640217255

>  <m_score__min__rmsd>  (17) 
7.2507417640217255

>  <meeko>  (17) 
{"free_energy": -6.69, "intermolecular_energy": -8.18, "internal_energy": -2.1, "cluster_size": 15, "cluster_id": 4, "rank_in_cluster": 14}

>  <energy>  (17) 
-8.28

>  <cluster_rmsd>  (17) 
0.59

>  <cluster>  (17) 
1

$$$$

     RDKit          3D

 46 49  0  0  0  0  0  0  0  0999 V2000
  145.3840   69.3140  217.3460 C   0  0  0  0  0  0  0  0  0  0  0  0
  145.6600   69.6100  219.0880 S   0  0  0  0  0  0  0  0  0  0  0  0
  145.5140   68.3140  219.8680 O   0  0  0  0  0  0  0  0  0  0  0  0
  147.0790   70.0660  219.2990 O   0  0  0  0  0  0  0  0  0  0  0  0
  144.5140   70.7780  219.7070 C   0  0  0  0  0  0  0  0  0  0  0  0
  143.1740   70.5240  219.5000 C   0  0  0  0  0  0  0  0  0  0  0  0
  142.1890   71.3900  219.9520 C   0  0  0  0  0  0  0  0  0  0  0  0
  142.5680   72.5370  220.6280 C   0  0  0  0  0  0  0  0  0  0  0  0
  141.6530   73.4870  221.1330 N   0  0  0  0  0  0  0  0  0  0  0  0
  140.5930   73.1190  221.8770 C   0  0  0  0  0  0  0  0  0  0  0  0
  140.3470   71.6960  222.1920 C   0  0  0  0  0  0  0  0  0  0  0  0
  139.5170   71.3600  223.1650 C   0  0  0  0  0  0  0  0  0  0  0  0
  139.9380   71.0570  224.5060 C   0  0  0  0  0  0  0  0  0  0  0  0
  140.7120   71.8910  225.2540 C   0  0  0  0  0  0  0  0  0  0  0  0
  141.1060   71.5690  226.5530 C   0  0  0  0  0  0  0  0  0  0  0  0
  140.6850   70.3500  227.0940 C   0  0  0  0  0  0  0  0  0  0  0  0
  139.9020   69.5260  226.3140 C   0  0  0  0  0  0  0  0  0  0  0  0
  139.5560   69.8890  225.0720 N   0  0  0  0  0  0  0  0  0  0  0  0
  139.7430   74.0540  222.3400 N   0  0  0  0  0  0  0  0  0  0  0  0
  139.8700   75.3740  222.1120 C   0  0  0  0  0  0  0  0  0  0  0  0
  138.9690   76.2920  222.6120 C   0  0  0  0  0  0  0  0  0  0  0  0
  139.1860   77.6280  222.3250 C   0  0  0  0  0  0  0  0  0  0  0  0
  140.2480   78.0290  221.5760 C   0  0  0  0  0  0  0  0  0  0  0  0
  141.1440   77.1000  221.0830 C   0  0  0  0  0  0  0  0  0  0  0  0
  140.9640   75.7660  221.3450 C   0  0  0  0  0  0  0  0  0  0  0  0
  141.8270   74.7960  220.8770 C   0  0  0  0  0  0  0  0  0  0  0  0
  142.8050   75.2010  220.1840 O   0  0  0  0  0  0  0  0  0  0  0  0
  143.9230   72.7750  220.8270 C   0  0  0  0  0  0  0  0  0  0  0  0
  144.8970   71.9210  220.3800 C   0  0  0  0  0  0  0  0  0  0  0  0
  144.6385   68.5145  217.2235 H   0  0  0  0  0  0  0  0  0  0  0  0
  145.0150   70.2352  216.8715 H   0  0  0  0  0  0  0  0  0  0  0  0
  146.3288   69.0102  216.8715 H   0  0  0  0  0  0  0  0  0  0  0  0
  142.8788   69.6108  218.9624 H   0  0  0  0  0  0  0  0  0  0  0  0
  141.1258   71.1692  219.7764 H   0  0  0  0  0  0  0  0  0  0  0  0
  140.8574   70.9118  221.6136 H   0  0  0  0  0  0  0  0  0  0  0  0
  138.4425   71.3094  222.9352 H   0  0  0  0  0  0  0  0  0  0  0  0
  141.0367   72.8484  224.8205 H   0  0  0  0  0  0  0  0  0  0  0  0
  141.7331   72.2578  227.1380 H   0  0  0  0  0  0  0  0  0  0  0  0
  140.9710   70.0565  228.1148 H   0  0  0  0  0  0  0  0  0  0  0  0
  139.5581   68.5613  226.7154 H   0  0  0  0  0  0  0  0  0  0  0  0
  138.1081   75.9726  223.2177 H   0  0  0  0  0  0  0  0  0  0  0  0
  138.4844   78.3821  222.7110 H   0  0  0  0  0  0  0  0  0  0  0  0
  140.3943   79.0980  221.3617 H   0  0  0  0  0  0  0  0  0  0  0  0
  142.0024   77.4307  220.4798 H   0  0  0  0  0  0  0  0  0  0  0  0
  144.2256   73.6855  221.3649 H   0  0  0  0  0  0  0  0  0  0  0  0
  145.9606   72.1413  220.5536 H   0  0  0  0  0  0  0  0  0  0  0  0
  1  2  1  0
  2  3  2  0
  2  4  2  0
  2  5  1  0
  5  6  2  0
  6  7  1  0
  7  8  2  0
  8  9  1  0
  9 10  1  0
 10 11  1  0
 11 12  2  0
 12 13  1  0
 13 14  2  0
 14 15  1  0
 15 16  2  0
 16 17  1  0
 17 18  2  0
 10 19  2  0
 19 20  1  0
 20 21  2  0
 21 22  1  0
 22 23  2  0
 23 24  1  0
 24 25  2  0
 25 26  1  0
 26 27  2  0
  8 28  1  0
 28 29  2  0
 29  5  1  0
 26  9  1  0
 18 13  1  0
 25 20  1  0
  1 30  1  0
  1 31  1  0
  1 32  1  0
  6 33  1  0
  7 34  1  0
 11 35  1  0
 12 36  1  0
 14 37  1  0
 15 38  1  0
 16 39  1  0
 17 40  1  0
 21 41  1  0
 22 42  1  0
 23 43  1  0
 24 44  1  0
 28 45  1  0
 29 46  1  0
M  END
>  <smiles>  (18) 
CS(=O)(=O)c1ccc(-n2c(/C=C/c3ccccn3)nc3ccccc3c2=O)cc1

>  <score_type>  (18) 
oracle

>  <origin>  (18) 
autodockgpu

>  <m_score__min__energy>  (18) 
-8.7100000000000009

>  <m_primary>  (18) 
energy

>  <rmsd>  (18) 
5.784216724238824

>  <m_score__min__rmsd>  (18) 
5.784216724238824

>  <meeko>  (18) 
{"free_energy": -8.45, "intermolecular_energy": -9.94, "internal_energy": -0.99, "cluster_size": 30, "cluster_id": 1, "rank_in_cluster": 16}

>  <energy>  (18) 
-8.17

>  <cluster_rmsd>  (18) 
0.44

>  <cluster>  (18) 
1

$$$$

     RDKit          3D

 46 49  0  0  0  0  0  0  0  0999 V2000
  144.4440   68.1190  217.6740 C   0  0  0  0  0  0  0  0  0  0  0  0
  145.3730   69.2320  218.7210 S   0  0  0  0  0  0  0  0  0  0  0  0
  145.9810   68.4690  219.8870 O   0  0  0  0  0  0  0  0  0  0  0  0
  146.5310   69.7990  217.9450 O   0  0  0  0  0  0  0  0  0  0  0  0
  144.3410   70.4990  219.3470 C   0  0  0  0  0  0  0  0  0  0  0  0
  144.9410   71.5000  220.0830 C   0  0  0  0  0  0  0  0  0  0  0  0
  144.2080   72.5470  220.6210 C   0  0  0  0  0  0  0  0  0  0  0  0
  142.8400   72.5840  220.4100 C   0  0  0  0  0  0  0  0  0  0  0  0
  141.9960   73.6000  220.9090 N   0  0  0  0  0  0  0  0  0  0  0  0
  141.0360   73.3370  221.8150 C   0  0  0  0  0  0  0  0  0  0  0  0
  140.8300   71.9640  222.3220 C   0  0  0  0  0  0  0  0  0  0  0  0
  139.8840   71.7140  223.2120 C   0  0  0  0  0  0  0  0  0  0  0  0
  140.1370   71.1550  224.5120 C   0  0  0  0  0  0  0  0  0  0  0  0
  140.7900   71.8240  225.5020 C   0  0  0  0  0  0  0  0  0  0  0  0
  141.0210   71.2540  226.7530 C   0  0  0  0  0  0  0  0  0  0  0  0
  140.5630   69.9540  226.9880 C   0  0  0  0  0  0  0  0  0  0  0  0
  139.9070   69.2990  225.9680 C   0  0  0  0  0  0  0  0  0  0  0  0
  139.7140   69.8990  224.7860 N   0  0  0  0  0  0  0  0  0  0  0  0
  140.2520   74.3330  222.2670 N   0  0  0  0  0  0  0  0  0  0  0  0
  140.3520   75.6150  221.8730 C   0  0  0  0  0  0  0  0  0  0  0  0
  139.5200   76.5990  222.3700 C   0  0  0  0  0  0  0  0  0  0  0  0
  139.7010   77.8900  221.9050 C   0  0  0  0  0  0  0  0  0  0  0  0
  140.6630   78.1840  220.9890 C   0  0  0  0  0  0  0  0  0  0  0  0
  141.4900   77.1900  220.5010 C   0  0  0  0  0  0  0  0  0  0  0  0
  141.3420   75.8990  220.9370 C   0  0  0  0  0  0  0  0  0  0  0  0
  142.1390   74.8680  220.4820 C   0  0  0  0  0  0  0  0  0  0  0  0
  143.0240   75.1750  219.6310 O   0  0  0  0  0  0  0  0  0  0  0  0
  142.2550   71.5650  219.6650 C   0  0  0  0  0  0  0  0  0  0  0  0
  142.9780   70.5290  219.1330 C   0  0  0  0  0  0  0  0  0  0  0  0
  143.8644   67.4247  218.3001 H   0  0  0  0  0  0  0  0  0  0  0  0
  143.7585   68.6994  217.0389 H   0  0  0  0  0  0  0  0  0  0  0  0
  145.1376   67.5483  217.0389 H   0  0  0  0  0  0  0  0  0  0  0  0
  146.0282   71.4667  220.2471 H   0  0  0  0  0  0  0  0  0  0  0  0
  144.7051   73.3351  221.2057 H   0  0  0  0  0  0  0  0  0  0  0  0
  141.4673   71.1451  221.9570 H   0  0  0  0  0  0  0  0  0  0  0  0
  138.8436   71.9473  222.9418 H   0  0  0  0  0  0  0  0  0  0  0  0
  141.1465   72.8465  225.3085 H   0  0  0  0  0  0  0  0  0  0  0  0
  141.5514   71.8141  227.5372 H   0  0  0  0  0  0  0  0  0  0  0  0
  140.7220   69.4668  227.9613 H   0  0  0  0  0  0  0  0  0  0  0  0
  139.5387   68.2746  226.1260 H   0  0  0  0  0  0  0  0  0  0  0  0
  138.7404   76.3648  223.1098 H   0  0  0  0  0  0  0  0  0  0  0  0
  139.0538   78.6948  222.2838 H   0  0  0  0  0  0  0  0  0  0  0  0
  140.7832   79.2185  220.6348 H   0  0  0  0  0  0  0  0  0  0  0  0
  142.2674   77.4351  219.7624 H   0  0  0  0  0  0  0  0  0  0  0  0
  141.1684   71.5918  219.4960 H   0  0  0  0  0  0  0  0  0  0  0  0
  142.4829   69.7394  218.5487 H   0  0  0  0  0  0  0  0  0  0  0  0
  1  2  1  0
  2  3  2  0
  2  4  2  0
  2  5  1  0
  5  6  2  0
  6  7  1  0
  7  8  2  0
  8  9  1  0
  9 10  1  0
 10 11  1  0
 11 12  2  0
 12 13  1  0
 13 14  2  0
 14 15  1  0
 15 16  2  0
 16 17  1  0
 17 18  2  0
 10 19  2  0
 19 20  1  0
 20 21  2  0
 21 22  1  0
 22 23  2  0
 23 24  1  0
 24 25  2  0
 25 26  1  0
 26 27  2  0
  8 28  1  0
 28 29  2  0
 29  5  1  0
 26  9  1  0
 18 13  1  0
 25 20  1  0
  1 30  1  0
  1 31  1  0
  1 32  1  0
  6 33  1  0
  7 34  1  0
 11 35  1  0
 12 36  1  0
 14 37  1  0
 15 38  1  0
 16 39  1  0
 17 40  1  0
 21 41  1  0
 22 42  1  0
 23 43  1  0
 24 44  1  0
 28 45  1  0
 29 46  1  0
M  END
>  <smiles>  (19) 
CS(=O)(=O)c1ccc(-n2c(/C=C/c3ccccn3)nc3ccccc3c2=O)cc1

>  <score_type>  (19) 
oracle

>  <origin>  (19) 
autodockgpu

>  <m_score__min__energy>  (19) 
-8.7100000000000009

>  <m_primary>  (19) 
energy

>  <rmsd>  (19) 
5.535850883255411

>  <m_score__min__rmsd>  (19) 
5.535850883255411

>  <meeko>  (19) 
{"free_energy": -8.28, "intermolecular_energy": -9.77, "internal_energy": -1.09, "cluster_size": 30, "cluster_id": 1, "rank_in_cluster": 17}

>  <energy>  (19) 
-8.13

>  <cluster_rmsd>  (19) 
0.78

>  <cluster>  (19) 
1

$$$$

     RDKit          3D

 46 49  0  0  0  0  0  0  0  0999 V2000
  144.5670   68.1070  217.7240 C   0  0  0  0  0  0  0  0  0  0  0  0
  145.4360   69.0930  218.9370 S   0  0  0  0  0  0  0  0  0  0  0  0
  145.8820   68.2200  220.0980 O   0  0  0  0  0  0  0  0  0  0  0  0
  146.6950   69.6460  218.3240 O   0  0  0  0  0  0  0  0  0  0  0  0
  144.4080   70.3710  219.5480 C   0  0  0  0  0  0  0  0  0  0  0  0
  143.0440   70.1820  219.4640 C   0  0  0  0  0  0  0  0  0  0  0  0
  142.1470   71.1360  219.9210 C   0  0  0  0  0  0  0  0  0  0  0  0
  142.6400   72.3050  220.4750 C   0  0  0  0  0  0  0  0  0  0  0  0
  141.8210   73.3430  220.9720 N   0  0  0  0  0  0  0  0  0  0  0  0
  140.8700   73.1090  221.8950 C   0  0  0  0  0  0  0  0  0  0  0  0
  140.6470   71.7470  222.4240 C   0  0  0  0  0  0  0  0  0  0  0  0
  139.7490   71.5360  223.3720 C   0  0  0  0  0  0  0  0  0  0  0  0
  140.0760   71.0740  224.6940 C   0  0  0  0  0  0  0  0  0  0  0  0
  139.7830   69.8230  225.1430 C   0  0  0  0  0  0  0  0  0  0  0  0
  140.1120   69.4030  226.4320 C   0  0  0  0  0  0  0  0  0  0  0  0
  140.7650   70.3040  227.2800 C   0  0  0  0  0  0  0  0  0  0  0  0
  141.0480   71.5650  226.7990 C   0  0  0  0  0  0  0  0  0  0  0  0
  140.7060   71.9100  225.5500 N   0  0  0  0  0  0  0  0  0  0  0  0
  140.1100   74.1250  222.3450 N   0  0  0  0  0  0  0  0  0  0  0  0
  140.2270   75.4000  221.9320 C   0  0  0  0  0  0  0  0  0  0  0  0
  139.4200   76.4060  222.4270 C   0  0  0  0  0  0  0  0  0  0  0  0
  139.6170   77.6860  221.9410 C   0  0  0  0  0  0  0  0  0  0  0  0
  140.5710   77.9510  221.0090 C   0  0  0  0  0  0  0  0  0  0  0  0
  141.3730   76.9360  220.5220 C   0  0  0  0  0  0  0  0  0  0  0  0
  141.2090   75.6530  220.9780 C   0  0  0  0  0  0  0  0  0  0  0  0
  141.9810   74.6030  220.5260 C   0  0  0  0  0  0  0  0  0  0  0  0
  142.8590   74.8820  219.6590 O   0  0  0  0  0  0  0  0  0  0  0  0
  144.0180   72.4760  220.5510 C   0  0  0  0  0  0  0  0  0  0  0  0
  144.9060   71.5350  220.0990 C   0  0  0  0  0  0  0  0  0  0  0  0
  143.9238   67.3772  218.2374 H   0  0  0  0  0  0  0  0  0  0  0  0
  143.9476   68.7625  217.0943 H   0  0  0  0  0  0  0  0  0  0  0  0
  145.2952   67.5749  217.0943 H   0  0  0  0  0  0  0  0  0  0  0  0
  142.6580   69.2510  219.0234 H   0  0  0  0  0  0  0  0  0  0  0  0
  141.0628   70.9667  219.8446 H   0  0  0  0  0  0  0  0  0  0  0  0
  141.2313   70.9038  222.0270 H   0  0  0  0  0  0  0  0  0  0  0  0
  138.6914   71.7248  223.1356 H   0  0  0  0  0  0  0  0  0  0  0  0
  139.2708   69.1212  224.4684 H   0  0  0  0  0  0  0  0  0  0  0  0
  139.8638   68.3873  226.7736 H   0  0  0  0  0  0  0  0  0  0  0  0
  141.0453   70.0142  228.3034 H   0  0  0  0  0  0  0  0  0  0  0  0
  141.5586   72.2937  227.4458 H   0  0  0  0  0  0  0  0  0  0  0  0
  138.6475   76.1964  223.1815 H   0  0  0  0  0  0  0  0  0  0  0  0
  138.9885   78.5070  222.3165 H   0  0  0  0  0  0  0  0  0  0  0  0
  140.7052   78.9787  220.6406 H   0  0  0  0  0  0  0  0  0  0  0  0
  142.1431   77.1574  219.7684 H   0  0  0  0  0  0  0  0  0  0  0  0
  144.4112   73.4040  220.9917 H   0  0  0  0  0  0  0  0  0  0  0  0
  145.9905   71.7032  220.1735 H   0  0  0  0  0  0  0  0  0  0  0  0
  1  2  1  0
  2  3  2  0
  2  4  2  0
  2  5  1  0
  5  6  2  0
  6  7  1  0
  7  8  2  0
  8  9  1  0
  9 10  1  0
 10 11  1  0
 11 12  2  0
 12 13  1  0
 13 14  2  0
 14 15  1  0
 15 16  2  0
 16 17  1  0
 17 18  2  0
 10 19  2  0
 19 20  1  0
 20 21  2  0
 21 22  1  0
 22 23  2  0
 23 24  1  0
 24 25  2  0
 25 26  1  0
 26 27  2  0
  8 28  1  0
 28 29  2  0
 29  5  1  0
 26  9  1  0
 18 13  1  0
 25 20  1  0
  1 30  1  0
  1 31  1  0
  1 32  1  0
  6 33  1  0
  7 34  1  0
 11 35  1  0
 12 36  1  0
 14 37  1  0
 15 38  1  0
 16 39  1  0
 17 40  1  0
 21 41  1  0
 22 42  1  0
 23 43  1  0
 24 44  1  0
 28 45  1  0
 29 46  1  0
M  END
>  <smiles>  (20) 
CS(=O)(=O)c1ccc(-n2c(/C=C/c3ccccn3)nc3ccccc3c2=O)cc1

>  <score_type>  (20) 
oracle

>  <origin>  (20) 
autodockgpu

>  <m_score__min__energy>  (20) 
-8.7100000000000009

>  <m_primary>  (20) 
energy

>  <rmsd>  (20) 
5.8945630204522095

>  <m_score__min__rmsd>  (20) 
5.8945630204522095

>  <meeko>  (20) 
{"free_energy": -8.71, "intermolecular_energy": -10.2, "internal_energy": -0.98, "cluster_size": 30, "cluster_id": 1, "rank_in_cluster": 1}

>  <energy>  (20) 
-8.12

>  <cluster_rmsd>  (20) 
0.68

>  <cluster>  (20) 
1

$$$$

     RDKit          3D

 46 49  0  0  0  0  0  0  0  0999 V2000
  143.7110   71.1870  220.4760 C   0  0  0  0  0  0  0  0  0  0  0  0
  144.4590   72.1970  219.2020 S   0  0  0  0  0  0  0  0  0  0  0  0
  145.9670   72.2410  219.3880 O   0  0  0  0  0  0  0  0  0  0  0  0
  144.2230   71.5620  217.8590 O   0  0  0  0  0  0  0  0  0  0  0  0
  143.8310   73.8290  219.2580 C   0  0  0  0  0  0  0  0  0  0  0  0
  142.7190   74.1070  218.4890 C   0  0  0  0  0  0  0  0  0  0  0  0
  142.1480   75.3710  218.4660 C   0  0  0  0  0  0  0  0  0  0  0  0
  142.7110   76.3730  219.2370 C   0  0  0  0  0  0  0  0  0  0  0  0
  142.2130   77.6940  219.2910 N   0  0  0  0  0  0  0  0  0  0  0  0
  141.3860   78.0950  220.2750 C   0  0  0  0  0  0  0  0  0  0  0  0
  140.9660   77.1600  221.3400 C   0  0  0  0  0  0  0  0  0  0  0  0
  141.0720   77.5040  222.6120 C   0  0  0  0  0  0  0  0  0  0  0  0
  141.4130   78.8280  223.0560 C   0  0  0  0  0  0  0  0  0  0  0  0
  140.4890   79.7540  223.4320 C   0  0  0  0  0  0  0  0  0  0  0  0
  140.8510   81.0320  223.8580 C   0  0  0  0  0  0  0  0  0  0  0  0
  142.2090   81.3610  223.8970 C   0  0  0  0  0  0  0  0  0  0  0  0
  143.1230   80.4050  223.5100 C   0  0  0  0  0  0  0  0  0  0  0  0
  142.7150   79.1930  223.1100 N   0  0  0  0  0  0  0  0  0  0  0  0
  140.9330   79.3630  220.2920 N   0  0  0  0  0  0  0  0  0  0  0  0
  141.2500   80.2940  219.3740 C   0  0  0  0  0  0  0  0  0  0  0  0
  140.7570   81.5820  219.4390 C   0  0  0  0  0  0  0  0  0  0  0  0
  141.1410   82.4690  218.4490 C   0  0  0  0  0  0  0  0  0  0  0  0
  141.9760   82.0910  217.4440 C   0  0  0  0  0  0  0  0  0  0  0  0
  142.4630   80.7990  217.3910 C   0  0  0  0  0  0  0  0  0  0  0  0
  142.1060   79.8890  218.3540 C   0  0  0  0  0  0  0  0  0  0  0  0
  142.5630   78.5870  218.3480 C   0  0  0  0  0  0  0  0  0  0  0  0
  143.3370   78.2670  217.4000 O   0  0  0  0  0  0  0  0  0  0  0  0
  143.8310   76.0720  220.0050 C   0  0  0  0  0  0  0  0  0  0  0  0
  144.3970   74.8250  220.0280 C   0  0  0  0  0  0  0  0  0  0  0  0
  143.9971   71.5734  221.4654 H   0  0  0  0  0  0  0  0  0  0  0  0
  142.6163   71.2179  220.3729 H   0  0  0  0  0  0  0  0  0  0  0  0
  144.0598   70.1489  220.3729 H   0  0  0  0  0  0  0  0  0  0  0  0
  142.2746   73.3065  217.8793 H   0  0  0  0  0  0  0  0  0  0  0  0
  141.2626   75.5735  217.8454 H   0  0  0  0  0  0  0  0  0  0  0  0
  140.5629   76.1721  221.0725 H   0  0  0  0  0  0  0  0  0  0  0  0
  140.8887   76.7327  223.3746 H   0  0  0  0  0  0  0  0  0  0  0  0
  139.4227   79.4860  223.3989 H   0  0  0  0  0  0  0  0  0  0  0  0
  140.0857   81.7637  224.1562 H   0  0  0  0  0  0  0  0  0  0  0  0
  142.5394   82.3567  224.2279 H   0  0  0  0  0  0  0  0  0  0  0  0
  144.1976   80.6391  223.5296 H   0  0  0  0  0  0  0  0  0  0  0  0
  140.0820   81.8924  220.2502 H   0  0  0  0  0  0  0  0  0  0  0  0
  140.7631   83.5017  218.4752 H   0  0  0  0  0  0  0  0  0  0  0  0
  142.2649   82.8172  216.6699 H   0  0  0  0  0  0  0  0  0  0  0  0
  143.1379   80.4995  216.5756 H   0  0  0  0  0  0  0  0  0  0  0  0
  144.2800   76.8671  220.6183 H   0  0  0  0  0  0  0  0  0  0  0  0
  145.2835   74.6216  220.6467 H   0  0  0  0  0  0  0  0  0  0  0  0
  1  2  1  0
  2  3  2  0
  2  4  2  0
  2  5  1  0
  5  6  2  0
  6  7  1  0
  7  8  2  0
  8  9  1  0
  9 10  1  0
 10 11  1  0
 11 12  2  0
 12 13  1  0
 13 14  2  0
 14 15  1  0
 15 16  2  0
 16 17  1  0
 17 18  2  0
 10 19  2  0
 19 20  1  0
 20 21  2  0
 21 22  1  0
 22 23  2  0
 23 24  1  0
 24 25  2  0
 25 26  1  0
 26 27  2  0
  8 28  1  0
 28 29  2  0
 29  5  1  0
 26  9  1  0
 18 13  1  0
 25 20  1  0
  1 30  1  0
  1 31  1  0
  1 32  1  0
  6 33  1  0
  7 34  1  0
 11 35  1  0
 12 36  1  0
 14 37  1  0
 15 38  1  0
 16 39  1  0
 17 40  1  0
 21 41  1  0
 22 42  1  0
 23 43  1  0
 24 44  1  0
 28 45  1  0
 29 46  1  0
M  END
>  <smiles>  (21) 
CS(=O)(=O)c1ccc(-n2c(/C=C/c3ccccn3)nc3ccccc3c2=O)cc1

>  <score_type>  (21) 
oracle

>  <origin>  (21) 
autodockgpu

>  <m_score__min__energy>  (21) 
-8.7100000000000009

>  <m_primary>  (21) 
energy

>  <rmsd>  (21) 
3.7722044741449414

>  <m_score__min__rmsd>  (21) 
3.7722044741449414

>  <meeko>  (21) 
{"free_energy": -7.07, "intermolecular_energy": -8.56, "internal_energy": -1.66, "cluster_size": 1, "cluster_id": 3, "rank_in_cluster": 1}

>  <energy>  (21) 
-8.11

>  <cluster_rmsd>  (21) 
0.64

>  <cluster>  (21) 
1

$$$$

     RDKit          3D

 46 49  0  0  0  0  0  0  0  0999 V2000
  145.9550   69.0380  217.4990 C   0  0  0  0  0  0  0  0  0  0  0  0
  145.0920   68.6350  219.0130 S   0  0  0  0  0  0  0  0  0  0  0  0
  144.1360   67.4780  218.7770 O   0  0  0  0  0  0  0  0  0  0  0  0
  146.0820   68.1540  220.0400 O   0  0  0  0  0  0  0  0  0  0  0  0
  144.1850   70.0130  219.5940 C   0  0  0  0  0  0  0  0  0  0  0  0
  142.8090   69.9310  219.5530 C   0  0  0  0  0  0  0  0  0  0  0  0
  142.0030   70.9710  219.9910 C   0  0  0  0  0  0  0  0  0  0  0  0
  142.6010   72.1180  220.4820 C   0  0  0  0  0  0  0  0  0  0  0  0
  141.8800   73.2370  220.9540 N   0  0  0  0  0  0  0  0  0  0  0  0
  140.9420   73.1180  221.9120 C   0  0  0  0  0  0  0  0  0  0  0  0
  140.6300   71.8010  222.5060 C   0  0  0  0  0  0  0  0  0  0  0  0
  139.7600   71.7030  223.4980 C   0  0  0  0  0  0  0  0  0  0  0  0
  140.0780   71.1560  224.7880 C   0  0  0  0  0  0  0  0  0  0  0  0
  140.7790   71.8340  225.7380 C   0  0  0  0  0  0  0  0  0  0  0  0
  141.0730   71.2750  226.9810 C   0  0  0  0  0  0  0  0  0  0  0  0
  140.6270   69.9770  227.2510 C   0  0  0  0  0  0  0  0  0  0  0  0
  139.9200   69.3140  226.2710 C   0  0  0  0  0  0  0  0  0  0  0  0
  139.6680   69.9030  225.0950 N   0  0  0  0  0  0  0  0  0  0  0  0
  140.2770   74.2080  222.3370 N   0  0  0  0  0  0  0  0  0  0  0  0
  140.4800   75.4520  221.8650 C   0  0  0  0  0  0  0  0  0  0  0  0
  139.7690   76.5380  222.3360 C   0  0  0  0  0  0  0  0  0  0  0  0
  140.0490   77.7770  221.7900 C   0  0  0  0  0  0  0  0  0  0  0  0
  140.9920   77.9270  220.8210 C   0  0  0  0  0  0  0  0  0  0  0  0
  141.6980   76.8330  220.3590 C   0  0  0  0  0  0  0  0  0  0  0  0
  141.4490   75.5870  220.8750 C   0  0  0  0  0  0  0  0  0  0  0  0
  142.1230   74.4610  220.4490 C   0  0  0  0  0  0  0  0  0  0  0  0
  142.9940   74.6330  219.5480 O   0  0  0  0  0  0  0  0  0  0  0  0
  143.9900   72.1820  220.5160 C   0  0  0  0  0  0  0  0  0  0  0  0
  144.7870   71.1560  220.0830 C   0  0  0  0  0  0  0  0  0  0  0  0
  146.9273   69.4920  217.7409 H   0  0  0  0  0  0  0  0  0  0  0  0
  146.1142   68.1211  216.9125 H   0  0  0  0  0  0  0  0  0  0  0  0
  145.3542   69.7487  216.9125 H   0  0  0  0  0  0  0  0  0  0  0  0
  142.3384   69.0166  219.1626 H   0  0  0  0  0  0  0  0  0  0  0  0
  140.9071   70.8855  219.9488 H   0  0  0  0  0  0  0  0  0  0  0  0
  141.1241   70.8968  222.1210 H   0  0  0  0  0  0  0  0  0  0  0  0
  138.7343   72.0609  223.3252 H   0  0  0  0  0  0  0  0  0  0  0  0
  141.1243   72.8550  225.5180 H   0  0  0  0  0  0  0  0  0  0  0  0
  141.6427   71.8418  227.7322 H   0  0  0  0  0  0  0  0  0  0  0  0
  140.8349   69.4983  228.2193 H   0  0  0  0  0  0  0  0  0  0  0  0
  139.5594   68.2915  226.4566 H   0  0  0  0  0  0  0  0  0  0  0  0
  139.0055   76.4213  223.1193 H   0  0  0  0  0  0  0  0  0  0  0  0
  139.4979   78.6597  222.1465 H   0  0  0  0  0  0  0  0  0  0  0  0
  141.1934   78.9244  220.4032 H   0  0  0  0  0  0  0  0  0  0  0  0
  142.4605   76.9615  219.5766 H   0  0  0  0  0  0  0  0  0  0  0  0
  144.4673   73.0930  220.9062 H   0  0  0  0  0  0  0  0  0  0  0  0
  145.8830   71.2403  220.1237 H   0  0  0  0  0  0  0  0  0  0  0  0
  1  2  1  0
  2  3  2  0
  2  4  2  0
  2  5  1  0
  5  6  2  0
  6  7  1  0
  7  8  2  0
  8  9  1  0
  9 10  1  0
 10 11  1  0
 11 12  2  0
 12 13  1  0
 13 14  2  0
 14 15  1  0
 15 16  2  0
 16 17  1  0
 17 18  2  0
 10 19  2  0
 19 20  1  0
 20 21  2  0
 21 22  1  0
 22 23  2  0
 23 24  1  0
 24 25  2  0
 25 26  1  0
 26 27  2  0
  8 28  1  0
 28 29  2  0
 29  5  1  0
 26  9  1  0
 18 13  1  0
 25 20  1  0
  1 30  1  0
  1 31  1  0
  1 32  1  0
  6 33  1  0
  7 34  1  0
 11 35  1  0
 12 36  1  0
 14 37  1  0
 15 38  1  0
 16 39  1  0
 17 40  1  0
 21 41  1  0
 22 42  1  0
 23 43  1  0
 24 44  1  0
 28 45  1  0
 29 46  1  0
M  END
>  <smiles>  (22) 
CS(=O)(=O)c1ccc(-n2c(/C=C/c3ccccn3)nc3ccccc3c2=O)cc1

>  <score_type>  (22) 
oracle

>  <origin>  (22) 
autodockgpu

>  <m_score__min__energy>  (22) 
-8.7100000000000009

>  <m_primary>  (22) 
energy

>  <rmsd>  (22) 
5.978504886293124

>  <m_score__min__rmsd>  (22) 
5.978504886293124

>  <meeko>  (22) 
{"free_energy": -8.08, "intermolecular_energy": -9.57, "internal_energy": -0.98, "cluster_size": 30, "cluster_id": 1, "rank_in_cluster": 23}

>  <energy>  (22) 
-8.11

>  <cluster_rmsd>  (22) 
0.55

>  <cluster>  (22) 
1

$$$$

     RDKit          3D

 46 49  0  0  0  0  0  0  0  0999 V2000
  145.0430   68.0320  218.8850 C   0  0  0  0  0  0  0  0  0  0  0  0
  145.7320   69.6730  218.7050 S   0  0  0  0  0  0  0  0  0  0  0  0
  147.0720   69.7590  219.4180 O   0  0  0  0  0  0  0  0  0  0  0  0
  146.0170   69.9390  217.2510 O   0  0  0  0  0  0  0  0  0  0  0  0
  144.6520   70.8740  219.3760 C   0  0  0  0  0  0  0  0  0  0  0  0
  143.3010   70.7100  219.1500 C   0  0  0  0  0  0  0  0  0  0  0  0
  142.3660   71.6090  219.6410 C   0  0  0  0  0  0  0  0  0  0  0  0
  142.8060   72.6960  220.3760 C   0  0  0  0  0  0  0  0  0  0  0  0
  141.9450   73.6730  220.9240 N   0  0  0  0  0  0  0  0  0  0  0  0
  140.9710   73.3450  221.7930 C   0  0  0  0  0  0  0  0  0  0  0  0
  140.7670   71.9410  222.2080 C   0  0  0  0  0  0  0  0  0  0  0  0
  139.8610   71.6380  223.1230 C   0  0  0  0  0  0  0  0  0  0  0  0
  140.1820   71.0920  224.4140 C   0  0  0  0  0  0  0  0  0  0  0  0
  139.9210   69.8040  224.7670 C   0  0  0  0  0  0  0  0  0  0  0  0
  140.2420   69.3030  226.0280 C   0  0  0  0  0  0  0  0  0  0  0  0
  140.8530   70.1590  226.9500 C   0  0  0  0  0  0  0  0  0  0  0  0
  141.1040   71.4590  226.5650 C   0  0  0  0  0  0  0  0  0  0  0  0
  140.7720   71.8830  225.3390 N   0  0  0  0  0  0  0  0  0  0  0  0
  140.1700   74.3040  222.2940 N   0  0  0  0  0  0  0  0  0  0  0  0
  140.2670   75.6100  221.9850 C   0  0  0  0  0  0  0  0  0  0  0  0
  139.4190   76.5550  222.5280 C   0  0  0  0  0  0  0  0  0  0  0  0
  139.5970   77.8740  222.1490 C   0  0  0  0  0  0  0  0  0  0  0  0
  140.5730   78.2330  221.2730 C   0  0  0  0  0  0  0  0  0  0  0  0
  141.4160   77.2780  220.7370 C   0  0  0  0  0  0  0  0  0  0  0  0
  141.2720   75.9600  221.0870 C   0  0  0  0  0  0  0  0  0  0  0  0
  142.0850   74.9670  220.5820 C   0  0  0  0  0  0  0  0  0  0  0  0
  142.9830   75.3330  219.7690 O   0  0  0  0  0  0  0  0  0  0  0  0
  144.1720   72.8440  220.5930 C   0  0  0  0  0  0  0  0  0  0  0  0
  145.0970   71.9570  220.1080 C   0  0  0  0  0  0  0  0  0  0  0  0
  144.9422   67.7919  219.9537 H   0  0  0  0  0  0  0  0  0  0  0  0
  144.0535   67.9952  218.4060 H   0  0  0  0  0  0  0  0  0  0  0  0
  145.7097   67.2998  218.4060 H   0  0  0  0  0  0  0  0  0  0  0  0
  142.9566   69.8442  218.5655 H   0  0  0  0  0  0  0  0  0  0  0  0
  141.2930   71.4606  219.4495 H   0  0  0  0  0  0  0  0  0  0  0  0
  141.3724   71.1432  221.7531 H   0  0  0  0  0  0  0  0  0  0  0  0
  138.8020   71.8137  222.8827 H   0  0  0  0  0  0  0  0  0  0  0  0
  139.4419   69.1374  224.0348 H   0  0  0  0  0  0  0  0  0  0  0  0
  140.0198   68.2584  226.2916 H   0  0  0  0  0  0  0  0  0  0  0  0
  141.1259   69.8047  227.9550 H   0  0  0  0  0  0  0  0  0  0  0  0
  141.5813   72.1541  227.2714 H   0  0  0  0  0  0  0  0  0  0  0  0
  138.6288   76.2690  223.2378 H   0  0  0  0  0  0  0  0  0  0  0  0
  138.9353   78.6480  222.5650 H   0  0  0  0  0  0  0  0  0  0  0  0
  140.6922   79.2891  220.9894 H   0  0  0  0  0  0  0  0  0  0  0  0
  142.2034   77.5755  220.0288 H   0  0  0  0  0  0  0  0  0  0  0  0
  144.5236   73.7073  221.1771 H   0  0  0  0  0  0  0  0  0  0  0  0
  146.1705   72.1044  220.2976 H   0  0  0  0  0  0  0  0  0  0  0  0
  1  2  1  0
  2  3  2  0
  2  4  2  0
  2  5  1  0
  5  6  2  0
  6  7  1  0
  7  8  2  0
  8  9  1  0
  9 10  1  0
 10 11  1  0
 11 12  2  0
 12 13  1  0
 13 14  2  0
 14 15  1  0
 15 16  2  0
 16 17  1  0
 17 18  2  0
 10 19  2  0
 19 20  1  0
 20 21  2  0
 21 22  1  0
 22 23  2  0
 23 24  1  0
 24 25  2  0
 25 26  1  0
 26 27  2  0
  8 28  1  0
 28 29  2  0
 29  5  1  0
 26  9  1  0
 18 13  1  0
 25 20  1  0
  1 30  1  0
  1 31  1  0
  1 32  1  0
  6 33  1  0
  7 34  1  0
 11 35  1  0
 12 36  1  0
 14 37  1  0
 15 38  1  0
 16 39  1  0
 17 40  1  0
 21 41  1  0
 22 42  1  0
 23 43  1  0
 24 44  1  0
 28 45  1  0
 29 46  1  0
M  END
>  <smiles>  (23) 
CS(=O)(=O)c1ccc(-n2c(/C=C/c3ccccn3)nc3ccccc3c2=O)cc1

>  <score_type>  (23) 
oracle

>  <origin>  (23) 
autodockgpu

>  <m_score__min__energy>  (23) 
-8.7100000000000009

>  <m_primary>  (23) 
energy

>  <rmsd>  (23) 
5.64704507221007

>  <m_score__min__rmsd>  (23) 
5.64704507221007

>  <meeko>  (23) 
{"free_energy": -8.11, "intermolecular_energy": -9.6, "internal_energy": -1.05, "cluster_size": 30, "cluster_id": 1, "rank_in_cluster": 22}

>  <energy>  (23) 
-8.08

>  <cluster_rmsd>  (23) 
0.77

>  <cluster>  (23) 
1

$$$$

     RDKit          3D

 46 49  0  0  0  0  0  0  0  0999 V2000
  143.5680   67.3730  218.8530 C   0  0  0  0  0  0  0  0  0  0  0  0
  144.6360   68.7930  219.0650 S   0  0  0  0  0  0  0  0  0  0  0  0
  145.7300   68.4790  220.0720 O   0  0  0  0  0  0  0  0  0  0  0  0
  145.3380   69.0900  217.7670 O   0  0  0  0  0  0  0  0  0  0  0  0
  143.7240   70.1750  219.6290 C   0  0  0  0  0  0  0  0  0  0  0  0
  144.4270   71.1940  220.2370 C   0  0  0  0  0  0  0  0  0  0  0  0
  143.7930   72.3310  220.7170 C   0  0  0  0  0  0  0  0  0  0  0  0
  142.4200   72.4390  220.5790 C   0  0  0  0  0  0  0  0  0  0  0  0
  141.6720   73.5490  221.0300 N   0  0  0  0  0  0  0  0  0  0  0  0
  140.6920   73.4140  221.9440 C   0  0  0  0  0  0  0  0  0  0  0  0
  140.3630   72.0890  222.5110 C   0  0  0  0  0  0  0  0  0  0  0  0
  140.3970   71.8930  223.8180 C   0  0  0  0  0  0  0  0  0  0  0  0
  140.0970   70.6350  224.4460 C   0  0  0  0  0  0  0  0  0  0  0  0
  140.6360   70.2430  225.6330 C   0  0  0  0  0  0  0  0  0  0  0  0
  140.3270   69.0150  226.2170 C   0  0  0  0  0  0  0  0  0  0  0  0
  139.4330   68.1680  225.5550 C   0  0  0  0  0  0  0  0  0  0  0  0
  138.9030   68.5910  224.3540 C   0  0  0  0  0  0  0  0  0  0  0  0
  139.2380   69.7820  223.8420 N   0  0  0  0  0  0  0  0  0  0  0  0
  140.0010   74.4950  222.3490 N   0  0  0  0  0  0  0  0  0  0  0  0
  140.2170   75.7450  221.8990 C   0  0  0  0  0  0  0  0  0  0  0  0
  139.4780   76.8210  222.3480 C   0  0  0  0  0  0  0  0  0  0  0  0
  139.7740   78.0680  221.8270 C   0  0  0  0  0  0  0  0  0  0  0  0
  140.7580   78.2340  220.9030 C   0  0  0  0  0  0  0  0  0  0  0  0
  141.4910   77.1480  220.4620 C   0  0  0  0  0  0  0  0  0  0  0  0
  141.2280   75.8960  220.9550 C   0  0  0  0  0  0  0  0  0  0  0  0
  141.9280   74.7780  220.5480 C   0  0  0  0  0  0  0  0  0  0  0  0
  142.8370   74.9660  219.6880 O   0  0  0  0  0  0  0  0  0  0  0  0
  141.7300   71.4000  219.9630 C   0  0  0  0  0  0  0  0  0  0  0  0
  142.3540   70.2770  219.4890 C   0  0  0  0  0  0  0  0  0  0  0  0
  143.2753   66.9838  219.8393 H   0  0  0  0  0  0  0  0  0  0  0  0
  142.6683   67.6710  218.2947 H   0  0  0  0  0  0  0  0  0  0  0  0
  144.1039   66.5913  218.2947 H   0  0  0  0  0  0  0  0  0  0  0  0
  145.5180   71.1030  220.3441 H   0  0  0  0  0  0  0  0  0  0  0  0
  144.3716   73.1328  221.1989 H   0  0  0  0  0  0  0  0  0  0  0  0
  140.0882   71.2609  221.8412 H   0  0  0  0  0  0  0  0  0  0  0  0
  140.6707   72.7415  224.4623 H   0  0  0  0  0  0  0  0  0  0  0  0
  141.3374   70.9161  226.1477 H   0  0  0  0  0  0  0  0  0  0  0  0
  140.7763   68.7194  227.1766 H   0  0  0  0  0  0  0  0  0  0  0  0
  139.1598   67.1910  225.9804 H   0  0  0  0  0  0  0  0  0  0  0  0
  138.1983   67.9437  223.8115 H   0  0  0  0  0  0  0  0  0  0  0  0
  138.6808   76.6914  223.0948 H   0  0  0  0  0  0  0  0  0  0  0  0
  139.2015   78.9435  222.1672 H   0  0  0  0  0  0  0  0  0  0  0  0
  140.9716   79.2369  220.5048 H   0  0  0  0  0  0  0  0  0  0  0  0
  142.2860   77.2885  219.7149 H   0  0  0  0  0  0  0  0  0  0  0  0
  140.6388   71.4839  219.8521 H   0  0  0  0  0  0  0  0  0  0  0  0
  141.7768   69.4740  219.0074 H   0  0  0  0  0  0  0  0  0  0  0  0
  1  2  1  0
  2  3  2  0
  2  4  2  0
  2  5  1  0
  5  6  2  0
  6  7  1  0
  7  8  2  0
  8  9  1  0
  9 10  1  0
 10 11  1  0
 11 12  2  0
 12 13  1  0
 13 14  2  0
 14 15  1  0
 15 16  2  0
 16 17  1  0
 17 18  2  0
 10 19  2  0
 19 20  1  0
 20 21  2  0
 21 22  1  0
 22 23  2  0
 23 24  1  0
 24 25  2  0
 25 26  1  0
 26 27  2  0
  8 28  1  0
 28 29  2  0
 29  5  1  0
 26  9  1  0
 18 13  1  0
 25 20  1  0
  1 30  1  0
  1 31  1  0
  1 32  1  0
  6 33  1  0
  7 34  1  0
 11 35  1  0
 12 36  1  0
 14 37  1  0
 15 38  1  0
 16 39  1  0
 17 40  1  0
 21 41  1  0
 22 42  1  0
 23 43  1  0
 24 44  1  0
 28 45  1  0
 29 46  1  0
M  END
>  <smiles>  (24) 
CS(=O)(=O)c1ccc(-n2c(/C=C/c3ccccn3)nc3ccccc3c2=O)cc1

>  <score_type>  (24) 
oracle

>  <origin>  (24) 
autodockgpu

>  <m_score__min__energy>  (24) 
-8.7100000000000009

>  <m_primary>  (24) 
energy

>  <rmsd>  (24) 
5.467110927312501

>  <m_score__min__rmsd>  (24) 
5.467110927312501

>  <meeko>  (24) 
{"free_energy": -7.64, "intermolecular_energy": -9.13, "internal_energy": -1.03, "cluster_size": 30, "cluster_id": 1, "rank_in_cluster": 30}

>  <energy>  (24) 
-8.07

>  <cluster_rmsd>  (24) 
0.76

>  <cluster>  (24) 
1

$$$$

     RDKit          3D

 46 49  0  0  0  0  0  0  0  0999 V2000
  136.7910   82.1850  223.3600 C   0  0  0  0  0  0  0  0  0  0  0  0
  137.1050   80.6450  224.2150 S   0  0  0  0  0  0  0  0  0  0  0  0
  137.6820   80.9210  225.5940 O   0  0  0  0  0  0  0  0  0  0  0  0
  135.8040   79.9250  224.4440 O   0  0  0  0  0  0  0  0  0  0  0  0
  138.2340   79.6570  223.3150 C   0  0  0  0  0  0  0  0  0  0  0  0
  137.8460   79.2340  222.0600 C   0  0  0  0  0  0  0  0  0  0  0  0
  138.6700   78.4480  221.2690 C   0  0  0  0  0  0  0  0  0  0  0  0
  139.9130   78.0810  221.7570 C   0  0  0  0  0  0  0  0  0  0  0  0
  140.8330   77.2850  221.0400 N   0  0  0  0  0  0  0  0  0  0  0  0
  141.5370   77.7800  220.0050 C   0  0  0  0  0  0  0  0  0  0  0  0
  141.3690   79.1850  219.5790 C   0  0  0  0  0  0  0  0  0  0  0  0
  142.1760   80.1260  220.0410 C   0  0  0  0  0  0  0  0  0  0  0  0
  142.1890   80.5650  221.4100 C   0  0  0  0  0  0  0  0  0  0  0  0
  143.0440   80.0700  222.3470 C   0  0  0  0  0  0  0  0  0  0  0  0
  143.0330   80.5150  223.6690 C   0  0  0  0  0  0  0  0  0  0  0  0
  142.1110   81.5020  224.0320 C   0  0  0  0  0  0  0  0  0  0  0  0
  141.2570   81.9840  223.0630 C   0  0  0  0  0  0  0  0  0  0  0  0
  141.3150   81.5170  221.8080 N   0  0  0  0  0  0  0  0  0  0  0  0
  142.4050   76.9900  219.3470 N   0  0  0  0  0  0  0  0  0  0  0  0
  142.6350   75.6990  219.6490 C   0  0  0  0  0  0  0  0  0  0  0  0
  143.5370   74.9310  218.9400 C   0  0  0  0  0  0  0  0  0  0  0  0
  143.7060   73.6140  219.3280 C   0  0  0  0  0  0  0  0  0  0  0  0
  143.0080   73.0870  220.3700 C   0  0  0  0  0  0  0  0  0  0  0  0
  142.1080   73.8660  221.0720 C   0  0  0  0  0  0  0  0  0  0  0  0
  141.9130   75.1770  220.7190 C   0  0  0  0  0  0  0  0  0  0  0  0
  141.0260   75.9990  221.3850 C   0  0  0  0  0  0  0  0  0  0  0  0
  140.3930   75.4790  222.3490 O   0  0  0  0  0  0  0  0  0  0  0  0
  140.2850   78.5180  223.0240 C   0  0  0  0  0  0  0  0  0  0  0  0
  139.4720   79.2940  223.8070 C   0  0  0  0  0  0  0  0  0  0  0  0
  136.6276   82.9862  224.0958 H   0  0  0  0  0  0  0  0  0  0  0  0
  137.6562   82.4372  222.7293 H   0  0  0  0  0  0  0  0  0  0  0  0
  135.8961   82.0784  222.7293 H   0  0  0  0  0  0  0  0  0  0  0  0
  136.8575   79.5280  221.6773 H   0  0  0  0  0  0  0  0  0  0  0  0
  138.3421   78.1216  220.2710 H   0  0  0  0  0  0  0  0  0  0  0  0
  140.5679   79.4501  218.8733 H   0  0  0  0  0  0  0  0  0  0  0  0
  142.8769   80.5995  219.3377 H   0  0  0  0  0  0  0  0  0  0  0  0
  143.7663   79.2946  222.0521 H   0  0  0  0  0  0  0  0  0  0  0  0
  143.7331   80.0994  224.4087 H   0  0  0  0  0  0  0  0  0  0  0  0
  142.0684   81.8834  225.0629 H   0  0  0  0  0  0  0  0  0  0  0  0
  140.5210   82.7593  223.3223 H   0  0  0  0  0  0  0  0  0  0  0  0
  144.1021   75.3520  218.0953 H   0  0  0  0  0  0  0  0  0  0  0  0
  144.4199   72.9794  218.7824 H   0  0  0  0  0  0  0  0  0  0  0  0
  143.1608   72.0356  220.6551 H   0  0  0  0  0  0  0  0  0  0  0  0
  141.5476   73.4344  221.9145 H   0  0  0  0  0  0  0  0  0  0  0  0
  141.2724   78.2286  223.4131 H   0  0  0  0  0  0  0  0  0  0  0  0
  139.7981   79.6207  224.8055 H   0  0  0  0  0  0  0  0  0  0  0  0
  1  2  1  0
  2  3  2  0
  2  4  2  0
  2  5  1  0
  5  6  2  0
  6  7  1  0
  7  8  2  0
  8  9  1  0
  9 10  1  0
 10 11  1  0
 11 12  2  0
 12 13  1  0
 13 14  2  0
 14 15  1  0
 15 16  2  0
 16 17  1  0
 17 18  2  0
 10 19  2  0
 19 20  1  0
 20 21  2  0
 21 22  1  0
 22 23  2  0
 23 24  1  0
 24 25  2  0
 25 26  1  0
 26 27  2  0
  8 28  1  0
 28 29  2  0
 29  5  1  0
 26  9  1  0
 18 13  1  0
 25 20  1  0
  1 30  1  0
  1 31  1  0
  1 32  1  0
  6 33  1  0
  7 34  1  0
 11 35  1  0
 12 36  1  0
 14 37  1  0
 15 38  1  0
 16 39  1  0
 17 40  1  0
 21 41  1  0
 22 42  1  0
 23 43  1  0
 24 44  1  0
 28 45  1  0
 29 46  1  0
M  END
>  <smiles>  (25) 
CS(=O)(=O)c1ccc(-n2c(/C=C/c3ccccn3)nc3ccccc3c2=O)cc1

>  <score_type>  (25) 
oracle

>  <origin>  (25) 
autodockgpu

>  <m_score__min__energy>  (25) 
-8.7100000000000009

>  <m_primary>  (25) 
energy

>  <rmsd>  (25) 
7.200460164162429

>  <m_score__min__rmsd>  (25) 
7.200460164162429

>  <meeko>  (25) 
{"free_energy": -6.74, "intermolecular_energy": -8.23, "internal_energy": -2.1, "cluster_size": 15, "cluster_id": 4, "rank_in_cluster": 5}

>  <energy>  (25) 
-8.05

>  <cluster_rmsd>  (25) 
0.82

>  <cluster>  (25) 
1

$$$$

     RDKit          3D

 46 49  0  0  0  0  0  0  0  0999 V2000
  144.6410   68.2630  217.6580 C   0  0  0  0  0  0  0  0  0  0  0  0
  145.3630   69.1120  219.0580 S   0  0  0  0  0  0  0  0  0  0  0  0
  145.5880   68.1380  220.2020 O   0  0  0  0  0  0  0  0  0  0  0  0
  146.7240   69.6320  218.6800 O   0  0  0  0  0  0  0  0  0  0  0  0
  144.3150   70.4020  219.6070 C   0  0  0  0  0  0  0  0  0  0  0  0
  142.9540   70.1930  219.5230 C   0  0  0  0  0  0  0  0  0  0  0  0
  142.0430   71.1540  219.9320 C   0  0  0  0  0  0  0  0  0  0  0  0
  142.5170   72.3520  220.4390 C   0  0  0  0  0  0  0  0  0  0  0  0
  141.6830   73.4000  220.8860 N   0  0  0  0  0  0  0  0  0  0  0  0
  140.8200   73.2280  221.9040 C   0  0  0  0  0  0  0  0  0  0  0  0
  140.7140   71.9250  222.5950 C   0  0  0  0  0  0  0  0  0  0  0  0
  140.2720   71.8620  223.8400 C   0  0  0  0  0  0  0  0  0  0  0  0
  140.2350   70.6520  224.6140 C   0  0  0  0  0  0  0  0  0  0  0  0
  139.4260   69.5980  224.3180 C   0  0  0  0  0  0  0  0  0  0  0  0
  139.4110   68.4360  225.0890 C   0  0  0  0  0  0  0  0  0  0  0  0
  140.2590   68.3610  226.1990 C   0  0  0  0  0  0  0  0  0  0  0  0
  141.0670   69.4440  226.4750 C   0  0  0  0  0  0  0  0  0  0  0  0
  141.0370   70.5340  225.6970 N   0  0  0  0  0  0  0  0  0  0  0  0
  140.0410   74.2510  222.3010 N   0  0  0  0  0  0  0  0  0  0  0  0
  140.0550   75.4760  221.7440 C   0  0  0  0  0  0  0  0  0  0  0  0
  139.2340   76.4920  222.1910 C   0  0  0  0  0  0  0  0  0  0  0  0
  139.3210   77.7170  221.5540 C   0  0  0  0  0  0  0  0  0  0  0  0
  140.1840   77.9190  220.5230 C   0  0  0  0  0  0  0  0  0  0  0  0
  141.0010   76.8940  220.0850 C   0  0  0  0  0  0  0  0  0  0  0  0
  140.9450   75.6650  220.6910 C   0  0  0  0  0  0  0  0  0  0  0  0
  141.7370   74.6070  220.2940 C   0  0  0  0  0  0  0  0  0  0  0  0
  142.5290   74.8270  219.3320 O   0  0  0  0  0  0  0  0  0  0  0  0
  143.8930   72.5430  220.5150 C   0  0  0  0  0  0  0  0  0  0  0  0
  144.7950   71.5950  220.1100 C   0  0  0  0  0  0  0  0  0  0  0  0
  143.9674   67.4709  218.0171 H   0  0  0  0  0  0  0  0  0  0  0  0
  144.0717   68.9799  217.0482 H   0  0  0  0  0  0  0  0  0  0  0  0
  145.4401   67.8162  217.0482 H   0  0  0  0  0  0  0  0  0  0  0  0
  142.5822   69.2390  219.1210 H   0  0  0  0  0  0  0  0  0  0  0  0
  140.9616   70.9681  219.8551 H   0  0  0  0  0  0  0  0  0  0  0  0
  141.0044   71.0027  222.0705 H   0  0  0  0  0  0  0  0  0  0  0  0
  139.9121   72.7892  224.3099 H   0  0  0  0  0  0  0  0  0  0  0  0
  138.7630   69.6649  223.4428 H   0  0  0  0  0  0  0  0  0  0  0  0
  138.7475   67.5976  224.8302 H   0  0  0  0  0  0  0  0  0  0  0  0
  140.2808   67.4631  226.8341 H   0  0  0  0  0  0  0  0  0  0  0  0
  141.7427   69.4124  227.3425 H   0  0  0  0  0  0  0  0  0  0  0  0
  138.5347   76.3329  223.0250 H   0  0  0  0  0  0  0  0  0  0  0  0
  138.6786   78.5448  221.8886 H   0  0  0  0  0  0  0  0  0  0  0  0
  140.2322   78.9036  220.0348 H   0  0  0  0  0  0  0  0  0  0  0  0
  141.6965   77.0640  219.2499 H   0  0  0  0  0  0  0  0  0  0  0  0
  144.2721   73.4942  220.9168 H   0  0  0  0  0  0  0  0  0  0  0  0
  145.8768   71.7798  220.1838 H   0  0  0  0  0  0  0  0  0  0  0  0
  1  2  1  0
  2  3  2  0
  2  4  2  0
  2  5  1  0
  5  6  2  0
  6  7  1  0
  7  8  2  0
  8  9  1  0
  9 10  1  0
 10 11  1  0
 11 12  2  0
 12 13  1  0
 13 14  2  0
 14 15  1  0
 15 16  2  0
 16 17  1  0
 17 18  2  0
 10 19  2  0
 19 20  1  0
 20 21  2  0
 21 22  1  0
 22 23  2  0
 23 24  1  0
 24 25  2  0
 25 26  1  0
 26 27  2  0
  8 28  1  0
 28 29  2  0
 29  5  1  0
 26  9  1  0
 18 13  1  0
 25 20  1  0
  1 30  1  0
  1 31  1  0
  1 32  1  0
  6 33  1  0
  7 34  1  0
 11 35  1  0
 12 36  1  0
 14 37  1  0
 15 38  1  0
 16 39  1  0
 17 40  1  0
 21 41  1  0
 22 42  1  0
 23 43  1  0
 24 44  1  0
 28 45  1  0
 29 46  1  0
M  END
>  <smiles>  (26) 
CS(=O)(=O)c1ccc(-n2c(/C=C/c3ccccn3)nc3ccccc3c2=O)cc1

>  <score_type>  (26) 
oracle

>  <origin>  (26) 
autodockgpu

>  <m_score__min__energy>  (26) 
-8.7100000000000009

>  <m_primary>  (26) 
energy

>  <rmsd>  (26) 
5.8392563427081905

>  <m_score__min__rmsd>  (26) 
5.8392563427081905

>  <meeko>  (26) 
{"free_energy": -7.97, "intermolecular_energy": -9.47, "internal_energy": -1.03, "cluster_size": 30, "cluster_id": 1, "rank_in_cluster": 27}

>  <energy>  (26) 
-8.05

>  <cluster_rmsd>  (26) 
0.72

>  <cluster>  (26) 
1

$$$$

     RDKit          3D

 46 49  0  0  0  0  0  0  0  0999 V2000
  144.6190   68.2800  217.5620 C   0  0  0  0  0  0  0  0  0  0  0  0
  145.3480   69.1440  218.9480 S   0  0  0  0  0  0  0  0  0  0  0  0
  145.6450   68.1670  220.0740 O   0  0  0  0  0  0  0  0  0  0  0  0
  146.6760   69.7210  218.5360 O   0  0  0  0  0  0  0  0  0  0  0  0
  144.2680   70.3850  219.5420 C   0  0  0  0  0  0  0  0  0  0  0  0
  144.8390   71.5140  220.0930 C   0  0  0  0  0  0  0  0  0  0  0  0
  144.0670   72.5520  220.5910 C   0  0  0  0  0  0  0  0  0  0  0  0
  142.6880   72.4480  220.5290 C   0  0  0  0  0  0  0  0  0  0  0  0
  141.8050   73.4430  221.0050 N   0  0  0  0  0  0  0  0  0  0  0  0
  140.8300   73.1560  221.8880 C   0  0  0  0  0  0  0  0  0  0  0  0
  140.6490   71.7790  222.3940 C   0  0  0  0  0  0  0  0  0  0  0  0
  139.7240   71.5170  223.3020 C   0  0  0  0  0  0  0  0  0  0  0  0
  140.0190   71.1450  224.6590 C   0  0  0  0  0  0  0  0  0  0  0  0
  140.8030   71.8890  225.4860 C   0  0  0  0  0  0  0  0  0  0  0  0
  141.0720   71.5020  226.7990 C   0  0  0  0  0  0  0  0  0  0  0  0
  140.5130   70.3090  227.2700 C   0  0  0  0  0  0  0  0  0  0  0  0
  139.7240   69.5750  226.4100 C   0  0  0  0  0  0  0  0  0  0  0  0
  139.5010   69.9990  225.1580 N   0  0  0  0  0  0  0  0  0  0  0  0
  140.0080   74.1310  222.3180 N   0  0  0  0  0  0  0  0  0  0  0  0
  140.0830   75.4150  221.9230 C   0  0  0  0  0  0  0  0  0  0  0  0
  139.2140   76.3780  222.3950 C   0  0  0  0  0  0  0  0  0  0  0  0
  139.3710   77.6710  221.9310 C   0  0  0  0  0  0  0  0  0  0  0  0
  140.3470   77.9900  221.0390 C   0  0  0  0  0  0  0  0  0  0  0  0
  141.2120   77.0170  220.5740 C   0  0  0  0  0  0  0  0  0  0  0  0
  141.0880   75.7230  221.0100 C   0  0  0  0  0  0  0  0  0  0  0  0
  141.9240   74.7130  220.5780 C   0  0  0  0  0  0  0  0  0  0  0  0
  142.8210   75.0420  219.7480 O   0  0  0  0  0  0  0  0  0  0  0  0
  142.1320   71.3030  219.9700 C   0  0  0  0  0  0  0  0  0  0  0  0
  142.8930   70.2760  219.4790 C   0  0  0  0  0  0  0  0  0  0  0  0
  143.9513   67.4886  217.9334 H   0  0  0  0  0  0  0  0  0  0  0  0
  144.0422   68.9892  216.9501 H   0  0  0  0  0  0  0  0  0  0  0  0
  145.4151   67.8308  216.9501 H   0  0  0  0  0  0  0  0  0  0  0  0
  145.9353   71.5923  220.1382 H   0  0  0  0  0  0  0  0  0  0  0  0
  144.5419   73.4429  221.0279 H   0  0  0  0  0  0  0  0  0  0  0  0
  141.2871   70.9679  222.0132 H   0  0  0  0  0  0  0  0  0  0  0  0
  138.6681   71.5878  223.0017 H   0  0  0  0  0  0  0  0  0  0  0  0
  141.2384   72.8254  225.1070 H   0  0  0  0  0  0  0  0  0  0  0  0
  141.7087   72.1203  227.4488 H   0  0  0  0  0  0  0  0  0  0  0  0
  140.6980   69.9660  228.2986 H   0  0  0  0  0  0  0  0  0  0  0  0
  139.2732   68.6326  226.7545 H   0  0  0  0  0  0  0  0  0  0  0  0
  138.4229   76.1252  223.1163 H   0  0  0  0  0  0  0  0  0  0  0  0
  138.6923   78.4583  222.2908 H   0  0  0  0  0  0  0  0  0  0  0  0
  140.4485   79.0269  220.6860 H   0  0  0  0  0  0  0  0  0  0  0  0
  142.0003   77.2811  219.8537 H   0  0  0  0  0  0  0  0  0  0  0  0
  141.0364   71.2186  219.9201 H   0  0  0  0  0  0  0  0  0  0  0  0
  142.4193   69.3837  219.0439 H   0  0  0  0  0  0  0  0  0  0  0  0
  1  2  1  0
  2  3  2  0
  2  4  2  0
  2  5  1  0
  5  6  2  0
  6  7  1  0
  7  8  2  0
  8  9  1  0
  9 10  1  0
 10 11  1  0
 11 12  2  0
 12 13  1  0
 13 14  2  0
 14 15  1  0
 15 16  2  0
 16 17  1  0
 17 18  2  0
 10 19  2  0
 19 20  1  0
 20 21  2  0
 21 22  1  0
 22 23  2  0
 23 24  1  0
 24 25  2  0
 25 26  1  0
 26 27  2  0
  8 28  1  0
 28 29  2  0
 29  5  1  0
 26  9  1  0
 18 13  1  0
 25 20  1  0
  1 30  1  0
  1 31  1  0
  1 32  1  0
  6 33  1  0
  7 34  1  0
 11 35  1  0
 12 36  1  0
 14 37  1  0
 15 38  1  0
 16 39  1  0
 17 40  1  0
 21 41  1  0
 22 42  1  0
 23 43  1  0
 24 44  1  0
 28 45  1  0
 29 46  1  0
M  END
>  <smiles>  (27) 
CS(=O)(=O)c1ccc(-n2c(/C=C/c3ccccn3)nc3ccccc3c2=O)cc1

>  <score_type>  (27) 
oracle

>  <origin>  (27) 
autodockgpu

>  <m_score__min__energy>  (27) 
-8.7100000000000009

>  <m_primary>  (27) 
energy

>  <rmsd>  (27) 
5.614486478198989

>  <m_score__min__rmsd>  (27) 
5.614486478198989

>  <meeko>  (27) 
{"free_energy": -8.62, "intermolecular_energy": -10.11, "internal_energy": -0.94, "cluster_size": 30, "cluster_id": 1, "rank_in_cluster": 9}

>  <energy>  (27) 
-7.97

>  <cluster_rmsd>  (27) 
0.59

>  <cluster>  (27) 
1

$$$$

     RDKit          3D

 46 49  0  0  0  0  0  0  0  0999 V2000
  144.6930   68.2430  217.6140 C   0  0  0  0  0  0  0  0  0  0  0  0
  145.4370   69.1050  218.9950 S   0  0  0  0  0  0  0  0  0  0  0  0
  145.7180   68.1320  220.1280 O   0  0  0  0  0  0  0  0  0  0  0  0
  146.7730   69.6580  218.5780 O   0  0  0  0  0  0  0  0  0  0  0  0
  144.3760   70.3670  219.5790 C   0  0  0  0  0  0  0  0  0  0  0  0
  143.0180   70.1300  219.5270 C   0  0  0  0  0  0  0  0  0  0  0  0
  142.0970   71.0690  219.9670 C   0  0  0  0  0  0  0  0  0  0  0  0
  142.5580   72.2730  220.4710 C   0  0  0  0  0  0  0  0  0  0  0  0
  141.7130   73.3000  220.9460 N   0  0  0  0  0  0  0  0  0  0  0  0
  140.8050   73.0730  221.9140 C   0  0  0  0  0  0  0  0  0  0  0  0
  140.6600   71.7310  222.5160 C   0  0  0  0  0  0  0  0  0  0  0  0
  139.7380   71.5080  223.4390 C   0  0  0  0  0  0  0  0  0  0  0  0
  140.0380   71.1210  224.7900 C   0  0  0  0  0  0  0  0  0  0  0  0
  140.8310   71.8520  225.6210 C   0  0  0  0  0  0  0  0  0  0  0  0
  141.1050   71.4500  226.9280 C   0  0  0  0  0  0  0  0  0  0  0  0
  140.5400   70.2570  227.3900 C   0  0  0  0  0  0  0  0  0  0  0  0
  139.7410   69.5370  226.5270 C   0  0  0  0  0  0  0  0  0  0  0  0
  139.5150   69.9740  225.2810 N   0  0  0  0  0  0  0  0  0  0  0  0
  140.0170   74.0770  222.3410 N   0  0  0  0  0  0  0  0  0  0  0  0
  140.0650   75.3340  221.8620 C   0  0  0  0  0  0  0  0  0  0  0  0
  139.2330   76.3290  222.3360 C   0  0  0  0  0  0  0  0  0  0  0  0
  139.3570   77.5900  221.7820 C   0  0  0  0  0  0  0  0  0  0  0  0
  140.2660   77.8480  220.8040 C   0  0  0  0  0  0  0  0  0  0  0  0
  141.0940   76.8440  220.3380 C   0  0  0  0  0  0  0  0  0  0  0  0
  141.0010   75.5790  220.8620 C   0  0  0  0  0  0  0  0  0  0  0  0
  141.8020   74.5400  220.4340 C   0  0  0  0  0  0  0  0  0  0  0  0
  142.6370   74.8120  219.5230 O   0  0  0  0  0  0  0  0  0  0  0  0
  143.9310   72.4920  220.5150 C   0  0  0  0  0  0  0  0  0  0  0  0
  144.8420   71.5660  220.0800 C   0  0  0  0  0  0  0  0  0  0  0  0
  144.0178   67.4607  217.9909 H   0  0  0  0  0  0  0  0  0  0  0  0
  144.1221   68.9561  217.0012 H   0  0  0  0  0  0  0  0  0  0  0  0
  145.4819   67.7824  217.0012 H   0  0  0  0  0  0  0  0  0  0  0  0
  142.6563   69.1716  219.1262 H   0  0  0  0  0  0  0  0  0  0  0  0
  141.0181   70.8604  219.9163 H   0  0  0  0  0  0  0  0  0  0  0  0
  141.3219   70.9131  222.1952 H   0  0  0  0  0  0  0  0  0  0  0  0
  138.6816   71.6256  223.1557 H   0  0  0  0  0  0  0  0  0  0  0  0
  141.2697   72.7899  225.2495 H   0  0  0  0  0  0  0  0  0  0  0  0
  141.7503   72.0569  227.5801 H   0  0  0  0  0  0  0  0  0  0  0  0
  140.7279   69.9026  228.4142 H   0  0  0  0  0  0  0  0  0  0  0  0
  139.2849   68.5948  226.8649 H   0  0  0  0  0  0  0  0  0  0  0  0
  138.4966   76.1255  223.1274 H   0  0  0  0  0  0  0  0  0  0  0  0
  138.7065   78.4016  222.1400 H   0  0  0  0  0  0  0  0  0  0  0  0
  140.3428   78.8608  220.3816 H   0  0  0  0  0  0  0  0  0  0  0  0
  141.8276   77.0590  219.5470 H   0  0  0  0  0  0  0  0  0  0  0  0
  144.3003   73.4477  220.9154 H   0  0  0  0  0  0  0  0  0  0  0  0
  145.9212   71.7733  220.1288 H   0  0  0  0  0  0  0  0  0  0  0  0
  1  2  1  0
  2  3  2  0
  2  4  2  0
  2  5  1  0
  5  6  2  0
  6  7  1  0
  7  8  2  0
  8  9  1  0
  9 10  1  0
 10 11  1  0
 11 12  2  0
 12 13  1  0
 13 14  2  0
 14 15  1  0
 15 16  2  0
 16 17  1  0
 17 18  2  0
 10 19  2  0
 19 20  1  0
 20 21  2  0
 21 22  1  0
 22 23  2  0
 23 24  1  0
 24 25  2  0
 25 26  1  0
 26 27  2  0
  8 28  1  0
 28 29  2  0
 29  5  1  0
 26  9  1  0
 18 13  1  0
 25 20  1  0
  1 30  1  0
  1 31  1  0
  1 32  1  0
  6 33  1  0
  7 34  1  0
 11 35  1  0
 12 36  1  0
 14 37  1  0
 15 38  1  0
 16 39  1  0
 17 40  1  0
 21 41  1  0
 22 42  1  0
 23 43  1  0
 24 44  1  0
 28 45  1  0
 29 46  1  0
M  END
>  <smiles>  (28) 
CS(=O)(=O)c1ccc(-n2c(/C=C/c3ccccn3)nc3ccccc3c2=O)cc1

>  <score_type>  (28) 
oracle

>  <origin>  (28) 
autodockgpu

>  <m_score__min__energy>  (28) 
-8.7100000000000009

>  <m_primary>  (28) 
energy

>  <rmsd>  (28) 
5.926422391661569

>  <m_score__min__rmsd>  (28) 
5.926422391661569

>  <meeko>  (28) 
{"free_energy": -8.56, "intermolecular_energy": -10.05, "internal_energy": -1.01, "cluster_size": 30, "cluster_id": 1, "rank_in_cluster": 15}

>  <energy>  (28) 
-7.96

>  <cluster_rmsd>  (28) 
0.82

>  <cluster>  (28) 
1

$$$$

     RDKit          3D

 46 49  0  0  0  0  0  0  0  0999 V2000
  144.5700   68.1130  217.7190 C   0  0  0  0  0  0  0  0  0  0  0  0
  145.4700   69.1180  218.8950 S   0  0  0  0  0  0  0  0  0  0  0  0
  145.9480   68.2620  220.0560 O   0  0  0  0  0  0  0  0  0  0  0  0
  146.7110   69.6620  218.2400 O   0  0  0  0  0  0  0  0  0  0  0  0
  144.4570   70.4030  219.5140 C   0  0  0  0  0  0  0  0  0  0  0  0
  143.0910   70.2360  219.4190 C   0  0  0  0  0  0  0  0  0  0  0  0
  142.2060   71.1980  219.8820 C   0  0  0  0  0  0  0  0  0  0  0  0
  142.7120   72.3520  220.4530 C   0  0  0  0  0  0  0  0  0  0  0  0
  141.9060   73.3970  220.9570 N   0  0  0  0  0  0  0  0  0  0  0  0
  140.9450   73.1660  221.8720 C   0  0  0  0  0  0  0  0  0  0  0  0
  140.6980   71.8010  222.3830 C   0  0  0  0  0  0  0  0  0  0  0  0
  139.8280   71.5990  223.3580 C   0  0  0  0  0  0  0  0  0  0  0  0
  140.1870   71.1120  224.6620 C   0  0  0  0  0  0  0  0  0  0  0  0
  140.7720   71.8870  225.6160 C   0  0  0  0  0  0  0  0  0  0  0  0
  141.1100   71.3860  226.8730 C   0  0  0  0  0  0  0  0  0  0  0  0
  140.8330   70.0430  227.1510 C   0  0  0  0  0  0  0  0  0  0  0  0
  140.2410   69.2820  226.1660 C   0  0  0  0  0  0  0  0  0  0  0  0
  139.9390   69.8200  224.9760 N   0  0  0  0  0  0  0  0  0  0  0  0
  140.1970   74.1880  222.3280 N   0  0  0  0  0  0  0  0  0  0  0  0
  140.3350   75.4660  221.9310 C   0  0  0  0  0  0  0  0  0  0  0  0
  139.5400   76.4770  222.4330 C   0  0  0  0  0  0  0  0  0  0  0  0
  139.7590   77.7600  221.9640 C   0  0  0  0  0  0  0  0  0  0  0  0
  140.7230   78.0220  221.0400 C   0  0  0  0  0  0  0  0  0  0  0  0
  141.5130   77.0010  220.5470 C   0  0  0  0  0  0  0  0  0  0  0  0
  141.3270   75.7150  220.9870 C   0  0  0  0  0  0  0  0  0  0  0  0
  142.0860   74.6590  220.5270 C   0  0  0  0  0  0  0  0  0  0  0  0
  142.9740   74.9350  219.6690 O   0  0  0  0  0  0  0  0  0  0  0  0
  144.0920   72.5010  220.5400 C   0  0  0  0  0  0  0  0  0  0  0  0
  144.9680   71.5530  220.0820 C   0  0  0  0  0  0  0  0  0  0  0  0
  143.9310   67.3994  218.2598 H   0  0  0  0  0  0  0  0  0  0  0  0
  143.9439   68.7601  217.0872 H   0  0  0  0  0  0  0  0  0  0  0  0
  145.2820   67.5618  217.0872 H   0  0  0  0  0  0  0  0  0  0  0  0
  142.6937   69.3165  218.9645 H   0  0  0  0  0  0  0  0  0  0  0  0
  141.1199   71.0460  219.7967 H   0  0  0  0  0  0  0  0  0  0  0  0
  141.2412   70.9483  221.9495 H   0  0  0  0  0  0  0  0  0  0  0  0
  138.7680   71.8162  223.1598 H   0  0  0  0  0  0  0  0  0  0  0  0
  140.9849   72.9419  225.3883 H   0  0  0  0  0  0  0  0  0  0  0  0
  141.5831   72.0313  227.6278 H   0  0  0  0  0  0  0  0  0  0  0  0
  141.0811   69.6061  228.1296 H   0  0  0  0  0  0  0  0  0  0  0  0
  140.0142   68.2230  226.3583 H   0  0  0  0  0  0  0  0  0  0  0  0
  138.7595   76.2696  223.1799 H   0  0  0  0  0  0  0  0  0  0  0  0
  139.1408   78.5858  222.3461 H   0  0  0  0  0  0  0  0  0  0  0  0
  140.8742   79.0517  220.6837 H   0  0  0  0  0  0  0  0  0  0  0  0
  142.2915   77.2196  219.8013 H   0  0  0  0  0  0  0  0  0  0  0  0
  144.4963   73.4173  220.9950 H   0  0  0  0  0  0  0  0  0  0  0  0
  146.0544   71.7045  220.1648 H   0  0  0  0  0  0  0  0  0  0  0  0
  1  2  1  0
  2  3  2  0
  2  4  2  0
  2  5  1  0
  5  6  2  0
  6  7  1  0
  7  8  2  0
  8  9  1  0
  9 10  1  0
 10 11  1  0
 11 12  2  0
 12 13  1  0
 13 14  2  0
 14 15  1  0
 15 16  2  0
 16 17  1  0
 17 18  2  0
 10 19  2  0
 19 20  1  0
 20 21  2  0
 21 22  1  0
 22 23  2  0
 23 24  1  0
 24 25  2  0
 25 26  1  0
 26 27  2  0
  8 28  1  0
 28 29  2  0
 29  5  1  0
 26  9  1  0
 18 13  1  0
 25 20  1  0
  1 30  1  0
  1 31  1  0
  1 32  1  0
  6 33  1  0
  7 34  1  0
 11 35  1  0
 12 36  1  0
 14 37  1  0
 15 38  1  0
 16 39  1  0
 17 40  1  0
 21 41  1  0
 22 42  1  0
 23 43  1  0
 24 44  1  0
 28 45  1  0
 29 46  1  0
M  END
>  <smiles>  (29) 
CS(=O)(=O)c1ccc(-n2c(/C=C/c3ccccn3)nc3ccccc3c2=O)cc1

>  <score_type>  (29) 
oracle

>  <origin>  (29) 
autodockgpu

>  <m_score__min__energy>  (29) 
-8.7100000000000009

>  <m_primary>  (29) 
energy

>  <rmsd>  (29) 
5.863466669341965

>  <m_score__min__rmsd>  (29) 
5.863466669341965

>  <meeko>  (29) 
{"free_energy": -8.64, "intermolecular_energy": -10.14, "internal_energy": -1.0, "cluster_size": 30, "cluster_id": 1, "rank_in_cluster": 6}

>  <energy>  (29) 
-7.81

>  <cluster_rmsd>  (29) 
0.62

>  <cluster>  (29) 
1

$$$$

     RDKit          3D

 46 49  0  0  0  0  0  0  0  0999 V2000
  144.6090   68.1550  217.6950 C   0  0  0  0  0  0  0  0  0  0  0  0
  145.4470   69.1520  218.9210 S   0  0  0  0  0  0  0  0  0  0  0  0
  145.8900   68.2850  220.0870 O   0  0  0  0  0  0  0  0  0  0  0  0
  146.7060   69.7230  218.3250 O   0  0  0  0  0  0  0  0  0  0  0  0
  144.3930   70.4140  219.5180 C   0  0  0  0  0  0  0  0  0  0  0  0
  144.9870   71.5180  220.0940 C   0  0  0  0  0  0  0  0  0  0  0  0
  144.2370   72.5700  220.5970 C   0  0  0  0  0  0  0  0  0  0  0  0
  142.8560   72.5060  220.5140 C   0  0  0  0  0  0  0  0  0  0  0  0
  141.9940   73.5180  220.9920 N   0  0  0  0  0  0  0  0  0  0  0  0
  141.0290   73.2530  221.8920 C   0  0  0  0  0  0  0  0  0  0  0  0
  140.8350   71.8840  222.4140 C   0  0  0  0  0  0  0  0  0  0  0  0
  139.9200   71.6440  223.3380 C   0  0  0  0  0  0  0  0  0  0  0  0
  140.2170   71.0970  224.6340 C   0  0  0  0  0  0  0  0  0  0  0  0
  139.9690   69.8030  224.9760 C   0  0  0  0  0  0  0  0  0  0  0  0
  140.2680   69.3010  226.2430 C   0  0  0  0  0  0  0  0  0  0  0  0
  140.8410   70.1630  227.1830 C   0  0  0  0  0  0  0  0  0  0  0  0
  141.0800   71.4690  226.8100 C   0  0  0  0  0  0  0  0  0  0  0  0
  140.7710   71.8930  225.5770 N   0  0  0  0  0  0  0  0  0  0  0  0
  140.2270   74.2440  222.3230 N   0  0  0  0  0  0  0  0  0  0  0  0
  140.3140   75.5230  221.9150 C   0  0  0  0  0  0  0  0  0  0  0  0
  139.4650   76.5020  222.3900 C   0  0  0  0  0  0  0  0  0  0  0  0
  139.6340   77.7890  221.9100 C   0  0  0  0  0  0  0  0  0  0  0  0
  140.6010   78.0850  221.0010 C   0  0  0  0  0  0  0  0  0  0  0  0
  141.4450   77.0950  220.5330 C   0  0  0  0  0  0  0  0  0  0  0  0
  141.3100   75.8070  220.9850 C   0  0  0  0  0  0  0  0  0  0  0  0
  142.1250   74.7820  220.5510 C   0  0  0  0  0  0  0  0  0  0  0  0
  143.0150   75.0890  219.7050 O   0  0  0  0  0  0  0  0  0  0  0  0
  142.2770   71.3850  219.9290 C   0  0  0  0  0  0  0  0  0  0  0  0
  143.0170   70.3440  219.4330 C   0  0  0  0  0  0  0  0  0  0  0  0
  143.9798   67.4065  218.1988 H   0  0  0  0  0  0  0  0  0  0  0  0
  143.9784   68.8006  217.0661 H   0  0  0  0  0  0  0  0  0  0  0  0
  145.3534   67.6448  217.0661 H   0  0  0  0  0  0  0  0  0  0  0  0
  146.0843   71.5648  220.1558 H   0  0  0  0  0  0  0  0  0  0  0  0
  144.7303   73.4405  221.0541 H   0  0  0  0  0  0  0  0  0  0  0  0
  141.4553   71.0600  222.0317 H   0  0  0  0  0  0  0  0  0  0  0  0
  138.8711   71.8762  223.1014 H   0  0  0  0  0  0  0  0  0  0  0  0
  139.5186   69.1319  224.2299 H   0  0  0  0  0  0  0  0  0  0  0  0
  140.0578   68.2514  226.4965 H   0  0  0  0  0  0  0  0  0  0  0  0
  141.0944   69.8089  228.1931 H   0  0  0  0  0  0  0  0  0  0  0  0
  141.5282   72.1687  227.5309 H   0  0  0  0  0  0  0  0  0  0  0  0
  138.6809   76.2674  223.1249 H   0  0  0  0  0  0  0  0  0  0  0  0
  138.9719   78.5896  222.2716 H   0  0  0  0  0  0  0  0  0  0  0  0
  140.7123   79.1168  220.6364 H   0  0  0  0  0  0  0  0  0  0  0  0
  142.2254   77.3404  219.7976 H   0  0  0  0  0  0  0  0  0  0  0  0
  141.1803   71.3319  219.8618 H   0  0  0  0  0  0  0  0  0  0  0  0
  142.5255   69.4718  218.9772 H   0  0  0  0  0  0  0  0  0  0  0  0
  1  2  1  0
  2  3  2  0
  2  4  2  0
  2  5  1  0
  5  6  2  0
  6  7  1  0
  7  8  2  0
  8  9  1  0
  9 10  1  0
 10 11  1  0
 11 12  2  0
 12 13  1  0
 13 14  2  0
 14 15  1  0
 15 16  2  0
 16 17  1  0
 17 18  2  0
 10 19  2  0
 19 20  1  0
 20 21  2  0
 21 22  1  0
 22 23  2  0
 23 24  1  0
 24 25  2  0
 25 26  1  0
 26 27  2  0
  8 28  1  0
 28 29  2  0
 29  5  1  0
 26  9  1  0
 18 13  1  0
 25 20  1  0
  1 30  1  0
  1 31  1  0
  1 32  1  0
  6 33  1  0
  7 34  1  0
 11 35  1  0
 12 36  1  0
 14 37  1  0
 15 38  1  0
 16 39  1  0
 17 40  1  0
 21 41  1  0
 22 42  1  0
 23 43  1  0
 24 44  1  0
 28 45  1  0
 29 46  1  0
M  END
>  <smiles>  (30) 
CS(=O)(=O)c1ccc(-n2c(/C=C/c3ccccn3)nc3ccccc3c2=O)cc1

>  <score_type>  (30) 
oracle

>  <origin>  (30) 
autodockgpu

>  <m_score__min__energy>  (30) 
-8.7100000000000009

>  <m_primary>  (30) 
energy

>  <rmsd>  (30) 
5.6083732242279325

>  <m_score__min__rmsd>  (30) 
5.6083732242279325

>  <meeko>  (30) 
{"free_energy": -8.66, "intermolecular_energy": -10.15, "internal_energy": -0.96, "cluster_size": 30, "cluster_id": 1, "rank_in_cluster": 2}

>  <energy>  (30) 
-7.64

>  <cluster_rmsd>  (30) 
0.96

>  <cluster>  (30) 
1

$$$$

     RDKit          3D

 46 49  0  0  0  0  0  0  0  0999 V2000
  144.6720   68.2700  217.5650 C   0  0  0  0  0  0  0  0  0  0  0  0
  145.3860   69.1520  218.9480 S   0  0  0  0  0  0  0  0  0  0  0  0
  145.7080   68.1850  220.0750 O   0  0  0  0  0  0  0  0  0  0  0  0
  146.6990   69.7580  218.5300 O   0  0  0  0  0  0  0  0  0  0  0  0
  144.2790   70.3700  219.5420 C   0  0  0  0  0  0  0  0  0  0  0  0
  144.8270   71.5130  220.0880 C   0  0  0  0  0  0  0  0  0  0  0  0
  144.0330   72.5350  220.5860 C   0  0  0  0  0  0  0  0  0  0  0  0
  142.6560   72.4000  220.5300 C   0  0  0  0  0  0  0  0  0  0  0  0
  141.7520   73.3750  221.0060 N   0  0  0  0  0  0  0  0  0  0  0  0
  140.7980   73.0720  221.9050 C   0  0  0  0  0  0  0  0  0  0  0  0
  140.6610   71.6960  222.4290 C   0  0  0  0  0  0  0  0  0  0  0  0
  139.7620   71.4210  223.3590 C   0  0  0  0  0  0  0  0  0  0  0  0
  140.0920   71.1230  224.7260 C   0  0  0  0  0  0  0  0  0  0  0  0
  139.5320   70.0970  225.4250 C   0  0  0  0  0  0  0  0  0  0  0  0
  139.8720   69.8330  226.7510 C   0  0  0  0  0  0  0  0  0  0  0  0
  140.8200   70.6530  227.3730 C   0  0  0  0  0  0  0  0  0  0  0  0
  141.3690   71.6840  226.6410 C   0  0  0  0  0  0  0  0  0  0  0  0
  141.0030   71.8890  225.3690 N   0  0  0  0  0  0  0  0  0  0  0  0
  139.9550   74.0290  222.3350 N   0  0  0  0  0  0  0  0  0  0  0  0
  139.9890   75.3100  221.9250 C   0  0  0  0  0  0  0  0  0  0  0  0
  139.1000   76.2540  222.3980 C   0  0  0  0  0  0  0  0  0  0  0  0
  139.2160   77.5460  221.9170 C   0  0  0  0  0  0  0  0  0  0  0  0
  140.1710   77.8810  221.0090 C   0  0  0  0  0  0  0  0  0  0  0  0
  141.0560   76.9270  220.5430 C   0  0  0  0  0  0  0  0  0  0  0  0
  140.9740   75.6350  220.9960 C   0  0  0  0  0  0  0  0  0  0  0  0
  141.8310   74.6440  220.5640 C   0  0  0  0  0  0  0  0  0  0  0  0
  142.7080   74.9870  219.7180 O   0  0  0  0  0  0  0  0  0  0  0  0
  142.1240   71.2410  219.9750 C   0  0  0  0  0  0  0  0  0  0  0  0
  142.9070   70.2300  219.4840 C   0  0  0  0  0  0  0  0  0  0  0  0
  144.0212   67.4661  217.9394 H   0  0  0  0  0  0  0  0  0  0  0  0
  144.0798   68.9659  216.9526 H   0  0  0  0  0  0  0  0  0  0  0  0
  145.4760   67.8357  216.9526 H   0  0  0  0  0  0  0  0  0  0  0  0
  145.9214   71.6159  220.1292 H   0  0  0  0  0  0  0  0  0  0  0  0
  144.4893   73.4377  221.0182 H   0  0  0  0  0  0  0  0  0  0  0  0
  141.3106   70.8966  222.0430 H   0  0  0  0  0  0  0  0  0  0  0  0
  138.7007   71.4202  223.0699 H   0  0  0  0  0  0  0  0  0  0  0  0
  138.7884   69.4568  224.9279 H   0  0  0  0  0  0  0  0  0  0  0  0
  139.4056   68.9990  227.2959 H   0  0  0  0  0  0  0  0  0  0  0  0
  141.1189   70.4797  228.4173 H   0  0  0  0  0  0  0  0  0  0  0  0
  142.1151   72.3450  227.1062 H   0  0  0  0  0  0  0  0  0  0  0  0
  138.3255   75.9881  223.1325 H   0  0  0  0  0  0  0  0  0  0  0  0
  138.5208   78.3187  222.2769 H   0  0  0  0  0  0  0  0  0  0  0  0
  140.2396   78.9162  220.6435 H   0  0  0  0  0  0  0  0  0  0  0  0
  141.8265   77.2041  219.8084 H   0  0  0  0  0  0  0  0  0  0  0  0
  141.0304   71.1318  219.9285 H   0  0  0  0  0  0  0  0  0  0  0  0
  142.4522   69.3260  219.0527 H   0  0  0  0  0  0  0  0  0  0  0  0
  1  2  1  0
  2  3  2  0
  2  4  2  0
  2  5  1  0
  5  6  2  0
  6  7  1  0
  7  8  2  0
  8  9  1  0
  9 10  1  0
 10 11  1  0
 11 12  2  0
 12 13  1  0
 13 14  2  0
 14 15  1  0
 15 16  2  0
 16 17  1  0
 17 18  2  0
 10 19  2  0
 19 20  1  0
 20 21  2  0
 21 22  1  0
 22 23  2  0
 23 24  1  0
 24 25  2  0
 25 26  1  0
 26 27  2  0
  8 28  1  0
 28 29  2  0
 29  5  1  0
 26  9  1  0
 18 13  1  0
 25 20  1  0
  1 30  1  0
  1 31  1  0
  1 32  1  0
  6 33  1  0
  7 34  1  0
 11 35  1  0
 12 36  1  0
 14 37  1  0
 15 38  1  0
 16 39  1  0
 17 40  1  0
 21 41  1  0
 22 42  1  0
 23 43  1  0
 24 44  1  0
 28 45  1  0
 29 46  1  0
M  END
>  <smiles>  (31) 
CS(=O)(=O)c1ccc(-n2c(/C=C/c3ccccn3)nc3ccccc3c2=O)cc1

>  <score_type>  (31) 
oracle

>  <origin>  (31) 
autodockgpu

>  <m_score__min__energy>  (31) 
-8.7100000000000009

>  <m_primary>  (31) 
energy

>  <rmsd>  (31) 
5.665786781713342

>  <m_score__min__rmsd>  (31) 
5.665786781713342

>  <meeko>  (31) 
{"free_energy": -8.65, "intermolecular_energy": -10.14, "internal_energy": -0.95, "cluster_size": 30, "cluster_id": 1, "rank_in_cluster": 4}

>  <energy>  (31) 
-7.56

>  <cluster_rmsd>  (31) 
0.0

>  <cluster>  (31) 
2

$$$$

     RDKit          3D

 46 49  0  0  0  0  0  0  0  0999 V2000
  136.8820   82.2150  223.2490 C   0  0  0  0  0  0  0  0  0  0  0  0
  137.1450   80.6610  224.0960 S   0  0  0  0  0  0  0  0  0  0  0  0
  137.6850   80.9130  225.4940 O   0  0  0  0  0  0  0  0  0  0  0  0
  135.8250   79.9620  224.2790 O   0  0  0  0  0  0  0  0  0  0  0  0
  138.2820   79.6620  223.2180 C   0  0  0  0  0  0  0  0  0  0  0  0
  137.9360   79.2820  221.9380 C   0  0  0  0  0  0  0  0  0  0  0  0
  138.7700   78.4910  221.1630 C   0  0  0  0  0  0  0  0  0  0  0  0
  139.9800   78.0760  221.6920 C   0  0  0  0  0  0  0  0  0  0  0  0
  140.9060   77.2700  220.9950 N   0  0  0  0  0  0  0  0  0  0  0  0
  141.6080   77.7470  219.9490 C   0  0  0  0  0  0  0  0  0  0  0  0
  141.4300   79.1410  219.4910 C   0  0  0  0  0  0  0  0  0  0  0  0
  142.2040   80.1040  219.9630 C   0  0  0  0  0  0  0  0  0  0  0  0
  142.1900   80.5430  221.3320 C   0  0  0  0  0  0  0  0  0  0  0  0
  141.4510   81.5970  221.7730 C   0  0  0  0  0  0  0  0  0  0  0  0
  141.4580   82.0000  223.1080 C   0  0  0  0  0  0  0  0  0  0  0  0
  142.2540   81.2900  224.0140 C   0  0  0  0  0  0  0  0  0  0  0  0
  142.9930   80.2280  223.5390 C   0  0  0  0  0  0  0  0  0  0  0  0
  142.9450   79.8880  222.2440 N   0  0  0  0  0  0  0  0  0  0  0  0
  142.4820   76.9480  219.3100 N   0  0  0  0  0  0  0  0  0  0  0  0
  142.7210   75.6660  219.6410 C   0  0  0  0  0  0  0  0  0  0  0  0
  143.6290   74.8890  218.9510 C   0  0  0  0  0  0  0  0  0  0  0  0
  143.8070   73.5820  219.3680 C   0  0  0  0  0  0  0  0  0  0  0  0
  143.1120   73.0740  220.4210 C   0  0  0  0  0  0  0  0  0  0  0  0
  142.2060   73.8620  221.1040 C   0  0  0  0  0  0  0  0  0  0  0  0
  142.0010   75.1630  220.7220 C   0  0  0  0  0  0  0  0  0  0  0  0
  141.1080   75.9930  221.3680 C   0  0  0  0  0  0  0  0  0  0  0  0
  140.4780   75.4910  222.3440 O   0  0  0  0  0  0  0  0  0  0  0  0
  140.3100   78.4700  222.9850 C   0  0  0  0  0  0  0  0  0  0  0  0
  139.4870   79.2510  223.7520 C   0  0  0  0  0  0  0  0  0  0  0  0
  136.7462   83.0175  223.9890 H   0  0  0  0  0  0  0  0  0  0  0  0
  137.7546   82.4413  222.6187 H   0  0  0  0  0  0  0  0  0  0  0  0
  135.9835   82.1416  222.6187 H   0  0  0  0  0  0  0  0  0  0  0  0
  136.9739   79.6150  221.5216 H   0  0  0  0  0  0  0  0  0  0  0  0
  138.4751   78.1980  220.1446 H   0  0  0  0  0  0  0  0  0  0  0  0
  140.6494   79.3788  218.7534 H   0  0  0  0  0  0  0  0  0  0  0  0
  142.8988   80.5978  219.2677 H   0  0  0  0  0  0  0  0  0  0  0  0
  140.8282   82.1488  221.0535 H   0  0  0  0  0  0  0  0  0  0  0  0
  140.8522   82.8556  223.4410 H   0  0  0  0  0  0  0  0  0  0  0  0
  142.2889   81.5720  225.0767 H   0  0  0  0  0  0  0  0  0  0  0  0
  143.6282   79.6541  224.2297 H   0  0  0  0  0  0  0  0  0  0  0  0
  144.1924   75.2953  218.0980 H   0  0  0  0  0  0  0  0  0  0  0  0
  144.5255   72.9403  218.8369 H   0  0  0  0  0  0  0  0  0  0  0  0
  143.2721   72.0306  220.7303 H   0  0  0  0  0  0  0  0  0  0  0  0
  141.6481   73.4453  221.9556 H   0  0  0  0  0  0  0  0  0  0  0  0
  141.2705   78.1410  223.4082 H   0  0  0  0  0  0  0  0  0  0  0  0
  139.7796   79.5444  224.7710 H   0  0  0  0  0  0  0  0  0  0  0  0
  1  2  1  0
  2  3  2  0
  2  4  2  0
  2  5  1  0
  5  6  2  0
  6  7  1  0
  7  8  2  0
  8  9  1  0
  9 10  1  0
 10 11  1  0
 11 12  2  0
 12 13  1  0
 13 14  2  0
 14 15  1  0
 15 16  2  0
 16 17  1  0
 17 18  2  0
 10 19  2  0
 19 20  1  0
 20 21  2  0
 21 22  1  0
 22 23  2  0
 23 24  1  0
 24 25  2  0
 25 26  1  0
 26 27  2  0
  8 28  1  0
 28 29  2  0
 29  5  1  0
 26  9  1  0
 18 13  1  0
 25 20  1  0
  1 30  1  0
  1 31  1  0
  1 32  1  0
  6 33  1  0
  7 34  1  0
 11 35  1  0
 12 36  1  0
 14 37  1  0
 15 38  1  0
 16 39  1  0
 17 40  1  0
 21 41  1  0
 22 42  1  0
 23 43  1  0
 24 44  1  0
 28 45  1  0
 29 46  1  0
M  END
>  <smiles>  (32) 
CS(=O)(=O)c1ccc(-n2c(/C=C/c3ccccn3)nc3ccccc3c2=O)cc1

>  <score_type>  (32) 
oracle

>  <origin>  (32) 
autodockgpu

>  <m_score__min__energy>  (32) 
-8.7100000000000009

>  <m_primary>  (32) 
energy

>  <rmsd>  (32) 
7.20423635787856

>  <m_score__min__rmsd>  (32) 
7.20423635787856

>  <meeko>  (32) 
{"free_energy": -6.72, "intermolecular_energy": -8.21, "internal_energy": -2.09, "cluster_size": 15, "cluster_id": 4, "rank_in_cluster": 10}

>  <energy>  (32) 
-7.55

>  <cluster_rmsd>  (32) 
0.12

>  <cluster>  (32) 
2

$$$$

     RDKit          3D

 46 49  0  0  0  0  0  0  0  0999 V2000
  135.3980   80.1120  224.1140 C   0  0  0  0  0  0  0  0  0  0  0  0
  137.0600   80.7740  224.1050 S   0  0  0  0  0  0  0  0  0  0  0  0
  137.0640   82.1710  223.5070 O   0  0  0  0  0  0  0  0  0  0  0  0
  137.5450   80.9270  225.5220 O   0  0  0  0  0  0  0  0  0  0  0  0
  138.1280   79.7510  223.1700 C   0  0  0  0  0  0  0  0  0  0  0  0
  139.3310   79.3960  223.7440 C   0  0  0  0  0  0  0  0  0  0  0  0
  140.2440   78.5890  223.0830 C   0  0  0  0  0  0  0  0  0  0  0  0
  139.9340   78.1300  221.8140 C   0  0  0  0  0  0  0  0  0  0  0  0
  140.7860   77.3040  221.0480 N   0  0  0  0  0  0  0  0  0  0  0  0
  141.4540   77.7790  219.9800 C   0  0  0  0  0  0  0  0  0  0  0  0
  141.3150   79.1910  219.5670 C   0  0  0  0  0  0  0  0  0  0  0  0
  142.1460   80.1090  220.0320 C   0  0  0  0  0  0  0  0  0  0  0  0
  142.1770   80.5360  221.4050 C   0  0  0  0  0  0  0  0  0  0  0  0
  142.9780   79.9690  222.3480 C   0  0  0  0  0  0  0  0  0  0  0  0
  142.9850   80.4050  223.6730 C   0  0  0  0  0  0  0  0  0  0  0  0
  142.1400   81.4600  224.0320 C   0  0  0  0  0  0  0  0  0  0  0  0
  141.3390   82.0150  223.0560 C   0  0  0  0  0  0  0  0  0  0  0  0
  141.3760   81.5530  221.7990 N   0  0  0  0  0  0  0  0  0  0  0  0
  142.2570   76.9600  219.2760 N   0  0  0  0  0  0  0  0  0  0  0  0
  142.4550   75.6610  219.5620 C   0  0  0  0  0  0  0  0  0  0  0  0
  143.2920   74.8650  218.8060 C   0  0  0  0  0  0  0  0  0  0  0  0
  143.4320   73.5400  219.1800 C   0  0  0  0  0  0  0  0  0  0  0  0
  142.7700   73.0340  220.2550 C   0  0  0  0  0  0  0  0  0  0  0  0
  141.9360   73.8420  221.0050 C   0  0  0  0  0  0  0  0  0  0  0  0
  141.7710   75.1610  220.6660 C   0  0  0  0  0  0  0  0  0  0  0  0
  140.9500   76.0110  221.3790 C   0  0  0  0  0  0  0  0  0  0  0  0
  140.3480   75.5100  222.3730 O   0  0  0  0  0  0  0  0  0  0  0  0
  138.7160   78.5000  221.2520 C   0  0  0  0  0  0  0  0  0  0  0  0
  137.8130   79.2980  221.9040 C   0  0  0  0  0  0  0  0  0  0  0  0
  135.0622   79.9783  225.1529 H   0  0  0  0  0  0  0  0  0  0  0  0
  134.7226   80.8097  223.5973 H   0  0  0  0  0  0  0  0  0  0  0  0
  135.3873   79.1410  223.5973 H   0  0  0  0  0  0  0  0  0  0  0  0
  139.5722   79.7628  224.7526 H   0  0  0  0  0  0  0  0  0  0  0  0
  141.1982   78.3180  223.5584 H   0  0  0  0  0  0  0  0  0  0  0  0
  140.5158   79.4803  218.8688 H   0  0  0  0  0  0  0  0  0  0  0  0
  142.8536   80.5722  219.3286 H   0  0  0  0  0  0  0  0  0  0  0  0
  143.6407   79.1409  222.0561 H   0  0  0  0  0  0  0  0  0  0  0  0
  143.6400   79.9300  224.4183 H   0  0  0  0  0  0  0  0  0  0  0  0
  142.1149   81.8370  225.0651 H   0  0  0  0  0  0  0  0  0  0  0  0
  140.6636   82.8446  223.3120 H   0  0  0  0  0  0  0  0  0  0  0  0
  143.8294   75.2702  217.9359 H   0  0  0  0  0  0  0  0  0  0  0  0
  144.0924   72.8824  218.5957 H   0  0  0  0  0  0  0  0  0  0  0  0
  142.8989   71.9765  220.5290 H   0  0  0  0  0  0  0  0  0  0  0  0
  141.4044   73.4271  221.8741 H   0  0  0  0  0  0  0  0  0  0  0  0
  138.4681   78.1372  220.2436 H   0  0  0  0  0  0  0  0  0  0  0  0
  136.8589   79.5716  221.4299 H   0  0  0  0  0  0  0  0  0  0  0  0
  1  2  1  0
  2  3  2  0
  2  4  2  0
  2  5  1  0
  5  6  2  0
  6  7  1  0
  7  8  2  0
  8  9  1  0
  9 10  1  0
 10 11  1  0
 11 12  2  0
 12 13  1  0
 13 14  2  0
 14 15  1  0
 15 16  2  0
 16 17  1  0
 17 18  2  0
 10 19  2  0
 19 20  1  0
 20 21  2  0
 21 22  1  0
 22 23  2  0
 23 24  1  0
 24 25  2  0
 25 26  1  0
 26 27  2  0
  8 28  1  0
 28 29  2  0
 29  5  1  0
 26  9  1  0
 18 13  1  0
 25 20  1  0
  1 30  1  0
  1 31  1  0
  1 32  1  0
  6 33  1  0
  7 34  1  0
 11 35  1  0
 12 36  1  0
 14 37  1  0
 15 38  1  0
 16 39  1  0
 17 40  1  0
 21 41  1  0
 22 42  1  0
 23 43  1  0
 24 44  1  0
 28 45  1  0
 29 46  1  0
M  END
>  <smiles>  (33) 
CS(=O)(=O)c1ccc(-n2c(/C=C/c3ccccn3)nc3ccccc3c2=O)cc1

>  <score_type>  (33) 
oracle

>  <origin>  (33) 
autodockgpu

>  <m_score__min__energy>  (33) 
-8.7100000000000009

>  <m_primary>  (33) 
energy

>  <rmsd>  (33) 
7.176176038446224

>  <m_score__min__rmsd>  (33) 
7.176176038446224

>  <meeko>  (33) 
{"free_energy": -6.65, "intermolecular_energy": -8.15, "internal_energy": -2.02, "cluster_size": 15, "cluster_id": 4, "rank_in_cluster": 15}

>  <energy>  (33) 
-7.51

>  <cluster_rmsd>  (33) 
0.11

>  <cluster>  (33) 
2

$$$$

     RDKit          3D

 46 49  0  0  0  0  0  0  0  0999 V2000
  144.5550   68.3490  217.5740 C   0  0  0  0  0  0  0  0  0  0  0  0
  145.3060   69.2020  218.9560 S   0  0  0  0  0  0  0  0  0  0  0  0
  145.5720   68.2260  220.0900 O   0  0  0  0  0  0  0  0  0  0  0  0
  146.6500   69.7370  218.5420 O   0  0  0  0  0  0  0  0  0  0  0  0
  144.2600   70.4780  219.5370 C   0  0  0  0  0  0  0  0  0  0  0  0
  144.8620   71.5920  220.0840 C   0  0  0  0  0  0  0  0  0  0  0  0
  144.1190   72.6570  220.5720 C   0  0  0  0  0  0  0  0  0  0  0  0
  142.7380   72.5940  220.5050 C   0  0  0  0  0  0  0  0  0  0  0  0
  141.8820   73.6170  220.9700 N   0  0  0  0  0  0  0  0  0  0  0  0
  140.9440   73.3790  221.9050 C   0  0  0  0  0  0  0  0  0  0  0  0
  140.7740   72.0290  222.4810 C   0  0  0  0  0  0  0  0  0  0  0  0
  140.5400   71.8780  223.7740 C   0  0  0  0  0  0  0  0  0  0  0  0
  140.2410   70.6130  224.3900 C   0  0  0  0  0  0  0  0  0  0  0  0
  140.8240   70.1850  225.5430 C   0  0  0  0  0  0  0  0  0  0  0  0
  140.5140   68.9520  226.1160 C   0  0  0  0  0  0  0  0  0  0  0  0
  139.5730   68.1390  225.4780 C   0  0  0  0  0  0  0  0  0  0  0  0
  138.9990   68.5970  224.3110 C   0  0  0  0  0  0  0  0  0  0  0  0
  139.3380   69.7920  223.8080 N   0  0  0  0  0  0  0  0  0  0  0  0
  140.1480   74.3810  222.3230 N   0  0  0  0  0  0  0  0  0  0  0  0
  140.2150   75.6450  221.8660 C   0  0  0  0  0  0  0  0  0  0  0  0
  139.3730   76.6360  222.3300 C   0  0  0  0  0  0  0  0  0  0  0  0
  139.5200   77.9050  221.8000 C   0  0  0  0  0  0  0  0  0  0  0  0
  140.4600   78.1730  220.8540 C   0  0  0  0  0  0  0  0  0  0  0  0
  141.2970   77.1730  220.3990 C   0  0  0  0  0  0  0  0  0  0  0  0
  141.1830   75.9010  220.9000 C   0  0  0  0  0  0  0  0  0  0  0  0
  141.9930   74.8650  220.4800 C   0  0  0  0  0  0  0  0  0  0  0  0
  142.8570   75.1470  219.6000 O   0  0  0  0  0  0  0  0  0  0  0  0
  142.1500   71.4620  219.9490 C   0  0  0  0  0  0  0  0  0  0  0  0
  142.8830   70.4100  219.4670 C   0  0  0  0  0  0  0  0  0  0  0  0
  143.8718   67.5730  217.9495 H   0  0  0  0  0  0  0  0  0  0  0  0
  143.9916   69.0683  216.9614 H   0  0  0  0  0  0  0  0  0  0  0  0
  145.3399   67.8813  216.9614 H   0  0  0  0  0  0  0  0  0  0  0  0
  145.9599   71.6371  220.1346 H   0  0  0  0  0  0  0  0  0  0  0  0
  144.6187   73.5362  221.0047 H   0  0  0  0  0  0  0  0  0  0  0  0
  140.8425   71.1444  221.8307 H   0  0  0  0  0  0  0  0  0  0  0  0
  140.5761   72.7711  224.4151 H   0  0  0  0  0  0  0  0  0  0  0  0
  141.5629   70.8320  226.0384 H   0  0  0  0  0  0  0  0  0  0  0  0
  140.9988   68.6268  227.0484 H   0  0  0  0  0  0  0  0  0  0  0  0
  139.2976   67.1595  225.8959 H   0  0  0  0  0  0  0  0  0  0  0  0
  138.2564   67.9762  223.7884 H   0  0  0  0  0  0  0  0  0  0  0  0
  138.6115   76.4236  223.0949 H   0  0  0  0  0  0  0  0  0  0  0  0
  138.8630   78.7145  222.1508 H   0  0  0  0  0  0  0  0  0  0  0  0
  140.5540   79.1915  220.4493 H   0  0  0  0  0  0  0  0  0  0  0  0
  142.0555   77.3966  219.6344 H   0  0  0  0  0  0  0  0  0  0  0  0
  141.0526   71.4099  219.8944 H   0  0  0  0  0  0  0  0  0  0  0  0
  142.3852   69.5301  219.0335 H   0  0  0  0  0  0  0  0  0  0  0  0
  1  2  1  0
  2  3  2  0
  2  4  2  0
  2  5  1  0
  5  6  2  0
  6  7  1  0
  7  8  2  0
  8  9  1  0
  9 10  1  0
 10 11  1  0
 11 12  2  0
 12 13  1  0
 13 14  2  0
 14 15  1  0
 15 16  2  0
 16 17  1  0
 17 18  2  0
 10 19  2  0
 19 20  1  0
 20 21  2  0
 21 22  1  0
 22 23  2  0
 23 24  1  0
 24 25  2  0
 25 26  1  0
 26 27  2  0
  8 28  1  0
 28 29  2  0
 29  5  1  0
 26  9  1  0
 18 13  1  0
 25 20  1  0
  1 30  1  0
  1 31  1  0
  1 32  1  0
  6 33  1  0
  7 34  1  0
 11 35  1  0
 12 36  1  0
 14 37  1  0
 15 38  1  0
 16 39  1  0
 17 40  1  0
 21 41  1  0
 22 42  1  0
 23 43  1  0
 24 44  1  0
 28 45  1  0
 29 46  1  0
M  END
>  <smiles>  (34) 
CS(=O)(=O)c1ccc(-n2c(/C=C/c3ccccn3)nc3ccccc3c2=O)cc1

>  <score_type>  (34) 
oracle

>  <origin>  (34) 
autodockgpu

>  <m_score__min__energy>  (34) 
-8.7100000000000009

>  <m_primary>  (34) 
energy

>  <rmsd>  (34) 
5.484191806806085

>  <m_score__min__rmsd>  (34) 
5.484191806806085

>  <meeko>  (34) 
{"free_energy": -7.96, "intermolecular_energy": -9.45, "internal_energy": -0.95, "cluster_size": 30, "cluster_id": 1, "rank_in_cluster": 28}

>  <energy>  (34) 
-7.07

>  <cluster_rmsd>  (34) 
0.0

>  <cluster>  (34) 
3

$$$$

     RDKit          3D

 46 49  0  0  0  0  0  0  0  0999 V2000
  144.5500   68.0790  217.7290 C   0  0  0  0  0  0  0  0  0  0  0  0
  145.4300   69.0860  218.9170 S   0  0  0  0  0  0  0  0  0  0  0  0
  145.8980   68.2310  220.0830 O   0  0  0  0  0  0  0  0  0  0  0  0
  146.6760   69.6390  218.2800 O   0  0  0  0  0  0  0  0  0  0  0  0
  144.4010   70.3640  219.5260 C   0  0  0  0  0  0  0  0  0  0  0  0
  143.0370   70.1850  219.4210 C   0  0  0  0  0  0  0  0  0  0  0  0
  142.1400   71.1410  219.8740 C   0  0  0  0  0  0  0  0  0  0  0  0
  142.6320   72.3010  220.4470 C   0  0  0  0  0  0  0  0  0  0  0  0
  141.8130   73.3390  220.9430 N   0  0  0  0  0  0  0  0  0  0  0  0
  140.8780   73.1110  221.8830 C   0  0  0  0  0  0  0  0  0  0  0  0
  140.6730   71.7540  222.4340 C   0  0  0  0  0  0  0  0  0  0  0  0
  139.7400   71.5360  223.3450 C   0  0  0  0  0  0  0  0  0  0  0  0
  140.0200   71.1070  224.6880 C   0  0  0  0  0  0  0  0  0  0  0  0
  140.7770   71.8260  225.5620 C   0  0  0  0  0  0  0  0  0  0  0  0
  141.0320   71.3830  226.8600 C   0  0  0  0  0  0  0  0  0  0  0  0
  140.4870   70.1610  227.2660 C   0  0  0  0  0  0  0  0  0  0  0  0
  139.7250   69.4540  226.3600 C   0  0  0  0  0  0  0  0  0  0  0  0
  139.5150   69.9300  225.1260 N   0  0  0  0  0  0  0  0  0  0  0  0
  140.1170   74.1270  222.3310 N   0  0  0  0  0  0  0  0  0  0  0  0
  140.2180   75.3970  221.8990 C   0  0  0  0  0  0  0  0  0  0  0  0
  139.4110   76.4030  222.3930 C   0  0  0  0  0  0  0  0  0  0  0  0
  139.5910   77.6780  221.8870 C   0  0  0  0  0  0  0  0  0  0  0  0
  140.5280   77.9380  220.9370 C   0  0  0  0  0  0  0  0  0  0  0  0
  141.3300   76.9220  220.4520 C   0  0  0  0  0  0  0  0  0  0  0  0
  141.1830   75.6440  220.9280 C   0  0  0  0  0  0  0  0  0  0  0  0
  141.9560   74.5940  220.4780 C   0  0  0  0  0  0  0  0  0  0  0  0
  142.8190   74.8680  219.5940 O   0  0  0  0  0  0  0  0  0  0  0  0
  144.0100   72.4620  220.5440 C   0  0  0  0  0  0  0  0  0  0  0  0
  144.8980   71.5190  220.0960 C   0  0  0  0  0  0  0  0  0  0  0  0
  143.9164   67.3539  218.2608 H   0  0  0  0  0  0  0  0  0  0  0  0
  143.9199   68.7229  217.0978 H   0  0  0  0  0  0  0  0  0  0  0  0
  145.2725   67.5409  217.0978 H   0  0  0  0  0  0  0  0  0  0  0  0
  142.6511   69.2606  218.9665 H   0  0  0  0  0  0  0  0  0  0  0  0
  141.0559   70.9801  219.7795 H   0  0  0  0  0  0  0  0  0  0  0  0
  141.3005   70.9211  222.0838 H   0  0  0  0  0  0  0  0  0  0  0  0
  138.6894   71.6918  223.0588 H   0  0  0  0  0  0  0  0  0  0  0  0
  141.2009   72.7866  225.2342 H   0  0  0  0  0  0  0  0  0  0  0  0
  141.6475   71.9811  227.5481 H   0  0  0  0  0  0  0  0  0  0  0  0
  140.6614   69.7741  228.2808 H   0  0  0  0  0  0  0  0  0  0  0  0
  139.2853   68.4895  226.6537 H   0  0  0  0  0  0  0  0  0  0  0  0
  138.6516   76.1977  223.1619 H   0  0  0  0  0  0  0  0  0  0  0  0
  138.9623   78.4992  222.2615 H   0  0  0  0  0  0  0  0  0  0  0  0
  140.6485   78.9616  220.5525 H   0  0  0  0  0  0  0  0  0  0  0  0
  142.0868   77.1386  219.6836 H   0  0  0  0  0  0  0  0  0  0  0  0
  144.4031   73.3833  220.9986 H   0  0  0  0  0  0  0  0  0  0  0  0
  145.9824   71.6789  220.1885 H   0  0  0  0  0  0  0  0  0  0  0  0
  1  2  1  0
  2  3  2  0
  2  4  2  0
  2  5  1  0
  5  6  2  0
  6  7  1  0
  7  8  2  0
  8  9  1  0
  9 10  1  0
 10 11  1  0
 11 12  2  0
 12 13  1  0
 13 14  2  0
 14 15  1  0
 15 16  2  0
 16 17  1  0
 17 18  2  0
 10 19  2  0
 19 20  1  0
 20 21  2  0
 21 22  1  0
 22 23  2  0
 23 24  1  0
 24 25  2  0
 25 26  1  0
 26 27  2  0
  8 28  1  0
 28 29  2  0
 29  5  1  0
 26  9  1  0
 18 13  1  0
 25 20  1  0
  1 30  1  0
  1 31  1  0
  1 32  1  0
  6 33  1  0
  7 34  1  0
 11 35  1  0
 12 36  1  0
 14 37  1  0
 15 38  1  0
 16 39  1  0
 17 40  1  0
 21 41  1  0
 22 42  1  0
 23 43  1  0
 24 44  1  0
 28 45  1  0
 29 46  1  0
M  END
>  <smiles>  (35) 
CS(=O)(=O)c1ccc(-n2c(/C=C/c3ccccn3)nc3ccccc3c2=O)cc1

>  <score_type>  (35) 
oracle

>  <origin>  (35) 
autodockgpu

>  <m_score__min__energy>  (35) 
-8.7100000000000009

>  <m_primary>  (35) 
energy

>  <rmsd>  (35) 
5.893427194918759

>  <m_score__min__rmsd>  (35) 
5.893427194918759

>  <meeko>  (35) 
{"free_energy": -8.58, "intermolecular_energy": -10.08, "internal_energy": -1.03, "cluster_size": 30, "cluster_id": 1, "rank_in_cluster": 12}

>  <energy>  (35) 
-6.8

>  <cluster_rmsd>  (35) 
0.0

>  <cluster>  (35) 
4

$$$$

     RDKit          3D

 46 49  0  0  0  0  0  0  0  0999 V2000
  136.9200   82.3240  223.3090 C   0  0  0  0  0  0  0  0  0  0  0  0
  137.1350   80.7530  224.1380 S   0  0  0  0  0  0  0  0  0  0  0  0
  137.6730   80.9730  225.5420 O   0  0  0  0  0  0  0  0  0  0  0  0
  135.7960   80.0870  224.3040 O   0  0  0  0  0  0  0  0  0  0  0  0
  138.2510   79.7350  223.2550 C   0  0  0  0  0  0  0  0  0  0  0  0
  137.8870   79.3520  221.9800 C   0  0  0  0  0  0  0  0  0  0  0  0
  138.7040   78.5460  221.2010 C   0  0  0  0  0  0  0  0  0  0  0  0
  139.9140   78.1190  221.7210 C   0  0  0  0  0  0  0  0  0  0  0  0
  140.8230   77.2980  221.0180 N   0  0  0  0  0  0  0  0  0  0  0  0
  141.5380   77.7680  219.9790 C   0  0  0  0  0  0  0  0  0  0  0  0
  141.3940   79.1700  219.5330 C   0  0  0  0  0  0  0  0  0  0  0  0
  142.1950   80.1090  220.0070 C   0  0  0  0  0  0  0  0  0  0  0  0
  142.1930   80.5430  221.3780 C   0  0  0  0  0  0  0  0  0  0  0  0
  142.9950   80.0040  222.3360 C   0  0  0  0  0  0  0  0  0  0  0  0
  142.9690   80.4470  223.6580 C   0  0  0  0  0  0  0  0  0  0  0  0
  142.0880   81.4780  223.9990 C   0  0  0  0  0  0  0  0  0  0  0  0
  141.2870   82.0050  223.0080 C   0  0  0  0  0  0  0  0  0  0  0  0
  141.3570   81.5380  221.7540 N   0  0  0  0  0  0  0  0  0  0  0  0
  142.3950   76.9540  219.3340 N   0  0  0  0  0  0  0  0  0  0  0  0
  142.6030   75.6640  219.6550 C   0  0  0  0  0  0  0  0  0  0  0  0
  143.4950   74.8720  218.9600 C   0  0  0  0  0  0  0  0  0  0  0  0
  143.6410   73.5580  219.3660 C   0  0  0  0  0  0  0  0  0  0  0  0
  142.9310   73.0570  220.4130 C   0  0  0  0  0  0  0  0  0  0  0  0
  142.0420   73.8600  221.1010 C   0  0  0  0  0  0  0  0  0  0  0  0
  141.8690   75.1690  220.7300 C   0  0  0  0  0  0  0  0  0  0  0  0
  140.9940   76.0140  221.3810 C   0  0  0  0  0  0  0  0  0  0  0  0
  140.3490   75.5180  222.3500 O   0  0  0  0  0  0  0  0  0  0  0  0
  140.2620   78.5170  223.0070 C   0  0  0  0  0  0  0  0  0  0  0  0
  139.4560   79.3120  223.7790 C   0  0  0  0  0  0  0  0  0  0  0  0
  136.8108   83.1220  224.0582 H   0  0  0  0  0  0  0  0  0  0  0  0
  137.7984   82.5297  222.6796 H   0  0  0  0  0  0  0  0  0  0  0  0
  136.0187   82.2861  222.6796 H   0  0  0  0  0  0  0  0  0  0  0  0
  136.9249   79.6945  221.5713 H   0  0  0  0  0  0  0  0  0  0  0  0
  138.3957   78.2510  220.1871 H   0  0  0  0  0  0  0  0  0  0  0  0
  140.6154   79.4337  218.8021 H   0  0  0  0  0  0  0  0  0  0  0  0
  142.9033   80.5854  219.3132 H   0  0  0  0  0  0  0  0  0  0  0  0
  143.6853   79.1936  222.0590 H   0  0  0  0  0  0  0  0  0  0  0  0
  143.6266   79.9956  224.4155 H   0  0  0  0  0  0  0  0  0  0  0  0
  142.0354   81.8583  225.0298 H   0  0  0  0  0  0  0  0  0  0  0  0
  140.5842   82.8161  223.2491 H   0  0  0  0  0  0  0  0  0  0  0  0
  144.0701   75.2725  218.1121 H   0  0  0  0  0  0  0  0  0  0  0  0
  144.3458   72.9043  218.8313 H   0  0  0  0  0  0  0  0  0  0  0  0
  143.0655   72.0073  220.7131 H   0  0  0  0  0  0  0  0  0  0  0  0
  141.4722   73.4490  221.9474 H   0  0  0  0  0  0  0  0  0  0  0  0
  141.2235   78.1799  223.4216 H   0  0  0  0  0  0  0  0  0  0  0  0
  139.7623   79.6065  224.7936 H   0  0  0  0  0  0  0  0  0  0  0  0
  1  2  1  0
  2  3  2  0
  2  4  2  0
  2  5  1  0
  5  6  2  0
  6  7  1  0
  7  8  2  0
  8  9  1  0
  9 10  1  0
 10 11  1  0
 11 12  2  0
 12 13  1  0
 13 14  2  0
 14 15  1  0
 15 16  2  0
 16 17  1  0
 17 18  2  0
 10 19  2  0
 19 20  1  0
 20 21  2  0
 21 22  1  0
 22 23  2  0
 23 24  1  0
 24 25  2  0
 25 26  1  0
 26 27  2  0
  8 28  1  0
 28 29  2  0
 29  5  1  0
 26  9  1  0
 18 13  1  0
 25 20  1  0
  1 30  1  0
  1 31  1  0
  1 32  1  0
  6 33  1  0
  7 34  1  0
 11 35  1  0
 12 36  1  0
 14 37  1  0
 15 38  1  0
 16 39  1  0
 17 40  1  0
 21 41  1  0
 22 42  1  0
 23 43  1  0
 24 44  1  0
 28 45  1  0
 29 46  1  0
M  END
>  <smiles>  (36) 
CS(=O)(=O)c1ccc(-n2c(/C=C/c3ccccn3)nc3ccccc3c2=O)cc1

>  <score_type>  (36) 
oracle

>  <origin>  (36) 
autodockgpu

>  <m_score__min__energy>  (36) 
-8.7100000000000009

>  <m_primary>  (36) 
energy

>  <rmsd>  (36) 
7.201817334024319

>  <m_score__min__rmsd>  (36) 
7.201817334024319

>  <meeko>  (36) 
{"free_energy": -6.76, "intermolecular_energy": -8.25, "internal_energy": -2.1, "cluster_size": 15, "cluster_id": 4, "rank_in_cluster": 3}

>  <energy>  (36) 
-6.77

>  <cluster_rmsd>  (36) 
0.66

>  <cluster>  (36) 
4

$$$$

     RDKit          3D

 46 49  0  0  0  0  0  0  0  0999 V2000
  132.3860   69.2770  224.2550 C   0  0  0  0  0  0  0  0  0  0  0  0
  133.9870   68.8330  224.9180 S   0  0  0  0  0  0  0  0  0  0  0  0
  133.9710   68.9330  226.4350 O   0  0  0  0  0  0  0  0  0  0  0  0
  134.2790   67.3910  224.5990 O   0  0  0  0  0  0  0  0  0  0  0  0
  135.2310   69.8910  224.2910 C   0  0  0  0  0  0  0  0  0  0  0  0
  136.1660   69.3370  223.4410 C   0  0  0  0  0  0  0  0  0  0  0  0
  137.1910   70.0940  222.8930 C   0  0  0  0  0  0  0  0  0  0  0  0
  137.2720   71.4390  223.2100 C   0  0  0  0  0  0  0  0  0  0  0  0
  138.2700   72.3040  222.7100 N   0  0  0  0  0  0  0  0  0  0  0  0
  139.5720   72.1170  222.9980 C   0  0  0  0  0  0  0  0  0  0  0  0
  140.0040   70.9930  223.8550 C   0  0  0  0  0  0  0  0  0  0  0  0
  140.3280   71.2010  225.1200 C   0  0  0  0  0  0  0  0  0  0  0  0
  140.3770   70.1640  226.1140 C   0  0  0  0  0  0  0  0  0  0  0  0
  139.9370   68.8940  225.8940 C   0  0  0  0  0  0  0  0  0  0  0  0
  139.9960   67.9090  226.8790 C   0  0  0  0  0  0  0  0  0  0  0  0
  140.5270   68.2460  228.1280 C   0  0  0  0  0  0  0  0  0  0  0  0
  140.9640   69.5390  228.3230 C   0  0  0  0  0  0  0  0  0  0  0  0
  140.8810   70.4430  227.3380 N   0  0  0  0  0  0  0  0  0  0  0  0
  140.4950   72.9630  222.5030 N   0  0  0  0  0  0  0  0  0  0  0  0
  140.2130   74.0170  221.7160 C   0  0  0  0  0  0  0  0  0  0  0  0
  141.1990   74.8540  221.2340 C   0  0  0  0  0  0  0  0  0  0  0  0
  140.8100   75.9110  220.4310 C   0  0  0  0  0  0  0  0  0  0  0  0
  139.5020   76.1240  220.1240 C   0  0  0  0  0  0  0  0  0  0  0  0
  138.5240   75.2780  220.6120 C   0  0  0  0  0  0  0  0  0  0  0  0
  138.8700   74.2180  221.4110 C   0  0  0  0  0  0  0  0  0  0  0  0
  137.9340   73.3440  221.9260 C   0  0  0  0  0  0  0  0  0  0  0  0
  136.7270   73.5680  221.6210 O   0  0  0  0  0  0  0  0  0  0  0  0
  136.3190   71.9780  224.0680 C   0  0  0  0  0  0  0  0  0  0  0  0
  135.3070   71.2320  224.6120 C   0  0  0  0  0  0  0  0  0  0  0  0
  131.6874   69.4707  225.0823 H   0  0  0  0  0  0  0  0  0  0  0  0
  132.4831   70.1821  223.6375 H   0  0  0  0  0  0  0  0  0  0  0  0
  132.0030   68.4512  223.6375 H   0  0  0  0  0  0  0  0  0  0  0  0
  136.0968   68.2679  223.1916 H   0  0  0  0  0  0  0  0  0  0  0  0
  137.9271   69.6332  222.2179 H   0  0  0  0  0  0  0  0  0  0  0  0
  140.0563   69.9766  223.4377 H   0  0  0  0  0  0  0  0  0  0  0  0
  140.5744   72.2274  225.4296 H   0  0  0  0  0  0  0  0  0  0  0  0
  139.5220   68.6373  224.9082 H   0  0  0  0  0  0  0  0  0  0  0  0
  139.6332   66.8901  226.6782 H   0  0  0  0  0  0  0  0  0  0  0  0
  140.5942   67.4996  228.9332 H   0  0  0  0  0  0  0  0  0  0  0  0
  141.3848   69.8310  229.2965 H   0  0  0  0  0  0  0  0  0  0  0  0
  142.2579   74.6862  221.4800 H   0  0  0  0  0  0  0  0  0  0  0  0
  141.5746   76.5939  220.0322 H   0  0  0  0  0  0  0  0  0  0  0  0
  139.2213   76.9737  219.4842 H   0  0  0  0  0  0  0  0  0  0  0  0
  137.4680   75.4547  220.3596 H   0  0  0  0  0  0  0  0  0  0  0  0
  136.3805   73.0470  224.3200 H   0  0  0  0  0  0  0  0  0  0  0  0
  134.5715   71.6908  225.2892 H   0  0  0  0  0  0  0  0  0  0  0  0
  1  2  1  0
  2  3  2  0
  2  4  2  0
  2  5  1  0
  5  6  2  0
  6  7  1  0
  7  8  2  0
  8  9  1  0
  9 10  1  0
 10 11  1  0
 11 12  2  0
 12 13  1  0
 13 14  2  0
 14 15  1  0
 15 16  2  0
 16 17  1  0
 17 18  2  0
 10 19  2  0
 19 20  1  0
 20 21  2  0
 21 22  1  0
 22 23  2  0
 23 24  1  0
 24 25  2  0
 25 26  1  0
 26 27  2  0
  8 28  1  0
 28 29  2  0
 29  5  1  0
 26  9  1  0
 18 13  1  0
 25 20  1  0
  1 30  1  0
  1 31  1  0
  1 32  1  0
  6 33  1  0
  7 34  1  0
 11 35  1  0
 12 36  1  0
 14 37  1  0
 15 38  1  0
 16 39  1  0
 17 40  1  0
 21 41  1  0
 22 42  1  0
 23 43  1  0
 24 44  1  0
 28 45  1  0
 29 46  1  0
M  END
>  <smiles>  (37) 
CS(=O)(=O)c1ccc(-n2c(/C=C/c3ccccn3)nc3ccccc3c2=O)cc1

>  <score_type>  (37) 
oracle

>  <origin>  (37) 
autodockgpu

>  <m_score__min__energy>  (37) 
-8.7100000000000009

>  <m_primary>  (37) 
energy

>  <rmsd>  (37) 
8.012784075407463

>  <m_score__min__rmsd>  (37) 
8.012784075407463

>  <meeko>  (37) 
{"free_energy": -7.56, "intermolecular_energy": -9.05, "internal_energy": -1.31, "cluster_size": 3, "cluster_id": 2, "rank_in_cluster": 1}

>  <energy>  (37) 
-6.76

>  <cluster_rmsd>  (37) 
0.1

>  <cluster>  (37) 
4

$$$$

     RDKit          3D

 46 49  0  0  0  0  0  0  0  0999 V2000
  132.3940   69.2930  224.2420 C   0  0  0  0  0  0  0  0  0  0  0  0
  133.9880   68.8470  224.9210 S   0  0  0  0  0  0  0  0  0  0  0  0
  133.9600   68.9550  226.4360 O   0  0  0  0  0  0  0  0  0  0  0  0
  134.2770   67.4030  224.6120 O   0  0  0  0  0  0  0  0  0  0  0  0
  135.2410   69.8970  224.2990 C   0  0  0  0  0  0  0  0  0  0  0  0
  136.1680   69.3410  223.4410 C   0  0  0  0  0  0  0  0  0  0  0  0
  137.1980   70.0920  222.8960 C   0  0  0  0  0  0  0  0  0  0  0  0
  137.2930   71.4340  223.2230 C   0  0  0  0  0  0  0  0  0  0  0  0
  138.2990   72.2930  222.7280 N   0  0  0  0  0  0  0  0  0  0  0  0
  139.5940   72.1230  223.0560 C   0  0  0  0  0  0  0  0  0  0  0  0
  140.0100   71.0250  223.9530 C   0  0  0  0  0  0  0  0  0  0  0  0
  139.9830   71.1870  225.2660 C   0  0  0  0  0  0  0  0  0  0  0  0
  140.2090   70.1240  226.2060 C   0  0  0  0  0  0  0  0  0  0  0  0
  139.8520   68.8300  225.9760 C   0  0  0  0  0  0  0  0  0  0  0  0
  140.0830   67.8210  226.9090 C   0  0  0  0  0  0  0  0  0  0  0  0
  140.7040   68.1580  228.1160 C   0  0  0  0  0  0  0  0  0  0  0  0
  141.0550   69.4750  228.3230 C   0  0  0  0  0  0  0  0  0  0  0  0
  140.8060   70.4020  227.3880 N   0  0  0  0  0  0  0  0  0  0  0  0
  140.5240   72.9620  222.5630 N   0  0  0  0  0  0  0  0  0  0  0  0
  140.2560   73.9930  221.7410 C   0  0  0  0  0  0  0  0  0  0  0  0
  141.2490   74.8250  221.2640 C   0  0  0  0  0  0  0  0  0  0  0  0
  140.8750   75.8570  220.4220 C   0  0  0  0  0  0  0  0  0  0  0  0
  139.5740   76.0520  220.0740 C   0  0  0  0  0  0  0  0  0  0  0  0
  138.5900   75.2110  220.5580 C   0  0  0  0  0  0  0  0  0  0  0  0
  138.9200   74.1760  221.3950 C   0  0  0  0  0  0  0  0  0  0  0  0
  137.9770   73.3090  221.9070 C   0  0  0  0  0  0  0  0  0  0  0  0
  136.7770   73.5160  221.5650 O   0  0  0  0  0  0  0  0  0  0  0  0
  136.3490   71.9750  224.0890 C   0  0  0  0  0  0  0  0  0  0  0  0
  135.3310   71.2350  224.6290 C   0  0  0  0  0  0  0  0  0  0  0  0
  131.6883   69.4905  225.0623 H   0  0  0  0  0  0  0  0  0  0  0  0
  132.4988   70.1963  223.6231 H   0  0  0  0  0  0  0  0  0  0  0  0
  132.0148   68.4665  223.6231 H   0  0  0  0  0  0  0  0  0  0  0  0
  136.0876   68.2747  223.1830 H   0  0  0  0  0  0  0  0  0  0  0  0
  137.9276   69.6294  222.2151 H   0  0  0  0  0  0  0  0  0  0  0  0
  140.3440   70.0675  223.5269 H   0  0  0  0  0  0  0  0  0  0  0  0
  139.7757   72.1927  225.6604 H   0  0  0  0  0  0  0  0  0  0  0  0
  139.3658   68.5731  225.0233 H   0  0  0  0  0  0  0  0  0  0  0  0
  139.7837   66.7831  226.7009 H   0  0  0  0  0  0  0  0  0  0  0  0
  140.9069   67.3927  228.8797 H   0  0  0  0  0  0  0  0  0  0  0  0
  141.5438   69.7675  229.2640 H   0  0  0  0  0  0  0  0  0  0  0  0
  142.3018   74.6726  221.5439 H   0  0  0  0  0  0  0  0  0  0  0  0
  141.6457   76.5343  220.0254 H   0  0  0  0  0  0  0  0  0  0  0  0
  139.3045   76.8824  219.4048 H   0  0  0  0  0  0  0  0  0  0  0  0
  137.5403   75.3720  220.2714 H   0  0  0  0  0  0  0  0  0  0  0  0
  136.4230   73.0408  224.3510 H   0  0  0  0  0  0  0  0  0  0  0  0
  134.6011   71.6962  225.3106 H   0  0  0  0  0  0  0  0  0  0  0  0
  1  2  1  0
  2  3  2  0
  2  4  2  0
  2  5  1  0
  5  6  2  0
  6  7  1  0
  7  8  2  0
  8  9  1  0
  9 10  1  0
 10 11  1  0
 11 12  2  0
 12 13  1  0
 13 14  2  0
 14 15  1  0
 15 16  2  0
 16 17  1  0
 17 18  2  0
 10 19  2  0
 19 20  1  0
 20 21  2  0
 21 22  1  0
 22 23  2  0
 23 24  1  0
 24 25  2  0
 25 26  1  0
 26 27  2  0
  8 28  1  0
 28 29  2  0
 29  5  1  0
 26  9  1  0
 18 13  1  0
 25 20  1  0
  1 30  1  0
  1 31  1  0
  1 32  1  0
  6 33  1  0
  7 34  1  0
 11 35  1  0
 12 36  1  0
 14 37  1  0
 15 38  1  0
 16 39  1  0
 17 40  1  0
 21 41  1  0
 22 42  1  0
 23 43  1  0
 24 44  1  0
 28 45  1  0
 29 46  1  0
M  END
>  <smiles>  (38) 
CS(=O)(=O)c1ccc(-n2c(/C=C/c3ccccn3)nc3ccccc3c2=O)cc1

>  <score_type>  (38) 
oracle

>  <origin>  (38) 
autodockgpu

>  <m_score__min__energy>  (38) 
-8.7100000000000009

>  <m_primary>  (38) 
energy

>  <rmsd>  (38) 
8.029832532601985

>  <m_score__min__rmsd>  (38) 
8.029832532601985

>  <meeko>  (38) 
{"free_energy": -7.51, "intermolecular_energy": -9.01, "internal_energy": -1.33, "cluster_size": 3, "cluster_id": 2, "rank_in_cluster": 3}

>  <energy>  (38) 
-6.75

>  <cluster_rmsd>  (38) 
0.12

>  <cluster>  (38) 
4

$$$$

     RDKit          3D

 46 49  0  0  0  0  0  0  0  0999 V2000
  136.6250   82.0440  223.1520 C   0  0  0  0  0  0  0  0  0  0  0  0
  137.0040   80.5560  224.0710 S   0  0  0  0  0  0  0  0  0  0  0  0
  137.5720   80.9140  225.4340 O   0  0  0  0  0  0  0  0  0  0  0  0
  135.7340   79.7940  224.3360 O   0  0  0  0  0  0  0  0  0  0  0  0
  138.1690   79.5770  223.2090 C   0  0  0  0  0  0  0  0  0  0  0  0
  137.8150   79.1270  221.9530 C   0  0  0  0  0  0  0  0  0  0  0  0
  138.6700   78.3450  221.1920 C   0  0  0  0  0  0  0  0  0  0  0  0
  139.9100   78.0110  221.7090 C   0  0  0  0  0  0  0  0  0  0  0  0
  140.8600   77.2220  221.0240 N   0  0  0  0  0  0  0  0  0  0  0  0
  141.5850   77.7200  220.0040 C   0  0  0  0  0  0  0  0  0  0  0  0
  141.4100   79.1200  219.5630 C   0  0  0  0  0  0  0  0  0  0  0  0
  142.1980   80.0730  220.0320 C   0  0  0  0  0  0  0  0  0  0  0  0
  142.1750   80.5300  221.3950 C   0  0  0  0  0  0  0  0  0  0  0  0
  143.0070   80.0500  222.3600 C   0  0  0  0  0  0  0  0  0  0  0  0
  142.9610   80.5130  223.6740 C   0  0  0  0  0  0  0  0  0  0  0  0
  142.0270   81.5020  224.0000 C   0  0  0  0  0  0  0  0  0  0  0  0
  141.1970   81.9680  223.0040 C   0  0  0  0  0  0  0  0  0  0  0  0
  141.2880   81.4850  221.7580 N   0  0  0  0  0  0  0  0  0  0  0  0
  142.4800   76.9360  219.3760 N   0  0  0  0  0  0  0  0  0  0  0  0
  142.7190   75.6510  219.6930 C   0  0  0  0  0  0  0  0  0  0  0  0
  143.6510   74.8910  219.0150 C   0  0  0  0  0  0  0  0  0  0  0  0
  143.8260   73.5780  219.4170 C   0  0  0  0  0  0  0  0  0  0  0  0
  143.1080   73.0500  220.4430 C   0  0  0  0  0  0  0  0  0  0  0  0
  142.1790   73.8210  221.1150 C   0  0  0  0  0  0  0  0  0  0  0  0
  141.9760   75.1270  220.7470 C   0  0  0  0  0  0  0  0  0  0  0  0
  141.0610   75.9410  221.3830 C   0  0  0  0  0  0  0  0  0  0  0  0
  140.4080   75.4200  222.3340 O   0  0  0  0  0  0  0  0  0  0  0  0
  140.2480   78.4750  222.9770 C   0  0  0  0  0  0  0  0  0  0  0  0
  139.4040   79.2470  223.7310 C   0  0  0  0  0  0  0  0  0  0  0  0
  136.4159   82.8650  223.8536 H   0  0  0  0  0  0  0  0  0  0  0  0
  137.4834   82.3125  222.5187 H   0  0  0  0  0  0  0  0  0  0  0  0
  135.7427   81.8691  222.5187 H   0  0  0  0  0  0  0  0  0  0  0  0
  136.8292   79.3958  221.5455 H   0  0  0  0  0  0  0  0  0  0  0  0
  138.3681   77.9956  220.1936 H   0  0  0  0  0  0  0  0  0  0  0  0
  140.6195   79.3707  218.8403 H   0  0  0  0  0  0  0  0  0  0  0  0
  142.9119   80.5429  219.3396 H   0  0  0  0  0  0  0  0  0  0  0  0
  143.7384   79.2725  222.0944 H   0  0  0  0  0  0  0  0  0  0  0  0
  143.6433   80.1100  224.4369 H   0  0  0  0  0  0  0  0  0  0  0  0
  141.9571   81.8971  225.0242 H   0  0  0  0  0  0  0  0  0  0  0  0
  140.4524   82.7442  223.2343 H   0  0  0  0  0  0  0  0  0  0  0  0
  144.2344   75.3142  218.1840 H   0  0  0  0  0  0  0  0  0  0  0  0
  144.5618   72.9487  218.8950 H   0  0  0  0  0  0  0  0  0  0  0  0
  143.2673   72.0029  220.7401 H   0  0  0  0  0  0  0  0  0  0  0  0
  141.6020   73.3876  221.9452 H   0  0  0  0  0  0  0  0  0  0  0  0
  141.2326   78.2111  223.3904 H   0  0  0  0  0  0  0  0  0  0  0  0
  139.7036   79.5962  224.7302 H   0  0  0  0  0  0  0  0  0  0  0  0
  1  2  1  0
  2  3  2  0
  2  4  2  0
  2  5  1  0
  5  6  2  0
  6  7  1  0
  7  8  2  0
  8  9  1  0
  9 10  1  0
 10 11  1  0
 11 12  2  0
 12 13  1  0
 13 14  2  0
 14 15  1  0
 15 16  2  0
 16 17  1  0
 17 18  2  0
 10 19  2  0
 19 20  1  0
 20 21  2  0
 21 22  1  0
 22 23  2  0
 23 24  1  0
 24 25  2  0
 25 26  1  0
 26 27  2  0
  8 28  1  0
 28 29  2  0
 29  5  1  0
 26  9  1  0
 18 13  1  0
 25 20  1  0
  1 30  1  0
  1 31  1  0
  1 32  1  0
  6 33  1  0
  7 34  1  0
 11 35  1  0
 12 36  1  0
 14 37  1  0
 15 38  1  0
 16 39  1  0
 17 40  1  0
 21 41  1  0
 22 42  1  0
 23 43  1  0
 24 44  1  0
 28 45  1  0
 29 46  1  0
M  END
>  <smiles>  (39) 
CS(=O)(=O)c1ccc(-n2c(/C=C/c3ccccn3)nc3ccccc3c2=O)cc1

>  <score_type>  (39) 
oracle

>  <origin>  (39) 
autodockgpu

>  <m_score__min__energy>  (39) 
-8.7100000000000009

>  <m_primary>  (39) 
energy

>  <rmsd>  (39) 
7.213395712917625

>  <m_score__min__rmsd>  (39) 
7.213395712917625

>  <meeko>  (39) 
{"free_energy": -6.73, "intermolecular_energy": -8.22, "internal_energy": -2.1, "cluster_size": 15, "cluster_id": 4, "rank_in_cluster": 7}

>  <energy>  (39) 
-6.74

>  <cluster_rmsd>  (39) 
0.16

>  <cluster>  (39) 
4

$$$$

     RDKit          3D

 46 49  0  0  0  0  0  0  0  0999 V2000
  135.5640   80.2080  224.1180 C   0  0  0  0  0  0  0  0  0  0  0  0
  137.2440   80.8150  224.2070 S   0  0  0  0  0  0  0  0  0  0  0  0
  137.3240   82.2200  223.6330 O   0  0  0  0  0  0  0  0  0  0  0  0
  137.6590   80.9310  225.6490 O   0  0  0  0  0  0  0  0  0  0  0  0
  138.3270   79.7730  223.3110 C   0  0  0  0  0  0  0  0  0  0  0  0
  137.9510   79.4160  222.0330 C   0  0  0  0  0  0  0  0  0  0  0  0
  138.7410   78.5930  221.2440 C   0  0  0  0  0  0  0  0  0  0  0  0
  139.9370   78.1230  221.7580 C   0  0  0  0  0  0  0  0  0  0  0  0
  140.8200   77.2810  221.0460 N   0  0  0  0  0  0  0  0  0  0  0  0
  141.5150   77.7280  219.9830 C   0  0  0  0  0  0  0  0  0  0  0  0
  141.3780   79.1250  219.5210 C   0  0  0  0  0  0  0  0  0  0  0  0
  142.1850   80.0660  219.9830 C   0  0  0  0  0  0  0  0  0  0  0  0
  142.1770   80.5280  221.3440 C   0  0  0  0  0  0  0  0  0  0  0  0
  141.4250   81.5780  221.7750 C   0  0  0  0  0  0  0  0  0  0  0  0
  141.4390   82.0040  223.1020 C   0  0  0  0  0  0  0  0  0  0  0  0
  142.2540   81.3230  224.0120 C   0  0  0  0  0  0  0  0  0  0  0  0
  143.0050   80.2640  223.5490 C   0  0  0  0  0  0  0  0  0  0  0  0
  142.9500   79.9010  222.2610 N   0  0  0  0  0  0  0  0  0  0  0  0
  142.3470   76.8960  219.3300 N   0  0  0  0  0  0  0  0  0  0  0  0
  142.5470   75.6080  219.6640 C   0  0  0  0  0  0  0  0  0  0  0  0
  143.4140   74.7960  218.9590 C   0  0  0  0  0  0  0  0  0  0  0  0
  143.5540   73.4850  219.3790 C   0  0  0  0  0  0  0  0  0  0  0  0
  142.8630   73.0070  220.4490 C   0  0  0  0  0  0  0  0  0  0  0  0
  142.0000   73.8300  221.1470 C   0  0  0  0  0  0  0  0  0  0  0  0
  141.8340   75.1360  220.7620 C   0  0  0  0  0  0  0  0  0  0  0  0
  140.9840   76.0000  221.4220 C   0  0  0  0  0  0  0  0  0  0  0  0
  140.3570   75.5250  222.4130 O   0  0  0  0  0  0  0  0  0  0  0  0
  140.2980   78.4950  223.0490 C   0  0  0  0  0  0  0  0  0  0  0  0
  139.5180   79.3060  223.8300 C   0  0  0  0  0  0  0  0  0  0  0  0
  135.1710   80.0660  225.1356 H   0  0  0  0  0  0  0  0  0  0  0  0
  134.9386   80.9370  223.5818 H   0  0  0  0  0  0  0  0  0  0  0  0
  135.5490   79.2476  223.5818 H   0  0  0  0  0  0  0  0  0  0  0  0
  137.0001   79.7937  221.6290 H   0  0  0  0  0  0  0  0  0  0  0  0
  138.4225   78.3187  220.2275 H   0  0  0  0  0  0  0  0  0  0  0  0
  140.5998   79.3842  218.7880 H   0  0  0  0  0  0  0  0  0  0  0  0
  142.9035   80.5211  219.2854 H   0  0  0  0  0  0  0  0  0  0  0  0
  140.7859   82.1071  221.0527 H   0  0  0  0  0  0  0  0  0  0  0  0
  140.8233   82.8560  223.4261 H   0  0  0  0  0  0  0  0  0  0  0  0
  142.2946   81.6245  225.0691 H   0  0  0  0  0  0  0  0  0  0  0  0
  143.6553   79.7121  224.2436 H   0  0  0  0  0  0  0  0  0  0  0  0
  143.9741   75.1786  218.0931 H   0  0  0  0  0  0  0  0  0  0  0  0
  144.2380   72.8156  218.8366 H   0  0  0  0  0  0  0  0  0  0  0  0
  142.9920   71.9598  220.7601 H   0  0  0  0  0  0  0  0  0  0  0  0
  141.4456   73.4375  222.0122 H   0  0  0  0  0  0  0  0  0  0  0  0
  141.2484   78.1228  223.4592 H   0  0  0  0  0  0  0  0  0  0  0  0
  139.8335   79.5791  224.8478 H   0  0  0  0  0  0  0  0  0  0  0  0
  1  2  1  0
  2  3  2  0
  2  4  2  0
  2  5  1  0
  5  6  2  0
  6  7  1  0
  7  8  2  0
  8  9  1  0
  9 10  1  0
 10 11  1  0
 11 12  2  0
 12 13  1  0
 13 14  2  0
 14 15  1  0
 15 16  2  0
 16 17  1  0
 17 18  2  0
 10 19  2  0
 19 20  1  0
 20 21  2  0
 21 22  1  0
 22 23  2  0
 23 24  1  0
 24 25  2  0
 25 26  1  0
 26 27  2  0
  8 28  1  0
 28 29  2  0
 29  5  1  0
 26  9  1  0
 18 13  1  0
 25 20  1  0
  1 30  1  0
  1 31  1  0
  1 32  1  0
  6 33  1  0
  7 34  1  0
 11 35  1  0
 12 36  1  0
 14 37  1  0
 15 38  1  0
 16 39  1  0
 17 40  1  0
 21 41  1  0
 22 42  1  0
 23 43  1  0
 24 44  1  0
 28 45  1  0
 29 46  1  0
M  END
>  <smiles>  (40) 
CS(=O)(=O)c1ccc(-n2c(/C=C/c3ccccn3)nc3ccccc3c2=O)cc1

>  <score_type>  (40) 
oracle

>  <origin>  (40) 
autodockgpu

>  <m_score__min__energy>  (40) 
-8.7100000000000009

>  <m_primary>  (40) 
energy

>  <rmsd>  (40) 
7.224867561264133

>  <m_score__min__rmsd>  (40) 
7.224867561264133

>  <meeko>  (40) 
{"free_energy": -6.69, "intermolecular_energy": -8.18, "internal_energy": -2.1, "cluster_size": 15, "cluster_id": 4, "rank_in_cluster": 13}

>  <energy>  (40) 
-6.73

>  <cluster_rmsd>  (40) 
0.17

>  <cluster>  (40) 
4

$$$$

     RDKit          3D

 46 49  0  0  0  0  0  0  0  0999 V2000
  145.2330   68.2110  218.9630 C   0  0  0  0  0  0  0  0  0  0  0  0
  145.8360   69.8930  218.8930 S   0  0  0  0  0  0  0  0  0  0  0  0
  147.1100   70.0260  219.7110 O   0  0  0  0  0  0  0  0  0  0  0  0
  146.2150   70.2310  217.4760 O   0  0  0  0  0  0  0  0  0  0  0  0
  144.6400   71.0060  219.5180 C   0  0  0  0  0  0  0  0  0  0  0  0
  145.0900   72.0460  220.3050 C   0  0  0  0  0  0  0  0  0  0  0  0
  144.2200   72.9800  220.8470 C   0  0  0  0  0  0  0  0  0  0  0  0
  142.8650   72.8600  220.5860 C   0  0  0  0  0  0  0  0  0  0  0  0
  141.8900   73.7520  221.0850 N   0  0  0  0  0  0  0  0  0  0  0  0
  140.8950   73.3300  221.8870 C   0  0  0  0  0  0  0  0  0  0  0  0
  140.7880   71.9090  222.2780 C   0  0  0  0  0  0  0  0  0  0  0  0
  139.8760   71.5220  223.1540 C   0  0  0  0  0  0  0  0  0  0  0  0
  140.1860   71.0730  224.4840 C   0  0  0  0  0  0  0  0  0  0  0  0
  140.7590   71.8680  225.4290 C   0  0  0  0  0  0  0  0  0  0  0  0
  141.0490   71.4030  226.7110 C   0  0  0  0  0  0  0  0  0  0  0  0
  140.7360   70.0760  227.0260 C   0  0  0  0  0  0  0  0  0  0  0  0
  140.1570   69.2940  226.0490 C   0  0  0  0  0  0  0  0  0  0  0  0
  139.9020   69.7970  224.8340 N   0  0  0  0  0  0  0  0  0  0  0  0
  139.9840   74.2100  222.3420 N   0  0  0  0  0  0  0  0  0  0  0  0
  139.9860   75.5240  222.0500 C   0  0  0  0  0  0  0  0  0  0  0  0
  139.0260   76.3840  222.5440 C   0  0  0  0  0  0  0  0  0  0  0  0
  139.1130   77.7180  222.1880 C   0  0  0  0  0  0  0  0  0  0  0  0
  140.1070   78.1720  221.3780 C   0  0  0  0  0  0  0  0  0  0  0  0
  141.0630   77.3000  220.8910 C   0  0  0  0  0  0  0  0  0  0  0  0
  141.0110   75.9700  221.2210 C   0  0  0  0  0  0  0  0  0  0  0  0
  141.9380   75.0570  220.7620 C   0  0  0  0  0  0  0  0  0  0  0  0
  142.8510   75.5100  220.0110 O   0  0  0  0  0  0  0  0  0  0  0  0
  142.4320   71.8050  219.7910 C   0  0  0  0  0  0  0  0  0  0  0  0
  143.2900   70.8820  219.2550 C   0  0  0  0  0  0  0  0  0  0  0  0
  145.1231   67.9043  220.0136 H   0  0  0  0  0  0  0  0  0  0  0  0
  144.2571   68.1501  218.4592 H   0  0  0  0  0  0  0  0  0  0  0  0
  145.9480   67.5439  218.4592 H   0  0  0  0  0  0  0  0  0  0  0  0
  146.1673   72.1367  220.5079 H   0  0  0  0  0  0  0  0  0  0  0  0
  144.5991   73.8013  221.4729 H   0  0  0  0  0  0  0  0  0  0  0  0
  141.4715   71.1682  221.8375 H   0  0  0  0  0  0  0  0  0  0  0  0
  138.8198   71.5450  222.8474 H   0  0  0  0  0  0  0  0  0  0  0  0
  141.0008   72.9101  225.1730 H   0  0  0  0  0  0  0  0  0  0  0  0
  141.5132   72.0641  227.4577 H   0  0  0  0  0  0  0  0  0  0  0  0
  140.9461   69.6679  228.0256 H   0  0  0  0  0  0  0  0  0  0  0  0
  139.9020   68.2469  226.2695 H   0  0  0  0  0  0  0  0  0  0  0  0
  138.2196   76.0212  223.1982 H   0  0  0  0  0  0  0  0  0  0  0  0
  138.3624   78.4266  222.5681 H   0  0  0  0  0  0  0  0  0  0  0  0
  140.1504   79.2378  221.1092 H   0  0  0  0  0  0  0  0  0  0  0  0
  141.8659   77.6734  220.2384 H   0  0  0  0  0  0  0  0  0  0  0  0
  141.3561   71.7076  219.5840 H   0  0  0  0  0  0  0  0  0  0  0  0
  142.9123   70.0602  218.6290 H   0  0  0  0  0  0  0  0  0  0  0  0
  1  2  1  0
  2  3  2  0
  2  4  2  0
  2  5  1  0
  5  6  2  0
  6  7  1  0
  7  8  2  0
  8  9  1  0
  9 10  1  0
 10 11  1  0
 11 12  2  0
 12 13  1  0
 13 14  2  0
 14 15  1  0
 15 16  2  0
 16 17  1  0
 17 18  2  0
 10 19  2  0
 19 20  1  0
 20 21  2  0
 21 22  1  0
 22 23  2  0
 23 24  1  0
 24 25  2  0
 25 26  1  0
 26 27  2  0
  8 28  1  0
 28 29  2  0
 29  5  1  0
 26  9  1  0
 18 13  1  0
 25 20  1  0
  1 30  1  0
  1 31  1  0
  1 32  1  0
  6 33  1  0
  7 34  1  0
 11 35  1  0
 12 36  1  0
 14 37  1  0
 15 38  1  0
 16 39  1  0
 17 40  1  0
 21 41  1  0
 22 42  1  0
 23 43  1  0
 24 44  1  0
 28 45  1  0
 29 46  1  0
M  END
>  <smiles>  (41) 
CS(=O)(=O)c1ccc(-n2c(/C=C/c3ccccn3)nc3ccccc3c2=O)cc1

>  <score_type>  (41) 
oracle

>  <origin>  (41) 
autodockgpu

>  <m_score__min__energy>  (41) 
-8.7100000000000009

>  <m_primary>  (41) 
energy

>  <rmsd>  (41) 
5.449475064419808

>  <m_score__min__rmsd>  (41) 
5.449475064419808

>  <meeko>  (41) 
{"free_energy": -8.05, "intermolecular_energy": -9.55, "internal_energy": -1.07, "cluster_size": 30, "cluster_id": 1, "rank_in_cluster": 25}

>  <energy>  (41) 
-6.73

>  <cluster_rmsd>  (41) 
0.21

>  <cluster>  (41) 
4

$$$$

     RDKit          3D

 46 49  0  0  0  0  0  0  0  0999 V2000
  135.5000   79.9510  224.0840 C   0  0  0  0  0  0  0  0  0  0  0  0
  137.1360   80.6750  224.0970 S   0  0  0  0  0  0  0  0  0  0  0  0
  137.1030   82.0530  223.4560 O   0  0  0  0  0  0  0  0  0  0  0  0
  137.5790   80.8880  225.5190 O   0  0  0  0  0  0  0  0  0  0  0  0
  138.2660   79.6670  223.2200 C   0  0  0  0  0  0  0  0  0  0  0  0
  137.9050   79.2670  221.9490 C   0  0  0  0  0  0  0  0  0  0  0  0
  138.7330   78.4670  221.1750 C   0  0  0  0  0  0  0  0  0  0  0  0
  139.9500   78.0640  221.6960 C   0  0  0  0  0  0  0  0  0  0  0  0
  140.8710   77.2510  220.9990 N   0  0  0  0  0  0  0  0  0  0  0  0
  141.5790   77.7240  219.9560 C   0  0  0  0  0  0  0  0  0  0  0  0
  141.4160   79.1200  219.5010 C   0  0  0  0  0  0  0  0  0  0  0  0
  142.2030   80.0740  219.9700 C   0  0  0  0  0  0  0  0  0  0  0  0
  142.1890   80.5220  221.3350 C   0  0  0  0  0  0  0  0  0  0  0  0
  141.4460   81.5770  221.7700 C   0  0  0  0  0  0  0  0  0  0  0  0
  141.4540   81.9900  223.1020 C   0  0  0  0  0  0  0  0  0  0  0  0
  142.2520   81.2890  224.0120 C   0  0  0  0  0  0  0  0  0  0  0  0
  142.9930   80.2250  223.5440 C   0  0  0  0  0  0  0  0  0  0  0  0
  142.9450   79.8760  222.2520 N   0  0  0  0  0  0  0  0  0  0  0  0
  142.4470   76.9180  219.3160 N   0  0  0  0  0  0  0  0  0  0  0  0
  142.6730   75.6330  219.6460 C   0  0  0  0  0  0  0  0  0  0  0  0
  143.5760   74.8490  218.9560 C   0  0  0  0  0  0  0  0  0  0  0  0
  143.7400   73.5390  219.3700 C   0  0  0  0  0  0  0  0  0  0  0  0
  143.0380   73.0360  220.4200 C   0  0  0  0  0  0  0  0  0  0  0  0
  142.1370   73.8310  221.1040 C   0  0  0  0  0  0  0  0  0  0  0  0
  141.9460   75.1350  220.7240 C   0  0  0  0  0  0  0  0  0  0  0  0
  141.0600   75.9720  221.3700 C   0  0  0  0  0  0  0  0  0  0  0  0
  140.4220   75.4730  222.3420 O   0  0  0  0  0  0  0  0  0  0  0  0
  140.2950   78.4780  222.9780 C   0  0  0  0  0  0  0  0  0  0  0  0
  139.4780   79.2670  223.7450 C   0  0  0  0  0  0  0  0  0  0  0  0
  135.1578   79.7996  225.1184 H   0  0  0  0  0  0  0  0  0  0  0  0
  134.8047   80.6255  223.5628 H   0  0  0  0  0  0  0  0  0  0  0  0
  135.5316   78.9828  223.5628 H   0  0  0  0  0  0  0  0  0  0  0  0
  136.9366   79.5907  221.5397 H   0  0  0  0  0  0  0  0  0  0  0  0
  138.4273   78.1583  220.1644 H   0  0  0  0  0  0  0  0  0  0  0  0
  140.6348   79.3677  218.7672 H   0  0  0  0  0  0  0  0  0  0  0  0
  142.9089   80.5519  219.2749 H   0  0  0  0  0  0  0  0  0  0  0  0
  140.8195   82.1208  221.0477 H   0  0  0  0  0  0  0  0  0  0  0  0
  140.8469   82.8470  223.4293 H   0  0  0  0  0  0  0  0  0  0  0  0
  142.2873   81.5789  225.0725 H   0  0  0  0  0  0  0  0  0  0  0  0
  143.6298   79.6572  224.2384 H   0  0  0  0  0  0  0  0  0  0  0  0
  144.1458   75.2522  218.1058 H   0  0  0  0  0  0  0  0  0  0  0  0
  144.4529   72.8913  218.8387 H   0  0  0  0  0  0  0  0  0  0  0  0
  143.1877   71.9904  220.7272 H   0  0  0  0  0  0  0  0  0  0  0  0
  141.5732   73.4176  221.9532 H   0  0  0  0  0  0  0  0  0  0  0  0
  141.2625   78.1594  223.3931 H   0  0  0  0  0  0  0  0  0  0  0  0
  139.7815   79.5746  224.7566 H   0  0  0  0  0  0  0  0  0  0  0  0
  1  2  1  0
  2  3  2  0
  2  4  2  0
  2  5  1  0
  5  6  2  0
  6  7  1  0
  7  8  2  0
  8  9  1  0
  9 10  1  0
 10 11  1  0
 11 12  2  0
 12 13  1  0
 13 14  2  0
 14 15  1  0
 15 16  2  0
 16 17  1  0
 17 18  2  0
 10 19  2  0
 19 20  1  0
 20 21  2  0
 21 22  1  0
 22 23  2  0
 23 24  1  0
 24 25  2  0
 25 26  1  0
 26 27  2  0
  8 28  1  0
 28 29  2  0
 29  5  1  0
 26  9  1  0
 18 13  1  0
 25 20  1  0
  1 30  1  0
  1 31  1  0
  1 32  1  0
  6 33  1  0
  7 34  1  0
 11 35  1  0
 12 36  1  0
 14 37  1  0
 15 38  1  0
 16 39  1  0
 17 40  1  0
 21 41  1  0
 22 42  1  0
 23 43  1  0
 24 44  1  0
 28 45  1  0
 29 46  1  0
M  END
>  <smiles>  (42) 
CS(=O)(=O)c1ccc(-n2c(/C=C/c3ccccn3)nc3ccccc3c2=O)cc1

>  <score_type>  (42) 
oracle

>  <origin>  (42) 
autodockgpu

>  <m_score__min__energy>  (42) 
-8.7100000000000009

>  <m_primary>  (42) 
energy

>  <rmsd>  (42) 
7.214991025361272

>  <m_score__min__rmsd>  (42) 
7.214991025361272

>  <meeko>  (42) 
{"free_energy": -6.7, "intermolecular_energy": -8.19, "internal_energy": -2.08, "cluster_size": 15, "cluster_id": 4, "rank_in_cluster": 12}

>  <energy>  (42) 
-6.72

>  <cluster_rmsd>  (42) 
0.51

>  <cluster>  (42) 
4

$$$$

     RDKit          3D

 46 49  0  0  0  0  0  0  0  0999 V2000
  144.6080   68.1790  217.6830 C   0  0  0  0  0  0  0  0  0  0  0  0
  145.4460   69.1870  218.9000 S   0  0  0  0  0  0  0  0  0  0  0  0
  145.9090   68.3260  220.0630 O   0  0  0  0  0  0  0  0  0  0  0  0
  146.6930   69.7720  218.2930 O   0  0  0  0  0  0  0  0  0  0  0  0
  144.3820   70.4370  219.5060 C   0  0  0  0  0  0  0  0  0  0  0  0
  144.9680   71.5360  220.1010 C   0  0  0  0  0  0  0  0  0  0  0  0
  144.2100   72.5780  220.6120 C   0  0  0  0  0  0  0  0  0  0  0  0
  142.8300   72.5090  220.5190 C   0  0  0  0  0  0  0  0  0  0  0  0
  141.9600   73.5110  221.0040 N   0  0  0  0  0  0  0  0  0  0  0  0
  140.9750   73.2260  221.8750 C   0  0  0  0  0  0  0  0  0  0  0  0
  140.7660   71.8440  222.3580 C   0  0  0  0  0  0  0  0  0  0  0  0
  139.8450   71.5870  223.2720 C   0  0  0  0  0  0  0  0  0  0  0  0
  140.1430   71.0950  224.5890 C   0  0  0  0  0  0  0  0  0  0  0  0
  139.8050   69.8480  225.0170 C   0  0  0  0  0  0  0  0  0  0  0  0
  140.1070   69.3990  226.3030 C   0  0  0  0  0  0  0  0  0  0  0  0
  140.7780   70.2660  227.1710 C   0  0  0  0  0  0  0  0  0  0  0  0
  141.1060   71.5240  226.7110 C   0  0  0  0  0  0  0  0  0  0  0  0
  140.7900   71.8980  225.4650 N   0  0  0  0  0  0  0  0  0  0  0  0
  140.1660   74.2080  222.3150 N   0  0  0  0  0  0  0  0  0  0  0  0
  140.2660   75.4970  221.9420 C   0  0  0  0  0  0  0  0  0  0  0  0
  139.4090   76.4660  222.4240 C   0  0  0  0  0  0  0  0  0  0  0  0
  139.5920   77.7640  221.9810 C   0  0  0  0  0  0  0  0  0  0  0  0
  140.5790   78.0800  221.1010 C   0  0  0  0  0  0  0  0  0  0  0  0
  141.4310   77.1010  220.6270 C   0  0  0  0  0  0  0  0  0  0  0  0
  141.2830   75.8020  221.0420 C   0  0  0  0  0  0  0  0  0  0  0  0
  142.1040   74.7860  220.5990 C   0  0  0  0  0  0  0  0  0  0  0  0
  143.0130   75.1120  219.7810 O   0  0  0  0  0  0  0  0  0  0  0  0
  142.2590   71.3930  219.9160 C   0  0  0  0  0  0  0  0  0  0  0  0
  143.0070   70.3620  219.4120 C   0  0  0  0  0  0  0  0  0  0  0  0
  143.9851   67.4298  218.1936 H   0  0  0  0  0  0  0  0  0  0  0  0
  143.9711   68.8178  217.0535 H   0  0  0  0  0  0  0  0  0  0  0  0
  145.3524   67.6695  217.0535 H   0  0  0  0  0  0  0  0  0  0  0  0
  146.0646   71.5862  220.1715 H   0  0  0  0  0  0  0  0  0  0  0  0
  144.6963   73.4448  221.0833 H   0  0  0  0  0  0  0  0  0  0  0  0
  141.3799   71.0251  221.9549 H   0  0  0  0  0  0  0  0  0  0  0  0
  138.7909   71.7597  223.0091 H   0  0  0  0  0  0  0  0  0  0  0  0
  139.2771   69.1729  224.3273 H   0  0  0  0  0  0  0  0  0  0  0  0
  139.8238   68.3865  226.6266 H   0  0  0  0  0  0  0  0  0  0  0  0
  141.0372   69.9530  228.1932 H   0  0  0  0  0  0  0  0  0  0  0  0
  141.6321   72.2266  227.3740 H   0  0  0  0  0  0  0  0  0  0  0  0
  138.6085   76.2150  223.1355 H   0  0  0  0  0  0  0  0  0  0  0  0
  138.9246   78.5573  222.3487 H   0  0  0  0  0  0  0  0  0  0  0  0
  140.6999   79.1203  220.7647 H   0  0  0  0  0  0  0  0  0  0  0  0
  142.2285   77.3635  219.9163 H   0  0  0  0  0  0  0  0  0  0  0  0
  141.1630   71.3361  219.8409 H   0  0  0  0  0  0  0  0  0  0  0  0
  142.5224   69.4932  218.9426 H   0  0  0  0  0  0  0  0  0  0  0  0
  1  2  1  0
  2  3  2  0
  2  4  2  0
  2  5  1  0
  5  6  2  0
  6  7  1  0
  7  8  2  0
  8  9  1  0
  9 10  1  0
 10 11  1  0
 11 12  2  0
 12 13  1  0
 13 14  2  0
 14 15  1  0
 15 16  2  0
 16 17  1  0
 17 18  2  0
 10 19  2  0
 19 20  1  0
 20 21  2  0
 21 22  1  0
 22 23  2  0
 23 24  1  0
 24 25  2  0
 25 26  1  0
 26 27  2  0
  8 28  1  0
 28 29  2  0
 29  5  1  0
 26  9  1  0
 18 13  1  0
 25 20  1  0
  1 30  1  0
  1 31  1  0
  1 32  1  0
  6 33  1  0
  7 34  1  0
 11 35  1  0
 12 36  1  0
 14 37  1  0
 15 38  1  0
 16 39  1  0
 17 40  1  0
 21 41  1  0
 22 42  1  0
 23 43  1  0
 24 44  1  0
 28 45  1  0
 29 46  1  0
M  END
>  <smiles>  (43) 
CS(=O)(=O)c1ccc(-n2c(/C=C/c3ccccn3)nc3ccccc3c2=O)cc1

>  <score_type>  (43) 
oracle

>  <origin>  (43) 
autodockgpu

>  <m_score__min__energy>  (43) 
-8.7100000000000009

>  <m_primary>  (43) 
energy

>  <rmsd>  (43) 
5.6049393818525175

>  <m_score__min__rmsd>  (43) 
5.6049393818525175

>  <meeko>  (43) 
{"free_energy": -8.65, "intermolecular_energy": -10.14, "internal_energy": -0.94, "cluster_size": 30, "cluster_id": 1, "rank_in_cluster": 5}

>  <energy>  (43) 
-6.72

>  <cluster_rmsd>  (43) 
0.51

>  <cluster>  (43) 
4

$$$$

     RDKit          3D

 46 49  0  0  0  0  0  0  0  0999 V2000
  145.3750   68.1520  219.0330 C   0  0  0  0  0  0  0  0  0  0  0  0
  145.9530   69.8390  218.8990 S   0  0  0  0  0  0  0  0  0  0  0  0
  147.2370   70.0170  219.6920 O   0  0  0  0  0  0  0  0  0  0  0  0
  146.3040   70.1360  217.4660 O   0  0  0  0  0  0  0  0  0  0  0  0
  144.7500   70.9550  219.5070 C   0  0  0  0  0  0  0  0  0  0  0  0
  145.2000   72.0460  220.2210 C   0  0  0  0  0  0  0  0  0  0  0  0
  144.3240   72.9870  220.7430 C   0  0  0  0  0  0  0  0  0  0  0  0
  142.9650   72.8210  220.5380 C   0  0  0  0  0  0  0  0  0  0  0  0
  141.9840   73.7140  221.0230 N   0  0  0  0  0  0  0  0  0  0  0  0
  141.0330   73.3130  221.8870 C   0  0  0  0  0  0  0  0  0  0  0  0
  140.9800   71.9140  222.3610 C   0  0  0  0  0  0  0  0  0  0  0  0
  140.0180   71.5200  223.1780 C   0  0  0  0  0  0  0  0  0  0  0  0
  140.2360   71.1500  224.5500 C   0  0  0  0  0  0  0  0  0  0  0  0
  139.6400   70.0780  225.1400 C   0  0  0  0  0  0  0  0  0  0  0  0
  139.8710   69.7440  226.4750 C   0  0  0  0  0  0  0  0  0  0  0  0
  140.7450   70.5430  227.2200 C   0  0  0  0  0  0  0  0  0  0  0  0
  141.3340   71.6220  226.5960 C   0  0  0  0  0  0  0  0  0  0  0  0
  141.0730   71.8930  225.3100 N   0  0  0  0  0  0  0  0  0  0  0  0
  140.1150   74.1940  222.3270 N   0  0  0  0  0  0  0  0  0  0  0  0
  140.0690   75.4880  221.9610 C   0  0  0  0  0  0  0  0  0  0  0  0
  139.1050   76.3510  222.4420 C   0  0  0  0  0  0  0  0  0  0  0  0
  139.1410   77.6640  222.0080 C   0  0  0  0  0  0  0  0  0  0  0  0
  140.0910   78.0960  221.1360 C   0  0  0  0  0  0  0  0  0  0  0  0
  141.0510   77.2220  220.6620 C   0  0  0  0  0  0  0  0  0  0  0  0
  141.0500   75.9130  221.0680 C   0  0  0  0  0  0  0  0  0  0  0  0
  141.9840   74.9990  220.6260 C   0  0  0  0  0  0  0  0  0  0  0  0
  142.8540   75.4320  219.8150 O   0  0  0  0  0  0  0  0  0  0  0  0
  142.5320   71.7140  219.8160 C   0  0  0  0  0  0  0  0  0  0  0  0
  143.3960   70.7840  219.3000 C   0  0  0  0  0  0  0  0  0  0  0  0
  145.2817   67.8796  220.0947 H   0  0  0  0  0  0  0  0  0  0  0  0
  144.3942   68.0605  218.5434 H   0  0  0  0  0  0  0  0  0  0  0  0
  146.0936   67.4782  218.5434 H   0  0  0  0  0  0  0  0  0  0  0  0
  146.2809   72.1733  220.3806 H   0  0  0  0  0  0  0  0  0  0  0  0
  144.7029   73.8501  221.3100 H   0  0  0  0  0  0  0  0  0  0  0  0
  141.7457   71.1961  222.0320 H   0  0  0  0  0  0  0  0  0  0  0  0
  138.9916   71.4726  222.7852 H   0  0  0  0  0  0  0  0  0  0  0  0
  138.9548   69.4555  224.5459 H   0  0  0  0  0  0  0  0  0  0  0  0
  139.3775   68.8730  226.9309 H   0  0  0  0  0  0  0  0  0  0  0  0
  140.9565   70.3163  228.2754 H   0  0  0  0  0  0  0  0  0  0  0  0
  142.0248   72.2666  227.1592 H   0  0  0  0  0  0  0  0  0  0  0  0
  138.3340   76.0062  223.1468 H   0  0  0  0  0  0  0  0  0  0  0  0
  138.3853   78.3736  222.3759 H   0  0  0  0  0  0  0  0  0  0  0  0
  140.0954   79.1455  220.8066 H   0  0  0  0  0  0  0  0  0  0  0  0
  141.8173   77.5777  219.9576 H   0  0  0  0  0  0  0  0  0  0  0  0
  141.4525   71.5796  219.6526 H   0  0  0  0  0  0  0  0  0  0  0  0
  143.0188   69.9200  218.7332 H   0  0  0  0  0  0  0  0  0  0  0  0
  1  2  1  0
  2  3  2  0
  2  4  2  0
  2  5  1  0
  5  6  2  0
  6  7  1  0
  7  8  2  0
  8  9  1  0
  9 10  1  0
 10 11  1  0
 11 12  2  0
 12 13  1  0
 13 14  2  0
 14 15  1  0
 15 16  2  0
 16 17  1  0
 17 18  2  0
 10 19  2  0
 19 20  1  0
 20 21  2  0
 21 22  1  0
 22 23  2  0
 23 24  1  0
 24 25  2  0
 25 26  1  0
 26 27  2  0
  8 28  1  0
 28 29  2  0
 29  5  1  0
 26  9  1  0
 18 13  1  0
 25 20  1  0
  1 30  1  0
  1 31  1  0
  1 32  1  0
  6 33  1  0
  7 34  1  0
 11 35  1  0
 12 36  1  0
 14 37  1  0
 15 38  1  0
 16 39  1  0
 17 40  1  0
 21 41  1  0
 22 42  1  0
 23 43  1  0
 24 44  1  0
 28 45  1  0
 29 46  1  0
M  END
>  <smiles>  (44) 
CS(=O)(=O)c1ccc(-n2c(/C=C/c3ccccn3)nc3ccccc3c2=O)cc1

>  <score_type>  (44) 
oracle

>  <origin>  (44) 
autodockgpu

>  <m_score__min__energy>  (44) 
-8.7100000000000009

>  <m_primary>  (44) 
energy

>  <rmsd>  (44) 
5.505220079690484

>  <m_score__min__rmsd>  (44) 
5.505220079690484

>  <meeko>  (44) 
{"free_energy": -8.11, "intermolecular_energy": -9.6, "internal_energy": -1.05, "cluster_size": 30, "cluster_id": 1, "rank_in_cluster": 21}

>  <energy>  (44) 
-6.72

>  <cluster_rmsd>  (44) 
0.51

>  <cluster>  (44) 
4

$$$$

     RDKit          3D

 46 49  0  0  0  0  0  0  0  0999 V2000
  143.7910   68.2280  217.9280 C   0  0  0  0  0  0  0  0  0  0  0  0
  144.8210   69.2970  218.9260 S   0  0  0  0  0  0  0  0  0  0  0  0
  145.4180   68.5160  220.0850 O   0  0  0  0  0  0  0  0  0  0  0  0
  145.9860   69.7790  218.1050 O   0  0  0  0  0  0  0  0  0  0  0  0
  143.8900   70.6350  219.5620 C   0  0  0  0  0  0  0  0  0  0  0  0
  142.5600   70.7110  219.2020 C   0  0  0  0  0  0  0  0  0  0  0  0
  141.7400   71.7330  219.6550 C   0  0  0  0  0  0  0  0  0  0  0  0
  142.2750   72.6990  220.4890 C   0  0  0  0  0  0  0  0  0  0  0  0
  141.5340   73.7840  221.0090 N   0  0  0  0  0  0  0  0  0  0  0  0
  140.5150   73.5930  221.8680 C   0  0  0  0  0  0  0  0  0  0  0  0
  140.1320   72.2320  222.2980 C   0  0  0  0  0  0  0  0  0  0  0  0
  140.9250   71.5330  223.0930 C   0  0  0  0  0  0  0  0  0  0  0  0
  140.5690   71.1350  224.4280 C   0  0  0  0  0  0  0  0  0  0  0  0
  139.7680   70.0690  224.7030 C   0  0  0  0  0  0  0  0  0  0  0  0
  139.4390   69.7080  226.0090 C   0  0  0  0  0  0  0  0  0  0  0  0
  139.9540   70.4700  227.0620 C   0  0  0  0  0  0  0  0  0  0  0  0
  140.7620   71.5440  226.7540 C   0  0  0  0  0  0  0  0  0  0  0  0
  141.0430   71.8430  225.4780 N   0  0  0  0  0  0  0  0  0  0  0  0
  139.8330   74.6520  222.3420 N   0  0  0  0  0  0  0  0  0  0  0  0
  140.0960   75.9310  222.0170 C   0  0  0  0  0  0  0  0  0  0  0  0
  139.3640   76.9820  222.5340 C   0  0  0  0  0  0  0  0  0  0  0  0
  139.7110   78.2620  222.1400 C   0  0  0  0  0  0  0  0  0  0  0  0
  140.7360   78.4840  221.2740 C   0  0  0  0  0  0  0  0  0  0  0  0
  141.4610   77.4230  220.7650 C   0  0  0  0  0  0  0  0  0  0  0  0
  141.1490   76.1390  221.1310 C   0  0  0  0  0  0  0  0  0  0  0  0
  141.8390   75.0440  220.6520 C   0  0  0  0  0  0  0  0  0  0  0  0
  142.7870   75.2840  219.8490 O   0  0  0  0  0  0  0  0  0  0  0  0
  143.6170   72.6050  220.8400 C   0  0  0  0  0  0  0  0  0  0  0  0
  144.4290   71.5960  220.3940 C   0  0  0  0  0  0  0  0  0  0  0  0
  143.1784   67.5922  218.5841 H   0  0  0  0  0  0  0  0  0  0  0  0
  143.1338   68.8404  217.2931 H   0  0  0  0  0  0  0  0  0  0  0  0
  144.4274   67.5940  217.2931 H   0  0  0  0  0  0  0  0  0  0  0  0
  142.1396   69.9409  218.5385 H   0  0  0  0  0  0  0  0  0  0  0  0
  140.6821   71.7753  219.3565 H   0  0  0  0  0  0  0  0  0  0  0  0
  139.1815   71.7976  221.9548 H   0  0  0  0  0  0  0  0  0  0  0  0
  141.9138   71.2392  222.7108 H   0  0  0  0  0  0  0  0  0  0  0  0
  139.3679   69.4739  223.8688 H   0  0  0  0  0  0  0  0  0  0  0  0
  138.7888   68.8430  226.2064 H   0  0  0  0  0  0  0  0  0  0  0  0
  139.7210   70.2196  228.1075 H   0  0  0  0  0  0  0  0  0  0  0  0
  141.1799   72.1612  227.5630 H   0  0  0  0  0  0  0  0  0  0  0  0
  138.5341   76.8074  223.2346 H   0  0  0  0  0  0  0  0  0  0  0  0
  139.1457   79.1187  222.5357 H   0  0  0  0  0  0  0  0  0  0  0  0
  140.9891   79.5126  220.9774 H   0  0  0  0  0  0  0  0  0  0  0  0
  142.2893   77.6089  220.0654 H   0  0  0  0  0  0  0  0  0  0  0  0
  144.0440   73.3721  221.5028 H   0  0  0  0  0  0  0  0  0  0  0  0
  145.4869   71.5523  220.6921 H   0  0  0  0  0  0  0  0  0  0  0  0
  1  2  1  0
  2  3  2  0
  2  4  2  0
  2  5  1  0
  5  6  2  0
  6  7  1  0
  7  8  2  0
  8  9  1  0
  9 10  1  0
 10 11  1  0
 11 12  2  0
 12 13  1  0
 13 14  2  0
 14 15  1  0
 15 16  2  0
 16 17  1  0
 17 18  2  0
 10 19  2  0
 19 20  1  0
 20 21  2  0
 21 22  1  0
 22 23  2  0
 23 24  1  0
 24 25  2  0
 25 26  1  0
 26 27  2  0
  8 28  1  0
 28 29  2  0
 29  5  1  0
 26  9  1  0
 18 13  1  0
 25 20  1  0
  1 30  1  0
  1 31  1  0
  1 32  1  0
  6 33  1  0
  7 34  1  0
 11 35  1  0
 12 36  1  0
 14 37  1  0
 15 38  1  0
 16 39  1  0
 17 40  1  0
 21 41  1  0
 22 42  1  0
 23 43  1  0
 24 44  1  0
 28 45  1  0
 29 46  1  0
M  END
>  <smiles>  (45) 
CS(=O)(=O)c1ccc(-n2c(/C=C/c3ccccn3)nc3ccccc3c2=O)cc1

>  <score_type>  (45) 
oracle

>  <origin>  (45) 
autodockgpu

>  <m_score__min__energy>  (45) 
-8.7100000000000009

>  <m_primary>  (45) 
energy

>  <rmsd>  (45) 
5.384777931746955

>  <m_score__min__rmsd>  (45) 
5.384777931746955

>  <meeko>  (45) 
{"free_energy": -7.81, "intermolecular_energy": -9.31, "internal_energy": -1.17, "cluster_size": 30, "cluster_id": 1, "rank_in_cluster": 29}

>  <energy>  (45) 
-6.71

>  <cluster_rmsd>  (45) 
0.86

>  <cluster>  (45) 
4

$$$$

     RDKit          3D

 46 49  0  0  0  0  0  0  0  0999 V2000
  144.6790   74.1470  220.3960 C   0  0  0  0  0  0  0  0  0  0  0  0
  143.1180   74.4540  219.5780 S   0  0  0  0  0  0  0  0  0  0  0  0
  143.3580   74.9780  218.1720 O   0  0  0  0  0  0  0  0  0  0  0  0
  142.3720   73.1570  219.4180 O   0  0  0  0  0  0  0  0  0  0  0  0
  142.1740   75.6290  220.4680 C   0  0  0  0  0  0  0  0  0  0  0  0
  141.4480   75.1720  221.5490 C   0  0  0  0  0  0  0  0  0  0  0  0
  140.6690   76.0250  222.3160 C   0  0  0  0  0  0  0  0  0  0  0  0
  140.6250   77.3680  221.9860 C   0  0  0  0  0  0  0  0  0  0  0  0
  139.8680   78.3260  222.6960 N   0  0  0  0  0  0  0  0  0  0  0  0
  140.4570   79.2510  223.4760 C   0  0  0  0  0  0  0  0  0  0  0  0
  141.9270   79.2970  223.6190 C   0  0  0  0  0  0  0  0  0  0  0  0
  142.6400   80.1730  222.9310 C   0  0  0  0  0  0  0  0  0  0  0  0
  142.0910   81.0250  221.9120 C   0  0  0  0  0  0  0  0  0  0  0  0
  141.4820   82.2140  222.1770 C   0  0  0  0  0  0  0  0  0  0  0  0
  140.9580   83.0190  221.1660 C   0  0  0  0  0  0  0  0  0  0  0  0
  141.0680   82.5820  219.8420 C   0  0  0  0  0  0  0  0  0  0  0  0
  141.6880   81.3750  219.6030 C   0  0  0  0  0  0  0  0  0  0  0  0
  142.1730   80.6440  220.6170 N   0  0  0  0  0  0  0  0  0  0  0  0
  139.7010   80.1480  224.1370 N   0  0  0  0  0  0  0  0  0  0  0  0
  138.3580   80.1970  224.0800 C   0  0  0  0  0  0  0  0  0  0  0  0
  137.6300   81.1390  224.7790 C   0  0  0  0  0  0  0  0  0  0  0  0
  136.2520   81.1090  224.6560 C   0  0  0  0  0  0  0  0  0  0  0  0
  135.6310   80.1860  223.8740 C   0  0  0  0  0  0  0  0  0  0  0  0
  136.3710   79.2490  223.1780 C   0  0  0  0  0  0  0  0  0  0  0  0
  137.7390   79.2450  223.2750 C   0  0  0  0  0  0  0  0  0  0  0  0
  138.5260   78.3320  222.6030 C   0  0  0  0  0  0  0  0  0  0  0  0
  137.9180   77.4860  221.8840 O   0  0  0  0  0  0  0  0  0  0  0  0
  141.3650   77.8090  220.8930 C   0  0  0  0  0  0  0  0  0  0  0  0
  142.1330   76.9670  220.1330 C   0  0  0  0  0  0  0  0  0  0  0  0
  144.5336   74.1756  221.4860 H   0  0  0  0  0  0  0  0  0  0  0  0
  145.0583   73.1571  220.1025 H   0  0  0  0  0  0  0  0  0  0  0  0
  145.4049   74.9196  220.1025 H   0  0  0  0  0  0  0  0  0  0  0  0
  141.4883   74.1039  221.8088 H   0  0  0  0  0  0  0  0  0  0  0  0
  140.0957   75.6405  223.1724 H   0  0  0  0  0  0  0  0  0  0  0  0
  142.4316   78.5980  224.3022 H   0  0  0  0  0  0  0  0  0  0  0  0
  143.7147   80.2542  223.1513 H   0  0  0  0  0  0  0  0  0  0  0  0
  141.4009   82.5499  223.2213 H   0  0  0  0  0  0  0  0  0  0  0  0
  140.4695   83.9754  221.4043 H   0  0  0  0  0  0  0  0  0  0  0  0
  140.6700   83.1860  219.0133 H   0  0  0  0  0  0  0  0  0  0  0  0
  141.7860   81.0077  218.5708 H   0  0  0  0  0  0  0  0  0  0  0  0
  138.1283   81.8879  225.4121 H   0  0  0  0  0  0  0  0  0  0  0  0
  135.6464   81.8472  225.2022 H   0  0  0  0  0  0  0  0  0  0  0  0
  134.5338   80.1851  223.7950 H   0  0  0  0  0  0  0  0  0  0  0  0
  135.8625   78.5061  222.5459 H   0  0  0  0  0  0  0  0  0  0  0  0
  141.3319   78.8763  220.6289 H   0  0  0  0  0  0  0  0  0  0  0  0
  142.7046   77.3491  219.2743 H   0  0  0  0  0  0  0  0  0  0  0  0
  1  2  1  0
  2  3  2  0
  2  4  2  0
  2  5  1  0
  5  6  2  0
  6  7  1  0
  7  8  2  0
  8  9  1  0
  9 10  1  0
 10 11  1  0
 11 12  2  0
 12 13  1  0
 13 14  2  0
 14 15  1  0
 15 16  2  0
 16 17  1  0
 17 18  2  0
 10 19  2  0
 19 20  1  0
 20 21  2  0
 21 22  1  0
 22 23  2  0
 23 24  1  0
 24 25  2  0
 25 26  1  0
 26 27  2  0
  8 28  1  0
 28 29  2  0
 29  5  1  0
 26  9  1  0
 18 13  1  0
 25 20  1  0
  1 30  1  0
  1 31  1  0
  1 32  1  0
  6 33  1  0
  7 34  1  0
 11 35  1  0
 12 36  1  0
 14 37  1  0
 15 38  1  0
 16 39  1  0
 17 40  1  0
 21 41  1  0
 22 42  1  0
 23 43  1  0
 24 44  1  0
 28 45  1  0
 29 46  1  0
M  END
>  <smiles>  (46) 
CS(=O)(=O)c1ccc(-n2c(/C=C/c3ccccn3)nc3ccccc3c2=O)cc1

>  <score_type>  (46) 
oracle

>  <origin>  (46) 
autodockgpu

>  <m_score__min__energy>  (46) 
-8.7100000000000009

>  <m_primary>  (46) 
energy

>  <rmsd>  (46) 
4.4253140591953155

>  <m_score__min__rmsd>  (46) 
4.4253140591953155

>  <meeko>  (46) 
{"free_energy": -6.78, "intermolecular_energy": -8.27, "internal_energy": -1.81, "cluster_size": 1, "cluster_id": 5, "rank_in_cluster": 1}

>  <energy>  (46) 
-6.7

>  <cluster_rmsd>  (46) 
0.86

>  <cluster>  (46) 
4

$$$$

     RDKit          3D

 46 49  0  0  0  0  0  0  0  0999 V2000
  144.5940   68.1700  217.6650 C   0  0  0  0  0  0  0  0  0  0  0  0
  145.4320   69.1240  218.9260 S   0  0  0  0  0  0  0  0  0  0  0  0
  145.8510   68.2200  220.0730 O   0  0  0  0  0  0  0  0  0  0  0  0
  146.7040   69.6940  218.3590 O   0  0  0  0  0  0  0  0  0  0  0  0
  144.3860   70.3820  219.5460 C   0  0  0  0  0  0  0  0  0  0  0  0
  143.0250   70.1690  219.4730 C   0  0  0  0  0  0  0  0  0  0  0  0
  142.1150   71.1070  219.9380 C   0  0  0  0  0  0  0  0  0  0  0  0
  142.5910   72.2850  220.4880 C   0  0  0  0  0  0  0  0  0  0  0  0
  141.7590   73.3080  220.9920 N   0  0  0  0  0  0  0  0  0  0  0  0
  140.7580   73.0410  221.8520 C   0  0  0  0  0  0  0  0  0  0  0  0
  140.4930   71.6580  222.3010 C   0  0  0  0  0  0  0  0  0  0  0  0
  139.5940   71.4210  223.2420 C   0  0  0  0  0  0  0  0  0  0  0  0
  139.9280   71.1100  224.6050 C   0  0  0  0  0  0  0  0  0  0  0  0
  140.7730   71.8640  225.3600 C   0  0  0  0  0  0  0  0  0  0  0  0
  141.0780   71.5360  226.6810 C   0  0  0  0  0  0  0  0  0  0  0  0
  140.4910   70.3950  227.2370 C   0  0  0  0  0  0  0  0  0  0  0  0
  139.6400   69.6500  226.4490 C   0  0  0  0  0  0  0  0  0  0  0  0
  139.3850   70.0150  225.1860 N   0  0  0  0  0  0  0  0  0  0  0  0
  139.9850   74.0440  222.3110 N   0  0  0  0  0  0  0  0  0  0  0  0
  140.1370   75.3360  221.9680 C   0  0  0  0  0  0  0  0  0  0  0  0
  139.3160   76.3270  222.4690 C   0  0  0  0  0  0  0  0  0  0  0  0
  139.5510   77.6270  222.0580 C   0  0  0  0  0  0  0  0  0  0  0  0
  140.5560   77.9240  221.1900 C   0  0  0  0  0  0  0  0  0  0  0  0
  141.3710   76.9240  220.6970 C   0  0  0  0  0  0  0  0  0  0  0  0
  141.1700   75.6220  221.0800 C   0  0  0  0  0  0  0  0  0  0  0  0
  141.9540   74.5850  220.6180 C   0  0  0  0  0  0  0  0  0  0  0  0
  142.8800   74.8950  219.8130 O   0  0  0  0  0  0  0  0  0  0  0  0
  143.9670   72.4800  220.5520 C   0  0  0  0  0  0  0  0  0  0  0  0
  144.8670   71.5550  220.0930 C   0  0  0  0  0  0  0  0  0  0  0  0
  143.9400   67.4255  218.1425 H   0  0  0  0  0  0  0  0  0  0  0  0
  143.9887   68.8418  217.0387 H   0  0  0  0  0  0  0  0  0  0  0  0
  145.3382   67.6563  217.0387 H   0  0  0  0  0  0  0  0  0  0  0  0
  142.6519   69.2315  219.0349 H   0  0  0  0  0  0  0  0  0  0  0  0
  141.0334   70.9181  219.8709 H   0  0  0  0  0  0  0  0  0  0  0  0
  141.0464   70.8211  221.8501 H   0  0  0  0  0  0  0  0  0  0  0  0
  138.5302   71.4644  222.9657 H   0  0  0  0  0  0  0  0  0  0  0  0
  141.2297   72.7601  224.9145 H   0  0  0  0  0  0  0  0  0  0  0  0
  141.7644   72.1604  227.2717 H   0  0  0  0  0  0  0  0  0  0  0  0
  140.7027   70.0999  228.2753 H   0  0  0  0  0  0  0  0  0  0  0  0
  139.1659   68.7472  226.8615 H   0  0  0  0  0  0  0  0  0  0  0  0
  138.5028   76.0908  223.1710 H   0  0  0  0  0  0  0  0  0  0  0  0
  138.9125   78.4369  222.4406 H   0  0  0  0  0  0  0  0  0  0  0  0
  140.7202   78.9664  220.8793 H   0  0  0  0  0  0  0  0  0  0  0  0
  142.1822   77.1717  219.9965 H   0  0  0  0  0  0  0  0  0  0  0  0
  144.3477   73.4150  220.9889 H   0  0  0  0  0  0  0  0  0  0  0  0
  145.9489   71.7425  220.1587 H   0  0  0  0  0  0  0  0  0  0  0  0
  1  2  1  0
  2  3  2  0
  2  4  2  0
  2  5  1  0
  5  6  2  0
  6  7  1  0
  7  8  2  0
  8  9  1  0
  9 10  1  0
 10 11  1  0
 11 12  2  0
 12 13  1  0
 13 14  2  0
 14 15  1  0
 15 16  2  0
 16 17  1  0
 17 18  2  0
 10 19  2  0
 19 20  1  0
 20 21  2  0
 21 22  1  0
 22 23  2  0
 23 24  1  0
 24 25  2  0
 25 26  1  0
 26 27  2  0
  8 28  1  0
 28 29  2  0
 29  5  1  0
 26  9  1  0
 18 13  1  0
 25 20  1  0
  1 30  1  0
  1 31  1  0
  1 32  1  0
  6 33  1  0
  7 34  1  0
 11 35  1  0
 12 36  1  0
 14 37  1  0
 15 38  1  0
 16 39  1  0
 17 40  1  0
 21 41  1  0
 22 42  1  0
 23 43  1  0
 24 44  1  0
 28 45  1  0
 29 46  1  0
M  END
>  <smiles>  (47) 
CS(=O)(=O)c1ccc(-n2c(/C=C/c3ccccn3)nc3ccccc3c2=O)cc1

>  <score_type>  (47) 
oracle

>  <origin>  (47) 
autodockgpu

>  <m_score__min__energy>  (47) 
-8.7100000000000009

>  <m_primary>  (47) 
energy

>  <rmsd>  (47) 
5.914662325626679

>  <m_score__min__rmsd>  (47) 
5.914662325626679

>  <meeko>  (47) 
{"free_energy": -8.64, "intermolecular_energy": -10.14, "internal_energy": -0.94, "cluster_size": 30, "cluster_id": 1, "rank_in_cluster": 7}

>  <energy>  (47) 
-6.69

>  <cluster_rmsd>  (47) 
0.82

>  <cluster>  (47) 
4

$$$$

     RDKit          3D

 46 49  0  0  0  0  0  0  0  0999 V2000
  132.4500   69.4030  224.4050 C   0  0  0  0  0  0  0  0  0  0  0  0
  134.0640   68.8660  224.9590 S   0  0  0  0  0  0  0  0  0  0  0  0
  134.1300   68.8860  226.4770 O   0  0  0  0  0  0  0  0  0  0  0  0
  134.2820   67.4330  224.5520 O   0  0  0  0  0  0  0  0  0  0  0  0
  135.3150   69.9090  224.3220 C   0  0  0  0  0  0  0  0  0  0  0  0
  136.2720   69.3320  223.5120 C   0  0  0  0  0  0  0  0  0  0  0  0
  137.3030   70.0760  222.9590 C   0  0  0  0  0  0  0  0  0  0  0  0
  137.3690   71.4320  223.2290 C   0  0  0  0  0  0  0  0  0  0  0  0
  138.3730   72.2850  222.7210 N   0  0  0  0  0  0  0  0  0  0  0  0
  139.6720   72.1050  223.0270 C   0  0  0  0  0  0  0  0  0  0  0  0
  140.0950   71.0000  223.9130 C   0  0  0  0  0  0  0  0  0  0  0  0
  140.2400   71.2020  225.2120 C   0  0  0  0  0  0  0  0  0  0  0  0
  140.3440   70.1440  226.1790 C   0  0  0  0  0  0  0  0  0  0  0  0
  139.8890   68.8800  225.9580 C   0  0  0  0  0  0  0  0  0  0  0  0
  140.0030   67.8740  226.9170 C   0  0  0  0  0  0  0  0  0  0  0  0
  140.6090   68.1830  228.1390 C   0  0  0  0  0  0  0  0  0  0  0  0
  141.0600   69.4710  228.3350 C   0  0  0  0  0  0  0  0  0  0  0  0
  140.9220   70.3960  227.3760 N   0  0  0  0  0  0  0  0  0  0  0  0
  140.6000   72.9390  222.5220 N   0  0  0  0  0  0  0  0  0  0  0  0
  140.3260   73.9750  221.7090 C   0  0  0  0  0  0  0  0  0  0  0  0
  141.3180   74.8010  221.2180 C   0  0  0  0  0  0  0  0  0  0  0  0
  140.9380   75.8400  220.3870 C   0  0  0  0  0  0  0  0  0  0  0  0
  139.6330   76.0450  220.0610 C   0  0  0  0  0  0  0  0  0  0  0  0
  138.6500   75.2100  220.5580 C   0  0  0  0  0  0  0  0  0  0  0  0
  138.9860   74.1690  221.3850 C   0  0  0  0  0  0  0  0  0  0  0  0
  138.0450   73.3070  221.9090 C   0  0  0  0  0  0  0  0  0  0  0  0
  136.8410   73.5240  221.5870 O   0  0  0  0  0  0  0  0  0  0  0  0
  136.3950   71.9940  224.0470 C   0  0  0  0  0  0  0  0  0  0  0  0
  135.3760   71.2610  224.5950 C   0  0  0  0  0  0  0  0  0  0  0  0
  131.8144   69.6145  225.2776 H   0  0  0  0  0  0  0  0  0  0  0  0
  132.5551   70.3146  223.7984 H   0  0  0  0  0  0  0  0  0  0  0  0
  131.9880   68.6102  223.7984 H   0  0  0  0  0  0  0  0  0  0  0  0
  136.2153   68.2542  223.2997 H   0  0  0  0  0  0  0  0  0  0  0  0
  138.0561   69.5966  222.3163 H   0  0  0  0  0  0  0  0  0  0  0  0
  140.2903   70.0038  223.4894 H   0  0  0  0  0  0  0  0  0  0  0  0
  140.2835   72.2401  225.5732 H   0  0  0  0  0  0  0  0  0  0  0  0
  139.4167   68.6449  224.9928 H   0  0  0  0  0  0  0  0  0  0  0  0
  139.6249   66.8606  226.7169 H   0  0  0  0  0  0  0  0  0  0  0  0
  140.7227   67.4192  228.9224 H   0  0  0  0  0  0  0  0  0  0  0  0
  141.5378   69.7417  229.2881 H   0  0  0  0  0  0  0  0  0  0  0  0
  142.3742   74.6384  221.4787 H   0  0  0  0  0  0  0  0  0  0  0  0
  141.7068   76.5142  219.9815 H   0  0  0  0  0  0  0  0  0  0  0  0
  139.3589   76.8794  219.3987 H   0  0  0  0  0  0  0  0  0  0  0  0
  137.5969   75.3807  220.2898 H   0  0  0  0  0  0  0  0  0  0  0  0
  136.4449   73.0715  224.2628 H   0  0  0  0  0  0  0  0  0  0  0  0
  134.6227   71.7390  225.2385 H   0  0  0  0  0  0  0  0  0  0  0  0
  1  2  1  0
  2  3  2  0
  2  4  2  0
  2  5  1  0
  5  6  2  0
  6  7  1  0
  7  8  2  0
  8  9  1  0
  9 10  1  0
 10 11  1  0
 11 12  2  0
 12 13  1  0
 13 14  2  0
 14 15  1  0
 15 16  2  0
 16 17  1  0
 17 18  2  0
 10 19  2  0
 19 20  1  0
 20 21  2  0
 21 22  1  0
 22 23  2  0
 23 24  1  0
 24 25  2  0
 25 26  1  0
 26 27  2  0
  8 28  1  0
 28 29  2  0
 29  5  1  0
 26  9  1  0
 18 13  1  0
 25 20  1  0
  1 30  1  0
  1 31  1  0
  1 32  1  0
  6 33  1  0
  7 34  1  0
 11 35  1  0
 12 36  1  0
 14 37  1  0
 15 38  1  0
 16 39  1  0
 17 40  1  0
 21 41  1  0
 22 42  1  0
 23 43  1  0
 24 44  1  0
 28 45  1  0
 29 46  1  0
M  END
>  <smiles>  (48) 
CS(=O)(=O)c1ccc(-n2c(/C=C/c3ccccn3)nc3ccccc3c2=O)cc1

>  <score_type>  (48) 
oracle

>  <origin>  (48) 
autodockgpu

>  <m_score__min__energy>  (48) 
-8.7100000000000009

>  <m_primary>  (48) 
energy

>  <rmsd>  (48) 
8.023560862184393

>  <m_score__min__rmsd>  (48) 
8.023560862184393

>  <meeko>  (48) 
{"free_energy": -7.55, "intermolecular_energy": -9.04, "internal_energy": -1.31, "cluster_size": 3, "cluster_id": 2, "rank_in_cluster": 2}

>  <energy>  (48) 
-6.69

>  <cluster_rmsd>  (48) 
0.71

>  <cluster>  (48) 
4

$$$$

     RDKit          3D

 46 49  0  0  0  0  0  0  0  0999 V2000
  145.0470   67.9450  218.9910 C   0  0  0  0  0  0  0  0  0  0  0  0
  145.7010   69.5880  218.7200 S   0  0  0  0  0  0  0  0  0  0  0  0
  147.0650   69.7230  219.3770 O   0  0  0  0  0  0  0  0  0  0  0  0
  145.9250   69.8010  217.2480 O   0  0  0  0  0  0  0  0  0  0  0  0
  144.6280   70.7980  219.3860 C   0  0  0  0  0  0  0  0  0  0  0  0
  143.2740   70.6290  219.1800 C   0  0  0  0  0  0  0  0  0  0  0  0
  142.3440   71.5340  219.6690 C   0  0  0  0  0  0  0  0  0  0  0  0
  142.7910   72.6330  220.3810 C   0  0  0  0  0  0  0  0  0  0  0  0
  141.9360   73.6170  220.9240 N   0  0  0  0  0  0  0  0  0  0  0  0
  140.9680   73.3000  221.8050 C   0  0  0  0  0  0  0  0  0  0  0  0
  140.7660   71.9010  222.2380 C   0  0  0  0  0  0  0  0  0  0  0  0
  139.8450   71.6060  223.1400 C   0  0  0  0  0  0  0  0  0  0  0  0
  140.1450   71.1340  224.4640 C   0  0  0  0  0  0  0  0  0  0  0  0
  140.8090   71.8770  225.3910 C   0  0  0  0  0  0  0  0  0  0  0  0
  141.0870   71.3900  226.6680 C   0  0  0  0  0  0  0  0  0  0  0  0
  140.6650   70.0980  226.9960 C   0  0  0  0  0  0  0  0  0  0  0  0
  139.9960   69.3680  226.0370 C   0  0  0  0  0  0  0  0  0  0  0  0
  139.7580   69.8890  224.8260 N   0  0  0  0  0  0  0  0  0  0  0  0
  140.1730   74.2660  222.3010 N   0  0  0  0  0  0  0  0  0  0  0  0
  140.2680   75.5690  221.9770 C   0  0  0  0  0  0  0  0  0  0  0  0
  139.4250   76.5200  222.5150 C   0  0  0  0  0  0  0  0  0  0  0  0
  139.6030   77.8340  222.1210 C   0  0  0  0  0  0  0  0  0  0  0  0
  140.5720   78.1830  221.2320 C   0  0  0  0  0  0  0  0  0  0  0  0
  141.4100   77.2210  220.7010 C   0  0  0  0  0  0  0  0  0  0  0  0
  141.2660   75.9070  221.0670 C   0  0  0  0  0  0  0  0  0  0  0  0
  142.0750   74.9060  220.5670 C   0  0  0  0  0  0  0  0  0  0  0  0
  142.9660   75.2630  219.7430 O   0  0  0  0  0  0  0  0  0  0  0  0
  144.1600   72.7860  220.5790 C   0  0  0  0  0  0  0  0  0  0  0  0
  145.0800   71.8930  220.0960 C   0  0  0  0  0  0  0  0  0  0  0  0
  144.9711   67.7542  220.0717 H   0  0  0  0  0  0  0  0  0  0  0  0
  144.0494   67.8674  218.5340 H   0  0  0  0  0  0  0  0  0  0  0  0
  145.7184   67.2031  218.5340 H   0  0  0  0  0  0  0  0  0  0  0  0
  142.9234   69.7539  218.6133 H   0  0  0  0  0  0  0  0  0  0  0  0
  141.2689   71.3807  219.4938 H   0  0  0  0  0  0  0  0  0  0  0  0
  141.3855   71.1006  221.8073 H   0  0  0  0  0  0  0  0  0  0  0  0
  138.7882   71.7290  222.8608 H   0  0  0  0  0  0  0  0  0  0  0  0
  141.1365   72.8928  225.1249 H   0  0  0  0  0  0  0  0  0  0  0  0
  141.6262   72.0085  227.4007 H   0  0  0  0  0  0  0  0  0  0  0  0
  140.8615   69.6755  227.9924 H   0  0  0  0  0  0  0  0  0  0  0  0
  139.6544   68.3483  226.2682 H   0  0  0  0  0  0  0  0  0  0  0  0
  138.6386   76.2427  223.2324 H   0  0  0  0  0  0  0  0  0  0  0  0
  138.9469   78.6136  222.5354 H   0  0  0  0  0  0  0  0  0  0  0  0
  140.6889   79.2356  220.9346 H   0  0  0  0  0  0  0  0  0  0  0  0
  142.1931   77.5093  219.9843 H   0  0  0  0  0  0  0  0  0  0  0  0
  144.5176   73.6584  221.1457 H   0  0  0  0  0  0  0  0  0  0  0  0
  146.1555   72.0449  220.2699 H   0  0  0  0  0  0  0  0  0  0  0  0
  1  2  1  0
  2  3  2  0
  2  4  2  0
  2  5  1  0
  5  6  2  0
  6  7  1  0
  7  8  2  0
  8  9  1  0
  9 10  1  0
 10 11  1  0
 11 12  2  0
 12 13  1  0
 13 14  2  0
 14 15  1  0
 15 16  2  0
 16 17  1  0
 17 18  2  0
 10 19  2  0
 19 20  1  0
 20 21  2  0
 21 22  1  0
 22 23  2  0
 23 24  1  0
 24 25  2  0
 25 26  1  0
 26 27  2  0
  8 28  1  0
 28 29  2  0
 29  5  1  0
 26  9  1  0
 18 13  1  0
 25 20  1  0
  1 30  1  0
  1 31  1  0
  1 32  1  0
  6 33  1  0
  7 34  1  0
 11 35  1  0
 12 36  1  0
 14 37  1  0
 15 38  1  0
 16 39  1  0
 17 40  1  0
 21 41  1  0
 22 42  1  0
 23 43  1  0
 24 44  1  0
 28 45  1  0
 29 46  1  0
M  END
>  <smiles>  (49) 
CS(=O)(=O)c1ccc(-n2c(/C=C/c3ccccn3)nc3ccccc3c2=O)cc1

>  <score_type>  (49) 
oracle

>  <origin>  (49) 
autodockgpu

>  <m_score__min__energy>  (49) 
-8.7100000000000009

>  <m_primary>  (49) 
energy

>  <rmsd>  (49) 
5.690228496661066

>  <m_score__min__rmsd>  (49) 
5.690228496661066

>  <meeko>  (49) 
{"free_energy": -8.05, "intermolecular_energy": -9.54, "internal_energy": -1.07, "cluster_size": 30, "cluster_id": 1, "rank_in_cluster": 26}

>  <energy>  (49) 
-6.65

>  <cluster_rmsd>  (49) 
0.7

>  <cluster>  (49) 
4

$$$$

     RDKit          3D

 46 49  0  0  0  0  0  0  0  0999 V2000
  136.7850   82.1500  223.2830 C   0  0  0  0  0  0  0  0  0  0  0  0
  137.0850   80.6120  224.1470 S   0  0  0  0  0  0  0  0  0  0  0  0
  137.6430   80.8910  225.5330 O   0  0  0  0  0  0  0  0  0  0  0  0
  135.7800   79.8950  224.3600 O   0  0  0  0  0  0  0  0  0  0  0  0
  138.2250   79.6190  223.2650 C   0  0  0  0  0  0  0  0  0  0  0  0
  137.8620   79.2110  221.9980 C   0  0  0  0  0  0  0  0  0  0  0  0
  138.6970   78.4220  221.2200 C   0  0  0  0  0  0  0  0  0  0  0  0
  139.9240   78.0390  221.7340 C   0  0  0  0  0  0  0  0  0  0  0  0
  140.8520   77.2380  221.0330 N   0  0  0  0  0  0  0  0  0  0  0  0
  141.5650   77.7270  220.0010 C   0  0  0  0  0  0  0  0  0  0  0  0
  141.3990   79.1280  219.5610 C   0  0  0  0  0  0  0  0  0  0  0  0
  142.1910   80.0760  220.0330 C   0  0  0  0  0  0  0  0  0  0  0  0
  142.1740   80.5260  221.3980 C   0  0  0  0  0  0  0  0  0  0  0  0
  142.9950   80.0270  222.3620 C   0  0  0  0  0  0  0  0  0  0  0  0
  142.9540   80.4830  223.6790 C   0  0  0  0  0  0  0  0  0  0  0  0
  142.0370   81.4870  224.0090 C   0  0  0  0  0  0  0  0  0  0  0  0
  141.2180   81.9730  223.0130 C   0  0  0  0  0  0  0  0  0  0  0  0
  141.3030   81.4950  221.7640 N   0  0  0  0  0  0  0  0  0  0  0  0
  142.4410   76.9330  219.3570 N   0  0  0  0  0  0  0  0  0  0  0  0
  142.6700   75.6450  219.6720 C   0  0  0  0  0  0  0  0  0  0  0  0
  143.5810   74.8740  218.9780 C   0  0  0  0  0  0  0  0  0  0  0  0
  143.7480   73.5600  219.3780 C   0  0  0  0  0  0  0  0  0  0  0  0
  143.0420   73.0400  220.4170 C   0  0  0  0  0  0  0  0  0  0  0  0
  142.1340   73.8230  221.1040 C   0  0  0  0  0  0  0  0  0  0  0  0
  141.9390   75.1300  220.7390 C   0  0  0  0  0  0  0  0  0  0  0  0
  141.0450   75.9550  221.3890 C   0  0  0  0  0  0  0  0  0  0  0  0
  140.4030   75.4420  222.3520 O   0  0  0  0  0  0  0  0  0  0  0  0
  140.2700   78.4610  223.0130 C   0  0  0  0  0  0  0  0  0  0  0  0
  139.4470   79.2400  223.7830 C   0  0  0  0  0  0  0  0  0  0  0  0
  136.6277   82.9566  224.0142 H   0  0  0  0  0  0  0  0  0  0  0  0
  137.6530   82.3914  222.6519 H   0  0  0  0  0  0  0  0  0  0  0  0
  135.8899   82.0475  222.6519 H   0  0  0  0  0  0  0  0  0  0  0  0
  136.8861   79.5190  221.5945 H   0  0  0  0  0  0  0  0  0  0  0  0
  138.3894   78.1063  220.2122 H   0  0  0  0  0  0  0  0  0  0  0  0
  140.6119   79.3838  218.8365 H   0  0  0  0  0  0  0  0  0  0  0  0
  142.9042   80.5475  219.3409 H   0  0  0  0  0  0  0  0  0  0  0  0
  143.7138   79.2388  222.0936 H   0  0  0  0  0  0  0  0  0  0  0  0
  143.6271   80.0631  224.4410 H   0  0  0  0  0  0  0  0  0  0  0  0
  141.9717   81.8776  225.0352 H   0  0  0  0  0  0  0  0  0  0  0  0
  140.4870   82.7614  223.2456 H   0  0  0  0  0  0  0  0  0  0  0  0
  144.1542   75.2899  218.1363 H   0  0  0  0  0  0  0  0  0  0  0  0
  144.4676   72.9222  218.8438 H   0  0  0  0  0  0  0  0  0  0  0  0
  143.1943   71.9913  220.7121 H   0  0  0  0  0  0  0  0  0  0  0  0
  141.5669   73.3970  221.9448 H   0  0  0  0  0  0  0  0  0  0  0  0
  141.2443   78.1570  223.4233 H   0  0  0  0  0  0  0  0  0  0  0  0
  139.7531   79.5562  224.7911 H   0  0  0  0  0  0  0  0  0  0  0  0
  1  2  1  0
  2  3  2  0
  2  4  2  0
  2  5  1  0
  5  6  2  0
  6  7  1  0
  7  8  2  0
  8  9  1  0
  9 10  1  0
 10 11  1  0
 11 12  2  0
 12 13  1  0
 13 14  2  0
 14 15  1  0
 15 16  2  0
 16 17  1  0
 17 18  2  0
 10 19  2  0
 19 20  1  0
 20 21  2  0
 21 22  1  0
 22 23  2  0
 23 24  1  0
 24 25  2  0
 25 26  1  0
 26 27  2  0
  8 28  1  0
 28 29  2  0
 29  5  1  0
 26  9  1  0
 18 13  1  0
 25 20  1  0
  1 30  1  0
  1 31  1  0
  1 32  1  0
  6 33  1  0
  7 34  1  0
 11 35  1  0
 12 36  1  0
 14 37  1  0
 15 38  1  0
 16 39  1  0
 17 40  1  0
 21 41  1  0
 22 42  1  0
 23 43  1  0
 24 44  1  0
 28 45  1  0
 29 46  1  0
M  END
>  <smiles>  (50) 
CS(=O)(=O)c1ccc(-n2c(/C=C/c3ccccn3)nc3ccccc3c2=O)cc1

>  <score_type>  (50) 
oracle

>  <origin>  (50) 
autodockgpu

>  <m_score__min__energy>  (50) 
-8.7100000000000009

>  <m_primary>  (50) 
energy

>  <rmsd>  (50) 
7.216287070014132

>  <m_score__min__rmsd>  (50) 
7.216287070014132

>  <meeko>  (50) 
{"free_energy": -6.73, "intermolecular_energy": -8.23, "internal_energy": -2.11, "cluster_size": 15, "cluster_id": 4, "rank_in_cluster": 6}

>  <energy>  (50) 
-6.78

>  <cluster_rmsd>  (50) 
0.0

>  <cluster>  (50) 
5

$$$$
