
     RDKit          3D

 61 64  0  0  0  0  0  0  0  0999 V2000
  144.8350   73.7700  217.2050 C   0  0  0  0  0  0  0  0  0  0  0  0
  145.5900   72.6120  217.6300 N   0  0  0  0  0  0  0  0  0  0  0  0
  144.9260   71.4280  217.1310 C   0  0  0  0  0  0  0  0  0  0  0  0
  145.6510   72.4850  219.3520 S   0  0  0  0  0  0  0  0  0  0  0  0
  146.6300   73.4910  219.8730 O   0  0  0  0  0  0  0  0  0  0  0  0
  146.2100   71.1260  219.7110 O   0  0  0  0  0  0  0  0  0  0  0  0
  144.0880   72.7110  220.0970 C   0  0  0  0  0  0  0  0  0  0  0  0
  143.3120   71.6620  220.5400 C   0  0  0  0  0  0  0  0  0  0  0  0
  142.0800   71.8550  221.1290 C   0  0  0  0  0  0  0  0  0  0  0  0
  141.5580   73.1450  221.3020 C   0  0  0  0  0  0  0  0  0  0  0  0
  140.2630   73.3290  221.9220 C   0  0  0  0  0  0  0  0  0  0  0  0
  139.3550   72.3800  222.0630 C   0  0  0  0  0  0  0  0  0  0  0  0
  139.4450   71.4520  223.1910 C   0  0  0  0  0  0  0  0  0  0  0  0
  140.1020   71.8350  224.3000 N   0  0  0  0  0  0  0  0  0  0  0  0
  140.2530   71.0850  225.4010 C   0  0  0  0  0  0  0  0  0  0  0  0
  140.9360   71.5090  226.5240 C   0  0  0  0  0  0  0  0  0  0  0  0
  141.0680   70.6930  227.6450 C   0  0  0  0  0  0  0  0  0  0  0  0
  140.4980   69.4420  227.6110 C   0  0  0  0  0  0  0  0  0  0  0  0
  139.8220   69.0230  226.4950 C   0  0  0  0  0  0  0  0  0  0  0  0
  139.6880   69.8270  225.3830 C   0  0  0  0  0  0  0  0  0  0  0  0
  139.0230   69.4350  224.2640 C   0  0  0  0  0  0  0  0  0  0  0  0
  138.5120   68.2630  224.2830 O   0  0  0  0  0  0  0  0  0  0  0  0
  138.8850   70.2260  223.1550 N   0  0  0  0  0  0  0  0  0  0  0  0
  138.1830   69.7680  222.0330 C   0  0  0  0  0  0  0  0  0  0  0  0
  138.8160   69.2380  220.8420 C   0  0  0  0  0  0  0  0  0  0  0  0
  140.3180   69.1540  220.9980 C   0  0  0  0  0  0  0  0  0  0  0  0
  141.0030   68.6780  219.7230 C   0  0  0  0  0  0  0  0  0  0  0  0
  140.7950   69.7730  218.6980 C   0  0  0  0  0  0  0  0  0  0  0  0
  139.2850   69.8320  218.4570 C   0  0  0  0  0  0  0  0  0  0  0  0
  138.6450   70.3100  219.7410 C   0  0  0  0  0  0  0  0  0  0  0  0
  142.3490   74.1720  220.8530 C   0  0  0  0  0  0  0  0  0  0  0  0
  143.5860   73.9850  220.2610 C   0  0  0  0  0  0  0  0  0  0  0  0
  144.4771   74.3189  218.0886 H   0  0  0  0  0  0  0  0  0  0  0  0
  145.4792   74.4265  216.6016 H   0  0  0  0  0  0  0  0  0  0  0  0
  143.9745   73.4454  216.6016 H   0  0  0  0  0  0  0  0  0  0  0  0
  144.5826   70.8157  217.9779 H   0  0  0  0  0  0  0  0  0  0  0  0
  144.0618   71.7232  216.5178 H   0  0  0  0  0  0  0  0  0  0  0  0
  145.6285   70.8446  216.5178 H   0  0  0  0  0  0  0  0  0  0  0  0
  143.6881   70.6353  220.4197 H   0  0  0  0  0  0  0  0  0  0  0  0
  141.4987   70.9848  221.4678 H   0  0  0  0  0  0  0  0  0  0  0  0
  140.0173   74.3312  222.3031 H   0  0  0  0  0  0  0  0  0  0  0  0
  138.5349   72.2877  221.3358 H   0  0  0  0  0  0  0  0  0  0  0  0
  141.3855   72.5129  226.5333 H   0  0  0  0  0  0  0  0  0  0  0  0
  141.6140   71.0402  228.5345 H   0  0  0  0  0  0  0  0  0  0  0  0
  140.5849   68.7758  228.4820 H   0  0  0  0  0  0  0  0  0  0  0  0
  139.3743   68.0183  226.4861 H   0  0  0  0  0  0  0  0  0  0  0  0
  137.5224   68.9689  222.4003 H   0  0  0  0  0  0  0  0  0  0  0  0
  137.7673   70.7105  221.6472 H   0  0  0  0  0  0  0  0  0  0  0  0
  138.3776   68.2511  220.6326 H   0  0  0  0  0  0  0  0  0  0  0  0
  140.7037   70.1512  221.2563 H   0  0  0  0  0  0  0  0  0  0  0  0
  140.5349   68.4233  221.7911 H   0  0  0  0  0  0  0  0  0  0  0  0
  142.0771   68.5225  219.9024 H   0  0  0  0  0  0  0  0  0  0  0  0
  140.5860   67.7206  219.3772 H   0  0  0  0  0  0  0  0  0  0  0  0
  141.1596   70.7357  219.0857 H   0  0  0  0  0  0  0  0  0  0  0  0
  141.3472   69.5698  217.7686 H   0  0  0  0  0  0  0  0  0  0  0  0
  139.0610   70.5340  217.6403 H   0  0  0  0  0  0  0  0  0  0  0  0
  138.8964   68.8432  218.1718 H   0  0  0  0  0  0  0  0  0  0  0  0
  139.1270   71.2447  220.0634 H   0  0  0  0  0  0  0  0  0  0  0  0
  137.5729   70.4861  219.5689 H   0  0  0  0  0  0  0  0  0  0  0  0
  141.9795   75.2015  220.9700 H   0  0  0  0  0  0  0  0  0  0  0  0
  144.1693   74.8534  219.9210 H   0  0  0  0  0  0  0  0  0  0  0  0
  1  2  1  0
  2  3  1  0
  2  4  1  0
  4  5  2  0
  4  6  2  0
  4  7  1  0
  7  8  2  0
  8  9  1  0
  9 10  2  0
 10 11  1  0
 11 12  2  0
 12 13  1  0
 13 14  2  0
 14 15  1  0
 15 16  2  0
 16 17  1  0
 17 18  2  0
 18 19  1  0
 19 20  2  0
 20 21  1  0
 21 22  2  0
 21 23  1  0
 23 24  1  0
 24 25  1  0
 25 26  1  0
 26 27  1  0
 27 28  1  0
 28 29  1  0
 29 30  1  0
 10 31  1  0
 31 32  2  0
 32  7  1  0
 23 13  1  0
 30 25  1  0
 20 15  1  0
  1 33  1  0
  1 34  1  0
  1 35  1  0
  3 36  1  0
  3 37  1  0
  3 38  1  0
  8 39  1  0
  9 40  1  0
 11 41  1  0
 12 42  1  0
 16 43  1  0
 17 44  1  0
 18 45  1  0
 19 46  1  0
 24 47  1  0
 24 48  1  0
 25 49  1  0
 26 50  1  0
 26 51  1  0
 27 52  1  0
 27 53  1  0
 28 54  1  0
 28 55  1  0
 29 56  1  0
 29 57  1  0
 30 58  1  0
 30 59  1  0
 31 60  1  0
 32 61  1  0
M  END
>  <smiles>  (1) 
CN(C)S(=O)(=O)c1ccc(/C=C/c2nc3ccccc3c(=O)n2CC2CCCCC2)cc1

>  <score_type>  (1) 
oracle

>  <origin>  (1) 
autodockgpu

>  <m_score__min__energy>  (1) 
-9.4499999999999993

>  <m_primary>  (1) 
energy

>  <rmsd>  (1) 
10.575066922285751

>  <m_score__min__rmsd>  (1) 
10.575066922285751

>  <meeko>  (1) 
{"free_energy": -7.46, "intermolecular_energy": -9.55, "internal_energy": -2.36, "cluster_size": 6, "cluster_id": 5, "rank_in_cluster": 6}

>  <energy>  (1) 
-9.45

>  <cluster_rmsd>  (1) 
0.0

>  <cluster>  (1) 
1

$$$$

     RDKit          3D

 61 64  0  0  0  0  0  0  0  0999 V2000
  133.9370   75.6220  226.5310 C   0  0  0  0  0  0  0  0  0  0  0  0
  134.6950   74.4780  226.0750 N   0  0  0  0  0  0  0  0  0  0  0  0
  135.2070   74.7700  224.7540 C   0  0  0  0  0  0  0  0  0  0  0  0
  133.7080   73.0660  225.9480 S   0  0  0  0  0  0  0  0  0  0  0  0
  132.4290   73.4350  225.2600 O   0  0  0  0  0  0  0  0  0  0  0  0
  133.3260   72.6230  227.3420 O   0  0  0  0  0  0  0  0  0  0  0  0
  134.5050   71.7660  225.0980 C   0  0  0  0  0  0  0  0  0  0  0  0
  134.8530   71.8450  223.7670 C   0  0  0  0  0  0  0  0  0  0  0  0
  135.4840   70.8100  223.1090 C   0  0  0  0  0  0  0  0  0  0  0  0
  135.8000   69.6180  223.7750 C   0  0  0  0  0  0  0  0  0  0  0  0
  136.4630   68.5420  223.0680 C   0  0  0  0  0  0  0  0  0  0  0  0
  137.7670   68.3320  223.0690 C   0  0  0  0  0  0  0  0  0  0  0  0
  138.6000   68.9540  224.0970 C   0  0  0  0  0  0  0  0  0  0  0  0
  138.7800   68.3150  225.2670 N   0  0  0  0  0  0  0  0  0  0  0  0
  139.5190   68.7730  226.2870 C   0  0  0  0  0  0  0  0  0  0  0  0
  139.6820   68.0910  227.4760 C   0  0  0  0  0  0  0  0  0  0  0  0
  140.4620   68.6070  228.5090 C   0  0  0  0  0  0  0  0  0  0  0  0
  141.0730   69.8250  228.3190 C   0  0  0  0  0  0  0  0  0  0  0  0
  140.9090   70.5010  227.1380 C   0  0  0  0  0  0  0  0  0  0  0  0
  140.1390   69.9940  226.1120 C   0  0  0  0  0  0  0  0  0  0  0  0
  139.9600   70.6430  224.9320 C   0  0  0  0  0  0  0  0  0  0  0  0
  140.5490   71.7710  224.8050 O   0  0  0  0  0  0  0  0  0  0  0  0
  139.1980   70.1480  223.9080 N   0  0  0  0  0  0  0  0  0  0  0  0
  139.0560   70.8630  222.7120 C   0  0  0  0  0  0  0  0  0  0  0  0
  138.7140   72.2700  222.6450 C   0  0  0  0  0  0  0  0  0  0  0  0
  137.6480   72.5370  221.6050 C   0  0  0  0  0  0  0  0  0  0  0  0
  137.3400   74.0220  221.4660 C   0  0  0  0  0  0  0  0  0  0  0  0
  138.5880   74.6600  220.8930 C   0  0  0  0  0  0  0  0  0  0  0  0
  139.6710   74.4770  221.9580 C   0  0  0  0  0  0  0  0  0  0  0  0
  139.9500   72.9950  222.0630 C   0  0  0  0  0  0  0  0  0  0  0  0
  135.4440   69.5640  225.0990 C   0  0  0  0  0  0  0  0  0  0  0  0
  134.8100   70.5970  225.7660 C   0  0  0  0  0  0  0  0  0  0  0  0
  133.9254   75.6394  227.6308 H   0  0  0  0  0  0  0  0  0  0  0  0
  134.4032   76.5445  226.1545 H   0  0  0  0  0  0  0  0  0  0  0  0
  132.9058   75.5523  226.1545 H   0  0  0  0  0  0  0  0  0  0  0  0
  136.1595   75.3132  224.8417 H   0  0  0  0  0  0  0  0  0  0  0  0
  135.3704   73.8292  224.2079 H   0  0  0  0  0  0  0  0  0  0  0  0
  134.4805   75.3896  224.2079 H   0  0  0  0  0  0  0  0  0  0  0  0
  134.6196   72.7647  223.2104 H   0  0  0  0  0  0  0  0  0  0  0  0
  135.7430   70.9218  222.0458 H   0  0  0  0  0  0  0  0  0  0  0  0
  135.8351   67.8495  222.4882 H   0  0  0  0  0  0  0  0  0  0  0  0
  138.2242   67.6921  222.2999 H   0  0  0  0  0  0  0  0  0  0  0  0
  139.1853   67.1189  227.6110 H   0  0  0  0  0  0  0  0  0  0  0  0
  140.5861   68.0547  229.4522 H   0  0  0  0  0  0  0  0  0  0  0  0
  141.6947   70.2573  229.1169 H   0  0  0  0  0  0  0  0  0  0  0  0
  141.4047   71.4739  227.0048 H   0  0  0  0  0  0  0  0  0  0  0  0
  140.0191   70.7650  222.1898 H   0  0  0  0  0  0  0  0  0  0  0  0
  138.1433   70.4060  222.3020 H   0  0  0  0  0  0  0  0  0  0  0  0
  138.3888   72.5901  223.6459 H   0  0  0  0  0  0  0  0  0  0  0  0
  137.9965   72.1550  220.6341 H   0  0  0  0  0  0  0  0  0  0  0  0
  136.7268   72.0295  221.9272 H   0  0  0  0  0  0  0  0  0  0  0  0
  136.4882   74.1729  220.7866 H   0  0  0  0  0  0  0  0  0  0  0  0
  137.0702   74.4680  222.4347 H   0  0  0  0  0  0  0  0  0  0  0  0
  138.8804   74.1593  219.9582 H   0  0  0  0  0  0  0  0  0  0  0  0
  138.4286   75.7217  220.6535 H   0  0  0  0  0  0  0  0  0  0  0  0
  140.5851   75.0123  221.6616 H   0  0  0  0  0  0  0  0  0  0  0  0
  139.3388   74.8810  222.9257 H   0  0  0  0  0  0  0  0  0  0  0  0
  140.1720   72.5933  221.0633 H   0  0  0  0  0  0  0  0  0  0  0  0
  140.8122   72.8335  222.7268 H   0  0  0  0  0  0  0  0  0  0  0  0
  135.6758   68.6477  225.6618 H   0  0  0  0  0  0  0  0  0  0  0  0
  134.5489   70.4869  226.8289 H   0  0  0  0  0  0  0  0  0  0  0  0
  1  2  1  0
  2  3  1  0
  2  4  1  0
  4  5  2  0
  4  6  2  0
  4  7  1  0
  7  8  2  0
  8  9  1  0
  9 10  2  0
 10 11  1  0
 11 12  2  0
 12 13  1  0
 13 14  2  0
 14 15  1  0
 15 16  2  0
 16 17  1  0
 17 18  2  0
 18 19  1  0
 19 20  2  0
 20 21  1  0
 21 22  2  0
 21 23  1  0
 23 24  1  0
 24 25  1  0
 25 26  1  0
 26 27  1  0
 27 28  1  0
 28 29  1  0
 29 30  1  0
 10 31  1  0
 31 32  2  0
 32  7  1  0
 23 13  1  0
 30 25  1  0
 20 15  1  0
  1 33  1  0
  1 34  1  0
  1 35  1  0
  3 36  1  0
  3 37  1  0
  3 38  1  0
  8 39  1  0
  9 40  1  0
 11 41  1  0
 12 42  1  0
 16 43  1  0
 17 44  1  0
 18 45  1  0
 19 46  1  0
 24 47  1  0
 24 48  1  0
 25 49  1  0
 26 50  1  0
 26 51  1  0
 27 52  1  0
 27 53  1  0
 28 54  1  0
 28 55  1  0
 29 56  1  0
 29 57  1  0
 30 58  1  0
 30 59  1  0
 31 60  1  0
 32 61  1  0
M  END
>  <smiles>  (2) 
CN(C)S(=O)(=O)c1ccc(/C=C/c2nc3ccccc3c(=O)n2CC2CCCCC2)cc1

>  <score_type>  (2) 
oracle

>  <origin>  (2) 
autodockgpu

>  <m_score__min__energy>  (2) 
-9.4499999999999993

>  <m_primary>  (2) 
energy

>  <rmsd>  (2) 
10.358240416574406

>  <m_score__min__rmsd>  (2) 
10.358240416574406

>  <meeko>  (2) 
{"free_energy": -7.71, "intermolecular_energy": -9.79, "internal_energy": -2.32, "cluster_size": 11, "cluster_id": 4, "rank_in_cluster": 10}

>  <energy>  (2) 
-9.45

>  <cluster_rmsd>  (2) 
0.78

>  <cluster>  (2) 
1

$$$$

     RDKit          3D

 61 64  0  0  0  0  0  0  0  0999 V2000
  146.0790   73.7820  216.7410 C   0  0  0  0  0  0  0  0  0  0  0  0
  145.5960   72.6030  217.4240 N   0  0  0  0  0  0  0  0  0  0  0  0
  144.2070   72.4090  217.0690 C   0  0  0  0  0  0  0  0  0  0  0  0
  145.6710   72.7820  219.1400 S   0  0  0  0  0  0  0  0  0  0  0  0
  146.7780   73.7350  219.4750 O   0  0  0  0  0  0  0  0  0  0  0  0
  146.0610   71.4520  219.7440 O   0  0  0  0  0  0  0  0  0  0  0  0
  144.1620   73.3360  219.8230 C   0  0  0  0  0  0  0  0  0  0  0  0
  143.8530   74.6710  219.9700 C   0  0  0  0  0  0  0  0  0  0  0  0
  142.6560   75.0940  220.5090 C   0  0  0  0  0  0  0  0  0  0  0  0
  141.6920   74.1710  220.9380 C   0  0  0  0  0  0  0  0  0  0  0  0
  140.4410   74.6330  221.5020 C   0  0  0  0  0  0  0  0  0  0  0  0
  139.7790   75.6980  221.0890 C   0  0  0  0  0  0  0  0  0  0  0  0
  140.3710   77.0270  221.2460 C   0  0  0  0  0  0  0  0  0  0  0  0
  140.8330   77.3970  222.4530 N   0  0  0  0  0  0  0  0  0  0  0  0
  141.3990   78.5800  222.7290 C   0  0  0  0  0  0  0  0  0  0  0  0
  141.8630   78.9290  223.9820 C   0  0  0  0  0  0  0  0  0  0  0  0
  142.4450   80.1720  224.2210 C   0  0  0  0  0  0  0  0  0  0  0  0
  142.5490   81.0570  223.1720 C   0  0  0  0  0  0  0  0  0  0  0  0
  142.0860   80.7080  221.9300 C   0  0  0  0  0  0  0  0  0  0  0  0
  141.5110   79.4790  221.6870 C   0  0  0  0  0  0  0  0  0  0  0  0
  141.0450   79.1090  220.4660 C   0  0  0  0  0  0  0  0  0  0  0  0
  141.1640   79.9670  219.5240 O   0  0  0  0  0  0  0  0  0  0  0  0
  140.4710   77.8910  220.2160 N   0  0  0  0  0  0  0  0  0  0  0  0
  140.0140   77.5660  218.9320 C   0  0  0  0  0  0  0  0  0  0  0  0
  140.8820   77.1950  217.8330 C   0  0  0  0  0  0  0  0  0  0  0  0
  140.9110   75.6970  217.6260 C   0  0  0  0  0  0  0  0  0  0  0  0
  141.8840   75.2860  216.5270 C   0  0  0  0  0  0  0  0  0  0  0  0
  143.2680   75.6190  217.0440 C   0  0  0  0  0  0  0  0  0  0  0  0
  143.3000   77.1410  217.1910 C   0  0  0  0  0  0  0  0  0  0  0  0
  142.3260   77.5060  218.2890 C   0  0  0  0  0  0  0  0  0  0  0  0
  142.0230   72.8490  220.7820 C   0  0  0  0  0  0  0  0  0  0  0  0
  143.2220   72.4170  220.2420 C   0  0  0  0  0  0  0  0  0  0  0  0
  146.3873   74.5344  217.4818 H   0  0  0  0  0  0  0  0  0  0  0  0
  146.9397   73.5139  216.1107 H   0  0  0  0  0  0  0  0  0  0  0  0
  145.2775   74.1948  216.1107 H   0  0  0  0  0  0  0  0  0  0  0  0
  143.6029   72.3246  217.9844 H   0  0  0  0  0  0  0  0  0  0  0  0
  143.8567   73.2669  216.4763 H   0  0  0  0  0  0  0  0  0  0  0  0
  144.1052   71.4879  216.4763 H   0  0  0  0  0  0  0  0  0  0  0  0
  144.5859   75.4248  219.6465 H   0  0  0  0  0  0  0  0  0  0  0  0
  142.4548   76.1713  220.6036 H   0  0  0  0  0  0  0  0  0  0  0  0
  140.0116   74.0555  222.3339 H   0  0  0  0  0  0  0  0  0  0  0  0
  138.7862   75.5867  220.6286 H   0  0  0  0  0  0  0  0  0  0  0  0
  141.7711   78.2099  224.8093 H   0  0  0  0  0  0  0  0  0  0  0  0
  142.8122   80.4394  225.2228 H   0  0  0  0  0  0  0  0  0  0  0  0
  143.0043   82.0457  223.3306 H   0  0  0  0  0  0  0  0  0  0  0  0
  142.1758   81.4289  221.1040 H   0  0  0  0  0  0  0  0  0  0  0  0
  139.3246   76.7195  219.0663 H   0  0  0  0  0  0  0  0  0  0  0  0
  139.6463   78.5437  218.5872 H   0  0  0  0  0  0  0  0  0  0  0  0
  140.5336   77.7195  216.9311 H   0  0  0  0  0  0  0  0  0  0  0  0
  141.2154   75.2153  218.5669 H   0  0  0  0  0  0  0  0  0  0  0  0
  139.9032   75.3788  217.3209 H   0  0  0  0  0  0  0  0  0  0  0  0
  141.8006   74.2075  216.3272 H   0  0  0  0  0  0  0  0  0  0  0  0
  141.6703   75.8114  215.5845 H   0  0  0  0  0  0  0  0  0  0  0  0
  143.4403   75.1360  218.0172 H   0  0  0  0  0  0  0  0  0  0  0  0
  144.0532   75.2605  216.3621 H   0  0  0  0  0  0  0  0  0  0  0  0
  144.3136   77.4721  217.4612 H   0  0  0  0  0  0  0  0  0  0  0  0
  143.0229   77.6300  216.2454 H   0  0  0  0  0  0  0  0  0  0  0  0
  142.5577   76.9217  219.1917 H   0  0  0  0  0  0  0  0  0  0  0  0
  142.4137   78.5800  218.5099 H   0  0  0  0  0  0  0  0  0  0  0  0
  141.2950   72.0899  221.1040 H   0  0  0  0  0  0  0  0  0  0  0  0
  143.4256   71.3402  220.1468 H   0  0  0  0  0  0  0  0  0  0  0  0
  1  2  1  0
  2  3  1  0
  2  4  1  0
  4  5  2  0
  4  6  2  0
  4  7  1  0
  7  8  2  0
  8  9  1  0
  9 10  2  0
 10 11  1  0
 11 12  2  0
 12 13  1  0
 13 14  2  0
 14 15  1  0
 15 16  2  0
 16 17  1  0
 17 18  2  0
 18 19  1  0
 19 20  2  0
 20 21  1  0
 21 22  2  0
 21 23  1  0
 23 24  1  0
 24 25  1  0
 25 26  1  0
 26 27  1  0
 27 28  1  0
 28 29  1  0
 29 30  1  0
 10 31  1  0
 31 32  2  0
 32  7  1  0
 23 13  1  0
 30 25  1  0
 20 15  1  0
  1 33  1  0
  1 34  1  0
  1 35  1  0
  3 36  1  0
  3 37  1  0
  3 38  1  0
  8 39  1  0
  9 40  1  0
 11 41  1  0
 12 42  1  0
 16 43  1  0
 17 44  1  0
 18 45  1  0
 19 46  1  0
 24 47  1  0
 24 48  1  0
 25 49  1  0
 26 50  1  0
 26 51  1  0
 27 52  1  0
 27 53  1  0
 28 54  1  0
 28 55  1  0
 29 56  1  0
 29 57  1  0
 30 58  1  0
 30 59  1  0
 31 60  1  0
 32 61  1  0
M  END
>  <smiles>  (3) 
CN(C)S(=O)(=O)c1ccc(/C=C/c2nc3ccccc3c(=O)n2CC2CCCCC2)cc1

>  <score_type>  (3) 
oracle

>  <origin>  (3) 
autodockgpu

>  <m_score__min__energy>  (3) 
-9.4499999999999993

>  <m_primary>  (3) 
energy

>  <rmsd>  (3) 
3.6587337265696362

>  <m_score__min__rmsd>  (3) 
3.6587337265696362

>  <meeko>  (3) 
{"free_energy": -7.04, "intermolecular_energy": -9.13, "internal_energy": -2.71, "cluster_size": 1, "cluster_id": 10, "rank_in_cluster": 1}

>  <energy>  (3) 
-8.8

>  <cluster_rmsd>  (3) 
1.45

>  <cluster>  (3) 
1

$$$$

     RDKit          3D

 61 64  0  0  0  0  0  0  0  0999 V2000
  131.4670   72.2630  225.2680 C   0  0  0  0  0  0  0  0  0  0  0  0
  131.9320   71.6610  226.4980 N   0  0  0  0  0  0  0  0  0  0  0  0
  131.2560   72.3050  227.6030 C   0  0  0  0  0  0  0  0  0  0  0  0
  133.6290   71.8950  226.7230 S   0  0  0  0  0  0  0  0  0  0  0  0
  133.9950   71.4500  228.1060 O   0  0  0  0  0  0  0  0  0  0  0  0
  133.9190   73.3780  226.6650 O   0  0  0  0  0  0  0  0  0  0  0  0
  134.5860   71.0460  225.5350 C   0  0  0  0  0  0  0  0  0  0  0  0
  135.1940   71.6790  224.4730 C   0  0  0  0  0  0  0  0  0  0  0  0
  135.9500   70.9960  223.5430 C   0  0  0  0  0  0  0  0  0  0  0  0
  136.1310   69.6100  223.6400 C   0  0  0  0  0  0  0  0  0  0  0  0
  136.9280   68.9090  222.6540 C   0  0  0  0  0  0  0  0  0  0  0  0
  138.2030   68.6000  222.8000 C   0  0  0  0  0  0  0  0  0  0  0  0
  138.9430   69.1000  223.9590 C   0  0  0  0  0  0  0  0  0  0  0  0
  139.1200   68.2910  225.0180 N   0  0  0  0  0  0  0  0  0  0  0  0
  139.7790   68.6240  226.1370 C   0  0  0  0  0  0  0  0  0  0  0  0
  139.9420   67.7680  227.2090 C   0  0  0  0  0  0  0  0  0  0  0  0
  140.6350   68.1600  228.3510 C   0  0  0  0  0  0  0  0  0  0  0  0
  141.1600   69.4300  228.3940 C   0  0  0  0  0  0  0  0  0  0  0  0
  140.9960   70.2780  227.3290 C   0  0  0  0  0  0  0  0  0  0  0  0
  140.3110   69.8960  226.1950 C   0  0  0  0  0  0  0  0  0  0  0  0
  140.1340   70.7170  225.1270 C   0  0  0  0  0  0  0  0  0  0  0  0
  140.6410   71.8880  225.2150 O   0  0  0  0  0  0  0  0  0  0  0  0
  139.4560   70.3460  223.9960 N   0  0  0  0  0  0  0  0  0  0  0  0
  139.3110   71.2370  222.9250 C   0  0  0  0  0  0  0  0  0  0  0  0
  140.3040   72.2240  222.5530 C   0  0  0  0  0  0  0  0  0  0  0  0
  139.6650   73.4750  221.9920 C   0  0  0  0  0  0  0  0  0  0  0  0
  140.7010   74.4880  221.5180 C   0  0  0  0  0  0  0  0  0  0  0  0
  141.3940   73.8580  220.3290 C   0  0  0  0  0  0  0  0  0  0  0  0
  142.1190   72.6270  220.8770 C   0  0  0  0  0  0  0  0  0  0  0  0
  141.0590   71.6490  221.3320 C   0  0  0  0  0  0  0  0  0  0  0  0
  135.5170   69.0020  224.7050 C   0  0  0  0  0  0  0  0  0  0  0  0
  134.7570   69.6810  225.6420 C   0  0  0  0  0  0  0  0  0  0  0  0
  130.8099   73.1137  225.5017 H   0  0  0  0  0  0  0  0  0  0  0  0
  132.3295   72.6157  224.6834 H   0  0  0  0  0  0  0  0  0  0  0  0
  130.9079   71.5176  224.6834 H   0  0  0  0  0  0  0  0  0  0  0  0
  131.6582   71.9218  228.5524 H   0  0  0  0  0  0  0  0  0  0  0  0
  131.4174   73.3917  227.5484 H   0  0  0  0  0  0  0  0  0  0  0  0
  130.1784   72.0911  227.5484 H   0  0  0  0  0  0  0  0  0  0  0  0
  135.0724   72.7667  224.3629 H   0  0  0  0  0  0  0  0  0  0  0  0
  136.4173   71.5472  222.7136 H   0  0  0  0  0  0  0  0  0  0  0  0
  136.4352   68.6129  221.7162 H   0  0  0  0  0  0  0  0  0  0  0  0
  138.7072   67.9691  222.0532 H   0  0  0  0  0  0  0  0  0  0  0  0
  139.5152   66.7554  227.1592 H   0  0  0  0  0  0  0  0  0  0  0  0
  140.7596   67.4702  229.1987 H   0  0  0  0  0  0  0  0  0  0  0  0
  141.7123   69.7662  229.2839 H   0  0  0  0  0  0  0  0  0  0  0  0
  141.4225   71.2906  227.3807 H   0  0  0  0  0  0  0  0  0  0  0  0
  139.1649   70.6100  222.0331 H   0  0  0  0  0  0  0  0  0  0  0  0
  138.5029   71.8833  223.2982 H   0  0  0  0  0  0  0  0  0  0  0  0
  140.9133   72.4463  223.4414 H   0  0  0  0  0  0  0  0  0  0  0  0
  139.0272   73.1957  221.1404 H   0  0  0  0  0  0  0  0  0  0  0  0
  139.0776   73.9435  222.7954 H   0  0  0  0  0  0  0  0  0  0  0  0
  140.2090   75.4256  221.2199 H   0  0  0  0  0  0  0  0  0  0  0  0
  141.4172   74.7325  222.3163 H   0  0  0  0  0  0  0  0  0  0  0  0
  140.6569   73.5619  219.5680 H   0  0  0  0  0  0  0  0  0  0  0  0
  142.0914   74.5590  219.8471 H   0  0  0  0  0  0  0  0  0  0  0  0
  142.7379   72.1725  220.0893 H   0  0  0  0  0  0  0  0  0  0  0  0
  142.7799   72.9027  221.7120 H   0  0  0  0  0  0  0  0  0  0  0  0
  140.3472   71.4744  220.5117 H   0  0  0  0  0  0  0  0  0  0  0  0
  141.5383   70.7004  221.6156 H   0  0  0  0  0  0  0  0  0  0  0  0
  135.6349   67.9145  224.8211 H   0  0  0  0  0  0  0  0  0  0  0  0
  134.2891   69.1319  226.4724 H   0  0  0  0  0  0  0  0  0  0  0  0
  1  2  1  0
  2  3  1  0
  2  4  1  0
  4  5  2  0
  4  6  2  0
  4  7  1  0
  7  8  2  0
  8  9  1  0
  9 10  2  0
 10 11  1  0
 11 12  2  0
 12 13  1  0
 13 14  2  0
 14 15  1  0
 15 16  2  0
 16 17  1  0
 17 18  2  0
 18 19  1  0
 19 20  2  0
 20 21  1  0
 21 22  2  0
 21 23  1  0
 23 24  1  0
 24 25  1  0
 25 26  1  0
 26 27  1  0
 27 28  1  0
 28 29  1  0
 29 30  1  0
 10 31  1  0
 31 32  2  0
 32  7  1  0
 23 13  1  0
 30 25  1  0
 20 15  1  0
  1 33  1  0
  1 34  1  0
  1 35  1  0
  3 36  1  0
  3 37  1  0
  3 38  1  0
  8 39  1  0
  9 40  1  0
 11 41  1  0
 12 42  1  0
 16 43  1  0
 17 44  1  0
 18 45  1  0
 19 46  1  0
 24 47  1  0
 24 48  1  0
 25 49  1  0
 26 50  1  0
 26 51  1  0
 27 52  1  0
 27 53  1  0
 28 54  1  0
 28 55  1  0
 29 56  1  0
 29 57  1  0
 30 58  1  0
 30 59  1  0
 31 60  1  0
 32 61  1  0
M  END
>  <smiles>  (4) 
CN(C)S(=O)(=O)c1ccc(/C=C/c2nc3ccccc3c(=O)n2CC2CCCCC2)cc1

>  <score_type>  (4) 
oracle

>  <origin>  (4) 
autodockgpu

>  <m_score__min__energy>  (4) 
-9.4499999999999993

>  <m_primary>  (4) 
energy

>  <rmsd>  (4) 
10.339443704416661

>  <m_score__min__rmsd>  (4) 
10.339443704416661

>  <meeko>  (4) 
{"free_energy": -8.52, "intermolecular_energy": -10.61, "internal_energy": -1.84, "cluster_size": 11, "cluster_id": 4, "rank_in_cluster": 2}

>  <energy>  (4) 
-8.35

>  <cluster_rmsd>  (4) 
0.85

>  <cluster>  (4) 
1

$$$$

     RDKit          3D

 61 64  0  0  0  0  0  0  0  0999 V2000
  141.0250   67.9030  226.5470 C   0  0  0  0  0  0  0  0  0  0  0  0
  141.3640   68.7860  227.6410 N   0  0  0  0  0  0  0  0  0  0  0  0
  140.9900   68.1390  228.8790 C   0  0  0  0  0  0  0  0  0  0  0  0
  140.4960   70.2760  227.5520 S   0  0  0  0  0  0  0  0  0  0  0  0
  141.3680   71.3720  228.0830 O   0  0  0  0  0  0  0  0  0  0  0  0
  139.3070   70.1930  228.4840 O   0  0  0  0  0  0  0  0  0  0  0  0
  139.9660   70.6490  225.9310 C   0  0  0  0  0  0  0  0  0  0  0  0
  138.8370   70.0960  225.3670 C   0  0  0  0  0  0  0  0  0  0  0  0
  138.4290   70.4020  224.0850 C   0  0  0  0  0  0  0  0  0  0  0  0
  139.1580   71.2990  223.2910 C   0  0  0  0  0  0  0  0  0  0  0  0
  138.7150   71.6080  221.9470 C   0  0  0  0  0  0  0  0  0  0  0  0
  137.8250   72.5340  221.6440 C   0  0  0  0  0  0  0  0  0  0  0  0
  138.0950   73.9350  221.9710 C   0  0  0  0  0  0  0  0  0  0  0  0
  139.3020   74.4510  221.6790 N   0  0  0  0  0  0  0  0  0  0  0  0
  139.6750   75.7160  221.9220 C   0  0  0  0  0  0  0  0  0  0  0  0
  140.9240   76.2150  221.6090 C   0  0  0  0  0  0  0  0  0  0  0  0
  141.2660   77.5370  221.8820 C   0  0  0  0  0  0  0  0  0  0  0  0
  140.3260   78.3460  222.4760 C   0  0  0  0  0  0  0  0  0  0  0  0
  139.0870   77.8480  222.7850 C   0  0  0  0  0  0  0  0  0  0  0  0
  138.7420   76.5400  222.5170 C   0  0  0  0  0  0  0  0  0  0  0  0
  137.5210   76.0220  222.8140 C   0  0  0  0  0  0  0  0  0  0  0  0
  136.6820   76.8140  223.3650 O   0  0  0  0  0  0  0  0  0  0  0  0
  137.1700   74.7250  222.5520 N   0  0  0  0  0  0  0  0  0  0  0  0
  135.8930   74.2510  222.8780 C   0  0  0  0  0  0  0  0  0  0  0  0
  135.4600   73.9520  224.2280 C   0  0  0  0  0  0  0  0  0  0  0  0
  134.5020   72.7820  224.2620 C   0  0  0  0  0  0  0  0  0  0  0  0
  133.9740   72.5110  225.6650 C   0  0  0  0  0  0  0  0  0  0  0  0
  133.1160   73.7040  226.0300 C   0  0  0  0  0  0  0  0  0  0  0  0
  134.0710   74.8990  226.0820 C   0  0  0  0  0  0  0  0  0  0  0  0
  134.5700   75.1360  224.6750 C   0  0  0  0  0  0  0  0  0  0  0  0
  140.2770   71.8360  223.8750 C   0  0  0  0  0  0  0  0  0  0  0  0
  140.6920   71.5340  225.1600 C   0  0  0  0  0  0  0  0  0  0  0  0
  140.6579   66.9467  226.9479 H   0  0  0  0  0  0  0  0  0  0  0  0
  140.2412   68.3672  225.9305 H   0  0  0  0  0  0  0  0  0  0  0  0
  141.9181   67.7234  225.9305 H   0  0  0  0  0  0  0  0  0  0  0  0
  141.3395   68.7436  229.7289 H   0  0  0  0  0  0  0  0  0  0  0  0
  139.8954   68.0401  228.9249 H   0  0  0  0  0  0  0  0  0  0  0  0
  141.4506   67.1411  228.9249 H   0  0  0  0  0  0  0  0  0  0  0  0
  138.2406   69.3863  225.9591 H   0  0  0  0  0  0  0  0  0  0  0  0
  137.5188   69.9357  223.6799 H   0  0  0  0  0  0  0  0  0  0  0  0
  139.1517   71.0293  221.1197 H   0  0  0  0  0  0  0  0  0  0  0  0
  136.8840   72.2542  221.1477 H   0  0  0  0  0  0  0  0  0  0  0  0
  141.6643   75.5544  221.1341 H   0  0  0  0  0  0  0  0  0  0  0  0
  142.2638   77.9247  221.6287 H   0  0  0  0  0  0  0  0  0  0  0  0
  140.5688   79.3945  222.7035 H   0  0  0  0  0  0  0  0  0  0  0  0
  138.3476   78.5098  223.2598 H   0  0  0  0  0  0  0  0  0  0  0  0
  135.1889   75.0066  222.4995 H   0  0  0  0  0  0  0  0  0  0  0  0
  135.9265   73.2421  222.4409 H   0  0  0  0  0  0  0  0  0  0  0  0
  136.3545   73.7572  224.8379 H   0  0  0  0  0  0  0  0  0  0  0  0
  133.6515   73.0012  223.5997 H   0  0  0  0  0  0  0  0  0  0  0  0
  135.0491   71.8878  223.9286 H   0  0  0  0  0  0  0  0  0  0  0  0
  133.3717   71.5906  225.6748 H   0  0  0  0  0  0  0  0  0  0  0  0
  134.7956   72.3728  226.3832 H   0  0  0  0  0  0  0  0  0  0  0  0
  132.3397   73.8660  225.2677 H   0  0  0  0  0  0  0  0  0  0  0  0
  132.5991   73.5546  226.9895 H   0  0  0  0  0  0  0  0  0  0  0  0
  133.5398   75.7899  226.4483 H   0  0  0  0  0  0  0  0  0  0  0  0
  134.9100   74.6981  226.7645 H   0  0  0  0  0  0  0  0  0  0  0  0
  133.7114   75.2251  223.9932 H   0  0  0  0  0  0  0  0  0  0  0  0
  135.1606   76.0637  224.6506 H   0  0  0  0  0  0  0  0  0  0  0  0
  140.8782   72.5466  223.2889 H   0  0  0  0  0  0  0  0  0  0  0  0
  141.6014   71.9997  225.5674 H   0  0  0  0  0  0  0  0  0  0  0  0
  1  2  1  0
  2  3  1  0
  2  4  1  0
  4  5  2  0
  4  6  2  0
  4  7  1  0
  7  8  2  0
  8  9  1  0
  9 10  2  0
 10 11  1  0
 11 12  2  0
 12 13  1  0
 13 14  2  0
 14 15  1  0
 15 16  2  0
 16 17  1  0
 17 18  2  0
 18 19  1  0
 19 20  2  0
 20 21  1  0
 21 22  2  0
 21 23  1  0
 23 24  1  0
 24 25  1  0
 25 26  1  0
 26 27  1  0
 27 28  1  0
 28 29  1  0
 29 30  1  0
 10 31  1  0
 31 32  2  0
 32  7  1  0
 23 13  1  0
 30 25  1  0
 20 15  1  0
  1 33  1  0
  1 34  1  0
  1 35  1  0
  3 36  1  0
  3 37  1  0
  3 38  1  0
  8 39  1  0
  9 40  1  0
 11 41  1  0
 12 42  1  0
 16 43  1  0
 17 44  1  0
 18 45  1  0
 19 46  1  0
 24 47  1  0
 24 48  1  0
 25 49  1  0
 26 50  1  0
 26 51  1  0
 27 52  1  0
 27 53  1  0
 28 54  1  0
 28 55  1  0
 29 56  1  0
 29 57  1  0
 30 58  1  0
 30 59  1  0
 31 60  1  0
 32 61  1  0
M  END
>  <smiles>  (5) 
CN(C)S(=O)(=O)c1ccc(/C=C/c2nc3ccccc3c(=O)n2CC2CCCCC2)cc1

>  <score_type>  (5) 
oracle

>  <origin>  (5) 
autodockgpu

>  <m_score__min__energy>  (5) 
-9.4499999999999993

>  <m_primary>  (5) 
energy

>  <rmsd>  (5) 
7.826751277122208

>  <m_score__min__rmsd>  (5) 
7.826751277122208

>  <meeko>  (5) 
{"free_energy": -8.07, "intermolecular_energy": -10.15, "internal_energy": -1.86, "cluster_size": 6, "cluster_id": 3, "rank_in_cluster": 6}

>  <energy>  (5) 
-8.35

>  <cluster_rmsd>  (5) 
1.18

>  <cluster>  (5) 
1

$$$$

     RDKit          3D

 61 64  0  0  0  0  0  0  0  0999 V2000
  139.8670   79.8650  223.8430 C   0  0  0  0  0  0  0  0  0  0  0  0
  140.9880   79.0060  223.5330 N   0  0  0  0  0  0  0  0  0  0  0  0
  142.1960   79.8010  223.5830 C   0  0  0  0  0  0  0  0  0  0  0  0
  140.8680   78.3470  221.9420 S   0  0  0  0  0  0  0  0  0  0  0  0
  142.1890   78.5070  221.2540 O   0  0  0  0  0  0  0  0  0  0  0  0
  139.8780   79.1760  221.1540 O   0  0  0  0  0  0  0  0  0  0  0  0
  140.3810   76.6690  221.9450 C   0  0  0  0  0  0  0  0  0  0  0  0
  141.2280   75.6440  221.5850 C   0  0  0  0  0  0  0  0  0  0  0  0
  140.8310   74.3230  221.5950 C   0  0  0  0  0  0  0  0  0  0  0  0
  139.5310   73.9650  221.9760 C   0  0  0  0  0  0  0  0  0  0  0  0
  139.1310   72.5720  221.9800 C   0  0  0  0  0  0  0  0  0  0  0  0
  139.9480   71.5570  222.1900 C   0  0  0  0  0  0  0  0  0  0  0  0
  139.9790   70.9110  223.5030 C   0  0  0  0  0  0  0  0  0  0  0  0
  140.4490   71.6000  224.5580 N   0  0  0  0  0  0  0  0  0  0  0  0
  140.5280   71.1280  225.8100 C   0  0  0  0  0  0  0  0  0  0  0  0
  141.0170   71.8630  226.8720 C   0  0  0  0  0  0  0  0  0  0  0  0
  141.0800   71.3280  228.1560 C   0  0  0  0  0  0  0  0  0  0  0  0
  140.6420   70.0390  228.3500 C   0  0  0  0  0  0  0  0  0  0  0  0
  140.1570   69.3110  227.2930 C   0  0  0  0  0  0  0  0  0  0  0  0
  140.0920   69.8350  226.0200 C   0  0  0  0  0  0  0  0  0  0  0  0
  139.6170   69.1350  224.9560 C   0  0  0  0  0  0  0  0  0  0  0  0
  139.2210   67.9410  225.1880 O   0  0  0  0  0  0  0  0  0  0  0  0
  139.5480   69.6470  223.6880 N   0  0  0  0  0  0  0  0  0  0  0  0
  139.0430   68.8770  222.6330 C   0  0  0  0  0  0  0  0  0  0  0  0
  137.6600   68.9010  222.2010 C   0  0  0  0  0  0  0  0  0  0  0  0
  136.7400   69.3830  223.3010 C   0  0  0  0  0  0  0  0  0  0  0  0
  135.2740   69.3340  222.8870 C   0  0  0  0  0  0  0  0  0  0  0  0
  134.9300   67.8680  222.7290 C   0  0  0  0  0  0  0  0  0  0  0  0
  135.7900   67.3650  221.5670 C   0  0  0  0  0  0  0  0  0  0  0  0
  137.2320   67.4270  222.0170 C   0  0  0  0  0  0  0  0  0  0  0  0
  138.7070   75.0020  222.3310 C   0  0  0  0  0  0  0  0  0  0  0  0
  139.0980   76.3300  222.3230 C   0  0  0  0  0  0  0  0  0  0  0  0
  139.7592   79.9476  224.9346 H   0  0  0  0  0  0  0  0  0  0  0  0
  140.0408   80.8634  223.4151 H   0  0  0  0  0  0  0  0  0  0  0  0
  138.9482   79.4375  223.4151 H   0  0  0  0  0  0  0  0  0  0  0  0
  142.4722   79.9828  224.6321 H   0  0  0  0  0  0  0  0  0  0  0  0
  143.0108   79.2621  223.0774 H   0  0  0  0  0  0  0  0  0  0  0  0
  142.0233   80.7626  223.0774 H   0  0  0  0  0  0  0  0  0  0  0  0
  142.2562   75.8873  221.2791 H   0  0  0  0  0  0  0  0  0  0  0  0
  141.5448   73.5398  221.2998 H   0  0  0  0  0  0  0  0  0  0  0  0
  138.0708   72.3445  221.7948 H   0  0  0  0  0  0  0  0  0  0  0  0
  140.6026   71.1982  221.3820 H   0  0  0  0  0  0  0  0  0  0  0  0
  141.3640   72.8926  226.7000 H   0  0  0  0  0  0  0  0  0  0  0  0
  141.4708   71.9223  228.9951 H   0  0  0  0  0  0  0  0  0  0  0  0
  140.6805   69.5910  229.3539 H   0  0  0  0  0  0  0  0  0  0  0  0
  139.8107   68.2814  227.4663 H   0  0  0  0  0  0  0  0  0  0  0  0
  139.6360   69.1564  221.7497 H   0  0  0  0  0  0  0  0  0  0  0  0
  139.1104   67.8661  223.0615 H   0  0  0  0  0  0  0  0  0  0  0  0
  137.5917   69.5419  221.3096 H   0  0  0  0  0  0  0  0  0  0  0  0
  136.8800   68.7442  224.1855 H   0  0  0  0  0  0  0  0  0  0  0  0
  136.9946   70.4305  223.5199 H   0  0  0  0  0  0  0  0  0  0  0  0
  134.6430   69.7926  223.6625 H   0  0  0  0  0  0  0  0  0  0  0  0
  135.1017   69.8896  221.9534 H   0  0  0  0  0  0  0  0  0  0  0  0
  135.1689   67.3163  223.6502 H   0  0  0  0  0  0  0  0  0  0  0  0
  133.8574   67.7208  222.5344 H   0  0  0  0  0  0  0  0  0  0  0  0
  135.5174   66.3289  221.3176 H   0  0  0  0  0  0  0  0  0  0  0  0
  135.6343   67.9831  220.6705 H   0  0  0  0  0  0  0  0  0  0  0  0
  137.3395   66.8934  222.9729 H   0  0  0  0  0  0  0  0  0  0  0  0
  137.8707   66.9556  221.2556 H   0  0  0  0  0  0  0  0  0  0  0  0
  137.6779   74.7655  222.6393 H   0  0  0  0  0  0  0  0  0  0  0  0
  138.3860   77.1149  222.6179 H   0  0  0  0  0  0  0  0  0  0  0  0
  1  2  1  0
  2  3  1  0
  2  4  1  0
  4  5  2  0
  4  6  2  0
  4  7  1  0
  7  8  2  0
  8  9  1  0
  9 10  2  0
 10 11  1  0
 11 12  2  0
 12 13  1  0
 13 14  2  0
 14 15  1  0
 15 16  2  0
 16 17  1  0
 17 18  2  0
 18 19  1  0
 19 20  2  0
 20 21  1  0
 21 22  2  0
 21 23  1  0
 23 24  1  0
 24 25  1  0
 25 26  1  0
 26 27  1  0
 27 28  1  0
 28 29  1  0
 29 30  1  0
 10 31  1  0
 31 32  2  0
 32  7  1  0
 23 13  1  0
 30 25  1  0
 20 15  1  0
  1 33  1  0
  1 34  1  0
  1 35  1  0
  3 36  1  0
  3 37  1  0
  3 38  1  0
  8 39  1  0
  9 40  1  0
 11 41  1  0
 12 42  1  0
 16 43  1  0
 17 44  1  0
 18 45  1  0
 19 46  1  0
 24 47  1  0
 24 48  1  0
 25 49  1  0
 26 50  1  0
 26 51  1  0
 27 52  1  0
 27 53  1  0
 28 54  1  0
 28 55  1  0
 29 56  1  0
 29 57  1  0
 30 58  1  0
 30 59  1  0
 31 60  1  0
 32 61  1  0
M  END
>  <smiles>  (6) 
CN(C)S(=O)(=O)c1ccc(/C=C/c2nc3ccccc3c(=O)n2CC2CCCCC2)cc1

>  <score_type>  (6) 
oracle

>  <origin>  (6) 
autodockgpu

>  <m_score__min__energy>  (6) 
-9.4499999999999993

>  <m_primary>  (6) 
energy

>  <rmsd>  (6) 
11.369287185138266

>  <m_score__min__rmsd>  (6) 
11.369287185138266

>  <meeko>  (6) 
{"free_energy": -8.34, "intermolecular_energy": -10.43, "internal_energy": -1.58, "cluster_size": 8, "cluster_id": 7, "rank_in_cluster": 1}

>  <energy>  (6) 
-9.34

>  <cluster_rmsd>  (6) 
0.0

>  <cluster>  (6) 
2

$$$$

     RDKit          3D

 61 64  0  0  0  0  0  0  0  0999 V2000
  131.9150   73.5530  224.0550 C   0  0  0  0  0  0  0  0  0  0  0  0
  132.5630   74.5510  224.8760 N   0  0  0  0  0  0  0  0  0  0  0  0
  133.2010   75.5120  224.0020 C   0  0  0  0  0  0  0  0  0  0  0  0
  133.7930   73.8610  225.8710 S   0  0  0  0  0  0  0  0  0  0  0  0
  133.1910   73.4940  227.1930 O   0  0  0  0  0  0  0  0  0  0  0  0
  134.8290   74.9250  226.1600 O   0  0  0  0  0  0  0  0  0  0  0  0
  134.5490   72.4680  225.1370 C   0  0  0  0  0  0  0  0  0  0  0  0
  134.4340   71.1960  225.6530 C   0  0  0  0  0  0  0  0  0  0  0  0
  135.0340   70.1050  225.0610 C   0  0  0  0  0  0  0  0  0  0  0  0
  135.7970   70.2470  223.8930 C   0  0  0  0  0  0  0  0  0  0  0  0
  136.4210   69.0890  223.2860 C   0  0  0  0  0  0  0  0  0  0  0  0
  137.7240   68.9120  223.1700 C   0  0  0  0  0  0  0  0  0  0  0  0
  138.6110   69.3200  224.2590 C   0  0  0  0  0  0  0  0  0  0  0  0
  138.8120   68.4770  225.2880 N   0  0  0  0  0  0  0  0  0  0  0  0
  139.6010   68.7260  226.3430 C   0  0  0  0  0  0  0  0  0  0  0  0
  139.7850   67.8370  227.3830 C   0  0  0  0  0  0  0  0  0  0  0  0
  140.6150   68.1420  228.4600 C   0  0  0  0  0  0  0  0  0  0  0  0
  141.2540   69.3600  228.4670 C   0  0  0  0  0  0  0  0  0  0  0  0
  141.0690   70.2410  227.4330 C   0  0  0  0  0  0  0  0  0  0  0  0
  140.2490   69.9440  226.3650 C   0  0  0  0  0  0  0  0  0  0  0  0
  140.0490   70.8000  225.3280 C   0  0  0  0  0  0  0  0  0  0  0  0
  140.6650   71.9190  225.3820 O   0  0  0  0  0  0  0  0  0  0  0  0
  139.2370   70.5140  224.2630 N   0  0  0  0  0  0  0  0  0  0  0  0
  139.0740   71.4360  223.2210 C   0  0  0  0  0  0  0  0  0  0  0  0
  140.1320   72.2930  222.7250 C   0  0  0  0  0  0  0  0  0  0  0  0
  139.5800   73.5080  222.0140 C   0  0  0  0  0  0  0  0  0  0  0  0
  140.6810   74.3740  221.4140 C   0  0  0  0  0  0  0  0  0  0  0  0
  141.3090   73.5510  220.3100 C   0  0  0  0  0  0  0  0  0  0  0  0
  141.9490   72.3470  221.0050 C   0  0  0  0  0  0  0  0  0  0  0  0
  140.8270   71.5150  221.5830 C   0  0  0  0  0  0  0  0  0  0  0  0
  135.8960   71.5230  223.3990 C   0  0  0  0  0  0  0  0  0  0  0  0
  135.2970   72.6220  223.9870 C   0  0  0  0  0  0  0  0  0  0  0  0
  131.4299   72.8059  224.7004 H   0  0  0  0  0  0  0  0  0  0  0  0
  131.1577   74.0360  223.4199 H   0  0  0  0  0  0  0  0  0  0  0  0
  132.6643   73.0578  223.4199 H   0  0  0  0  0  0  0  0  0  0  0  0
  133.7091   76.2773  224.6072 H   0  0  0  0  0  0  0  0  0  0  0  0
  133.9377   74.9978  223.3673 H   0  0  0  0  0  0  0  0  0  0  0  0
  132.4412   75.9913  223.3673 H   0  0  0  0  0  0  0  0  0  0  0  0
  133.8433   71.0456  226.5687 H   0  0  0  0  0  0  0  0  0  0  0  0
  134.9125   69.1088  225.5113 H   0  0  0  0  0  0  0  0  0  0  0  0
  135.7618   68.3007  222.8936 H   0  0  0  0  0  0  0  0  0  0  0  0
  138.1409   68.4596  222.2581 H   0  0  0  0  0  0  0  0  0  0  0  0
  139.2656   66.8676  227.3611 H   0  0  0  0  0  0  0  0  0  0  0  0
  140.7556   67.4267  229.2838 H   0  0  0  0  0  0  0  0  0  0  0  0
  141.9151   69.6279  229.3043 H   0  0  0  0  0  0  0  0  0  0  0  0
  141.5884   71.2104  227.4560 H   0  0  0  0  0  0  0  0  0  0  0  0
  138.7341   70.8498  222.3545 H   0  0  0  0  0  0  0  0  0  0  0  0
  138.4120   72.1746  223.6966 H   0  0  0  0  0  0  0  0  0  0  0  0
  140.7669   72.5789  223.5766 H   0  0  0  0  0  0  0  0  0  0  0  0
  138.9130   73.1729  221.2060 H   0  0  0  0  0  0  0  0  0  0  0  0
  139.0386   74.1153  222.7543 H   0  0  0  0  0  0  0  0  0  0  0  0
  140.2558   75.3018  221.0036 H   0  0  0  0  0  0  0  0  0  0  0  0
  141.4239   74.6615  222.1726 H   0  0  0  0  0  0  0  0  0  0  0  0
  140.5416   73.2184  219.5955 H   0  0  0  0  0  0  0  0  0  0  0  0
  142.0492   74.1323  219.7407 H   0  0  0  0  0  0  0  0  0  0  0  0
  142.5224   71.7532  220.2779 H   0  0  0  0  0  0  0  0  0  0  0  0
  142.6392   72.6748  221.7963 H   0  0  0  0  0  0  0  0  0  0  0  0
  140.0937   71.2923  220.7939 H   0  0  0  0  0  0  0  0  0  0  0  0
  141.2393   70.5763  221.9816 H   0  0  0  0  0  0  0  0  0  0  0  0
  136.4851   71.6808  222.4835 H   0  0  0  0  0  0  0  0  0  0  0  0
  135.4166   73.6192  223.5383 H   0  0  0  0  0  0  0  0  0  0  0  0
  1  2  1  0
  2  3  1  0
  2  4  1  0
  4  5  2  0
  4  6  2  0
  4  7  1  0
  7  8  2  0
  8  9  1  0
  9 10  2  0
 10 11  1  0
 11 12  2  0
 12 13  1  0
 13 14  2  0
 14 15  1  0
 15 16  2  0
 16 17  1  0
 17 18  2  0
 18 19  1  0
 19 20  2  0
 20 21  1  0
 21 22  2  0
 21 23  1  0
 23 24  1  0
 24 25  1  0
 25 26  1  0
 26 27  1  0
 27 28  1  0
 28 29  1  0
 29 30  1  0
 10 31  1  0
 31 32  2  0
 32  7  1  0
 23 13  1  0
 30 25  1  0
 20 15  1  0
  1 33  1  0
  1 34  1  0
  1 35  1  0
  3 36  1  0
  3 37  1  0
  3 38  1  0
  8 39  1  0
  9 40  1  0
 11 41  1  0
 12 42  1  0
 16 43  1  0
 17 44  1  0
 18 45  1  0
 19 46  1  0
 24 47  1  0
 24 48  1  0
 25 49  1  0
 26 50  1  0
 26 51  1  0
 27 52  1  0
 27 53  1  0
 28 54  1  0
 28 55  1  0
 29 56  1  0
 29 57  1  0
 30 58  1  0
 30 59  1  0
 31 60  1  0
 32 61  1  0
M  END
>  <smiles>  (7) 
CN(C)S(=O)(=O)c1ccc(/C=C/c2nc3ccccc3c(=O)n2CC2CCCCC2)cc1

>  <score_type>  (7) 
oracle

>  <origin>  (7) 
autodockgpu

>  <m_score__min__energy>  (7) 
-9.4499999999999993

>  <m_primary>  (7) 
energy

>  <rmsd>  (7) 
10.35989193721464

>  <m_score__min__rmsd>  (7) 
10.35989193721464

>  <meeko>  (7) 
{"free_energy": -8.08, "intermolecular_energy": -10.16, "internal_energy": -1.85, "cluster_size": 11, "cluster_id": 4, "rank_in_cluster": 7}

>  <energy>  (7) 
-9.31

>  <cluster_rmsd>  (7) 
0.6

>  <cluster>  (7) 
2

$$$$

     RDKit          3D

 61 64  0  0  0  0  0  0  0  0999 V2000
  130.9420   73.6200  226.2830 C   0  0  0  0  0  0  0  0  0  0  0  0
  132.0310   73.5840  225.3310 N   0  0  0  0  0  0  0  0  0  0  0  0
  131.7500   72.5500  224.3600 C   0  0  0  0  0  0  0  0  0  0  0  0
  133.5300   73.1880  226.0910 S   0  0  0  0  0  0  0  0  0  0  0  0
  133.2640   72.8270  227.5200 O   0  0  0  0  0  0  0  0  0  0  0  0
  134.3930   74.4300  226.1220 O   0  0  0  0  0  0  0  0  0  0  0  0
  134.3710   71.8900  225.2790 C   0  0  0  0  0  0  0  0  0  0  0  0
  134.2380   70.5690  225.6460 C   0  0  0  0  0  0  0  0  0  0  0  0
  134.9070   69.5540  224.9940 C   0  0  0  0  0  0  0  0  0  0  0  0
  135.7630   69.8280  223.9180 C   0  0  0  0  0  0  0  0  0  0  0  0
  136.4570   68.7490  223.2460 C   0  0  0  0  0  0  0  0  0  0  0  0
  137.7610   68.7070  223.0420 C   0  0  0  0  0  0  0  0  0  0  0  0
  138.6740   69.1870  224.0800 C   0  0  0  0  0  0  0  0  0  0  0  0
  138.7420   68.5220  225.2470 N   0  0  0  0  0  0  0  0  0  0  0  0
  139.5370   68.8530  226.2740 C   0  0  0  0  0  0  0  0  0  0  0  0
  139.5820   68.1480  227.4610 C   0  0  0  0  0  0  0  0  0  0  0  0
  140.4250   68.5320  228.5010 C   0  0  0  0  0  0  0  0  0  0  0  0
  141.2190   69.6400  228.3230 C   0  0  0  0  0  0  0  0  0  0  0  0
  141.1720   70.3390  227.1450 C   0  0  0  0  0  0  0  0  0  0  0  0
  140.3400   69.9630  226.1110 C   0  0  0  0  0  0  0  0  0  0  0  0
  140.2740   70.6390  224.9340 C   0  0  0  0  0  0  0  0  0  0  0  0
  141.0320   71.6620  224.8180 O   0  0  0  0  0  0  0  0  0  0  0  0
  139.4510   70.2730  223.9020 N   0  0  0  0  0  0  0  0  0  0  0  0
  139.4320   71.0080  222.7090 C   0  0  0  0  0  0  0  0  0  0  0  0
  139.4680   72.4560  222.6490 C   0  0  0  0  0  0  0  0  0  0  0  0
  138.2640   73.0150  221.9250 C   0  0  0  0  0  0  0  0  0  0  0  0
  138.3320   74.5300  221.7810 C   0  0  0  0  0  0  0  0  0  0  0  0
  139.4910   74.8140  220.8500 C   0  0  0  0  0  0  0  0  0  0  0  0
  140.7410   74.3300  221.5870 C   0  0  0  0  0  0  0  0  0  0  0  0
  140.6370   72.8260  221.7070 C   0  0  0  0  0  0  0  0  0  0  0  0
  135.8780   71.1510  223.5730 C   0  0  0  0  0  0  0  0  0  0  0  0
  135.2110   72.1750  224.2210 C   0  0  0  0  0  0  0  0  0  0  0  0
  131.3480   73.6066  227.3052 H   0  0  0  0  0  0  0  0  0  0  0  0
  130.3547   74.5381  226.1338 H   0  0  0  0  0  0  0  0  0  0  0  0
  130.2954   72.7427  226.1338 H   0  0  0  0  0  0  0  0  0  0  0  0
  131.4961   71.6158  224.8823 H   0  0  0  0  0  0  0  0  0  0  0  0
  130.9034   72.8594  223.7295 H   0  0  0  0  0  0  0  0  0  0  0  0
  132.6368   72.3883  223.7295 H   0  0  0  0  0  0  0  0  0  0  0  0
  133.5762   70.3150  226.4871 H   0  0  0  0  0  0  0  0  0  0  0  0
  134.7667   68.5139  225.3233 H   0  0  0  0  0  0  0  0  0  0  0  0
  135.8551   67.9044  222.8795 H   0  0  0  0  0  0  0  0  0  0  0  0
  138.1594   68.3127  222.0955 H   0  0  0  0  0  0  0  0  0  0  0  0
  138.9386   67.2648  227.5875 H   0  0  0  0  0  0  0  0  0  0  0  0
  140.4547   67.9627  229.4417 H   0  0  0  0  0  0  0  0  0  0  0  0
  141.8938   69.9664  229.1281 H   0  0  0  0  0  0  0  0  0  0  0  0
  141.8146   71.2231  227.0209 H   0  0  0  0  0  0  0  0  0  0  0  0
  140.3034   70.6638  222.1327 H   0  0  0  0  0  0  0  0  0  0  0  0
  138.4091   70.8092  222.3568 H   0  0  0  0  0  0  0  0  0  0  0  0
  139.5320   72.8393  223.6781 H   0  0  0  0  0  0  0  0  0  0  0  0
  138.2134   72.5657  220.9222 H   0  0  0  0  0  0  0  0  0  0  0  0
  137.3701   72.7717  222.5180 H   0  0  0  0  0  0  0  0  0  0  0  0
  137.3951   74.9147  221.3519 H   0  0  0  0  0  0  0  0  0  0  0  0
  138.4719   75.0195  222.7561 H   0  0  0  0  0  0  0  0  0  0  0  0
  139.3668   74.2659  219.9044 H   0  0  0  0  0  0  0  0  0  0  0  0
  139.5566   75.8825  220.5970 H   0  0  0  0  0  0  0  0  0  0  0  0
  141.6424   74.6010  221.0178 H   0  0  0  0  0  0  0  0  0  0  0  0
  140.8128   74.7963  222.5807 H   0  0  0  0  0  0  0  0  0  0  0  0
  140.4563   72.3918  220.7126 H   0  0  0  0  0  0  0  0  0  0  0  0
  141.5760   72.4285  222.1196 H   0  0  0  0  0  0  0  0  0  0  0  0
  136.5384   71.4123  222.7330 H   0  0  0  0  0  0  0  0  0  0  0  0
  135.3498   73.2159  223.8935 H   0  0  0  0  0  0  0  0  0  0  0  0
  1  2  1  0
  2  3  1  0
  2  4  1  0
  4  5  2  0
  4  6  2  0
  4  7  1  0
  7  8  2  0
  8  9  1  0
  9 10  2  0
 10 11  1  0
 11 12  2  0
 12 13  1  0
 13 14  2  0
 14 15  1  0
 15 16  2  0
 16 17  1  0
 17 18  2  0
 18 19  1  0
 19 20  2  0
 20 21  1  0
 21 22  2  0
 21 23  1  0
 23 24  1  0
 24 25  1  0
 25 26  1  0
 26 27  1  0
 27 28  1  0
 28 29  1  0
 29 30  1  0
 10 31  1  0
 31 32  2  0
 32  7  1  0
 23 13  1  0
 30 25  1  0
 20 15  1  0
  1 33  1  0
  1 34  1  0
  1 35  1  0
  3 36  1  0
  3 37  1  0
  3 38  1  0
  8 39  1  0
  9 40  1  0
 11 41  1  0
 12 42  1  0
 16 43  1  0
 17 44  1  0
 18 45  1  0
 19 46  1  0
 24 47  1  0
 24 48  1  0
 25 49  1  0
 26 50  1  0
 26 51  1  0
 27 52  1  0
 27 53  1  0
 28 54  1  0
 28 55  1  0
 29 56  1  0
 29 57  1  0
 30 58  1  0
 30 59  1  0
 31 60  1  0
 32 61  1  0
M  END
>  <smiles>  (8) 
CN(C)S(=O)(=O)c1ccc(/C=C/c2nc3ccccc3c(=O)n2CC2CCCCC2)cc1

>  <score_type>  (8) 
oracle

>  <origin>  (8) 
autodockgpu

>  <m_score__min__energy>  (8) 
-9.4499999999999993

>  <m_primary>  (8) 
energy

>  <rmsd>  (8) 
10.29544595231402

>  <m_score__min__rmsd>  (8) 
10.29544595231402

>  <meeko>  (8) 
{"free_energy": -7.83, "intermolecular_energy": -9.91, "internal_energy": -2.01, "cluster_size": 11, "cluster_id": 4, "rank_in_cluster": 9}

>  <energy>  (8) 
-8.91

>  <cluster_rmsd>  (8) 
0.88

>  <cluster>  (8) 
2

$$$$

     RDKit          3D

 61 64  0  0  0  0  0  0  0  0999 V2000
  131.9340   72.3200  227.0560 C   0  0  0  0  0  0  0  0  0  0  0  0
  132.8690   73.4040  227.2580 N   0  0  0  0  0  0  0  0  0  0  0  0
  132.1230   74.5770  227.6590 C   0  0  0  0  0  0  0  0  0  0  0  0
  133.7140   73.8000  225.8050 S   0  0  0  0  0  0  0  0  0  0  0  0
  134.7230   74.8650  226.1110 O   0  0  0  0  0  0  0  0  0  0  0  0
  132.7320   74.4150  224.8330 O   0  0  0  0  0  0  0  0  0  0  0  0
  134.4910   72.4130  225.0820 C   0  0  0  0  0  0  0  0  0  0  0  0
  134.4920   71.1660  225.6690 C   0  0  0  0  0  0  0  0  0  0  0  0
  135.1080   70.0790  225.0850 C   0  0  0  0  0  0  0  0  0  0  0  0
  135.7690   70.1990  223.8550 C   0  0  0  0  0  0  0  0  0  0  0  0
  136.4110   69.0470  223.2570 C   0  0  0  0  0  0  0  0  0  0  0  0
  137.7170   68.8920  223.1370 C   0  0  0  0  0  0  0  0  0  0  0  0
  138.6000   69.3110  224.2240 C   0  0  0  0  0  0  0  0  0  0  0  0
  138.8100   68.4730  225.2540 N   0  0  0  0  0  0  0  0  0  0  0  0
  139.5970   68.7330  226.3080 C   0  0  0  0  0  0  0  0  0  0  0  0
  139.7910   67.8480  227.3510 C   0  0  0  0  0  0  0  0  0  0  0  0
  140.6180   68.1640  228.4260 C   0  0  0  0  0  0  0  0  0  0  0  0
  141.2450   69.3880  228.4300 C   0  0  0  0  0  0  0  0  0  0  0  0
  141.0510   70.2640  227.3940 C   0  0  0  0  0  0  0  0  0  0  0  0
  140.2330   69.9570  226.3270 C   0  0  0  0  0  0  0  0  0  0  0  0
  140.0240   70.8080  225.2890 C   0  0  0  0  0  0  0  0  0  0  0  0
  140.6290   71.9330  225.3390 O   0  0  0  0  0  0  0  0  0  0  0  0
  139.2140   70.5120  224.2250 N   0  0  0  0  0  0  0  0  0  0  0  0
  139.0410   71.4300  223.1810 C   0  0  0  0  0  0  0  0  0  0  0  0
  140.0840   72.3120  222.6970 C   0  0  0  0  0  0  0  0  0  0  0  0
  139.5110   73.5150  221.9820 C   0  0  0  0  0  0  0  0  0  0  0  0
  140.5970   74.4080  221.3950 C   0  0  0  0  0  0  0  0  0  0  0  0
  141.2590   73.6020  220.2980 C   0  0  0  0  0  0  0  0  0  0  0  0
  141.9190   72.4130  220.9990 C   0  0  0  0  0  0  0  0  0  0  0  0
  140.8110   71.5530  221.5630 C   0  0  0  0  0  0  0  0  0  0  0  0
  135.7540   71.4500  223.2910 C   0  0  0  0  0  0  0  0  0  0  0  0
  135.1380   72.5450  223.8710 C   0  0  0  0  0  0  0  0  0  0  0  0
  131.6022   71.9353  228.0317 H   0  0  0  0  0  0  0  0  0  0  0  0
  131.0641   72.6866  226.4913 H   0  0  0  0  0  0  0  0  0  0  0  0
  132.4243   71.5133  226.4913 H   0  0  0  0  0  0  0  0  0  0  0  0
  132.0882   74.6317  228.7571 H   0  0  0  0  0  0  0  0  0  0  0  0
  132.6147   75.4775  227.2624 H   0  0  0  0  0  0  0  0  0  0  0  0
  131.0989   74.5136  227.2624 H   0  0  0  0  0  0  0  0  0  0  0  0
  133.9844   71.0333  226.6358 H   0  0  0  0  0  0  0  0  0  0  0  0
  135.0801   69.1033  225.5922 H   0  0  0  0  0  0  0  0  0  0  0  0
  135.7644   68.2432  222.8752 H   0  0  0  0  0  0  0  0  0  0  0  0
  138.1387   68.4493  222.2226 H   0  0  0  0  0  0  0  0  0  0  0  0
  139.2815   66.8733  227.3319 H   0  0  0  0  0  0  0  0  0  0  0  0
  140.7660   67.4522  229.2515 H   0  0  0  0  0  0  0  0  0  0  0  0
  141.9036   69.6645  229.2665 H   0  0  0  0  0  0  0  0  0  0  0  0
  141.5615   71.2382  227.4141 H   0  0  0  0  0  0  0  0  0  0  0  0
  138.7251   70.8360  222.3108 H   0  0  0  0  0  0  0  0  0  0  0  0
  138.3562   72.1526  223.6489 H   0  0  0  0  0  0  0  0  0  0  0  0
  140.7027   72.6113  223.5558 H   0  0  0  0  0  0  0  0  0  0  0  0
  138.8607   73.1656  221.1665 H   0  0  0  0  0  0  0  0  0  0  0  0
  138.9478   74.1080  222.7177 H   0  0  0  0  0  0  0  0  0  0  0  0
  140.1535   75.3250  220.9798 H   0  0  0  0  0  0  0  0  0  0  0  0
  141.3235   74.7130  222.1625 H   0  0  0  0  0  0  0  0  0  0  0  0
  140.5091   73.2520  219.5733 H   0  0  0  0  0  0  0  0  0  0  0  0
  141.9922   74.2021  219.7392 H   0  0  0  0  0  0  0  0  0  0  0  0
  142.5150   71.8342  220.2780 H   0  0  0  0  0  0  0  0  0  0  0  0
  142.5915   72.7564  221.7989 H   0  0  0  0  0  0  0  0  0  0  0  0
  140.0927   71.3133  220.7651 H   0  0  0  0  0  0  0  0  0  0  0  0
  141.2415   70.6243  221.9656 H   0  0  0  0  0  0  0  0  0  0  0  0
  136.2597   71.5901  222.3242 H   0  0  0  0  0  0  0  0  0  0  0  0
  135.1643   73.5217  223.3658 H   0  0  0  0  0  0  0  0  0  0  0  0
  1  2  1  0
  2  3  1  0
  2  4  1  0
  4  5  2  0
  4  6  2  0
  4  7  1  0
  7  8  2  0
  8  9  1  0
  9 10  2  0
 10 11  1  0
 11 12  2  0
 12 13  1  0
 13 14  2  0
 14 15  1  0
 15 16  2  0
 16 17  1  0
 17 18  2  0
 18 19  1  0
 19 20  2  0
 20 21  1  0
 21 22  2  0
 21 23  1  0
 23 24  1  0
 24 25  1  0
 25 26  1  0
 26 27  1  0
 27 28  1  0
 28 29  1  0
 29 30  1  0
 10 31  1  0
 31 32  2  0
 32  7  1  0
 23 13  1  0
 30 25  1  0
 20 15  1  0
  1 33  1  0
  1 34  1  0
  1 35  1  0
  3 36  1  0
  3 37  1  0
  3 38  1  0
  8 39  1  0
  9 40  1  0
 11 41  1  0
 12 42  1  0
 16 43  1  0
 17 44  1  0
 18 45  1  0
 19 46  1  0
 24 47  1  0
 24 48  1  0
 25 49  1  0
 26 50  1  0
 26 51  1  0
 27 52  1  0
 27 53  1  0
 28 54  1  0
 28 55  1  0
 29 56  1  0
 29 57  1  0
 30 58  1  0
 30 59  1  0
 31 60  1  0
 32 61  1  0
M  END
>  <smiles>  (9) 
CN(C)S(=O)(=O)c1ccc(/C=C/c2nc3ccccc3c(=O)n2CC2CCCCC2)cc1

>  <score_type>  (9) 
oracle

>  <origin>  (9) 
autodockgpu

>  <m_score__min__energy>  (9) 
-9.4499999999999993

>  <m_primary>  (9) 
energy

>  <rmsd>  (9) 
10.335125023329361

>  <m_score__min__rmsd>  (9) 
10.335125023329361

>  <meeko>  (9) 
{"free_energy": -8.49, "intermolecular_energy": -10.58, "internal_energy": -1.74, "cluster_size": 11, "cluster_id": 4, "rank_in_cluster": 3}

>  <energy>  (9) 
-8.86

>  <cluster_rmsd>  (9) 
0.61

>  <cluster>  (9) 
2

$$$$

     RDKit          3D

 61 64  0  0  0  0  0  0  0  0999 V2000
  139.9590   79.7810  223.8350 C   0  0  0  0  0  0  0  0  0  0  0  0
  141.0830   78.9550  223.4530 N   0  0  0  0  0  0  0  0  0  0  0  0
  142.2680   79.7840  223.4250 C   0  0  0  0  0  0  0  0  0  0  0  0
  140.8790   78.2900  221.8720 S   0  0  0  0  0  0  0  0  0  0  0  0
  142.1890   78.3620  221.1480 O   0  0  0  0  0  0  0  0  0  0  0  0
  139.9220   79.1720  221.1020 O   0  0  0  0  0  0  0  0  0  0  0  0
  140.2910   76.6460  221.9060 C   0  0  0  0  0  0  0  0  0  0  0  0
  138.9980   76.3220  222.2570 C   0  0  0  0  0  0  0  0  0  0  0  0
  138.5460   75.0190  222.2770 C   0  0  0  0  0  0  0  0  0  0  0  0
  139.3950   73.9560  221.9380 C   0  0  0  0  0  0  0  0  0  0  0  0
  138.9030   72.5940  221.9660 C   0  0  0  0  0  0  0  0  0  0  0  0
  139.6560   71.5270  222.1640 C   0  0  0  0  0  0  0  0  0  0  0  0
  139.7300   70.9280  223.4970 C   0  0  0  0  0  0  0  0  0  0  0  0
  140.3420   71.6070  224.4830 N   0  0  0  0  0  0  0  0  0  0  0  0
  140.4750   71.1750  225.7450 C   0  0  0  0  0  0  0  0  0  0  0  0
  141.1110   71.8980  226.7350 C   0  0  0  0  0  0  0  0  0  0  0  0
  141.2250   71.4060  228.0330 C   0  0  0  0  0  0  0  0  0  0  0  0
  140.6860   70.1720  228.3140 C   0  0  0  0  0  0  0  0  0  0  0  0
  140.0560   69.4570  227.3290 C   0  0  0  0  0  0  0  0  0  0  0  0
  139.9390   69.9380  226.0420 C   0  0  0  0  0  0  0  0  0  0  0  0
  139.3200   69.2490  225.0490 C   0  0  0  0  0  0  0  0  0  0  0  0
  138.8360   68.1070  225.3600 O   0  0  0  0  0  0  0  0  0  0  0  0
  139.2000   69.7190  223.7680 N   0  0  0  0  0  0  0  0  0  0  0  0
  138.5450   68.9630  222.7880 C   0  0  0  0  0  0  0  0  0  0  0  0
  139.1700   67.8900  222.0410 C   0  0  0  0  0  0  0  0  0  0  0  0
  139.9300   68.4120  220.8420 C   0  0  0  0  0  0  0  0  0  0  0  0
  140.5220   67.2880  220.0010 C   0  0  0  0  0  0  0  0  0  0  0  0
  139.3460   66.5460  219.4020 C   0  0  0  0  0  0  0  0  0  0  0  0
  138.5950   65.9360  220.5870 C   0  0  0  0  0  0  0  0  0  0  0  0
  138.0230   67.0800  221.3920 C   0  0  0  0  0  0  0  0  0  0  0  0
  140.6760   74.3040  221.5920 C   0  0  0  0  0  0  0  0  0  0  0  0
  141.1370   75.6090  221.5700 C   0  0  0  0  0  0  0  0  0  0  0  0
  139.8948   79.8282  224.9321 H   0  0  0  0  0  0  0  0  0  0  0  0
  140.0955   80.7953  223.4317 H   0  0  0  0  0  0  0  0  0  0  0  0
  139.0318   79.3478  223.4317 H   0  0  0  0  0  0  0  0  0  0  0  0
  142.5848   80.0056  224.4548 H   0  0  0  0  0  0  0  0  0  0  0  0
  143.0750   79.2524  222.8995 H   0  0  0  0  0  0  0  0  0  0  0  0
  142.0453   80.7243  222.8995 H   0  0  0  0  0  0  0  0  0  0  0  0
  138.3032   77.1298  222.5304 H   0  0  0  0  0  0  0  0  0  0  0  0
  137.5044   74.8109  222.5630 H   0  0  0  0  0  0  0  0  0  0  0  0
  137.8253   72.4370  221.8113 H   0  0  0  0  0  0  0  0  0  0  0  0
  140.2252   71.0904  221.3301 H   0  0  0  0  0  0  0  0  0  0  0  0
  141.5365   72.8832  226.4933 H   0  0  0  0  0  0  0  0  0  0  0  0
  141.7336   71.9899  228.8143 H   0  0  0  0  0  0  0  0  0  0  0  0
  140.7607   69.7585  229.3306 H   0  0  0  0  0  0  0  0  0  0  0  0
  139.6317   68.4716  227.5719 H   0  0  0  0  0  0  0  0  0  0  0  0
  137.6774   68.5106  223.2906 H   0  0  0  0  0  0  0  0  0  0  0  0
  138.4091   69.7165  221.9982 H   0  0  0  0  0  0  0  0  0  0  0  0
  139.8293   67.3373  222.7264 H   0  0  0  0  0  0  0  0  0  0  0  0
  139.2426   68.9990  220.2151 H   0  0  0  0  0  0  0  0  0  0  0  0
  140.7612   69.0300  221.2123 H   0  0  0  0  0  0  0  0  0  0  0  0
  141.1579   67.7017  219.2045 H   0  0  0  0  0  0  0  0  0  0  0  0
  141.1505   66.6203  220.6087 H   0  0  0  0  0  0  0  0  0  0  0  0
  138.6944   67.2404  218.8513 H   0  0  0  0  0  0  0  0  0  0  0  0
  139.6728   65.7756  218.6881 H   0  0  0  0  0  0  0  0  0  0  0  0
  137.7836   65.2874  220.2251 H   0  0  0  0  0  0  0  0  0  0  0  0
  139.2703   65.3246  221.2036 H   0  0  0  0  0  0  0  0  0  0  0  0
  137.4412   67.7376  220.7294 H   0  0  0  0  0  0  0  0  0  0  0  0
  137.3709   66.6779  222.1814 H   0  0  0  0  0  0  0  0  0  0  0  0
  141.3759   73.5013  221.3167 H   0  0  0  0  0  0  0  0  0  0  0  0
  142.1782   75.8195  221.2845 H   0  0  0  0  0  0  0  0  0  0  0  0
  1  2  1  0
  2  3  1  0
  2  4  1  0
  4  5  2  0
  4  6  2  0
  4  7  1  0
  7  8  2  0
  8  9  1  0
  9 10  2  0
 10 11  1  0
 11 12  2  0
 12 13  1  0
 13 14  2  0
 14 15  1  0
 15 16  2  0
 16 17  1  0
 17 18  2  0
 18 19  1  0
 19 20  2  0
 20 21  1  0
 21 22  2  0
 21 23  1  0
 23 24  1  0
 24 25  1  0
 25 26  1  0
 26 27  1  0
 27 28  1  0
 28 29  1  0
 29 30  1  0
 10 31  1  0
 31 32  2  0
 32  7  1  0
 23 13  1  0
 30 25  1  0
 20 15  1  0
  1 33  1  0
  1 34  1  0
  1 35  1  0
  3 36  1  0
  3 37  1  0
  3 38  1  0
  8 39  1  0
  9 40  1  0
 11 41  1  0
 12 42  1  0
 16 43  1  0
 17 44  1  0
 18 45  1  0
 19 46  1  0
 24 47  1  0
 24 48  1  0
 25 49  1  0
 26 50  1  0
 26 51  1  0
 27 52  1  0
 27 53  1  0
 28 54  1  0
 28 55  1  0
 29 56  1  0
 29 57  1  0
 30 58  1  0
 30 59  1  0
 31 60  1  0
 32 61  1  0
M  END
>  <smiles>  (10) 
CN(C)S(=O)(=O)c1ccc(/C=C/c2nc3ccccc3c(=O)n2CC2CCCCC2)cc1

>  <score_type>  (10) 
oracle

>  <origin>  (10) 
autodockgpu

>  <m_score__min__energy>  (10) 
-9.4499999999999993

>  <m_primary>  (10) 
energy

>  <rmsd>  (10) 
10.994489988383874

>  <m_score__min__rmsd>  (10) 
10.994489988383874

>  <meeko>  (10) 
{"free_energy": -8.33, "intermolecular_energy": -10.42, "internal_energy": -1.42, "cluster_size": 8, "cluster_id": 7, "rank_in_cluster": 2}

>  <energy>  (10) 
-8.83

>  <cluster_rmsd>  (10) 
1.36

>  <cluster>  (10) 
2

$$$$

     RDKit          3D

 61 64  0  0  0  0  0  0  0  0999 V2000
  140.0960   70.4490  227.9100 C   0  0  0  0  0  0  0  0  0  0  0  0
  139.9790   69.0080  227.8700 N   0  0  0  0  0  0  0  0  0  0  0  0
  141.0660   68.4430  228.6400 C   0  0  0  0  0  0  0  0  0  0  0  0
  140.1140   68.3990  226.2600 S   0  0  0  0  0  0  0  0  0  0  0  0
  139.1800   67.2380  226.1050 O   0  0  0  0  0  0  0  0  0  0  0  0
  141.5100   67.8470  226.0720 O   0  0  0  0  0  0  0  0  0  0  0  0
  139.7800   69.6160  225.0530 C   0  0  0  0  0  0  0  0  0  0  0  0
  138.6340   69.6160  224.2880 C   0  0  0  0  0  0  0  0  0  0  0  0
  138.3810   70.5850  223.3400 C   0  0  0  0  0  0  0  0  0  0  0  0
  139.2940   71.6240  223.1100 C   0  0  0  0  0  0  0  0  0  0  0  0
  139.0130   72.6330  222.1100 C   0  0  0  0  0  0  0  0  0  0  0  0
  139.5570   73.8360  222.0810 C   0  0  0  0  0  0  0  0  0  0  0  0
  140.7870   74.0570  221.3190 C   0  0  0  0  0  0  0  0  0  0  0  0
  141.7760   73.1490  221.3980 N   0  0  0  0  0  0  0  0  0  0  0  0
  142.9460   73.2310  220.7510 C   0  0  0  0  0  0  0  0  0  0  0  0
  143.9420   72.2790  220.8550 C   0  0  0  0  0  0  0  0  0  0  0  0
  145.1440   72.4080  220.1620 C   0  0  0  0  0  0  0  0  0  0  0  0
  145.3220   73.5130  219.3640 C   0  0  0  0  0  0  0  0  0  0  0  0
  144.3320   74.4560  219.2630 C   0  0  0  0  0  0  0  0  0  0  0  0
  143.1410   74.3340  219.9460 C   0  0  0  0  0  0  0  0  0  0  0  0
  142.1450   75.2550  219.8630 C   0  0  0  0  0  0  0  0  0  0  0  0
  142.3590   76.2640  219.1080 O   0  0  0  0  0  0  0  0  0  0  0  0
  140.9580   75.1420  220.5370 N   0  0  0  0  0  0  0  0  0  0  0  0
  139.9660   76.1220  220.4070 C   0  0  0  0  0  0  0  0  0  0  0  0
  140.0470   77.4400  221.0050 C   0  0  0  0  0  0  0  0  0  0  0  0
  141.4560   77.7680  221.4460 C   0  0  0  0  0  0  0  0  0  0  0  0
  141.5390   79.1170  222.1510 C   0  0  0  0  0  0  0  0  0  0  0  0
  140.7680   78.9630  223.4460 C   0  0  0  0  0  0  0  0  0  0  0  0
  139.3170   78.7070  223.0350 C   0  0  0  0  0  0  0  0  0  0  0  0
  139.2770   77.3630  222.3440 C   0  0  0  0  0  0  0  0  0  0  0  0
  140.4270   71.6030  223.8840 C   0  0  0  0  0  0  0  0  0  0  0  0
  140.6870   70.6340  224.8370 C   0  0  0  0  0  0  0  0  0  0  0  0
  140.1233   70.7857  228.9568 H   0  0  0  0  0  0  0  0  0  0  0  0
  141.0220   70.7559  227.4018 H   0  0  0  0  0  0  0  0  0  0  0  0
  139.2316   70.9013  227.4018 H   0  0  0  0  0  0  0  0  0  0  0  0
  140.8517   68.5544  229.7132 H   0  0  0  0  0  0  0  0  0  0  0  0
  141.1721   67.3756  228.3961 H   0  0  0  0  0  0  0  0  0  0  0  0
  142.0005   68.9695  228.3961 H   0  0  0  0  0  0  0  0  0  0  0  0
  137.8952   68.8151  224.4387 H   0  0  0  0  0  0  0  0  0  0  0  0
  137.4498   70.5422  222.7560 H   0  0  0  0  0  0  0  0  0  0  0  0
  138.2942   72.3790  221.3170 H   0  0  0  0  0  0  0  0  0  0  0  0
  139.0880   74.6679  222.6269 H   0  0  0  0  0  0  0  0  0  0  0  0
  143.7827   71.4010  221.4982 H   0  0  0  0  0  0  0  0  0  0  0  0
  145.9309   71.6445  220.2513 H   0  0  0  0  0  0  0  0  0  0  0  0
  146.2608   73.6409  218.8052 H   0  0  0  0  0  0  0  0  0  0  0  0
  144.4925   75.3336  218.6196 H   0  0  0  0  0  0  0  0  0  0  0  0
  139.8535   76.2912  219.3259 H   0  0  0  0  0  0  0  0  0  0  0  0
  139.1510   75.6747  220.9949 H   0  0  0  0  0  0  0  0  0  0  0  0
  139.6750   78.1707  220.2717 H   0  0  0  0  0  0  0  0  0  0  0  0
  141.8023   76.9852  222.1369 H   0  0  0  0  0  0  0  0  0  0  0  0
  142.0885   77.8169  220.5474 H   0  0  0  0  0  0  0  0  0  0  0  0
  142.5878   79.3747  222.3596 H   0  0  0  0  0  0  0  0  0  0  0  0
  141.1216   79.9220  221.5283 H   0  0  0  0  0  0  0  0  0  0  0  0
  141.1580   78.1136  224.0260 H   0  0  0  0  0  0  0  0  0  0  0  0
  140.8587   79.8562  224.0816 H   0  0  0  0  0  0  0  0  0  0  0  0
  138.6705   78.6924  223.9249 H   0  0  0  0  0  0  0  0  0  0  0  0
  138.9558   79.5009  222.3647 H   0  0  0  0  0  0  0  0  0  0  0  0
  139.7439   76.6056  222.9908 H   0  0  0  0  0  0  0  0  0  0  0  0
  138.2307   77.0870  222.1462 H   0  0  0  0  0  0  0  0  0  0  0  0
  141.1700   72.4010  223.7387 H   0  0  0  0  0  0  0  0  0  0  0  0
  141.6171   70.6749  225.4229 H   0  0  0  0  0  0  0  0  0  0  0  0
  1  2  1  0
  2  3  1  0
  2  4  1  0
  4  5  2  0
  4  6  2  0
  4  7  1  0
  7  8  2  0
  8  9  1  0
  9 10  2  0
 10 11  1  0
 11 12  2  0
 12 13  1  0
 13 14  2  0
 14 15  1  0
 15 16  2  0
 16 17  1  0
 17 18  2  0
 18 19  1  0
 19 20  2  0
 20 21  1  0
 21 22  2  0
 21 23  1  0
 23 24  1  0
 24 25  1  0
 25 26  1  0
 26 27  1  0
 27 28  1  0
 28 29  1  0
 29 30  1  0
 10 31  1  0
 31 32  2  0
 32  7  1  0
 23 13  1  0
 30 25  1  0
 20 15  1  0
  1 33  1  0
  1 34  1  0
  1 35  1  0
  3 36  1  0
  3 37  1  0
  3 38  1  0
  8 39  1  0
  9 40  1  0
 11 41  1  0
 12 42  1  0
 16 43  1  0
 17 44  1  0
 18 45  1  0
 19 46  1  0
 24 47  1  0
 24 48  1  0
 25 49  1  0
 26 50  1  0
 26 51  1  0
 27 52  1  0
 27 53  1  0
 28 54  1  0
 28 55  1  0
 29 56  1  0
 29 57  1  0
 30 58  1  0
 30 59  1  0
 31 60  1  0
 32 61  1  0
M  END
>  <smiles>  (11) 
CN(C)S(=O)(=O)c1ccc(/C=C/c2nc3ccccc3c(=O)n2CC2CCCCC2)cc1

>  <score_type>  (11) 
oracle

>  <origin>  (11) 
autodockgpu

>  <m_score__min__energy>  (11) 
-9.4499999999999993

>  <m_primary>  (11) 
energy

>  <rmsd>  (11) 
7.417660473165407

>  <m_score__min__rmsd>  (11) 
7.417660473165407

>  <meeko>  (11) 
{"free_energy": -8.77, "intermolecular_energy": -10.86, "internal_energy": -1.5, "cluster_size": 8, "cluster_id": 2, "rank_in_cluster": 6}

>  <energy>  (11) 
-8.77

>  <cluster_rmsd>  (11) 
0.61

>  <cluster>  (11) 
2

$$$$

     RDKit          3D

 61 64  0  0  0  0  0  0  0  0999 V2000
  140.3000   79.3860  223.5820 C   0  0  0  0  0  0  0  0  0  0  0  0
  141.3910   78.5730  223.0930 N   0  0  0  0  0  0  0  0  0  0  0  0
  142.5610   79.4140  222.9650 C   0  0  0  0  0  0  0  0  0  0  0  0
  141.0510   77.9170  221.5330 S   0  0  0  0  0  0  0  0  0  0  0  0
  142.1880   78.2460  220.6150 O   0  0  0  0  0  0  0  0  0  0  0  0
  139.8370   78.6240  220.9710 O   0  0  0  0  0  0  0  0  0  0  0  0
  140.7790   76.1930  221.5740 C   0  0  0  0  0  0  0  0  0  0  0  0
  139.5950   75.6320  221.9990 C   0  0  0  0  0  0  0  0  0  0  0  0
  139.3930   74.2680  222.0240 C   0  0  0  0  0  0  0  0  0  0  0  0
  140.4000   73.3830  221.6140 C   0  0  0  0  0  0  0  0  0  0  0  0
  140.1710   71.9530  221.6480 C   0  0  0  0  0  0  0  0  0  0  0  0
  139.1970   71.3640  222.3170 C   0  0  0  0  0  0  0  0  0  0  0  0
  139.4760   70.7500  223.6150 C   0  0  0  0  0  0  0  0  0  0  0  0
  140.0440   71.4940  224.5800 N   0  0  0  0  0  0  0  0  0  0  0  0
  140.3480   71.0550  225.8090 C   0  0  0  0  0  0  0  0  0  0  0  0
  140.9330   71.8470  226.7780 C   0  0  0  0  0  0  0  0  0  0  0  0
  141.2310   71.3460  228.0430 C   0  0  0  0  0  0  0  0  0  0  0  0
  140.9290   70.0310  228.3120 C   0  0  0  0  0  0  0  0  0  0  0  0
  140.3500   69.2470  227.3480 C   0  0  0  0  0  0  0  0  0  0  0  0
  140.0520   69.7380  226.0950 C   0  0  0  0  0  0  0  0  0  0  0  0
  139.4780   68.9820  225.1220 C   0  0  0  0  0  0  0  0  0  0  0  0
  139.2170   67.7660  225.4220 O   0  0  0  0  0  0  0  0  0  0  0  0
  139.1790   69.4610  223.8750 N   0  0  0  0  0  0  0  0  0  0  0  0
  138.5830   68.6320  222.9160 C   0  0  0  0  0  0  0  0  0  0  0  0
  137.1510   68.4990  222.7370 C   0  0  0  0  0  0  0  0  0  0  0  0
  136.6680   69.2490  221.5150 C   0  0  0  0  0  0  0  0  0  0  0  0
  135.1530   69.1870  221.3630 C   0  0  0  0  0  0  0  0  0  0  0  0
  134.5800   69.9650  222.5280 C   0  0  0  0  0  0  0  0  0  0  0  0
  134.9850   69.1880  223.7830 C   0  0  0  0  0  0  0  0  0  0  0  0
  136.4890   69.2760  223.8990 C   0  0  0  0  0  0  0  0  0  0  0  0
  141.5690   73.9650  221.1950 C   0  0  0  0  0  0  0  0  0  0  0  0
  141.7790   75.3330  221.1670 C   0  0  0  0  0  0  0  0  0  0  0  0
  140.3046   79.3826  224.6820 H   0  0  0  0  0  0  0  0  0  0  0  0
  140.4194   80.4172  223.2180 H   0  0  0  0  0  0  0  0  0  0  0  0
  139.3460   78.9768  223.2180 H   0  0  0  0  0  0  0  0  0  0  0  0
  142.9321   79.6807  223.9656 H   0  0  0  0  0  0  0  0  0  0  0  0
  143.3445   78.8711  222.4160 H   0  0  0  0  0  0  0  0  0  0  0  0
  142.2961   80.3297  222.4160 H   0  0  0  0  0  0  0  0  0  0  0  0
  138.7822   76.2951  222.3300 H   0  0  0  0  0  0  0  0  0  0  0  0
  138.4283   73.8689  222.3705 H   0  0  0  0  0  0  0  0  0  0  0  0
  140.8577   71.3121  221.0755 H   0  0  0  0  0  0  0  0  0  0  0  0
  138.1796   71.3351  221.8999 H   0  0  0  0  0  0  0  0  0  0  0  0
  141.1686   72.8960  226.5455 H   0  0  0  0  0  0  0  0  0  0  0  0
  141.6961   71.9856  228.8076 H   0  0  0  0  0  0  0  0  0  0  0  0
  141.1526   69.6079  229.3025 H   0  0  0  0  0  0  0  0  0  0  0  0
  140.1169   68.1975  227.5808 H   0  0  0  0  0  0  0  0  0  0  0  0
  138.9747   68.9697  221.9452 H   0  0  0  0  0  0  0  0  0  0  0  0
  138.8374   67.6378  223.3120 H   0  0  0  0  0  0  0  0  0  0  0  0
  136.9141   67.4268  222.6710 H   0  0  0  0  0  0  0  0  0  0  0  0
  136.9724   70.3024  221.6026 H   0  0  0  0  0  0  0  0  0  0  0  0
  137.1159   68.7752  220.6291 H   0  0  0  0  0  0  0  0  0  0  0  0
  134.8462   69.6446  220.4110 H   0  0  0  0  0  0  0  0  0  0  0  0
  134.7926   68.1477  221.3588 H   0  0  0  0  0  0  0  0  0  0  0  0
  134.9996   70.9815  222.5540 H   0  0  0  0  0  0  0  0  0  0  0  0
  133.4878   70.0690  222.4493 H   0  0  0  0  0  0  0  0  0  0  0  0
  134.5121   69.6334  224.6707 H   0  0  0  0  0  0  0  0  0  0  0  0
  134.6600   68.1394  223.7141 H   0  0  0  0  0  0  0  0  0  0  0  0
  136.7974   70.3310  223.8552 H   0  0  0  0  0  0  0  0  0  0  0  0
  136.8055   68.8364  224.8564 H   0  0  0  0  0  0  0  0  0  0  0  0
  142.3859   73.3077  220.8624 H   0  0  0  0  0  0  0  0  0  0  0  0
  142.7427   75.7346  220.8205 H   0  0  0  0  0  0  0  0  0  0  0  0
  1  2  1  0
  2  3  1  0
  2  4  1  0
  4  5  2  0
  4  6  2  0
  4  7  1  0
  7  8  2  0
  8  9  1  0
  9 10  2  0
 10 11  1  0
 11 12  2  0
 12 13  1  0
 13 14  2  0
 14 15  1  0
 15 16  2  0
 16 17  1  0
 17 18  2  0
 18 19  1  0
 19 20  2  0
 20 21  1  0
 21 22  2  0
 21 23  1  0
 23 24  1  0
 24 25  1  0
 25 26  1  0
 26 27  1  0
 27 28  1  0
 28 29  1  0
 29 30  1  0
 10 31  1  0
 31 32  2  0
 32  7  1  0
 23 13  1  0
 30 25  1  0
 20 15  1  0
  1 33  1  0
  1 34  1  0
  1 35  1  0
  3 36  1  0
  3 37  1  0
  3 38  1  0
  8 39  1  0
  9 40  1  0
 11 41  1  0
 12 42  1  0
 16 43  1  0
 17 44  1  0
 18 45  1  0
 19 46  1  0
 24 47  1  0
 24 48  1  0
 25 49  1  0
 26 50  1  0
 26 51  1  0
 27 52  1  0
 27 53  1  0
 28 54  1  0
 28 55  1  0
 29 56  1  0
 29 57  1  0
 30 58  1  0
 30 59  1  0
 31 60  1  0
 32 61  1  0
M  END
>  <smiles>  (12) 
CN(C)S(=O)(=O)c1ccc(/C=C/c2nc3ccccc3c(=O)n2CC2CCCCC2)cc1

>  <score_type>  (12) 
oracle

>  <origin>  (12) 
autodockgpu

>  <m_score__min__energy>  (12) 
-9.4499999999999993

>  <m_primary>  (12) 
energy

>  <rmsd>  (12) 
11.118316182100433

>  <m_score__min__rmsd>  (12) 
11.118316182100433

>  <meeko>  (12) 
{"free_energy": -8.26, "intermolecular_energy": -10.34, "internal_energy": -1.61, "cluster_size": 8, "cluster_id": 7, "rank_in_cluster": 4}

>  <energy>  (12) 
-8.36

>  <cluster_rmsd>  (12) 
1.06

>  <cluster>  (12) 
2

$$$$

     RDKit          3D

 61 64  0  0  0  0  0  0  0  0999 V2000
  140.3200   70.6700  227.8990 C   0  0  0  0  0  0  0  0  0  0  0  0
  139.8860   69.2930  227.8140 N   0  0  0  0  0  0  0  0  0  0  0  0
  140.6790   68.5110  228.7360 C   0  0  0  0  0  0  0  0  0  0  0  0
  140.1340   68.6400  226.2350 S   0  0  0  0  0  0  0  0  0  0  0  0
  139.2390   67.4510  226.0610 O   0  0  0  0  0  0  0  0  0  0  0  0
  141.5510   68.1200  226.1490 O   0  0  0  0  0  0  0  0  0  0  0  0
  139.8440   69.8110  224.9720 C   0  0  0  0  0  0  0  0  0  0  0  0
  140.7620   70.7780  224.6230 C   0  0  0  0  0  0  0  0  0  0  0  0
  140.5210   71.6950  223.6220 C   0  0  0  0  0  0  0  0  0  0  0  0
  139.3140   71.6820  222.9080 C   0  0  0  0  0  0  0  0  0  0  0  0
  139.0780   72.6530  221.8600 C   0  0  0  0  0  0  0  0  0  0  0  0
  139.6790   72.6520  220.6850 C   0  0  0  0  0  0  0  0  0  0  0  0
  140.9950   73.2760  220.5420 C   0  0  0  0  0  0  0  0  0  0  0  0
  142.0880   72.5870  220.9140 N   0  0  0  0  0  0  0  0  0  0  0  0
  143.3470   73.0400  220.8320 C   0  0  0  0  0  0  0  0  0  0  0  0
  144.4480   72.3050  221.2240 C   0  0  0  0  0  0  0  0  0  0  0  0
  145.7380   72.8200  221.1200 C   0  0  0  0  0  0  0  0  0  0  0  0
  145.8960   74.0890  220.6150 C   0  0  0  0  0  0  0  0  0  0  0  0
  144.8010   74.8170  220.2280 C   0  0  0  0  0  0  0  0  0  0  0  0
  143.5220   74.3130  220.3270 C   0  0  0  0  0  0  0  0  0  0  0  0
  142.4200   75.0130  219.9510 C   0  0  0  0  0  0  0  0  0  0  0  0
  142.6200   76.1880  219.4880 O   0  0  0  0  0  0  0  0  0  0  0  0
  141.1460   74.5200  220.0460 N   0  0  0  0  0  0  0  0  0  0  0  0
  140.0500   75.2900  219.6360 C   0  0  0  0  0  0  0  0  0  0  0  0
  139.4010   76.2840  220.4680 C   0  0  0  0  0  0  0  0  0  0  0  0
  140.1080   76.4490  221.7960 C   0  0  0  0  0  0  0  0  0  0  0  0
  139.3880   77.4300  222.7130 C   0  0  0  0  0  0  0  0  0  0  0  0
  138.0680   76.7810  223.0710 C   0  0  0  0  0  0  0  0  0  0  0  0
  137.2920   76.6700  221.7570 C   0  0  0  0  0  0  0  0  0  0  0  0
  138.0340   75.6890  220.8790 C   0  0  0  0  0  0  0  0  0  0  0  0
  138.4170   70.7110  223.2730 C   0  0  0  0  0  0  0  0  0  0  0  0
  138.6520   69.7880  224.2770 C   0  0  0  0  0  0  0  0  0  0  0  0
  140.4117   70.9610  228.9559 H   0  0  0  0  0  0  0  0  0  0  0  0
  141.2958   70.7782  227.4029 H   0  0  0  0  0  0  0  0  0  0  0  0
  139.5826   71.3182  227.4029 H   0  0  0  0  0  0  0  0  0  0  0  0
  140.4092   68.7771  229.7687 H   0  0  0  0  0  0  0  0  0  0  0  0
  140.4849   67.4410  228.5704 H   0  0  0  0  0  0  0  0  0  0  0  0
  141.7462   68.7200  228.5704 H   0  0  0  0  0  0  0  0  0  0  0  0
  141.7201   70.8196  225.1618 H   0  0  0  0  0  0  0  0  0  0  0  0
  141.2861   72.4473  223.3800 H   0  0  0  0  0  0  0  0  0  0  0  0
  138.3449   73.4489  222.0575 H   0  0  0  0  0  0  0  0  0  0  0  0
  139.1926   72.1839  219.8165 H   0  0  0  0  0  0  0  0  0  0  0  0
  144.3035   71.2917  221.6268 H   0  0  0  0  0  0  0  0  0  0  0  0
  146.6089   72.2260  221.4342 H   0  0  0  0  0  0  0  0  0  0  0  0
  146.9033   74.5210  220.5214 H   0  0  0  0  0  0  0  0  0  0  0  0
  144.9470   75.8311  219.8275 H   0  0  0  0  0  0  0  0  0  0  0  0
  140.3828   75.8265  218.7352 H   0  0  0  0  0  0  0  0  0  0  0  0
  139.2650   74.5217  219.5772 H   0  0  0  0  0  0  0  0  0  0  0  0
  139.3706   77.2302  219.9078 H   0  0  0  0  0  0  0  0  0  0  0  0
  140.1586   75.4698  222.2946 H   0  0  0  0  0  0  0  0  0  0  0  0
  141.1132   76.8487  221.5962 H   0  0  0  0  0  0  0  0  0  0  0  0
  139.9828   77.6108  223.6205 H   0  0  0  0  0  0  0  0  0  0  0  0
  139.2368   78.4021  222.2210 H   0  0  0  0  0  0  0  0  0  0  0  0
  138.2357   75.7834  223.5030 H   0  0  0  0  0  0  0  0  0  0  0  0
  137.5166   77.3682  223.8201 H   0  0  0  0  0  0  0  0  0  0  0  0
  136.2727   76.3051  221.9514 H   0  0  0  0  0  0  0  0  0  0  0  0
  137.2148   77.6513  221.2660 H   0  0  0  0  0  0  0  0  0  0  0  0
  138.1950   74.7524  221.4330 H   0  0  0  0  0  0  0  0  0  0  0  0
  137.4391   75.4878  219.9759 H   0  0  0  0  0  0  0  0  0  0  0  0
  137.4572   70.6631  222.7378 H   0  0  0  0  0  0  0  0  0  0  0  0
  137.8879   69.0353  224.5213 H   0  0  0  0  0  0  0  0  0  0  0  0
  1  2  1  0
  2  3  1  0
  2  4  1  0
  4  5  2  0
  4  6  2  0
  4  7  1  0
  7  8  2  0
  8  9  1  0
  9 10  2  0
 10 11  1  0
 11 12  2  0
 12 13  1  0
 13 14  2  0
 14 15  1  0
 15 16  2  0
 16 17  1  0
 17 18  2  0
 18 19  1  0
 19 20  2  0
 20 21  1  0
 21 22  2  0
 21 23  1  0
 23 24  1  0
 24 25  1  0
 25 26  1  0
 26 27  1  0
 27 28  1  0
 28 29  1  0
 29 30  1  0
 10 31  1  0
 31 32  2  0
 32  7  1  0
 23 13  1  0
 30 25  1  0
 20 15  1  0
  1 33  1  0
  1 34  1  0
  1 35  1  0
  3 36  1  0
  3 37  1  0
  3 38  1  0
  8 39  1  0
  9 40  1  0
 11 41  1  0
 12 42  1  0
 16 43  1  0
 17 44  1  0
 18 45  1  0
 19 46  1  0
 24 47  1  0
 24 48  1  0
 25 49  1  0
 26 50  1  0
 26 51  1  0
 27 52  1  0
 27 53  1  0
 28 54  1  0
 28 55  1  0
 29 56  1  0
 29 57  1  0
 30 58  1  0
 30 59  1  0
 31 60  1  0
 32 61  1  0
M  END
>  <smiles>  (13) 
CN(C)S(=O)(=O)c1ccc(/C=C/c2nc3ccccc3c(=O)n2CC2CCCCC2)cc1

>  <score_type>  (13) 
oracle

>  <origin>  (13) 
autodockgpu

>  <m_score__min__energy>  (13) 
-9.4499999999999993

>  <m_primary>  (13) 
energy

>  <rmsd>  (13) 
7.292532283750202

>  <m_score__min__rmsd>  (13) 
7.292532283750202

>  <meeko>  (13) 
{"free_energy": -7.84, "intermolecular_energy": -9.93, "internal_energy": -1.93, "cluster_size": 8, "cluster_id": 2, "rank_in_cluster": 8}

>  <energy>  (13) 
-7.84

>  <cluster_rmsd>  (13) 
1.11

>  <cluster>  (13) 
2

$$$$

     RDKit          3D

 61 64  0  0  0  0  0  0  0  0999 V2000
  131.1460   74.0310  224.8110 C   0  0  0  0  0  0  0  0  0  0  0  0
  131.8620   75.0910  225.4860 N   0  0  0  0  0  0  0  0  0  0  0  0
  132.3090   76.0420  224.4920 C   0  0  0  0  0  0  0  0  0  0  0  0
  133.2630   74.4970  226.3020 S   0  0  0  0  0  0  0  0  0  0  0  0
  132.8250   73.7140  227.5020 O   0  0  0  0  0  0  0  0  0  0  0  0
  134.0460   75.6780  226.8300 O   0  0  0  0  0  0  0  0  0  0  0  0
  134.2750   73.5150  225.2700 C   0  0  0  0  0  0  0  0  0  0  0  0
  135.0900   74.0490  224.2960 C   0  0  0  0  0  0  0  0  0  0  0  0
  135.8850   73.2620  223.4900 C   0  0  0  0  0  0  0  0  0  0  0  0
  135.8960   71.8670  223.6290 C   0  0  0  0  0  0  0  0  0  0  0  0
  136.7380   71.0570  222.7730 C   0  0  0  0  0  0  0  0  0  0  0  0
  138.0540   70.9890  222.8590 C   0  0  0  0  0  0  0  0  0  0  0  0
  138.6730   70.3940  224.0440 C   0  0  0  0  0  0  0  0  0  0  0  0
  139.2840   71.1970  224.9330 N   0  0  0  0  0  0  0  0  0  0  0  0
  139.8850   70.7810  226.0570 C   0  0  0  0  0  0  0  0  0  0  0  0
  140.5050   71.6330  226.9500 C   0  0  0  0  0  0  0  0  0  0  0  0
  141.1170   71.1540  228.1050 C   0  0  0  0  0  0  0  0  0  0  0  0
  141.0940   69.7990  228.3430 C   0  0  0  0  0  0  0  0  0  0  0  0
  140.4790   68.9550  227.4540 C   0  0  0  0  0  0  0  0  0  0  0  0
  139.8700   69.4240  226.3090 C   0  0  0  0  0  0  0  0  0  0  0  0
  139.2550   68.6090  225.4130 C   0  0  0  0  0  0  0  0  0  0  0  0
  139.2610   67.3580  225.6790 O   0  0  0  0  0  0  0  0  0  0  0  0
  138.6480   69.0660  224.2730 N   0  0  0  0  0  0  0  0  0  0  0  0
  138.0250   68.1750  223.3900 C   0  0  0  0  0  0  0  0  0  0  0  0
  138.7150   67.4730  222.3260 C   0  0  0  0  0  0  0  0  0  0  0  0
  139.5220   68.4190  221.4640 C   0  0  0  0  0  0  0  0  0  0  0  0
  140.1860   67.7060  220.2930 C   0  0  0  0  0  0  0  0  0  0  0  0
  139.0620   67.2450  219.3890 C   0  0  0  0  0  0  0  0  0  0  0  0
  138.2670   66.2230  220.2050 C   0  0  0  0  0  0  0  0  0  0  0  0
  137.6240   66.9690  221.3530 C   0  0  0  0  0  0  0  0  0  0  0  0
  135.0770   71.3600  224.6060 C   0  0  0  0  0  0  0  0  0  0  0  0
  134.2770   72.1430  225.4180 C   0  0  0  0  0  0  0  0  0  0  0  0
  130.6936   73.3612  225.5571 H   0  0  0  0  0  0  0  0  0  0  0  0
  130.3557   74.4655  224.1813 H   0  0  0  0  0  0  0  0  0  0  0  0
  131.8442   73.4601  224.1813 H   0  0  0  0  0  0  0  0  0  0  0  0
  132.7255   76.9281  224.9935 H   0  0  0  0  0  0  0  0  0  0  0  0
  133.0836   75.5785  223.8633 H   0  0  0  0  0  0  0  0  0  0  0  0
  131.4579   76.3426  223.8633 H   0  0  0  0  0  0  0  0  0  0  0  0
  135.1070   75.1400  224.1567 H   0  0  0  0  0  0  0  0  0  0  0  0
  136.5199   73.7356  222.7267 H   0  0  0  0  0  0  0  0  0  0  0  0
  136.2457   70.4550  221.9950 H   0  0  0  0  0  0  0  0  0  0  0  0
  138.6819   71.3778  222.0438 H   0  0  0  0  0  0  0  0  0  0  0  0
  140.5154   72.7135  226.7441 H   0  0  0  0  0  0  0  0  0  0  0  0
  141.6069   71.8418  228.8099 H   0  0  0  0  0  0  0  0  0  0  0  0
  141.5695   69.3921  229.2476 H   0  0  0  0  0  0  0  0  0  0  0  0
  140.4713   67.8745  227.6599 H   0  0  0  0  0  0  0  0  0  0  0  0
  137.5773   67.3935  224.0215 H   0  0  0  0  0  0  0  0  0  0  0  0
  137.3920   68.8631  222.8105 H   0  0  0  0  0  0  0  0  0  0  0  0
  139.3527   66.7021  222.7834 H   0  0  0  0  0  0  0  0  0  0  0  0
  138.8526   69.1983  221.0708 H   0  0  0  0  0  0  0  0  0  0  0  0
  140.3162   68.8519  222.0900 H   0  0  0  0  0  0  0  0  0  0  0  0
  140.8510   68.3963  219.7534 H   0  0  0  0  0  0  0  0  0  0  0  0
  140.7998   66.8593  220.6342 H   0  0  0  0  0  0  0  0  0  0  0  0
  138.4215   68.0946  219.1097 H   0  0  0  0  0  0  0  0  0  0  0  0
  139.4453   66.8089  218.4547 H   0  0  0  0  0  0  0  0  0  0  0  0
  137.4927   65.7592  219.5763 H   0  0  0  0  0  0  0  0  0  0  0  0
  138.9253   65.4247  220.5783 H   0  0  0  0  0  0  0  0  0  0  0  0
  137.0599   67.8278  220.9602 H   0  0  0  0  0  0  0  0  0  0  0  0
  136.9427   66.2925  221.8898 H   0  0  0  0  0  0  0  0  0  0  0  0
  135.0555   70.2699  224.7516 H   0  0  0  0  0  0  0  0  0  0  0  0
  133.6417   71.6718  226.1825 H   0  0  0  0  0  0  0  0  0  0  0  0
  1  2  1  0
  2  3  1  0
  2  4  1  0
  4  5  2  0
  4  6  2  0
  4  7  1  0
  7  8  2  0
  8  9  1  0
  9 10  2  0
 10 11  1  0
 11 12  2  0
 12 13  1  0
 13 14  2  0
 14 15  1  0
 15 16  2  0
 16 17  1  0
 17 18  2  0
 18 19  1  0
 19 20  2  0
 20 21  1  0
 21 22  2  0
 21 23  1  0
 23 24  1  0
 24 25  1  0
 25 26  1  0
 26 27  1  0
 27 28  1  0
 28 29  1  0
 29 30  1  0
 10 31  1  0
 31 32  2  0
 32  7  1  0
 23 13  1  0
 30 25  1  0
 20 15  1  0
  1 33  1  0
  1 34  1  0
  1 35  1  0
  3 36  1  0
  3 37  1  0
  3 38  1  0
  8 39  1  0
  9 40  1  0
 11 41  1  0
 12 42  1  0
 16 43  1  0
 17 44  1  0
 18 45  1  0
 19 46  1  0
 24 47  1  0
 24 48  1  0
 25 49  1  0
 26 50  1  0
 26 51  1  0
 27 52  1  0
 27 53  1  0
 28 54  1  0
 28 55  1  0
 29 56  1  0
 29 57  1  0
 30 58  1  0
 30 59  1  0
 31 60  1  0
 32 61  1  0
M  END
>  <smiles>  (14) 
CN(C)S(=O)(=O)c1ccc(/C=C/c2nc3ccccc3c(=O)n2CC2CCCCC2)cc1

>  <score_type>  (14) 
oracle

>  <origin>  (14) 
autodockgpu

>  <m_score__min__energy>  (14) 
-9.4499999999999993

>  <m_primary>  (14) 
energy

>  <rmsd>  (14) 
11.232848293597955

>  <m_score__min__rmsd>  (14) 
11.232848293597955

>  <meeko>  (14) 
{"free_energy": -7.76, "intermolecular_energy": -9.85, "internal_energy": -1.7, "cluster_size": 1, "cluster_id": 8, "rank_in_cluster": 1}

>  <energy>  (14) 
-8.68

>  <cluster_rmsd>  (14) 
0.0

>  <cluster>  (14) 
3

$$$$

     RDKit          3D

 61 64  0  0  0  0  0  0  0  0999 V2000
  141.7970   78.9890  224.2120 C   0  0  0  0  0  0  0  0  0  0  0  0
  141.8410   79.2840  222.7970 N   0  0  0  0  0  0  0  0  0  0  0  0
  142.0320   80.7080  222.6360 C   0  0  0  0  0  0  0  0  0  0  0  0
  140.3610   78.8680  222.0110 S   0  0  0  0  0  0  0  0  0  0  0  0
  140.3940   79.4020  220.6110 O   0  0  0  0  0  0  0  0  0  0  0  0
  139.2290   79.5860  222.7110 O   0  0  0  0  0  0  0  0  0  0  0  0
  140.0680   77.1460  222.0000 C   0  0  0  0  0  0  0  0  0  0  0  0
  138.8530   76.5920  222.3400 C   0  0  0  0  0  0  0  0  0  0  0  0
  138.6350   75.2310  222.3240 C   0  0  0  0  0  0  0  0  0  0  0  0
  139.6550   74.3410  221.9590 C   0  0  0  0  0  0  0  0  0  0  0  0
  139.4080   72.9140  221.9500 C   0  0  0  0  0  0  0  0  0  0  0  0
  140.3030   71.9940  222.2580 C   0  0  0  0  0  0  0  0  0  0  0  0
  140.1890   71.2650  223.5210 C   0  0  0  0  0  0  0  0  0  0  0  0
  140.6640   71.8290  224.6450 N   0  0  0  0  0  0  0  0  0  0  0  0
  140.6190   71.2710  225.8630 C   0  0  0  0  0  0  0  0  0  0  0  0
  141.1180   71.8790  226.9990 C   0  0  0  0  0  0  0  0  0  0  0  0
  141.0490   71.2580  228.2440 C   0  0  0  0  0  0  0  0  0  0  0  0
  140.4680   70.0140  228.3220 C   0  0  0  0  0  0  0  0  0  0  0  0
  139.9750   69.4130  227.1930 C   0  0  0  0  0  0  0  0  0  0  0  0
  140.0400   70.0220  225.9580 C   0  0  0  0  0  0  0  0  0  0  0  0
  139.5590   69.4470  224.8240 C   0  0  0  0  0  0  0  0  0  0  0  0
  139.0290   68.2910  224.9500 O   0  0  0  0  0  0  0  0  0  0  0  0
  139.6190   70.0450  223.5940 N   0  0  0  0  0  0  0  0  0  0  0  0
  139.1010   69.4040  222.4620 C   0  0  0  0  0  0  0  0  0  0  0  0
  137.6900   69.3480  222.1370 C   0  0  0  0  0  0  0  0  0  0  0  0
  136.8530   70.0930  223.1530 C   0  0  0  0  0  0  0  0  0  0  0  0
  135.3600   69.9720  222.8690 C   0  0  0  0  0  0  0  0  0  0  0  0
  135.0060   68.5170  223.0890 C   0  0  0  0  0  0  0  0  0  0  0  0
  135.7780   67.7370  222.0220 C   0  0  0  0  0  0  0  0  0  0  0  0
  137.2500   67.8800  222.3400 C   0  0  0  0  0  0  0  0  0  0  0  0
  140.8540   74.9160  221.6250 C   0  0  0  0  0  0  0  0  0  0  0  0
  141.0810   76.2810  221.6380 C   0  0  0  0  0  0  0  0  0  0  0  0
  141.9356   79.9179  224.7847 H   0  0  0  0  0  0  0  0  0  0  0  0
  140.8227   78.5449  224.4638 H   0  0  0  0  0  0  0  0  0  0  0  0
  142.5993   78.2798  224.4638 H   0  0  0  0  0  0  0  0  0  0  0  0
  142.0958   81.1836  223.6258 H   0  0  0  0  0  0  0  0  0  0  0  0
  142.9629   80.8925  222.0798 H   0  0  0  0  0  0  0  0  0  0  0  0
  141.1826   81.1313  222.0798 H   0  0  0  0  0  0  0  0  0  0  0  0
  138.0289   77.2586  222.6342 H   0  0  0  0  0  0  0  0  0  0  0  0
  137.6461   74.8373  222.6017 H   0  0  0  0  0  0  0  0  0  0  0  0
  138.4018   72.5721  221.6659 H   0  0  0  0  0  0  0  0  0  0  0  0
  141.1313   71.7764  221.5676 H   0  0  0  0  0  0  0  0  0  0  0  0
  141.5794   72.8743  226.9185 H   0  0  0  0  0  0  0  0  0  0  0  0
  141.4493   71.7505  229.1425 H   0  0  0  0  0  0  0  0  0  0  0  0
  140.3988   69.5003  229.2922 H   0  0  0  0  0  0  0  0  0  0  0  0
  139.5148   68.4172  227.2747 H   0  0  0  0  0  0  0  0  0  0  0  0
  139.5868   69.8835  221.5994 H   0  0  0  0  0  0  0  0  0  0  0  0
  139.3007   68.3507  222.7084 H   0  0  0  0  0  0  0  0  0  0  0  0
  137.5564   69.7598  221.1258 H   0  0  0  0  0  0  0  0  0  0  0  0
  137.0582   69.6805  224.1519 H   0  0  0  0  0  0  0  0  0  0  0  0
  137.1223   71.1580  223.0967 H   0  0  0  0  0  0  0  0  0  0  0  0
  134.7877   70.6121  223.5566 H   0  0  0  0  0  0  0  0  0  0  0  0
  135.1190   70.2932  221.8449 H   0  0  0  0  0  0  0  0  0  0  0  0
  135.3121   68.1957  224.0955 H   0  0  0  0  0  0  0  0  0  0  0  0
  133.9220   68.3467  223.0116 H   0  0  0  0  0  0  0  0  0  0  0  0
  135.4884   66.6761  222.0475 H   0  0  0  0  0  0  0  0  0  0  0  0
  135.5562   68.1261  221.0173 H   0  0  0  0  0  0  0  0  0  0  0  0
  137.4279   67.5868  223.3852 H   0  0  0  0  0  0  0  0  0  0  0  0
  137.8311   67.2308  221.6686 H   0  0  0  0  0  0  0  0  0  0  0  0
  141.6823   74.2550  221.3301 H   0  0  0  0  0  0  0  0  0  0  0  0
  142.0689   76.6768  221.3598 H   0  0  0  0  0  0  0  0  0  0  0  0
  1  2  1  0
  2  3  1  0
  2  4  1  0
  4  5  2  0
  4  6  2  0
  4  7  1  0
  7  8  2  0
  8  9  1  0
  9 10  2  0
 10 11  1  0
 11 12  2  0
 12 13  1  0
 13 14  2  0
 14 15  1  0
 15 16  2  0
 16 17  1  0
 17 18  2  0
 18 19  1  0
 19 20  2  0
 20 21  1  0
 21 22  2  0
 21 23  1  0
 23 24  1  0
 24 25  1  0
 25 26  1  0
 26 27  1  0
 27 28  1  0
 28 29  1  0
 29 30  1  0
 10 31  1  0
 31 32  2  0
 32  7  1  0
 23 13  1  0
 30 25  1  0
 20 15  1  0
  1 33  1  0
  1 34  1  0
  1 35  1  0
  3 36  1  0
  3 37  1  0
  3 38  1  0
  8 39  1  0
  9 40  1  0
 11 41  1  0
 12 42  1  0
 16 43  1  0
 17 44  1  0
 18 45  1  0
 19 46  1  0
 24 47  1  0
 24 48  1  0
 25 49  1  0
 26 50  1  0
 26 51  1  0
 27 52  1  0
 27 53  1  0
 28 54  1  0
 28 55  1  0
 29 56  1  0
 29 57  1  0
 30 58  1  0
 30 59  1  0
 31 60  1  0
 32 61  1  0
M  END
>  <smiles>  (15) 
CN(C)S(=O)(=O)c1ccc(/C=C/c2nc3ccccc3c(=O)n2CC2CCCCC2)cc1

>  <score_type>  (15) 
oracle

>  <origin>  (15) 
autodockgpu

>  <m_score__min__energy>  (15) 
-9.4499999999999993

>  <m_primary>  (15) 
energy

>  <rmsd>  (15) 
11.115241065174953

>  <m_score__min__rmsd>  (15) 
11.115241065174953

>  <meeko>  (15) 
{"free_energy": -8.21, "intermolecular_energy": -10.3, "internal_energy": -1.64, "cluster_size": 8, "cluster_id": 7, "rank_in_cluster": 5}

>  <energy>  (15) 
-8.65

>  <cluster_rmsd>  (15) 
0.2

>  <cluster>  (15) 
3

$$$$

     RDKit          3D

 61 64  0  0  0  0  0  0  0  0999 V2000
  141.4450   67.8190  229.0480 C   0  0  0  0  0  0  0  0  0  0  0  0
  140.5340   68.1880  227.9870 N   0  0  0  0  0  0  0  0  0  0  0  0
  141.1260   67.8000  226.7260 C   0  0  0  0  0  0  0  0  0  0  0  0
  140.2720   69.8940  227.9340 S   0  0  0  0  0  0  0  0  0  0  0  0
  141.4420   70.5800  228.5690 O   0  0  0  0  0  0  0  0  0  0  0  0
  139.0720   70.2210  228.7940 O   0  0  0  0  0  0  0  0  0  0  0  0
  140.0280   70.4840  226.3080 C   0  0  0  0  0  0  0  0  0  0  0  0
  140.8510   71.4200  225.7210 C   0  0  0  0  0  0  0  0  0  0  0  0
  140.6480   71.8760  224.4350 C   0  0  0  0  0  0  0  0  0  0  0  0
  139.5790   71.4000  223.6620 C   0  0  0  0  0  0  0  0  0  0  0  0
  139.3810   71.8910  222.3140 C   0  0  0  0  0  0  0  0  0  0  0  0
  139.5520   73.1450  221.9380 C   0  0  0  0  0  0  0  0  0  0  0  0
  140.8420   73.5690  221.3930 C   0  0  0  0  0  0  0  0  0  0  0  0
  141.8540   72.6840  221.3470 N   0  0  0  0  0  0  0  0  0  0  0  0
  143.0800   72.9430  220.8710 C   0  0  0  0  0  0  0  0  0  0  0  0
  144.0980   72.0100  220.8390 C   0  0  0  0  0  0  0  0  0  0  0  0
  145.3560   72.3270  220.3340 C   0  0  0  0  0  0  0  0  0  0  0  0
  145.5700   73.6010  219.8630 C   0  0  0  0  0  0  0  0  0  0  0  0
  144.5580   74.5260  219.8970 C   0  0  0  0  0  0  0  0  0  0  0  0
  143.3090   74.2180  220.3950 C   0  0  0  0  0  0  0  0  0  0  0  0
  142.2900   75.1160  220.4400 C   0  0  0  0  0  0  0  0  0  0  0  0
  142.5390   76.2870  219.9900 O   0  0  0  0  0  0  0  0  0  0  0  0
  141.0470   74.8190  220.9320 N   0  0  0  0  0  0  0  0  0  0  0  0
  140.0350   75.7870  220.9470 C   0  0  0  0  0  0  0  0  0  0  0  0
  140.2290   77.1560  221.3820 C   0  0  0  0  0  0  0  0  0  0  0  0
  141.0960   77.2310  222.6200 C   0  0  0  0  0  0  0  0  0  0  0  0
  141.2390   78.6580  223.1360 C   0  0  0  0  0  0  0  0  0  0  0  0
  139.8650   79.0710  223.6170 C   0  0  0  0  0  0  0  0  0  0  0  0
  138.9760   79.0820  222.3720 C   0  0  0  0  0  0  0  0  0  0  0  0
  138.8570   77.6530  221.8940 C   0  0  0  0  0  0  0  0  0  0  0  0
  138.7750   70.4690  224.2690 C   0  0  0  0  0  0  0  0  0  0  0  0
  138.9720   70.0070  225.5580 C   0  0  0  0  0  0  0  0  0  0  0  0
  140.9708   68.0111  230.0218 H   0  0  0  0  0  0  0  0  0  0  0  0
  141.6914   66.7502  228.9646 H   0  0  0  0  0  0  0  0  0  0  0  0
  142.3657   68.4151  228.9646 H   0  0  0  0  0  0  0  0  0  0  0  0
  142.0325   67.2059  226.9139 H   0  0  0  0  0  0  0  0  0  0  0  0
  140.4056   67.1983  226.1524 H   0  0  0  0  0  0  0  0  0  0  0  0
  141.3902   68.7007  226.1524 H   0  0  0  0  0  0  0  0  0  0  0  0
  141.6992   71.8174  226.2976 H   0  0  0  0  0  0  0  0  0  0  0  0
  141.3341   72.6234  224.0099 H   0  0  0  0  0  0  0  0  0  0  0  0
  139.0654   71.1671  221.5483 H   0  0  0  0  0  0  0  0  0  0  0  0
  138.7284   73.8678  222.0340 H   0  0  0  0  0  0  0  0  0  0  0  0
  143.9108   70.9954  221.2205 H   0  0  0  0  0  0  0  0  0  0  0  0
  146.1596   71.5762  220.3123 H   0  0  0  0  0  0  0  0  0  0  0  0
  146.5544   73.8787  219.4583 H   0  0  0  0  0  0  0  0  0  0  0  0
  144.7474   75.5407  219.5170 H   0  0  0  0  0  0  0  0  0  0  0  0
  139.6694   75.8522  219.9116 H   0  0  0  0  0  0  0  0  0  0  0  0
  139.3894   75.4020  221.7501 H   0  0  0  0  0  0  0  0  0  0  0  0
  140.6698   77.7201  220.5468 H   0  0  0  0  0  0  0  0  0  0  0  0
  140.6421   76.6128  223.4085 H   0  0  0  0  0  0  0  0  0  0  0  0
  142.0987   76.8659  222.3531 H   0  0  0  0  0  0  0  0  0  0  0  0
  141.9603   78.6932  223.9657 H   0  0  0  0  0  0  0  0  0  0  0  0
  141.6094   79.3336  222.3509 H   0  0  0  0  0  0  0  0  0  0  0  0
  139.4837   78.3490  224.3541 H   0  0  0  0  0  0  0  0  0  0  0  0
  139.8861   80.0545  224.1093 H   0  0  0  0  0  0  0  0  0  0  0  0
  137.9814   79.4794  222.6228 H   0  0  0  0  0  0  0  0  0  0  0  0
  139.4099   79.7206  221.5885 H   0  0  0  0  0  0  0  0  0  0  0  0
  138.5254   77.0157  222.7270 H   0  0  0  0  0  0  0  0  0  0  0  0
  138.1242   77.6037  221.0751 H   0  0  0  0  0  0  0  0  0  0  0  0
  137.9250   70.0668  223.6982 H   0  0  0  0  0  0  0  0  0  0  0  0
  138.2872   69.2596  225.9852 H   0  0  0  0  0  0  0  0  0  0  0  0
  1  2  1  0
  2  3  1  0
  2  4  1  0
  4  5  2  0
  4  6  2  0
  4  7  1  0
  7  8  2  0
  8  9  1  0
  9 10  2  0
 10 11  1  0
 11 12  2  0
 12 13  1  0
 13 14  2  0
 14 15  1  0
 15 16  2  0
 16 17  1  0
 17 18  2  0
 18 19  1  0
 19 20  2  0
 20 21  1  0
 21 22  2  0
 21 23  1  0
 23 24  1  0
 24 25  1  0
 25 26  1  0
 26 27  1  0
 27 28  1  0
 28 29  1  0
 29 30  1  0
 10 31  1  0
 31 32  2  0
 32  7  1  0
 23 13  1  0
 30 25  1  0
 20 15  1  0
  1 33  1  0
  1 34  1  0
  1 35  1  0
  3 36  1  0
  3 37  1  0
  3 38  1  0
  8 39  1  0
  9 40  1  0
 11 41  1  0
 12 42  1  0
 16 43  1  0
 17 44  1  0
 18 45  1  0
 19 46  1  0
 24 47  1  0
 24 48  1  0
 25 49  1  0
 26 50  1  0
 26 51  1  0
 27 52  1  0
 27 53  1  0
 28 54  1  0
 28 55  1  0
 29 56  1  0
 29 57  1  0
 30 58  1  0
 30 59  1  0
 31 60  1  0
 32 61  1  0
M  END
>  <smiles>  (16) 
CN(C)S(=O)(=O)c1ccc(/C=C/c2nc3ccccc3c(=O)n2CC2CCCCC2)cc1

>  <score_type>  (16) 
oracle

>  <origin>  (16) 
autodockgpu

>  <m_score__min__energy>  (16) 
-9.4499999999999993

>  <m_primary>  (16) 
energy

>  <rmsd>  (16) 
7.643143189813541

>  <m_score__min__rmsd>  (16) 
7.643143189813541

>  <meeko>  (16) 
{"free_energy": -8.83, "intermolecular_energy": -10.92, "internal_energy": -1.49, "cluster_size": 8, "cluster_id": 2, "rank_in_cluster": 5}

>  <energy>  (16) 
-8.18

>  <cluster_rmsd>  (16) 
0.94

>  <cluster>  (16) 
3

$$$$

     RDKit          3D

 61 64  0  0  0  0  0  0  0  0999 V2000
  140.2010   70.6880  228.0020 C   0  0  0  0  0  0  0  0  0  0  0  0
  139.7270   69.3320  227.8380 N   0  0  0  0  0  0  0  0  0  0  0  0
  140.4570   68.4820  228.7530 C   0  0  0  0  0  0  0  0  0  0  0  0
  140.0180   68.7420  226.2410 S   0  0  0  0  0  0  0  0  0  0  0  0
  139.1860   67.5140  226.0240 O   0  0  0  0  0  0  0  0  0  0  0  0
  141.4600   68.2970  226.1510 O   0  0  0  0  0  0  0  0  0  0  0  0
  139.6760   69.9350  225.0120 C   0  0  0  0  0  0  0  0  0  0  0  0
  140.5940   70.8830  224.6160 C   0  0  0  0  0  0  0  0  0  0  0  0
  140.3110   71.8180  223.6420 C   0  0  0  0  0  0  0  0  0  0  0  0
  139.0610   71.8440  223.0080 C   0  0  0  0  0  0  0  0  0  0  0  0
  138.7820   72.8330  221.9880 C   0  0  0  0  0  0  0  0  0  0  0  0
  139.2700   74.0600  221.9780 C   0  0  0  0  0  0  0  0  0  0  0  0
  140.5960   74.3090  221.4120 C   0  0  0  0  0  0  0  0  0  0  0  0
  141.5250   73.3380  221.4760 N   0  0  0  0  0  0  0  0  0  0  0  0
  142.7720   73.4360  220.9950 C   0  0  0  0  0  0  0  0  0  0  0  0
  143.7020   72.4190  221.0780 C   0  0  0  0  0  0  0  0  0  0  0  0
  144.9880   72.5670  220.5630 C   0  0  0  0  0  0  0  0  0  0  0  0
  145.3180   73.7610  219.9650 C   0  0  0  0  0  0  0  0  0  0  0  0
  144.3930   74.7690  219.8840 C   0  0  0  0  0  0  0  0  0  0  0  0
  143.1180   74.6280  220.3920 C   0  0  0  0  0  0  0  0  0  0  0  0
  142.1830   75.6120  220.3250 C   0  0  0  0  0  0  0  0  0  0  0  0
  142.5390   76.7020  219.7590 O   0  0  0  0  0  0  0  0  0  0  0  0
  140.9150   75.4800  220.8260 N   0  0  0  0  0  0  0  0  0  0  0  0
  139.9940   76.5300  220.7230 C   0  0  0  0  0  0  0  0  0  0  0  0
  140.1660   77.8240  221.3510 C   0  0  0  0  0  0  0  0  0  0  0  0
  141.4640   77.9010  222.1240 C   0  0  0  0  0  0  0  0  0  0  0  0
  141.6190   79.2270  222.8580 C   0  0  0  0  0  0  0  0  0  0  0  0
  140.5470   79.2440  223.9270 C   0  0  0  0  0  0  0  0  0  0  0  0
  139.2140   79.2460  223.1760 C   0  0  0  0  0  0  0  0  0  0  0  0
  139.0980   77.9160  222.4660 C   0  0  0  0  0  0  0  0  0  0  0  0
  138.1650   70.8890  223.4200 C   0  0  0  0  0  0  0  0  0  0  0  0
  138.4420   69.9480  224.3960 C   0  0  0  0  0  0  0  0  0  0  0  0
  140.2824   70.9208  229.0740 H   0  0  0  0  0  0  0  0  0  0  0  0
  141.1885   70.7911  227.5284 H   0  0  0  0  0  0  0  0  0  0  0  0
  139.4928   71.3838  227.5284 H   0  0  0  0  0  0  0  0  0  0  0  0
  140.2146   68.7642  229.7882 H   0  0  0  0  0  0  0  0  0  0  0  0
  140.1744   67.4326  228.5833 H   0  0  0  0  0  0  0  0  0  0  0  0
  141.5371   68.6029  228.5833 H   0  0  0  0  0  0  0  0  0  0  0  0
  141.5855   70.8947  225.0923 H   0  0  0  0  0  0  0  0  0  0  0  0
  141.0777   72.5542  223.3586 H   0  0  0  0  0  0  0  0  0  0  0  0
  138.1160   72.5415  221.1625 H   0  0  0  0  0  0  0  0  0  0  0  0
  138.6819   74.8916  222.3935 H   0  0  0  0  0  0  0  0  0  0  0  0
  143.4215   71.4714  221.5612 H   0  0  0  0  0  0  0  0  0  0  0  0
  145.7209   71.7497  220.6328 H   0  0  0  0  0  0  0  0  0  0  0  0
  146.3265   73.9071  219.5509 H   0  0  0  0  0  0  0  0  0  0  0  0
  144.6748   75.7162  219.4009 H   0  0  0  0  0  0  0  0  0  0  0  0
  139.8920   76.7324  219.6466 H   0  0  0  0  0  0  0  0  0  0  0  0
  139.1516   76.1264  221.3040 H   0  0  0  0  0  0  0  0  0  0  0  0
  140.1180   78.5934  220.5664 H   0  0  0  0  0  0  0  0  0  0  0  0
  141.4870   77.0839  222.8601 H   0  0  0  0  0  0  0  0  0  0  0  0
  142.2913   77.8148  221.4042 H   0  0  0  0  0  0  0  0  0  0  0  0
  142.6165   79.2949  223.3167 H   0  0  0  0  0  0  0  0  0  0  0  0
  141.5152   80.0803  222.1717 H   0  0  0  0  0  0  0  0  0  0  0  0
  140.6268   78.3511  224.5645 H   0  0  0  0  0  0  0  0  0  0  0  0
  140.6437   80.1200  224.5852 H   0  0  0  0  0  0  0  0  0  0  0  0
  138.3822   79.3683  223.8853 H   0  0  0  0  0  0  0  0  0  0  0  0
  139.1727   80.0772  222.4567 H   0  0  0  0  0  0  0  0  0  0  0  0
  139.2530   77.1013  223.1886 H   0  0  0  0  0  0  0  0  0  0  0  0
  138.0968   77.8284  222.0189 H   0  0  0  0  0  0  0  0  0  0  0  0
  137.1716   70.8708  222.9480 H   0  0  0  0  0  0  0  0  0  0  0  0
  137.6777   69.2099  224.6807 H   0  0  0  0  0  0  0  0  0  0  0  0
  1  2  1  0
  2  3  1  0
  2  4  1  0
  4  5  2  0
  4  6  2  0
  4  7  1  0
  7  8  2  0
  8  9  1  0
  9 10  2  0
 10 11  1  0
 11 12  2  0
 12 13  1  0
 13 14  2  0
 14 15  1  0
 15 16  2  0
 16 17  1  0
 17 18  2  0
 18 19  1  0
 19 20  2  0
 20 21  1  0
 21 22  2  0
 21 23  1  0
 23 24  1  0
 24 25  1  0
 25 26  1  0
 26 27  1  0
 27 28  1  0
 28 29  1  0
 29 30  1  0
 10 31  1  0
 31 32  2  0
 32  7  1  0
 23 13  1  0
 30 25  1  0
 20 15  1  0
  1 33  1  0
  1 34  1  0
  1 35  1  0
  3 36  1  0
  3 37  1  0
  3 38  1  0
  8 39  1  0
  9 40  1  0
 11 41  1  0
 12 42  1  0
 16 43  1  0
 17 44  1  0
 18 45  1  0
 19 46  1  0
 24 47  1  0
 24 48  1  0
 25 49  1  0
 26 50  1  0
 26 51  1  0
 27 52  1  0
 27 53  1  0
 28 54  1  0
 28 55  1  0
 29 56  1  0
 29 57  1  0
 30 58  1  0
 30 59  1  0
 31 60  1  0
 32 61  1  0
M  END
>  <smiles>  (17) 
CN(C)S(=O)(=O)c1ccc(/C=C/c2nc3ccccc3c(=O)n2CC2CCCCC2)cc1

>  <score_type>  (17) 
oracle

>  <origin>  (17) 
autodockgpu

>  <m_score__min__energy>  (17) 
-9.4499999999999993

>  <m_primary>  (17) 
energy

>  <rmsd>  (17) 
7.426732384240942

>  <m_score__min__rmsd>  (17) 
7.426732384240942

>  <meeko>  (17) 
{"free_energy": -8.86, "intermolecular_energy": -10.95, "internal_energy": -1.44, "cluster_size": 8, "cluster_id": 2, "rank_in_cluster": 4}

>  <energy>  (17) 
-8.1

>  <cluster_rmsd>  (17) 
1.45

>  <cluster>  (17) 
3

$$$$

     RDKit          3D

 61 64  0  0  0  0  0  0  0  0999 V2000
  144.2180   70.7400  219.3760 C   0  0  0  0  0  0  0  0  0  0  0  0
  144.3090   71.6470  220.4990 N   0  0  0  0  0  0  0  0  0  0  0  0
  142.9690   72.0470  220.8690 C   0  0  0  0  0  0  0  0  0  0  0  0
  145.1840   73.0790  220.0950 S   0  0  0  0  0  0  0  0  0  0  0  0
  146.2940   72.7150  219.1560 O   0  0  0  0  0  0  0  0  0  0  0  0
  145.8470   73.6050  221.3490 O   0  0  0  0  0  0  0  0  0  0  0  0
  144.1670   74.3100  219.3880 C   0  0  0  0  0  0  0  0  0  0  0  0
  144.0660   75.5840  219.9040 C   0  0  0  0  0  0  0  0  0  0  0  0
  143.2600   76.5480  219.3340 C   0  0  0  0  0  0  0  0  0  0  0  0
  142.4980   76.2660  218.1910 C   0  0  0  0  0  0  0  0  0  0  0  0
  141.6570   77.2900  217.6070 C   0  0  0  0  0  0  0  0  0  0  0  0
  140.8050   78.0390  218.2830 C   0  0  0  0  0  0  0  0  0  0  0  0
  140.9590   78.1860  219.7300 C   0  0  0  0  0  0  0  0  0  0  0  0
  141.6180   79.2550  220.2100 N   0  0  0  0  0  0  0  0  0  0  0  0
  141.8250   79.5100  221.5100 C   0  0  0  0  0  0  0  0  0  0  0  0
  142.5080   80.6190  221.9700 C   0  0  0  0  0  0  0  0  0  0  0  0
  142.6990   80.8410  223.3320 C   0  0  0  0  0  0  0  0  0  0  0  0
  142.1880   79.9240  224.2210 C   0  0  0  0  0  0  0  0  0  0  0  0
  141.5110   78.8240  223.7610 C   0  0  0  0  0  0  0  0  0  0  0  0
  141.3190   78.5990  222.4140 C   0  0  0  0  0  0  0  0  0  0  0  0
  140.6520   77.5170  221.9340 C   0  0  0  0  0  0  0  0  0  0  0  0
  140.1970   76.6940  222.8000 O   0  0  0  0  0  0  0  0  0  0  0  0
  140.4560   77.2860  220.5980 N   0  0  0  0  0  0  0  0  0  0  0  0
  139.7560   76.1530  220.1650 C   0  0  0  0  0  0  0  0  0  0  0  0
  140.2290   74.7940  220.3330 C   0  0  0  0  0  0  0  0  0  0  0  0
  139.7290   73.8880  219.2300 C   0  0  0  0  0  0  0  0  0  0  0  0
  140.1500   72.4380  219.4400 C   0  0  0  0  0  0  0  0  0  0  0  0
  139.4160   71.9610  220.6750 C   0  0  0  0  0  0  0  0  0  0  0  0
  139.9560   72.8070  221.8300 C   0  0  0  0  0  0  0  0  0  0  0  0
  139.5160   74.2330  221.5860 C   0  0  0  0  0  0  0  0  0  0  0  0
  142.6160   74.9920  217.6970 C   0  0  0  0  0  0  0  0  0  0  0  0
  143.4220   74.0200  218.2630 C   0  0  0  0  0  0  0  0  0  0  0  0
  144.1145   69.7089  219.7449 H   0  0  0  0  0  0  0  0  0  0  0  0
  143.3415   71.0003  218.7645 H   0  0  0  0  0  0  0  0  0  0  0  0
  145.1288   70.8210  218.7645 H   0  0  0  0  0  0  0  0  0  0  0  0
  142.8835   72.0725  221.9654 H   0  0  0  0  0  0  0  0  0  0  0  0
  142.7591   73.0469  220.4615 H   0  0  0  0  0  0  0  0  0  0  0  0
  142.2453   71.3257  220.4615 H   0  0  0  0  0  0  0  0  0  0  0  0
  144.6480   75.8412  220.8013 H   0  0  0  0  0  0  0  0  0  0  0  0
  143.2145   77.5515  219.7823 H   0  0  0  0  0  0  0  0  0  0  0  0
  141.7333   77.4559  216.5223 H   0  0  0  0  0  0  0  0  0  0  0  0
  139.9831   78.5501  217.7602 H   0  0  0  0  0  0  0  0  0  0  0  0
  142.9097   81.3425  221.2453 H   0  0  0  0  0  0  0  0  0  0  0  0
  143.2448   81.7274  223.6876 H   0  0  0  0  0  0  0  0  0  0  0  0
  142.3227   80.0734  225.3024 H   0  0  0  0  0  0  0  0  0  0  0  0
  141.1099   78.1009  224.4865 H   0  0  0  0  0  0  0  0  0  0  0  0
  138.7805   76.1937  220.6718 H   0  0  0  0  0  0  0  0  0  0  0  0
  139.8305   76.2663  219.0734 H   0  0  0  0  0  0  0  0  0  0  0  0
  141.3282   74.8172  220.3677 H   0  0  0  0  0  0  0  0  0  0  0  0
  138.6305   73.9373  219.2018 H   0  0  0  0  0  0  0  0  0  0  0  0
  140.1699   74.2337  218.2834 H   0  0  0  0  0  0  0  0  0  0  0  0
  139.8672   71.8286  218.5690 H   0  0  0  0  0  0  0  0  0  0  0  0
  141.2397   72.3501  219.5618 H   0  0  0  0  0  0  0  0  0  0  0  0
  138.3328   72.1147  220.5607 H   0  0  0  0  0  0  0  0  0  0  0  0
  139.5727   70.8865  220.8508 H   0  0  0  0  0  0  0  0  0  0  0  0
  139.5474   72.4450  222.7850 H   0  0  0  0  0  0  0  0  0  0  0  0
  141.0528   72.7410  221.8819 H   0  0  0  0  0  0  0  0  0  0  0  0
  138.4276   74.2575  221.4286 H   0  0  0  0  0  0  0  0  0  0  0  0
  139.7780   74.8485  222.4592 H   0  0  0  0  0  0  0  0  0  0  0  0
  142.0370   74.7278  216.7998 H   0  0  0  0  0  0  0  0  0  0  0  0
  143.4689   73.0159  217.8162 H   0  0  0  0  0  0  0  0  0  0  0  0
  1  2  1  0
  2  3  1  0
  2  4  1  0
  4  5  2  0
  4  6  2  0
  4  7  1  0
  7  8  2  0
  8  9  1  0
  9 10  2  0
 10 11  1  0
 11 12  2  0
 12 13  1  0
 13 14  2  0
 14 15  1  0
 15 16  2  0
 16 17  1  0
 17 18  2  0
 18 19  1  0
 19 20  2  0
 20 21  1  0
 21 22  2  0
 21 23  1  0
 23 24  1  0
 24 25  1  0
 25 26  1  0
 26 27  1  0
 27 28  1  0
 28 29  1  0
 29 30  1  0
 10 31  1  0
 31 32  2  0
 32  7  1  0
 23 13  1  0
 30 25  1  0
 20 15  1  0
  1 33  1  0
  1 34  1  0
  1 35  1  0
  3 36  1  0
  3 37  1  0
  3 38  1  0
  8 39  1  0
  9 40  1  0
 11 41  1  0
 12 42  1  0
 16 43  1  0
 17 44  1  0
 18 45  1  0
 19 46  1  0
 24 47  1  0
 24 48  1  0
 25 49  1  0
 26 50  1  0
 26 51  1  0
 27 52  1  0
 27 53  1  0
 28 54  1  0
 28 55  1  0
 29 56  1  0
 29 57  1  0
 30 58  1  0
 30 59  1  0
 31 60  1  0
 32 61  1  0
M  END
>  <smiles>  (18) 
CN(C)S(=O)(=O)c1ccc(/C=C/c2nc3ccccc3c(=O)n2CC2CCCCC2)cc1

>  <score_type>  (18) 
oracle

>  <origin>  (18) 
autodockgpu

>  <m_score__min__energy>  (18) 
-9.4499999999999993

>  <m_primary>  (18) 
energy

>  <rmsd>  (18) 
4.0095764555500475

>  <m_score__min__rmsd>  (18) 
4.0095764555500475

>  <meeko>  (18) 
{"free_energy": -7.12, "intermolecular_energy": -9.21, "internal_energy": -2.53, "cluster_size": 3, "cluster_id": 9, "rank_in_cluster": 3}

>  <energy>  (18) 
-8.07

>  <cluster_rmsd>  (18) 
1.49

>  <cluster>  (18) 
3

$$$$

     RDKit          3D

 61 64  0  0  0  0  0  0  0  0999 V2000
  140.7400   67.6560  226.6860 C   0  0  0  0  0  0  0  0  0  0  0  0
  141.3590   68.6480  227.5370 N   0  0  0  0  0  0  0  0  0  0  0  0
  141.3620   68.1450  228.8930 C   0  0  0  0  0  0  0  0  0  0  0  0
  140.4740   70.1320  227.5370 S   0  0  0  0  0  0  0  0  0  0  0  0
  141.2920   71.1770  228.2320 O   0  0  0  0  0  0  0  0  0  0  0  0
  139.2270   69.9450  228.3720 O   0  0  0  0  0  0  0  0  0  0  0  0
  140.0490   70.6590  225.9270 C   0  0  0  0  0  0  0  0  0  0  0  0
  140.8380   71.5130  225.1870 C   0  0  0  0  0  0  0  0  0  0  0  0
  140.4900   71.9200  223.9160 C   0  0  0  0  0  0  0  0  0  0  0  0
  139.3030   71.4760  223.3160 C   0  0  0  0  0  0  0  0  0  0  0  0
  138.9540   71.9140  221.9810 C   0  0  0  0  0  0  0  0  0  0  0  0
  139.8110   72.4060  221.1040 C   0  0  0  0  0  0  0  0  0  0  0  0
  140.1810   73.8200  221.1660 C   0  0  0  0  0  0  0  0  0  0  0  0
  139.4040   74.6680  221.8630 N   0  0  0  0  0  0  0  0  0  0  0  0
  139.6330   75.9810  222.0010 C   0  0  0  0  0  0  0  0  0  0  0  0
  138.8130   76.8250  222.7250 C   0  0  0  0  0  0  0  0  0  0  0  0
  139.0920   78.1850  222.8400 C   0  0  0  0  0  0  0  0  0  0  0  0
  140.2110   78.6780  222.2110 C   0  0  0  0  0  0  0  0  0  0  0  0
  141.0220   77.8380  221.4930 C   0  0  0  0  0  0  0  0  0  0  0  0
  140.7520   76.4910  221.3760 C   0  0  0  0  0  0  0  0  0  0  0  0
  141.5400   75.6380  220.6700 C   0  0  0  0  0  0  0  0  0  0  0  0
  142.5680   76.1450  220.1040 O   0  0  0  0  0  0  0  0  0  0  0  0
  141.2790   74.2990  220.5480 N   0  0  0  0  0  0  0  0  0  0  0  0
  142.1330   73.4700  219.8100 C   0  0  0  0  0  0  0  0  0  0  0  0
  143.3660   72.9110  220.3260 C   0  0  0  0  0  0  0  0  0  0  0  0
  144.3360   73.9930  220.7460 C   0  0  0  0  0  0  0  0  0  0  0  0
  145.6700   73.4210  221.2120 C   0  0  0  0  0  0  0  0  0  0  0  0
  146.3110   72.7990  219.9900 C   0  0  0  0  0  0  0  0  0  0  0  0
  145.3930   71.6450  219.5820 C   0  0  0  0  0  0  0  0  0  0  0  0
  144.0860   72.2530  219.1250 C   0  0  0  0  0  0  0  0  0  0  0  0
  138.5360   70.6270  224.0720 C   0  0  0  0  0  0  0  0  0  0  0  0
  138.8780   70.2150  225.3480 C   0  0  0  0  0  0  0  0  0  0  0  0
  140.2600   66.8867  227.3088 H   0  0  0  0  0  0  0  0  0  0  0  0
  139.9826   68.1388  226.0510 H   0  0  0  0  0  0  0  0  0  0  0  0
  141.5066   67.1879  226.0510 H   0  0  0  0  0  0  0  0  0  0  0  0
  141.3570   68.9898  229.5975 H   0  0  0  0  0  0  0  0  0  0  0  0
  140.4675   67.5259  229.0564 H   0  0  0  0  0  0  0  0  0  0  0  0
  142.2638   67.5367  229.0564 H   0  0  0  0  0  0  0  0  0  0  0  0
  141.7770   71.8825  225.6249 H   0  0  0  0  0  0  0  0  0  0  0  0
  141.1533   72.6029  223.3649 H   0  0  0  0  0  0  0  0  0  0  0  0
  137.9006   71.8313  221.6751 H   0  0  0  0  0  0  0  0  0  0  0  0
  140.2445   71.7551  220.3304 H   0  0  0  0  0  0  0  0  0  0  0  0
  137.9211   76.4145  223.2210 H   0  0  0  0  0  0  0  0  0  0  0  0
  138.4333   78.8483  223.4198 H   0  0  0  0  0  0  0  0  0  0  0  0
  140.4557   79.7480  222.2841 H   0  0  0  0  0  0  0  0  0  0  0  0
  141.9129   78.2499  220.9964 H   0  0  0  0  0  0  0  0  0  0  0  0
  141.5209   72.6090  219.5033 H   0  0  0  0  0  0  0  0  0  0  0  0
  142.5214   74.1804  219.0654 H   0  0  0  0  0  0  0  0  0  0  0  0
  143.1148   72.2468  221.1661 H   0  0  0  0  0  0  0  0  0  0  0  0
  144.5161   74.6593  219.8895 H   0  0  0  0  0  0  0  0  0  0  0  0
  143.8889   74.5383  221.5903 H   0  0  0  0  0  0  0  0  0  0  0  0
  146.3094   74.2215  221.6126 H   0  0  0  0  0  0  0  0  0  0  0  0
  145.5313   72.6804  222.0134 H   0  0  0  0  0  0  0  0  0  0  0  0
  146.3834   73.5370  219.1775 H   0  0  0  0  0  0  0  0  0  0  0  0
  147.3324   72.4496  220.2012 H   0  0  0  0  0  0  0  0  0  0  0  0
  145.8496   71.0724  218.7612 H   0  0  0  0  0  0  0  0  0  0  0  0
  145.2302   70.9586  220.4260 H   0  0  0  0  0  0  0  0  0  0  0  0
  144.2863   73.0148  218.3572 H   0  0  0  0  0  0  0  0  0  0  0  0
  143.4452   71.4635  218.7054 H   0  0  0  0  0  0  0  0  0  0  0  0
  137.5963   70.2525  223.6399 H   0  0  0  0  0  0  0  0  0  0  0  0
  138.2157   69.5329  225.9012 H   0  0  0  0  0  0  0  0  0  0  0  0
  1  2  1  0
  2  3  1  0
  2  4  1  0
  4  5  2  0
  4  6  2  0
  4  7  1  0
  7  8  2  0
  8  9  1  0
  9 10  2  0
 10 11  1  0
 11 12  2  0
 12 13  1  0
 13 14  2  0
 14 15  1  0
 15 16  2  0
 16 17  1  0
 17 18  2  0
 18 19  1  0
 19 20  2  0
 20 21  1  0
 21 22  2  0
 21 23  1  0
 23 24  1  0
 24 25  1  0
 25 26  1  0
 26 27  1  0
 27 28  1  0
 28 29  1  0
 29 30  1  0
 10 31  1  0
 31 32  2  0
 32  7  1  0
 23 13  1  0
 30 25  1  0
 20 15  1  0
  1 33  1  0
  1 34  1  0
  1 35  1  0
  3 36  1  0
  3 37  1  0
  3 38  1  0
  8 39  1  0
  9 40  1  0
 11 41  1  0
 12 42  1  0
 16 43  1  0
 17 44  1  0
 18 45  1  0
 19 46  1  0
 24 47  1  0
 24 48  1  0
 25 49  1  0
 26 50  1  0
 26 51  1  0
 27 52  1  0
 27 53  1  0
 28 54  1  0
 28 55  1  0
 29 56  1  0
 29 57  1  0
 30 58  1  0
 30 59  1  0
 31 60  1  0
 32 61  1  0
M  END
>  <smiles>  (19) 
CN(C)S(=O)(=O)c1ccc(/C=C/c2nc3ccccc3c(=O)n2CC2CCCCC2)cc1

>  <score_type>  (19) 
oracle

>  <origin>  (19) 
autodockgpu

>  <m_score__min__energy>  (19) 
-9.4499999999999993

>  <m_primary>  (19) 
energy

>  <rmsd>  (19) 
5.595541014505968

>  <m_score__min__rmsd>  (19) 
5.595541014505968

>  <meeko>  (19) 
{"free_energy": -8.8, "intermolecular_energy": -10.89, "internal_energy": -1.56, "cluster_size": 5, "cluster_id": 1, "rank_in_cluster": 3}

>  <energy>  (19) 
-8.07

>  <cluster_rmsd>  (19) 
1.49

>  <cluster>  (19) 
3

$$$$

     RDKit          3D

 61 64  0  0  0  0  0  0  0  0999 V2000
  140.7410   67.7270  226.6460 C   0  0  0  0  0  0  0  0  0  0  0  0
  141.2710   68.6780  227.5970 N   0  0  0  0  0  0  0  0  0  0  0  0
  141.1070   68.1310  228.9260 C   0  0  0  0  0  0  0  0  0  0  0  0
  140.4170   70.1780  227.5460 S   0  0  0  0  0  0  0  0  0  0  0  0
  141.2720   71.2390  228.1690 O   0  0  0  0  0  0  0  0  0  0  0  0
  139.1880   70.0590  228.4190 O   0  0  0  0  0  0  0  0  0  0  0  0
  139.9620   70.6360  225.9230 C   0  0  0  0  0  0  0  0  0  0  0  0
  140.6980   71.5180  225.1610 C   0  0  0  0  0  0  0  0  0  0  0  0
  140.3270   71.8680  223.8790 C   0  0  0  0  0  0  0  0  0  0  0  0
  139.1710   71.3370  223.2920 C   0  0  0  0  0  0  0  0  0  0  0  0
  138.7980   71.7170  221.9450 C   0  0  0  0  0  0  0  0  0  0  0  0
  137.8870   72.6260  221.6460 C   0  0  0  0  0  0  0  0  0  0  0  0
  138.1180   74.0270  221.9970 C   0  0  0  0  0  0  0  0  0  0  0  0
  139.3140   74.5790  221.7260 N   0  0  0  0  0  0  0  0  0  0  0  0
  139.6530   75.8480  221.9920 C   0  0  0  0  0  0  0  0  0  0  0  0
  140.8920   76.3840  221.7000 C   0  0  0  0  0  0  0  0  0  0  0  0
  141.1970   77.7100  221.9970 C   0  0  0  0  0  0  0  0  0  0  0  0
  140.2300   78.4850  222.5930 C   0  0  0  0  0  0  0  0  0  0  0  0
  139.0010   77.9510  222.8820 C   0  0  0  0  0  0  0  0  0  0  0  0
  138.6930   76.6390  222.5900 C   0  0  0  0  0  0  0  0  0  0  0  0
  137.4830   76.0860  222.8670 C   0  0  0  0  0  0  0  0  0  0  0  0
  136.6180   76.8480  223.4210 O   0  0  0  0  0  0  0  0  0  0  0  0
  137.1680   74.7840  222.5810 N   0  0  0  0  0  0  0  0  0  0  0  0
  135.9000   74.2720  222.8860 C   0  0  0  0  0  0  0  0  0  0  0  0
  135.4690   73.9220  224.2240 C   0  0  0  0  0  0  0  0  0  0  0  0
  134.5540   72.7170  224.2190 C   0  0  0  0  0  0  0  0  0  0  0  0
  134.0260   72.3880  225.6100 C   0  0  0  0  0  0  0  0  0  0  0  0
  133.1240   73.5390  226.0010 C   0  0  0  0  0  0  0  0  0  0  0  0
  134.0340   74.7660  226.0930 C   0  0  0  0  0  0  0  0  0  0  0  0
  134.5330   75.0590  224.6960 C   0  0  0  0  0  0  0  0  0  0  0  0
  138.4560   70.4620  224.0700 C   0  0  0  0  0  0  0  0  0  0  0  0
  138.8210   70.1050  225.3570 C   0  0  0  0  0  0  0  0  0  0  0  0
  140.2744   66.8898  227.1858 H   0  0  0  0  0  0  0  0  0  0  0  0
  139.9881   68.2210  226.0142 H   0  0  0  0  0  0  0  0  0  0  0  0
  141.5572   67.3465  226.0142 H   0  0  0  0  0  0  0  0  0  0  0  0
  141.3391   68.9051  229.6723 H   0  0  0  0  0  0  0  0  0  0  0  0
  140.0683   67.7939  229.0582 H   0  0  0  0  0  0  0  0  0  0  0  0
  141.7889   67.2780  229.0582 H   0  0  0  0  0  0  0  0  0  0  0  0
  141.6111   71.9572  225.5891 H   0  0  0  0  0  0  0  0  0  0  0  0
  140.9482   72.5746  223.3092 H   0  0  0  0  0  0  0  0  0  0  0  0
  139.3096   71.2130  221.1118 H   0  0  0  0  0  0  0  0  0  0  0  0
  136.9587   72.3304  221.1352 H   0  0  0  0  0  0  0  0  0  0  0  0
  141.6539   75.7502  221.2228 H   0  0  0  0  0  0  0  0  0  0  0  0
  142.1870   78.1271  221.7606 H   0  0  0  0  0  0  0  0  0  0  0  0
  140.4431   79.5359  222.8384 H   0  0  0  0  0  0  0  0  0  0  0  0
  138.2403   78.5860  223.3596 H   0  0  0  0  0  0  0  0  0  0  0  0
  135.1808   75.0234  222.5279 H   0  0  0  0  0  0  0  0  0  0  0  0
  135.9570   73.2784  222.4176 H   0  0  0  0  0  0  0  0  0  0  0  0
  136.3661   73.7446  224.8353 H   0  0  0  0  0  0  0  0  0  0  0  0
  133.7008   72.9231  223.5560 H   0  0  0  0  0  0  0  0  0  0  0  0
  135.1362   71.8530  223.8662 H   0  0  0  0  0  0  0  0  0  0  0  0
  133.4566   71.4470  225.5893 H   0  0  0  0  0  0  0  0  0  0  0  0
  134.8469   72.2586  226.3307 H   0  0  0  0  0  0  0  0  0  0  0  0
  132.3473   73.6940  225.2376 H   0  0  0  0  0  0  0  0  0  0  0  0
  132.6074   73.3446  226.9525 H   0  0  0  0  0  0  0  0  0  0  0  0
  133.4682   75.6266  226.4792 H   0  0  0  0  0  0  0  0  0  0  0  0
  134.8751   74.5777  226.7764 H   0  0  0  0  0  0  0  0  0  0  0  0
  133.6760   75.1345  224.0106 H   0  0  0  0  0  0  0  0  0  0  0  0
  135.0889   76.0082  224.7009 H   0  0  0  0  0  0  0  0  0  0  0  0
  137.5418   70.0194  223.6478 H   0  0  0  0  0  0  0  0  0  0  0  0
  138.2014   69.3981  225.9283 H   0  0  0  0  0  0  0  0  0  0  0  0
  1  2  1  0
  2  3  1  0
  2  4  1  0
  4  5  2  0
  4  6  2  0
  4  7  1  0
  7  8  2  0
  8  9  1  0
  9 10  2  0
 10 11  1  0
 11 12  2  0
 12 13  1  0
 13 14  2  0
 14 15  1  0
 15 16  2  0
 16 17  1  0
 17 18  2  0
 18 19  1  0
 19 20  2  0
 20 21  1  0
 21 22  2  0
 21 23  1  0
 23 24  1  0
 24 25  1  0
 25 26  1  0
 26 27  1  0
 27 28  1  0
 28 29  1  0
 29 30  1  0
 10 31  1  0
 31 32  2  0
 32  7  1  0
 23 13  1  0
 30 25  1  0
 20 15  1  0
  1 33  1  0
  1 34  1  0
  1 35  1  0
  3 36  1  0
  3 37  1  0
  3 38  1  0
  8 39  1  0
  9 40  1  0
 11 41  1  0
 12 42  1  0
 16 43  1  0
 17 44  1  0
 18 45  1  0
 19 46  1  0
 24 47  1  0
 24 48  1  0
 25 49  1  0
 26 50  1  0
 26 51  1  0
 27 52  1  0
 27 53  1  0
 28 54  1  0
 28 55  1  0
 29 56  1  0
 29 57  1  0
 30 58  1  0
 30 59  1  0
 31 60  1  0
 32 61  1  0
M  END
>  <smiles>  (20) 
CN(C)S(=O)(=O)c1ccc(/C=C/c2nc3ccccc3c(=O)n2CC2CCCCC2)cc1

>  <score_type>  (20) 
oracle

>  <origin>  (20) 
autodockgpu

>  <m_score__min__energy>  (20) 
-9.4499999999999993

>  <m_primary>  (20) 
energy

>  <rmsd>  (20) 
7.7863536381341305

>  <m_score__min__rmsd>  (20) 
7.7863536381341305

>  <meeko>  (20) 
{"free_energy": -8.1, "intermolecular_energy": -10.19, "internal_energy": -1.85, "cluster_size": 6, "cluster_id": 3, "rank_in_cluster": 4}

>  <energy>  (20) 
-8.55

>  <cluster_rmsd>  (20) 
0.0

>  <cluster>  (20) 
4

$$$$

     RDKit          3D

 61 64  0  0  0  0  0  0  0  0999 V2000
  141.8420   79.1370  223.8350 C   0  0  0  0  0  0  0  0  0  0  0  0
  141.7630   78.7770  222.4360 N   0  0  0  0  0  0  0  0  0  0  0  0
  141.9200   79.9800  221.6490 C   0  0  0  0  0  0  0  0  0  0  0  0
  140.2280   78.0930  222.0370 S   0  0  0  0  0  0  0  0  0  0  0  0
  139.7640   78.6810  220.7400 O   0  0  0  0  0  0  0  0  0  0  0  0
  139.2250   78.5280  223.0820 O   0  0  0  0  0  0  0  0  0  0  0  0
  140.2760   76.3510  221.9350 C   0  0  0  0  0  0  0  0  0  0  0  0
  141.3970   75.6560  221.5360 C   0  0  0  0  0  0  0  0  0  0  0  0
  141.4220   74.2780  221.4620 C   0  0  0  0  0  0  0  0  0  0  0  0
  140.2900   73.5190  221.7920 C   0  0  0  0  0  0  0  0  0  0  0  0
  140.3340   72.0740  221.7080 C   0  0  0  0  0  0  0  0  0  0  0  0
  139.4240   71.2630  222.2160 C   0  0  0  0  0  0  0  0  0  0  0  0
  139.6200   70.6980  223.5510 C   0  0  0  0  0  0  0  0  0  0  0  0
  140.1580   71.4690  224.5130 N   0  0  0  0  0  0  0  0  0  0  0  0
  140.3860   71.0760  225.7740 C   0  0  0  0  0  0  0  0  0  0  0  0
  140.9410   71.8940  226.7380 C   0  0  0  0  0  0  0  0  0  0  0  0
  141.1600   71.4400  228.0370 C   0  0  0  0  0  0  0  0  0  0  0  0
  140.8100   70.1460  228.3440 C   0  0  0  0  0  0  0  0  0  0  0  0
  140.2600   69.3350  227.3840 C   0  0  0  0  0  0  0  0  0  0  0  0
  140.0400   69.7800  226.0970 C   0  0  0  0  0  0  0  0  0  0  0  0
  139.4970   68.9970  225.1290 C   0  0  0  0  0  0  0  0  0  0  0  0
  139.1880   67.8020  225.4640 O   0  0  0  0  0  0  0  0  0  0  0  0
  139.2750   69.4290  223.8480 N   0  0  0  0  0  0  0  0  0  0  0  0
  138.7060   68.5760  222.8950 C   0  0  0  0  0  0  0  0  0  0  0  0
  137.2800   68.4190  222.6950 C   0  0  0  0  0  0  0  0  0  0  0  0
  136.8180   69.0810  221.4160 C   0  0  0  0  0  0  0  0  0  0  0  0
  135.3080   68.9960  221.2360 C   0  0  0  0  0  0  0  0  0  0  0  0
  134.7040   69.8450  222.3340 C   0  0  0  0  0  0  0  0  0  0  0  0
  135.0860   69.1580  223.6460 C   0  0  0  0  0  0  0  0  0  0  0  0
  136.5880   69.2660  223.7880 C   0  0  0  0  0  0  0  0  0  0  0  0
  139.1880   74.2330  222.1860 C   0  0  0  0  0  0  0  0  0  0  0  0
  139.1560   75.6150  222.2630 C   0  0  0  0  0  0  0  0  0  0  0  0
  141.6471   78.2487  224.4538 H   0  0  0  0  0  0  0  0  0  0  0  0
  142.8468   79.5255  224.0575 H   0  0  0  0  0  0  0  0  0  0  0  0
  141.0922   79.9105  224.0575 H   0  0  0  0  0  0  0  0  0  0  0  0
  142.0328   80.8447  222.3195 H   0  0  0  0  0  0  0  0  0  0  0  0
  142.8139   79.8890  221.0144 H   0  0  0  0  0  0  0  0  0  0  0  0
  141.0327   80.1214  221.0144 H   0  0  0  0  0  0  0  0  0  0  0  0
  142.3031   76.2188  221.2672 H   0  0  0  0  0  0  0  0  0  0  0  0
  142.3421   73.7684  221.1399 H   0  0  0  0  0  0  0  0  0  0  0  0
  141.1870   71.6191  221.1831 H   0  0  0  0  0  0  0  0  0  0  0  0
  138.5222   71.0133  221.6376 H   0  0  0  0  0  0  0  0  0  0  0  0
  141.2161   72.9260  226.4749 H   0  0  0  0  0  0  0  0  0  0  0  0
  141.6018   72.1001  228.7979 H   0  0  0  0  0  0  0  0  0  0  0  0
  140.9714   69.7605  229.3615 H   0  0  0  0  0  0  0  0  0  0  0  0
  139.9872   68.3025  227.6475 H   0  0  0  0  0  0  0  0  0  0  0  0
  139.1086   68.9026  221.9248 H   0  0  0  0  0  0  0  0  0  0  0  0
  138.9673   67.5927  223.3131 H   0  0  0  0  0  0  0  0  0  0  0  0
  137.0523   67.3428  222.6957 H   0  0  0  0  0  0  0  0  0  0  0  0
  137.1127   70.1405  221.4392 H   0  0  0  0  0  0  0  0  0  0  0  0
  137.2884   68.5525  220.5737 H   0  0  0  0  0  0  0  0  0  0  0  0
  135.0189   69.3866  220.2491 H   0  0  0  0  0  0  0  0  0  0  0  0
  134.9552   67.9557  221.2933 H   0  0  0  0  0  0  0  0  0  0  0  0
  135.1157   70.8645  222.3009 H   0  0  0  0  0  0  0  0  0  0  0  0
  133.6130   69.9338  222.2249 H   0  0  0  0  0  0  0  0  0  0  0  0
  134.5908   69.6583  224.4913 H   0  0  0  0  0  0  0  0  0  0  0  0
  134.7695   68.1045  223.6412 H   0  0  0  0  0  0  0  0  0  0  0  0
  136.8902   70.3182  223.6805 H   0  0  0  0  0  0  0  0  0  0  0  0
  136.8867   68.8939  224.7791 H   0  0  0  0  0  0  0  0  0  0  0  0
  138.2783   73.6767  222.4561 H   0  0  0  0  0  0  0  0  0  0  0  0
  138.2372   76.1265  222.5858 H   0  0  0  0  0  0  0  0  0  0  0  0
  1  2  1  0
  2  3  1  0
  2  4  1  0
  4  5  2  0
  4  6  2  0
  4  7  1  0
  7  8  2  0
  8  9  1  0
  9 10  2  0
 10 11  1  0
 11 12  2  0
 12 13  1  0
 13 14  2  0
 14 15  1  0
 15 16  2  0
 16 17  1  0
 17 18  2  0
 18 19  1  0
 19 20  2  0
 20 21  1  0
 21 22  2  0
 21 23  1  0
 23 24  1  0
 24 25  1  0
 25 26  1  0
 26 27  1  0
 27 28  1  0
 28 29  1  0
 29 30  1  0
 10 31  1  0
 31 32  2  0
 32  7  1  0
 23 13  1  0
 30 25  1  0
 20 15  1  0
  1 33  1  0
  1 34  1  0
  1 35  1  0
  3 36  1  0
  3 37  1  0
  3 38  1  0
  8 39  1  0
  9 40  1  0
 11 41  1  0
 12 42  1  0
 16 43  1  0
 17 44  1  0
 18 45  1  0
 19 46  1  0
 24 47  1  0
 24 48  1  0
 25 49  1  0
 26 50  1  0
 26 51  1  0
 27 52  1  0
 27 53  1  0
 28 54  1  0
 28 55  1  0
 29 56  1  0
 29 57  1  0
 30 58  1  0
 30 59  1  0
 31 60  1  0
 32 61  1  0
M  END
>  <smiles>  (21) 
CN(C)S(=O)(=O)c1ccc(/C=C/c2nc3ccccc3c(=O)n2CC2CCCCC2)cc1

>  <score_type>  (21) 
oracle

>  <origin>  (21) 
autodockgpu

>  <m_score__min__energy>  (21) 
-9.4499999999999993

>  <m_primary>  (21) 
energy

>  <rmsd>  (21) 
11.087635046620704

>  <m_score__min__rmsd>  (21) 
11.087635046620704

>  <meeko>  (21) 
{"free_energy": -8.19, "intermolecular_energy": -10.28, "internal_energy": -1.64, "cluster_size": 8, "cluster_id": 7, "rank_in_cluster": 6}

>  <energy>  (21) 
-8.52

>  <cluster_rmsd>  (21) 
0.22

>  <cluster>  (21) 
4

$$$$

     RDKit          3D

 61 64  0  0  0  0  0  0  0  0999 V2000
  131.0650   72.4640  227.5860 C   0  0  0  0  0  0  0  0  0  0  0  0
  131.7770   71.9010  226.4600 N   0  0  0  0  0  0  0  0  0  0  0  0
  131.4580   70.4920  226.3810 C   0  0  0  0  0  0  0  0  0  0  0  0
  133.4870   72.0350  226.6530 S   0  0  0  0  0  0  0  0  0  0  0  0
  133.8490   71.6060  228.0420 O   0  0  0  0  0  0  0  0  0  0  0  0
  133.8680   73.4950  226.5490 O   0  0  0  0  0  0  0  0  0  0  0  0
  134.3710   71.0960  225.4750 C   0  0  0  0  0  0  0  0  0  0  0  0
  134.6430   69.7550  225.6390 C   0  0  0  0  0  0  0  0  0  0  0  0
  135.3400   69.0260  224.6990 C   0  0  0  0  0  0  0  0  0  0  0  0
  135.8080   69.6270  223.5220 C   0  0  0  0  0  0  0  0  0  0  0  0
  136.5390   68.8450  222.5460 C   0  0  0  0  0  0  0  0  0  0  0  0
  137.8120   68.5110  222.6510 C   0  0  0  0  0  0  0  0  0  0  0  0
  138.6050   69.0190  223.7710 C   0  0  0  0  0  0  0  0  0  0  0  0
  138.9610   68.1750  224.7550 N   0  0  0  0  0  0  0  0  0  0  0  0
  139.6860   68.5120  225.8310 C   0  0  0  0  0  0  0  0  0  0  0  0
  140.0340   67.6190  226.8260 C   0  0  0  0  0  0  0  0  0  0  0  0
  140.7900   68.0160  227.9260 C   0  0  0  0  0  0  0  0  0  0  0  0
  141.1880   69.3300  228.0050 C   0  0  0  0  0  0  0  0  0  0  0  0
  140.8410   70.2140  227.0160 C   0  0  0  0  0  0  0  0  0  0  0  0
  140.0940   69.8270  225.9240 C   0  0  0  0  0  0  0  0  0  0  0  0
  139.7370   70.6840  224.9320 C   0  0  0  0  0  0  0  0  0  0  0  0
  140.1320   71.8940  225.0510 O   0  0  0  0  0  0  0  0  0  0  0  0
  138.9940   70.3080  223.8440 N   0  0  0  0  0  0  0  0  0  0  0  0
  138.6620   71.2370  222.8500 C   0  0  0  0  0  0  0  0  0  0  0  0
  139.5200   71.5680  221.7300 C   0  0  0  0  0  0  0  0  0  0  0  0
  140.2930   70.3620  221.2430 C   0  0  0  0  0  0  0  0  0  0  0  0
  141.2610   70.7140  220.1200 C   0  0  0  0  0  0  0  0  0  0  0  0
  142.3150   71.6070  220.7380 C   0  0  0  0  0  0  0  0  0  0  0  0
  141.5790   72.8760  221.1730 C   0  0  0  0  0  0  0  0  0  0  0  0
  140.6340   72.4860  222.2860 C   0  0  0  0  0  0  0  0  0  0  0  0
  135.5240   70.9610  223.3810 C   0  0  0  0  0  0  0  0  0  0  0  0
  134.8260   71.7000  224.3200 C   0  0  0  0  0  0  0  0  0  0  0  0
  131.5178   72.1059  228.5223 H   0  0  0  0  0  0  0  0  0  0  0  0
  131.1249   73.5616  227.5460 H   0  0  0  0  0  0  0  0  0  0  0  0
  130.0107   72.1526  227.5460 H   0  0  0  0  0  0  0  0  0  0  0  0
  131.3646   70.0797  227.3965 H   0  0  0  0  0  0  0  0  0  0  0  0
  130.5074   70.3609  225.8432 H   0  0  0  0  0  0  0  0  0  0  0  0
  132.2594   69.9642  225.8432 H   0  0  0  0  0  0  0  0  0  0  0  0
  134.2922   69.2492  226.5506 H   0  0  0  0  0  0  0  0  0  0  0  0
  135.5317   67.9572  224.8751 H   0  0  0  0  0  0  0  0  0  0  0  0
  135.9942   68.5049  221.6530 H   0  0  0  0  0  0  0  0  0  0  0  0
  138.2745   67.8538  221.8999 H   0  0  0  0  0  0  0  0  0  0  0  0
  139.7068   66.5717  226.7476 H   0  0  0  0  0  0  0  0  0  0  0  0
  141.0621   67.2964  228.7122 H   0  0  0  0  0  0  0  0  0  0  0  0
  141.7855   69.6723  228.8628 H   0  0  0  0  0  0  0  0  0  0  0  0
  141.1678   71.2613  227.0962 H   0  0  0  0  0  0  0  0  0  0  0  0
  137.7209   70.8774  222.4084 H   0  0  0  0  0  0  0  0  0  0  0  0
  138.6945   72.1758  223.4224 H   0  0  0  0  0  0  0  0  0  0  0  0
  138.8917   71.9928  220.9332 H   0  0  0  0  0  0  0  0  0  0  0  0
  140.8641   69.9436  222.0849 H   0  0  0  0  0  0  0  0  0  0  0  0
  139.5692   69.6334  220.8490 H   0  0  0  0  0  0  0  0  0  0  0  0
  141.7234   69.8019  219.7148 H   0  0  0  0  0  0  0  0  0  0  0  0
  140.7457   71.2171  219.2885 H   0  0  0  0  0  0  0  0  0  0  0  0
  142.7746   71.1132  221.6069 H   0  0  0  0  0  0  0  0  0  0  0  0
  143.1250   71.8305  220.0281 H   0  0  0  0  0  0  0  0  0  0  0  0
  142.2996   73.6240  221.5353 H   0  0  0  0  0  0  0  0  0  0  0  0
  141.0275   73.3159  220.3290 H   0  0  0  0  0  0  0  0  0  0  0  0
  141.1921   71.9504  223.0680 H   0  0  0  0  0  0  0  0  0  0  0  0
  140.1790   73.3930  222.7106 H   0  0  0  0  0  0  0  0  0  0  0  0
  135.8703   71.4723  222.4707 H   0  0  0  0  0  0  0  0  0  0  0  0
  134.6337   72.7690  224.1461 H   0  0  0  0  0  0  0  0  0  0  0  0
  1  2  1  0
  2  3  1  0
  2  4  1  0
  4  5  2  0
  4  6  2  0
  4  7  1  0
  7  8  2  0
  8  9  1  0
  9 10  2  0
 10 11  1  0
 11 12  2  0
 12 13  1  0
 13 14  2  0
 14 15  1  0
 15 16  2  0
 16 17  1  0
 17 18  2  0
 18 19  1  0
 19 20  2  0
 20 21  1  0
 21 22  2  0
 21 23  1  0
 23 24  1  0
 24 25  1  0
 25 26  1  0
 26 27  1  0
 27 28  1  0
 28 29  1  0
 29 30  1  0
 10 31  1  0
 31 32  2  0
 32  7  1  0
 23 13  1  0
 30 25  1  0
 20 15  1  0
  1 33  1  0
  1 34  1  0
  1 35  1  0
  3 36  1  0
  3 37  1  0
  3 38  1  0
  8 39  1  0
  9 40  1  0
 11 41  1  0
 12 42  1  0
 16 43  1  0
 17 44  1  0
 18 45  1  0
 19 46  1  0
 24 47  1  0
 24 48  1  0
 25 49  1  0
 26 50  1  0
 26 51  1  0
 27 52  1  0
 27 53  1  0
 28 54  1  0
 28 55  1  0
 29 56  1  0
 29 57  1  0
 30 58  1  0
 30 59  1  0
 31 60  1  0
 32 61  1  0
M  END
>  <smiles>  (22) 
CN(C)S(=O)(=O)c1ccc(/C=C/c2nc3ccccc3c(=O)n2CC2CCCCC2)cc1

>  <score_type>  (22) 
oracle

>  <origin>  (22) 
autodockgpu

>  <m_score__min__energy>  (22) 
-9.4499999999999993

>  <m_primary>  (22) 
energy

>  <rmsd>  (22) 
10.788953109772827

>  <m_score__min__rmsd>  (22) 
10.788953109772827

>  <meeko>  (22) 
{"free_energy": -7.84, "intermolecular_energy": -9.93, "internal_energy": -2.03, "cluster_size": 11, "cluster_id": 4, "rank_in_cluster": 8}

>  <energy>  (22) 
-8.49

>  <cluster_rmsd>  (22) 
1.02

>  <cluster>  (22) 
4

$$$$

     RDKit          3D

 61 64  0  0  0  0  0  0  0  0999 V2000
  140.0290   70.4840  228.0500 C   0  0  0  0  0  0  0  0  0  0  0  0
  139.8730   69.0500  227.9420 N   0  0  0  0  0  0  0  0  0  0  0  0
  140.9120   68.4210  228.7270 C   0  0  0  0  0  0  0  0  0  0  0  0
  140.0550   68.5080  226.3120 S   0  0  0  0  0  0  0  0  0  0  0  0
  139.1280   67.3540  226.0840 O   0  0  0  0  0  0  0  0  0  0  0  0
  141.4570   67.9640  226.1430 O   0  0  0  0  0  0  0  0  0  0  0  0
  139.7540   69.7730  225.1470 C   0  0  0  0  0  0  0  0  0  0  0  0
  138.5550   69.9060  224.4810 C   0  0  0  0  0  0  0  0  0  0  0  0
  138.3300   70.9120  223.5640 C   0  0  0  0  0  0  0  0  0  0  0  0
  139.3270   71.8520  223.2660 C   0  0  0  0  0  0  0  0  0  0  0  0
  139.0730   72.9010  222.3000 C   0  0  0  0  0  0  0  0  0  0  0  0
  139.5610   72.9270  221.0730 C   0  0  0  0  0  0  0  0  0  0  0  0
  140.9240   73.4060  220.8450 C   0  0  0  0  0  0  0  0  0  0  0  0
  141.9300   72.5140  220.8040 N   0  0  0  0  0  0  0  0  0  0  0  0
  143.2190   72.8200  220.6000 C   0  0  0  0  0  0  0  0  0  0  0  0
  144.2300   71.8790  220.5650 C   0  0  0  0  0  0  0  0  0  0  0  0
  145.5560   72.2450  220.3490 C   0  0  0  0  0  0  0  0  0  0  0  0
  145.8440   73.5780  220.1710 C   0  0  0  0  0  0  0  0  0  0  0  0
  144.8400   74.5100  220.2070 C   0  0  0  0  0  0  0  0  0  0  0  0
  143.5250   74.1540  220.4190 C   0  0  0  0  0  0  0  0  0  0  0  0
  142.5120   75.0580  220.4600 C   0  0  0  0  0  0  0  0  0  0  0  0
  142.8320   76.2840  220.2880 O   0  0  0  0  0  0  0  0  0  0  0  0
  141.2030   74.7130  220.6700 N   0  0  0  0  0  0  0  0  0  0  0  0
  140.2020   75.6920  220.6960 C   0  0  0  0  0  0  0  0  0  0  0  0
  139.9020   76.5130  221.8510 C   0  0  0  0  0  0  0  0  0  0  0  0
  138.6170   77.2900  221.6660 C   0  0  0  0  0  0  0  0  0  0  0  0
  138.3330   78.2210  222.8380 C   0  0  0  0  0  0  0  0  0  0  0  0
  139.4160   79.2790  222.8070 C   0  0  0  0  0  0  0  0  0  0  0  0
  140.7270   78.5360  223.0710 C   0  0  0  0  0  0  0  0  0  0  0  0
  140.9730   77.6280  221.8880 C   0  0  0  0  0  0  0  0  0  0  0  0
  140.5110   71.6980  223.9420 C   0  0  0  0  0  0  0  0  0  0  0  0
  140.7440   70.6920  224.8620 C   0  0  0  0  0  0  0  0  0  0  0  0
  140.0602   70.7705  229.1116 H   0  0  0  0  0  0  0  0  0  0  0  0
  140.9656   70.7889  227.5603 H   0  0  0  0  0  0  0  0  0  0  0  0
  139.1799   70.9831  227.5603 H   0  0  0  0  0  0  0  0  0  0  0  0
  140.6939   68.5531  229.7970 H   0  0  0  0  0  0  0  0  0  0  0  0
  140.9511   67.3474  228.4905 H   0  0  0  0  0  0  0  0  0  0  0  0
  141.8814   68.8841  228.4905 H   0  0  0  0  0  0  0  0  0  0  0  0
  137.7498   69.1856  224.6875 H   0  0  0  0  0  0  0  0  0  0  0  0
  137.3547   70.9776  223.0595 H   0  0  0  0  0  0  0  0  0  0  0  0
  138.4274   73.7357  222.6106 H   0  0  0  0  0  0  0  0  0  0  0  0
  138.9451   72.5899  220.2263 H   0  0  0  0  0  0  0  0  0  0  0  0
  143.9820   70.8173  220.7110 H   0  0  0  0  0  0  0  0  0  0  0  0
  146.3529   71.4873  220.3214 H   0  0  0  0  0  0  0  0  0  0  0  0
  146.8827   73.8968  219.9993 H   0  0  0  0  0  0  0  0  0  0  0  0
  145.0901   75.5714  220.0628 H   0  0  0  0  0  0  0  0  0  0  0  0
  140.4511   76.3947  219.8872 H   0  0  0  0  0  0  0  0  0  0  0  0
  139.2977   75.0680  220.6423 H   0  0  0  0  0  0  0  0  0  0  0  0
  139.8525   75.8562  222.7320 H   0  0  0  0  0  0  0  0  0  0  0  0
  138.6953   77.8904  220.7477 H   0  0  0  0  0  0  0  0  0  0  0  0
  137.7912   76.5662  221.6022 H   0  0  0  0  0  0  0  0  0  0  0  0
  137.3423   78.6856  222.7250 H   0  0  0  0  0  0  0  0  0  0  0  0
  138.3319   77.6754  223.7931 H   0  0  0  0  0  0  0  0  0  0  0  0
  139.4447   79.7700  221.8231 H   0  0  0  0  0  0  0  0  0  0  0  0
  139.2371   80.0657  223.5548 H   0  0  0  0  0  0  0  0  0  0  0  0
  141.5535   79.2547  223.1726 H   0  0  0  0  0  0  0  0  0  0  0  0
  140.6652   77.9547  224.0028 H   0  0  0  0  0  0  0  0  0  0  0  0
  140.9205   78.2156  220.9596 H   0  0  0  0  0  0  0  0  0  0  0  0
  141.9693   77.1713  221.9820 H   0  0  0  0  0  0  0  0  0  0  0  0
  141.3205   72.4151  223.7409 H   0  0  0  0  0  0  0  0  0  0  0  0
  141.7189   70.6241  225.3670 H   0  0  0  0  0  0  0  0  0  0  0  0
  1  2  1  0
  2  3  1  0
  2  4  1  0
  4  5  2  0
  4  6  2  0
  4  7  1  0
  7  8  2  0
  8  9  1  0
  9 10  2  0
 10 11  1  0
 11 12  2  0
 12 13  1  0
 13 14  2  0
 14 15  1  0
 15 16  2  0
 16 17  1  0
 17 18  2  0
 18 19  1  0
 19 20  2  0
 20 21  1  0
 21 22  2  0
 21 23  1  0
 23 24  1  0
 24 25  1  0
 25 26  1  0
 26 27  1  0
 27 28  1  0
 28 29  1  0
 29 30  1  0
 10 31  1  0
 31 32  2  0
 32  7  1  0
 23 13  1  0
 30 25  1  0
 20 15  1  0
  1 33  1  0
  1 34  1  0
  1 35  1  0
  3 36  1  0
  3 37  1  0
  3 38  1  0
  8 39  1  0
  9 40  1  0
 11 41  1  0
 12 42  1  0
 16 43  1  0
 17 44  1  0
 18 45  1  0
 19 46  1  0
 24 47  1  0
 24 48  1  0
 25 49  1  0
 26 50  1  0
 26 51  1  0
 27 52  1  0
 27 53  1  0
 28 54  1  0
 28 55  1  0
 29 56  1  0
 29 57  1  0
 30 58  1  0
 30 59  1  0
 31 60  1  0
 32 61  1  0
M  END
>  <smiles>  (23) 
CN(C)S(=O)(=O)c1ccc(/C=C/c2nc3ccccc3c(=O)n2CC2CCCCC2)cc1

>  <score_type>  (23) 
oracle

>  <origin>  (23) 
autodockgpu

>  <m_score__min__energy>  (23) 
-9.4499999999999993

>  <m_primary>  (23) 
energy

>  <rmsd>  (23) 
7.611789913244847

>  <m_score__min__rmsd>  (23) 
7.611789913244847

>  <meeko>  (23) 
{"free_energy": -8.91, "intermolecular_energy": -11.0, "internal_energy": -1.55, "cluster_size": 8, "cluster_id": 2, "rank_in_cluster": 3}

>  <energy>  (23) 
-8.19

>  <cluster_rmsd>  (23) 
0.71

>  <cluster>  (23) 
4

$$$$

     RDKit          3D

 61 64  0  0  0  0  0  0  0  0999 V2000
  144.8250   73.7950  217.1900 C   0  0  0  0  0  0  0  0  0  0  0  0
  145.6000   72.6540  217.6250 N   0  0  0  0  0  0  0  0  0  0  0  0
  144.9450   71.4540  217.1550 C   0  0  0  0  0  0  0  0  0  0  0  0
  145.6840   72.5580  219.3470 S   0  0  0  0  0  0  0  0  0  0  0  0
  146.6660   73.5770  219.8380 O   0  0  0  0  0  0  0  0  0  0  0  0
  146.2520   71.2070  219.7240 O   0  0  0  0  0  0  0  0  0  0  0  0
  144.1300   72.7920  220.1090 C   0  0  0  0  0  0  0  0  0  0  0  0
  143.5350   74.0290  220.2290 C   0  0  0  0  0  0  0  0  0  0  0  0
  142.3050   74.1990  220.8310 C   0  0  0  0  0  0  0  0  0  0  0  0
  141.6010   73.1050  221.3540 C   0  0  0  0  0  0  0  0  0  0  0  0
  140.3120   73.3030  221.9830 C   0  0  0  0  0  0  0  0  0  0  0  0
  139.3940   72.3650  222.1280 C   0  0  0  0  0  0  0  0  0  0  0  0
  139.4620   71.4530  223.2700 C   0  0  0  0  0  0  0  0  0  0  0  0
  140.1550   71.8260  224.3610 N   0  0  0  0  0  0  0  0  0  0  0  0
  140.2930   71.0890  225.4720 C   0  0  0  0  0  0  0  0  0  0  0  0
  141.0130   71.5020  226.5760 C   0  0  0  0  0  0  0  0  0  0  0  0
  141.1280   70.7000  227.7090 C   0  0  0  0  0  0  0  0  0  0  0  0
  140.5040   69.4740  227.7080 C   0  0  0  0  0  0  0  0  0  0  0  0
  139.7900   69.0660  226.6100 C   0  0  0  0  0  0  0  0  0  0  0  0
  139.6730   69.8560  225.4860 C   0  0  0  0  0  0  0  0  0  0  0  0
  138.9720   69.4750  224.3860 C   0  0  0  0  0  0  0  0  0  0  0  0
  138.4100   68.3270  224.4340 O   0  0  0  0  0  0  0  0  0  0  0  0
  138.8490   70.2530  223.2650 N   0  0  0  0  0  0  0  0  0  0  0  0
  138.1080   69.8070  222.1640 C   0  0  0  0  0  0  0  0  0  0  0  0
  138.6490   68.9770  221.1060 C   0  0  0  0  0  0  0  0  0  0  0  0
  139.2150   67.6820  221.6460 C   0  0  0  0  0  0  0  0  0  0  0  0
  139.8620   66.8380  220.5540 C   0  0  0  0  0  0  0  0  0  0  0  0
  141.0780   67.6100  220.0890 C   0  0  0  0  0  0  0  0  0  0  0  0
  140.5360   68.8970  219.4640 C   0  0  0  0  0  0  0  0  0  0  0  0
  139.9060   69.7050  220.5760 C   0  0  0  0  0  0  0  0  0  0  0  0
  142.2140   71.8850  221.2220 C   0  0  0  0  0  0  0  0  0  0  0  0
  143.4470   71.7070  220.6200 C   0  0  0  0  0  0  0  0  0  0  0  0
  144.4533   74.3423  218.0688 H   0  0  0  0  0  0  0  0  0  0  0  0
  145.4591   74.4599  216.5852 H   0  0  0  0  0  0  0  0  0  0  0  0
  143.9732   73.4506  216.5852 H   0  0  0  0  0  0  0  0  0  0  0  0
  144.6173   70.8537  218.0165 H   0  0  0  0  0  0  0  0  0  0  0  0
  144.0713   71.7279  216.5454 H   0  0  0  0  0  0  0  0  0  0  0  0
  145.6480   70.8673  216.5454 H   0  0  0  0  0  0  0  0  0  0  0  0
  144.0583   74.9111  219.8314 H   0  0  0  0  0  0  0  0  0  0  0  0
  141.8706   75.2071  220.9016 H   0  0  0  0  0  0  0  0  0  0  0  0
  140.0808   74.3072  222.3678 H   0  0  0  0  0  0  0  0  0  0  0  0
  138.5812   72.2696  221.3930 H   0  0  0  0  0  0  0  0  0  0  0  0
  141.5061   72.4852  226.5601 H   0  0  0  0  0  0  0  0  0  0  0  0
  141.7036   71.0386  228.5831 H   0  0  0  0  0  0  0  0  0  0  0  0
  140.5777   68.8197  228.5892 H   0  0  0  0  0  0  0  0  0  0  0  0
  139.2977   68.0825  226.6267 H   0  0  0  0  0  0  0  0  0  0  0  0
  137.2619   69.2425  222.5828 H   0  0  0  0  0  0  0  0  0  0  0  0
  137.9438   70.7520  221.6255 H   0  0  0  0  0  0  0  0  0  0  0  0
  137.8487   68.7926  220.3742 H   0  0  0  0  0  0  0  0  0  0  0  0
  139.9726   67.9168  222.4081 H   0  0  0  0  0  0  0  0  0  0  0  0
  138.3839   67.1021  222.0738 H   0  0  0  0  0  0  0  0  0  0  0  0
  140.1624   65.8592  220.9561 H   0  0  0  0  0  0  0  0  0  0  0  0
  139.1639   66.6518  219.7246 H   0  0  0  0  0  0  0  0  0  0  0  0
  141.7332   67.8436  220.9412 H   0  0  0  0  0  0  0  0  0  0  0  0
  141.6772   67.0306  219.3711 H   0  0  0  0  0  0  0  0  0  0  0  0
  141.3565   69.4664  219.0030 H   0  0  0  0  0  0  0  0  0  0  0  0
  139.7977   68.6693  218.6811 H   0  0  0  0  0  0  0  0  0  0  0  0
  140.6304   69.8259  221.3950 H   0  0  0  0  0  0  0  0  0  0  0  0
  139.6167   70.6927  220.1878 H   0  0  0  0  0  0  0  0  0  0  0  0
  141.6963   70.9984  221.6169 H   0  0  0  0  0  0  0  0  0  0  0  0
  143.8833   70.6998  220.5486 H   0  0  0  0  0  0  0  0  0  0  0  0
  1  2  1  0
  2  3  1  0
  2  4  1  0
  4  5  2  0
  4  6  2  0
  4  7  1  0
  7  8  2  0
  8  9  1  0
  9 10  2  0
 10 11  1  0
 11 12  2  0
 12 13  1  0
 13 14  2  0
 14 15  1  0
 15 16  2  0
 16 17  1  0
 17 18  2  0
 18 19  1  0
 19 20  2  0
 20 21  1  0
 21 22  2  0
 21 23  1  0
 23 24  1  0
 24 25  1  0
 25 26  1  0
 26 27  1  0
 27 28  1  0
 28 29  1  0
 29 30  1  0
 10 31  1  0
 31 32  2  0
 32  7  1  0
 23 13  1  0
 30 25  1  0
 20 15  1  0
  1 33  1  0
  1 34  1  0
  1 35  1  0
  3 36  1  0
  3 37  1  0
  3 38  1  0
  8 39  1  0
  9 40  1  0
 11 41  1  0
 12 42  1  0
 16 43  1  0
 17 44  1  0
 18 45  1  0
 19 46  1  0
 24 47  1  0
 24 48  1  0
 25 49  1  0
 26 50  1  0
 26 51  1  0
 27 52  1  0
 27 53  1  0
 28 54  1  0
 28 55  1  0
 29 56  1  0
 29 57  1  0
 30 58  1  0
 30 59  1  0
 31 60  1  0
 32 61  1  0
M  END
>  <smiles>  (24) 
CN(C)S(=O)(=O)c1ccc(/C=C/c2nc3ccccc3c(=O)n2CC2CCCCC2)cc1

>  <score_type>  (24) 
oracle

>  <origin>  (24) 
autodockgpu

>  <m_score__min__energy>  (24) 
-9.4499999999999993

>  <m_primary>  (24) 
energy

>  <rmsd>  (24) 
11.219508311288871

>  <m_score__min__rmsd>  (24) 
11.219508311288871

>  <meeko>  (24) 
{"free_energy": -7.97, "intermolecular_energy": -10.06, "internal_energy": -2.01, "cluster_size": 6, "cluster_id": 5, "rank_in_cluster": 5}

>  <energy>  (24) 
-8.15

>  <cluster_rmsd>  (24) 
0.75

>  <cluster>  (24) 
4

$$$$

     RDKit          3D

 61 64  0  0  0  0  0  0  0  0999 V2000
  139.7700   69.5470  227.6700 C   0  0  0  0  0  0  0  0  0  0  0  0
  140.0450   68.4120  226.8160 N   0  0  0  0  0  0  0  0  0  0  0  0
  141.4510   68.4300  226.4760 C   0  0  0  0  0  0  0  0  0  0  0  0
  139.1540   68.4920  225.3390 S   0  0  0  0  0  0  0  0  0  0  0  0
  137.6930   68.5600  225.6630 O   0  0  0  0  0  0  0  0  0  0  0  0
  139.3600   67.1980  224.5850 O   0  0  0  0  0  0  0  0  0  0  0  0
  139.6220   69.8500  224.3460 C   0  0  0  0  0  0  0  0  0  0  0  0
  140.0560   71.0470  224.8720 C   0  0  0  0  0  0  0  0  0  0  0  0
  140.4250   72.1110  224.0750 C   0  0  0  0  0  0  0  0  0  0  0  0
  140.3720   72.0170  222.6770 C   0  0  0  0  0  0  0  0  0  0  0  0
  140.7640   73.1440  221.8570 C   0  0  0  0  0  0  0  0  0  0  0  0
  139.9930   74.1830  221.5900 C   0  0  0  0  0  0  0  0  0  0  0  0
  140.5880   75.5140  221.4640 C   0  0  0  0  0  0  0  0  0  0  0  0
  140.3590   76.4240  222.4270 N   0  0  0  0  0  0  0  0  0  0  0  0
  140.8450   77.6730  222.4340 C   0  0  0  0  0  0  0  0  0  0  0  0
  140.5900   78.5850  223.4400 C   0  0  0  0  0  0  0  0  0  0  0  0
  141.1180   79.8730  223.4030 C   0  0  0  0  0  0  0  0  0  0  0  0
  141.9070   80.2250  222.3330 C   0  0  0  0  0  0  0  0  0  0  0  0
  142.1590   79.3190  221.3360 C   0  0  0  0  0  0  0  0  0  0  0  0
  141.6390   78.0420  221.3670 C   0  0  0  0  0  0  0  0  0  0  0  0
  141.8730   77.1250  220.3910 C   0  0  0  0  0  0  0  0  0  0  0  0
  142.6130   77.5010  219.4180 O   0  0  0  0  0  0  0  0  0  0  0  0
  141.3610   75.8550  220.4140 N   0  0  0  0  0  0  0  0  0  0  0  0
  141.6420   74.9530  219.3800 C   0  0  0  0  0  0  0  0  0  0  0  0
  142.9210   74.2940  219.2050 C   0  0  0  0  0  0  0  0  0  0  0  0
  142.7790   72.7880  219.2130 C   0  0  0  0  0  0  0  0  0  0  0  0
  144.1260   72.0820  219.1140 C   0  0  0  0  0  0  0  0  0  0  0  0
  144.8610   72.3950  220.4000 C   0  0  0  0  0  0  0  0  0  0  0  0
  145.0920   73.9070  220.3870 C   0  0  0  0  0  0  0  0  0  0  0  0
  143.7360   74.5680  220.4900 C   0  0  0  0  0  0  0  0  0  0  0  0
  139.9380   70.8150  222.1780 C   0  0  0  0  0  0  0  0  0  0  0  0
  139.5660   69.7440  222.9710 C   0  0  0  0  0  0  0  0  0  0  0  0
  139.8445   69.2397  228.7236 H   0  0  0  0  0  0  0  0  0  0  0  0
  140.5011   70.3436  227.4679 H   0  0  0  0  0  0  0  0  0  0  0  0
  138.7553   69.9206  227.4679 H   0  0  0  0  0  0  0  0  0  0  0  0
  142.0511   68.4377  227.3979 H   0  0  0  0  0  0  0  0  0  0  0  0
  141.6970   67.5349  225.8858 H   0  0  0  0  0  0  0  0  0  0  0  0
  141.6740   69.3311  225.8858 H   0  0  0  0  0  0  0  0  0  0  0  0
  140.1102   71.1583  225.9650 H   0  0  0  0  0  0  0  0  0  0  0  0
  140.7656   73.0464  224.5430 H   0  0  0  0  0  0  0  0  0  0  0  0
  141.7758   73.1344  221.4256 H   0  0  0  0  0  0  0  0  0  0  0  0
  138.9087   74.0482  221.4630 H   0  0  0  0  0  0  0  0  0  0  0  0
  139.9563   78.2873  224.2884 H   0  0  0  0  0  0  0  0  0  0  0  0
  140.9092   80.5911  224.2097 H   0  0  0  0  0  0  0  0  0  0  0  0
  142.3368   81.2360  222.2772 H   0  0  0  0  0  0  0  0  0  0  0  0
  142.7930   79.6184  220.4884 H   0  0  0  0  0  0  0  0  0  0  0  0
  140.9016   74.1456  219.4792 H   0  0  0  0  0  0  0  0  0  0  0  0
  141.6313   75.6239  218.5084 H   0  0  0  0  0  0  0  0  0  0  0  0
  143.3629   74.6518  218.2634 H   0  0  0  0  0  0  0  0  0  0  0  0
  142.2875   72.4835  220.1488 H   0  0  0  0  0  0  0  0  0  0  0  0
  142.1819   72.5005  218.3351 H   0  0  0  0  0  0  0  0  0  0  0  0
  143.9812   70.9964  219.0118 H   0  0  0  0  0  0  0  0  0  0  0  0
  144.6933   72.4212  218.2347 H   0  0  0  0  0  0  0  0  0  0  0  0
  144.2519   72.1075  221.2697 H   0  0  0  0  0  0  0  0  0  0  0  0
  145.8081   71.8401  220.4718 H   0  0  0  0  0  0  0  0  0  0  0  0
  145.7197   74.1996  221.2416 H   0  0  0  0  0  0  0  0  0  0  0  0
  145.6073   74.2151  219.4653 H   0  0  0  0  0  0  0  0  0  0  0  0
  143.1966   74.1615  221.3582 H   0  0  0  0  0  0  0  0  0  0  0  0
  143.8691   75.6532  220.6113 H   0  0  0  0  0  0  0  0  0  0  0  0
  139.8827   70.6960  221.0858 H   0  0  0  0  0  0  0  0  0  0  0  0
  139.2254   68.8074  222.5053 H   0  0  0  0  0  0  0  0  0  0  0  0
  1  2  1  0
  2  3  1  0
  2  4  1  0
  4  5  2  0
  4  6  2  0
  4  7  1  0
  7  8  2  0
  8  9  1  0
  9 10  2  0
 10 11  1  0
 11 12  2  0
 12 13  1  0
 13 14  2  0
 14 15  1  0
 15 16  2  0
 16 17  1  0
 17 18  2  0
 18 19  1  0
 19 20  2  0
 20 21  1  0
 21 22  2  0
 21 23  1  0
 23 24  1  0
 24 25  1  0
 25 26  1  0
 26 27  1  0
 27 28  1  0
 28 29  1  0
 29 30  1  0
 10 31  1  0
 31 32  2  0
 32  7  1  0
 23 13  1  0
 30 25  1  0
 20 15  1  0
  1 33  1  0
  1 34  1  0
  1 35  1  0
  3 36  1  0
  3 37  1  0
  3 38  1  0
  8 39  1  0
  9 40  1  0
 11 41  1  0
 12 42  1  0
 16 43  1  0
 17 44  1  0
 18 45  1  0
 19 46  1  0
 24 47  1  0
 24 48  1  0
 25 49  1  0
 26 50  1  0
 26 51  1  0
 27 52  1  0
 27 53  1  0
 28 54  1  0
 28 55  1  0
 29 56  1  0
 29 57  1  0
 30 58  1  0
 30 59  1  0
 31 60  1  0
 32 61  1  0
M  END
>  <smiles>  (25) 
CN(C)S(=O)(=O)c1ccc(/C=C/c2nc3ccccc3c(=O)n2CC2CCCCC2)cc1

>  <score_type>  (25) 
oracle

>  <origin>  (25) 
autodockgpu

>  <m_score__min__energy>  (25) 
-9.4499999999999993

>  <m_primary>  (25) 
energy

>  <rmsd>  (25) 
4.693953214380817

>  <m_score__min__rmsd>  (25) 
4.693953214380817

>  <meeko>  (25) 
{"free_energy": -8.35, "intermolecular_energy": -10.43, "internal_energy": -1.69, "cluster_size": 5, "cluster_id": 1, "rank_in_cluster": 5}

>  <energy>  (25) 
-8.13

>  <cluster_rmsd>  (25) 
0.71

>  <cluster>  (25) 
4

$$$$

     RDKit          3D

 61 64  0  0  0  0  0  0  0  0999 V2000
  142.8560   80.2160  222.7300 C   0  0  0  0  0  0  0  0  0  0  0  0
  141.5900   79.5670  222.9900 N   0  0  0  0  0  0  0  0  0  0  0  0
  141.8240   78.4620  223.8940 C   0  0  0  0  0  0  0  0  0  0  0  0
  140.8960   78.9190  221.5480 S   0  0  0  0  0  0  0  0  0  0  0  0
  141.8570   79.1250  220.4180 O   0  0  0  0  0  0  0  0  0  0  0  0
  139.6620   79.7240  221.2060 O   0  0  0  0  0  0  0  0  0  0  0  0
  140.4880   77.2270  221.7010 C   0  0  0  0  0  0  0  0  0  0  0  0
  139.2970   76.7910  222.2390 C   0  0  0  0  0  0  0  0  0  0  0  0
  138.9870   75.4520  222.3520 C   0  0  0  0  0  0  0  0  0  0  0  0
  139.8850   74.4650  221.9190 C   0  0  0  0  0  0  0  0  0  0  0  0
  139.5420   73.0640  222.0450 C   0  0  0  0  0  0  0  0  0  0  0  0
  140.4020   72.1030  222.3310 C   0  0  0  0  0  0  0  0  0  0  0  0
  140.2560   71.3440  223.5730 C   0  0  0  0  0  0  0  0  0  0  0  0
  140.7170   71.8740  224.7190 N   0  0  0  0  0  0  0  0  0  0  0  0
  140.6430   71.2870  225.9220 C   0  0  0  0  0  0  0  0  0  0  0  0
  141.1290   71.8600  227.0810 C   0  0  0  0  0  0  0  0  0  0  0  0
  141.0290   71.2090  228.3090 C   0  0  0  0  0  0  0  0  0  0  0  0
  140.4310   69.9710  228.3450 C   0  0  0  0  0  0  0  0  0  0  0  0
  139.9510   69.4040  227.1930 C   0  0  0  0  0  0  0  0  0  0  0  0
  140.0470   70.0440  225.9750 C   0  0  0  0  0  0  0  0  0  0  0  0
  139.5790   69.5030  224.8190 C   0  0  0  0  0  0  0  0  0  0  0  0
  139.0320   68.3510  224.9060 O   0  0  0  0  0  0  0  0  0  0  0  0
  139.6690   70.1310  223.6050 N   0  0  0  0  0  0  0  0  0  0  0  0
  139.1640   69.5240  222.4480 C   0  0  0  0  0  0  0  0  0  0  0  0
  137.7520   69.4300  222.1330 C   0  0  0  0  0  0  0  0  0  0  0  0
  136.9050   70.1800  223.1370 C   0  0  0  0  0  0  0  0  0  0  0  0
  135.4140   70.0200  222.8650 C   0  0  0  0  0  0  0  0  0  0  0  0
  135.0930   68.5620  223.1220 C   0  0  0  0  0  0  0  0  0  0  0  0
  135.8770   67.7750  222.0700 C   0  0  0  0  0  0  0  0  0  0  0  0
  137.3460   67.9570  222.3750 C   0  0  0  0  0  0  0  0  0  0  0  0
  141.0620   74.9250  221.3860 C   0  0  0  0  0  0  0  0  0  0  0  0
  141.3800   76.2660  221.2700 C   0  0  0  0  0  0  0  0  0  0  0  0
  143.3429   80.4656  223.6843 H   0  0  0  0  0  0  0  0  0  0  0  0
  143.5037   79.5388  222.1540 H   0  0  0  0  0  0  0  0  0  0  0  0
  142.6843   81.1373  222.1540 H   0  0  0  0  0  0  0  0  0  0  0  0
  141.7491   78.8159  224.9328 H   0  0  0  0  0  0  0  0  0  0  0  0
  141.0718   77.6789  223.7183 H   0  0  0  0  0  0  0  0  0  0  0  0
  142.8291   78.0510  223.7183 H   0  0  0  0  0  0  0  0  0  0  0  0
  138.5684   77.5364  222.5904 H   0  0  0  0  0  0  0  0  0  0  0  0
  138.0221   75.1537  222.7878 H   0  0  0  0  0  0  0  0  0  0  0  0
  138.4905   72.7797  221.8917 H   0  0  0  0  0  0  0  0  0  0  0  0
  141.2249   71.8743  221.6378 H   0  0  0  0  0  0  0  0  0  0  0  0
  141.6048   72.8507  227.0337 H   0  0  0  0  0  0  0  0  0  0  0  0
  141.4187   71.6737  229.2267 H   0  0  0  0  0  0  0  0  0  0  0  0
  140.3377   69.4345  229.3007 H   0  0  0  0  0  0  0  0  0  0  0  0
  139.4768   68.4126  227.2412 H   0  0  0  0  0  0  0  0  0  0  0  0
  139.6226   70.0612  221.6048 H   0  0  0  0  0  0  0  0  0  0  0  0
  139.4060   68.4687  222.6424 H   0  0  0  0  0  0  0  0  0  0  0  0
  137.6031   69.8148  221.1133 H   0  0  0  0  0  0  0  0  0  0  0  0
  137.1248   69.7952  224.1438 H   0  0  0  0  0  0  0  0  0  0  0  0
  137.1507   71.2491  223.0549 H   0  0  0  0  0  0  0  0  0  0  0  0
  134.8317   70.6637  223.5406 H   0  0  0  0  0  0  0  0  0  0  0  0
  135.1603   70.3114  221.8351 H   0  0  0  0  0  0  0  0  0  0  0  0
  135.4110   68.2717  224.1342 H   0  0  0  0  0  0  0  0  0  0  0  0
  134.0127   68.3657  223.0549 H   0  0  0  0  0  0  0  0  0  0  0  0
  135.6110   66.7089  222.1219 H   0  0  0  0  0  0  0  0  0  0  0  0
  135.6417   68.1363  221.0580 H   0  0  0  0  0  0  0  0  0  0  0  0
  137.5363   67.6935  223.4259 H   0  0  0  0  0  0  0  0  0  0  0  0
  137.9376   67.3040  221.7166 H   0  0  0  0  0  0  0  0  0  0  0  0
  141.7946   74.1854  221.0306 H   0  0  0  0  0  0  0  0  0  0  0  0
  142.3441   76.5667  220.8341 H   0  0  0  0  0  0  0  0  0  0  0  0
  1  2  1  0
  2  3  1  0
  2  4  1  0
  4  5  2  0
  4  6  2  0
  4  7  1  0
  7  8  2  0
  8  9  1  0
  9 10  2  0
 10 11  1  0
 11 12  2  0
 12 13  1  0
 13 14  2  0
 14 15  1  0
 15 16  2  0
 16 17  1  0
 17 18  2  0
 18 19  1  0
 19 20  2  0
 20 21  1  0
 21 22  2  0
 21 23  1  0
 23 24  1  0
 24 25  1  0
 25 26  1  0
 26 27  1  0
 27 28  1  0
 28 29  1  0
 29 30  1  0
 10 31  1  0
 31 32  2  0
 32  7  1  0
 23 13  1  0
 30 25  1  0
 20 15  1  0
  1 33  1  0
  1 34  1  0
  1 35  1  0
  3 36  1  0
  3 37  1  0
  3 38  1  0
  8 39  1  0
  9 40  1  0
 11 41  1  0
 12 42  1  0
 16 43  1  0
 17 44  1  0
 18 45  1  0
 19 46  1  0
 24 47  1  0
 24 48  1  0
 25 49  1  0
 26 50  1  0
 26 51  1  0
 27 52  1  0
 27 53  1  0
 28 54  1  0
 28 55  1  0
 29 56  1  0
 29 57  1  0
 30 58  1  0
 30 59  1  0
 31 60  1  0
 32 61  1  0
M  END
>  <smiles>  (26) 
CN(C)S(=O)(=O)c1ccc(/C=C/c2nc3ccccc3c(=O)n2CC2CCCCC2)cc1

>  <score_type>  (26) 
oracle

>  <origin>  (26) 
autodockgpu

>  <m_score__min__energy>  (26) 
-9.4499999999999993

>  <m_primary>  (26) 
energy

>  <rmsd>  (26) 
11.093976512968284

>  <m_score__min__rmsd>  (26) 
11.093976512968284

>  <meeko>  (26) 
{"free_energy": -8.19, "intermolecular_energy": -10.28, "internal_energy": -1.62, "cluster_size": 8, "cluster_id": 7, "rank_in_cluster": 7}

>  <energy>  (26) 
-8.08

>  <cluster_rmsd>  (26) 
1.39

>  <cluster>  (26) 
4

$$$$

     RDKit          3D

 61 64  0  0  0  0  0  0  0  0999 V2000
  146.2570   73.4740  216.8840 C   0  0  0  0  0  0  0  0  0  0  0  0
  145.3470   72.4770  217.4050 N   0  0  0  0  0  0  0  0  0  0  0  0
  143.9950   72.9150  217.1390 C   0  0  0  0  0  0  0  0  0  0  0  0
  145.5070   72.2960  219.1150 S   0  0  0  0  0  0  0  0  0  0  0  0
  146.4150   73.3710  219.6280 O   0  0  0  0  0  0  0  0  0  0  0  0
  146.2040   70.9830  219.3940 O   0  0  0  0  0  0  0  0  0  0  0  0
  143.9690   72.3500  219.9410 C   0  0  0  0  0  0  0  0  0  0  0  0
  143.1470   71.2510  220.0640 C   0  0  0  0  0  0  0  0  0  0  0  0
  141.9360   71.3080  220.7220 C   0  0  0  0  0  0  0  0  0  0  0  0
  141.4850   72.5030  221.3000 C   0  0  0  0  0  0  0  0  0  0  0  0
  140.2110   72.5430  221.9860 C   0  0  0  0  0  0  0  0  0  0  0  0
  139.4740   71.4840  222.2670 C   0  0  0  0  0  0  0  0  0  0  0  0
  139.5950   70.8430  223.5770 C   0  0  0  0  0  0  0  0  0  0  0  0
  140.1820   71.5180  224.5810 N   0  0  0  0  0  0  0  0  0  0  0  0
  140.3530   71.0480  225.8250 C   0  0  0  0  0  0  0  0  0  0  0  0
  140.9610   71.7680  226.8350 C   0  0  0  0  0  0  0  0  0  0  0  0
  141.1160   71.2370  228.1130 C   0  0  0  0  0  0  0  0  0  0  0  0
  140.6460   69.9670  228.3540 C   0  0  0  0  0  0  0  0  0  0  0  0
  140.0430   69.2540  227.3500 C   0  0  0  0  0  0  0  0  0  0  0  0
  139.8870   69.7750  226.0830 C   0  0  0  0  0  0  0  0  0  0  0  0
  139.2930   69.0890  225.0710 C   0  0  0  0  0  0  0  0  0  0  0  0
  138.8730   67.9130  225.3450 O   0  0  0  0  0  0  0  0  0  0  0  0
  139.1330   69.5980  223.8090 N   0  0  0  0  0  0  0  0  0  0  0  0
  138.5080   68.8440  222.8090 C   0  0  0  0  0  0  0  0  0  0  0  0
  139.1790   67.8310  222.0190 C   0  0  0  0  0  0  0  0  0  0  0  0
  139.9160   68.4360  220.8440 C   0  0  0  0  0  0  0  0  0  0  0  0
  140.5560   67.3750  219.9580 C   0  0  0  0  0  0  0  0  0  0  0  0
  139.4140   66.6080  219.3260 C   0  0  0  0  0  0  0  0  0  0  0  0
  138.6910   65.9160  220.4840 C   0  0  0  0  0  0  0  0  0  0  0  0
  138.0690   67.0000  221.3350 C   0  0  0  0  0  0  0  0  0  0  0  0
  142.3210   73.5820  221.1650 C   0  0  0  0  0  0  0  0  0  0  0  0
  143.5370   73.5330  220.5060 C   0  0  0  0  0  0  0  0  0  0  0  0
  146.7394   74.0025  217.7195 H   0  0  0  0  0  0  0  0  0  0  0  0
  147.0251   72.9833  216.2682 H   0  0  0  0  0  0  0  0  0  0  0  0
  145.6984   74.1942  216.2682 H   0  0  0  0  0  0  0  0  0  0  0  0
  143.4706   73.0849  218.0909 H   0  0  0  0  0  0  0  0  0  0  0  0
  144.0197   73.8511  216.5619 H   0  0  0  0  0  0  0  0  0  0  0  0
  143.4661   72.1423  216.5619 H   0  0  0  0  0  0  0  0  0  0  0  0
  143.4674   70.2958  219.6225 H   0  0  0  0  0  0  0  0  0  0  0  0
  141.3152   70.4028  220.7943 H   0  0  0  0  0  0  0  0  0  0  0  0
  139.8291   73.5270  222.2957 H   0  0  0  0  0  0  0  0  0  0  0  0
  138.7722   71.0854  221.5197 H   0  0  0  0  0  0  0  0  0  0  0  0
  141.3307   72.7826  226.6253 H   0  0  0  0  0  0  0  0  0  0  0  0
  141.6022   71.8188  228.9100 H   0  0  0  0  0  0  0  0  0  0  0  0
  140.7541   69.5224  229.3543 H   0  0  0  0  0  0  0  0  0  0  0  0
  139.6739   68.2395  227.5609 H   0  0  0  0  0  0  0  0  0  0  0  0
  137.6699   68.3304  223.3028 H   0  0  0  0  0  0  0  0  0  0  0  0
  138.3261   69.6166  222.0474 H   0  0  0  0  0  0  0  0  0  0  0  0
  139.8615   67.2789  222.6818 H   0  0  0  0  0  0  0  0  0  0  0  0
  139.2039   69.0185  220.2410 H   0  0  0  0  0  0  0  0  0  0  0  0
  140.7195   69.0736  221.2414 H   0  0  0  0  0  0  0  0  0  0  0  0
  141.1734   67.8490  219.1807 H   0  0  0  0  0  0  0  0  0  0  0  0
  141.2125   66.7104  220.5387 H   0  0  0  0  0  0  0  0  0  0  0  0
  138.7323   67.2956  218.8040 H   0  0  0  0  0  0  0  0  0  0  0  0
  139.7740   65.8837  218.5805 H   0  0  0  0  0  0  0  0  0  0  0  0
  137.9090   65.2476  220.0944 H   0  0  0  0  0  0  0  0  0  0  0  0
  139.3927   65.3098  221.0757 H   0  0  0  0  0  0  0  0  0  0  0  0
  137.4592   67.6586  220.6991 H   0  0  0  0  0  0  0  0  0  0  0  0
  137.4348   66.5375  222.1056 H   0  0  0  0  0  0  0  0  0  0  0  0
  142.0073   74.5400  221.6052 H   0  0  0  0  0  0  0  0  0  0  0  0
  144.1594   74.4370  220.4324 H   0  0  0  0  0  0  0  0  0  0  0  0
  1  2  1  0
  2  3  1  0
  2  4  1  0
  4  5  2  0
  4  6  2  0
  4  7  1  0
  7  8  2  0
  8  9  1  0
  9 10  2  0
 10 11  1  0
 11 12  2  0
 12 13  1  0
 13 14  2  0
 14 15  1  0
 15 16  2  0
 16 17  1  0
 17 18  2  0
 18 19  1  0
 19 20  2  0
 20 21  1  0
 21 22  2  0
 21 23  1  0
 23 24  1  0
 24 25  1  0
 25 26  1  0
 26 27  1  0
 27 28  1  0
 28 29  1  0
 29 30  1  0
 10 31  1  0
 31 32  2  0
 32  7  1  0
 23 13  1  0
 30 25  1  0
 20 15  1  0
  1 33  1  0
  1 34  1  0
  1 35  1  0
  3 36  1  0
  3 37  1  0
  3 38  1  0
  8 39  1  0
  9 40  1  0
 11 41  1  0
 12 42  1  0
 16 43  1  0
 17 44  1  0
 18 45  1  0
 19 46  1  0
 24 47  1  0
 24 48  1  0
 25 49  1  0
 26 50  1  0
 26 51  1  0
 27 52  1  0
 27 53  1  0
 28 54  1  0
 28 55  1  0
 29 56  1  0
 29 57  1  0
 30 58  1  0
 30 59  1  0
 31 60  1  0
 32 61  1  0
M  END
>  <smiles>  (27) 
CN(C)S(=O)(=O)c1ccc(/C=C/c2nc3ccccc3c(=O)n2CC2CCCCC2)cc1

>  <score_type>  (27) 
oracle

>  <origin>  (27) 
autodockgpu

>  <m_score__min__energy>  (27) 
-9.4499999999999993

>  <m_primary>  (27) 
energy

>  <rmsd>  (27) 
11.076329578549611

>  <m_score__min__rmsd>  (27) 
11.076329578549611

>  <meeko>  (27) 
{"free_energy": -8.21, "intermolecular_energy": -10.3, "internal_energy": -1.75, "cluster_size": 6, "cluster_id": 5, "rank_in_cluster": 3}

>  <energy>  (27) 
-7.84

>  <cluster_rmsd>  (27) 
0.66

>  <cluster>  (27) 
4

$$$$

     RDKit          3D

 61 64  0  0  0  0  0  0  0  0999 V2000
  139.9810   70.4390  227.9130 C   0  0  0  0  0  0  0  0  0  0  0  0
  139.8600   68.9980  227.9250 N   0  0  0  0  0  0  0  0  0  0  0  0
  140.9350   68.4590  228.7290 C   0  0  0  0  0  0  0  0  0  0  0  0
  140.0130   68.3300  226.3400 S   0  0  0  0  0  0  0  0  0  0  0  0
  138.8550   67.4120  226.0930 O   0  0  0  0  0  0  0  0  0  0  0  0
  141.2540   67.4660  226.3030 O   0  0  0  0  0  0  0  0  0  0  0  0
  140.0950   69.5560  225.1000 C   0  0  0  0  0  0  0  0  0  0  0  0
  141.0210   70.5770  225.1180 C   0  0  0  0  0  0  0  0  0  0  0  0
  141.0760   71.5380  224.1300 C   0  0  0  0  0  0  0  0  0  0  0  0
  140.1780   71.5170  223.0530 C   0  0  0  0  0  0  0  0  0  0  0  0
  140.2510   72.5340  222.0250 C   0  0  0  0  0  0  0  0  0  0  0  0
  139.5300   73.6410  222.0110 C   0  0  0  0  0  0  0  0  0  0  0  0
  140.1500   74.9050  221.6150 C   0  0  0  0  0  0  0  0  0  0  0  0
  140.0850   75.9550  222.4540 N   0  0  0  0  0  0  0  0  0  0  0  0
  140.6120   77.1630  222.2150 C   0  0  0  0  0  0  0  0  0  0  0  0
  140.5260   78.2210  223.0990 C   0  0  0  0  0  0  0  0  0  0  0  0
  141.0910   79.4600  222.8050 C   0  0  0  0  0  0  0  0  0  0  0  0
  141.7430   79.6120  221.6040 C   0  0  0  0  0  0  0  0  0  0  0  0
  141.8270   78.5610  220.7280 C   0  0  0  0  0  0  0  0  0  0  0  0
  141.2700   77.3320  221.0130 C   0  0  0  0  0  0  0  0  0  0  0  0
  141.3390   76.2750  220.1620 C   0  0  0  0  0  0  0  0  0  0  0  0
  141.9560   76.4670  219.0590 O   0  0  0  0  0  0  0  0  0  0  0  0
  140.7890   75.0510  220.4370 N   0  0  0  0  0  0  0  0  0  0  0  0
  140.8980   73.9970  219.5210 C   0  0  0  0  0  0  0  0  0  0  0  0
  142.1210   73.2600  219.2740 C   0  0  0  0  0  0  0  0  0  0  0  0
  141.9120   71.7690  219.4170 C   0  0  0  0  0  0  0  0  0  0  0  0
  143.2090   70.9870  219.2430 C   0  0  0  0  0  0  0  0  0  0  0  0
  144.0850   71.3560  220.4210 C   0  0  0  0  0  0  0  0  0  0  0  0
  144.3810   72.8490  220.2650 C   0  0  0  0  0  0  0  0  0  0  0  0
  143.0740   73.5870  220.4470 C   0  0  0  0  0  0  0  0  0  0  0  0
  139.2670   70.4910  223.0570 C   0  0  0  0  0  0  0  0  0  0  0  0
  139.2060   69.5240  224.0450 C   0  0  0  0  0  0  0  0  0  0  0  0
  140.0124   70.8129  228.9470 H   0  0  0  0  0  0  0  0  0  0  0  0
  140.9063   70.7249  227.3914 H   0  0  0  0  0  0  0  0  0  0  0  0
  139.1163   70.8752  227.3914 H   0  0  0  0  0  0  0  0  0  0  0  0
  140.6922   68.5807  229.7949 H   0  0  0  0  0  0  0  0  0  0  0  0
  141.0626   67.3903  228.5017 H   0  0  0  0  0  0  0  0  0  0  0  0
  141.8677   68.9961  228.5017 H   0  0  0  0  0  0  0  0  0  0  0  0
  141.7405   70.6271  225.9485 H   0  0  0  0  0  0  0  0  0  0  0  0
  141.8350   72.3321  224.1877 H   0  0  0  0  0  0  0  0  0  0  0  0
  140.9569   72.3736  221.1968 H   0  0  0  0  0  0  0  0  0  0  0  0
  138.4679   73.6121  222.2960 H   0  0  0  0  0  0  0  0  0  0  0  0
  140.0003   78.0823  224.0552 H   0  0  0  0  0  0  0  0  0  0  0  0
  141.0173   80.2960  223.5161 H   0  0  0  0  0  0  0  0  0  0  0  0
  142.1983   80.5794  221.3455 H   0  0  0  0  0  0  0  0  0  0  0  0
  142.3528   78.7017  219.7721 H   0  0  0  0  0  0  0  0  0  0  0  0
  140.1579   73.2480  219.8392 H   0  0  0  0  0  0  0  0  0  0  0  0
  140.7830   74.5355  218.5687 H   0  0  0  0  0  0  0  0  0  0  0  0
  142.4806   73.5213  218.2678 H   0  0  0  0  0  0  0  0  0  0  0  0
  141.5053   71.5626  220.4180 H   0  0  0  0  0  0  0  0  0  0  0  0
  141.2155   71.4482  218.6283 H   0  0  0  0  0  0  0  0  0  0  0  0
  143.0055   69.9060  219.2428 H   0  0  0  0  0  0  0  0  0  0  0  0
  143.6982   71.2289  218.2879 H   0  0  0  0  0  0  0  0  0  0  0  0
  143.5559   71.1666  221.3666 H   0  0  0  0  0  0  0  0  0  0  0  0
  145.0087   70.7590  220.4429 H   0  0  0  0  0  0  0  0  0  0  0  0
  145.1048   73.1712  221.0281 H   0  0  0  0  0  0  0  0  0  0  0  0
  144.8129   73.0594  219.2755 H   0  0  0  0  0  0  0  0  0  0  0  0
  142.6079   73.2765  221.3938 H   0  0  0  0  0  0  0  0  0  0  0  0
  143.2676   74.6696  220.4671 H   0  0  0  0  0  0  0  0  0  0  0  0
  138.5451   70.4340  222.2290 H   0  0  0  0  0  0  0  0  0  0  0  0
  138.4479   68.7289  223.9893 H   0  0  0  0  0  0  0  0  0  0  0  0
  1  2  1  0
  2  3  1  0
  2  4  1  0
  4  5  2  0
  4  6  2  0
  4  7  1  0
  7  8  2  0
  8  9  1  0
  9 10  2  0
 10 11  1  0
 11 12  2  0
 12 13  1  0
 13 14  2  0
 14 15  1  0
 15 16  2  0
 16 17  1  0
 17 18  2  0
 18 19  1  0
 19 20  2  0
 20 21  1  0
 21 22  2  0
 21 23  1  0
 23 24  1  0
 24 25  1  0
 25 26  1  0
 26 27  1  0
 27 28  1  0
 28 29  1  0
 29 30  1  0
 10 31  1  0
 31 32  2  0
 32  7  1  0
 23 13  1  0
 30 25  1  0
 20 15  1  0
  1 33  1  0
  1 34  1  0
  1 35  1  0
  3 36  1  0
  3 37  1  0
  3 38  1  0
  8 39  1  0
  9 40  1  0
 11 41  1  0
 12 42  1  0
 16 43  1  0
 17 44  1  0
 18 45  1  0
 19 46  1  0
 24 47  1  0
 24 48  1  0
 25 49  1  0
 26 50  1  0
 26 51  1  0
 27 52  1  0
 27 53  1  0
 28 54  1  0
 28 55  1  0
 29 56  1  0
 29 57  1  0
 30 58  1  0
 30 59  1  0
 31 60  1  0
 32 61  1  0
M  END
>  <smiles>  (28) 
CN(C)S(=O)(=O)c1ccc(/C=C/c2nc3ccccc3c(=O)n2CC2CCCCC2)cc1

>  <score_type>  (28) 
oracle

>  <origin>  (28) 
autodockgpu

>  <m_score__min__energy>  (28) 
-9.4499999999999993

>  <m_primary>  (28) 
energy

>  <rmsd>  (28) 
4.985059302584205

>  <m_score__min__rmsd>  (28) 
4.985059302584205

>  <meeko>  (28) 
{"free_energy": -8.35, "intermolecular_energy": -10.44, "internal_energy": -1.52, "cluster_size": 5, "cluster_id": 1, "rank_in_cluster": 4}

>  <energy>  (28) 
-7.83

>  <cluster_rmsd>  (28) 
1.02

>  <cluster>  (28) 
4

$$$$

     RDKit          3D

 61 64  0  0  0  0  0  0  0  0999 V2000
  140.2610   70.5870  227.9460 C   0  0  0  0  0  0  0  0  0  0  0  0
  139.8380   69.2080  227.8360 N   0  0  0  0  0  0  0  0  0  0  0  0
  140.6570   68.4100  228.7220 C   0  0  0  0  0  0  0  0  0  0  0  0
  140.0590   68.5970  226.2360 S   0  0  0  0  0  0  0  0  0  0  0  0
  139.1960   67.3850  226.0620 O   0  0  0  0  0  0  0  0  0  0  0  0
  141.4880   68.1210  226.0990 O   0  0  0  0  0  0  0  0  0  0  0  0
  139.6970   69.7850  225.0080 C   0  0  0  0  0  0  0  0  0  0  0  0
  140.4190   70.9490  224.8590 C   0  0  0  0  0  0  0  0  0  0  0  0
  140.1240   71.8780  223.8830 C   0  0  0  0  0  0  0  0  0  0  0  0
  139.0610   71.6730  222.9910 C   0  0  0  0  0  0  0  0  0  0  0  0
  138.7660   72.6590  221.9720 C   0  0  0  0  0  0  0  0  0  0  0  0
  139.2700   73.8790  221.9390 C   0  0  0  0  0  0  0  0  0  0  0  0
  140.5970   74.1000  221.3640 C   0  0  0  0  0  0  0  0  0  0  0  0
  141.4960   73.1000  221.3940 N   0  0  0  0  0  0  0  0  0  0  0  0
  142.7400   73.1700  220.9010 C   0  0  0  0  0  0  0  0  0  0  0  0
  143.6400   72.1230  220.9500 C   0  0  0  0  0  0  0  0  0  0  0  0
  144.9230   72.2440  220.4230 C   0  0  0  0  0  0  0  0  0  0  0  0
  145.2840   73.4400  219.8480 C   0  0  0  0  0  0  0  0  0  0  0  0
  144.3890   74.4780  219.8020 C   0  0  0  0  0  0  0  0  0  0  0  0
  143.1170   74.3640  220.3210 C   0  0  0  0  0  0  0  0  0  0  0  0
  142.2120   75.3780  220.2880 C   0  0  0  0  0  0  0  0  0  0  0  0
  142.5960   76.4690  219.7430 O   0  0  0  0  0  0  0  0  0  0  0  0
  140.9470   75.2740  220.8000 N   0  0  0  0  0  0  0  0  0  0  0  0
  140.0570   76.3540  220.7320 C   0  0  0  0  0  0  0  0  0  0  0  0
  140.2220   77.5870  221.4740 C   0  0  0  0  0  0  0  0  0  0  0  0
  141.1070   78.5680  220.7390 C   0  0  0  0  0  0  0  0  0  0  0  0
  141.3560   79.8360  221.5460 C   0  0  0  0  0  0  0  0  0  0  0  0
  142.1800   79.4170  222.7460 C   0  0  0  0  0  0  0  0  0  0  0  0
  141.2820   78.4810  223.5570 C   0  0  0  0  0  0  0  0  0  0  0  0
  141.0620   77.2380  222.7250 C   0  0  0  0  0  0  0  0  0  0  0  0
  138.3590   70.5070  223.1590 C   0  0  0  0  0  0  0  0  0  0  0  0
  138.6490   69.5710  224.1360 C   0  0  0  0  0  0  0  0  0  0  0  0
  140.3451   70.8611  229.0080 H   0  0  0  0  0  0  0  0  0  0  0  0
  141.2384   70.7108  227.4568 H   0  0  0  0  0  0  0  0  0  0  0  0
  139.5211   71.2376  227.4568 H   0  0  0  0  0  0  0  0  0  0  0  0
  140.4096   68.6510  229.7664 H   0  0  0  0  0  0  0  0  0  0  0  0
  140.4653   67.3428  228.5367 H   0  0  0  0  0  0  0  0  0  0  0  0
  141.7189   68.6294  228.5367 H   0  0  0  0  0  0  0  0  0  0  0  0
  141.2593   71.1441  225.5416 H   0  0  0  0  0  0  0  0  0  0  0  0
  140.7306   72.7921  223.8031 H   0  0  0  0  0  0  0  0  0  0  0  0
  138.0726   72.3710  221.1682 H   0  0  0  0  0  0  0  0  0  0  0  0
  138.6947   74.7255  222.3421 H   0  0  0  0  0  0  0  0  0  0  0  0
  143.3365   71.1736  221.4153 H   0  0  0  0  0  0  0  0  0  0  0  0
  145.6309   71.4032  220.4655 H   0  0  0  0  0  0  0  0  0  0  0  0
  146.2916   73.5641  219.4246 H   0  0  0  0  0  0  0  0  0  0  0  0
  144.6945   75.4276  219.3383 H   0  0  0  0  0  0  0  0  0  0  0  0
  140.0229   76.6461  219.6720 H   0  0  0  0  0  0  0  0  0  0  0  0
  139.1725   75.9279  221.2281 H   0  0  0  0  0  0  0  0  0  0  0  0
  139.2232   78.0084  221.6607 H   0  0  0  0  0  0  0  0  0  0  0  0
  142.0733   78.0856  220.5303 H   0  0  0  0  0  0  0  0  0  0  0  0
  140.5933   78.8550  219.8096 H   0  0  0  0  0  0  0  0  0  0  0  0
  141.9084   80.5706  220.9416 H   0  0  0  0  0  0  0  0  0  0  0  0
  140.4112   80.3082  221.8532 H   0  0  0  0  0  0  0  0  0  0  0  0
  143.0897   78.8904  222.4218 H   0  0  0  0  0  0  0  0  0  0  0  0
  142.5040   80.2846  223.3395 H   0  0  0  0  0  0  0  0  0  0  0  0
  141.7722   78.2173  224.5058 H   0  0  0  0  0  0  0  0  0  0  0  0
  140.3238   78.9672  223.7924 H   0  0  0  0  0  0  0  0  0  0  0  0
  142.0348   76.8323  222.4102 H   0  0  0  0  0  0  0  0  0  0  0  0
  140.5251   76.4891  223.3257 H   0  0  0  0  0  0  0  0  0  0  0  0
  137.5183   70.3045  222.4791 H   0  0  0  0  0  0  0  0  0  0  0  0
  138.0440   68.6560  224.2176 H   0  0  0  0  0  0  0  0  0  0  0  0
  1  2  1  0
  2  3  1  0
  2  4  1  0
  4  5  2  0
  4  6  2  0
  4  7  1  0
  7  8  2  0
  8  9  1  0
  9 10  2  0
 10 11  1  0
 11 12  2  0
 12 13  1  0
 13 14  2  0
 14 15  1  0
 15 16  2  0
 16 17  1  0
 17 18  2  0
 18 19  1  0
 19 20  2  0
 20 21  1  0
 21 22  2  0
 21 23  1  0
 23 24  1  0
 24 25  1  0
 25 26  1  0
 26 27  1  0
 27 28  1  0
 28 29  1  0
 29 30  1  0
 10 31  1  0
 31 32  2  0
 32  7  1  0
 23 13  1  0
 30 25  1  0
 20 15  1  0
  1 33  1  0
  1 34  1  0
  1 35  1  0
  3 36  1  0
  3 37  1  0
  3 38  1  0
  8 39  1  0
  9 40  1  0
 11 41  1  0
 12 42  1  0
 16 43  1  0
 17 44  1  0
 18 45  1  0
 19 46  1  0
 24 47  1  0
 24 48  1  0
 25 49  1  0
 26 50  1  0
 26 51  1  0
 27 52  1  0
 27 53  1  0
 28 54  1  0
 28 55  1  0
 29 56  1  0
 29 57  1  0
 30 58  1  0
 30 59  1  0
 31 60  1  0
 32 61  1  0
M  END
>  <smiles>  (29) 
CN(C)S(=O)(=O)c1ccc(/C=C/c2nc3ccccc3c(=O)n2CC2CCCCC2)cc1

>  <score_type>  (29) 
oracle

>  <origin>  (29) 
autodockgpu

>  <m_score__min__energy>  (29) 
-9.4499999999999993

>  <m_primary>  (29) 
energy

>  <rmsd>  (29) 
7.385396718661543

>  <m_score__min__rmsd>  (29) 
7.385396718661543

>  <meeko>  (29) 
{"free_energy": -9.34, "intermolecular_energy": -11.43, "internal_energy": -1.55, "cluster_size": 8, "cluster_id": 2, "rank_in_cluster": 1}

>  <energy>  (29) 
-7.71

>  <cluster_rmsd>  (29) 
1.71

>  <cluster>  (29) 
4

$$$$

     RDKit          3D

 61 64  0  0  0  0  0  0  0  0999 V2000
  141.8170   78.9940  223.8270 C   0  0  0  0  0  0  0  0  0  0  0  0
  141.8740   78.8330  222.3910 N   0  0  0  0  0  0  0  0  0  0  0  0
  142.0480   80.1390  221.7940 C   0  0  0  0  0  0  0  0  0  0  0  0
  140.4100   78.1670  221.7630 S   0  0  0  0  0  0  0  0  0  0  0  0
  140.2030   78.6890  220.3740 O   0  0  0  0  0  0  0  0  0  0  0  0
  139.2550   78.6880  222.5870 O   0  0  0  0  0  0  0  0  0  0  0  0
  140.4130   76.4200  221.7640 C   0  0  0  0  0  0  0  0  0  0  0  0
  139.3840   75.6710  222.2910 C   0  0  0  0  0  0  0  0  0  0  0  0
  139.3980   74.2920  222.2830 C   0  0  0  0  0  0  0  0  0  0  0  0
  140.4760   73.5850  221.7320 C   0  0  0  0  0  0  0  0  0  0  0  0
  140.4740   72.1370  221.7330 C   0  0  0  0  0  0  0  0  0  0  0  0
  139.5060   71.3870  222.2270 C   0  0  0  0  0  0  0  0  0  0  0  0
  139.6720   70.7580  223.5370 C   0  0  0  0  0  0  0  0  0  0  0  0
  140.1750   71.4860  224.5510 N   0  0  0  0  0  0  0  0  0  0  0  0
  140.3740   71.0330  225.7970 C   0  0  0  0  0  0  0  0  0  0  0  0
  140.8930   71.8070  226.8150 C   0  0  0  0  0  0  0  0  0  0  0  0
  141.0820   71.2910  228.0950 C   0  0  0  0  0  0  0  0  0  0  0  0
  140.7390   69.9800  228.3280 C   0  0  0  0  0  0  0  0  0  0  0  0
  140.2240   69.2130  227.3150 C   0  0  0  0  0  0  0  0  0  0  0  0
  140.0340   69.7190  226.0460 C   0  0  0  0  0  0  0  0  0  0  0  0
  139.5260   68.9790  225.0250 C   0  0  0  0  0  0  0  0  0  0  0  0
  139.2230   67.7660  225.2920 O   0  0  0  0  0  0  0  0  0  0  0  0
  139.3340   69.4730  223.7620 N   0  0  0  0  0  0  0  0  0  0  0  0
  138.8020   68.6620  222.7520 C   0  0  0  0  0  0  0  0  0  0  0  0
  137.4220   68.7170  222.3110 C   0  0  0  0  0  0  0  0  0  0  0  0
  136.4890   69.0870  223.4420 C   0  0  0  0  0  0  0  0  0  0  0  0
  135.0270   69.0660  223.0120 C   0  0  0  0  0  0  0  0  0  0  0  0
  134.6960   67.6190  222.7130 C   0  0  0  0  0  0  0  0  0  0  0  0
  135.5700   67.2340  221.5180 C   0  0  0  0  0  0  0  0  0  0  0  0
  137.0070   67.2630  221.9850 C   0  0  0  0  0  0  0  0  0  0  0  0
  141.4880   74.3530  221.2130 C   0  0  0  0  0  0  0  0  0  0  0  0
  141.4800   75.7370  221.2180 C   0  0  0  0  0  0  0  0  0  0  0  0
  142.1462   78.0640  224.3136 H   0  0  0  0  0  0  0  0  0  0  0  0
  142.4774   79.8199  224.1299 H   0  0  0  0  0  0  0  0  0  0  0  0
  140.7841   79.2205  224.1299 H   0  0  0  0  0  0  0  0  0  0  0  0
  142.1486   80.8943  222.5873 H   0  0  0  0  0  0  0  0  0  0  0  0
  142.9541   80.1393  221.1704 H   0  0  0  0  0  0  0  0  0  0  0  0
  141.1736   80.3765  221.1704 H   0  0  0  0  0  0  0  0  0  0  0  0
  138.5214   76.1907  222.7335 H   0  0  0  0  0  0  0  0  0  0  0  0
  138.5511   73.7388  222.7152 H   0  0  0  0  0  0  0  0  0  0  0  0
  141.3412   71.6250  221.2904 H   0  0  0  0  0  0  0  0  0  0  0  0
  138.5783   71.2358  221.6555 H   0  0  0  0  0  0  0  0  0  0  0  0
  141.1632   72.8537  226.6112 H   0  0  0  0  0  0  0  0  0  0  0  0
  141.4955   71.9169  228.8996 H   0  0  0  0  0  0  0  0  0  0  0  0
  140.8781   69.5458  229.3291 H   0  0  0  0  0  0  0  0  0  0  0  0
  139.9552   68.1662  227.5197 H   0  0  0  0  0  0  0  0  0  0  0  0
  139.4093   68.8632  221.8571 H   0  0  0  0  0  0  0  0  0  0  0  0
  138.8265   67.6766  223.2403 H   0  0  0  0  0  0  0  0  0  0  0  0
  137.3565   69.4384  221.4832 H   0  0  0  0  0  0  0  0  0  0  0  0
  136.6268   68.3694  224.2642 H   0  0  0  0  0  0  0  0  0  0  0  0
  136.7330   70.1114  223.7599 H   0  0  0  0  0  0  0  0  0  0  0  0
  134.3858   69.4445  223.8217 H   0  0  0  0  0  0  0  0  0  0  0  0
  134.8581   69.7059  222.1334 H   0  0  0  0  0  0  0  0  0  0  0  0
  134.9308   66.9845  223.5804 H   0  0  0  0  0  0  0  0  0  0  0  0
  133.6264   67.4835  222.4947 H   0  0  0  0  0  0  0  0  0  0  0  0
  135.3077   66.2242  221.1695 H   0  0  0  0  0  0  0  0  0  0  0  0
  135.4176   67.9331  220.6825 H   0  0  0  0  0  0  0  0  0  0  0  0
  137.1105   66.6425  222.8874 H   0  0  0  0  0  0  0  0  0  0  0  0
  137.6560   66.8696  221.1887 H   0  0  0  0  0  0  0  0  0  0  0  0
  142.3536   73.8401  220.7683 H   0  0  0  0  0  0  0  0  0  0  0  0
  142.3253   76.2929  220.7862 H   0  0  0  0  0  0  0  0  0  0  0  0
  1  2  1  0
  2  3  1  0
  2  4  1  0
  4  5  2  0
  4  6  2  0
  4  7  1  0
  7  8  2  0
  8  9  1  0
  9 10  2  0
 10 11  1  0
 11 12  2  0
 12 13  1  0
 13 14  2  0
 14 15  1  0
 15 16  2  0
 16 17  1  0
 17 18  2  0
 18 19  1  0
 19 20  2  0
 20 21  1  0
 21 22  2  0
 21 23  1  0
 23 24  1  0
 24 25  1  0
 25 26  1  0
 26 27  1  0
 27 28  1  0
 28 29  1  0
 29 30  1  0
 10 31  1  0
 31 32  2  0
 32  7  1  0
 23 13  1  0
 30 25  1  0
 20 15  1  0
  1 33  1  0
  1 34  1  0
  1 35  1  0
  3 36  1  0
  3 37  1  0
  3 38  1  0
  8 39  1  0
  9 40  1  0
 11 41  1  0
 12 42  1  0
 16 43  1  0
 17 44  1  0
 18 45  1  0
 19 46  1  0
 24 47  1  0
 24 48  1  0
 25 49  1  0
 26 50  1  0
 26 51  1  0
 27 52  1  0
 27 53  1  0
 28 54  1  0
 28 55  1  0
 29 56  1  0
 29 57  1  0
 30 58  1  0
 30 59  1  0
 31 60  1  0
 32 61  1  0
M  END
>  <smiles>  (30) 
CN(C)S(=O)(=O)c1ccc(/C=C/c2nc3ccccc3c(=O)n2CC2CCCCC2)cc1

>  <score_type>  (30) 
oracle

>  <origin>  (30) 
autodockgpu

>  <m_score__min__energy>  (30) 
-9.4499999999999993

>  <m_primary>  (30) 
energy

>  <rmsd>  (30) 
11.55448976532887

>  <m_score__min__rmsd>  (30) 
11.55448976532887

>  <meeko>  (30) 
{"free_energy": -8.29, "intermolecular_energy": -10.38, "internal_energy": -1.51, "cluster_size": 8, "cluster_id": 7, "rank_in_cluster": 3}

>  <energy>  (30) 
-7.33

>  <cluster_rmsd>  (30) 
1.94

>  <cluster>  (30) 
4

$$$$

     RDKit          3D

 61 64  0  0  0  0  0  0  0  0999 V2000
  131.4780   71.3120  225.4890 C   0  0  0  0  0  0  0  0  0  0  0  0
  131.9460   71.3810  226.8560 N   0  0  0  0  0  0  0  0  0  0  0  0
  131.2220   72.4370  227.5300 C   0  0  0  0  0  0  0  0  0  0  0  0
  133.6260   71.7710  226.9390 S   0  0  0  0  0  0  0  0  0  0  0  0
  134.1340   71.4190  228.3030 O   0  0  0  0  0  0  0  0  0  0  0  0
  133.7760   73.2700  226.8060 O   0  0  0  0  0  0  0  0  0  0  0  0
  134.5640   70.9600  225.7100 C   0  0  0  0  0  0  0  0  0  0  0  0
  135.1730   71.6290  224.6700 C   0  0  0  0  0  0  0  0  0  0  0  0
  135.9130   70.9750  223.7070 C   0  0  0  0  0  0  0  0  0  0  0  0
  136.0780   69.5830  223.7470 C   0  0  0  0  0  0  0  0  0  0  0  0
  136.8590   68.9130  222.7270 C   0  0  0  0  0  0  0  0  0  0  0  0
  138.1510   68.6570  222.8170 C   0  0  0  0  0  0  0  0  0  0  0  0
  138.9080   69.1410  223.9720 C   0  0  0  0  0  0  0  0  0  0  0  0
  139.0920   68.3200  225.0210 N   0  0  0  0  0  0  0  0  0  0  0  0
  139.7670   68.6370  226.1350 C   0  0  0  0  0  0  0  0  0  0  0  0
  139.9370   67.7700  227.1960 C   0  0  0  0  0  0  0  0  0  0  0  0
  140.6460   68.1460  228.3340 C   0  0  0  0  0  0  0  0  0  0  0  0
  141.1800   69.4120  228.3830 C   0  0  0  0  0  0  0  0  0  0  0  0
  141.0080   70.2720  227.3290 C   0  0  0  0  0  0  0  0  0  0  0  0
  140.3080   69.9050  226.1990 C   0  0  0  0  0  0  0  0  0  0  0  0
  140.1240   70.7390  225.1420 C   0  0  0  0  0  0  0  0  0  0  0  0
  140.6390   71.9050  225.2360 O   0  0  0  0  0  0  0  0  0  0  0  0
  139.4290   70.3830  224.0160 N   0  0  0  0  0  0  0  0  0  0  0  0
  139.2780   71.2860  222.9560 C   0  0  0  0  0  0  0  0  0  0  0  0
  140.2810   72.2570  222.5680 C   0  0  0  0  0  0  0  0  0  0  0  0
  139.6560   73.4970  221.9690 C   0  0  0  0  0  0  0  0  0  0  0  0
  140.7030   74.4910  221.4810 C   0  0  0  0  0  0  0  0  0  0  0  0
  141.4040   73.8260  220.3150 C   0  0  0  0  0  0  0  0  0  0  0  0
  142.1150   72.6050  220.9020 C   0  0  0  0  0  0  0  0  0  0  0  0
  141.0450   71.6450  221.3710 C   0  0  0  0  0  0  0  0  0  0  0  0
  135.4640   68.9400  224.7910 C   0  0  0  0  0  0  0  0  0  0  0  0
  134.7190   69.5890  225.7600 C   0  0  0  0  0  0  0  0  0  0  0  0
  130.3898   71.1516  225.4817 H   0  0  0  0  0  0  0  0  0  0  0  0
  131.7132   72.2545  224.9729 H   0  0  0  0  0  0  0  0  0  0  0  0
  131.9752   70.4774  224.9729 H   0  0  0  0  0  0  0  0  0  0  0  0
  131.3117   72.3062  228.6185 H   0  0  0  0  0  0  0  0  0  0  0  0
  131.6427   73.4117  227.2419 H   0  0  0  0  0  0  0  0  0  0  0  0
  130.1612   72.3959  227.2419 H   0  0  0  0  0  0  0  0  0  0  0  0
  135.0652   72.7218  224.6058 H   0  0  0  0  0  0  0  0  0  0  0  0
  136.3802   71.5534  222.8964 H   0  0  0  0  0  0  0  0  0  0  0  0
  136.3380   68.5948  221.8119 H   0  0  0  0  0  0  0  0  0  0  0  0
  138.6564   68.0822  222.0270 H   0  0  0  0  0  0  0  0  0  0  0  0
  139.5031   66.7607  227.1412 H   0  0  0  0  0  0  0  0  0  0  0  0
  140.7757   67.4471  229.1734 H   0  0  0  0  0  0  0  0  0  0  0  0
  141.7460   69.7354  229.2690 H   0  0  0  0  0  0  0  0  0  0  0  0
  141.4401   71.2820  227.3864 H   0  0  0  0  0  0  0  0  0  0  0  0
  139.0990   70.6695  222.0627 H   0  0  0  0  0  0  0  0  0  0  0  0
  138.4926   71.9453  223.3541 H   0  0  0  0  0  0  0  0  0  0  0  0
  140.8829   72.4992  223.4563 H   0  0  0  0  0  0  0  0  0  0  0  0
  139.0255   73.2001  221.1179 H   0  0  0  0  0  0  0  0  0  0  0  0
  139.0630   73.9892  222.7540 H   0  0  0  0  0  0  0  0  0  0  0  0
  140.2204   75.4239  221.1543 H   0  0  0  0  0  0  0  0  0  0  0  0
  141.4125   74.7514  222.2803 H   0  0  0  0  0  0  0  0  0  0  0  0
  140.6727   73.5152  219.5543 H   0  0  0  0  0  0  0  0  0  0  0  0
  142.1109   74.5098  219.8223 H   0  0  0  0  0  0  0  0  0  0  0  0
  142.7391   72.1267  220.1327 H   0  0  0  0  0  0  0  0  0  0  0  0
  142.7685   72.8984  221.7368 H   0  0  0  0  0  0  0  0  0  0  0  0
  140.3408   71.4525  220.5481 H   0  0  0  0  0  0  0  0  0  0  0  0
  141.5155   70.7013  221.6843 H   0  0  0  0  0  0  0  0  0  0  0  0
  135.5695   67.8474  224.8622 H   0  0  0  0  0  0  0  0  0  0  0  0
  134.2499   69.0121  226.5707 H   0  0  0  0  0  0  0  0  0  0  0  0
  1  2  1  0
  2  3  1  0
  2  4  1  0
  4  5  2  0
  4  6  2  0
  4  7  1  0
  7  8  2  0
  8  9  1  0
  9 10  2  0
 10 11  1  0
 11 12  2  0
 12 13  1  0
 13 14  2  0
 14 15  1  0
 15 16  2  0
 16 17  1  0
 17 18  2  0
 18 19  1  0
 19 20  2  0
 20 21  1  0
 21 22  2  0
 21 23  1  0
 23 24  1  0
 24 25  1  0
 25 26  1  0
 26 27  1  0
 27 28  1  0
 28 29  1  0
 29 30  1  0
 10 31  1  0
 31 32  2  0
 32  7  1  0
 23 13  1  0
 30 25  1  0
 20 15  1  0
  1 33  1  0
  1 34  1  0
  1 35  1  0
  3 36  1  0
  3 37  1  0
  3 38  1  0
  8 39  1  0
  9 40  1  0
 11 41  1  0
 12 42  1  0
 16 43  1  0
 17 44  1  0
 18 45  1  0
 19 46  1  0
 24 47  1  0
 24 48  1  0
 25 49  1  0
 26 50  1  0
 26 51  1  0
 27 52  1  0
 27 53  1  0
 28 54  1  0
 28 55  1  0
 29 56  1  0
 29 57  1  0
 30 58  1  0
 30 59  1  0
 31 60  1  0
 32 61  1  0
M  END
>  <smiles>  (31) 
CN(C)S(=O)(=O)c1ccc(/C=C/c2nc3ccccc3c(=O)n2CC2CCCCC2)cc1

>  <score_type>  (31) 
oracle

>  <origin>  (31) 
autodockgpu

>  <m_score__min__energy>  (31) 
-9.4499999999999993

>  <m_primary>  (31) 
energy

>  <rmsd>  (31) 
10.333113246737609

>  <m_score__min__rmsd>  (31) 
10.333113246737609

>  <meeko>  (31) 
{"free_energy": -8.55, "intermolecular_energy": -10.64, "internal_energy": -1.86, "cluster_size": 11, "cluster_id": 4, "rank_in_cluster": 1}

>  <energy>  (31) 
-8.47

>  <cluster_rmsd>  (31) 
0.0

>  <cluster>  (31) 
5

$$$$

     RDKit          3D

 61 64  0  0  0  0  0  0  0  0999 V2000
  139.9570   70.5080  227.9870 C   0  0  0  0  0  0  0  0  0  0  0  0
  139.7360   69.0790  227.9490 N   0  0  0  0  0  0  0  0  0  0  0  0
  140.7400   68.4430  228.7730 C   0  0  0  0  0  0  0  0  0  0  0  0
  139.9030   68.4480  226.3500 S   0  0  0  0  0  0  0  0  0  0  0  0
  138.8410   67.4160  226.1280 O   0  0  0  0  0  0  0  0  0  0  0  0
  141.2260   67.7210  226.2590 O   0  0  0  0  0  0  0  0  0  0  0  0
  139.8130   69.6910  225.1260 C   0  0  0  0  0  0  0  0  0  0  0  0
  138.7270   69.8400  224.2910 C   0  0  0  0  0  0  0  0  0  0  0  0
  138.6670   70.8270  223.3300 C   0  0  0  0  0  0  0  0  0  0  0  0
  139.7250   71.7320  223.1590 C   0  0  0  0  0  0  0  0  0  0  0  0
  139.6460   72.7620  222.1440 C   0  0  0  0  0  0  0  0  0  0  0  0
  138.5670   73.4780  221.8830 C   0  0  0  0  0  0  0  0  0  0  0  0
  138.5600   74.9110  222.1770 C   0  0  0  0  0  0  0  0  0  0  0  0
  139.7330   75.5510  222.3350 N   0  0  0  0  0  0  0  0  0  0  0  0
  139.8650   76.8570  222.6020 C   0  0  0  0  0  0  0  0  0  0  0  0
  141.0860   77.4830  222.7600 C   0  0  0  0  0  0  0  0  0  0  0  0
  141.1730   78.8450  223.0370 C   0  0  0  0  0  0  0  0  0  0  0  0
  140.0060   79.5640  223.1540 C   0  0  0  0  0  0  0  0  0  0  0  0
  138.7950   78.9400  222.9980 C   0  0  0  0  0  0  0  0  0  0  0  0
  138.7030   77.5920  222.7220 C   0  0  0  0  0  0  0  0  0  0  0  0
  137.5160   76.9510  222.5630 C   0  0  0  0  0  0  0  0  0  0  0  0
  136.4600   77.6630  222.6810 O   0  0  0  0  0  0  0  0  0  0  0  0
  137.4140   75.6120  222.2900 N   0  0  0  0  0  0  0  0  0  0  0  0
  136.1600   75.0090  222.1320 C   0  0  0  0  0  0  0  0  0  0  0  0
  135.1430   74.9720  223.1630 C   0  0  0  0  0  0  0  0  0  0  0  0
  135.7110   75.3210  224.5210 C   0  0  0  0  0  0  0  0  0  0  0  0
  134.6700   75.2040  225.6280 C   0  0  0  0  0  0  0  0  0  0  0  0
  134.3290   73.7330  225.7320 C   0  0  0  0  0  0  0  0  0  0  0  0
  133.6770   73.3640  224.3980 C   0  0  0  0  0  0  0  0  0  0  0  0
  134.7410   73.4890  223.3310 C   0  0  0  0  0  0  0  0  0  0  0  0
  140.7940   71.5630  224.0020 C   0  0  0  0  0  0  0  0  0  0  0  0
  140.8610   70.5750  224.9690 C   0  0  0  0  0  0  0  0  0  0  0  0
  140.0089   70.8433  229.0334 H   0  0  0  0  0  0  0  0  0  0  0  0
  140.9027   70.7464  227.4783 H   0  0  0  0  0  0  0  0  0  0  0  0
  139.1275   71.0210  227.4783 H   0  0  0  0  0  0  0  0  0  0  0  0
  140.4954   68.5980  229.8342 H   0  0  0  0  0  0  0  0  0  0  0  0
  140.7635   67.3649  228.5558 H   0  0  0  0  0  0  0  0  0  0  0  0
  141.7248   68.8824  228.5558 H   0  0  0  0  0  0  0  0  0  0  0  0
  137.8786   69.1476  224.3947 H   0  0  0  0  0  0  0  0  0  0  0  0
  137.7770   70.9058  222.6884 H   0  0  0  0  0  0  0  0  0  0  0  0
  140.5486   72.9624  221.5481 H   0  0  0  0  0  0  0  0  0  0  0  0
  137.6781   72.9990  221.4467 H   0  0  0  0  0  0  0  0  0  0  0  0
  142.0095   76.8931  222.6650 H   0  0  0  0  0  0  0  0  0  0  0  0
  142.1508   79.3339  223.1592 H   0  0  0  0  0  0  0  0  0  0  0  0
  140.0444   80.6413  223.3731 H   0  0  0  0  0  0  0  0  0  0  0  0
  137.8721   79.5305  223.0956 H   0  0  0  0  0  0  0  0  0  0  0  0
  135.6940   75.5113  221.2715 H   0  0  0  0  0  0  0  0  0  0  0  0
  136.4436   73.9475  222.0800 H   0  0  0  0  0  0  0  0  0  0  0  0
  134.3386   75.6640  222.8730 H   0  0  0  0  0  0  0  0  0  0  0  0
  136.5430   74.6367  224.7434 H   0  0  0  0  0  0  0  0  0  0  0  0
  136.0508   76.3666  224.4862 H   0  0  0  0  0  0  0  0  0  0  0  0
  135.0832   75.5681  226.5802 H   0  0  0  0  0  0  0  0  0  0  0  0
  133.7779   75.8079  225.4053 H   0  0  0  0  0  0  0  0  0  0  0  0
  135.2406   73.1382  225.8909 H   0  0  0  0  0  0  0  0  0  0  0  0
  133.6595   73.5304  226.5810 H   0  0  0  0  0  0  0  0  0  0  0  0
  133.3003   72.3312  224.4355 H   0  0  0  0  0  0  0  0  0  0  0  0
  132.8270   74.0279  224.1818 H   0  0  0  0  0  0  0  0  0  0  0  0
  135.6238   72.9025  223.6253 H   0  0  0  0  0  0  0  0  0  0  0  0
  134.3450   73.1100  222.3773 H   0  0  0  0  0  0  0  0  0  0  0  0
  141.6461   72.2517  223.9039 H   0  0  0  0  0  0  0  0  0  0  0  0
  141.7496   70.4944  225.6124 H   0  0  0  0  0  0  0  0  0  0  0  0
  1  2  1  0
  2  3  1  0
  2  4  1  0
  4  5  2  0
  4  6  2  0
  4  7  1  0
  7  8  2  0
  8  9  1  0
  9 10  2  0
 10 11  1  0
 11 12  2  0
 12 13  1  0
 13 14  2  0
 14 15  1  0
 15 16  2  0
 16 17  1  0
 17 18  2  0
 18 19  1  0
 19 20  2  0
 20 21  1  0
 21 22  2  0
 21 23  1  0
 23 24  1  0
 24 25  1  0
 25 26  1  0
 26 27  1  0
 27 28  1  0
 28 29  1  0
 29 30  1  0
 10 31  1  0
 31 32  2  0
 32  7  1  0
 23 13  1  0
 30 25  1  0
 20 15  1  0
  1 33  1  0
  1 34  1  0
  1 35  1  0
  3 36  1  0
  3 37  1  0
  3 38  1  0
  8 39  1  0
  9 40  1  0
 11 41  1  0
 12 42  1  0
 16 43  1  0
 17 44  1  0
 18 45  1  0
 19 46  1  0
 24 47  1  0
 24 48  1  0
 25 49  1  0
 26 50  1  0
 26 51  1  0
 27 52  1  0
 27 53  1  0
 28 54  1  0
 28 55  1  0
 29 56  1  0
 29 57  1  0
 30 58  1  0
 30 59  1  0
 31 60  1  0
 32 61  1  0
M  END
>  <smiles>  (32) 
CN(C)S(=O)(=O)c1ccc(/C=C/c2nc3ccccc3c(=O)n2CC2CCCCC2)cc1

>  <score_type>  (32) 
oracle

>  <origin>  (32) 
autodockgpu

>  <m_score__min__energy>  (32) 
-9.4499999999999993

>  <m_primary>  (32) 
energy

>  <rmsd>  (32) 
6.964249843650165

>  <m_score__min__rmsd>  (32) 
6.964249843650165

>  <meeko>  (32) 
{"free_energy": -8.65, "intermolecular_energy": -10.74, "internal_energy": -1.57, "cluster_size": 6, "cluster_id": 3, "rank_in_cluster": 2}

>  <energy>  (32) 
-8.44

>  <cluster_rmsd>  (32) 
0.28

>  <cluster>  (32) 
5

$$$$

     RDKit          3D

 61 64  0  0  0  0  0  0  0  0999 V2000
  140.2240   70.6870  227.9600 C   0  0  0  0  0  0  0  0  0  0  0  0
  139.8440   69.2960  227.8590 N   0  0  0  0  0  0  0  0  0  0  0  0
  140.7000   68.5270  228.7350 C   0  0  0  0  0  0  0  0  0  0  0  0
  140.0640   68.6880  226.2570 S   0  0  0  0  0  0  0  0  0  0  0  0
  139.2110   67.4680  226.0860 O   0  0  0  0  0  0  0  0  0  0  0  0
  141.4970   68.2260  226.1130 O   0  0  0  0  0  0  0  0  0  0  0  0
  139.6850   69.8730  225.0320 C   0  0  0  0  0  0  0  0  0  0  0  0
  138.4490   69.9570  224.4300 C   0  0  0  0  0  0  0  0  0  0  0  0
  138.1630   70.9000  223.4650 C   0  0  0  0  0  0  0  0  0  0  0  0
  139.1330   71.8240  223.0500 C   0  0  0  0  0  0  0  0  0  0  0  0
  138.8150   72.8070  222.0350 C   0  0  0  0  0  0  0  0  0  0  0  0
  139.3110   74.0300  221.9910 C   0  0  0  0  0  0  0  0  0  0  0  0
  140.6460   74.2510  221.4340 C   0  0  0  0  0  0  0  0  0  0  0  0
  141.5040   73.2170  221.3660 N   0  0  0  0  0  0  0  0  0  0  0  0
  142.7500   73.2850  220.8770 C   0  0  0  0  0  0  0  0  0  0  0  0
  143.6060   72.2020  220.8210 C   0  0  0  0  0  0  0  0  0  0  0  0
  144.8940   72.3210  220.3040 C   0  0  0  0  0  0  0  0  0  0  0  0
  145.3020   73.5520  219.8450 C   0  0  0  0  0  0  0  0  0  0  0  0
  144.4500   74.6250  219.9020 C   0  0  0  0  0  0  0  0  0  0  0  0
  143.1740   74.5130  220.4120 C   0  0  0  0  0  0  0  0  0  0  0  0
  142.3110   75.5600  220.4800 C   0  0  0  0  0  0  0  0  0  0  0  0
  142.7380   76.6830  220.0400 O   0  0  0  0  0  0  0  0  0  0  0  0
  141.0420   75.4580  220.9850 N   0  0  0  0  0  0  0  0  0  0  0  0
  140.1970   76.5750  221.0230 C   0  0  0  0  0  0  0  0  0  0  0  0
  140.5720   77.8560  221.5870 C   0  0  0  0  0  0  0  0  0  0  0  0
  141.1640   77.7050  222.9710 C   0  0  0  0  0  0  0  0  0  0  0  0
  141.4860   79.0510  223.6090 C   0  0  0  0  0  0  0  0  0  0  0  0
  140.1550   79.7340  223.8450 C   0  0  0  0  0  0  0  0  0  0  0  0
  139.5610   79.9740  222.4560 C   0  0  0  0  0  0  0  0  0  0  0  0
  139.2550   78.6180  221.8600 C   0  0  0  0  0  0  0  0  0  0  0  0
  140.3550   71.7200  223.6640 C   0  0  0  0  0  0  0  0  0  0  0  0
  140.6490   70.7770  224.6330 C   0  0  0  0  0  0  0  0  0  0  0  0
  140.3013   70.9699  229.0202 H   0  0  0  0  0  0  0  0  0  0  0  0
  141.1963   70.8381  227.4684 H   0  0  0  0  0  0  0  0  0  0  0  0
  139.4635   71.3115  227.4684 H   0  0  0  0  0  0  0  0  0  0  0  0
  140.4497   68.7519  229.7823 H   0  0  0  0  0  0  0  0  0  0  0  0
  140.5505   67.4540  228.5445 H   0  0  0  0  0  0  0  0  0  0  0  0
  141.7509   68.7903  228.5445 H   0  0  0  0  0  0  0  0  0  0  0  0
  137.6632   69.2478  224.7291 H   0  0  0  0  0  0  0  0  0  0  0  0
  137.1599   70.9278  223.0145 H   0  0  0  0  0  0  0  0  0  0  0  0
  138.1094   72.5136  221.2437 H   0  0  0  0  0  0  0  0  0  0  0  0
  138.7234   74.8786  222.3712 H   0  0  0  0  0  0  0  0  0  0  0  0
  143.2632   71.2251  221.1925 H   0  0  0  0  0  0  0  0  0  0  0  0
  145.5679   71.4525  220.2638 H   0  0  0  0  0  0  0  0  0  0  0  0
  146.3137   73.6759  219.4314 H   0  0  0  0  0  0  0  0  0  0  0  0
  144.7940   75.6016  219.5307 H   0  0  0  0  0  0  0  0  0  0  0  0
  139.9242   76.7782  219.9769 H   0  0  0  0  0  0  0  0  0  0  0  0
  139.4408   76.2405  221.7484 H   0  0  0  0  0  0  0  0  0  0  0  0
  141.2794   78.3387  220.8966 H   0  0  0  0  0  0  0  0  0  0  0  0
  140.4422   77.1741  223.6091 H   0  0  0  0  0  0  0  0  0  0  0  0
  142.1044   77.1423  222.8766 H   0  0  0  0  0  0  0  0  0  0  0  0
  142.0142   78.9047  224.5627 H   0  0  0  0  0  0  0  0  0  0  0  0
  142.1387   79.6560  222.9624 H   0  0  0  0  0  0  0  0  0  0  0  0
  139.4922   79.0877  224.4391 H   0  0  0  0  0  0  0  0  0  0  0  0
  140.2744   80.6741  224.4035 H   0  0  0  0  0  0  0  0  0  0  0  0
  138.6379   80.5666  222.5381 H   0  0  0  0  0  0  0  0  0  0  0  0
  140.2662   80.5297  221.8205 H   0  0  0  0  0  0  0  0  0  0  0  0
  138.6383   78.0404  222.5643 H   0  0  0  0  0  0  0  0  0  0  0  0
  138.7104   78.7520  220.9137 H   0  0  0  0  0  0  0  0  0  0  0  0
  141.1457   72.4258  223.3696 H   0  0  0  0  0  0  0  0  0  0  0  0
  141.6512   70.7477  225.0855 H   0  0  0  0  0  0  0  0  0  0  0  0
  1  2  1  0
  2  3  1  0
  2  4  1  0
  4  5  2  0
  4  6  2  0
  4  7  1  0
  7  8  2  0
  8  9  1  0
  9 10  2  0
 10 11  1  0
 11 12  2  0
 12 13  1  0
 13 14  2  0
 14 15  1  0
 15 16  2  0
 16 17  1  0
 17 18  2  0
 18 19  1  0
 19 20  2  0
 20 21  1  0
 21 22  2  0
 21 23  1  0
 23 24  1  0
 24 25  1  0
 25 26  1  0
 26 27  1  0
 27 28  1  0
 28 29  1  0
 29 30  1  0
 10 31  1  0
 31 32  2  0
 32  7  1  0
 23 13  1  0
 30 25  1  0
 20 15  1  0
  1 33  1  0
  1 34  1  0
  1 35  1  0
  3 36  1  0
  3 37  1  0
  3 38  1  0
  8 39  1  0
  9 40  1  0
 11 41  1  0
 12 42  1  0
 16 43  1  0
 17 44  1  0
 18 45  1  0
 19 46  1  0
 24 47  1  0
 24 48  1  0
 25 49  1  0
 26 50  1  0
 26 51  1  0
 27 52  1  0
 27 53  1  0
 28 54  1  0
 28 55  1  0
 29 56  1  0
 29 57  1  0
 30 58  1  0
 30 59  1  0
 31 60  1  0
 32 61  1  0
M  END
>  <smiles>  (33) 
CN(C)S(=O)(=O)c1ccc(/C=C/c2nc3ccccc3c(=O)n2CC2CCCCC2)cc1

>  <score_type>  (33) 
oracle

>  <origin>  (33) 
autodockgpu

>  <m_score__min__energy>  (33) 
-9.4499999999999993

>  <m_primary>  (33) 
energy

>  <rmsd>  (33) 
7.657537810967045

>  <m_score__min__rmsd>  (33) 
7.657537810967045

>  <meeko>  (33) 
{"free_energy": -9.31, "intermolecular_energy": -11.39, "internal_energy": -1.51, "cluster_size": 8, "cluster_id": 2, "rank_in_cluster": 2}

>  <energy>  (33) 
-8.21

>  <cluster_rmsd>  (33) 
1.23

>  <cluster>  (33) 
5

$$$$

     RDKit          3D

 61 64  0  0  0  0  0  0  0  0999 V2000
  131.2770   72.7390  227.3280 C   0  0  0  0  0  0  0  0  0  0  0  0
  132.0060   72.1260  226.2400 N   0  0  0  0  0  0  0  0  0  0  0  0
  131.6130   70.7370  226.1570 C   0  0  0  0  0  0  0  0  0  0  0  0
  133.7110   72.1670  226.5100 S   0  0  0  0  0  0  0  0  0  0  0  0
  133.9800   71.8100  227.9400 O   0  0  0  0  0  0  0  0  0  0  0  0
  134.1900   73.5900  226.3330 O   0  0  0  0  0  0  0  0  0  0  0  0
  134.5860   71.0990  225.4400 C   0  0  0  0  0  0  0  0  0  0  0  0
  134.7630   69.7580  225.7030 C   0  0  0  0  0  0  0  0  0  0  0  0
  135.4550   68.9250  224.8480 C   0  0  0  0  0  0  0  0  0  0  0  0
  136.0140   69.4160  223.6600 C   0  0  0  0  0  0  0  0  0  0  0  0
  136.7370   68.5270  222.7740 C   0  0  0  0  0  0  0  0  0  0  0  0
  138.0490   68.3800  222.7640 C   0  0  0  0  0  0  0  0  0  0  0  0
  138.8440   68.8840  223.8830 C   0  0  0  0  0  0  0  0  0  0  0  0
  138.8800   68.1790  225.0280 N   0  0  0  0  0  0  0  0  0  0  0  0
  139.5700   68.5270  226.1230 C   0  0  0  0  0  0  0  0  0  0  0  0
  139.5850   67.7790  227.2840 C   0  0  0  0  0  0  0  0  0  0  0  0
  140.3180   68.1820  228.3980 C   0  0  0  0  0  0  0  0  0  0  0  0
  141.0340   69.3530  228.3190 C   0  0  0  0  0  0  0  0  0  0  0  0
  141.0170   70.0950  227.1660 C   0  0  0  0  0  0  0  0  0  0  0  0
  140.2940   69.7000  226.0600 C   0  0  0  0  0  0  0  0  0  0  0  0
  140.2600   70.4170  224.9060 C   0  0  0  0  0  0  0  0  0  0  0  0
  140.9420   71.4980  224.8830 O   0  0  0  0  0  0  0  0  0  0  0  0
  139.5450   70.0330  223.8030 N   0  0  0  0  0  0  0  0  0  0  0  0
  139.5540   70.8120  222.6390 C   0  0  0  0  0  0  0  0  0  0  0  0
  139.4320   72.2570  222.6300 C   0  0  0  0  0  0  0  0  0  0  0  0
  138.1600   72.7060  221.9480 C   0  0  0  0  0  0  0  0  0  0  0  0
  138.0600   74.2240  221.8580 C   0  0  0  0  0  0  0  0  0  0  0  0
  139.1620   74.6630  220.9180 C   0  0  0  0  0  0  0  0  0  0  0  0
  140.4730   74.2930  221.6150 C   0  0  0  0  0  0  0  0  0  0  0  0
  140.5340   72.7840  221.6820 C   0  0  0  0  0  0  0  0  0  0  0  0
  135.8230   70.7530  223.4200 C   0  0  0  0  0  0  0  0  0  0  0  0
  135.1310   71.5950  224.2740 C   0  0  0  0  0  0  0  0  0  0  0  0
  131.6894   72.3922  228.2870 H   0  0  0  0  0  0  0  0  0  0  0  0
  131.3715   73.8330  227.2623 H   0  0  0  0  0  0  0  0  0  0  0  0
  130.2155   72.4581  227.2623 H   0  0  0  0  0  0  0  0  0  0  0  0
  131.4971   70.3275  227.1713 H   0  0  0  0  0  0  0  0  0  0  0  0
  130.6572   70.6579  225.6183 H   0  0  0  0  0  0  0  0  0  0  0  0
  132.3857   70.1689  225.6183 H   0  0  0  0  0  0  0  0  0  0  0  0
  134.3380   69.3372  226.6262 H   0  0  0  0  0  0  0  0  0  0  0  0
  135.5696   67.8609  225.1021 H   0  0  0  0  0  0  0  0  0  0  0  0
  136.1510   67.9318  222.0583 H   0  0  0  0  0  0  0  0  0  0  0  0
  138.5422   67.8803  221.9172 H   0  0  0  0  0  0  0  0  0  0  0  0
  139.0057   66.8450  227.3300 H   0  0  0  0  0  0  0  0  0  0  0  0
  140.3238   67.5785  229.3176 H   0  0  0  0  0  0  0  0  0  0  0  0
  141.6221   69.6956  229.1831 H   0  0  0  0  0  0  0  0  0  0  0  0
  141.5952   71.0298  227.1221 H   0  0  0  0  0  0  0  0  0  0  0  0
  140.5083   70.5901  222.1390 H   0  0  0  0  0  0  0  0  0  0  0  0
  138.5970   70.5182  222.1830 H   0  0  0  0  0  0  0  0  0  0  0  0
  139.4760   72.6098  223.6710 H   0  0  0  0  0  0  0  0  0  0  0  0
  138.1372   72.2886  220.9305 H   0  0  0  0  0  0  0  0  0  0  0  0
  137.3105   72.3466  222.5473 H   0  0  0  0  0  0  0  0  0  0  0  0
  137.0782   74.5188  221.4591 H   0  0  0  0  0  0  0  0  0  0  0  0
  138.1658   74.6928  222.8475 H   0  0  0  0  0  0  0  0  0  0  0  0
  139.0775   74.1368  219.9557 H   0  0  0  0  0  0  0  0  0  0  0  0
  139.1067   75.7403  220.7028 H   0  0  0  0  0  0  0  0  0  0  0  0
  141.3275   74.6794  221.0401 H   0  0  0  0  0  0  0  0  0  0  0  0
  140.5158   74.7304  222.6234 H   0  0  0  0  0  0  0  0  0  0  0  0
  140.3801   72.3672  220.6757 H   0  0  0  0  0  0  0  0  0  0  0  0
  141.5189   72.4768  222.0636 H   0  0  0  0  0  0  0  0  0  0  0  0
  136.2431   71.1801  222.4975 H   0  0  0  0  0  0  0  0  0  0  0  0
  135.0158   72.6597  224.0226 H   0  0  0  0  0  0  0  0  0  0  0  0
  1  2  1  0
  2  3  1  0
  2  4  1  0
  4  5  2  0
  4  6  2  0
  4  7  1  0
  7  8  2  0
  8  9  1  0
  9 10  2  0
 10 11  1  0
 11 12  2  0
 12 13  1  0
 13 14  2  0
 14 15  1  0
 15 16  2  0
 16 17  1  0
 17 18  2  0
 18 19  1  0
 19 20  2  0
 20 21  1  0
 21 22  2  0
 21 23  1  0
 23 24  1  0
 24 25  1  0
 25 26  1  0
 26 27  1  0
 27 28  1  0
 28 29  1  0
 29 30  1  0
 10 31  1  0
 31 32  2  0
 32  7  1  0
 23 13  1  0
 30 25  1  0
 20 15  1  0
  1 33  1  0
  1 34  1  0
  1 35  1  0
  3 36  1  0
  3 37  1  0
  3 38  1  0
  8 39  1  0
  9 40  1  0
 11 41  1  0
 12 42  1  0
 16 43  1  0
 17 44  1  0
 18 45  1  0
 19 46  1  0
 24 47  1  0
 24 48  1  0
 25 49  1  0
 26 50  1  0
 26 51  1  0
 27 52  1  0
 27 53  1  0
 28 54  1  0
 28 55  1  0
 29 56  1  0
 29 57  1  0
 30 58  1  0
 30 59  1  0
 31 60  1  0
 32 61  1  0
M  END
>  <smiles>  (34) 
CN(C)S(=O)(=O)c1ccc(/C=C/c2nc3ccccc3c(=O)n2CC2CCCCC2)cc1

>  <score_type>  (34) 
oracle

>  <origin>  (34) 
autodockgpu

>  <m_score__min__energy>  (34) 
-9.4499999999999993

>  <m_primary>  (34) 
energy

>  <rmsd>  (34) 
10.503707530477865

>  <m_score__min__rmsd>  (34) 
10.503707530477865

>  <meeko>  (34) 
{"free_energy": -8.13, "intermolecular_energy": -10.22, "internal_energy": -2.13, "cluster_size": 11, "cluster_id": 4, "rank_in_cluster": 6}

>  <energy>  (34) 
-8.06

>  <cluster_rmsd>  (34) 
1.72

>  <cluster>  (34) 
5

$$$$

     RDKit          3D

 61 64  0  0  0  0  0  0  0  0999 V2000
  139.6880   70.2140  228.0990 C   0  0  0  0  0  0  0  0  0  0  0  0
  139.9020   68.7840  228.0730 N   0  0  0  0  0  0  0  0  0  0  0  0
  141.1640   68.5030  228.7220 C   0  0  0  0  0  0  0  0  0  0  0  0
  140.0040   68.1820  226.4580 S   0  0  0  0  0  0  0  0  0  0  0  0
  138.8160   67.3080  226.1950 O   0  0  0  0  0  0  0  0  0  0  0  0
  141.2190   67.2850  226.3580 O   0  0  0  0  0  0  0  0  0  0  0  0
  140.0980   69.4580  225.2700 C   0  0  0  0  0  0  0  0  0  0  0  0
  141.0010   70.4950  225.3560 C   0  0  0  0  0  0  0  0  0  0  0  0
  141.0650   71.4960  224.4090 C   0  0  0  0  0  0  0  0  0  0  0  0
  140.2010   71.5000  223.3050 C   0  0  0  0  0  0  0  0  0  0  0  0
  140.2820   72.5600  222.3210 C   0  0  0  0  0  0  0  0  0  0  0  0
  139.2410   73.1680  221.7830 C   0  0  0  0  0  0  0  0  0  0  0  0
  138.9840   74.5750  222.0900 C   0  0  0  0  0  0  0  0  0  0  0  0
  140.0180   75.4350  222.1190 N   0  0  0  0  0  0  0  0  0  0  0  0
  139.9190   76.7460  222.3830 C   0  0  0  0  0  0  0  0  0  0  0  0
  141.0020   77.6030  222.4050 C   0  0  0  0  0  0  0  0  0  0  0  0
  140.8490   78.9580  222.6840 C   0  0  0  0  0  0  0  0  0  0  0  0
  139.5840   79.4340  222.9420 C   0  0  0  0  0  0  0  0  0  0  0  0
  138.5110   78.5810  222.9210 C   0  0  0  0  0  0  0  0  0  0  0  0
  138.6560   77.2380  222.6440 C   0  0  0  0  0  0  0  0  0  0  0  0
  137.6090   76.3720  222.6170 C   0  0  0  0  0  0  0  0  0  0  0  0
  136.4540   76.8630  222.8630 O   0  0  0  0  0  0  0  0  0  0  0  0
  137.7430   75.0370  222.3420 N   0  0  0  0  0  0  0  0  0  0  0  0
  136.6240   74.1960  222.3240 C   0  0  0  0  0  0  0  0  0  0  0  0
  136.1970   73.3910  223.4510 C   0  0  0  0  0  0  0  0  0  0  0  0
  135.8420   71.9820  223.0290 C   0  0  0  0  0  0  0  0  0  0  0  0
  135.3120   71.1500  224.1900 C   0  0  0  0  0  0  0  0  0  0  0  0
  133.9850   71.7680  224.5800 C   0  0  0  0  0  0  0  0  0  0  0  0
  134.3170   73.1720  225.0880 C   0  0  0  0  0  0  0  0  0  0  0  0
  134.8360   73.9640  223.9090 C   0  0  0  0  0  0  0  0  0  0  0  0
  139.3120   70.4580  223.2420 C   0  0  0  0  0  0  0  0  0  0  0  0
  139.2410   69.4510  224.1880 C   0  0  0  0  0  0  0  0  0  0  0  0
  139.6365   70.5581  229.1425 H   0  0  0  0  0  0  0  0  0  0  0  0
  140.5206   70.7187  227.5871 H   0  0  0  0  0  0  0  0  0  0  0  0
  138.7441   70.4529  227.5871 H   0  0  0  0  0  0  0  0  0  0  0  0
  141.0297   68.5329  229.8134 H   0  0  0  0  0  0  0  0  0  0  0  0
  141.5157   67.5045  228.4231 H   0  0  0  0  0  0  0  0  0  0  0  0
  141.9061   69.2579  228.4231 H   0  0  0  0  0  0  0  0  0  0  0  0
  141.6947   70.5258  226.2091 H   0  0  0  0  0  0  0  0  0  0  0  0
  141.8045   72.3025  224.5217 H   0  0  0  0  0  0  0  0  0  0  0  0
  141.2834   72.8816  221.9988 H   0  0  0  0  0  0  0  0  0  0  0  0
  138.5695   72.6188  221.1066 H   0  0  0  0  0  0  0  0  0  0  0  0
  142.0068   77.2062  222.1976 H   0  0  0  0  0  0  0  0  0  0  0  0
  141.7182   79.6320  222.6979 H   0  0  0  0  0  0  0  0  0  0  0  0
  139.4335   80.5005  223.1654 H   0  0  0  0  0  0  0  0  0  0  0  0
  137.5071   78.9787  223.1308 H   0  0  0  0  0  0  0  0  0  0  0  0
  135.7688   74.8428  222.0786 H   0  0  0  0  0  0  0  0  0  0  0  0
  136.9600   73.4158  221.6251 H   0  0  0  0  0  0  0  0  0  0  0  0
  137.0038   73.3961  224.1987 H   0  0  0  0  0  0  0  0  0  0  0  0
  135.0704   72.0303  222.2465 H   0  0  0  0  0  0  0  0  0  0  0  0
  136.7583   71.4994  222.6583 H   0  0  0  0  0  0  0  0  0  0  0  0
  135.1690   70.1053  223.8767 H   0  0  0  0  0  0  0  0  0  0  0  0
  136.0164   71.1454  225.0349 H   0  0  0  0  0  0  0  0  0  0  0  0
  133.3165   71.8235  223.7082 H   0  0  0  0  0  0  0  0  0  0  0  0
  133.4677   71.1706  225.3452 H   0  0  0  0  0  0  0  0  0  0  0  0
  133.4129   73.6493  225.4938 H   0  0  0  0  0  0  0  0  0  0  0  0
  135.0684   73.1290  225.8902 H   0  0  0  0  0  0  0  0  0  0  0  0
  134.1154   73.8998  223.0804 H   0  0  0  0  0  0  0  0  0  0  0  0
  134.9662   75.0149  224.2067 H   0  0  0  0  0  0  0  0  0  0  0  0
  138.6158   70.4206  222.3911 H   0  0  0  0  0  0  0  0  0  0  0  0
  138.5012   68.6444  224.0778 H   0  0  0  0  0  0  0  0  0  0  0  0
  1  2  1  0
  2  3  1  0
  2  4  1  0
  4  5  2  0
  4  6  2  0
  4  7  1  0
  7  8  2  0
  8  9  1  0
  9 10  2  0
 10 11  1  0
 11 12  2  0
 12 13  1  0
 13 14  2  0
 14 15  1  0
 15 16  2  0
 16 17  1  0
 17 18  2  0
 18 19  1  0
 19 20  2  0
 20 21  1  0
 21 22  2  0
 21 23  1  0
 23 24  1  0
 24 25  1  0
 25 26  1  0
 26 27  1  0
 27 28  1  0
 28 29  1  0
 29 30  1  0
 10 31  1  0
 31 32  2  0
 32  7  1  0
 23 13  1  0
 30 25  1  0
 20 15  1  0
  1 33  1  0
  1 34  1  0
  1 35  1  0
  3 36  1  0
  3 37  1  0
  3 38  1  0
  8 39  1  0
  9 40  1  0
 11 41  1  0
 12 42  1  0
 16 43  1  0
 17 44  1  0
 18 45  1  0
 19 46  1  0
 24 47  1  0
 24 48  1  0
 25 49  1  0
 26 50  1  0
 26 51  1  0
 27 52  1  0
 27 53  1  0
 28 54  1  0
 28 55  1  0
 29 56  1  0
 29 57  1  0
 30 58  1  0
 30 59  1  0
 31 60  1  0
 32 61  1  0
M  END
>  <smiles>  (35) 
CN(C)S(=O)(=O)c1ccc(/C=C/c2nc3ccccc3c(=O)n2CC2CCCCC2)cc1

>  <score_type>  (35) 
oracle

>  <origin>  (35) 
autodockgpu

>  <m_score__min__energy>  (35) 
-9.4499999999999993

>  <m_primary>  (35) 
energy

>  <rmsd>  (35) 
6.909609402346026

>  <m_score__min__rmsd>  (35) 
6.909609402346026

>  <meeko>  (35) 
{"free_energy": -8.18, "intermolecular_energy": -10.27, "internal_energy": -1.75, "cluster_size": 6, "cluster_id": 3, "rank_in_cluster": 3}

>  <energy>  (35) 
-7.97

>  <cluster_rmsd>  (35) 
1.3

>  <cluster>  (35) 
5

$$$$

     RDKit          3D

 61 64  0  0  0  0  0  0  0  0999 V2000
  144.1900   66.7990  218.5260 C   0  0  0  0  0  0  0  0  0  0  0  0
  144.5820   68.0330  217.8800 N   0  0  0  0  0  0  0  0  0  0  0  0
  145.6920   67.7500  216.9980 C   0  0  0  0  0  0  0  0  0  0  0  0
  145.1160   69.2110  219.0240 S   0  0  0  0  0  0  0  0  0  0  0  0
  146.0370   70.1690  218.3310 O   0  0  0  0  0  0  0  0  0  0  0  0
  145.9470   68.5130  220.0780 O   0  0  0  0  0  0  0  0  0  0  0  0
  143.7920   70.0700  219.7700 C   0  0  0  0  0  0  0  0  0  0  0  0
  142.4880   69.6280  219.7160 C   0  0  0  0  0  0  0  0  0  0  0  0
  141.4520   70.3150  220.3130 C   0  0  0  0  0  0  0  0  0  0  0  0
  141.6860   71.5110  221.0070 C   0  0  0  0  0  0  0  0  0  0  0  0
  140.5850   72.2200  221.6270 C   0  0  0  0  0  0  0  0  0  0  0  0
  139.5360   71.6410  222.1810 C   0  0  0  0  0  0  0  0  0  0  0  0
  139.6860   70.9300  223.4510 C   0  0  0  0  0  0  0  0  0  0  0  0
  140.1760   71.5910  224.5140 N   0  0  0  0  0  0  0  0  0  0  0  0
  140.3600   71.0590  225.7310 C   0  0  0  0  0  0  0  0  0  0  0  0
  140.8670   71.7660  226.8030 C   0  0  0  0  0  0  0  0  0  0  0  0
  141.0400   71.1700  228.0500 C   0  0  0  0  0  0  0  0  0  0  0  0
  140.6930   69.8470  228.1940 C   0  0  0  0  0  0  0  0  0  0  0  0
  140.1910   69.1460  227.1280 C   0  0  0  0  0  0  0  0  0  0  0  0
  140.0160   69.7320  225.8920 C   0  0  0  0  0  0  0  0  0  0  0  0
  139.5210   69.0600  224.8200 C   0  0  0  0  0  0  0  0  0  0  0  0
  139.2130   67.8330  225.0060 O   0  0  0  0  0  0  0  0  0  0  0  0
  139.3440   69.6340  223.5890 N   0  0  0  0  0  0  0  0  0  0  0  0
  138.8240   68.8890  222.5230 C   0  0  0  0  0  0  0  0  0  0  0  0
  137.4260   68.8920  222.1380 C   0  0  0  0  0  0  0  0  0  0  0  0
  136.5330   69.3230  223.2800 C   0  0  0  0  0  0  0  0  0  0  0  0
  135.0560   69.2500  222.9150 C   0  0  0  0  0  0  0  0  0  0  0  0
  134.7400   67.7810  222.7290 C   0  0  0  0  0  0  0  0  0  0  0  0
  135.5710   67.3290  221.5260 C   0  0  0  0  0  0  0  0  0  0  0  0
  137.0250   67.4130  221.9300 C   0  0  0  0  0  0  0  0  0  0  0  0
  142.9910   71.9300  221.0470 C   0  0  0  0  0  0  0  0  0  0  0  0
  144.0360   71.2460  220.4510 C   0  0  0  0  0  0  0  0  0  0  0  0
  144.2308   66.9276  219.6177 H   0  0  0  0  0  0  0  0  0  0  0  0
  143.1646   66.5376  218.2257 H   0  0  0  0  0  0  0  0  0  0  0  0
  144.8766   65.9937  218.2257 H   0  0  0  0  0  0  0  0  0  0  0  0
  146.5866   67.5219  217.5960 H   0  0  0  0  0  0  0  0  0  0  0  0
  145.4451   66.8861  216.3634 H   0  0  0  0  0  0  0  0  0  0  0  0
  145.8889   68.6267  216.3634 H   0  0  0  0  0  0  0  0  0  0  0  0
  142.2657   68.6947  219.1780 H   0  0  0  0  0  0  0  0  0  0  0  0
  140.4279   69.9194  220.2439 H   0  0  0  0  0  0  0  0  0  0  0  0
  140.6262   73.3192  221.6368 H   0  0  0  0  0  0  0  0  0  0  0  0
  138.5531   71.6928  221.6899 H   0  0  0  0  0  0  0  0  0  0  0  0
  141.1403   72.8231  226.6694 H   0  0  0  0  0  0  0  0  0  0  0  0
  141.4438   71.7428  228.8979 H   0  0  0  0  0  0  0  0  0  0  0  0
  140.8186   69.3499  229.1672 H   0  0  0  0  0  0  0  0  0  0  0  0
  139.9207   68.0882  227.2622 H   0  0  0  0  0  0  0  0  0  0  0  0
  139.3795   69.2159  221.6316 H   0  0  0  0  0  0  0  0  0  0  0  0
  138.9322   67.8653  222.9106 H   0  0  0  0  0  0  0  0  0  0  0  0
  137.3136   69.5541  221.2668 H   0  0  0  0  0  0  0  0  0  0  0  0
  136.7178   68.6650  224.1419 H   0  0  0  0  0  0  0  0  0  0  0  0
  136.7706   70.3704  223.5176 H   0  0  0  0  0  0  0  0  0  0  0  0
  134.4418   69.6729  223.7236 H   0  0  0  0  0  0  0  0  0  0  0  0
  134.8391   69.8257  222.0031 H   0  0  0  0  0  0  0  0  0  0  0  0
  135.0225   67.2111  223.6264 H   0  0  0  0  0  0  0  0  0  0  0  0
  133.6650   67.6139  222.5663 H   0  0  0  0  0  0  0  0  0  0  0  0
  135.3136   66.2937  221.2578 H   0  0  0  0  0  0  0  0  0  0  0  0
  135.3712   67.9663  220.6519 H   0  0  0  0  0  0  0  0  0  0  0  0
  137.1761   66.8583  222.8678 H   0  0  0  0  0  0  0  0  0  0  0  0
  137.6485   66.9757  221.1362 H   0  0  0  0  0  0  0  0  0  0  0  0
  143.2202   72.8627  221.5832 H   0  0  0  0  0  0  0  0  0  0  0  0
  145.0610   71.6392  220.5198 H   0  0  0  0  0  0  0  0  0  0  0  0
  1  2  1  0
  2  3  1  0
  2  4  1  0
  4  5  2  0
  4  6  2  0
  4  7  1  0
  7  8  2  0
  8  9  1  0
  9 10  2  0
 10 11  1  0
 11 12  2  0
 12 13  1  0
 13 14  2  0
 14 15  1  0
 15 16  2  0
 16 17  1  0
 17 18  2  0
 18 19  1  0
 19 20  2  0
 20 21  1  0
 21 22  2  0
 21 23  1  0
 23 24  1  0
 24 25  1  0
 25 26  1  0
 26 27  1  0
 27 28  1  0
 28 29  1  0
 29 30  1  0
 10 31  1  0
 31 32  2  0
 32  7  1  0
 23 13  1  0
 30 25  1  0
 20 15  1  0
  1 33  1  0
  1 34  1  0
  1 35  1  0
  3 36  1  0
  3 37  1  0
  3 38  1  0
  8 39  1  0
  9 40  1  0
 11 41  1  0
 12 42  1  0
 16 43  1  0
 17 44  1  0
 18 45  1  0
 19 46  1  0
 24 47  1  0
 24 48  1  0
 25 49  1  0
 26 50  1  0
 26 51  1  0
 27 52  1  0
 27 53  1  0
 28 54  1  0
 28 55  1  0
 29 56  1  0
 29 57  1  0
 30 58  1  0
 30 59  1  0
 31 60  1  0
 32 61  1  0
M  END
>  <smiles>  (36) 
CN(C)S(=O)(=O)c1ccc(/C=C/c2nc3ccccc3c(=O)n2CC2CCCCC2)cc1

>  <score_type>  (36) 
oracle

>  <origin>  (36) 
autodockgpu

>  <m_score__min__energy>  (36) 
-9.4499999999999993

>  <m_primary>  (36) 
energy

>  <rmsd>  (36) 
11.452052496680293

>  <m_score__min__rmsd>  (36) 
11.452052496680293

>  <meeko>  (36) 
{"free_energy": -8.06, "intermolecular_energy": -10.15, "internal_energy": -1.73, "cluster_size": 6, "cluster_id": 5, "rank_in_cluster": 4}

>  <energy>  (36) 
-7.46

>  <cluster_rmsd>  (36) 
1.53

>  <cluster>  (36) 
5

$$$$

     RDKit          3D

 61 64  0  0  0  0  0  0  0  0999 V2000
  130.8280   74.6210  225.4870 C   0  0  0  0  0  0  0  0  0  0  0  0
  131.5700   73.4170  225.7890 N   0  0  0  0  0  0  0  0  0  0  0  0
  130.8240   72.6560  226.7660 C   0  0  0  0  0  0  0  0  0  0  0  0
  133.1130   73.7730  226.4780 S   0  0  0  0  0  0  0  0  0  0  0  0
  133.5910   72.5700  227.2330 O   0  0  0  0  0  0  0  0  0  0  0  0
  132.9370   74.8720  227.5020 O   0  0  0  0  0  0  0  0  0  0  0  0
  134.2900   74.2480  225.2790 C   0  0  0  0  0  0  0  0  0  0  0  0
  134.7360   75.5450  225.1420 C   0  0  0  0  0  0  0  0  0  0  0  0
  135.6680   75.9060  224.1920 C   0  0  0  0  0  0  0  0  0  0  0  0
  136.2070   74.9560  223.3130 C   0  0  0  0  0  0  0  0  0  0  0  0
  137.1850   75.3530  222.3210 C   0  0  0  0  0  0  0  0  0  0  0  0
  138.2640   76.0700  222.5750 C   0  0  0  0  0  0  0  0  0  0  0  0
  139.5330   75.7210  221.9360 C   0  0  0  0  0  0  0  0  0  0  0  0
  139.9490   74.4430  221.9650 N   0  0  0  0  0  0  0  0  0  0  0  0
  141.0860   73.9920  221.4170 C   0  0  0  0  0  0  0  0  0  0  0  0
  141.4840   72.6700  221.4660 C   0  0  0  0  0  0  0  0  0  0  0  0
  142.6750   72.2490  220.8810 C   0  0  0  0  0  0  0  0  0  0  0  0
  143.4590   73.1850  220.2470 C   0  0  0  0  0  0  0  0  0  0  0  0
  143.0620   74.4960  220.2010 C   0  0  0  0  0  0  0  0  0  0  0  0
  141.8820   74.9190  220.7770 C   0  0  0  0  0  0  0  0  0  0  0  0
  141.4670   76.2130  220.7450 C   0  0  0  0  0  0  0  0  0  0  0  0
  142.2300   77.0440  220.1440 O   0  0  0  0  0  0  0  0  0  0  0  0
  140.2980   76.6410  221.3150 N   0  0  0  0  0  0  0  0  0  0  0  0
  139.9210   77.9890  221.2440 C   0  0  0  0  0  0  0  0  0  0  0  0
  140.4540   79.0250  222.1050 C   0  0  0  0  0  0  0  0  0  0  0  0
  141.5000   79.8580  221.3960 C   0  0  0  0  0  0  0  0  0  0  0  0
  142.1280   80.8980  222.3150 C   0  0  0  0  0  0  0  0  0  0  0  0
  142.9110   80.1230  223.3540 C   0  0  0  0  0  0  0  0  0  0  0  0
  141.8720   79.3260  224.1460 C   0  0  0  0  0  0  0  0  0  0  0  0
  141.2750   78.3070  223.2010 C   0  0  0  0  0  0  0  0  0  0  0  0
  135.7480   73.6720  223.4700 C   0  0  0  0  0  0  0  0  0  0  0  0
  134.8130   73.3030  224.4210 C   0  0  0  0  0  0  0  0  0  0  0  0
  130.5262   75.1106  226.4247 H   0  0  0  0  0  0  0  0  0  0  0  0
  131.4613   75.3053  224.9033 H   0  0  0  0  0  0  0  0  0  0  0  0
  129.9321   74.3629  224.9033 H   0  0  0  0  0  0  0  0  0  0  0  0
  131.1254   72.9635  227.7782 H   0  0  0  0  0  0  0  0  0  0  0  0
  129.7481   72.8415  226.6316 H   0  0  0  0  0  0  0  0  0  0  0  0
  131.0309   71.5840  226.6316 H   0  0  0  0  0  0  0  0  0  0  0  0
  134.3348   76.3185  225.8134 H   0  0  0  0  0  0  0  0  0  0  0  0
  135.9933   76.9545  224.1228 H   0  0  0  0  0  0  0  0  0  0  0  0
  137.0166   75.0343  221.2817 H   0  0  0  0  0  0  0  0  0  0  0  0
  138.2092   76.9258  223.2639 H   0  0  0  0  0  0  0  0  0  0  0  0
  140.8463   71.9344  221.9781 H   0  0  0  0  0  0  0  0  0  0  0  0
  142.9818   71.1936  220.9246 H   0  0  0  0  0  0  0  0  0  0  0  0
  144.4056   72.8808  219.7764 H   0  0  0  0  0  0  0  0  0  0  0  0
  143.7018   75.2311  219.6908 H   0  0  0  0  0  0  0  0  0  0  0  0
  140.1487   78.3087  220.2164 H   0  0  0  0  0  0  0  0  0  0  0  0
  138.8817   77.9348  221.6002 H   0  0  0  0  0  0  0  0  0  0  0  0
  139.6138   79.6438  222.4531 H   0  0  0  0  0  0  0  0  0  0  0  0
  142.2912   79.1908  221.0233 H   0  0  0  0  0  0  0  0  0  0  0  0
  141.0046   80.3915  220.5714 H   0  0  0  0  0  0  0  0  0  0  0  0
  142.7992   81.5563  221.7440 H   0  0  0  0  0  0  0  0  0  0  0  0
  141.3629   81.5358  222.7819 H   0  0  0  0  0  0  0  0  0  0  0  0
  143.6261   79.4435  222.8673 H   0  0  0  0  0  0  0  0  0  0  0  0
  143.4931   80.7913  224.0056 H   0  0  0  0  0  0  0  0  0  0  0  0
  142.3536   78.8170  224.9939 H   0  0  0  0  0  0  0  0  0  0  0  0
  141.0925   79.9906  224.5470 H   0  0  0  0  0  0  0  0  0  0  0  0
  142.0833   77.7277  222.7309 H   0  0  0  0  0  0  0  0  0  0  0  0
  140.6145   77.6323  223.7654 H   0  0  0  0  0  0  0  0  0  0  0  0
  136.1455   72.8930  222.8028 H   0  0  0  0  0  0  0  0  0  0  0  0
  134.4865   72.2550  224.4929 H   0  0  0  0  0  0  0  0  0  0  0  0
  1  2  1  0
  2  3  1  0
  2  4  1  0
  4  5  2  0
  4  6  2  0
  4  7  1  0
  7  8  2  0
  8  9  1  0
  9 10  2  0
 10 11  1  0
 11 12  2  0
 12 13  1  0
 13 14  2  0
 14 15  1  0
 15 16  2  0
 16 17  1  0
 17 18  2  0
 18 19  1  0
 19 20  2  0
 20 21  1  0
 21 22  2  0
 21 23  1  0
 23 24  1  0
 24 25  1  0
 25 26  1  0
 26 27  1  0
 27 28  1  0
 28 29  1  0
 29 30  1  0
 10 31  1  0
 31 32  2  0
 32  7  1  0
 23 13  1  0
 30 25  1  0
 20 15  1  0
  1 33  1  0
  1 34  1  0
  1 35  1  0
  3 36  1  0
  3 37  1  0
  3 38  1  0
  8 39  1  0
  9 40  1  0
 11 41  1  0
 12 42  1  0
 16 43  1  0
 17 44  1  0
 18 45  1  0
 19 46  1  0
 24 47  1  0
 24 48  1  0
 25 49  1  0
 26 50  1  0
 26 51  1  0
 27 52  1  0
 27 53  1  0
 28 54  1  0
 28 55  1  0
 29 56  1  0
 29 57  1  0
 30 58  1  0
 30 59  1  0
 31 60  1  0
 32 61  1  0
M  END
>  <smiles>  (37) 
CN(C)S(=O)(=O)c1ccc(/C=C/c2nc3ccccc3c(=O)n2CC2CCCCC2)cc1

>  <score_type>  (37) 
oracle

>  <origin>  (37) 
autodockgpu

>  <m_score__min__energy>  (37) 
-9.4499999999999993

>  <m_primary>  (37) 
energy

>  <rmsd>  (37) 
7.278248387154946

>  <m_score__min__rmsd>  (37) 
7.278248387154946

>  <meeko>  (37) 
{"free_energy": -8.46, "intermolecular_energy": -10.55, "internal_energy": -1.46, "cluster_size": 1, "cluster_id": 6, "rank_in_cluster": 1}

>  <energy>  (37) 
-8.46

>  <cluster_rmsd>  (37) 
0.0

>  <cluster>  (37) 
6

$$$$

     RDKit          3D

 61 64  0  0  0  0  0  0  0  0999 V2000
  144.8280   73.7640  217.2240 C   0  0  0  0  0  0  0  0  0  0  0  0
  145.5780   72.5980  217.6320 N   0  0  0  0  0  0  0  0  0  0  0  0
  144.8770   71.4210  217.1680 C   0  0  0  0  0  0  0  0  0  0  0  0
  145.6980   72.4840  219.3510 S   0  0  0  0  0  0  0  0  0  0  0  0
  146.5890   73.5830  219.8440 O   0  0  0  0  0  0  0  0  0  0  0  0
  146.3950   71.1870  219.6980 O   0  0  0  0  0  0  0  0  0  0  0  0
  144.1410   72.5610  220.1390 C   0  0  0  0  0  0  0  0  0  0  0  0
  143.4920   71.4460  220.6220 C   0  0  0  0  0  0  0  0  0  0  0  0
  142.2630   71.5220  221.2440 C   0  0  0  0  0  0  0  0  0  0  0  0
  141.6150   72.7540  221.4120 C   0  0  0  0  0  0  0  0  0  0  0  0
  140.3250   72.8150  222.0670 C   0  0  0  0  0  0  0  0  0  0  0  0
  139.5510   71.7710  222.3000 C   0  0  0  0  0  0  0  0  0  0  0  0
  139.7030   71.0180  223.5460 C   0  0  0  0  0  0  0  0  0  0  0  0
  140.2170   71.6380  224.6230 N   0  0  0  0  0  0  0  0  0  0  0  0
  140.4050   71.0650  225.8210 C   0  0  0  0  0  0  0  0  0  0  0  0
  140.9370   71.7310  226.9080 C   0  0  0  0  0  0  0  0  0  0  0  0
  141.1140   71.0930  228.1330 C   0  0  0  0  0  0  0  0  0  0  0  0
  140.7460   69.7720  228.2420 C   0  0  0  0  0  0  0  0  0  0  0  0
  140.2190   69.1140  227.1610 C   0  0  0  0  0  0  0  0  0  0  0  0
  140.0410   69.7400  225.9450 C   0  0  0  0  0  0  0  0  0  0  0  0
  139.5210   69.1100  224.8590 C   0  0  0  0  0  0  0  0  0  0  0  0
  139.1940   67.8830  225.0110 O   0  0  0  0  0  0  0  0  0  0  0  0
  139.3400   69.7240  223.6480 N   0  0  0  0  0  0  0  0  0  0  0  0
  138.7950   69.0220  222.5660 C   0  0  0  0  0  0  0  0  0  0  0  0
  137.3840   69.0150  222.2330 C   0  0  0  0  0  0  0  0  0  0  0  0
  136.5260   69.3660  223.4280 C   0  0  0  0  0  0  0  0  0  0  0  0
  135.0380   69.2810  223.1120 C   0  0  0  0  0  0  0  0  0  0  0  0
  134.7440   67.8180  222.8580 C   0  0  0  0  0  0  0  0  0  0  0  0
  135.5380   67.4480  221.6040 C   0  0  0  0  0  0  0  0  0  0  0  0
  137.0050   67.5420  221.9590 C   0  0  0  0  0  0  0  0  0  0  0  0
  142.2820   73.8490  220.9240 C   0  0  0  0  0  0  0  0  0  0  0  0
  143.5140   73.7800  220.2980 C   0  0  0  0  0  0  0  0  0  0  0  0
  144.4793   74.3061  218.1154 H   0  0  0  0  0  0  0  0  0  0  0  0
  145.4723   74.4226  216.6230 H   0  0  0  0  0  0  0  0  0  0  0  0
  143.9615   73.4508  216.6230 H   0  0  0  0  0  0  0  0  0  0  0  0
  144.5290   70.8368  218.0327 H   0  0  0  0  0  0  0  0  0  0  0  0
  144.0128   71.7251  216.5592 H   0  0  0  0  0  0  0  0  0  0  0  0
  145.5561   70.8060  216.5592 H   0  0  0  0  0  0  0  0  0  0  0  0
  143.9699   70.4618  220.5078 H   0  0  0  0  0  0  0  0  0  0  0  0
  141.7846   70.6030  221.6134 H   0  0  0  0  0  0  0  0  0  0  0  0
  139.9642   73.8014  222.3937 H   0  0  0  0  0  0  0  0  0  0  0  0
  138.7949   71.4683  221.5607 H   0  0  0  0  0  0  0  0  0  0  0  0
  141.2268   72.7870  226.8038 H   0  0  0  0  0  0  0  0  0  0  0  0
  141.5379   71.6324  228.9929 H   0  0  0  0  0  0  0  0  0  0  0  0
  140.8748   69.2430  229.1978 H   0  0  0  0  0  0  0  0  0  0  0  0
  139.9302   68.0578  227.2663 H   0  0  0  0  0  0  0  0  0  0  0  0
  139.3105   69.4040  221.6725 H   0  0  0  0  0  0  0  0  0  0  0  0
  138.9371   67.9828  222.8976 H   0  0  0  0  0  0  0  0  0  0  0  0
  137.2258   69.7200  221.4036 H   0  0  0  0  0  0  0  0  0  0  0  0
  136.7550   68.6673  224.2462 H   0  0  0  0  0  0  0  0  0  0  0  0
  136.7522   70.4040  223.7133 H   0  0  0  0  0  0  0  0  0  0  0  0
  134.4457   69.6469  223.9636 H   0  0  0  0  0  0  0  0  0  0  0  0
  134.7769   69.8998  222.2409 H   0  0  0  0  0  0  0  0  0  0  0  0
  135.0703   67.2072  223.7127 H   0  0  0  0  0  0  0  0  0  0  0  0
  133.6671   67.6374  222.7247 H   0  0  0  0  0  0  0  0  0  0  0  0
  135.2911   66.4229  221.2906 H   0  0  0  0  0  0  0  0  0  0  0  0
  135.2933   68.1259  220.7730 H   0  0  0  0  0  0  0  0  0  0  0  0
  137.2022   66.9407  222.8588 H   0  0  0  0  0  0  0  0  0  0  0  0
  137.6067   67.1622  221.1201 H   0  0  0  0  0  0  0  0  0  0  0  0
  141.8112   74.8367  221.0366 H   0  0  0  0  0  0  0  0  0  0  0  0
  143.9940   74.6975  219.9268 H   0  0  0  0  0  0  0  0  0  0  0  0
  1  2  1  0
  2  3  1  0
  2  4  1  0
  4  5  2  0
  4  6  2  0
  4  7  1  0
  7  8  2  0
  8  9  1  0
  9 10  2  0
 10 11  1  0
 11 12  2  0
 12 13  1  0
 13 14  2  0
 14 15  1  0
 15 16  2  0
 16 17  1  0
 17 18  2  0
 18 19  1  0
 19 20  2  0
 20 21  1  0
 21 22  2  0
 21 23  1  0
 23 24  1  0
 24 25  1  0
 25 26  1  0
 26 27  1  0
 27 28  1  0
 28 29  1  0
 29 30  1  0
 10 31  1  0
 31 32  2  0
 32  7  1  0
 23 13  1  0
 30 25  1  0
 20 15  1  0
  1 33  1  0
  1 34  1  0
  1 35  1  0
  3 36  1  0
  3 37  1  0
  3 38  1  0
  8 39  1  0
  9 40  1  0
 11 41  1  0
 12 42  1  0
 16 43  1  0
 17 44  1  0
 18 45  1  0
 19 46  1  0
 24 47  1  0
 24 48  1  0
 25 49  1  0
 26 50  1  0
 26 51  1  0
 27 52  1  0
 27 53  1  0
 28 54  1  0
 28 55  1  0
 29 56  1  0
 29 57  1  0
 30 58  1  0
 30 59  1  0
 31 60  1  0
 32 61  1  0
M  END
>  <smiles>  (38) 
CN(C)S(=O)(=O)c1ccc(/C=C/c2nc3ccccc3c(=O)n2CC2CCCCC2)cc1

>  <score_type>  (38) 
oracle

>  <origin>  (38) 
autodockgpu

>  <m_score__min__energy>  (38) 
-9.4499999999999993

>  <m_primary>  (38) 
energy

>  <rmsd>  (38) 
11.495787176218412

>  <m_score__min__rmsd>  (38) 
11.495787176218412

>  <meeko>  (38) 
{"free_energy": -8.47, "intermolecular_energy": -10.56, "internal_energy": -1.62, "cluster_size": 6, "cluster_id": 5, "rank_in_cluster": 1}

>  <energy>  (38) 
-8.34

>  <cluster_rmsd>  (38) 
0.0

>  <cluster>  (38) 
7

$$$$

     RDKit          3D

 61 64  0  0  0  0  0  0  0  0999 V2000
  145.2350   67.6310  219.6960 C   0  0  0  0  0  0  0  0  0  0  0  0
  144.7210   68.9740  219.8490 N   0  0  0  0  0  0  0  0  0  0  0  0
  143.3730   69.0060  219.3250 C   0  0  0  0  0  0  0  0  0  0  0  0
  145.6520   70.1210  218.9550 S   0  0  0  0  0  0  0  0  0  0  0  0
  145.6160   69.7430  217.5060 O   0  0  0  0  0  0  0  0  0  0  0  0
  147.0970   70.0040  219.3860 O   0  0  0  0  0  0  0  0  0  0  0  0
  145.0880   71.7590  219.1730 C   0  0  0  0  0  0  0  0  0  0  0  0
  144.5800   72.5190  218.1410 C   0  0  0  0  0  0  0  0  0  0  0  0
  144.1360   73.8110  218.3280 C   0  0  0  0  0  0  0  0  0  0  0  0
  144.1850   74.4140  219.5930 C   0  0  0  0  0  0  0  0  0  0  0  0
  143.7140   75.7720  219.7700 C   0  0  0  0  0  0  0  0  0  0  0  0
  142.4750   76.1730  219.5510 C   0  0  0  0  0  0  0  0  0  0  0  0
  141.7620   76.9230  220.5850 C   0  0  0  0  0  0  0  0  0  0  0  0
  142.1980   78.1510  220.9180 N   0  0  0  0  0  0  0  0  0  0  0  0
  141.6350   78.9410  221.8430 C   0  0  0  0  0  0  0  0  0  0  0  0
  142.1090   80.1980  222.1620 C   0  0  0  0  0  0  0  0  0  0  0  0
  141.4890   80.9830  223.1320 C   0  0  0  0  0  0  0  0  0  0  0  0
  140.3840   80.4760  223.7740 C   0  0  0  0  0  0  0  0  0  0  0  0
  139.9160   79.2270  223.4560 C   0  0  0  0  0  0  0  0  0  0  0  0
  140.5250   78.4460  222.4970 C   0  0  0  0  0  0  0  0  0  0  0  0
  140.0810   77.2050  222.1640 C   0  0  0  0  0  0  0  0  0  0  0  0
  139.0500   76.7790  222.7900 O   0  0  0  0  0  0  0  0  0  0  0  0
  140.6790   76.4230  221.2120 N   0  0  0  0  0  0  0  0  0  0  0  0
  140.1710   75.1530  220.9100 C   0  0  0  0  0  0  0  0  0  0  0  0
  140.7230   73.9160  221.4250 C   0  0  0  0  0  0  0  0  0  0  0  0
  141.1170   72.9730  220.3090 C   0  0  0  0  0  0  0  0  0  0  0  0
  141.6210   71.6360  220.8370 C   0  0  0  0  0  0  0  0  0  0  0  0
  140.4310   70.9640  221.4890 C   0  0  0  0  0  0  0  0  0  0  0  0
  140.0520   71.8540  222.6740 C   0  0  0  0  0  0  0  0  0  0  0  0
  139.5560   73.1660  222.1100 C   0  0  0  0  0  0  0  0  0  0  0  0
  144.6940   73.6380  220.6030 C   0  0  0  0  0  0  0  0  0  0  0  0
  145.1420   72.3410  220.4230 C   0  0  0  0  0  0  0  0  0  0  0  0
  145.4045   67.1880  220.6885 H   0  0  0  0  0  0  0  0  0  0  0  0
  144.5069   67.0207  219.1416 H   0  0  0  0  0  0  0  0  0  0  0  0
  146.1845   67.6627  219.1416 H   0  0  0  0  0  0  0  0  0  0  0  0
  142.6558   69.0230  220.1588 H   0  0  0  0  0  0  0  0  0  0  0  0
  143.2404   69.9075  218.7088 H   0  0  0  0  0  0  0  0  0  0  0  0
  143.1978   68.1118  218.7088 H   0  0  0  0  0  0  0  0  0  0  0  0
  144.5271   72.0797  217.1339 H   0  0  0  0  0  0  0  0  0  0  0  0
  143.7377   74.3766  217.4727 H   0  0  0  0  0  0  0  0  0  0  0  0
  144.4408   76.5237  220.1115 H   0  0  0  0  0  0  0  0  0  0  0  0
  141.9812   75.9440  218.5951 H   0  0  0  0  0  0  0  0  0  0  0  0
  142.9948   80.5880  221.6393 H   0  0  0  0  0  0  0  0  0  0  0  0
  141.8741   81.9836  223.3780 H   0  0  0  0  0  0  0  0  0  0  0  0
  139.8744   81.0735  224.5443 H   0  0  0  0  0  0  0  0  0  0  0  0
  139.0308   78.8377  223.9802 H   0  0  0  0  0  0  0  0  0  0  0  0
  139.1197   75.1678  221.2333 H   0  0  0  0  0  0  0  0  0  0  0  0
  140.4324   75.0711  219.8446 H   0  0  0  0  0  0  0  0  0  0  0  0
  141.5828   74.1660  222.0639 H   0  0  0  0  0  0  0  0  0  0  0  0
  140.2396   72.7937  219.6703 H   0  0  0  0  0  0  0  0  0  0  0  0
  141.9348   73.4426  219.7428 H   0  0  0  0  0  0  0  0  0  0  0  0
  142.0019   71.0186  220.0102 H   0  0  0  0  0  0  0  0  0  0  0  0
  142.4459   71.7724  221.5519 H   0  0  0  0  0  0  0  0  0  0  0  0
  139.5938   70.8933  220.7791 H   0  0  0  0  0  0  0  0  0  0  0  0
  140.6687   69.9392  221.8102 H   0  0  0  0  0  0  0  0  0  0  0  0
  139.2585   71.3747  223.2661 H   0  0  0  0  0  0  0  0  0  0  0  0
  140.9182   72.0157  223.3324 H   0  0  0  0  0  0  0  0  0  0  0  0
  138.7643   72.9703  221.3719 H   0  0  0  0  0  0  0  0  0  0  0  0
  139.1561   73.7847  222.9269 H   0  0  0  0  0  0  0  0  0  0  0  0
  144.7492   74.0709  221.6127 H   0  0  0  0  0  0  0  0  0  0  0  0
  145.5413   71.7738  221.2767 H   0  0  0  0  0  0  0  0  0  0  0  0
  1  2  1  0
  2  3  1  0
  2  4  1  0
  4  5  2  0
  4  6  2  0
  4  7  1  0
  7  8  2  0
  8  9  1  0
  9 10  2  0
 10 11  1  0
 11 12  2  0
 12 13  1  0
 13 14  2  0
 14 15  1  0
 15 16  2  0
 16 17  1  0
 17 18  2  0
 18 19  1  0
 19 20  2  0
 20 21  1  0
 21 22  2  0
 21 23  1  0
 23 24  1  0
 24 25  1  0
 25 26  1  0
 26 27  1  0
 27 28  1  0
 28 29  1  0
 29 30  1  0
 10 31  1  0
 31 32  2  0
 32  7  1  0
 23 13  1  0
 30 25  1  0
 20 15  1  0
  1 33  1  0
  1 34  1  0
  1 35  1  0
  3 36  1  0
  3 37  1  0
  3 38  1  0
  8 39  1  0
  9 40  1  0
 11 41  1  0
 12 42  1  0
 16 43  1  0
 17 44  1  0
 18 45  1  0
 19 46  1  0
 24 47  1  0
 24 48  1  0
 25 49  1  0
 26 50  1  0
 26 51  1  0
 27 52  1  0
 27 53  1  0
 28 54  1  0
 28 55  1  0
 29 56  1  0
 29 57  1  0
 30 58  1  0
 30 59  1  0
 31 60  1  0
 32 61  1  0
M  END
>  <smiles>  (39) 
CN(C)S(=O)(=O)c1ccc(/C=C/c2nc3ccccc3c(=O)n2CC2CCCCC2)cc1

>  <score_type>  (39) 
oracle

>  <origin>  (39) 
autodockgpu

>  <m_score__min__energy>  (39) 
-9.4499999999999993

>  <m_primary>  (39) 
energy

>  <rmsd>  (39) 
4.424547072298154

>  <m_score__min__rmsd>  (39) 
4.424547072298154

>  <meeko>  (39) 
{"free_energy": -7.68, "intermolecular_energy": -9.77, "internal_energy": -2.22, "cluster_size": 3, "cluster_id": 9, "rank_in_cluster": 1}

>  <energy>  (39) 
-8.33

>  <cluster_rmsd>  (39) 
1.09

>  <cluster>  (39) 
7

$$$$

     RDKit          3D

 61 64  0  0  0  0  0  0  0  0999 V2000
  140.7170   67.4470  226.5540 C   0  0  0  0  0  0  0  0  0  0  0  0
  140.5330   68.7120  225.8770 N   0  0  0  0  0  0  0  0  0  0  0  0
  140.3400   69.7380  226.8780 C   0  0  0  0  0  0  0  0  0  0  0  0
  139.1300   68.7010  224.8700 S   0  0  0  0  0  0  0  0  0  0  0  0
  137.9230   68.4890  225.7320 O   0  0  0  0  0  0  0  0  0  0  0  0
  139.2100   67.5030  223.9510 O   0  0  0  0  0  0  0  0  0  0  0  0
  138.9620   70.1680  223.9370 C   0  0  0  0  0  0  0  0  0  0  0  0
  139.9750   71.0940  223.8110 C   0  0  0  0  0  0  0  0  0  0  0  0
  139.8300   72.2470  223.0680 C   0  0  0  0  0  0  0  0  0  0  0  0
  138.6280   72.5290  222.4030 C   0  0  0  0  0  0  0  0  0  0  0  0
  138.4940   73.7460  221.6290 C   0  0  0  0  0  0  0  0  0  0  0  0
  139.2490   74.8190  221.7770 C   0  0  0  0  0  0  0  0  0  0  0  0
  140.6010   74.8380  221.2180 C   0  0  0  0  0  0  0  0  0  0  0  0
  141.3450   73.7190  221.2730 N   0  0  0  0  0  0  0  0  0  0  0  0
  142.5920   73.6020  220.7960 C   0  0  0  0  0  0  0  0  0  0  0  0
  143.3300   72.4370  220.8690 C   0  0  0  0  0  0  0  0  0  0  0  0
  144.6240   72.3640  220.3590 C   0  0  0  0  0  0  0  0  0  0  0  0
  145.1600   73.4880  219.7750 C   0  0  0  0  0  0  0  0  0  0  0  0
  144.4260   74.6440  219.7050 C   0  0  0  0  0  0  0  0  0  0  0  0
  143.1440   74.7220  220.2080 C   0  0  0  0  0  0  0  0  0  0  0  0
  142.3960   75.8550  220.1510 C   0  0  0  0  0  0  0  0  0  0  0  0
  142.9400   76.8720  219.5990 O   0  0  0  0  0  0  0  0  0  0  0  0
  141.1230   75.9410  220.6470 N   0  0  0  0  0  0  0  0  0  0  0  0
  140.4000   77.1370  220.5540 C   0  0  0  0  0  0  0  0  0  0  0  0
  140.5930   78.2720  221.4350 C   0  0  0  0  0  0  0  0  0  0  0  0
  141.7330   79.1510  220.9720 C   0  0  0  0  0  0  0  0  0  0  0  0
  142.0000   80.3010  221.9350 C   0  0  0  0  0  0  0  0  0  0  0  0
  142.5110   79.6700  223.2130 C   0  0  0  0  0  0  0  0  0  0  0  0
  141.3510   78.8310  223.7530 C   0  0  0  0  0  0  0  0  0  0  0  0
  141.1200   77.7030  222.7730 C   0  0  0  0  0  0  0  0  0  0  0  0
  137.6360   71.5930  222.5440 C   0  0  0  0  0  0  0  0  0  0  0  0
  137.7740   70.4340  223.2870 C   0  0  0  0  0  0  0  0  0  0  0  0
  140.6938   67.6067  227.6421 H   0  0  0  0  0  0  0  0  0  0  0  0
  139.9098   66.7569  226.2674 H   0  0  0  0  0  0  0  0  0  0  0  0
  141.6874   67.0154  226.2674 H   0  0  0  0  0  0  0  0  0  0  0  0
  140.4238   69.2927  227.8804 H   0  0  0  0  0  0  0  0  0  0  0  0
  141.1074   70.5168  226.7575 H   0  0  0  0  0  0  0  0  0  0  0  0
  139.3421   70.1848  226.7575 H   0  0  0  0  0  0  0  0  0  0  0  0
  140.9319   70.9072  224.3204 H   0  0  0  0  0  0  0  0  0  0  0  0
  140.6687   72.9551  222.9961 H   0  0  0  0  0  0  0  0  0  0  0  0
  137.7060   73.7786  220.8622 H   0  0  0  0  0  0  0  0  0  0  0  0
  138.8630   75.6953  222.3185 H   0  0  0  0  0  0  0  0  0  0  0  0
  142.8863   71.5475  221.3401 H   0  0  0  0  0  0  0  0  0  0  0  0
  145.2028   71.4307  220.4217 H   0  0  0  0  0  0  0  0  0  0  0  0
  146.1796   73.4595  219.3632 H   0  0  0  0  0  0  0  0  0  0  0  0
  144.8715   75.5332  219.2350 H   0  0  0  0  0  0  0  0  0  0  0  0
  140.5793   77.5154  219.5368 H   0  0  0  0  0  0  0  0  0  0  0  0
  139.3992   76.8007  220.8628 H   0  0  0  0  0  0  0  0  0  0  0  0
  139.6475   78.8321  221.4829 H   0  0  0  0  0  0  0  0  0  0  0  0
  142.6428   78.5380  220.8911 H   0  0  0  0  0  0  0  0  0  0  0  0
  141.4536   79.5825  219.9995 H   0  0  0  0  0  0  0  0  0  0  0  0
  142.7563   80.9814  221.5165 H   0  0  0  0  0  0  0  0  0  0  0  0
  141.0905   80.8929  222.1153 H   0  0  0  0  0  0  0  0  0  0  0  0
  143.3816   79.0311  223.0038 H   0  0  0  0  0  0  0  0  0  0  0  0
  142.8353   80.4297  223.9395 H   0  0  0  0  0  0  0  0  0  0  0  0
  141.6087   78.4241  224.7419 H   0  0  0  0  0  0  0  0  0  0  0  0
  140.4443   79.4440  223.8632 H   0  0  0  0  0  0  0  0  0  0  0  0
  142.0674   77.1727  222.5965 H   0  0  0  0  0  0  0  0  0  0  0  0
  140.3775   77.0063  223.1892 H   0  0  0  0  0  0  0  0  0  0  0  0
  136.6762   71.7737  222.0378 H   0  0  0  0  0  0  0  0  0  0  0  0
  136.9366   69.7244  223.3596 H   0  0  0  0  0  0  0  0  0  0  0  0
  1  2  1  0
  2  3  1  0
  2  4  1  0
  4  5  2  0
  4  6  2  0
  4  7  1  0
  7  8  2  0
  8  9  1  0
  9 10  2  0
 10 11  1  0
 11 12  2  0
 12 13  1  0
 13 14  2  0
 14 15  1  0
 15 16  2  0
 16 17  1  0
 17 18  2  0
 18 19  1  0
 19 20  2  0
 20 21  1  0
 21 22  2  0
 21 23  1  0
 23 24  1  0
 24 25  1  0
 25 26  1  0
 26 27  1  0
 27 28  1  0
 28 29  1  0
 29 30  1  0
 10 31  1  0
 31 32  2  0
 32  7  1  0
 23 13  1  0
 30 25  1  0
 20 15  1  0
  1 33  1  0
  1 34  1  0
  1 35  1  0
  3 36  1  0
  3 37  1  0
  3 38  1  0
  8 39  1  0
  9 40  1  0
 11 41  1  0
 12 42  1  0
 16 43  1  0
 17 44  1  0
 18 45  1  0
 19 46  1  0
 24 47  1  0
 24 48  1  0
 25 49  1  0
 26 50  1  0
 26 51  1  0
 27 52  1  0
 27 53  1  0
 28 54  1  0
 28 55  1  0
 29 56  1  0
 29 57  1  0
 30 58  1  0
 30 59  1  0
 31 60  1  0
 32 61  1  0
M  END
>  <smiles>  (40) 
CN(C)S(=O)(=O)c1ccc(/C=C/c2nc3ccccc3c(=O)n2CC2CCCCC2)cc1

>  <score_type>  (40) 
oracle

>  <origin>  (40) 
autodockgpu

>  <m_score__min__energy>  (40) 
-9.4499999999999993

>  <m_primary>  (40) 
energy

>  <rmsd>  (40) 
7.425480487880523

>  <m_score__min__rmsd>  (40) 
7.425480487880523

>  <meeko>  (40) 
{"free_energy": -8.36, "intermolecular_energy": -10.45, "internal_energy": -1.55, "cluster_size": 8, "cluster_id": 2, "rank_in_cluster": 7}

>  <energy>  (40) 
-8.29

>  <cluster_rmsd>  (40) 
0.68

>  <cluster>  (40) 
7

$$$$

     RDKit          3D

 61 64  0  0  0  0  0  0  0  0999 V2000
  133.8020   75.9730  226.5490 C   0  0  0  0  0  0  0  0  0  0  0  0
  134.5420   74.8160  226.0960 N   0  0  0  0  0  0  0  0  0  0  0  0
  135.0490   75.0910  224.7700 C   0  0  0  0  0  0  0  0  0  0  0  0
  133.5360   73.4160  225.9850 S   0  0  0  0  0  0  0  0  0  0  0  0
  132.2690   73.7910  225.2780 O   0  0  0  0  0  0  0  0  0  0  0  0
  133.1330   73.0040  227.3840 O   0  0  0  0  0  0  0  0  0  0  0  0
  134.3220   72.0880  225.1680 C   0  0  0  0  0  0  0  0  0  0  0  0
  134.6000   72.1000  223.8180 C   0  0  0  0  0  0  0  0  0  0  0  0
  135.2230   71.0450  223.1860 C   0  0  0  0  0  0  0  0  0  0  0  0
  135.6040   69.9000  223.9000 C   0  0  0  0  0  0  0  0  0  0  0  0
  136.2570   68.8010  223.2190 C   0  0  0  0  0  0  0  0  0  0  0  0
  137.5590   68.7060  223.0240 C   0  0  0  0  0  0  0  0  0  0  0  0
  138.4730   69.5350  223.8100 C   0  0  0  0  0  0  0  0  0  0  0  0
  138.5920   69.3040  225.1290 N   0  0  0  0  0  0  0  0  0  0  0  0
  139.3930   69.9860  225.9590 C   0  0  0  0  0  0  0  0  0  0  0  0
  139.4920   69.7230  227.3110 C   0  0  0  0  0  0  0  0  0  0  0  0
  140.3390   70.4610  228.1350 C   0  0  0  0  0  0  0  0  0  0  0  0
  141.0850   71.4690  227.5690 C   0  0  0  0  0  0  0  0  0  0  0  0
  140.9850   71.7280  226.2270 C   0  0  0  0  0  0  0  0  0  0  0  0
  140.1480   71.0010  225.4070 C   0  0  0  0  0  0  0  0  0  0  0  0
  140.0310   71.2390  224.0740 C   0  0  0  0  0  0  0  0  0  0  0  0
  140.7450   72.1860  223.5960 O   0  0  0  0  0  0  0  0  0  0  0  0
  139.2020   70.5220  223.2520 N   0  0  0  0  0  0  0  0  0  0  0  0
  139.1290   70.8120  221.8830 C   0  0  0  0  0  0  0  0  0  0  0  0
  138.5990   72.0480  221.3440 C   0  0  0  0  0  0  0  0  0  0  0  0
  139.6730   73.1040  221.2070 C   0  0  0  0  0  0  0  0  0  0  0  0
  139.1130   74.4340  220.7200 C   0  0  0  0  0  0  0  0  0  0  0  0
  138.2250   74.9500  221.8320 C   0  0  0  0  0  0  0  0  0  0  0  0
  137.0790   73.9420  221.9460 C   0  0  0  0  0  0  0  0  0  0  0  0
  137.6740   72.6400  222.4330 C   0  0  0  0  0  0  0  0  0  0  0  0
  135.3170   69.9120  225.2410 C   0  0  0  0  0  0  0  0  0  0  0  0
  134.6910   70.9670  225.8820 C   0  0  0  0  0  0  0  0  0  0  0  0
  133.7894   75.9927  227.6487 H   0  0  0  0  0  0  0  0  0  0  0  0
  134.2835   76.8871  226.1714 H   0  0  0  0  0  0  0  0  0  0  0  0
  132.7702   75.9193  226.1714 H   0  0  0  0  0  0  0  0  0  0  0  0
  136.0135   75.6142  224.8474 H   0  0  0  0  0  0  0  0  0  0  0  0
  135.1878   74.1445  224.2269 H   0  0  0  0  0  0  0  0  0  0  0  0
  134.3313   75.7235  224.2269 H   0  0  0  0  0  0  0  0  0  0  0  0
  134.3151   72.9814  223.2247 H   0  0  0  0  0  0  0  0  0  0  0  0
  135.4241   71.1023  222.1061 H   0  0  0  0  0  0  0  0  0  0  0  0
  135.6226   67.9875  222.8371 H   0  0  0  0  0  0  0  0  0  0  0  0
  137.9553   68.0063  222.2735 H   0  0  0  0  0  0  0  0  0  0  0  0
  138.8888   68.9130  227.7470 H   0  0  0  0  0  0  0  0  0  0  0  0
  140.4095   70.2433  229.2109 H   0  0  0  0  0  0  0  0  0  0  0  0
  141.7629   72.0681  228.1948 H   0  0  0  0  0  0  0  0  0  0  0  0
  141.5889   72.5380  225.7920 H   0  0  0  0  0  0  0  0  0  0  0  0
  140.1606   70.7412  221.5078 H   0  0  0  0  0  0  0  0  0  0  0  0
  138.3603   70.0954  221.5580 H   0  0  0  0  0  0  0  0  0  0  0  0
  138.1292   71.8239  220.3750 H   0  0  0  0  0  0  0  0  0  0  0  0
  140.1467   73.2569  222.1879 H   0  0  0  0  0  0  0  0  0  0  0  0
  140.4009   72.7508  220.4618 H   0  0  0  0  0  0  0  0  0  0  0  0
  139.9306   75.1434  220.5244 H   0  0  0  0  0  0  0  0  0  0  0  0
  138.5518   74.3135  219.7817 H   0  0  0  0  0  0  0  0  0  0  0  0
  138.7851   75.0029  222.7772 H   0  0  0  0  0  0  0  0  0  0  0  0
  137.8551   75.9640  221.6197 H   0  0  0  0  0  0  0  0  0  0  0  0
  136.3283   74.3048  222.6635 H   0  0  0  0  0  0  0  0  0  0  0  0
  136.5824   73.8045  220.9741 H   0  0  0  0  0  0  0  0  0  0  0  0
  138.2573   72.8242  223.3472 H   0  0  0  0  0  0  0  0  0  0  0  0
  136.8637   71.9279  222.6481 H   0  0  0  0  0  0  0  0  0  0  0  0
  135.6001   69.0343  225.8406 H   0  0  0  0  0  0  0  0  0  0  0  0
  134.4876   70.9114  226.9616 H   0  0  0  0  0  0  0  0  0  0  0  0
  1  2  1  0
  2  3  1  0
  2  4  1  0
  4  5  2  0
  4  6  2  0
  4  7  1  0
  7  8  2  0
  8  9  1  0
  9 10  2  0
 10 11  1  0
 11 12  2  0
 12 13  1  0
 13 14  2  0
 14 15  1  0
 15 16  2  0
 16 17  1  0
 17 18  2  0
 18 19  1  0
 19 20  2  0
 20 21  1  0
 21 22  2  0
 21 23  1  0
 23 24  1  0
 24 25  1  0
 25 26  1  0
 26 27  1  0
 27 28  1  0
 28 29  1  0
 29 30  1  0
 10 31  1  0
 31 32  2  0
 32  7  1  0
 23 13  1  0
 30 25  1  0
 20 15  1  0
  1 33  1  0
  1 34  1  0
  1 35  1  0
  3 36  1  0
  3 37  1  0
  3 38  1  0
  8 39  1  0
  9 40  1  0
 11 41  1  0
 12 42  1  0
 16 43  1  0
 17 44  1  0
 18 45  1  0
 19 46  1  0
 24 47  1  0
 24 48  1  0
 25 49  1  0
 26 50  1  0
 26 51  1  0
 27 52  1  0
 27 53  1  0
 28 54  1  0
 28 55  1  0
 29 56  1  0
 29 57  1  0
 30 58  1  0
 30 59  1  0
 31 60  1  0
 32 61  1  0
M  END
>  <smiles>  (41) 
CN(C)S(=O)(=O)c1ccc(/C=C/c2nc3ccccc3c(=O)n2CC2CCCCC2)cc1

>  <score_type>  (41) 
oracle

>  <origin>  (41) 
autodockgpu

>  <m_score__min__energy>  (41) 
-9.4499999999999993

>  <m_primary>  (41) 
energy

>  <rmsd>  (41) 
9.238463953234573

>  <m_score__min__rmsd>  (41) 
9.238463953234573

>  <meeko>  (41) 
{"free_energy": -7.33, "intermolecular_energy": -9.42, "internal_energy": -2.46, "cluster_size": 11, "cluster_id": 4, "rank_in_cluster": 11}

>  <energy>  (41) 
-8.26

>  <cluster_rmsd>  (41) 
0.71

>  <cluster>  (41) 
7

$$$$

     RDKit          3D

 61 64  0  0  0  0  0  0  0  0999 V2000
  140.1180   70.5300  228.0160 C   0  0  0  0  0  0  0  0  0  0  0  0
  139.9440   69.0970  227.9290 N   0  0  0  0  0  0  0  0  0  0  0  0
  140.9580   68.4660  228.7440 C   0  0  0  0  0  0  0  0  0  0  0  0
  140.1490   68.5250  226.3120 S   0  0  0  0  0  0  0  0  0  0  0  0
  139.2150   67.3760  226.0870 O   0  0  0  0  0  0  0  0  0  0  0  0
  141.5480   67.9650  226.1770 O   0  0  0  0  0  0  0  0  0  0  0  0
  139.8810   69.7720  225.1200 C   0  0  0  0  0  0  0  0  0  0  0  0
  138.7090   69.8820  224.4030 C   0  0  0  0  0  0  0  0  0  0  0  0
  138.5100   70.8740  223.4660 C   0  0  0  0  0  0  0  0  0  0  0  0
  139.5060   71.8240  223.1990 C   0  0  0  0  0  0  0  0  0  0  0  0
  139.2790   72.8590  222.2110 C   0  0  0  0  0  0  0  0  0  0  0  0
  140.2140   73.3730  221.4330 C   0  0  0  0  0  0  0  0  0  0  0  0
  140.4620   74.8140  221.4520 C   0  0  0  0  0  0  0  0  0  0  0  0
  139.6580   75.6050  222.1850 N   0  0  0  0  0  0  0  0  0  0  0  0
  139.7780   76.9360  222.2910 C   0  0  0  0  0  0  0  0  0  0  0  0
  138.9340   77.7190  223.0540 C   0  0  0  0  0  0  0  0  0  0  0  0
  139.0990   79.1000  223.1320 C   0  0  0  0  0  0  0  0  0  0  0  0
  140.1300   79.6760  222.4280 C   0  0  0  0  0  0  0  0  0  0  0  0
  140.9660   78.8960  221.6710 C   0  0  0  0  0  0  0  0  0  0  0  0
  140.8080   77.5280  221.5900 C   0  0  0  0  0  0  0  0  0  0  0  0
  141.6230   76.7340  220.8470 C   0  0  0  0  0  0  0  0  0  0  0  0
  142.5660   77.3170  220.2100 O   0  0  0  0  0  0  0  0  0  0  0  0
  141.4740   75.3750  220.7600 N   0  0  0  0  0  0  0  0  0  0  0  0
  142.3490   74.6090  219.9810 C   0  0  0  0  0  0  0  0  0  0  0  0
  143.3830   73.7520  220.5280 C   0  0  0  0  0  0  0  0  0  0  0  0
  144.7410   74.4170  220.4820 C   0  0  0  0  0  0  0  0  0  0  0  0
  145.8490   73.4960  220.9770 C   0  0  0  0  0  0  0  0  0  0  0  0
  145.9490   72.3750  219.9640 C   0  0  0  0  0  0  0  0  0  0  0  0
  144.6140   71.6300  220.0400 C   0  0  0  0  0  0  0  0  0  0  0  0
  143.5450   72.5740  219.5400 C   0  0  0  0  0  0  0  0  0  0  0  0
  140.6620   71.6950  223.9260 C   0  0  0  0  0  0  0  0  0  0  0  0
  140.8690   70.7020  224.8670 C   0  0  0  0  0  0  0  0  0  0  0  0
  140.1546   70.8314  229.0733 H   0  0  0  0  0  0  0  0  0  0  0  0
  141.0575   70.8160  227.5205 H   0  0  0  0  0  0  0  0  0  0  0  0
  139.2743   71.0326  227.5205 H   0  0  0  0  0  0  0  0  0  0  0  0
  140.7188   68.6148  229.8073 H   0  0  0  0  0  0  0  0  0  0  0  0
  140.9888   67.3890  228.5224 H   0  0  0  0  0  0  0  0  0  0  0  0
  141.9378   68.9141  228.5224 H   0  0  0  0  0  0  0  0  0  0  0  0
  137.9049   69.1536  224.5844 H   0  0  0  0  0  0  0  0  0  0  0  0
  137.5561   70.9206  222.9202 H   0  0  0  0  0  0  0  0  0  0  0  0
  138.2545   73.2442  222.1011 H   0  0  0  0  0  0  0  0  0  0  0  0
  140.8040   72.7198  220.7732 H   0  0  0  0  0  0  0  0  0  0  0  0
  138.1145   77.2422  223.6117 H   0  0  0  0  0  0  0  0  0  0  0  0
  138.4209   79.7148  223.7421 H   0  0  0  0  0  0  0  0  0  0  0  0
  140.2845   80.7642  222.4721 H   0  0  0  0  0  0  0  0  0  0  0  0
  141.7848   79.3741  221.1133 H   0  0  0  0  0  0  0  0  0  0  0  0
  141.7095   73.9532  219.3719 H   0  0  0  0  0  0  0  0  0  0  0  0
  142.9568   75.3973  219.5129 H   0  0  0  0  0  0  0  0  0  0  0  0
  143.0984   73.4879  221.5572 H   0  0  0  0  0  0  0  0  0  0  0  0
  144.9587   74.7069  219.4434 H   0  0  0  0  0  0  0  0  0  0  0  0
  144.7101   75.2948  221.1441 H   0  0  0  0  0  0  0  0  0  0  0  0
  146.8016   74.0428  221.0362 H   0  0  0  0  0  0  0  0  0  0  0  0
  145.6298   73.1093  221.9832 H   0  0  0  0  0  0  0  0  0  0  0  0
  146.1040   72.7829  218.9542 H   0  0  0  0  0  0  0  0  0  0  0  0
  146.7987   71.7095  220.1764 H   0  0  0  0  0  0  0  0  0  0  0  0
  144.6480   70.7306  219.4076 H   0  0  0  0  0  0  0  0  0  0  0  0
  144.4026   71.3128  221.0718 H   0  0  0  0  0  0  0  0  0  0  0  0
  143.8339   72.9628  218.5524 H   0  0  0  0  0  0  0  0  0  0  0  0
  142.5907   72.0327  219.4605 H   0  0  0  0  0  0  0  0  0  0  0  0
  141.4694   72.4214  223.7512 H   0  0  0  0  0  0  0  0  0  0  0  0
  141.8221   70.6537  225.4141 H   0  0  0  0  0  0  0  0  0  0  0  0
  1  2  1  0
  2  3  1  0
  2  4  1  0
  4  5  2  0
  4  6  2  0
  4  7  1  0
  7  8  2  0
  8  9  1  0
  9 10  2  0
 10 11  1  0
 11 12  2  0
 12 13  1  0
 13 14  2  0
 14 15  1  0
 15 16  2  0
 16 17  1  0
 17 18  2  0
 18 19  1  0
 19 20  2  0
 20 21  1  0
 21 22  2  0
 21 23  1  0
 23 24  1  0
 24 25  1  0
 25 26  1  0
 26 27  1  0
 27 28  1  0
 28 29  1  0
 29 30  1  0
 10 31  1  0
 31 32  2  0
 32  7  1  0
 23 13  1  0
 30 25  1  0
 20 15  1  0
  1 33  1  0
  1 34  1  0
  1 35  1  0
  3 36  1  0
  3 37  1  0
  3 38  1  0
  8 39  1  0
  9 40  1  0
 11 41  1  0
 12 42  1  0
 16 43  1  0
 17 44  1  0
 18 45  1  0
 19 46  1  0
 24 47  1  0
 24 48  1  0
 25 49  1  0
 26 50  1  0
 26 51  1  0
 27 52  1  0
 27 53  1  0
 28 54  1  0
 28 55  1  0
 29 56  1  0
 29 57  1  0
 30 58  1  0
 30 59  1  0
 31 60  1  0
 32 61  1  0
M  END
>  <smiles>  (42) 
CN(C)S(=O)(=O)c1ccc(/C=C/c2nc3ccccc3c(=O)n2CC2CCCCC2)cc1

>  <score_type>  (42) 
oracle

>  <origin>  (42) 
autodockgpu

>  <m_score__min__energy>  (42) 
-9.4499999999999993

>  <m_primary>  (42) 
energy

>  <rmsd>  (42) 
5.162690017540191

>  <m_score__min__rmsd>  (42) 
5.162690017540191

>  <meeko>  (42) 
{"free_energy": -9.45, "intermolecular_energy": -11.53, "internal_energy": -1.44, "cluster_size": 5, "cluster_id": 1, "rank_in_cluster": 2}

>  <energy>  (42) 
-8.21

>  <cluster_rmsd>  (42) 
0.66

>  <cluster>  (42) 
7

$$$$

     RDKit          3D

 61 64  0  0  0  0  0  0  0  0999 V2000
  131.4900   73.2350  225.4040 C   0  0  0  0  0  0  0  0  0  0  0  0
  131.9410   72.1500  226.2470 N   0  0  0  0  0  0  0  0  0  0  0  0
  131.2960   72.2770  227.5350 C   0  0  0  0  0  0  0  0  0  0  0  0
  133.6460   72.2130  226.5130 S   0  0  0  0  0  0  0  0  0  0  0  0
  133.9220   71.8600  227.9420 O   0  0  0  0  0  0  0  0  0  0  0  0
  134.1050   73.6430  226.3340 O   0  0  0  0  0  0  0  0  0  0  0  0
  134.5320   71.1570  225.4410 C   0  0  0  0  0  0  0  0  0  0  0  0
  135.2120   71.6140  224.3330 C   0  0  0  0  0  0  0  0  0  0  0  0
  135.9100   70.7690  223.4970 C   0  0  0  0  0  0  0  0  0  0  0  0
  135.9550   69.3890  223.7410 C   0  0  0  0  0  0  0  0  0  0  0  0
  136.6930   68.5160  222.8510 C   0  0  0  0  0  0  0  0  0  0  0  0
  138.0100   68.4690  222.7650 C   0  0  0  0  0  0  0  0  0  0  0  0
  138.8270   68.9570  223.8760 C   0  0  0  0  0  0  0  0  0  0  0  0
  138.8610   68.2520  225.0200 N   0  0  0  0  0  0  0  0  0  0  0  0
  139.5690   68.5860  226.1080 C   0  0  0  0  0  0  0  0  0  0  0  0
  139.5820   67.8380  227.2690 C   0  0  0  0  0  0  0  0  0  0  0  0
  140.3340   68.2270  228.3750 C   0  0  0  0  0  0  0  0  0  0  0  0
  141.0730   69.3830  228.2880 C   0  0  0  0  0  0  0  0  0  0  0  0
  141.0580   70.1240  227.1350 C   0  0  0  0  0  0  0  0  0  0  0  0
  140.3160   69.7440  226.0370 C   0  0  0  0  0  0  0  0  0  0  0  0
  140.2840   70.4610  224.8830 C   0  0  0  0  0  0  0  0  0  0  0  0
  140.9880   71.5280  224.8520 O   0  0  0  0  0  0  0  0  0  0  0  0
  139.5500   70.0910  223.7870 N   0  0  0  0  0  0  0  0  0  0  0  0
  139.5620   70.8700  222.6230 C   0  0  0  0  0  0  0  0  0  0  0  0
  139.5020   72.3180  222.6170 C   0  0  0  0  0  0  0  0  0  0  0  0
  138.2410   72.8220  221.9510 C   0  0  0  0  0  0  0  0  0  0  0  0
  138.2040   74.3430  221.8630 C   0  0  0  0  0  0  0  0  0  0  0  0
  139.3120   74.7360  220.9080 C   0  0  0  0  0  0  0  0  0  0  0  0
  140.6150   74.3100  221.5880 C   0  0  0  0  0  0  0  0  0  0  0  0
  140.6130   72.8000  221.6540 C   0  0  0  0  0  0  0  0  0  0  0  0
  135.2720   68.9580  224.8490 C   0  0  0  0  0  0  0  0  0  0  0  0
  134.5690   69.8000  225.6930 C   0  0  0  0  0  0  0  0  0  0  0  0
  131.1436   74.0684  226.0329 H   0  0  0  0  0  0  0  0  0  0  0  0
  132.3210   73.5757  224.7689 H   0  0  0  0  0  0  0  0  0  0  0  0
  130.6623   72.8863  224.7689 H   0  0  0  0  0  0  0  0  0  0  0  0
  132.0388   72.1307  228.3330 H   0  0  0  0  0  0  0  0  0  0  0  0
  130.8528   73.2797  227.6259 H   0  0  0  0  0  0  0  0  0  0  0  0
  130.5058   71.5172  227.6259 H   0  0  0  0  0  0  0  0  0  0  0  0
  135.1973   72.6906  224.1078 H   0  0  0  0  0  0  0  0  0  0  0  0
  136.4392   71.1832  222.6261 H   0  0  0  0  0  0  0  0  0  0  0  0
  136.1147   67.8439  222.2000 H   0  0  0  0  0  0  0  0  0  0  0  0
  138.4905   68.0647  221.8619 H   0  0  0  0  0  0  0  0  0  0  0  0
  138.9856   66.9152  227.3213 H   0  0  0  0  0  0  0  0  0  0  0  0
  140.3365   67.6243  229.2952 H   0  0  0  0  0  0  0  0  0  0  0  0
  141.6775   69.7139  229.1454 H   0  0  0  0  0  0  0  0  0  0  0  0
  141.6542   71.0470  227.0844 H   0  0  0  0  0  0  0  0  0  0  0  0
  140.4925   70.6078  222.0982 H   0  0  0  0  0  0  0  0  0  0  0  0
  138.5817   70.6180  222.1922 H   0  0  0  0  0  0  0  0  0  0  0  0
  139.5750   72.6664  223.6578 H   0  0  0  0  0  0  0  0  0  0  0  0
  138.1877   72.4070  220.9337 H   0  0  0  0  0  0  0  0  0  0  0  0
  137.3848   72.4984  222.5611 H   0  0  0  0  0  0  0  0  0  0  0  0
  137.2304   74.6794  221.4772 H   0  0  0  0  0  0  0  0  0  0  0  0
  138.3424   74.8060  222.8512 H   0  0  0  0  0  0  0  0  0  0  0  0
  139.1927   74.2147  219.9468 H   0  0  0  0  0  0  0  0  0  0  0  0
  139.2997   75.8148  220.6937 H   0  0  0  0  0  0  0  0  0  0  0  0
  141.4776   74.6603  221.0022 H   0  0  0  0  0  0  0  0  0  0  0  0
  140.6891   74.7444  222.5959 H   0  0  0  0  0  0  0  0  0  0  0  0
  140.4283   72.3910  220.6497 H   0  0  0  0  0  0  0  0  0  0  0  0
  141.5890   72.4517  222.0228 H   0  0  0  0  0  0  0  0  0  0  0  0
  135.2834   67.8826  225.0801 H   0  0  0  0  0  0  0  0  0  0  0  0
  134.0396   69.3880  226.5648 H   0  0  0  0  0  0  0  0  0  0  0  0
  1  2  1  0
  2  3  1  0
  2  4  1  0
  4  5  2  0
  4  6  2  0
  4  7  1  0
  7  8  2  0
  8  9  1  0
  9 10  2  0
 10 11  1  0
 11 12  2  0
 12 13  1  0
 13 14  2  0
 14 15  1  0
 15 16  2  0
 16 17  1  0
 17 18  2  0
 18 19  1  0
 19 20  2  0
 20 21  1  0
 21 22  2  0
 21 23  1  0
 23 24  1  0
 24 25  1  0
 25 26  1  0
 26 27  1  0
 27 28  1  0
 28 29  1  0
 29 30  1  0
 10 31  1  0
 31 32  2  0
 32  7  1  0
 23 13  1  0
 30 25  1  0
 20 15  1  0
  1 33  1  0
  1 34  1  0
  1 35  1  0
  3 36  1  0
  3 37  1  0
  3 38  1  0
  8 39  1  0
  9 40  1  0
 11 41  1  0
 12 42  1  0
 16 43  1  0
 17 44  1  0
 18 45  1  0
 19 46  1  0
 24 47  1  0
 24 48  1  0
 25 49  1  0
 26 50  1  0
 26 51  1  0
 27 52  1  0
 27 53  1  0
 28 54  1  0
 28 55  1  0
 29 56  1  0
 29 57  1  0
 30 58  1  0
 30 59  1  0
 31 60  1  0
 32 61  1  0
M  END
>  <smiles>  (43) 
CN(C)S(=O)(=O)c1ccc(/C=C/c2nc3ccccc3c(=O)n2CC2CCCCC2)cc1

>  <score_type>  (43) 
oracle

>  <origin>  (43) 
autodockgpu

>  <m_score__min__energy>  (43) 
-9.4499999999999993

>  <m_primary>  (43) 
energy

>  <rmsd>  (43) 
10.450972523747865

>  <m_score__min__rmsd>  (43) 
10.450972523747865

>  <meeko>  (43) 
{"free_energy": -8.15, "intermolecular_energy": -10.23, "internal_energy": -2.06, "cluster_size": 11, "cluster_id": 4, "rank_in_cluster": 5}

>  <energy>  (43) 
-8.19

>  <cluster_rmsd>  (43) 
0.84

>  <cluster>  (43) 
7

$$$$

     RDKit          3D

 61 64  0  0  0  0  0  0  0  0999 V2000
  139.4880   69.9200  228.2110 C   0  0  0  0  0  0  0  0  0  0  0  0
  139.9620   68.5600  228.0820 N   0  0  0  0  0  0  0  0  0  0  0  0
  141.2620   68.4710  228.7100 C   0  0  0  0  0  0  0  0  0  0  0  0
  140.1530   68.1030  226.4280 S   0  0  0  0  0  0  0  0  0  0  0  0
  139.1210   67.0700  226.0930 O   0  0  0  0  0  0  0  0  0  0  0  0
  141.4960   67.4250  226.2720 O   0  0  0  0  0  0  0  0  0  0  0  0
  140.0320   69.4620  225.3380 C   0  0  0  0  0  0  0  0  0  0  0  0
  140.7940   70.6020  225.4770 C   0  0  0  0  0  0  0  0  0  0  0  0
  140.6890   71.6670  224.6070 C   0  0  0  0  0  0  0  0  0  0  0  0
  139.7910   71.6340  223.5310 C   0  0  0  0  0  0  0  0  0  0  0  0
  139.6950   72.7620  222.6280 C   0  0  0  0  0  0  0  0  0  0  0  0
  140.5390   73.0110  221.6440 C   0  0  0  0  0  0  0  0  0  0  0  0
  140.8910   74.3940  221.3230 C   0  0  0  0  0  0  0  0  0  0  0  0
  140.3960   75.3860  222.0830 N   0  0  0  0  0  0  0  0  0  0  0  0
  140.6420   76.6910  221.8990 C   0  0  0  0  0  0  0  0  0  0  0  0
  140.1160   77.6860  222.6990 C   0  0  0  0  0  0  0  0  0  0  0  0
  140.4010   79.0300  222.4670 C   0  0  0  0  0  0  0  0  0  0  0  0
  141.2250   79.3510  221.4140 C   0  0  0  0  0  0  0  0  0  0  0  0
  141.7460   78.3610  220.6210 C   0  0  0  0  0  0  0  0  0  0  0  0
  141.4680   77.0290  220.8460 C   0  0  0  0  0  0  0  0  0  0  0  0
  141.9700   76.0300  220.0740 C   0  0  0  0  0  0  0  0  0  0  0  0
  142.7310   76.3800  219.1080 O   0  0  0  0  0  0  0  0  0  0  0  0
  141.7000   74.7040  220.2900 N   0  0  0  0  0  0  0  0  0  0  0  0
  142.2530   73.7190  219.4620 C   0  0  0  0  0  0  0  0  0  0  0  0
  143.6760   73.5270  219.2710 C   0  0  0  0  0  0  0  0  0  0  0  0
  144.0340   72.0600  219.1790 C   0  0  0  0  0  0  0  0  0  0  0  0
  145.5380   71.8410  219.0620 C   0  0  0  0  0  0  0  0  0  0  0  0
  146.1330   72.2880  220.3800 C   0  0  0  0  0  0  0  0  0  0  0  0
  145.8570   73.7900  220.4700 C   0  0  0  0  0  0  0  0  0  0  0  0
  144.3590   73.9640  220.5870 C   0  0  0  0  0  0  0  0  0  0  0  0
  139.0450   70.4880  223.4140 C   0  0  0  0  0  0  0  0  0  0  0  0
  139.1440   69.4160  224.2830 C   0  0  0  0  0  0  0  0  0  0  0  0
  139.3983   70.1775  229.2767 H   0  0  0  0  0  0  0  0  0  0  0  0
  140.2007   70.6041  227.7272 H   0  0  0  0  0  0  0  0  0  0  0  0
  138.5045   70.0130  227.7272 H   0  0  0  0  0  0  0  0  0  0  0  0
  141.1423   68.4792  229.8034 H   0  0  0  0  0  0  0  0  0  0  0  0
  141.7548   67.5370  228.4021 H   0  0  0  0  0  0  0  0  0  0  0  0
  141.8775   69.3291  228.4021 H   0  0  0  0  0  0  0  0  0  0  0  0
  141.5099   70.6645  226.3098 H   0  0  0  0  0  0  0  0  0  0  0  0
  141.3192   72.5555  224.7597 H   0  0  0  0  0  0  0  0  0  0  0  0
  138.8586   73.4617  222.7724 H   0  0  0  0  0  0  0  0  0  0  0  0
  140.9757   72.1820  221.0679 H   0  0  0  0  0  0  0  0  0  0  0  0
  139.4582   77.4119  223.5370 H   0  0  0  0  0  0  0  0  0  0  0  0
  139.9772   79.8151  223.1105 H   0  0  0  0  0  0  0  0  0  0  0  0
  141.4667   80.4040  221.2074 H   0  0  0  0  0  0  0  0  0  0  0  0
  142.4032   78.6366  219.7831 H   0  0  0  0  0  0  0  0  0  0  0  0
  141.8713   72.7603  219.8431 H   0  0  0  0  0  0  0  0  0  0  0  0
  141.9568   74.0895  218.4695 H   0  0  0  0  0  0  0  0  0  0  0  0
  143.9749   74.0724  218.3637 H   0  0  0  0  0  0  0  0  0  0  0  0
  143.6708   71.5493  220.0830 H   0  0  0  0  0  0  0  0  0  0  0  0
  143.5618   71.6532  218.2726 H   0  0  0  0  0  0  0  0  0  0  0  0
  145.7560   70.7772  218.8863 H   0  0  0  0  0  0  0  0  0  0  0  0
  145.9612   72.4063  218.2186 H   0  0  0  0  0  0  0  0  0  0  0  0
  145.6531   71.7590  221.2166 H   0  0  0  0  0  0  0  0  0  0  0  0
  147.2095   72.0688  220.4348 H   0  0  0  0  0  0  0  0  0  0  0  0
  146.3556   74.2123  221.3549 H   0  0  0  0  0  0  0  0  0  0  0  0
  146.2421   74.3114  219.5813 H   0  0  0  0  0  0  0  0  0  0  0  0
  143.9834   73.3461  221.4159 H   0  0  0  0  0  0  0  0  0  0  0  0
  144.1306   75.0225  220.7803 H   0  0  0  0  0  0  0  0  0  0  0  0
  138.3281   70.4178  222.5826 H   0  0  0  0  0  0  0  0  0  0  0  0
  138.5144   68.5266  224.1328 H   0  0  0  0  0  0  0  0  0  0  0  0
  1  2  1  0
  2  3  1  0
  2  4  1  0
  4  5  2  0
  4  6  2  0
  4  7  1  0
  7  8  2  0
  8  9  1  0
  9 10  2  0
 10 11  1  0
 11 12  2  0
 12 13  1  0
 13 14  2  0
 14 15  1  0
 15 16  2  0
 16 17  1  0
 17 18  2  0
 18 19  1  0
 19 20  2  0
 20 21  1  0
 21 22  2  0
 21 23  1  0
 23 24  1  0
 24 25  1  0
 25 26  1  0
 26 27  1  0
 27 28  1  0
 28 29  1  0
 29 30  1  0
 10 31  1  0
 31 32  2  0
 32  7  1  0
 23 13  1  0
 30 25  1  0
 20 15  1  0
  1 33  1  0
  1 34  1  0
  1 35  1  0
  3 36  1  0
  3 37  1  0
  3 38  1  0
  8 39  1  0
  9 40  1  0
 11 41  1  0
 12 42  1  0
 16 43  1  0
 17 44  1  0
 18 45  1  0
 19 46  1  0
 24 47  1  0
 24 48  1  0
 25 49  1  0
 26 50  1  0
 26 51  1  0
 27 52  1  0
 27 53  1  0
 28 54  1  0
 28 55  1  0
 29 56  1  0
 29 57  1  0
 30 58  1  0
 30 59  1  0
 31 60  1  0
 32 61  1  0
M  END
>  <smiles>  (44) 
CN(C)S(=O)(=O)c1ccc(/C=C/c2nc3ccccc3c(=O)n2CC2CCCCC2)cc1

>  <score_type>  (44) 
oracle

>  <origin>  (44) 
autodockgpu

>  <m_score__min__energy>  (44) 
-9.4499999999999993

>  <m_primary>  (44) 
energy

>  <rmsd>  (44) 
5.532961771532992

>  <m_score__min__rmsd>  (44) 
5.532961771532992

>  <meeko>  (44) 
{"free_energy": -9.45, "intermolecular_energy": -11.54, "internal_energy": -1.38, "cluster_size": 5, "cluster_id": 1, "rank_in_cluster": 1}

>  <energy>  (44) 
-8.19

>  <cluster_rmsd>  (44) 
0.67

>  <cluster>  (44) 
7

$$$$

     RDKit          3D

 61 64  0  0  0  0  0  0  0  0999 V2000
  144.8050   73.7430  217.2060 C   0  0  0  0  0  0  0  0  0  0  0  0
  145.5990   72.6100  217.6280 N   0  0  0  0  0  0  0  0  0  0  0  0
  144.9570   71.4040  217.1550 C   0  0  0  0  0  0  0  0  0  0  0  0
  145.6980   72.5040  219.3490 S   0  0  0  0  0  0  0  0  0  0  0  0
  146.6340   73.5640  219.8430 O   0  0  0  0  0  0  0  0  0  0  0  0
  146.3300   71.1790  219.7110 O   0  0  0  0  0  0  0  0  0  0  0  0
  144.1390   72.6590  220.1210 C   0  0  0  0  0  0  0  0  0  0  0  0
  143.5010   73.8700  220.2820 C   0  0  0  0  0  0  0  0  0  0  0  0
  142.2690   73.9770  220.8920 C   0  0  0  0  0  0  0  0  0  0  0  0
  141.6060   72.8440  221.3820 C   0  0  0  0  0  0  0  0  0  0  0  0
  140.3120   72.9760  222.0200 C   0  0  0  0  0  0  0  0  0  0  0  0
  139.4850   71.9740  222.2560 C   0  0  0  0  0  0  0  0  0  0  0  0
  139.6060   71.2120  223.4990 C   0  0  0  0  0  0  0  0  0  0  0  0
  140.1720   71.7960  224.5700 N   0  0  0  0  0  0  0  0  0  0  0  0
  140.3390   71.2110  225.7650 C   0  0  0  0  0  0  0  0  0  0  0  0
  140.9250   71.8400  226.8460 C   0  0  0  0  0  0  0  0  0  0  0  0
  141.0780   71.1910  228.0680 C   0  0  0  0  0  0  0  0  0  0  0  0
  140.6300   69.8960  228.1800 C   0  0  0  0  0  0  0  0  0  0  0  0
  140.0490   69.2730  227.1060 C   0  0  0  0  0  0  0  0  0  0  0  0
  139.8950   69.9110  225.8930 C   0  0  0  0  0  0  0  0  0  0  0  0
  139.3230   69.3160  224.8130 C   0  0  0  0  0  0  0  0  0  0  0  0
  138.9230   68.1120  224.9680 O   0  0  0  0  0  0  0  0  0  0  0  0
  139.1650   69.9420  223.6050 N   0  0  0  0  0  0  0  0  0  0  0  0
  138.5630   69.2770  222.5300 C   0  0  0  0  0  0  0  0  0  0  0  0
  137.1350   69.2580  222.2860 C   0  0  0  0  0  0  0  0  0  0  0  0
  136.3620   69.8430  223.4470 C   0  0  0  0  0  0  0  0  0  0  0  0
  134.8550   69.7530  223.2390 C   0  0  0  0  0  0  0  0  0  0  0  0
  134.5130   68.2780  223.2680 C   0  0  0  0  0  0  0  0  0  0  0  0
  135.2180   67.6660  222.0560 C   0  0  0  0  0  0  0  0  0  0  0  0
  136.7060   67.7720  222.3020 C   0  0  0  0  0  0  0  0  0  0  0  0
  142.2600   71.6510  221.2090 C   0  0  0  0  0  0  0  0  0  0  0  0
  143.4960   71.5350  220.5990 C   0  0  0  0  0  0  0  0  0  0  0  0
  144.4301   74.2780  218.0910 H   0  0  0  0  0  0  0  0  0  0  0  0
  145.4261   74.4218  216.6030 H   0  0  0  0  0  0  0  0  0  0  0  0
  143.9550   73.3909  216.6030 H   0  0  0  0  0  0  0  0  0  0  0  0
  144.6348   70.7986  218.0151 H   0  0  0  0  0  0  0  0  0  0  0  0
  144.0811   71.6699  216.5450 H   0  0  0  0  0  0  0  0  0  0  0  0
  145.6667   70.8259  216.5450 H   0  0  0  0  0  0  0  0  0  0  0  0
  143.9913   74.7822  219.9113 H   0  0  0  0  0  0  0  0  0  0  0  0
  141.7997   74.9665  220.9955 H   0  0  0  0  0  0  0  0  0  0  0  0
  139.9958   73.9829  222.3300 H   0  0  0  0  0  0  0  0  0  0  0  0
  138.7088   71.7135  221.5215 H   0  0  0  0  0  0  0  0  0  0  0  0
  141.2784   72.8762  226.7390 H   0  0  0  0  0  0  0  0  0  0  0  0
  141.5457   71.7016  228.9227 H   0  0  0  0  0  0  0  0  0  0  0  0
  140.7381   69.3586  229.1337 H   0  0  0  0  0  0  0  0  0  0  0  0
  139.6962   68.2368  227.2145 H   0  0  0  0  0  0  0  0  0  0  0  0
  139.0147   69.7060  221.6234 H   0  0  0  0  0  0  0  0  0  0  0  0
  138.7417   68.2275  222.8069 H   0  0  0  0  0  0  0  0  0  0  0  0
  136.9409   69.8100  221.3545 H   0  0  0  0  0  0  0  0  0  0  0  0
  136.6268   69.2928  224.3620 H   0  0  0  0  0  0  0  0  0  0  0  0
  136.6287   70.9071  223.5283 H   0  0  0  0  0  0  0  0  0  0  0  0
  134.3263   70.2831  224.0449 H   0  0  0  0  0  0  0  0  0  0  0  0
  134.5527   70.2164  222.2883 H   0  0  0  0  0  0  0  0  0  0  0  0
  134.8790   67.8176  224.1976 H   0  0  0  0  0  0  0  0  0  0  0  0
  133.4261   68.1123  223.2321 H   0  0  0  0  0  0  0  0  0  0  0  0
  134.9288   66.6105  221.9453 H   0  0  0  0  0  0  0  0  0  0  0  0
  134.9367   68.1946  221.1333 H   0  0  0  0  0  0  0  0  0  0  0  0
  136.9464   67.3330  223.2815 H   0  0  0  0  0  0  0  0  0  0  0  0
  137.2445   67.2299  221.5107 H   0  0  0  0  0  0  0  0  0  0  0  0
  141.7743   70.7348  221.5760 H   0  0  0  0  0  0  0  0  0  0  0  0
  143.9668   70.5463  220.4947 H   0  0  0  0  0  0  0  0  0  0  0  0
  1  2  1  0
  2  3  1  0
  2  4  1  0
  4  5  2  0
  4  6  2  0
  4  7  1  0
  7  8  2  0
  8  9  1  0
  9 10  2  0
 10 11  1  0
 11 12  2  0
 12 13  1  0
 13 14  2  0
 14 15  1  0
 15 16  2  0
 16 17  1  0
 17 18  2  0
 18 19  1  0
 19 20  2  0
 20 21  1  0
 21 22  2  0
 21 23  1  0
 23 24  1  0
 24 25  1  0
 25 26  1  0
 26 27  1  0
 27 28  1  0
 28 29  1  0
 29 30  1  0
 10 31  1  0
 31 32  2  0
 32  7  1  0
 23 13  1  0
 30 25  1  0
 20 15  1  0
  1 33  1  0
  1 34  1  0
  1 35  1  0
  3 36  1  0
  3 37  1  0
  3 38  1  0
  8 39  1  0
  9 40  1  0
 11 41  1  0
 12 42  1  0
 16 43  1  0
 17 44  1  0
 18 45  1  0
 19 46  1  0
 24 47  1  0
 24 48  1  0
 25 49  1  0
 26 50  1  0
 26 51  1  0
 27 52  1  0
 27 53  1  0
 28 54  1  0
 28 55  1  0
 29 56  1  0
 29 57  1  0
 30 58  1  0
 30 59  1  0
 31 60  1  0
 32 61  1  0
M  END
>  <smiles>  (45) 
CN(C)S(=O)(=O)c1ccc(/C=C/c2nc3ccccc3c(=O)n2CC2CCCCC2)cc1

>  <score_type>  (45) 
oracle

>  <origin>  (45) 
autodockgpu

>  <m_score__min__energy>  (45) 
-9.4499999999999993

>  <m_primary>  (45) 
energy

>  <rmsd>  (45) 
11.346466295332604

>  <m_score__min__rmsd>  (45) 
11.346466295332604

>  <meeko>  (45) 
{"free_energy": -8.44, "intermolecular_energy": -10.52, "internal_energy": -1.63, "cluster_size": 6, "cluster_id": 5, "rank_in_cluster": 2}

>  <energy>  (45) 
-8.09

>  <cluster_rmsd>  (45) 
0.85

>  <cluster>  (45) 
7

$$$$

     RDKit          3D

 61 64  0  0  0  0  0  0  0  0999 V2000
  140.9420   67.8340  226.5790 C   0  0  0  0  0  0  0  0  0  0  0  0
  141.3590   68.7420  227.6240 N   0  0  0  0  0  0  0  0  0  0  0  0
  141.0440   68.1410  228.9010 C   0  0  0  0  0  0  0  0  0  0  0  0
  140.5160   70.2470  227.5370 S   0  0  0  0  0  0  0  0  0  0  0  0
  141.4100   71.3290  228.0610 O   0  0  0  0  0  0  0  0  0  0  0  0
  139.3310   70.1860  228.4760 O   0  0  0  0  0  0  0  0  0  0  0  0
  139.9840   70.6250  225.9180 C   0  0  0  0  0  0  0  0  0  0  0  0
  138.8620   70.0630  225.3490 C   0  0  0  0  0  0  0  0  0  0  0  0
  138.4520   70.3730  224.0690 C   0  0  0  0  0  0  0  0  0  0  0  0
  139.1700   71.2850  223.2830 C   0  0  0  0  0  0  0  0  0  0  0  0
  138.7250   71.5980  221.9410 C   0  0  0  0  0  0  0  0  0  0  0  0
  137.8330   72.5260  221.6420 C   0  0  0  0  0  0  0  0  0  0  0  0
  138.1090   73.9270  221.9600 C   0  0  0  0  0  0  0  0  0  0  0  0
  139.3160   74.4380  221.6580 N   0  0  0  0  0  0  0  0  0  0  0  0
  139.6950   75.7020  221.8920 C   0  0  0  0  0  0  0  0  0  0  0  0
  140.9440   76.1960  221.5700 C   0  0  0  0  0  0  0  0  0  0  0  0
  141.2920   77.5180  221.8330 C   0  0  0  0  0  0  0  0  0  0  0  0
  140.3570   78.3340  222.4270 C   0  0  0  0  0  0  0  0  0  0  0  0
  139.1180   77.8410  222.7470 C   0  0  0  0  0  0  0  0  0  0  0  0
  138.7680   76.5330  222.4880 C   0  0  0  0  0  0  0  0  0  0  0  0
  137.5470   76.0210  222.7950 C   0  0  0  0  0  0  0  0  0  0  0  0
  136.7140   76.8190  223.3460 O   0  0  0  0  0  0  0  0  0  0  0  0
  137.1900   74.7230  222.5420 N   0  0  0  0  0  0  0  0  0  0  0  0
  135.9140   74.2550  222.8770 C   0  0  0  0  0  0  0  0  0  0  0  0
  135.4890   73.9590  224.2310 C   0  0  0  0  0  0  0  0  0  0  0  0
  134.5560   72.7690  224.2760 C   0  0  0  0  0  0  0  0  0  0  0  0
  134.0360   72.4990  225.6830 C   0  0  0  0  0  0  0  0  0  0  0  0
  133.1550   73.6770  226.0400 C   0  0  0  0  0  0  0  0  0  0  0  0
  134.0860   74.8910  226.0810 C   0  0  0  0  0  0  0  0  0  0  0  0
  134.5770   75.1270  224.6700 C   0  0  0  0  0  0  0  0  0  0  0  0
  140.2820   71.8310  223.8720 C   0  0  0  0  0  0  0  0  0  0  0  0
  140.7000   71.5250  225.1550 C   0  0  0  0  0  0  0  0  0  0  0  0
  140.5234   66.9225  227.0307 H   0  0  0  0  0  0  0  0  0  0  0  0
  140.1765   68.3191  225.9556 H   0  0  0  0  0  0  0  0  0  0  0  0
  141.8089   67.5695  225.9556 H   0  0  0  0  0  0  0  0  0  0  0  0
  141.3893   68.7998  229.7114 H   0  0  0  0  0  0  0  0  0  0  0  0
  139.9561   68.0000  228.9815 H   0  0  0  0  0  0  0  0  0  0  0  0
  141.5471   67.1661  228.9815 H   0  0  0  0  0  0  0  0  0  0  0  0
  138.2731   69.3425  225.9356 H   0  0  0  0  0  0  0  0  0  0  0  0
  137.5486   69.8977  223.6591 H   0  0  0  0  0  0  0  0  0  0  0  0
  139.1606   71.0221  221.1112 H   0  0  0  0  0  0  0  0  0  0  0  0
  136.8867   72.2461  221.1559 H   0  0  0  0  0  0  0  0  0  0  0  0
  141.6798   75.5302  221.0954 H   0  0  0  0  0  0  0  0  0  0  0  0
  142.2898   77.9007  221.5723 H   0  0  0  0  0  0  0  0  0  0  0  0
  140.6037   79.3835  222.6456 H   0  0  0  0  0  0  0  0  0  0  0  0
  138.3836   78.5072  223.2232 H   0  0  0  0  0  0  0  0  0  0  0  0
  135.2105   75.0132  222.5026 H   0  0  0  0  0  0  0  0  0  0  0  0
  135.9401   73.2456  222.4405 H   0  0  0  0  0  0  0  0  0  0  0  0
  136.3881   73.7885  224.8414 H   0  0  0  0  0  0  0  0  0  0  0  0
  133.7001   72.9645  223.6133 H   0  0  0  0  0  0  0  0  0  0  0  0
  135.1211   71.8838  223.9488 H   0  0  0  0  0  0  0  0  0  0  0  0
  133.4524   71.5667  225.7016 H   0  0  0  0  0  0  0  0  0  0  0  0
  134.8617   72.3835  226.4006 H   0  0  0  0  0  0  0  0  0  0  0  0
  132.3745   73.8175  225.2777 H   0  0  0  0  0  0  0  0  0  0  0  0
  132.6426   73.5249  227.0014 H   0  0  0  0  0  0  0  0  0  0  0  0
  133.5381   75.7739  226.4418 H   0  0  0  0  0  0  0  0  0  0  0  0
  134.9303   74.7123  226.7631 H   0  0  0  0  0  0  0  0  0  0  0  0
  133.7152   75.1930  223.9897 H   0  0  0  0  0  0  0  0  0  0  0  0
  135.1483   76.0664  224.6365 H   0  0  0  0  0  0  0  0  0  0  0  0
  140.8750   72.5530  223.2914 H   0  0  0  0  0  0  0  0  0  0  0  0
  141.6031   71.9991  225.5669 H   0  0  0  0  0  0  0  0  0  0  0  0
  1  2  1  0
  2  3  1  0
  2  4  1  0
  4  5  2  0
  4  6  2  0
  4  7  1  0
  7  8  2  0
  8  9  1  0
  9 10  2  0
 10 11  1  0
 11 12  2  0
 12 13  1  0
 13 14  2  0
 14 15  1  0
 15 16  2  0
 16 17  1  0
 17 18  2  0
 18 19  1  0
 19 20  2  0
 20 21  1  0
 21 22  2  0
 21 23  1  0
 23 24  1  0
 24 25  1  0
 25 26  1  0
 26 27  1  0
 27 28  1  0
 28 29  1  0
 29 30  1  0
 10 31  1  0
 31 32  2  0
 32  7  1  0
 23 13  1  0
 30 25  1  0
 20 15  1  0
  1 33  1  0
  1 34  1  0
  1 35  1  0
  3 36  1  0
  3 37  1  0
  3 38  1  0
  8 39  1  0
  9 40  1  0
 11 41  1  0
 12 42  1  0
 16 43  1  0
 17 44  1  0
 18 45  1  0
 19 46  1  0
 24 47  1  0
 24 48  1  0
 25 49  1  0
 26 50  1  0
 26 51  1  0
 27 52  1  0
 27 53  1  0
 28 54  1  0
 28 55  1  0
 29 56  1  0
 29 57  1  0
 30 58  1  0
 30 59  1  0
 31 60  1  0
 32 61  1  0
M  END
>  <smiles>  (46) 
CN(C)S(=O)(=O)c1ccc(/C=C/c2nc3ccccc3c(=O)n2CC2CCCCC2)cc1

>  <score_type>  (46) 
oracle

>  <origin>  (46) 
autodockgpu

>  <m_score__min__energy>  (46) 
-9.4499999999999993

>  <m_primary>  (46) 
energy

>  <rmsd>  (46) 
7.814799409212855

>  <m_score__min__rmsd>  (46) 
7.814799409212855

>  <meeko>  (46) 
{"free_energy": -8.07, "intermolecular_energy": -10.16, "internal_energy": -1.85, "cluster_size": 6, "cluster_id": 3, "rank_in_cluster": 5}

>  <energy>  (46) 
-7.76

>  <cluster_rmsd>  (46) 
0.0

>  <cluster>  (46) 
8

$$$$

     RDKit          3D

 61 64  0  0  0  0  0  0  0  0999 V2000
  140.2810   70.5650  227.9280 C   0  0  0  0  0  0  0  0  0  0  0  0
  139.8790   69.1780  227.8520 N   0  0  0  0  0  0  0  0  0  0  0  0
  140.7060   68.4150  228.7600 C   0  0  0  0  0  0  0  0  0  0  0  0
  140.1140   68.5310  226.2680 S   0  0  0  0  0  0  0  0  0  0  0  0
  139.1680   67.3860  226.0720 O   0  0  0  0  0  0  0  0  0  0  0  0
  141.5070   67.9460  226.1930 O   0  0  0  0  0  0  0  0  0  0  0  0
  139.8930   69.7260  225.0150 C   0  0  0  0  0  0  0  0  0  0  0  0
  138.8070   69.7280  224.1660 C   0  0  0  0  0  0  0  0  0  0  0  0
  138.6450   70.6810  223.1810 C   0  0  0  0  0  0  0  0  0  0  0  0
  139.5910   71.6990  223.0000 C   0  0  0  0  0  0  0  0  0  0  0  0
  139.4040   72.6900  221.9610 C   0  0  0  0  0  0  0  0  0  0  0  0
  138.3340   73.4540  221.8340 C   0  0  0  0  0  0  0  0  0  0  0  0
  138.4150   74.8770  222.1640 C   0  0  0  0  0  0  0  0  0  0  0  0
  139.6260   75.4450  222.3080 N   0  0  0  0  0  0  0  0  0  0  0  0
  139.8380   76.7340  222.6050 C   0  0  0  0  0  0  0  0  0  0  0  0
  141.0960   77.2860  222.7460 C   0  0  0  0  0  0  0  0  0  0  0  0
  141.2670   78.6330  223.0560 C   0  0  0  0  0  0  0  0  0  0  0  0
  140.1460   79.4130  223.2210 C   0  0  0  0  0  0  0  0  0  0  0  0
  138.8990   78.8620  223.0820 C   0  0  0  0  0  0  0  0  0  0  0  0
  138.7230   77.5290  222.7740 C   0  0  0  0  0  0  0  0  0  0  0  0
  137.4980   76.9600  222.6310 C   0  0  0  0  0  0  0  0  0  0  0  0
  136.4880   77.7260  222.7950 O   0  0  0  0  0  0  0  0  0  0  0  0
  137.3140   75.6370  222.3250 N   0  0  0  0  0  0  0  0  0  0  0  0
  136.0240   75.1090  222.1860 C   0  0  0  0  0  0  0  0  0  0  0  0
  135.0540   75.0450  223.2600 C   0  0  0  0  0  0  0  0  0  0  0  0
  135.6970   75.2860  224.6080 C   0  0  0  0  0  0  0  0  0  0  0  0
  134.7030   75.1380  225.7540 C   0  0  0  0  0  0  0  0  0  0  0  0
  134.3080   73.6770  225.7840 C   0  0  0  0  0  0  0  0  0  0  0  0
  133.5830   73.4170  224.4620 C   0  0  0  0  0  0  0  0  0  0  0  0
  134.6010   73.5700  223.3550 C   0  0  0  0  0  0  0  0  0  0  0  0
  140.6620   71.6760  223.8570 C   0  0  0  0  0  0  0  0  0  0  0  0
  140.8320   70.7240  224.8470 C   0  0  0  0  0  0  0  0  0  0  0  0
  140.3678   70.8643  228.9829 H   0  0  0  0  0  0  0  0  0  0  0  0
  141.2532   70.6928  227.4294 H   0  0  0  0  0  0  0  0  0  0  0  0
  139.5279   71.1929  227.4294 H   0  0  0  0  0  0  0  0  0  0  0  0
  140.4370   68.6631  229.7973 H   0  0  0  0  0  0  0  0  0  0  0  0
  140.5460   67.3406  228.5867 H   0  0  0  0  0  0  0  0  0  0  0  0
  141.7641   68.6608  228.5867 H   0  0  0  0  0  0  0  0  0  0  0  0
  138.0439   68.9436  224.2773 H   0  0  0  0  0  0  0  0  0  0  0  0
  137.7604   70.6410  222.5284 H   0  0  0  0  0  0  0  0  0  0  0  0
  140.2112   72.8157  221.2243 H   0  0  0  0  0  0  0  0  0  0  0  0
  137.3858   73.0220  221.4815 H   0  0  0  0  0  0  0  0  0  0  0  0
  141.9819   76.6482  222.6106 H   0  0  0  0  0  0  0  0  0  0  0  0
  142.2737   79.0626  223.1662 H   0  0  0  0  0  0  0  0  0  0  0  0
  140.2507   80.4805  223.4648 H   0  0  0  0  0  0  0  0  0  0  0  0
  138.0139   79.5004  223.2199 H   0  0  0  0  0  0  0  0  0  0  0  0
  135.5463   75.6958  221.3876 H   0  0  0  0  0  0  0  0  0  0  0  0
  136.2495   74.0417  222.0445 H   0  0  0  0  0  0  0  0  0  0  0  0
  134.2655   75.7833  223.0523 H   0  0  0  0  0  0  0  0  0  0  0  0
  136.5101   74.5585  224.7479 H   0  0  0  0  0  0  0  0  0  0  0  0
  136.0771   76.3181  224.6215 H   0  0  0  0  0  0  0  0  0  0  0  0
  135.1730   75.4256  226.7060 H   0  0  0  0  0  0  0  0  0  0  0  0
  133.8267   75.7874  225.6111 H   0  0  0  0  0  0  0  0  0  0  0  0
  135.2011   73.0398  225.8634 H   0  0  0  0  0  0  0  0  0  0  0  0
  133.6693   73.4468  226.6495 H   0  0  0  0  0  0  0  0  0  0  0  0
  133.1680   72.3983  224.4540 H   0  0  0  0  0  0  0  0  0  0  0  0
  132.7514   74.1243  224.3276 H   0  0  0  0  0  0  0  0  0  0  0  0
  135.4722   72.9336  223.5695 H   0  0  0  0  0  0  0  0  0  0  0  0
  134.1470   73.2674  222.3999 H   0  0  0  0  0  0  0  0  0  0  0  0
  141.4285   72.4579  223.7514 H   0  0  0  0  0  0  0  0  0  0  0  0
  141.7160   70.7625  225.5005 H   0  0  0  0  0  0  0  0  0  0  0  0
  1  2  1  0
  2  3  1  0
  2  4  1  0
  4  5  2  0
  4  6  2  0
  4  7  1  0
  7  8  2  0
  8  9  1  0
  9 10  2  0
 10 11  1  0
 11 12  2  0
 12 13  1  0
 13 14  2  0
 14 15  1  0
 15 16  2  0
 16 17  1  0
 17 18  2  0
 18 19  1  0
 19 20  2  0
 20 21  1  0
 21 22  2  0
 21 23  1  0
 23 24  1  0
 24 25  1  0
 25 26  1  0
 26 27  1  0
 27 28  1  0
 28 29  1  0
 29 30  1  0
 10 31  1  0
 31 32  2  0
 32  7  1  0
 23 13  1  0
 30 25  1  0
 20 15  1  0
  1 33  1  0
  1 34  1  0
  1 35  1  0
  3 36  1  0
  3 37  1  0
  3 38  1  0
  8 39  1  0
  9 40  1  0
 11 41  1  0
 12 42  1  0
 16 43  1  0
 17 44  1  0
 18 45  1  0
 19 46  1  0
 24 47  1  0
 24 48  1  0
 25 49  1  0
 26 50  1  0
 26 51  1  0
 27 52  1  0
 27 53  1  0
 28 54  1  0
 28 55  1  0
 29 56  1  0
 29 57  1  0
 30 58  1  0
 30 59  1  0
 31 60  1  0
 32 61  1  0
M  END
>  <smiles>  (47) 
CN(C)S(=O)(=O)c1ccc(/C=C/c2nc3ccccc3c(=O)n2CC2CCCCC2)cc1

>  <score_type>  (47) 
oracle

>  <origin>  (47) 
autodockgpu

>  <m_score__min__energy>  (47) 
-9.4499999999999993

>  <m_primary>  (47) 
energy

>  <rmsd>  (47) 
7.048067566322558

>  <m_score__min__rmsd>  (47) 
7.048067566322558

>  <meeko>  (47) 
{"free_energy": -8.68, "intermolecular_energy": -10.77, "internal_energy": -1.58, "cluster_size": 6, "cluster_id": 3, "rank_in_cluster": 1}

>  <energy>  (47) 
-7.68

>  <cluster_rmsd>  (47) 
0.0

>  <cluster>  (47) 
9

$$$$

     RDKit          3D

 61 64  0  0  0  0  0  0  0  0999 V2000
  144.0790   70.6310  219.3540 C   0  0  0  0  0  0  0  0  0  0  0  0
  144.2030   71.4680  220.5260 N   0  0  0  0  0  0  0  0  0  0  0  0
  142.8800   71.9090  220.9110 C   0  0  0  0  0  0  0  0  0  0  0  0
  145.1470   72.8790  220.2090 S   0  0  0  0  0  0  0  0  0  0  0  0
  146.3110   72.4930  219.3480 O   0  0  0  0  0  0  0  0  0  0  0  0
  145.7310   73.3680  221.5150 O   0  0  0  0  0  0  0  0  0  0  0  0
  144.2200   74.1490  219.4490 C   0  0  0  0  0  0  0  0  0  0  0  0
  143.5920   73.9920  218.2330 C   0  0  0  0  0  0  0  0  0  0  0  0
  142.8620   75.0040  217.6450 C   0  0  0  0  0  0  0  0  0  0  0  0
  142.7280   76.2520  218.2700 C   0  0  0  0  0  0  0  0  0  0  0  0
  141.9570   77.3030  217.6380 C   0  0  0  0  0  0  0  0  0  0  0  0
  141.0410   78.0330  218.2470 C   0  0  0  0  0  0  0  0  0  0  0  0
  141.1030   78.2130  219.6970 C   0  0  0  0  0  0  0  0  0  0  0  0
  141.7690   79.2700  220.1960 N   0  0  0  0  0  0  0  0  0  0  0  0
  141.8980   79.5510  221.5000 C   0  0  0  0  0  0  0  0  0  0  0  0
  142.5890   80.6470  221.9780 C   0  0  0  0  0  0  0  0  0  0  0  0
  142.6970   80.8970  223.3440 C   0  0  0  0  0  0  0  0  0  0  0  0
  142.0950   80.0220  224.2180 C   0  0  0  0  0  0  0  0  0  0  0  0
  141.4100   78.9350  223.7400 C   0  0  0  0  0  0  0  0  0  0  0  0
  141.2990   78.6820  222.3890 C   0  0  0  0  0  0  0  0  0  0  0  0
  140.6260   77.6120  221.8910 C   0  0  0  0  0  0  0  0  0  0  0  0
  140.0840   76.8290  222.7440 O   0  0  0  0  0  0  0  0  0  0  0  0
  140.5120   77.3530  220.5510 N   0  0  0  0  0  0  0  0  0  0  0  0
  139.8000   76.2350  220.0980 C   0  0  0  0  0  0  0  0  0  0  0  0
  140.2390   74.8670  220.2800 C   0  0  0  0  0  0  0  0  0  0  0  0
  139.7220   73.9630  219.1830 C   0  0  0  0  0  0  0  0  0  0  0  0
  140.1070   72.5060  219.4090 C   0  0  0  0  0  0  0  0  0  0  0  0
  139.3560   72.0580  220.6450 C   0  0  0  0  0  0  0  0  0  0  0  0
  139.9130   72.9010  221.7940 C   0  0  0  0  0  0  0  0  0  0  0  0
  139.5080   74.3350  221.5350 C   0  0  0  0  0  0  0  0  0  0  0  0
  143.3610   76.3840  219.4790 C   0  0  0  0  0  0  0  0  0  0  0  0
  144.0960   75.3730  220.0740 C   0  0  0  0  0  0  0  0  0  0  0  0
  143.9243   69.5869  219.6638 H   0  0  0  0  0  0  0  0  0  0  0  0
  143.2207   70.9662  218.7532 H   0  0  0  0  0  0  0  0  0  0  0  0
  144.9976   70.7029  218.7532 H   0  0  0  0  0  0  0  0  0  0  0  0
  142.8065   71.9335  222.0083 H   0  0  0  0  0  0  0  0  0  0  0  0
  142.6978   72.9165  220.5087 H   0  0  0  0  0  0  0  0  0  0  0  0
  142.1298   71.2123  220.5087 H   0  0  0  0  0  0  0  0  0  0  0  0
  143.6755   73.0263  217.7130 H   0  0  0  0  0  0  0  0  0  0  0  0
  142.3784   74.8296  216.6725 H   0  0  0  0  0  0  0  0  0  0  0  0
  142.1485   77.5075  216.5743 H   0  0  0  0  0  0  0  0  0  0  0  0
  140.2343   78.5040  217.6661 H   0  0  0  0  0  0  0  0  0  0  0  0
  143.0640   81.3370  221.2651 H   0  0  0  0  0  0  0  0  0  0  0  0
  143.2501   81.7726  223.7147 H   0  0  0  0  0  0  0  0  0  0  0  0
  142.1633   80.1947  225.3022 H   0  0  0  0  0  0  0  0  0  0  0  0
  140.9358   78.2455  224.4539 H   0  0  0  0  0  0  0  0  0  0  0  0
  138.8115   76.2971  220.5766 H   0  0  0  0  0  0  0  0  0  0  0  0
  139.9074   76.3459  219.0089 H   0  0  0  0  0  0  0  0  0  0  0  0
  141.3383   74.8640  220.3189 H   0  0  0  0  0  0  0  0  0  0  0  0
  138.6251   74.0385  219.1492 H   0  0  0  0  0  0  0  0  0  0  0  0
  140.1749   74.2890  218.2351 H   0  0  0  0  0  0  0  0  0  0  0  0
  139.8139   71.8952  218.5423 H   0  0  0  0  0  0  0  0  0  0  0  0
  141.1937   72.3936  219.5373 H   0  0  0  0  0  0  0  0  0  0  0  0
  138.2774   72.2376  220.5250 H   0  0  0  0  0  0  0  0  0  0  0  0
  139.4844   70.9815  220.8310 H   0  0  0  0  0  0  0  0  0  0  0  0
  139.4929   72.5579  222.7510 H   0  0  0  0  0  0  0  0  0  0  0  0
  141.0077   72.8089  221.8504 H   0  0  0  0  0  0  0  0  0  0  0  0
  138.4211   74.3840  221.3728 H   0  0  0  0  0  0  0  0  0  0  0  0
  139.7812   74.9522  222.4036 H   0  0  0  0  0  0  0  0  0  0  0  0
  143.2803   77.3465  220.0053 H   0  0  0  0  0  0  0  0  0  0  0  0
  144.5816   75.5455  221.0458 H   0  0  0  0  0  0  0  0  0  0  0  0
  1  2  1  0
  2  3  1  0
  2  4  1  0
  4  5  2  0
  4  6  2  0
  4  7  1  0
  7  8  2  0
  8  9  1  0
  9 10  2  0
 10 11  1  0
 11 12  2  0
 12 13  1  0
 13 14  2  0
 14 15  1  0
 15 16  2  0
 16 17  1  0
 17 18  2  0
 18 19  1  0
 19 20  2  0
 20 21  1  0
 21 22  2  0
 21 23  1  0
 23 24  1  0
 24 25  1  0
 25 26  1  0
 26 27  1  0
 27 28  1  0
 28 29  1  0
 29 30  1  0
 10 31  1  0
 31 32  2  0
 32  7  1  0
 23 13  1  0
 30 25  1  0
 20 15  1  0
  1 33  1  0
  1 34  1  0
  1 35  1  0
  3 36  1  0
  3 37  1  0
  3 38  1  0
  8 39  1  0
  9 40  1  0
 11 41  1  0
 12 42  1  0
 16 43  1  0
 17 44  1  0
 18 45  1  0
 19 46  1  0
 24 47  1  0
 24 48  1  0
 25 49  1  0
 26 50  1  0
 26 51  1  0
 27 52  1  0
 27 53  1  0
 28 54  1  0
 28 55  1  0
 29 56  1  0
 29 57  1  0
 30 58  1  0
 30 59  1  0
 31 60  1  0
 32 61  1  0
M  END
>  <smiles>  (48) 
CN(C)S(=O)(=O)c1ccc(/C=C/c2nc3ccccc3c(=O)n2CC2CCCCC2)cc1

>  <score_type>  (48) 
oracle

>  <origin>  (48) 
autodockgpu

>  <m_score__min__energy>  (48) 
-9.4499999999999993

>  <m_primary>  (48) 
energy

>  <rmsd>  (48) 
3.963764434359977

>  <m_score__min__rmsd>  (48) 
3.963764434359977

>  <meeko>  (48) 
{"free_energy": -7.14, "intermolecular_energy": -9.23, "internal_energy": -2.63, "cluster_size": 3, "cluster_id": 9, "rank_in_cluster": 2}

>  <energy>  (48) 
-7.14

>  <cluster_rmsd>  (48) 
1.8

>  <cluster>  (48) 
9

$$$$

     RDKit          3D

 61 64  0  0  0  0  0  0  0  0999 V2000
  131.3240   73.1750  227.1010 C   0  0  0  0  0  0  0  0  0  0  0  0
  132.0150   72.2660  226.2130 N   0  0  0  0  0  0  0  0  0  0  0  0
  131.5250   70.9280  226.4630 C   0  0  0  0  0  0  0  0  0  0  0  0
  133.7170   72.2570  226.5040 S   0  0  0  0  0  0  0  0  0  0  0  0
  133.9570   71.8900  227.9360 O   0  0  0  0  0  0  0  0  0  0  0  0
  134.2380   73.6660  226.3350 O   0  0  0  0  0  0  0  0  0  0  0  0
  134.5730   71.1660  225.4420 C   0  0  0  0  0  0  0  0  0  0  0  0
  134.7140   69.8210  225.7080 C   0  0  0  0  0  0  0  0  0  0  0  0
  135.3910   68.9700  224.8600 C   0  0  0  0  0  0  0  0  0  0  0  0
  135.9730   69.4450  223.6760 C   0  0  0  0  0  0  0  0  0  0  0  0
  136.6810   68.5370  222.7970 C   0  0  0  0  0  0  0  0  0  0  0  0
  137.9920   68.3790  222.7780 C   0  0  0  0  0  0  0  0  0  0  0  0
  138.8010   68.8890  223.8850 C   0  0  0  0  0  0  0  0  0  0  0  0
  138.8570   68.1860  225.0310 N   0  0  0  0  0  0  0  0  0  0  0  0
  139.5600   68.5400  226.1150 C   0  0  0  0  0  0  0  0  0  0  0  0
  139.5960   67.7940  227.2770 C   0  0  0  0  0  0  0  0  0  0  0  0
  140.3420   68.2030  228.3800 C   0  0  0  0  0  0  0  0  0  0  0  0
  141.0510   69.3780  228.2890 C   0  0  0  0  0  0  0  0  0  0  0  0
  141.0140   70.1170  227.1340 C   0  0  0  0  0  0  0  0  0  0  0  0
  140.2770   69.7170  226.0400 C   0  0  0  0  0  0  0  0  0  0  0  0
  140.2230   70.4310  224.8850 C   0  0  0  0  0  0  0  0  0  0  0  0
  140.9000   71.5150  224.8500 O   0  0  0  0  0  0  0  0  0  0  0  0
  139.4950   70.0410  223.7920 N   0  0  0  0  0  0  0  0  0  0  0  0
  139.4830   70.8180  222.6270 C   0  0  0  0  0  0  0  0  0  0  0  0
  139.4790   72.2680  222.6200 C   0  0  0  0  0  0  0  0  0  0  0  0
  138.2420   72.8190  221.9480 C   0  0  0  0  0  0  0  0  0  0  0  0
  138.2650   74.3400  221.8590 C   0  0  0  0  0  0  0  0  0  0  0  0
  139.3920   74.6900  220.9100 C   0  0  0  0  0  0  0  0  0  0  0  0
  140.6730   74.2140  221.5980 C   0  0  0  0  0  0  0  0  0  0  0  0
  140.6130   72.7050  221.6640 C   0  0  0  0  0  0  0  0  0  0  0  0
  135.8190   70.7870  223.4340 C   0  0  0  0  0  0  0  0  0  0  0  0
  135.1410   71.6460  224.2800 C   0  0  0  0  0  0  0  0  0  0  0  0
  131.5341   72.8986  228.1448 H   0  0  0  0  0  0  0  0  0  0  0  0
  131.6712   74.2024  226.9168 H   0  0  0  0  0  0  0  0  0  0  0  0
  130.2412   73.1153  226.9168 H   0  0  0  0  0  0  0  0  0  0  0  0
  131.4624   70.7572  227.5478 H   0  0  0  0  0  0  0  0  0  0  0  0
  130.5266   70.8136  226.0156 H   0  0  0  0  0  0  0  0  0  0  0  0
  132.2134   70.1959  226.0156 H   0  0  0  0  0  0  0  0  0  0  0  0
  134.2713   69.4123  226.6283 H   0  0  0  0  0  0  0  0  0  0  0  0
  135.4757   67.9036  225.1160 H   0  0  0  0  0  0  0  0  0  0  0  0
  136.0840   67.9362  222.0952 H   0  0  0  0  0  0  0  0  0  0  0  0
  138.4739   67.8657  221.9328 H   0  0  0  0  0  0  0  0  0  0  0  0
  139.0231   66.8566  227.3325 H   0  0  0  0  0  0  0  0  0  0  0  0
  140.3635   67.6014  229.3006 H   0  0  0  0  0  0  0  0  0  0  0  0
  141.6490   69.7259  229.1442 H   0  0  0  0  0  0  0  0  0  0  0  0
  141.5878   71.0539  227.0793 H   0  0  0  0  0  0  0  0  0  0  0  0
  140.3772   70.5195  222.0602 H   0  0  0  0  0  0  0  0  0  0  0  0
  138.4747   70.6040  222.2430 H   0  0  0  0  0  0  0  0  0  0  0  0
  139.5598   72.6151  223.6607 H   0  0  0  0  0  0  0  0  0  0  0  0
  138.1774   72.4055  220.9307 H   0  0  0  0  0  0  0  0  0  0  0  0
  137.3708   72.5291  222.5538 H   0  0  0  0  0  0  0  0  0  0  0  0
  137.3072   74.7137  221.4680 H   0  0  0  0  0  0  0  0  0  0  0  0
  138.4166   74.7974  222.8478 H   0  0  0  0  0  0  0  0  0  0  0  0
  139.2582   74.1734  219.9481 H   0  0  0  0  0  0  0  0  0  0  0  0
  139.4225   75.7683  220.6949 H   0  0  0  0  0  0  0  0  0  0  0  0
  141.5521   74.5309  221.0177 H   0  0  0  0  0  0  0  0  0  0  0  0
  140.7570   74.6451  222.6065 H   0  0  0  0  0  0  0  0  0  0  0  0
  140.4187   72.3028  220.6588 H   0  0  0  0  0  0  0  0  0  0  0  0
  141.5728   72.3191  222.0381 H   0  0  0  0  0  0  0  0  0  0  0  0
  136.2594   71.2029  222.5158 H   0  0  0  0  0  0  0  0  0  0  0  0
  135.0546   72.7128  224.0260 H   0  0  0  0  0  0  0  0  0  0  0  0
  1  2  1  0
  2  3  1  0
  2  4  1  0
  4  5  2  0
  4  6  2  0
  4  7  1  0
  7  8  2  0
  8  9  1  0
  9 10  2  0
 10 11  1  0
 11 12  2  0
 12 13  1  0
 13 14  2  0
 14 15  1  0
 15 16  2  0
 16 17  1  0
 17 18  2  0
 18 19  1  0
 19 20  2  0
 20 21  1  0
 21 22  2  0
 21 23  1  0
 23 24  1  0
 24 25  1  0
 25 26  1  0
 26 27  1  0
 27 28  1  0
 28 29  1  0
 29 30  1  0
 10 31  1  0
 31 32  2  0
 32  7  1  0
 23 13  1  0
 30 25  1  0
 20 15  1  0
  1 33  1  0
  1 34  1  0
  1 35  1  0
  3 36  1  0
  3 37  1  0
  3 38  1  0
  8 39  1  0
  9 40  1  0
 11 41  1  0
 12 42  1  0
 16 43  1  0
 17 44  1  0
 18 45  1  0
 19 46  1  0
 24 47  1  0
 24 48  1  0
 25 49  1  0
 26 50  1  0
 26 51  1  0
 27 52  1  0
 27 53  1  0
 28 54  1  0
 28 55  1  0
 29 56  1  0
 29 57  1  0
 30 58  1  0
 30 59  1  0
 31 60  1  0
 32 61  1  0
M  END
>  <smiles>  (49) 
CN(C)S(=O)(=O)c1ccc(/C=C/c2nc3ccccc3c(=O)n2CC2CCCCC2)cc1

>  <score_type>  (49) 
oracle

>  <origin>  (49) 
autodockgpu

>  <m_score__min__energy>  (49) 
-9.4499999999999993

>  <m_primary>  (49) 
energy

>  <rmsd>  (49) 
10.469124568910093

>  <m_score__min__rmsd>  (49) 
10.469124568910093

>  <meeko>  (49) 
{"free_energy": -8.19, "intermolecular_energy": -10.28, "internal_energy": -2.08, "cluster_size": 11, "cluster_id": 4, "rank_in_cluster": 4}

>  <energy>  (49) 
-7.12

>  <cluster_rmsd>  (49) 
1.85

>  <cluster>  (49) 
9

$$$$

     RDKit          3D

 61 64  0  0  0  0  0  0  0  0999 V2000
  142.1800   79.4600  223.7900 C   0  0  0  0  0  0  0  0  0  0  0  0
  141.7190   79.3800  222.4220 N   0  0  0  0  0  0  0  0  0  0  0  0
  141.8020   80.7010  221.8380 C   0  0  0  0  0  0  0  0  0  0  0  0
  140.0700   78.8770  222.3310 S   0  0  0  0  0  0  0  0  0  0  0  0
  139.4200   79.5660  221.1710 O   0  0  0  0  0  0  0  0  0  0  0  0
  139.3510   79.3650  223.5690 O   0  0  0  0  0  0  0  0  0  0  0  0
  139.9040   77.1440  222.1820 C   0  0  0  0  0  0  0  0  0  0  0  0
  140.9590   76.3170  221.8610 C   0  0  0  0  0  0  0  0  0  0  0  0
  140.8140   74.9500  221.7490 C   0  0  0  0  0  0  0  0  0  0  0  0
  139.5710   74.3370  221.9590 C   0  0  0  0  0  0  0  0  0  0  0  0
  139.4380   72.9000  221.8370 C   0  0  0  0  0  0  0  0  0  0  0  0
  140.3540   72.0260  222.2120 C   0  0  0  0  0  0  0  0  0  0  0  0
  140.2070   71.3230  223.4860 C   0  0  0  0  0  0  0  0  0  0  0  0
  140.7010   71.8870  224.6030 N   0  0  0  0  0  0  0  0  0  0  0  0
  140.6300   71.3510  225.8300 C   0  0  0  0  0  0  0  0  0  0  0  0
  141.1490   71.9570  226.9570 C   0  0  0  0  0  0  0  0  0  0  0  0
  141.0510   71.3610  228.2120 C   0  0  0  0  0  0  0  0  0  0  0  0
  140.4210   70.1420  228.3080 C   0  0  0  0  0  0  0  0  0  0  0  0
  139.9070   69.5430  227.1880 C   0  0  0  0  0  0  0  0  0  0  0  0
  140.0000   70.1290  225.9430 C   0  0  0  0  0  0  0  0  0  0  0  0
  139.4990   69.5550  224.8180 C   0  0  0  0  0  0  0  0  0  0  0  0
  138.9230   68.4230  224.9600 O   0  0  0  0  0  0  0  0  0  0  0  0
  139.5880   70.1290  223.5770 N   0  0  0  0  0  0  0  0  0  0  0  0
  139.0470   69.4900  222.4540 C   0  0  0  0  0  0  0  0  0  0  0  0
  137.6390   69.5080  222.1110 C   0  0  0  0  0  0  0  0  0  0  0  0
  136.8710   70.5030  222.9530 C   0  0  0  0  0  0  0  0  0  0  0  0
  135.3760   70.4720  222.6610 C   0  0  0  0  0  0  0  0  0  0  0  0
  134.8820   69.1220  223.1350 C   0  0  0  0  0  0  0  0  0  0  0  0
  135.5820   68.0900  222.2480 C   0  0  0  0  0  0  0  0  0  0  0  0
  137.0580   68.1500  222.5700 C   0  0  0  0  0  0  0  0  0  0  0  0
  138.5380   75.1810  222.2780 C   0  0  0  0  0  0  0  0  0  0  0  0
  138.6750   76.5540  222.3920 C   0  0  0  0  0  0  0  0  0  0  0  0
  141.3301   79.3125  224.4725 H   0  0  0  0  0  0  0  0  0  0  0  0
  142.9339   78.6793  223.9691 H   0  0  0  0  0  0  0  0  0  0  0  0
  142.6268   80.4491  223.9691 H   0  0  0  0  0  0  0  0  0  0  0  0
  141.8493   81.4536  222.6388 H   0  0  0  0  0  0  0  0  0  0  0  0
  142.7063   80.7706  221.2156 H   0  0  0  0  0  0  0  0  0  0  0  0
  140.9135   80.8832  221.2156 H   0  0  0  0  0  0  0  0  0  0  0  0
  141.9499   76.7623  221.6883 H   0  0  0  0  0  0  0  0  0  0  0  0
  141.6865   74.3318  221.4911 H   0  0  0  0  0  0  0  0  0  0  0  0
  138.5072   72.5086  221.4007 H   0  0  0  0  0  0  0  0  0  0  0  0
  141.2240   71.8275  221.5689 H   0  0  0  0  0  0  0  0  0  0  0  0
  141.6506   72.9313  226.8616 H   0  0  0  0  0  0  0  0  0  0  0  0
  141.4669   71.8527  229.1038 H   0  0  0  0  0  0  0  0  0  0  0  0
  140.3297   69.6470  229.2861 H   0  0  0  0  0  0  0  0  0  0  0  0
  139.4065   68.5682  227.2845 H   0  0  0  0  0  0  0  0  0  0  0  0
  139.5707   69.9178  221.5864 H   0  0  0  0  0  0  0  0  0  0  0  0
  139.1815   68.4336  222.7295 H   0  0  0  0  0  0  0  0  0  0  0  0
  137.5522   69.7370  221.0386 H   0  0  0  0  0  0  0  0  0  0  0  0
  137.0294   70.2649  224.0152 H   0  0  0  0  0  0  0  0  0  0  0  0
  137.2418   71.5093  222.7084 H   0  0  0  0  0  0  0  0  0  0  0  0
  134.8640   71.2785  223.2063 H   0  0  0  0  0  0  0  0  0  0  0  0
  135.1732   70.6200  221.5900 H   0  0  0  0  0  0  0  0  0  0  0  0
  135.1492   68.9648  224.1904 H   0  0  0  0  0  0  0  0  0  0  0  0
  133.7872   69.0425  223.0639 H   0  0  0  0  0  0  0  0  0  0  0  0
  135.1908   67.0840  222.4599 H   0  0  0  0  0  0  0  0  0  0  0  0
  135.4058   68.3065  221.1840 H   0  0  0  0  0  0  0  0  0  0  0  0
  137.1999   68.0401  223.6553 H   0  0  0  0  0  0  0  0  0  0  0  0
  137.5781   67.3358  222.0441 H   0  0  0  0  0  0  0  0  0  0  0  0
  137.5446   74.7423  222.4532 H   0  0  0  0  0  0  0  0  0  0  0  0
  137.8039   77.1742  222.6500 H   0  0  0  0  0  0  0  0  0  0  0  0
  1  2  1  0
  2  3  1  0
  2  4  1  0
  4  5  2  0
  4  6  2  0
  4  7  1  0
  7  8  2  0
  8  9  1  0
  9 10  2  0
 10 11  1  0
 11 12  2  0
 12 13  1  0
 13 14  2  0
 14 15  1  0
 15 16  2  0
 16 17  1  0
 17 18  2  0
 18 19  1  0
 19 20  2  0
 20 21  1  0
 21 22  2  0
 21 23  1  0
 23 24  1  0
 24 25  1  0
 25 26  1  0
 26 27  1  0
 27 28  1  0
 28 29  1  0
 29 30  1  0
 10 31  1  0
 31 32  2  0
 32  7  1  0
 23 13  1  0
 30 25  1  0
 20 15  1  0
  1 33  1  0
  1 34  1  0
  1 35  1  0
  3 36  1  0
  3 37  1  0
  3 38  1  0
  8 39  1  0
  9 40  1  0
 11 41  1  0
 12 42  1  0
 16 43  1  0
 17 44  1  0
 18 45  1  0
 19 46  1  0
 24 47  1  0
 24 48  1  0
 25 49  1  0
 26 50  1  0
 26 51  1  0
 27 52  1  0
 27 53  1  0
 28 54  1  0
 28 55  1  0
 29 56  1  0
 29 57  1  0
 30 58  1  0
 30 59  1  0
 31 60  1  0
 32 61  1  0
M  END
>  <smiles>  (50) 
CN(C)S(=O)(=O)c1ccc(/C=C/c2nc3ccccc3c(=O)n2CC2CCCCC2)cc1

>  <score_type>  (50) 
oracle

>  <origin>  (50) 
autodockgpu

>  <m_score__min__energy>  (50) 
-9.4499999999999993

>  <m_primary>  (50) 
energy

>  <rmsd>  (50) 
10.916531036916624

>  <m_score__min__rmsd>  (50) 
10.916531036916624

>  <meeko>  (50) 
{"free_energy": -8.09, "intermolecular_energy": -10.18, "internal_energy": -1.7, "cluster_size": 8, "cluster_id": 7, "rank_in_cluster": 8}

>  <energy>  (50) 
-7.04

>  <cluster_rmsd>  (50) 
0.0

>  <cluster>  (50) 
10

$$$$
