
     RDKit          3D

 67 72  0  0  0  0  0  0  0  0999 V2000
  140.3580   67.4860  226.4350 C   0  0  0  0  0  0  0  0  0  0  0  0
  140.9700   68.4840  227.1860 C   0  0  0  0  0  0  0  0  0  0  0  0
  140.8180   69.7960  226.7880 C   0  0  0  0  0  0  0  0  0  0  0  0
  140.0660   70.0480  225.6630 C   0  0  0  0  0  0  0  0  0  0  0  0
  139.4510   69.0890  224.9040 C   0  0  0  0  0  0  0  0  0  0  0  0
  139.6100   67.7660  225.3130 C   0  0  0  0  0  0  0  0  0  0  0  0
  138.6420   69.3160  223.6960 C   0  0  0  0  0  0  0  0  0  0  0  0
  138.3860   70.7940  223.4440 C   0  0  0  0  0  0  0  0  0  0  0  0
  139.5860   71.5360  223.8270 N   0  0  0  0  0  0  0  0  0  0  0  0
  140.3390   72.2290  222.8510 C   0  0  0  0  0  0  0  0  0  0  0  0
  141.2690   71.5190  222.1840 N   0  0  0  0  0  0  0  0  0  0  0  0
  142.0170   72.1340  221.2560 C   0  0  0  0  0  0  0  0  0  0  0  0
  142.9860   71.3090  220.5940 N   0  0  0  0  0  0  0  0  0  0  0  0
  144.0300   71.8500  219.7460 C   0  0  0  0  0  0  0  0  0  0  0  0
  143.4490   72.9190  218.8300 C   0  0  2  0  0  0  0  0  0  0  0  0
  143.6630   72.4480  217.4100 C   0  0  0  0  0  0  0  0  0  0  0  0
  144.3750   73.5410  216.6480 C   0  0  0  0  0  0  0  0  0  0  0  0
  143.5560   74.8160  216.8700 C   0  0  0  0  0  0  0  0  0  0  0  0
  143.7670   75.2680  218.2130 N   0  0  0  0  0  0  0  0  0  0  0  0
  144.1270   74.2140  219.1310 C   0  0  0  0  0  0  0  0  0  0  0  0
  141.8520   73.4380  220.9840 N   0  0  0  0  0  0  0  0  0  0  0  0
  140.9150   74.1780  221.6470 C   0  0  0  0  0  0  0  0  0  0  0  0
  140.7250   75.5610  221.3830 N   0  0  0  0  0  0  0  0  0  0  0  0
  141.1540   76.0550  220.0960 C   0  0  0  0  0  0  0  0  0  0  0  0
  140.6420   77.4790  219.8980 C   0  0  0  0  0  0  0  0  0  0  0  0
  141.1700   78.2510  221.0550 C   0  0  0  0  0  0  0  0  0  0  0  0
  141.8790   79.4150  220.9110 C   0  0  0  0  0  0  0  0  0  0  0  0
  142.3210   80.0420  222.0580 C   0  0  0  0  0  0  0  0  0  0  0  0
  142.0620   79.5200  223.3170 C   0  0  0  0  0  0  0  0  0  0  0  0
  141.3450   78.3420  223.4770 C   0  0  0  0  0  0  0  0  0  0  0  0
  140.9140   77.7330  222.3190 C   0  0  0  0  0  0  0  0  0  0  0  0
  140.1280   76.4500  222.3500 C   0  0  0  0  0  0  0  0  0  0  0  0
  140.1880   73.5310  222.5670 N   0  0  0  0  0  0  0  0  0  0  0  0
  139.9210   71.4910  225.2390 C   0  0  0  0  0  0  0  0  0  0  0  0
  140.4754   66.4379  226.7477 H   0  0  0  0  0  0  0  0  0  0  0  0
  141.5624   68.2325  228.0781 H   0  0  0  0  0  0  0  0  0  0  0  0
  141.2840   70.6167  227.3530 H   0  0  0  0  0  0  0  0  0  0  0  0
  139.1409   66.9505  224.7431 H   0  0  0  0  0  0  0  0  0  0  0  0
  139.1739   68.8961  222.8296 H   0  0  0  0  0  0  0  0  0  0  0  0
  137.6686   68.8258  223.8450 H   0  0  0  0  0  0  0  0  0  0  0  0
  138.1707   70.9584  222.3779 H   0  0  0  0  0  0  0  0  0  0  0  0
  137.5226   71.1365  224.0333 H   0  0  0  0  0  0  0  0  0  0  0  0
  142.8900   70.2870  220.7660 H   0  0  0  0  0  0  0  0  0  0  0  0
  144.8162   72.2950  220.3736 H   0  0  0  0  0  0  0  0  0  0  0  0
  144.4568   71.0411  219.1348 H   0  0  0  0  0  0  0  0  0  0  0  0
  142.3713   73.0798  218.9804 H   0  0  0  0  0  0  0  0  0  0  0  0
  144.2762   71.5348  217.4098 H   0  0  0  0  0  0  0  0  0  0  0  0
  142.6959   72.2246  216.9358 H   0  0  0  0  0  0  0  0  0  0  0  0
  145.3969   73.6717  217.0334 H   0  0  0  0  0  0  0  0  0  0  0  0
  144.4574   73.2973  215.5785 H   0  0  0  0  0  0  0  0  0  0  0  0
  143.8810   75.5929  216.1624 H   0  0  0  0  0  0  0  0  0  0  0  0
  142.4880   74.6092  216.7070 H   0  0  0  0  0  0  0  0  0  0  0  0
  144.4970   76.0140  218.2140 H   0  0  0  0  0  0  0  0  0  0  0  0
  145.2149   74.0602  219.0783 H   0  0  0  0  0  0  0  0  0  0  0  0
  143.8038   74.5282  220.1344 H   0  0  0  0  0  0  0  0  0  0  0  0
  142.2530   76.0514  220.0502 H   0  0  0  0  0  0  0  0  0  0  0  0
  140.7505   75.4080  219.3032 H   0  0  0  0  0  0  0  0  0  0  0  0
  141.0190   77.8959  218.9524 H   0  0  0  0  0  0  0  0  0  0  0  0
  139.5438   77.5164  219.8472 H   0  0  0  0  0  0  0  0  0  0  0  0
  142.0884   79.8347  219.9160 H   0  0  0  0  0  0  0  0  0  0  0  0
  142.8923   80.9780  221.9720 H   0  0  0  0  0  0  0  0  0  0  0  0
  142.4323   80.0503  224.2067 H   0  0  0  0  0  0  0  0  0  0  0  0
  141.1334   77.9196  224.4704 H   0  0  0  0  0  0  0  0  0  0  0  0
  140.1763   76.0025  223.3537 H   0  0  0  0  0  0  0  0  0  0  0  0
  139.0702   76.6340  222.1108 H   0  0  0  0  0  0  0  0  0  0  0  0
  140.8683   72.0231  225.4107 H   0  0  0  0  0  0  0  0  0  0  0  0
  139.1254   71.9733  225.8259 H   0  0  0  0  0  0  0  0  0  0  0  0
  1  2  2  0
  2  3  1  0
  3  4  2  0
  4  5  1  0
  5  6  2  0
  5  7  1  0
  7  8  1  0
  8  9  1  0
  9 10  1  0
 10 11  2  0
 11 12  1  0
 12 13  1  0
 13 14  1  0
 14 15  1  0
 15 16  1  0
 16 17  1  0
 17 18  1  0
 18 19  1  0
 19 20  1  0
 12 21  2  0
 21 22  1  0
 22 23  1  0
 23 24  1  0
 24 25  1  0
 25 26  1  0
 26 27  2  0
 27 28  1  0
 28 29  2  0
 29 30  1  0
 30 31  2  0
 31 32  1  0
 22 33  2  0
  9 34  1  0
  6  1  1  0
 33 10  1  0
 34  4  1  0
 20 15  1  0
 32 23  1  0
 31 26  1  0
  1 35  1  0
  2 36  1  0
  3 37  1  0
  6 38  1  0
  7 39  1  0
  7 40  1  0
  8 41  1  0
  8 42  1  0
 13 43  1  0
 14 44  1  0
 14 45  1  0
 15 46  1  1
 16 47  1  0
 16 48  1  0
 17 49  1  0
 17 50  1  0
 18 51  1  0
 18 52  1  0
 19 53  1  0
 20 54  1  0
 20 55  1  0
 24 56  1  0
 24 57  1  0
 25 58  1  0
 25 59  1  0
 27 60  1  0
 28 61  1  0
 29 62  1  0
 30 63  1  0
 32 64  1  0
 32 65  1  0
 34 66  1  0
 34 67  1  0
M  END
>  <smiles>  (1) 
c1ccc2c(c1)CCN(c1nc(NCC3CCCNC3)nc(N3CCc4ccccc4C3)n1)C2

>  <score_type>  (1) 
oracle

>  <origin>  (1) 
autodockgpu

>  <m_score__min__energy>  (1) 
-10.83

>  <m_primary>  (1) 
energy

>  <rmsd>  (1) 
5.762808899778665

>  <m_score__min__rmsd>  (1) 
5.762808899778665

>  <meeko>  (1) 
{"free_energy": -8.96, "intermolecular_energy": -10.45, "internal_energy": -1.15, "cluster_size": 29, "cluster_id": 1, "rank_in_cluster": 24}

>  <energy>  (1) 
-10.83

>  <cluster_rmsd>  (1) 
0.0

>  <cluster>  (1) 
1

$$$$

     RDKit          3D

 67 72  0  0  0  0  0  0  0  0999 V2000
  145.9700   68.9270  219.3160 C   0  0  0  0  0  0  0  0  0  0  0  0
  144.8610   68.1400  219.6160 C   0  0  0  0  0  0  0  0  0  0  0  0
  143.6100   68.7180  219.5670 C   0  0  0  0  0  0  0  0  0  0  0  0
  143.5240   70.0480  219.2230 C   0  0  0  0  0  0  0  0  0  0  0  0
  144.5940   70.8470  218.9220 C   0  0  0  0  0  0  0  0  0  0  0  0
  145.8550   70.2560  218.9740 C   0  0  0  0  0  0  0  0  0  0  0  0
  144.5440   72.2710  218.5530 C   0  0  0  0  0  0  0  0  0  0  0  0
  143.1200   72.7650  218.3530 C   0  0  0  0  0  0  0  0  0  0  0  0
  142.2650   72.1030  219.3370 N   0  0  0  0  0  0  0  0  0  0  0  0
  141.6280   72.8530  220.3500 C   0  0  0  0  0  0  0  0  0  0  0  0
  141.0850   72.1600  221.3700 N   0  0  0  0  0  0  0  0  0  0  0  0
  140.4590   72.8280  222.3510 C   0  0  0  0  0  0  0  0  0  0  0  0
  139.9060   72.0170  223.3970 N   0  0  0  0  0  0  0  0  0  0  0  0
  140.6860   71.0400  224.1300 C   0  0  0  0  0  0  0  0  0  0  0  0
  139.9730   70.6770  225.4260 C   0  0  2  0  0  0  0  0  0  0  0  0
  140.5710   71.5370  226.5150 C   0  0  0  0  0  0  0  0  0  0  0  0
  141.0310   70.6350  227.6360 C   0  0  0  0  0  0  0  0  0  0  0  0
  139.8290   69.7530  227.9900 C   0  0  0  0  0  0  0  0  0  0  0  0
  139.6490   68.7860  226.9490 N   0  0  0  0  0  0  0  0  0  0  0  0
  140.1500   69.2140  225.6650 C   0  0  0  0  0  0  0  0  0  0  0  0
  140.3680   74.1670  222.3320 N   0  0  0  0  0  0  0  0  0  0  0  0
  140.9110   74.8900  221.3090 C   0  0  0  0  0  0  0  0  0  0  0  0
  140.8220   76.3070  221.2610 N   0  0  0  0  0  0  0  0  0  0  0  0
  141.4020   76.9690  220.1170 C   0  0  0  0  0  0  0  0  0  0  0  0
  140.9880   78.4390  220.1110 C   0  0  0  0  0  0  0  0  0  0  0  0
  141.4400   78.9780  221.4220 C   0  0  0  0  0  0  0  0  0  0  0  0
  142.2220   80.0990  221.5360 C   0  0  0  0  0  0  0  0  0  0  0  0
  142.5810   80.5030  222.8040 C   0  0  0  0  0  0  0  0  0  0  0  0
  142.1720   79.8070  223.9330 C   0  0  0  0  0  0  0  0  0  0  0  0
  141.3810   78.6700  223.8320 C   0  0  0  0  0  0  0  0  0  0  0  0
  141.0340   78.2840  222.5550 C   0  0  0  0  0  0  0  0  0  0  0  0
  140.1800   77.0700  222.3040 C   0  0  0  0  0  0  0  0  0  0  0  0
  141.5270   74.1910  220.3470 N   0  0  0  0  0  0  0  0  0  0  0  0
  142.1450   70.6630  219.1860 C   0  0  0  0  0  0  0  0  0  0  0  0
  146.9708   68.4721  219.3534 H   0  0  0  0  0  0  0  0  0  0  0  0
  144.9803   67.0804  219.8862 H   0  0  0  0  0  0  0  0  0  0  0  0
  142.7070   68.1332  219.7962 H   0  0  0  0  0  0  0  0  0  0  0  0
  146.7532   70.8476  218.7432 H   0  0  0  0  0  0  0  0  0  0  0  0
  145.0140   72.8608  219.3538 H   0  0  0  0  0  0  0  0  0  0  0  0
  145.0791   72.3908  217.5994 H   0  0  0  0  0  0  0  0  0  0  0  0
  143.0800   73.8547  218.4979 H   0  0  0  0  0  0  0  0  0  0  0  0
  142.7768   72.5333  217.3339 H   0  0  0  0  0  0  0  0  0  0  0  0
  138.8970   72.1800  223.5980 H   0  0  0  0  0  0  0  0  0  0  0  0
  140.8093   70.1360  223.5156 H   0  0  0  0  0  0  0  0  0  0  0  0
  141.6725   71.4659  224.3655 H   0  0  0  0  0  0  0  0  0  0  0  0
  138.8901   70.8671  225.3930 H   0  0  0  0  0  0  0  0  0  0  0  0
  141.4276   72.0998  226.1157 H   0  0  0  0  0  0  0  0  0  0  0  0
  139.8214   72.2507  226.8875 H   0  0  0  0  0  0  0  0  0  0  0  0
  141.8761   70.0139  227.3043 H   0  0  0  0  0  0  0  0  0  0  0  0
  141.3739   71.2158  228.5050 H   0  0  0  0  0  0  0  0  0  0  0  0
  140.0148   69.2393  228.9448 H   0  0  0  0  0  0  0  0  0  0  0  0
  138.9249   70.3719  228.0882 H   0  0  0  0  0  0  0  0  0  0  0  0
  140.0980   67.8870  227.2320 H   0  0  0  0  0  0  0  0  0  0  0  0
  141.2230   68.9777  225.6112 H   0  0  0  0  0  0  0  0  0  0  0  0
  139.5725   68.6832  224.8938 H   0  0  0  0  0  0  0  0  0  0  0  0
  142.4984   76.8977  220.1698 H   0  0  0  0  0  0  0  0  0  0  0  0
  141.0453   76.4854  219.1956 H   0  0  0  0  0  0  0  0  0  0  0  0
  141.4782   78.9742  219.2844 H   0  0  0  0  0  0  0  0  0  0  0  0
  139.9039   78.5598  219.9690 H   0  0  0  0  0  0  0  0  0  0  0  0
  142.5512   80.6562  220.6465 H   0  0  0  0  0  0  0  0  0  0  0  0
  143.2072   81.3993  222.9241 H   0  0  0  0  0  0  0  0  0  0  0  0
  142.4804   80.1629  224.9271 H   0  0  0  0  0  0  0  0  0  0  0  0
  141.0506   78.1101  224.7193 H   0  0  0  0  0  0  0  0  0  0  0  0
  140.1038   76.4664  223.2205 H   0  0  0  0  0  0  0  0  0  0  0  0
  139.1626   77.3624  222.0051 H   0  0  0  0  0  0  0  0  0  0  0  0
  141.5373   70.2554  220.0073 H   0  0  0  0  0  0  0  0  0  0  0  0
  141.6594   70.4291  218.2271 H   0  0  0  0  0  0  0  0  0  0  0  0
  1  2  2  0
  2  3  1  0
  3  4  2  0
  4  5  1  0
  5  6  2  0
  5  7  1  0
  7  8  1  0
  8  9  1  0
  9 10  1  0
 10 11  2  0
 11 12  1  0
 12 13  1  0
 13 14  1  0
 14 15  1  0
 15 16  1  0
 16 17  1  0
 17 18  1  0
 18 19  1  0
 19 20  1  0
 12 21  2  0
 21 22  1  0
 22 23  1  0
 23 24  1  0
 24 25  1  0
 25 26  1  0
 26 27  2  0
 27 28  1  0
 28 29  2  0
 29 30  1  0
 30 31  2  0
 31 32  1  0
 22 33  2  0
  9 34  1  0
  6  1  1  0
 33 10  1  0
 34  4  1  0
 20 15  1  0
 32 23  1  0
 31 26  1  0
  1 35  1  0
  2 36  1  0
  3 37  1  0
  6 38  1  0
  7 39  1  0
  7 40  1  0
  8 41  1  0
  8 42  1  0
 13 43  1  0
 14 44  1  0
 14 45  1  0
 15 46  1  6
 16 47  1  0
 16 48  1  0
 17 49  1  0
 17 50  1  0
 18 51  1  0
 18 52  1  0
 19 53  1  0
 20 54  1  0
 20 55  1  0
 24 56  1  0
 24 57  1  0
 25 58  1  0
 25 59  1  0
 27 60  1  0
 28 61  1  0
 29 62  1  0
 30 63  1  0
 32 64  1  0
 32 65  1  0
 34 66  1  0
 34 67  1  0
M  END
>  <smiles>  (2) 
c1ccc2c(c1)CCN(c1nc(NCC3CCCNC3)nc(N3CCc4ccccc4C3)n1)C2

>  <score_type>  (2) 
oracle

>  <origin>  (2) 
autodockgpu

>  <m_score__min__energy>  (2) 
-10.83

>  <m_primary>  (2) 
energy

>  <rmsd>  (2) 
9.279942372556405

>  <m_score__min__rmsd>  (2) 
9.279942372556405

>  <meeko>  (2) 
{"free_energy": -9.92, "intermolecular_energy": -11.41, "internal_energy": -0.89, "cluster_size": 15, "cluster_id": 2, "rank_in_cluster": 1}

>  <energy>  (2) 
-10.73

>  <cluster_rmsd>  (2) 
0.17

>  <cluster>  (2) 
1

$$$$

     RDKit          3D

 67 72  0  0  0  0  0  0  0  0999 V2000
  146.2530   68.5660  219.3740 C   0  0  0  0  0  0  0  0  0  0  0  0
  145.1580   67.7690  219.6980 C   0  0  0  0  0  0  0  0  0  0  0  0
  143.8990   68.3290  219.6500 C   0  0  0  0  0  0  0  0  0  0  0  0
  143.7920   69.6510  219.2820 C   0  0  0  0  0  0  0  0  0  0  0  0
  144.8480   70.4590  218.9570 C   0  0  0  0  0  0  0  0  0  0  0  0
  146.1170   69.8870  219.0090 C   0  0  0  0  0  0  0  0  0  0  0  0
  144.7750   71.8750  218.5620 C   0  0  0  0  0  0  0  0  0  0  0  0
  143.3430   72.3460  218.3640 C   0  0  0  0  0  0  0  0  0  0  0  0
  142.5050   71.6900  219.3680 N   0  0  0  0  0  0  0  0  0  0  0  0
  141.8660   72.4510  220.3730 C   0  0  0  0  0  0  0  0  0  0  0  0
  141.3890   71.7750  221.4360 N   0  0  0  0  0  0  0  0  0  0  0  0
  140.7640   72.4520  222.4110 C   0  0  0  0  0  0  0  0  0  0  0  0
  140.2830   71.6590  223.5060 N   0  0  0  0  0  0  0  0  0  0  0  0
  138.9590   71.0710  223.5280 C   0  0  0  0  0  0  0  0  0  0  0  0
  138.8450   70.0990  224.6940 C   0  0  2  0  0  0  0  0  0  0  0  0
  139.8280   70.5560  225.7480 C   0  0  0  0  0  0  0  0  0  0  0  0
  140.7180   69.3890  226.1070 C   0  0  0  0  0  0  0  0  0  0  0  0
  139.7780   68.2300  226.4510 C   0  0  0  0  0  0  0  0  0  0  0  0
  139.1970   67.7370  225.2380 N   0  0  0  0  0  0  0  0  0  0  0  0
  139.1220   68.7220  224.1870 C   0  0  0  0  0  0  0  0  0  0  0  0
  140.6100   73.7840  222.3440 N   0  0  0  0  0  0  0  0  0  0  0  0
  141.0850   74.4890  221.2760 C   0  0  0  0  0  0  0  0  0  0  0  0
  140.9280   75.8980  221.1760 N   0  0  0  0  0  0  0  0  0  0  0  0
  141.4440   76.5400  219.9900 C   0  0  0  0  0  0  0  0  0  0  0  0
  140.9610   77.9880  219.9410 C   0  0  0  0  0  0  0  0  0  0  0  0
  141.4240   78.5980  221.2170 C   0  0  0  0  0  0  0  0  0  0  0  0
  142.1550   79.7580  221.2640 C   0  0  0  0  0  0  0  0  0  0  0  0
  142.5300   80.2280  222.5040 C   0  0  0  0  0  0  0  0  0  0  0  0
  142.1860   79.5590  223.6700 C   0  0  0  0  0  0  0  0  0  0  0  0
  141.4470   78.3840  223.6370 C   0  0  0  0  0  0  0  0  0  0  0  0
  141.0830   77.9320  222.3870 C   0  0  0  0  0  0  0  0  0  0  0  0
  140.2810   76.6710  222.2080 C   0  0  0  0  0  0  0  0  0  0  0  0
  141.7020   73.7810  220.3210 N   0  0  0  0  0  0  0  0  0  0  0  0
  142.4030   70.2470  219.2450 C   0  0  0  0  0  0  0  0  0  0  0  0
  147.2604   68.1257  219.4108 H   0  0  0  0  0  0  0  0  0  0  0  0
  145.2945   66.7161  219.9858 H   0  0  0  0  0  0  0  0  0  0  0  0
  143.0061   67.7366  219.8985 H   0  0  0  0  0  0  0  0  0  0  0  0
  147.0050   70.4866  218.7601 H   0  0  0  0  0  0  0  0  0  0  0  0
  145.2428   72.4860  219.3480 H   0  0  0  0  0  0  0  0  0  0  0  0
  145.3007   71.9840  217.6019 H   0  0  0  0  0  0  0  0  0  0  0  0
  143.2890   73.4375  218.4890 H   0  0  0  0  0  0  0  0  0  0  0  0
  142.9949   72.0913  217.3521 H   0  0  0  0  0  0  0  0  0  0  0  0
  140.9570   71.5310  224.2900 H   0  0  0  0  0  0  0  0  0  0  0  0
  138.2080   71.8667  223.6413 H   0  0  0  0  0  0  0  0  0  0  0  0
  138.7866   70.5296  222.5861 H   0  0  0  0  0  0  0  0  0  0  0  0
  137.8415   70.0785  225.1441 H   0  0  0  0  0  0  0  0  0  0  0  0
  140.4387   71.3816  225.3536 H   0  0  0  0  0  0  0  0  0  0  0  0
  139.2894   70.9093  226.6397 H   0  0  0  0  0  0  0  0  0  0  0  0
  141.3589   69.1208  225.2542 H   0  0  0  0  0  0  0  0  0  0  0  0
  141.3812   69.6331  226.9499 H   0  0  0  0  0  0  0  0  0  0  0  0
  140.3453   67.4265  226.9434 H   0  0  0  0  0  0  0  0  0  0  0  0
  138.9872   68.5772  227.1323 H   0  0  0  0  0  0  0  0  0  0  0  0
  139.7330   66.9010  224.9140 H   0  0  0  0  0  0  0  0  0  0  0  0
  140.0812   68.7334  223.6487 H   0  0  0  0  0  0  0  0  0  0  0  0
  138.2853   68.4392  223.5313 H   0  0  0  0  0  0  0  0  0  0  0  0
  142.5436   76.5213  220.0124 H   0  0  0  0  0  0  0  0  0  0  0  0
  141.0851   76.0044  219.0987 H   0  0  0  0  0  0  0  0  0  0  0  0
  141.4019   78.5126  219.0805 H   0  0  0  0  0  0  0  0  0  0  0  0
  139.8689   78.0531  219.8270 H   0  0  0  0  0  0  0  0  0  0  0  0
  142.4320   80.2941  220.3443 H   0  0  0  0  0  0  0  0  0  0  0  0
  143.1164   81.1562  222.5711 H   0  0  0  0  0  0  0  0  0  0  0  0
  142.5052   79.9678  224.6400 H   0  0  0  0  0  0  0  0  0  0  0  0
  141.1684   77.8454  224.5548 H   0  0  0  0  0  0  0  0  0  0  0  0
  140.2596   76.1010  223.1486 H   0  0  0  0  0  0  0  0  0  0  0  0
  139.2429   76.9043  221.9289 H   0  0  0  0  0  0  0  0  0  0  0  0
  141.8075   69.8469  220.0789 H   0  0  0  0  0  0  0  0  0  0  0  0
  141.9126   69.9885  218.2949 H   0  0  0  0  0  0  0  0  0  0  0  0
  1  2  2  0
  2  3  1  0
  3  4  2  0
  4  5  1  0
  5  6  2  0
  5  7  1  0
  7  8  1  0
  8  9  1  0
  9 10  1  0
 10 11  2  0
 11 12  1  0
 12 13  1  0
 13 14  1  0
 14 15  1  0
 15 16  1  0
 16 17  1  0
 17 18  1  0
 18 19  1  0
 19 20  1  0
 12 21  2  0
 21 22  1  0
 22 23  1  0
 23 24  1  0
 24 25  1  0
 25 26  1  0
 26 27  2  0
 27 28  1  0
 28 29  2  0
 29 30  1  0
 30 31  2  0
 31 32  1  0
 22 33  2  0
  9 34  1  0
  6  1  1  0
 33 10  1  0
 34  4  1  0
 20 15  1  0
 32 23  1  0
 31 26  1  0
  1 35  1  0
  2 36  1  0
  3 37  1  0
  6 38  1  0
  7 39  1  0
  7 40  1  0
  8 41  1  0
  8 42  1  0
 13 43  1  0
 14 44  1  0
 14 45  1  0
 15 46  1  1
 16 47  1  0
 16 48  1  0
 17 49  1  0
 17 50  1  0
 18 51  1  0
 18 52  1  0
 19 53  1  0
 20 54  1  0
 20 55  1  0
 24 56  1  0
 24 57  1  0
 25 58  1  0
 25 59  1  0
 27 60  1  0
 28 61  1  0
 29 62  1  0
 30 63  1  0
 32 64  1  0
 32 65  1  0
 34 66  1  0
 34 67  1  0
M  END
>  <smiles>  (3) 
c1ccc2c(c1)CCN(c1nc(NCC3CCCNC3)nc(N3CCc4ccccc4C3)n1)C2

>  <score_type>  (3) 
oracle

>  <origin>  (3) 
autodockgpu

>  <m_score__min__energy>  (3) 
-10.83

>  <m_primary>  (3) 
energy

>  <rmsd>  (3) 
9.228662355976464

>  <m_score__min__rmsd>  (3) 
9.228662355976464

>  <meeko>  (3) 
{"free_energy": -9.55, "intermolecular_energy": -11.04, "internal_energy": -0.85, "cluster_size": 15, "cluster_id": 2, "rank_in_cluster": 9}

>  <energy>  (3) 
-10.72

>  <cluster_rmsd>  (3) 
0.8

>  <cluster>  (3) 
1

$$$$

     RDKit          3D

 67 72  0  0  0  0  0  0  0  0999 V2000
  145.9290   68.8820  219.3310 C   0  0  0  0  0  0  0  0  0  0  0  0
  144.8160   68.1020  219.6310 C   0  0  0  0  0  0  0  0  0  0  0  0
  143.5680   68.6860  219.5760 C   0  0  0  0  0  0  0  0  0  0  0  0
  143.4900   70.0150  219.2250 C   0  0  0  0  0  0  0  0  0  0  0  0
  144.5650   70.8070  218.9240 C   0  0  0  0  0  0  0  0  0  0  0  0
  145.8220   70.2100  218.9820 C   0  0  0  0  0  0  0  0  0  0  0  0
  144.5240   72.2290  218.5480 C   0  0  0  0  0  0  0  0  0  0  0  0
  143.1020   72.7300  218.3410 C   0  0  0  0  0  0  0  0  0  0  0  0
  142.2420   72.0760  219.3250 N   0  0  0  0  0  0  0  0  0  0  0  0
  141.6050   72.8360  220.3340 C   0  0  0  0  0  0  0  0  0  0  0  0
  141.0630   72.1510  221.3590 N   0  0  0  0  0  0  0  0  0  0  0  0
  140.4380   72.8260  222.3360 C   0  0  0  0  0  0  0  0  0  0  0  0
  139.8860   72.0240  223.3890 N   0  0  0  0  0  0  0  0  0  0  0  0
  140.7040   71.2220  224.2770 C   0  0  0  0  0  0  0  0  0  0  0  0
  139.8180   70.2990  225.1020 C   0  0  2  0  0  0  0  0  0  0  0  0
  140.5640   69.9950  226.3800 C   0  0  0  0  0  0  0  0  0  0  0  0
  140.6400   68.4950  226.5430 C   0  0  0  0  0  0  0  0  0  0  0  0
  139.2040   67.9810  226.4060 C   0  0  0  0  0  0  0  0  0  0  0  0
  138.8170   68.0640  225.0300 N   0  0  0  0  0  0  0  0  0  0  0  0
  139.5210   69.0830  224.2890 C   0  0  0  0  0  0  0  0  0  0  0  0
  140.3470   74.1650  222.3060 N   0  0  0  0  0  0  0  0  0  0  0  0
  140.8890   74.8800  221.2770 C   0  0  0  0  0  0  0  0  0  0  0  0
  140.8000   76.2960  221.2170 N   0  0  0  0  0  0  0  0  0  0  0  0
  141.3750   76.9490  220.0640 C   0  0  0  0  0  0  0  0  0  0  0  0
  140.9610   78.4180  220.0490 C   0  0  0  0  0  0  0  0  0  0  0  0
  141.4190   78.9680  221.3530 C   0  0  0  0  0  0  0  0  0  0  0  0
  142.2010   80.0900  221.4540 C   0  0  0  0  0  0  0  0  0  0  0  0
  142.5670   80.5050  222.7170 C   0  0  0  0  0  0  0  0  0  0  0  0
  142.1620   79.8180  223.8530 C   0  0  0  0  0  0  0  0  0  0  0  0
  141.3710   78.6810  223.7660 C   0  0  0  0  0  0  0  0  0  0  0  0
  141.0180   78.2840  222.4940 C   0  0  0  0  0  0  0  0  0  0  0  0
  140.1630   77.0680  222.2570 C   0  0  0  0  0  0  0  0  0  0  0  0
  141.5040   74.1730  220.3200 N   0  0  0  0  0  0  0  0  0  0  0  0
  142.1140   70.6370  219.1810 C   0  0  0  0  0  0  0  0  0  0  0  0
  146.9275   68.4224  219.3741 H   0  0  0  0  0  0  0  0  0  0  0  0
  144.9294   67.0430  219.9059 H   0  0  0  0  0  0  0  0  0  0  0  0
  142.6614   68.1070  219.8058 H   0  0  0  0  0  0  0  0  0  0  0  0
  146.7239   70.7956  218.7504 H   0  0  0  0  0  0  0  0  0  0  0  0
  144.9947   72.8201  219.3474 H   0  0  0  0  0  0  0  0  0  0  0  0
  145.0628   72.3413  217.5956 H   0  0  0  0  0  0  0  0  0  0  0  0
  143.0668   73.8204  218.4814 H   0  0  0  0  0  0  0  0  0  0  0  0
  142.7605   72.4966  217.3217 H   0  0  0  0  0  0  0  0  0  0  0  0
  138.8490   72.0570  223.4740 H   0  0  0  0  0  0  0  0  0  0  0  0
  141.4055   70.6189  223.6820 H   0  0  0  0  0  0  0  0  0  0  0  0
  141.2650   71.8853  224.9517 H   0  0  0  0  0  0  0  0  0  0  0  0
  138.8508   70.7508  225.3675 H   0  0  0  0  0  0  0  0  0  0  0  0
  141.5794   70.4147  226.3262 H   0  0  0  0  0  0  0  0  0  0  0  0
  140.0410   70.4422  227.2382 H   0  0  0  0  0  0  0  0  0  0  0  0
  141.2785   68.0577  225.7613 H   0  0  0  0  0  0  0  0  0  0  0  0
  141.0759   68.2173  227.5140 H   0  0  0  0  0  0  0  0  0  0  0  0
  139.1512   66.9353  226.7431 H   0  0  0  0  0  0  0  0  0  0  0  0
  138.5271   68.5897  227.0235 H   0  0  0  0  0  0  0  0  0  0  0  0
  138.9470   67.1320  224.5780 H   0  0  0  0  0  0  0  0  0  0  0  0
  140.4714   68.6612  223.9302 H   0  0  0  0  0  0  0  0  0  0  0  0
  138.8691   69.3945  223.4595 H   0  0  0  0  0  0  0  0  0  0  0  0
  142.4717   76.8781  220.1119 H   0  0  0  0  0  0  0  0  0  0  0  0
  141.0143   76.4581  219.1481 H   0  0  0  0  0  0  0  0  0  0  0  0
  141.4469   78.9468  219.2157 H   0  0  0  0  0  0  0  0  0  0  0  0
  139.8761   78.5370  219.9119 H   0  0  0  0  0  0  0  0  0  0  0  0
  142.5252   80.6400  220.5582 H   0  0  0  0  0  0  0  0  0  0  0  0
  143.1947   81.4016  222.8268 H   0  0  0  0  0  0  0  0  0  0  0  0
  142.4745   80.1823  224.8428 H   0  0  0  0  0  0  0  0  0  0  0  0
  141.0448   78.1289  224.6598 H   0  0  0  0  0  0  0  0  0  0  0  0
  140.0912   76.4720  223.1788 H   0  0  0  0  0  0  0  0  0  0  0  0
  139.1442   77.3581  221.9604 H   0  0  0  0  0  0  0  0  0  0  0  0
  141.5018   70.2370  220.0027 H   0  0  0  0  0  0  0  0  0  0  0  0
  141.6293   70.4007  218.2222 H   0  0  0  0  0  0  0  0  0  0  0  0
  1  2  2  0
  2  3  1  0
  3  4  2  0
  4  5  1  0
  5  6  2  0
  5  7  1  0
  7  8  1  0
  8  9  1  0
  9 10  1  0
 10 11  2  0
 11 12  1  0
 12 13  1  0
 13 14  1  0
 14 15  1  0
 15 16  1  0
 16 17  1  0
 17 18  1  0
 18 19  1  0
 19 20  1  0
 12 21  2  0
 21 22  1  0
 22 23  1  0
 23 24  1  0
 24 25  1  0
 25 26  1  0
 26 27  2  0
 27 28  1  0
 28 29  2  0
 29 30  1  0
 30 31  2  0
 31 32  1  0
 22 33  2  0
  9 34  1  0
  6  1  1  0
 33 10  1  0
 34  4  1  0
 20 15  1  0
 32 23  1  0
 31 26  1  0
  1 35  1  0
  2 36  1  0
  3 37  1  0
  6 38  1  0
  7 39  1  0
  7 40  1  0
  8 41  1  0
  8 42  1  0
 13 43  1  0
 14 44  1  0
 14 45  1  0
 15 46  1  1
 16 47  1  0
 16 48  1  0
 17 49  1  0
 17 50  1  0
 18 51  1  0
 18 52  1  0
 19 53  1  0
 20 54  1  0
 20 55  1  0
 24 56  1  0
 24 57  1  0
 25 58  1  0
 25 59  1  0
 27 60  1  0
 28 61  1  0
 29 62  1  0
 30 63  1  0
 32 64  1  0
 32 65  1  0
 34 66  1  0
 34 67  1  0
M  END
>  <smiles>  (4) 
c1ccc2c(c1)CCN(c1nc(NCC3CCCNC3)nc(N3CCc4ccccc4C3)n1)C2

>  <score_type>  (4) 
oracle

>  <origin>  (4) 
autodockgpu

>  <m_score__min__energy>  (4) 
-10.83

>  <m_primary>  (4) 
energy

>  <rmsd>  (4) 
9.598209960418574

>  <m_score__min__rmsd>  (4) 
9.598209960418574

>  <meeko>  (4) 
{"free_energy": -9.75, "intermolecular_energy": -11.24, "internal_energy": -0.9, "cluster_size": 15, "cluster_id": 2, "rank_in_cluster": 4}

>  <energy>  (4) 
-10.61

>  <cluster_rmsd>  (4) 
0.84

>  <cluster>  (4) 
1

$$$$

     RDKit          3D

 67 72  0  0  0  0  0  0  0  0999 V2000
  144.3320   67.7030  219.4740 C   0  0  0  0  0  0  0  0  0  0  0  0
  143.0300   67.5450  219.0060 C   0  0  0  0  0  0  0  0  0  0  0  0
  142.2760   68.6740  218.7630 C   0  0  0  0  0  0  0  0  0  0  0  0
  142.8540   69.9020  218.9960 C   0  0  0  0  0  0  0  0  0  0  0  0
  144.1300   70.0890  219.4540 C   0  0  0  0  0  0  0  0  0  0  0  0
  144.8850   68.9450  219.6980 C   0  0  0  0  0  0  0  0  0  0  0  0
  144.7820   71.3820  219.7170 C   0  0  0  0  0  0  0  0  0  0  0  0
  143.9390   72.5590  219.2510 C   0  0  0  0  0  0  0  0  0  0  0  0
  142.5340   72.2390  219.4990 N   0  0  0  0  0  0  0  0  0  0  0  0
  141.7850   72.9880  220.4350 C   0  0  0  0  0  0  0  0  0  0  0  0
  141.0730   72.2910  221.3410 N   0  0  0  0  0  0  0  0  0  0  0  0
  140.3370   72.9570  222.2440 C   0  0  0  0  0  0  0  0  0  0  0  0
  139.6070   72.1420  223.1700 N   0  0  0  0  0  0  0  0  0  0  0  0
  140.0320   70.8090  223.5500 C   0  0  0  0  0  0  0  0  0  0  0  0
  139.5930   70.5140  224.9780 C   0  0  2  0  0  0  0  0  0  0  0  0
  140.5180   71.2820  225.8930 C   0  0  0  0  0  0  0  0  0  0  0  0
  141.1100   70.3170  226.8930 C   0  0  0  0  0  0  0  0  0  0  0  0
  139.9250   69.5770  227.5200 C   0  0  0  0  0  0  0  0  0  0  0  0
  139.4010   68.6530  226.5590 N   0  0  0  0  0  0  0  0  0  0  0  0
  139.6460   69.0370  225.1900 C   0  0  0  0  0  0  0  0  0  0  0  0
  140.3010   74.2990  222.2570 N   0  0  0  0  0  0  0  0  0  0  0  0
  141.0150   75.0260  221.3480 C   0  0  0  0  0  0  0  0  0  0  0  0
  140.9890   76.4460  221.3360 N   0  0  0  0  0  0  0  0  0  0  0  0
  141.6840   77.1130  220.2610 C   0  0  0  0  0  0  0  0  0  0  0  0
  141.3340   78.5990  220.2670 C   0  0  0  0  0  0  0  0  0  0  0  0
  141.7030   79.0820  221.6250 C   0  0  0  0  0  0  0  0  0  0  0  0
  142.5190   80.1650  221.8330 C   0  0  0  0  0  0  0  0  0  0  0  0
  142.7930   80.5190  223.1370 C   0  0  0  0  0  0  0  0  0  0  0  0
  142.2680   79.8110  224.2090 C   0  0  0  0  0  0  0  0  0  0  0  0
  141.4410   78.7130  224.0120 C   0  0  0  0  0  0  0  0  0  0  0  0
  141.1800   78.3770  222.7020 C   0  0  0  0  0  0  0  0  0  0  0  0
  140.2990   77.2080  222.3490 C   0  0  0  0  0  0  0  0  0  0  0  0
  141.7370   74.3280  220.4620 N   0  0  0  0  0  0  0  0  0  0  0  0
  142.0060   71.1250  218.7320 C   0  0  0  0  0  0  0  0  0  0  0  0
  144.9388   66.8070  219.6713 H   0  0  0  0  0  0  0  0  0  0  0  0
  142.6122   66.5421  218.8340 H   0  0  0  0  0  0  0  0  0  0  0  0
  141.2428   68.5958  218.3937 H   0  0  0  0  0  0  0  0  0  0  0  0
  145.9174   69.0322  220.0676 H   0  0  0  0  0  0  0  0  0  0  0  0
  144.9550   71.4773  220.7991 H   0  0  0  0  0  0  0  0  0  0  0  0
  145.7277   71.4023  219.1556 H   0  0  0  0  0  0  0  0  0  0  0  0
  144.2197   73.4633  219.8109 H   0  0  0  0  0  0  0  0  0  0  0  0
  144.1038   72.7447  218.1794 H   0  0  0  0  0  0  0  0  0  0  0  0
  138.7430   72.5760  223.5580 H   0  0  0  0  0  0  0  0  0  0  0  0
  139.5785   70.0734  222.8694 H   0  0  0  0  0  0  0  0  0  0  0  0
  141.1284   70.7461  223.4872 H   0  0  0  0  0  0  0  0  0  0  0  0
  138.5607   70.8307  225.1877 H   0  0  0  0  0  0  0  0  0  0  0  0
  141.3225   71.7460  225.3035 H   0  0  0  0  0  0  0  0  0  0  0  0
  139.9607   72.0731  226.4160 H   0  0  0  0  0  0  0  0  0  0  0  0
  141.7800   69.6061  226.3873 H   0  0  0  0  0  0  0  0  0  0  0  0
  141.7053   70.8417  227.6547 H   0  0  0  0  0  0  0  0  0  0  0  0
  140.2605   69.0310  228.4140 H   0  0  0  0  0  0  0  0  0  0  0  0
  139.1458   70.2963  227.8124 H   0  0  0  0  0  0  0  0  0  0  0  0
  139.7930   67.7040  226.7450 H   0  0  0  0  0  0  0  0  0  0  0  0
  140.6437   68.6770  224.8985 H   0  0  0  0  0  0  0  0  0  0  0  0
  138.8510   68.5886  224.5761 H   0  0  0  0  0  0  0  0  0  0  0  0
  142.7689   76.9922  220.3963 H   0  0  0  0  0  0  0  0  0  0  0  0
  141.3804   76.6707  219.3007 H   0  0  0  0  0  0  0  0  0  0  0  0
  141.9102   79.1340  219.4977 H   0  0  0  0  0  0  0  0  0  0  0  0
  140.2706   78.7715  220.0445 H   0  0  0  0  0  0  0  0  0  0  0  0
  142.9399   80.7311  220.9890 H   0  0  0  0  0  0  0  0  0  0  0  0
  143.4438   81.3840  223.3326 H   0  0  0  0  0  0  0  0  0  0  0  0
  142.5117   80.1257  225.2345 H   0  0  0  0  0  0  0  0  0  0  0  0
  141.0187   78.1444  224.8536 H   0  0  0  0  0  0  0  0  0  0  0  0
  140.1263   76.5839  223.2382 H   0  0  0  0  0  0  0  0  0  0  0  0
  139.3211   77.5523  221.9812 H   0  0  0  0  0  0  0  0  0  0  0  0
  140.9676   70.9268  219.0361 H   0  0  0  0  0  0  0  0  0  0  0  0
  142.0271   71.3682  217.6594 H   0  0  0  0  0  0  0  0  0  0  0  0
  1  2  2  0
  2  3  1  0
  3  4  2  0
  4  5  1  0
  5  6  2  0
  5  7  1  0
  7  8  1  0
  8  9  1  0
  9 10  1  0
 10 11  2  0
 11 12  1  0
 12 13  1  0
 13 14  1  0
 14 15  1  0
 15 16  1  0
 16 17  1  0
 17 18  1  0
 18 19  1  0
 19 20  1  0
 12 21  2  0
 21 22  1  0
 22 23  1  0
 23 24  1  0
 24 25  1  0
 25 26  1  0
 26 27  2  0
 27 28  1  0
 28 29  2  0
 29 30  1  0
 30 31  2  0
 31 32  1  0
 22 33  2  0
  9 34  1  0
  6  1  1  0
 33 10  1  0
 34  4  1  0
 20 15  1  0
 32 23  1  0
 31 26  1  0
  1 35  1  0
  2 36  1  0
  3 37  1  0
  6 38  1  0
  7 39  1  0
  7 40  1  0
  8 41  1  0
  8 42  1  0
 13 43  1  0
 14 44  1  0
 14 45  1  0
 15 46  1  6
 16 47  1  0
 16 48  1  0
 17 49  1  0
 17 50  1  0
 18 51  1  0
 18 52  1  0
 19 53  1  0
 20 54  1  0
 20 55  1  0
 24 56  1  0
 24 57  1  0
 25 58  1  0
 25 59  1  0
 27 60  1  0
 28 61  1  0
 29 62  1  0
 30 63  1  0
 32 64  1  0
 32 65  1  0
 34 66  1  0
 34 67  1  0
M  END
>  <smiles>  (5) 
c1ccc2c(c1)CCN(c1nc(NCC3CCCNC3)nc(N3CCc4ccccc4C3)n1)C2

>  <score_type>  (5) 
oracle

>  <origin>  (5) 
autodockgpu

>  <m_score__min__energy>  (5) 
-10.83

>  <m_primary>  (5) 
energy

>  <rmsd>  (5) 
9.06796710883425

>  <m_score__min__rmsd>  (5) 
9.06796710883425

>  <meeko>  (5) 
{"free_energy": -9.51, "intermolecular_energy": -11.01, "internal_energy": -0.96, "cluster_size": 15, "cluster_id": 2, "rank_in_cluster": 11}

>  <energy>  (5) 
-10.57

>  <cluster_rmsd>  (5) 
0.78

>  <cluster>  (5) 
1

$$$$

     RDKit          3D

 67 72  0  0  0  0  0  0  0  0999 V2000
  140.8980   79.6700  222.8460 C   0  0  0  0  0  0  0  0  0  0  0  0
  141.8470   79.4130  221.8590 C   0  0  0  0  0  0  0  0  0  0  0  0
  141.7240   78.2610  221.1120 C   0  0  0  0  0  0  0  0  0  0  0  0
  140.6660   77.4230  221.3820 C   0  0  0  0  0  0  0  0  0  0  0  0
  139.7180   77.6480  222.3430 C   0  0  0  0  0  0  0  0  0  0  0  0
  139.8490   78.8130  223.0950 C   0  0  0  0  0  0  0  0  0  0  0  0
  138.5760   76.7770  222.6640 C   0  0  0  0  0  0  0  0  0  0  0  0
  138.4260   75.6330  221.6730 C   0  0  0  0  0  0  0  0  0  0  0  0
  139.7640   75.1880  221.2870 N   0  0  0  0  0  0  0  0  0  0  0  0
  140.2130   73.8910  221.6300 C   0  0  0  0  0  0  0  0  0  0  0  0
  140.8910   73.2130  220.6840 N   0  0  0  0  0  0  0  0  0  0  0  0
  141.3280   71.9750  220.9580 C   0  0  0  0  0  0  0  0  0  0  0  0
  142.0390   71.3200  219.8980 N   0  0  0  0  0  0  0  0  0  0  0  0
  143.4810   71.3770  219.7660 C   0  0  0  0  0  0  0  0  0  0  0  0
  143.8910   72.7090  219.1520 C   0  0  2  0  0  0  0  0  0  0  0  0
  144.2490   73.6320  220.2940 C   0  0  0  0  0  0  0  0  0  0  0  0
  143.4450   74.9030  220.1510 C   0  0  0  0  0  0  0  0  0  0  0  0
  143.6860   75.3970  218.7210 C   0  0  0  0  0  0  0  0  0  0  0  0
  142.9730   74.5460  217.8160 N   0  0  0  0  0  0  0  0  0  0  0  0
  142.7570   73.2110  218.3210 C   0  0  0  0  0  0  0  0  0  0  0  0
  141.1010   71.4060  222.1520 N   0  0  0  0  0  0  0  0  0  0  0  0
  140.4150   72.0740  223.1260 C   0  0  0  0  0  0  0  0  0  0  0  0
  140.1550   71.4930  224.3960 N   0  0  0  0  0  0  0  0  0  0  0  0
  141.0090   71.8840  225.4920 C   0  0  0  0  0  0  0  0  0  0  0  0
  140.4270   71.3680  226.8050 C   0  0  0  0  0  0  0  0  0  0  0  0
  140.2990   69.8970  226.6250 C   0  0  0  0  0  0  0  0  0  0  0  0
  140.8250   68.9920  227.5110 C   0  0  0  0  0  0  0  0  0  0  0  0
  140.6470   67.6510  227.2390 C   0  0  0  0  0  0  0  0  0  0  0  0
  139.9600   67.2240  226.1110 C   0  0  0  0  0  0  0  0  0  0  0  0
  139.4230   68.1300  225.2070 C   0  0  0  0  0  0  0  0  0  0  0  0
  139.6130   69.4630  225.4980 C   0  0  0  0  0  0  0  0  0  0  0  0
  139.0830   70.5490  224.6000 C   0  0  0  0  0  0  0  0  0  0  0  0
  139.9940   73.3080  222.8170 N   0  0  0  0  0  0  0  0  0  0  0  0
  140.5570   76.1610  220.5580 C   0  0  0  0  0  0  0  0  0  0  0  0
  140.9895   80.5874  223.4460 H   0  0  0  0  0  0  0  0  0  0  0  0
  142.6759   80.1136  221.6798 H   0  0  0  0  0  0  0  0  0  0  0  0
  142.4507   78.0184  220.3226 H   0  0  0  0  0  0  0  0  0  0  0  0
  139.1186   79.0473  223.8835 H   0  0  0  0  0  0  0  0  0  0  0  0
  138.7235   76.3567  223.6698 H   0  0  0  0  0  0  0  0  0  0  0  0
  137.6625   77.3877  222.6137 H   0  0  0  0  0  0  0  0  0  0  0  0
  137.8779   74.8027  222.1422 H   0  0  0  0  0  0  0  0  0  0  0  0
  137.8653   75.9670  220.7875 H   0  0  0  0  0  0  0  0  0  0  0  0
  141.4440   70.7940  219.2240 H   0  0  0  0  0  0  0  0  0  0  0  0
  143.9428   71.2752  220.7592 H   0  0  0  0  0  0  0  0  0  0  0  0
  143.8186   70.5576  219.1143 H   0  0  0  0  0  0  0  0  0  0  0  0
  144.7644   72.6292  218.4880 H   0  0  0  0  0  0  0  0  0  0  0  0
  144.0101   73.1473  221.2521 H   0  0  0  0  0  0  0  0  0  0  0  0
  145.3246   73.8611  220.2714 H   0  0  0  0  0  0  0  0  0  0  0  0
  142.3758   74.6987  220.3096 H   0  0  0  0  0  0  0  0  0  0  0  0
  143.7470   75.6563  220.8936 H   0  0  0  0  0  0  0  0  0  0  0  0
  143.3239   76.4308  218.6203 H   0  0  0  0  0  0  0  0  0  0  0  0
  144.7615   75.3716  218.4915 H   0  0  0  0  0  0  0  0  0  0  0  0
  142.0620   74.9920  217.5690 H   0  0  0  0  0  0  0  0  0  0  0  0
  141.8456   73.2128  218.9369 H   0  0  0  0  0  0  0  0  0  0  0  0
  142.6656   72.5424  217.4523 H   0  0  0  0  0  0  0  0  0  0  0  0
  142.0123   71.4581  225.3441 H   0  0  0  0  0  0  0  0  0  0  0  0
  141.0761   72.9813  225.5288 H   0  0  0  0  0  0  0  0  0  0  0  0
  141.1027   71.5966  227.6424 H   0  0  0  0  0  0  0  0  0  0  0  0
  139.4607   71.8387  227.0388 H   0  0  0  0  0  0  0  0  0  0  0  0
  141.3698   69.3236  228.4072 H   0  0  0  0  0  0  0  0  0  0  0  0
  141.0591   66.9029  227.9322 H   0  0  0  0  0  0  0  0  0  0  0  0
  139.8387   66.1458  225.9299 H   0  0  0  0  0  0  0  0  0  0  0  0
  138.8772   67.8025  224.3099 H   0  0  0  0  0  0  0  0  0  0  0  0
  138.7684   70.1216  223.6365 H   0  0  0  0  0  0  0  0  0  0  0  0
  138.2101   71.0407  225.0541 H   0  0  0  0  0  0  0  0  0  0  0  0
  141.5618   75.7535  220.3727 H   0  0  0  0  0  0  0  0  0  0  0  0
  140.0757   76.3863  219.5949 H   0  0  0  0  0  0  0  0  0  0  0  0
  1  2  2  0
  2  3  1  0
  3  4  2  0
  4  5  1  0
  5  6  2  0
  5  7  1  0
  7  8  1  0
  8  9  1  0
  9 10  1  0
 10 11  2  0
 11 12  1  0
 12 13  1  0
 13 14  1  0
 14 15  1  0
 15 16  1  0
 16 17  1  0
 17 18  1  0
 18 19  1  0
 19 20  1  0
 12 21  2  0
 21 22  1  0
 22 23  1  0
 23 24  1  0
 24 25  1  0
 25 26  1  0
 26 27  2  0
 27 28  1  0
 28 29  2  0
 29 30  1  0
 30 31  2  0
 31 32  1  0
 22 33  2  0
  9 34  1  0
  6  1  1  0
 33 10  1  0
 34  4  1  0
 20 15  1  0
 32 23  1  0
 31 26  1  0
  1 35  1  0
  2 36  1  0
  3 37  1  0
  6 38  1  0
  7 39  1  0
  7 40  1  0
  8 41  1  0
  8 42  1  0
 13 43  1  0
 14 44  1  0
 14 45  1  0
 15 46  1  6
 16 47  1  0
 16 48  1  0
 17 49  1  0
 17 50  1  0
 18 51  1  0
 18 52  1  0
 19 53  1  0
 20 54  1  0
 20 55  1  0
 24 56  1  0
 24 57  1  0
 25 58  1  0
 25 59  1  0
 27 60  1  0
 28 61  1  0
 29 62  1  0
 30 63  1  0
 32 64  1  0
 32 65  1  0
 34 66  1  0
 34 67  1  0
M  END
>  <smiles>  (6) 
c1ccc2c(c1)CCN(c1nc(NCC3CCCNC3)nc(N3CCc4ccccc4C3)n1)C2

>  <score_type>  (6) 
oracle

>  <origin>  (6) 
autodockgpu

>  <m_score__min__energy>  (6) 
-10.83

>  <m_primary>  (6) 
energy

>  <rmsd>  (6) 
5.481732144767581

>  <m_score__min__rmsd>  (6) 
5.481732144767581

>  <meeko>  (6) 
{"free_energy": -8.9, "intermolecular_energy": -10.4, "internal_energy": -1.62, "cluster_size": 29, "cluster_id": 1, "rank_in_cluster": 26}

>  <energy>  (6) 
-10.48

>  <cluster_rmsd>  (6) 
0.81

>  <cluster>  (6) 
1

$$$$

     RDKit          3D

 67 72  0  0  0  0  0  0  0  0999 V2000
  140.8280   79.6720  222.8900 C   0  0  0  0  0  0  0  0  0  0  0  0
  141.7920   79.4360  221.9140 C   0  0  0  0  0  0  0  0  0  0  0  0
  141.6980   78.2840  221.1620 C   0  0  0  0  0  0  0  0  0  0  0  0
  140.6520   77.4260  221.4180 C   0  0  0  0  0  0  0  0  0  0  0  0
  139.6900   77.6310  222.3690 C   0  0  0  0  0  0  0  0  0  0  0  0
  139.7920   78.7960  223.1260 C   0  0  0  0  0  0  0  0  0  0  0  0
  138.5600   76.7390  222.6760 C   0  0  0  0  0  0  0  0  0  0  0  0
  138.4430   75.5950  221.6800 C   0  0  0  0  0  0  0  0  0  0  0  0
  139.7930   75.1750  221.3070 N   0  0  0  0  0  0  0  0  0  0  0  0
  140.2600   73.8860  221.6510 C   0  0  0  0  0  0  0  0  0  0  0  0
  140.9780   73.2310  220.7190 N   0  0  0  0  0  0  0  0  0  0  0  0
  141.4350   72.0000  220.9940 C   0  0  0  0  0  0  0  0  0  0  0  0
  142.1880   71.3700  219.9480 N   0  0  0  0  0  0  0  0  0  0  0  0
  143.6270   71.4970  219.8290 C   0  0  0  0  0  0  0  0  0  0  0  0
  143.9740   72.8130  219.1470 C   0  0  2  0  0  0  0  0  0  0  0  0
  144.3330   73.7950  220.2380 C   0  0  0  0  0  0  0  0  0  0  0  0
  143.4840   75.0320  220.0650 C   0  0  0  0  0  0  0  0  0  0  0  0
  143.6680   75.4720  218.6090 C   0  0  0  0  0  0  0  0  0  0  0  0
  142.9580   74.5610  217.7620 N   0  0  0  0  0  0  0  0  0  0  0  0
  142.8010   73.2430  218.3290 C   0  0  0  0  0  0  0  0  0  0  0  0
  141.1900   71.4170  222.1770 N   0  0  0  0  0  0  0  0  0  0  0  0
  140.4650   72.0620  223.1380 C   0  0  0  0  0  0  0  0  0  0  0  0
  140.1850   71.4640  224.3960 N   0  0  0  0  0  0  0  0  0  0  0  0
  141.0140   71.8500  225.5130 C   0  0  0  0  0  0  0  0  0  0  0  0
  140.4100   71.3150  226.8090 C   0  0  0  0  0  0  0  0  0  0  0  0
  140.2990   69.8440  226.6100 C   0  0  0  0  0  0  0  0  0  0  0  0
  140.8150   68.9340  227.4960 C   0  0  0  0  0  0  0  0  0  0  0  0
  140.6530   67.5950  227.2060 C   0  0  0  0  0  0  0  0  0  0  0  0
  139.9920   67.1740  226.0600 C   0  0  0  0  0  0  0  0  0  0  0  0
  139.4650   68.0860  225.1550 C   0  0  0  0  0  0  0  0  0  0  0  0
  139.6390   69.4180  225.4650 C   0  0  0  0  0  0  0  0  0  0  0  0
  139.1170   70.5090  224.5690 C   0  0  0  0  0  0  0  0  0  0  0  0
  140.0240   73.2880  222.8280 N   0  0  0  0  0  0  0  0  0  0  0  0
  140.5750   76.1650  220.5890 C   0  0  0  0  0  0  0  0  0  0  0  0
  140.8960   80.5893  223.4932 H   0  0  0  0  0  0  0  0  0  0  0  0
  142.6100   80.1521  221.7464 H   0  0  0  0  0  0  0  0  0  0  0  0
  142.4375   78.0570  220.3800 H   0  0  0  0  0  0  0  0  0  0  0  0
  139.0495   79.0148  223.9075 H   0  0  0  0  0  0  0  0  0  0  0  0
  138.7037   76.3190  223.6824 H   0  0  0  0  0  0  0  0  0  0  0  0
  137.6359   77.3329  222.6178 H   0  0  0  0  0  0  0  0  0  0  0  0
  137.9051   74.7534  222.1408 H   0  0  0  0  0  0  0  0  0  0  0  0
  137.8867   75.9219  220.7891 H   0  0  0  0  0  0  0  0  0  0  0  0
  141.6260   70.8090  219.2740 H   0  0  0  0  0  0  0  0  0  0  0  0
  144.0797   71.4747  220.8313 H   0  0  0  0  0  0  0  0  0  0  0  0
  144.0167   70.6625  219.2275 H   0  0  0  0  0  0  0  0  0  0  0  0
  144.8298   72.7321  218.4607 H   0  0  0  0  0  0  0  0  0  0  0  0
  144.1370   73.3447  221.2223 H   0  0  0  0  0  0  0  0  0  0  0  0
  145.3995   74.0569  220.1745 H   0  0  0  0  0  0  0  0  0  0  0  0
  142.4271   74.8007  220.2635 H   0  0  0  0  0  0  0  0  0  0  0  0
  143.7819   75.8257  220.7659 H   0  0  0  0  0  0  0  0  0  0  0  0
  143.2694   76.4886  218.4761 H   0  0  0  0  0  0  0  0  0  0  0  0
  144.7368   75.4710  218.3488 H   0  0  0  0  0  0  0  0  0  0  0  0
  142.0260   74.9660  217.5240 H   0  0  0  0  0  0  0  0  0  0  0  0
  141.9076   73.2423  218.9708 H   0  0  0  0  0  0  0  0  0  0  0  0
  142.7079   72.5352  217.4921 H   0  0  0  0  0  0  0  0  0  0  0  0
  142.0235   71.4337  225.3806 H   0  0  0  0  0  0  0  0  0  0  0  0
  141.0715   72.9474  225.5628 H   0  0  0  0  0  0  0  0  0  0  0  0
  141.0665   71.5403  227.6623 H   0  0  0  0  0  0  0  0  0  0  0  0
  139.4352   71.7748  227.0287 H   0  0  0  0  0  0  0  0  0  0  0  0
  141.3398   69.2600  228.4061 H   0  0  0  0  0  0  0  0  0  0  0  0
  141.0573   66.8429  227.8994 H   0  0  0  0  0  0  0  0  0  0  0  0
  139.8836   66.0969  225.8650 H   0  0  0  0  0  0  0  0  0  0  0  0
  138.9393   67.7643  224.2439 H   0  0  0  0  0  0  0  0  0  0  0  0
  138.8245   70.0896  223.5951 H   0  0  0  0  0  0  0  0  0  0  0  0
  138.2313   70.9884  225.0114 H   0  0  0  0  0  0  0  0  0  0  0  0
  141.5891   75.7770  220.4127 H   0  0  0  0  0  0  0  0  0  0  0  0
  140.0994   76.3844  219.6217 H   0  0  0  0  0  0  0  0  0  0  0  0
  1  2  2  0
  2  3  1  0
  3  4  2  0
  4  5  1  0
  5  6  2  0
  5  7  1  0
  7  8  1  0
  8  9  1  0
  9 10  1  0
 10 11  2  0
 11 12  1  0
 12 13  1  0
 13 14  1  0
 14 15  1  0
 15 16  1  0
 16 17  1  0
 17 18  1  0
 18 19  1  0
 19 20  1  0
 12 21  2  0
 21 22  1  0
 22 23  1  0
 23 24  1  0
 24 25  1  0
 25 26  1  0
 26 27  2  0
 27 28  1  0
 28 29  2  0
 29 30  1  0
 30 31  2  0
 31 32  1  0
 22 33  2  0
  9 34  1  0
  6  1  1  0
 33 10  1  0
 34  4  1  0
 20 15  1  0
 32 23  1  0
 31 26  1  0
  1 35  1  0
  2 36  1  0
  3 37  1  0
  6 38  1  0
  7 39  1  0
  7 40  1  0
  8 41  1  0
  8 42  1  0
 13 43  1  0
 14 44  1  0
 14 45  1  0
 15 46  1  6
 16 47  1  0
 16 48  1  0
 17 49  1  0
 17 50  1  0
 18 51  1  0
 18 52  1  0
 19 53  1  0
 20 54  1  0
 20 55  1  0
 24 56  1  0
 24 57  1  0
 25 58  1  0
 25 59  1  0
 27 60  1  0
 28 61  1  0
 29 62  1  0
 30 63  1  0
 32 64  1  0
 32 65  1  0
 34 66  1  0
 34 67  1  0
M  END
>  <smiles>  (7) 
c1ccc2c(c1)CCN(c1nc(NCC3CCCNC3)nc(N3CCc4ccccc4C3)n1)C2

>  <score_type>  (7) 
oracle

>  <origin>  (7) 
autodockgpu

>  <m_score__min__energy>  (7) 
-10.83

>  <m_primary>  (7) 
energy

>  <rmsd>  (7) 
5.4783066247397505

>  <m_score__min__rmsd>  (7) 
5.4783066247397505

>  <meeko>  (7) 
{"free_energy": -8.84, "intermolecular_energy": -10.33, "internal_energy": -1.6, "cluster_size": 29, "cluster_id": 1, "rank_in_cluster": 28}

>  <energy>  (7) 
-10.48

>  <cluster_rmsd>  (7) 
0.72

>  <cluster>  (7) 
1

$$$$

     RDKit          3D

 67 72  0  0  0  0  0  0  0  0999 V2000
  140.0620   67.6920  226.8010 C   0  0  0  0  0  0  0  0  0  0  0  0
  140.9810   68.5830  227.3490 C   0  0  0  0  0  0  0  0  0  0  0  0
  141.0620   69.8540  226.8190 C   0  0  0  0  0  0  0  0  0  0  0  0
  140.2260   70.1740  225.7730 C   0  0  0  0  0  0  0  0  0  0  0  0
  139.3130   69.3220  225.2140 C   0  0  0  0  0  0  0  0  0  0  0  0
  139.2380   68.0390  225.7540 C   0  0  0  0  0  0  0  0  0  0  0  0
  138.4060   69.6240  224.0960 C   0  0  0  0  0  0  0  0  0  0  0  0
  138.4440   71.0930  223.7040 C   0  0  0  0  0  0  0  0  0  0  0  0
  139.8190   71.5670  223.8460 N   0  0  0  0  0  0  0  0  0  0  0  0
  140.5550   71.9780  222.7110 C   0  0  0  0  0  0  0  0  0  0  0  0
  140.7130   73.3040  222.5370 N   0  0  0  0  0  0  0  0  0  0  0  0
  141.3950   73.7440  221.4690 C   0  0  0  0  0  0  0  0  0  0  0  0
  141.5160   75.1690  221.3540 N   0  0  0  0  0  0  0  0  0  0  0  0
  140.7180   75.9540  220.4330 C   0  0  0  0  0  0  0  0  0  0  0  0
  141.4500   76.0930  219.1050 C   0  0  2  0  0  0  0  0  0  0  0  0
  140.9690   74.9690  218.2160 C   0  0  0  0  0  0  0  0  0  0  0  0
  142.1750   74.2130  217.7080 C   0  0  0  0  0  0  0  0  0  0  0  0
  143.1090   75.2650  217.1020 C   0  0  0  0  0  0  0  0  0  0  0  0
  143.7110   76.0110  218.1660 N   0  0  0  0  0  0  0  0  0  0  0  0
  142.9180   76.0470  219.3710 C   0  0  0  0  0  0  0  0  0  0  0  0
  141.9180   72.8880  220.5770 N   0  0  0  0  0  0  0  0  0  0  0  0
  141.7700   71.5400  220.7330 C   0  0  0  0  0  0  0  0  0  0  0  0
  142.3070   70.6120  219.8010 N   0  0  0  0  0  0  0  0  0  0  0  0
  141.5930   69.3710  219.6130 C   0  0  0  0  0  0  0  0  0  0  0  0
  142.1640   68.6290  218.4080 C   0  0  0  0  0  0  0  0  0  0  0  0
  143.6130   68.4600  218.7020 C   0  0  0  0  0  0  0  0  0  0  0  0
  144.2440   67.2440  218.6530 C   0  0  0  0  0  0  0  0  0  0  0  0
  145.5910   67.2100  218.9480 C   0  0  0  0  0  0  0  0  0  0  0  0
  146.2910   68.3600  219.2850 C   0  0  0  0  0  0  0  0  0  0  0  0
  145.6630   69.5970  219.3390 C   0  0  0  0  0  0  0  0  0  0  0  0
  144.3180   69.6080  219.0400 C   0  0  0  0  0  0  0  0  0  0  0  0
  143.5170   70.8820  219.0620 C   0  0  0  0  0  0  0  0  0  0  0  0
  141.0840   71.1370  221.8110 N   0  0  0  0  0  0  0  0  0  0  0  0
  140.3390   71.5690  225.2020 C   0  0  0  0  0  0  0  0  0  0  0  0
  139.9920   66.6768  227.2186 H   0  0  0  0  0  0  0  0  0  0  0  0
  141.6278   68.2802  228.1856 H   0  0  0  0  0  0  0  0  0  0  0  0
  141.7738   70.5904  227.2204 H   0  0  0  0  0  0  0  0  0  0  0  0
  138.5245   67.3080  225.3459 H   0  0  0  0  0  0  0  0  0  0  0  0
  138.7015   69.0180  223.2269 H   0  0  0  0  0  0  0  0  0  0  0  0
  137.3816   69.3880  224.4199 H   0  0  0  0  0  0  0  0  0  0  0  0
  138.1159   71.2087  222.6605 H   0  0  0  0  0  0  0  0  0  0  0  0
  137.7718   71.6766  224.3501 H   0  0  0  0  0  0  0  0  0  0  0  0
  142.2200   75.6070  221.9850 H   0  0  0  0  0  0  0  0  0  0  0  0
  139.7530   75.4528  220.2673 H   0  0  0  0  0  0  0  0  0  0  0  0
  140.5482   76.9533  220.8603 H   0  0  0  0  0  0  0  0  0  0  0  0
  141.2466   77.0466  218.5958 H   0  0  0  0  0  0  0  0  0  0  0  0
  140.3212   74.2914  218.7915 H   0  0  0  0  0  0  0  0  0  0  0  0
  140.3941   75.3753  217.3708 H   0  0  0  0  0  0  0  0  0  0  0  0
  142.6750   73.6900  218.5365 H   0  0  0  0  0  0  0  0  0  0  0  0
  141.8903   73.4522  216.9663 H   0  0  0  0  0  0  0  0  0  0  0  0
  143.8913   74.7682  216.5093 H   0  0  0  0  0  0  0  0  0  0  0  0
  142.5388   75.9398  216.4466 H   0  0  0  0  0  0  0  0  0  0  0  0
  144.6580   75.6210  218.3670 H   0  0  0  0  0  0  0  0  0  0  0  0
  143.1385   75.1460  219.9622 H   0  0  0  0  0  0  0  0  0  0  0  0
  143.1826   76.9685  219.9102 H   0  0  0  0  0  0  0  0  0  0  0  0
  141.7011   68.7467  220.5122 H   0  0  0  0  0  0  0  0  0  0  0  0
  140.5282   69.5851  219.4390 H   0  0  0  0  0  0  0  0  0  0  0  0
  141.6773   67.6493  218.2927 H   0  0  0  0  0  0  0  0  0  0  0  0
  141.9971   69.1794  217.4704 H   0  0  0  0  0  0  0  0  0  0  0  0
  143.6957   66.3280  218.3879 H   0  0  0  0  0  0  0  0  0  0  0  0
  146.1234   66.2480  218.9153 H   0  0  0  0  0  0  0  0  0  0  0  0
  147.3647   68.2900  219.5139 H   0  0  0  0  0  0  0  0  0  0  0  0
  146.2075   70.5150  219.6050 H   0  0  0  0  0  0  0  0  0  0  0  0
  144.0908   71.6796  219.5566 H   0  0  0  0  0  0  0  0  0  0  0  0
  143.2844   71.2150  218.0397 H   0  0  0  0  0  0  0  0  0  0  0  0
  141.3943   71.8793  225.1921 H   0  0  0  0  0  0  0  0  0  0  0  0
  139.7623   72.2723  225.8207 H   0  0  0  0  0  0  0  0  0  0  0  0
  1  2  2  0
  2  3  1  0
  3  4  2  0
  4  5  1  0
  5  6  2  0
  5  7  1  0
  7  8  1  0
  8  9  1  0
  9 10  1  0
 10 11  2  0
 11 12  1  0
 12 13  1  0
 13 14  1  0
 14 15  1  0
 15 16  1  0
 16 17  1  0
 17 18  1  0
 18 19  1  0
 19 20  1  0
 12 21  2  0
 21 22  1  0
 22 23  1  0
 23 24  1  0
 24 25  1  0
 25 26  1  0
 26 27  2  0
 27 28  1  0
 28 29  2  0
 29 30  1  0
 30 31  2  0
 31 32  1  0
 22 33  2  0
  9 34  1  0
  6  1  1  0
 33 10  1  0
 34  4  1  0
 20 15  1  0
 32 23  1  0
 31 26  1  0
  1 35  1  0
  2 36  1  0
  3 37  1  0
  6 38  1  0
  7 39  1  0
  7 40  1  0
  8 41  1  0
  8 42  1  0
 13 43  1  0
 14 44  1  0
 14 45  1  0
 15 46  1  6
 16 47  1  0
 16 48  1  0
 17 49  1  0
 17 50  1  0
 18 51  1  0
 18 52  1  0
 19 53  1  0
 20 54  1  0
 20 55  1  0
 24 56  1  0
 24 57  1  0
 25 58  1  0
 25 59  1  0
 27 60  1  0
 28 61  1  0
 29 62  1  0
 30 63  1  0
 32 64  1  0
 32 65  1  0
 34 66  1  0
 34 67  1  0
M  END
>  <smiles>  (8) 
c1ccc2c(c1)CCN(c1nc(NCC3CCCNC3)nc(N3CCc4ccccc4C3)n1)C2

>  <score_type>  (8) 
oracle

>  <origin>  (8) 
autodockgpu

>  <m_score__min__energy>  (8) 
-10.83

>  <m_primary>  (8) 
energy

>  <rmsd>  (8) 
3.5322304184775497

>  <m_score__min__rmsd>  (8) 
3.5322304184775497

>  <meeko>  (8) 
{"free_energy": -8.59, "intermolecular_energy": -10.08, "internal_energy": -1.38, "cluster_size": 1, "cluster_id": 6, "rank_in_cluster": 1}

>  <energy>  (8) 
-10.11

>  <cluster_rmsd>  (8) 
1.79

>  <cluster>  (8) 
1

$$$$

     RDKit          3D

 67 72  0  0  0  0  0  0  0  0999 V2000
  146.1510   68.2380  219.6030 C   0  0  0  0  0  0  0  0  0  0  0  0
  144.9560   67.5350  219.7220 C   0  0  0  0  0  0  0  0  0  0  0  0
  143.7700   68.2230  219.5730 C   0  0  0  0  0  0  0  0  0  0  0  0
  143.8320   69.5740  219.3140 C   0  0  0  0  0  0  0  0  0  0  0  0
  144.9910   70.2920  219.1900 C   0  0  0  0  0  0  0  0  0  0  0  0
  146.1850   69.5900  219.3420 C   0  0  0  0  0  0  0  0  0  0  0  0
  145.1000   71.7340  218.9160 C   0  0  0  0  0  0  0  0  0  0  0  0
  143.7540   72.3620  218.5920 C   0  0  0  0  0  0  0  0  0  0  0  0
  142.7390   71.7210  219.4260 N   0  0  0  0  0  0  0  0  0  0  0  0
  142.0490   72.4640  220.4110 C   0  0  0  0  0  0  0  0  0  0  0  0
  141.5610   71.7760  221.4610 N   0  0  0  0  0  0  0  0  0  0  0  0
  140.8890   72.4350  222.4170 C   0  0  0  0  0  0  0  0  0  0  0  0
  140.4000   71.6290  223.4990 N   0  0  0  0  0  0  0  0  0  0  0  0
  139.0640   71.0680  223.5190 C   0  0  0  0  0  0  0  0  0  0  0  0
  138.9170   70.1280  224.7070 C   0  0  2  0  0  0  0  0  0  0  0  0
  139.9180   70.5720  225.7490 C   0  0  0  0  0  0  0  0  0  0  0  0
  140.7650   69.3820  226.1340 C   0  0  0  0  0  0  0  0  0  0  0  0
  139.7840   68.2660  226.5050 C   0  0  0  0  0  0  0  0  0  0  0  0
  139.1820   67.7670  225.3050 N   0  0  0  0  0  0  0  0  0  0  0  0
  139.1410   68.7310  224.2320 C   0  0  0  0  0  0  0  0  0  0  0  0
  140.6990   73.7610  222.3430 N   0  0  0  0  0  0  0  0  0  0  0  0
  141.1840   74.4800  221.2880 C   0  0  0  0  0  0  0  0  0  0  0  0
  140.9900   75.8830  221.1820 N   0  0  0  0  0  0  0  0  0  0  0  0
  141.4930   76.5340  219.9950 C   0  0  0  0  0  0  0  0  0  0  0  0
  140.9720   77.9680  219.9380 C   0  0  0  0  0  0  0  0  0  0  0  0
  141.4130   78.5960  221.2120 C   0  0  0  0  0  0  0  0  0  0  0  0
  142.1120   79.7750  221.2570 C   0  0  0  0  0  0  0  0  0  0  0  0
  142.4710   80.2600  222.4970 C   0  0  0  0  0  0  0  0  0  0  0  0
  142.1400   79.5870  223.6640 C   0  0  0  0  0  0  0  0  0  0  0  0
  141.4330   78.3930  223.6330 C   0  0  0  0  0  0  0  0  0  0  0  0
  141.0850   77.9260  222.3840 C   0  0  0  0  0  0  0  0  0  0  0  0
  140.3180   76.6430  222.2080 C   0  0  0  0  0  0  0  0  0  0  0  0
  141.8490   73.7890  220.3530 N   0  0  0  0  0  0  0  0  0  0  0  0
  142.5210   70.3090  219.1640 C   0  0  0  0  0  0  0  0  0  0  0  0
  147.1006   67.6956  219.7214 H   0  0  0  0  0  0  0  0  0  0  0  0
  144.9573   66.4549  219.9302 H   0  0  0  0  0  0  0  0  0  0  0  0
  142.8022   67.7072  219.6586 H   0  0  0  0  0  0  0  0  0  0  0  0
  147.1490   70.1124  219.2541 H   0  0  0  0  0  0  0  0  0  0  0  0
  145.5187   72.2321  219.8029 H   0  0  0  0  0  0  0  0  0  0  0  0
  145.7515   71.8621  218.0390 H   0  0  0  0  0  0  0  0  0  0  0  0
  143.7850   73.4406  218.8059 H   0  0  0  0  0  0  0  0  0  0  0  0
  143.5154   72.2217  217.5274 H   0  0  0  0  0  0  0  0  0  0  0  0
  141.0760   71.4720  224.2750 H   0  0  0  0  0  0  0  0  0  0  0  0
  138.3278   71.8810  223.6034 H   0  0  0  0  0  0  0  0  0  0  0  0
  138.8918   70.5070  222.5886 H   0  0  0  0  0  0  0  0  0  0  0  0
  137.9144   70.1553  225.1587 H   0  0  0  0  0  0  0  0  0  0  0  0
  140.5580   71.3652  225.3351 H   0  0  0  0  0  0  0  0  0  0  0  0
  139.3943   70.9650  226.6329 H   0  0  0  0  0  0  0  0  0  0  0  0
  141.3945   69.0713  225.2872 H   0  0  0  0  0  0  0  0  0  0  0  0
  141.4377   69.6209  226.9709 H   0  0  0  0  0  0  0  0  0  0  0  0
  140.3229   67.4536  227.0145 H   0  0  0  0  0  0  0  0  0  0  0  0
  139.0080   68.6575  227.1792 H   0  0  0  0  0  0  0  0  0  0  0  0
  139.6860   66.9060  224.9990 H   0  0  0  0  0  0  0  0  0  0  0  0
  140.0986   68.6944  223.6919 H   0  0  0  0  0  0  0  0  0  0  0  0
  138.2922   68.4650  223.5849 H   0  0  0  0  0  0  0  0  0  0  0  0
  142.5926   76.5447  220.0213 H   0  0  0  0  0  0  0  0  0  0  0  0
  141.1515   75.9854  219.1048 H   0  0  0  0  0  0  0  0  0  0  0  0
  141.4020   78.5004  219.0768 H   0  0  0  0  0  0  0  0  0  0  0  0
  139.8789   78.0031  219.8200 H   0  0  0  0  0  0  0  0  0  0  0  0
  142.3771   80.3150  220.3361 H   0  0  0  0  0  0  0  0  0  0  0  0
  143.0333   81.2032  222.5623 H   0  0  0  0  0  0  0  0  0  0  0  0
  142.4440   80.0082  224.6336 H   0  0  0  0  0  0  0  0  0  0  0  0
  141.1659   77.8509  224.5521 H   0  0  0  0  0  0  0  0  0  0  0  0
  140.3082   76.0770  223.1512 H   0  0  0  0  0  0  0  0  0  0  0  0
  139.2750   76.8467  221.9239 H   0  0  0  0  0  0  0  0  0  0  0  0
  141.7896   69.9092  219.8817 H   0  0  0  0  0  0  0  0  0  0  0  0
  142.1342   70.1754  218.1430 H   0  0  0  0  0  0  0  0  0  0  0  0
  1  2  2  0
  2  3  1  0
  3  4  2  0
  4  5  1  0
  5  6  2  0
  5  7  1  0
  7  8  1  0
  8  9  1  0
  9 10  1  0
 10 11  2  0
 11 12  1  0
 12 13  1  0
 13 14  1  0
 14 15  1  0
 15 16  1  0
 16 17  1  0
 17 18  1  0
 18 19  1  0
 19 20  1  0
 12 21  2  0
 21 22  1  0
 22 23  1  0
 23 24  1  0
 24 25  1  0
 25 26  1  0
 26 27  2  0
 27 28  1  0
 28 29  2  0
 29 30  1  0
 30 31  2  0
 31 32  1  0
 22 33  2  0
  9 34  1  0
  6  1  1  0
 33 10  1  0
 34  4  1  0
 20 15  1  0
 32 23  1  0
 31 26  1  0
  1 35  1  0
  2 36  1  0
  3 37  1  0
  6 38  1  0
  7 39  1  0
  7 40  1  0
  8 41  1  0
  8 42  1  0
 13 43  1  0
 14 44  1  0
 14 45  1  0
 15 46  1  1
 16 47  1  0
 16 48  1  0
 17 49  1  0
 17 50  1  0
 18 51  1  0
 18 52  1  0
 19 53  1  0
 20 54  1  0
 20 55  1  0
 24 56  1  0
 24 57  1  0
 25 58  1  0
 25 59  1  0
 27 60  1  0
 28 61  1  0
 29 62  1  0
 30 63  1  0
 32 64  1  0
 32 65  1  0
 34 66  1  0
 34 67  1  0
M  END
>  <smiles>  (9) 
c1ccc2c(c1)CCN(c1nc(NCC3CCCNC3)nc(N3CCc4ccccc4C3)n1)C2

>  <score_type>  (9) 
oracle

>  <origin>  (9) 
autodockgpu

>  <m_score__min__energy>  (9) 
-10.83

>  <m_primary>  (9) 
energy

>  <rmsd>  (9) 
9.228551651208404

>  <m_score__min__rmsd>  (9) 
9.228551651208404

>  <meeko>  (9) 
{"free_energy": -9.58, "intermolecular_energy": -11.07, "internal_energy": -0.84, "cluster_size": 15, "cluster_id": 2, "rank_in_cluster": 8}

>  <energy>  (9) 
-10.09

>  <cluster_rmsd>  (9) 
1.79

>  <cluster>  (9) 
1

$$$$

     RDKit          3D

 67 72  0  0  0  0  0  0  0  0999 V2000
  140.3830   67.4260  226.4530 C   0  0  0  0  0  0  0  0  0  0  0  0
  141.1930   68.3640  227.0880 C   0  0  0  0  0  0  0  0  0  0  0  0
  141.0850   69.6870  226.7150 C   0  0  0  0  0  0  0  0  0  0  0  0
  140.1780   70.0110  225.7310 C   0  0  0  0  0  0  0  0  0  0  0  0
  139.3680   69.1130  225.0910 C   0  0  0  0  0  0  0  0  0  0  0  0
  139.4830   67.7780  225.4720 C   0  0  0  0  0  0  0  0  0  0  0  0
  138.3890   69.4180  224.0340 C   0  0  0  0  0  0  0  0  0  0  0  0
  138.2170   70.9140  223.8230 C   0  0  0  0  0  0  0  0  0  0  0  0
  139.5210   71.5510  223.9950 N   0  0  0  0  0  0  0  0  0  0  0  0
  140.1550   72.1890  222.9040 C   0  0  0  0  0  0  0  0  0  0  0  0
  140.9190   71.4170  222.1090 N   0  0  0  0  0  0  0  0  0  0  0  0
  141.5500   71.9790  221.0660 C   0  0  0  0  0  0  0  0  0  0  0  0
  142.3460   71.0890  220.2710 N   0  0  0  0  0  0  0  0  0  0  0  0
  143.7910   71.1770  220.2010 C   0  0  0  0  0  0  0  0  0  0  0  0
  144.3200   70.1780  219.1810 C   0  0  2  0  0  0  0  0  0  0  0  0
  144.0080   68.7980  219.7110 C   0  0  0  0  0  0  0  0  0  0  0  0
  145.2880   67.9960  219.7370 C   0  0  0  0  0  0  0  0  0  0  0  0
  145.8890   68.1120  218.3330 C   0  0  0  0  0  0  0  0  0  0  0  0
  146.4220   69.4310  218.1700 N   0  0  0  0  0  0  0  0  0  0  0  0
  145.7810   70.4230  218.9980 C   0  0  0  0  0  0  0  0  0  0  0  0
  141.4300   73.2900  220.8060 N   0  0  0  0  0  0  0  0  0  0  0  0
  140.6610   74.0920  221.5990 C   0  0  0  0  0  0  0  0  0  0  0  0
  140.5230   75.4840  221.3500 N   0  0  0  0  0  0  0  0  0  0  0  0
  140.9570   75.9740  220.0630 C   0  0  0  0  0  0  0  0  0  0  0  0
  140.4990   77.4190  219.8840 C   0  0  0  0  0  0  0  0  0  0  0  0
  141.0690   78.1580  221.0430 C   0  0  0  0  0  0  0  0  0  0  0  0
  141.8230   79.2950  220.9010 C   0  0  0  0  0  0  0  0  0  0  0  0
  142.3020   79.8920  222.0480 C   0  0  0  0  0  0  0  0  0  0  0  0
  142.0360   79.3690  223.3060 C   0  0  0  0  0  0  0  0  0  0  0  0
  141.2750   78.2180  223.4630 C   0  0  0  0  0  0  0  0  0  0  0  0
  140.8070   77.6380  222.3040 C   0  0  0  0  0  0  0  0  0  0  0  0
  139.9710   76.3860  222.3320 C   0  0  0  0  0  0  0  0  0  0  0  0
  140.0460   73.4980  222.6300 N   0  0  0  0  0  0  0  0  0  0  0  0
  140.0840   71.4650  225.3310 C   0  0  0  0  0  0  0  0  0  0  0  0
  140.4648   66.3686  226.7448 H   0  0  0  0  0  0  0  0  0  0  0  0
  141.9031   68.0563  227.8697 H   0  0  0  0  0  0  0  0  0  0  0  0
  141.7055   70.4613  227.1898 H   0  0  0  0  0  0  0  0  0  0  0  0
  138.8588   67.0098  224.9922 H   0  0  0  0  0  0  0  0  0  0  0  0
  138.7321   68.9648  223.0922 H   0  0  0  0  0  0  0  0  0  0  0  0
  137.4173   69.0076  224.3459 H   0  0  0  0  0  0  0  0  0  0  0  0
  137.8394   71.1061  222.8078 H   0  0  0  0  0  0  0  0  0  0  0  0
  137.4965   71.3202  224.5481 H   0  0  0  0  0  0  0  0  0  0  0  0
  141.8110   70.3670  219.7430 H   0  0  0  0  0  0  0  0  0  0  0  0
  144.0807   72.1945  219.8997 H   0  0  0  0  0  0  0  0  0  0  0  0
  144.2170   70.9474  221.1888 H   0  0  0  0  0  0  0  0  0  0  0  0
  143.8517   70.2807  218.1910 H   0  0  0  0  0  0  0  0  0  0  0  0
  143.5972   68.8750  220.7285 H   0  0  0  0  0  0  0  0  0  0  0  0
  143.2661   68.3045  219.0660 H   0  0  0  0  0  0  0  0  0  0  0  0
  145.9817   68.4079  220.4847 H   0  0  0  0  0  0  0  0  0  0  0  0
  145.1000   66.9468  220.0088 H   0  0  0  0  0  0  0  0  0  0  0  0
  146.6923   67.3704  218.2117 H   0  0  0  0  0  0  0  0  0  0  0  0
  145.1130   67.9249  217.5762 H   0  0  0  0  0  0  0  0  0  0  0  0
  147.4500   69.4120  218.3550 H   0  0  0  0  0  0  0  0  0  0  0  0
  146.2632   70.4183  219.9867 H   0  0  0  0  0  0  0  0  0  0  0  0
  145.8898   71.3931  218.4911 H   0  0  0  0  0  0  0  0  0  0  0  0
  142.0545   75.9280  220.0049 H   0  0  0  0  0  0  0  0  0  0  0  0
  140.5197   75.3512  219.2687 H   0  0  0  0  0  0  0  0  0  0  0  0
  140.8822   77.8304  218.9385 H   0  0  0  0  0  0  0  0  0  0  0  0
  139.4027   77.4999  219.8451 H   0  0  0  0  0  0  0  0  0  0  0  0
  142.0379   79.7156  219.9076 H   0  0  0  0  0  0  0  0  0  0  0  0
  142.9098   80.8050  221.9640 H   0  0  0  0  0  0  0  0  0  0  0  0
  142.4360   79.8764  224.1963 H   0  0  0  0  0  0  0  0  0  0  0  0
  141.0585   77.7941  224.4547 H   0  0  0  0  0  0  0  0  0  0  0  0
  140.0123   75.9272  223.3309 H   0  0  0  0  0  0  0  0  0  0  0  0
  138.9186   76.6133  222.1064 H   0  0  0  0  0  0  0  0  0  0  0  0
  141.0875   71.9154  225.3383 H   0  0  0  0  0  0  0  0  0  0  0  0
  139.4412   72.0057  226.0413 H   0  0  0  0  0  0  0  0  0  0  0  0
  1  2  2  0
  2  3  1  0
  3  4  2  0
  4  5  1  0
  5  6  2  0
  5  7  1  0
  7  8  1  0
  8  9  1  0
  9 10  1  0
 10 11  2  0
 11 12  1  0
 12 13  1  0
 13 14  1  0
 14 15  1  0
 15 16  1  0
 16 17  1  0
 17 18  1  0
 18 19  1  0
 19 20  1  0
 12 21  2  0
 21 22  1  0
 22 23  1  0
 23 24  1  0
 24 25  1  0
 25 26  1  0
 26 27  2  0
 27 28  1  0
 28 29  2  0
 29 30  1  0
 30 31  2  0
 31 32  1  0
 22 33  2  0
  9 34  1  0
  6  1  1  0
 33 10  1  0
 34  4  1  0
 20 15  1  0
 32 23  1  0
 31 26  1  0
  1 35  1  0
  2 36  1  0
  3 37  1  0
  6 38  1  0
  7 39  1  0
  7 40  1  0
  8 41  1  0
  8 42  1  0
 13 43  1  0
 14 44  1  0
 14 45  1  0
 15 46  1  6
 16 47  1  0
 16 48  1  0
 17 49  1  0
 17 50  1  0
 18 51  1  0
 18 52  1  0
 19 53  1  0
 20 54  1  0
 20 55  1  0
 24 56  1  0
 24 57  1  0
 25 58  1  0
 25 59  1  0
 27 60  1  0
 28 61  1  0
 29 62  1  0
 30 63  1  0
 32 64  1  0
 32 65  1  0
 34 66  1  0
 34 67  1  0
M  END
>  <smiles>  (10) 
c1ccc2c(c1)CCN(c1nc(NCC3CCCNC3)nc(N3CCc4ccccc4C3)n1)C2

>  <score_type>  (10) 
oracle

>  <origin>  (10) 
autodockgpu

>  <m_score__min__energy>  (10) 
-10.83

>  <m_primary>  (10) 
energy

>  <rmsd>  (10) 
8.673262080187799

>  <m_score__min__rmsd>  (10) 
8.673262080187799

>  <meeko>  (10) 
{"free_energy": -10.11, "intermolecular_energy": -11.6, "internal_energy": -0.87, "cluster_size": 29, "cluster_id": 1, "rank_in_cluster": 8}

>  <energy>  (10) 
-9.91

>  <cluster_rmsd>  (10) 
0.89

>  <cluster>  (10) 
1

$$$$

     RDKit          3D

 67 72  0  0  0  0  0  0  0  0999 V2000
  133.1440   71.5600  227.1320 C   0  0  0  0  0  0  0  0  0  0  0  0
  133.0830   72.9130  226.8100 C   0  0  0  0  0  0  0  0  0  0  0  0
  133.6840   73.3410  225.6440 C   0  0  0  0  0  0  0  0  0  0  0  0
  134.3140   72.4020  224.8580 C   0  0  0  0  0  0  0  0  0  0  0  0
  134.3890   71.0670  225.1460 C   0  0  0  0  0  0  0  0  0  0  0  0
  133.7810   70.6430  226.3260 C   0  0  0  0  0  0  0  0  0  0  0  0
  135.0540   70.0340  224.3350 C   0  0  0  0  0  0  0  0  0  0  0  0
  135.5250   70.5710  222.9920 C   0  0  0  0  0  0  0  0  0  0  0  0
  135.9930   71.9420  223.1880 N   0  0  0  0  0  0  0  0  0  0  0  0
  137.3550   72.2680  222.9950 C   0  0  0  0  0  0  0  0  0  0  0  0
  138.2620   71.4130  223.5050 N   0  0  0  0  0  0  0  0  0  0  0  0
  139.5680   71.6840  223.3560 C   0  0  0  0  0  0  0  0  0  0  0  0
  140.4690   70.7270  223.9300 N   0  0  0  0  0  0  0  0  0  0  0  0
  141.0920   70.9140  225.2250 C   0  0  0  0  0  0  0  0  0  0  0  0
  140.2820   70.1960  226.2960 C   0  0  2  0  0  0  0  0  0  0  0  0
  140.8110   70.6560  227.6340 C   0  0  0  0  0  0  0  0  0  0  0  0
  141.1750   69.4370  228.4490 C   0  0  0  0  0  0  0  0  0  0  0  0
  139.9390   68.5330  228.4340 C   0  0  0  0  0  0  0  0  0  0  0  0
  139.8200   67.9410  227.1350 N   0  0  0  0  0  0  0  0  0  0  0  0
  140.4190   68.7250  226.0820 C   0  0  0  0  0  0  0  0  0  0  0  0
  139.9790   72.7860  222.7090 N   0  0  0  0  0  0  0  0  0  0  0  0
  139.0770   73.6660  222.1840 C   0  0  0  0  0  0  0  0  0  0  0  0
  139.4860   74.8440  221.5020 N   0  0  0  0  0  0  0  0  0  0  0  0
  140.6330   74.7410  220.6310 C   0  0  0  0  0  0  0  0  0  0  0  0
  140.7610   76.0150  219.8000 C   0  0  0  0  0  0  0  0  0  0  0  0
  140.8440   77.1220  220.7910 C   0  0  0  0  0  0  0  0  0  0  0  0
  141.8500   78.0540  220.7830 C   0  0  0  0  0  0  0  0  0  0  0  0
  141.8240   79.0330  221.7530 C   0  0  0  0  0  0  0  0  0  0  0  0
  140.8190   79.0830  222.7090 C   0  0  0  0  0  0  0  0  0  0  0  0
  139.7950   78.1460  222.7290 C   0  0  0  0  0  0  0  0  0  0  0  0
  139.8410   77.1760  221.7510 C   0  0  0  0  0  0  0  0  0  0  0  0
  138.7930   76.1000  221.6590 C   0  0  0  0  0  0  0  0  0  0  0  0
  137.7830   73.3640  222.3520 N   0  0  0  0  0  0  0  0  0  0  0  0
  134.9730   72.8950  223.5900 C   0  0  0  0  0  0  0  0  0  0  0  0
  132.6678   71.2121  228.0606 H   0  0  0  0  0  0  0  0  0  0  0  0
  132.5670   73.6253  227.4706 H   0  0  0  0  0  0  0  0  0  0  0  0
  133.6606   74.4010  225.3510 H   0  0  0  0  0  0  0  0  0  0  0  0
  133.8098   69.5813  226.6122 H   0  0  0  0  0  0  0  0  0  0  0  0
  135.9249   69.6546  224.8897 H   0  0  0  0  0  0  0  0  0  0  0  0
  134.3230   69.2352  224.1411 H   0  0  0  0  0  0  0  0  0  0  0  0
  136.3467   69.9480  222.6091 H   0  0  0  0  0  0  0  0  0  0  0  0
  134.7006   70.5509  222.2641 H   0  0  0  0  0  0  0  0  0  0  0  0
  140.6460   69.8810  223.3500 H   0  0  0  0  0  0  0  0  0  0  0  0
  142.1122   70.5033  225.2021 H   0  0  0  0  0  0  0  0  0  0  0  0
  141.1299   71.9884  225.4579 H   0  0  0  0  0  0  0  0  0  0  0  0
  139.2074   70.4270  226.2529 H   0  0  0  0  0  0  0  0  0  0  0  0
  141.7026   71.2829  227.4851 H   0  0  0  0  0  0  0  0  0  0  0  0
  140.0461   71.2467  228.1594 H   0  0  0  0  0  0  0  0  0  0  0  0
  142.0333   68.9180  227.9975 H   0  0  0  0  0  0  0  0  0  0  0  0
  141.4613   69.7100  229.4754 H   0  0  0  0  0  0  0  0  0  0  0  0
  140.0483   67.7435  229.1922 H   0  0  0  0  0  0  0  0  0  0  0  0
  139.0393   69.1237  228.6610 H   0  0  0  0  0  0  0  0  0  0  0  0
  140.2340   66.9830  227.1540 H   0  0  0  0  0  0  0  0  0  0  0  0
  141.4894   68.4775  226.0271 H   0  0  0  0  0  0  0  0  0  0  0  0
  139.8906   68.4789  225.1491 H   0  0  0  0  0  0  0  0  0  0  0  0
  141.5414   74.6060  221.2364 H   0  0  0  0  0  0  0  0  0  0  0  0
  140.5060   73.8785  219.9602 H   0  0  0  0  0  0  0  0  0  0  0  0
  141.6701   75.9822  219.1816 H   0  0  0  0  0  0  0  0  0  0  0  0
  139.9128   76.1431  219.1114 H   0  0  0  0  0  0  0  0  0  0  0  0
  142.6499   78.0214  220.0287 H   0  0  0  0  0  0  0  0  0  0  0  0
  142.6190   79.7930  221.7698 H   0  0  0  0  0  0  0  0  0  0  0  0
  140.8343   79.8810  223.4659 H   0  0  0  0  0  0  0  0  0  0  0  0
  138.9934   78.1760  223.4817 H   0  0  0  0  0  0  0  0  0  0  0  0
  138.1870   76.0843  222.5769 H   0  0  0  0  0  0  0  0  0  0  0  0
  138.1179   76.2831  220.8101 H   0  0  0  0  0  0  0  0  0  0  0  0
  135.4357   73.8762  223.7719 H   0  0  0  0  0  0  0  0  0  0  0  0
  134.2209   72.9937  222.7934 H   0  0  0  0  0  0  0  0  0  0  0  0
  1  2  2  0
  2  3  1  0
  3  4  2  0
  4  5  1  0
  5  6  2  0
  5  7  1  0
  7  8  1  0
  8  9  1  0
  9 10  1  0
 10 11  2  0
 11 12  1  0
 12 13  1  0
 13 14  1  0
 14 15  1  0
 15 16  1  0
 16 17  1  0
 17 18  1  0
 18 19  1  0
 19 20  1  0
 12 21  2  0
 21 22  1  0
 22 23  1  0
 23 24  1  0
 24 25  1  0
 25 26  1  0
 26 27  2  0
 27 28  1  0
 28 29  2  0
 29 30  1  0
 30 31  2  0
 31 32  1  0
 22 33  2  0
  9 34  1  0
  6  1  1  0
 33 10  1  0
 34  4  1  0
 20 15  1  0
 32 23  1  0
 31 26  1  0
  1 35  1  0
  2 36  1  0
  3 37  1  0
  6 38  1  0
  7 39  1  0
  7 40  1  0
  8 41  1  0
  8 42  1  0
 13 43  1  0
 14 44  1  0
 14 45  1  0
 15 46  1  1
 16 47  1  0
 16 48  1  0
 17 49  1  0
 17 50  1  0
 18 51  1  0
 18 52  1  0
 19 53  1  0
 20 54  1  0
 20 55  1  0
 24 56  1  0
 24 57  1  0
 25 58  1  0
 25 59  1  0
 27 60  1  0
 28 61  1  0
 29 62  1  0
 30 63  1  0
 32 64  1  0
 32 65  1  0
 34 66  1  0
 34 67  1  0
M  END
>  <smiles>  (11) 
c1ccc2c(c1)CCN(c1nc(NCC3CCCNC3)nc(N3CCc4ccccc4C3)n1)C2

>  <score_type>  (11) 
oracle

>  <origin>  (11) 
autodockgpu

>  <m_score__min__energy>  (11) 
-10.83

>  <m_primary>  (11) 
energy

>  <rmsd>  (11) 
10.327667259152134

>  <m_score__min__rmsd>  (11) 
10.327667259152134

>  <meeko>  (11) 
{"free_energy": -8.67, "intermolecular_energy": -10.17, "internal_energy": -1.01, "cluster_size": 2, "cluster_id": 5, "rank_in_cluster": 1}

>  <energy>  (11) 
-9.84

>  <cluster_rmsd>  (11) 
0.89

>  <cluster>  (11) 
1

$$$$

     RDKit          3D

 67 72  0  0  0  0  0  0  0  0999 V2000
  145.9650   68.9610  219.3510 C   0  0  0  0  0  0  0  0  0  0  0  0
  144.7890   68.2260  219.4720 C   0  0  0  0  0  0  0  0  0  0  0  0
  143.5840   68.8880  219.3520 C   0  0  0  0  0  0  0  0  0  0  0  0
  143.6110   70.2440  219.1190 C   0  0  0  0  0  0  0  0  0  0  0  0
  144.7490   70.9930  218.9940 C   0  0  0  0  0  0  0  0  0  0  0  0
  145.9620   70.3180  219.1170 C   0  0  0  0  0  0  0  0  0  0  0  0
  144.8200   72.4420  218.7470 C   0  0  0  0  0  0  0  0  0  0  0  0
  143.4540   73.0430  218.4530 C   0  0  0  0  0  0  0  0  0  0  0  0
  142.4660   72.3610  219.2880 N   0  0  0  0  0  0  0  0  0  0  0  0
  141.7720   73.0670  220.2960 C   0  0  0  0  0  0  0  0  0  0  0  0
  141.1520   72.3310  221.2380 N   0  0  0  0  0  0  0  0  0  0  0  0
  140.4710   72.9560  222.2100 C   0  0  0  0  0  0  0  0  0  0  0  0
  139.8370   72.1000  223.1710 N   0  0  0  0  0  0  0  0  0  0  0  0
  140.3230   70.7700  223.4800 C   0  0  0  0  0  0  0  0  0  0  0  0
  139.6940   70.2790  224.7770 C   0  0  2  0  0  0  0  0  0  0  0  0
  140.6900   70.5470  225.8810 C   0  0  0  0  0  0  0  0  0  0  0  0
  140.9320   69.2580  226.6300 C   0  0  0  0  0  0  0  0  0  0  0  0
  139.5480   68.7290  227.0190 C   0  0  0  0  0  0  0  0  0  0  0  0
  138.9050   68.2200  225.8450 N   0  0  0  0  0  0  0  0  0  0  0  0
  139.3630   68.8320  224.6200 C   0  0  0  0  0  0  0  0  0  0  0  0
  140.4000   74.2950  222.2580 N   0  0  0  0  0  0  0  0  0  0  0  0
  141.0210   75.0620  221.3140 C   0  0  0  0  0  0  0  0  0  0  0  0
  140.9550   76.4810  221.3380 N   0  0  0  0  0  0  0  0  0  0  0  0
  141.5730   77.1920  220.2430 C   0  0  0  0  0  0  0  0  0  0  0  0
  141.1830   78.6660  220.3040 C   0  0  0  0  0  0  0  0  0  0  0  0
  141.6110   79.1290  221.6520 C   0  0  0  0  0  0  0  0  0  0  0  0
  142.4070   80.2290  221.8420 C   0  0  0  0  0  0  0  0  0  0  0  0
  142.7410   80.5620  223.1380 C   0  0  0  0  0  0  0  0  0  0  0  0
  142.2930   79.8150  224.2190 C   0  0  0  0  0  0  0  0  0  0  0  0
  141.4870   78.6990  224.0400 C   0  0  0  0  0  0  0  0  0  0  0  0
  141.1650   78.3850  222.7370 C   0  0  0  0  0  0  0  0  0  0  0  0
  140.3000   77.2000  222.4040 C   0  0  0  0  0  0  0  0  0  0  0  0
  141.6910   74.4050  220.3590 N   0  0  0  0  0  0  0  0  0  0  0  0
  142.2790   70.9500  219.0010 C   0  0  0  0  0  0  0  0  0  0  0  0
  146.9293   68.4402  219.4455 H   0  0  0  0  0  0  0  0  0  0  0  0
  144.8195   67.1424  219.6590 H   0  0  0  0  0  0  0  0  0  0  0  0
  142.6300   68.3476  219.4400 H   0  0  0  0  0  0  0  0  0  0  0  0
  146.9116   70.8660  219.0277 H   0  0  0  0  0  0  0  0  0  0  0  0
  145.2386   72.9330  219.6379 H   0  0  0  0  0  0  0  0  0  0  0  0
  145.4565   72.6030  217.8644 H   0  0  0  0  0  0  0  0  0  0  0  0
  143.4616   74.1177  218.6875 H   0  0  0  0  0  0  0  0  0  0  0  0
  143.2043   72.9173  217.3891 H   0  0  0  0  0  0  0  0  0  0  0  0
  138.9970   72.5020  223.6370 H   0  0  0  0  0  0  0  0  0  0  0  0
  140.0558   70.0845  222.6622 H   0  0  0  0  0  0  0  0  0  0  0  0
  141.4165   70.8008  223.5957 H   0  0  0  0  0  0  0  0  0  0  0  0
  138.7561   70.7968  225.0264 H   0  0  0  0  0  0  0  0  0  0  0  0
  141.6349   70.9083  225.4489 H   0  0  0  0  0  0  0  0  0  0  0  0
  140.2973   71.3132  226.5656 H   0  0  0  0  0  0  0  0  0  0  0  0
  141.4509   68.5332  225.9855 H   0  0  0  0  0  0  0  0  0  0  0  0
  141.5649   69.4193  227.5151 H   0  0  0  0  0  0  0  0  0  0  0  0
  139.6544   67.9242  227.7613 H   0  0  0  0  0  0  0  0  0  0  0  0
  138.9456   69.5396  227.4550 H   0  0  0  0  0  0  0  0  0  0  0  0
  139.0330   67.1850  225.8020 H   0  0  0  0  0  0  0  0  0  0  0  0
  140.2644   68.3016  224.2793 H   0  0  0  0  0  0  0  0  0  0  0  0
  138.5427   68.7602  223.8906 H   0  0  0  0  0  0  0  0  0  0  0  0
  142.6666   77.0994  220.3173 H   0  0  0  0  0  0  0  0  0  0  0  0
  141.2308   76.7630  219.2897 H   0  0  0  0  0  0  0  0  0  0  0  0
  141.7018   79.2348  219.5183 H   0  0  0  0  0  0  0  0  0  0  0  0
  140.1047   78.8123  220.1429 H   0  0  0  0  0  0  0  0  0  0  0  0
  142.7667   80.8252  220.9904 H   0  0  0  0  0  0  0  0  0  0  0  0
  143.3776   81.4405  223.3195 H   0  0  0  0  0  0  0  0  0  0  0  0
  142.5824   80.1133  225.2375 H   0  0  0  0  0  0  0  0  0  0  0  0
  141.1261   78.0998  224.8890 H   0  0  0  0  0  0  0  0  0  0  0  0
  140.1930   76.5515  223.2861 H   0  0  0  0  0  0  0  0  0  0  0  0
  139.2946   77.5239  222.0970 H   0  0  0  0  0  0  0  0  0  0  0  0
  141.5676   70.5183  219.7203 H   0  0  0  0  0  0  0  0  0  0  0  0
  141.8815   70.8269  217.9827 H   0  0  0  0  0  0  0  0  0  0  0  0
  1  2  2  0
  2  3  1  0
  3  4  2  0
  4  5  1  0
  5  6  2  0
  5  7  1  0
  7  8  1  0
  8  9  1  0
  9 10  1  0
 10 11  2  0
 11 12  1  0
 12 13  1  0
 13 14  1  0
 14 15  1  0
 15 16  1  0
 16 17  1  0
 17 18  1  0
 18 19  1  0
 19 20  1  0
 12 21  2  0
 21 22  1  0
 22 23  1  0
 23 24  1  0
 24 25  1  0
 25 26  1  0
 26 27  2  0
 27 28  1  0
 28 29  2  0
 29 30  1  0
 30 31  2  0
 31 32  1  0
 22 33  2  0
  9 34  1  0
  6  1  1  0
 33 10  1  0
 34  4  1  0
 20 15  1  0
 32 23  1  0
 31 26  1  0
  1 35  1  0
  2 36  1  0
  3 37  1  0
  6 38  1  0
  7 39  1  0
  7 40  1  0
  8 41  1  0
  8 42  1  0
 13 43  1  0
 14 44  1  0
 14 45  1  0
 15 46  1  1
 16 47  1  0
 16 48  1  0
 17 49  1  0
 17 50  1  0
 18 51  1  0
 18 52  1  0
 19 53  1  0
 20 54  1  0
 20 55  1  0
 24 56  1  0
 24 57  1  0
 25 58  1  0
 25 59  1  0
 27 60  1  0
 28 61  1  0
 29 62  1  0
 30 63  1  0
 32 64  1  0
 32 65  1  0
 34 66  1  0
 34 67  1  0
M  END
>  <smiles>  (12) 
c1ccc2c(c1)CCN(c1nc(NCC3CCCNC3)nc(N3CCc4ccccc4C3)n1)C2

>  <score_type>  (12) 
oracle

>  <origin>  (12) 
autodockgpu

>  <m_score__min__energy>  (12) 
-10.83

>  <m_primary>  (12) 
energy

>  <rmsd>  (12) 
9.31839925076486

>  <m_score__min__rmsd>  (12) 
9.31839925076486

>  <meeko>  (12) 
{"free_energy": -9.64, "intermolecular_energy": -11.13, "internal_energy": -0.91, "cluster_size": 15, "cluster_id": 2, "rank_in_cluster": 7}

>  <energy>  (12) 
-9.7

>  <cluster_rmsd>  (12) 
0.92

>  <cluster>  (12) 
1

$$$$

     RDKit          3D

 67 72  0  0  0  0  0  0  0  0999 V2000
  145.7850   68.4890  219.5770 C   0  0  0  0  0  0  0  0  0  0  0  0
  144.5760   67.8090  219.6960 C   0  0  0  0  0  0  0  0  0  0  0  0
  143.4040   68.5210  219.5500 C   0  0  0  0  0  0  0  0  0  0  0  0
  143.4930   69.8710  219.2930 C   0  0  0  0  0  0  0  0  0  0  0  0
  144.6650   70.5660  219.1700 C   0  0  0  0  0  0  0  0  0  0  0  0
  145.8450   69.8400  219.3190 C   0  0  0  0  0  0  0  0  0  0  0  0
  144.8020   72.0060  218.8990 C   0  0  0  0  0  0  0  0  0  0  0  0
  143.4680   72.6620  218.5770 C   0  0  0  0  0  0  0  0  0  0  0  0
  142.4420   72.0380  219.4120 N   0  0  0  0  0  0  0  0  0  0  0  0
  141.7680   72.7930  220.3990 C   0  0  0  0  0  0  0  0  0  0  0  0
  141.2100   72.1050  221.4140 N   0  0  0  0  0  0  0  0  0  0  0  0
  140.5510   72.7760  222.3700 C   0  0  0  0  0  0  0  0  0  0  0  0
  139.9830   71.9710  223.4130 N   0  0  0  0  0  0  0  0  0  0  0  0
  139.6130   70.5830  223.2210 C   0  0  0  0  0  0  0  0  0  0  0  0
  139.3160   69.9370  224.5670 C   0  0  2  0  0  0  0  0  0  0  0  0
  140.4140   70.3630  225.5140 C   0  0  0  0  0  0  0  0  0  0  0  0
  141.0190   69.1240  226.1310 C   0  0  0  0  0  0  0  0  0  0  0  0
  139.8460   68.3190  226.7010 C   0  0  0  0  0  0  0  0  0  0  0  0
  139.1240   67.7300  225.6130 N   0  0  0  0  0  0  0  0  0  0  0  0
  139.2450   68.4580  224.3730 C   0  0  0  0  0  0  0  0  0  0  0  0
  140.4410   74.1130  222.3310 N   0  0  0  0  0  0  0  0  0  0  0  0
  140.9990   74.8310  221.3130 C   0  0  0  0  0  0  0  0  0  0  0  0
  140.8910   76.2460  221.2440 N   0  0  0  0  0  0  0  0  0  0  0  0
  141.4550   76.8980  220.0850 C   0  0  0  0  0  0  0  0  0  0  0  0
  141.0220   78.3620  220.0600 C   0  0  0  0  0  0  0  0  0  0  0  0
  141.4750   78.9270  221.3600 C   0  0  0  0  0  0  0  0  0  0  0  0
  142.2430   80.0590  221.4510 C   0  0  0  0  0  0  0  0  0  0  0  0
  142.6050   80.4880  222.7110 C   0  0  0  0  0  0  0  0  0  0  0  0
  142.2120   79.8030  223.8520 C   0  0  0  0  0  0  0  0  0  0  0  0
  141.4360   78.6550  223.7740 C   0  0  0  0  0  0  0  0  0  0  0  0
  141.0850   78.2450  222.5060 C   0  0  0  0  0  0  0  0  0  0  0  0
  140.2460   77.0160  222.2790 C   0  0  0  0  0  0  0  0  0  0  0  0
  141.6490   74.1290  220.3760 N   0  0  0  0  0  0  0  0  0  0  0  0
  142.1960   70.6320  219.1470 C   0  0  0  0  0  0  0  0  0  0  0  0
  146.7240   67.9279  219.6930 H   0  0  0  0  0  0  0  0  0  0  0  0
  144.5560   66.7286  219.9018 H   0  0  0  0  0  0  0  0  0  0  0  0
  142.4261   68.0248  219.6364 H   0  0  0  0  0  0  0  0  0  0  0  0
  146.8190   70.3435  219.2310 H   0  0  0  0  0  0  0  0  0  0  0  0
  145.2310   72.4938  219.7867 H   0  0  0  0  0  0  0  0  0  0  0  0
  145.4551   72.1228  218.0216 H   0  0  0  0  0  0  0  0  0  0  0  0
  143.5204   73.7393  218.7931 H   0  0  0  0  0  0  0  0  0  0  0  0
  143.2253   72.5299  217.5123 H   0  0  0  0  0  0  0  0  0  0  0  0
  139.8540   72.4540  224.3270 H   0  0  0  0  0  0  0  0  0  0  0  0
  138.7176   70.5286  222.5844 H   0  0  0  0  0  0  0  0  0  0  0  0
  140.4446   70.0492  222.7378 H   0  0  0  0  0  0  0  0  0  0  0  0
  138.3520   70.2503  224.9943 H   0  0  0  0  0  0  0  0  0  0  0  0
  141.1865   70.9180  224.9615 H   0  0  0  0  0  0  0  0  0  0  0  0
  140.0038   71.0146  226.2996 H   0  0  0  0  0  0  0  0  0  0  0  0
  141.5498   68.5370  225.3670 H   0  0  0  0  0  0  0  0  0  0  0  0
  141.7496   69.3792  226.9127 H   0  0  0  0  0  0  0  0  0  0  0  0
  140.2268   67.5283  227.3642 H   0  0  0  0  0  0  0  0  0  0  0  0
  139.1824   68.9796  227.2783 H   0  0  0  0  0  0  0  0  0  0  0  0
  139.4380   66.7420  225.4850 H   0  0  0  0  0  0  0  0  0  0  0  0
  140.1608   68.1276  223.8609 H   0  0  0  0  0  0  0  0  0  0  0  0
  138.3429   68.2478  223.7797 H   0  0  0  0  0  0  0  0  0  0  0  0
  142.5526   76.8415  220.1310 H   0  0  0  0  0  0  0  0  0  0  0  0
  141.0985   76.3958  219.1736 H   0  0  0  0  0  0  0  0  0  0  0  0
  141.5000   78.8910  219.2223 H   0  0  0  0  0  0  0  0  0  0  0  0
  139.9355   78.4663  219.9235 H   0  0  0  0  0  0  0  0  0  0  0  0
  142.5595   80.6060  220.5507 H   0  0  0  0  0  0  0  0  0  0  0  0
  143.2197   81.3944  222.8137 H   0  0  0  0  0  0  0  0  0  0  0  0
  142.5219   80.1776  224.8387 H   0  0  0  0  0  0  0  0  0  0  0  0
  141.1195   78.1044  224.6721 H   0  0  0  0  0  0  0  0  0  0  0  0
  140.1838   76.4255  223.2050 H   0  0  0  0  0  0  0  0  0  0  0  0
  139.2229   77.2903  221.9822 H   0  0  0  0  0  0  0  0  0  0  0  0
  141.4581   70.2447  219.8650 H   0  0  0  0  0  0  0  0  0  0  0  0
  141.8049   70.5085  218.1263 H   0  0  0  0  0  0  0  0  0  0  0  0
  1  2  2  0
  2  3  1  0
  3  4  2  0
  4  5  1  0
  5  6  2  0
  5  7  1  0
  7  8  1  0
  8  9  1  0
  9 10  1  0
 10 11  2  0
 11 12  1  0
 12 13  1  0
 13 14  1  0
 14 15  1  0
 15 16  1  0
 16 17  1  0
 17 18  1  0
 18 19  1  0
 19 20  1  0
 12 21  2  0
 21 22  1  0
 22 23  1  0
 23 24  1  0
 24 25  1  0
 25 26  1  0
 26 27  2  0
 27 28  1  0
 28 29  2  0
 29 30  1  0
 30 31  2  0
 31 32  1  0
 22 33  2  0
  9 34  1  0
  6  1  1  0
 33 10  1  0
 34  4  1  0
 20 15  1  0
 32 23  1  0
 31 26  1  0
  1 35  1  0
  2 36  1  0
  3 37  1  0
  6 38  1  0
  7 39  1  0
  7 40  1  0
  8 41  1  0
  8 42  1  0
 13 43  1  0
 14 44  1  0
 14 45  1  0
 15 46  1  1
 16 47  1  0
 16 48  1  0
 17 49  1  0
 17 50  1  0
 18 51  1  0
 18 52  1  0
 19 53  1  0
 20 54  1  0
 20 55  1  0
 24 56  1  0
 24 57  1  0
 25 58  1  0
 25 59  1  0
 27 60  1  0
 28 61  1  0
 29 62  1  0
 30 63  1  0
 32 64  1  0
 32 65  1  0
 34 66  1  0
 34 67  1  0
M  END
>  <smiles>  (13) 
c1ccc2c(c1)CCN(c1nc(NCC3CCCNC3)nc(N3CCc4ccccc4C3)n1)C2

>  <score_type>  (13) 
oracle

>  <origin>  (13) 
autodockgpu

>  <m_score__min__energy>  (13) 
-10.83

>  <m_primary>  (13) 
energy

>  <rmsd>  (13) 
9.33186432360818

>  <m_score__min__rmsd>  (13) 
9.33186432360818

>  <meeko>  (13) 
{"free_energy": -9.68, "intermolecular_energy": -11.17, "internal_energy": -0.96, "cluster_size": 15, "cluster_id": 2, "rank_in_cluster": 5}

>  <energy>  (13) 
-9.65

>  <cluster_rmsd>  (13) 
1.1

>  <cluster>  (13) 
1

$$$$

     RDKit          3D

 67 72  0  0  0  0  0  0  0  0999 V2000
  140.7610   67.8640  226.5440 C   0  0  0  0  0  0  0  0  0  0  0  0
  141.0660   69.0540  227.2000 C   0  0  0  0  0  0  0  0  0  0  0  0
  140.6250   70.2400  226.6510 C   0  0  0  0  0  0  0  0  0  0  0  0
  139.9040   70.1830  225.4800 C   0  0  0  0  0  0  0  0  0  0  0  0
  139.5880   69.0310  224.8130 C   0  0  0  0  0  0  0  0  0  0  0  0
  140.0380   67.8370  225.3720 C   0  0  0  0  0  0  0  0  0  0  0  0
  138.8240   68.9290  223.5590 C   0  0  0  0  0  0  0  0  0  0  0  0
  138.2330   70.2640  223.1340 C   0  0  0  0  0  0  0  0  0  0  0  0
  139.1910   71.3150  223.4720 N   0  0  0  0  0  0  0  0  0  0  0  0
  139.8130   72.0710  222.4520 C   0  0  0  0  0  0  0  0  0  0  0  0
  140.5440   71.3900  221.5500 N   0  0  0  0  0  0  0  0  0  0  0  0
  141.1610   72.0650  220.5690 C   0  0  0  0  0  0  0  0  0  0  0  0
  141.9220   71.2660  219.6510 N   0  0  0  0  0  0  0  0  0  0  0  0
  142.8560   71.8360  218.7000 C   0  0  0  0  0  0  0  0  0  0  0  0
  144.2300   71.9680  219.3420 C   0  0  2  0  0  0  0  0  0  0  0  0
  144.0240   72.5850  220.7060 C   0  0  0  0  0  0  0  0  0  0  0  0
  144.9120   73.8030  220.8170 C   0  0  0  0  0  0  0  0  0  0  0  0
  146.3210   73.3340  220.4430 C   0  0  0  0  0  0  0  0  0  0  0  0
  146.3700   73.1170  219.0280 N   0  0  0  0  0  0  0  0  0  0  0  0
  145.0910   72.7940  218.4440 C   0  0  0  0  0  0  0  0  0  0  0  0
  141.0610   73.4000  220.4740 N   0  0  0  0  0  0  0  0  0  0  0  0
  140.3260   74.1110  221.3770 C   0  0  0  0  0  0  0  0  0  0  0  0
  140.2090   75.5250  221.3040 N   0  0  0  0  0  0  0  0  0  0  0  0
  140.3380   76.1350  220.0010 C   0  0  0  0  0  0  0  0  0  0  0  0
  139.9320   77.6040  220.0810 C   0  0  0  0  0  0  0  0  0  0  0  0
  140.8130   78.1980  221.1230 C   0  0  0  0  0  0  0  0  0  0  0  0
  141.5710   79.3200  220.9040 C   0  0  0  0  0  0  0  0  0  0  0  0
  142.3520   79.7770  221.9440 C   0  0  0  0  0  0  0  0  0  0  0  0
  142.3770   79.1330  223.1730 C   0  0  0  0  0  0  0  0  0  0  0  0
  141.6150   77.9960  223.4070 C   0  0  0  0  0  0  0  0  0  0  0  0
  140.8420   77.5560  222.3540 C   0  0  0  0  0  0  0  0  0  0  0  0
  139.9700   76.3360  222.4740 C   0  0  0  0  0  0  0  0  0  0  0  0
  139.7230   73.4050  222.3430 N   0  0  0  0  0  0  0  0  0  0  0  0
  139.4400   71.4960  224.8920 C   0  0  0  0  0  0  0  0  0  0  0  0
  141.1090   66.9142  226.9762 H   0  0  0  0  0  0  0  0  0  0  0  0
  141.6455   69.0482  228.1349 H   0  0  0  0  0  0  0  0  0  0  0  0
  140.8432   71.2034  227.1350 H   0  0  0  0  0  0  0  0  0  0  0  0
  139.8172   66.8781  224.8802 H   0  0  0  0  0  0  0  0  0  0  0  0
  139.4945   68.5698  222.7644 H   0  0  0  0  0  0  0  0  0  0  0  0
  137.9913   68.2304  223.7278 H   0  0  0  0  0  0  0  0  0  0  0  0
  138.0497   70.2618  222.0494 H   0  0  0  0  0  0  0  0  0  0  0  0
  137.2781   70.4391  223.6513 H   0  0  0  0  0  0  0  0  0  0  0  0
  141.7580   70.2390  219.7150 H   0  0  0  0  0  0  0  0  0  0  0  0
  142.9259   71.1807  217.8193 H   0  0  0  0  0  0  0  0  0  0  0  0
  142.5009   72.8312  218.3944 H   0  0  0  0  0  0  0  0  0  0  0  0
  144.7402   71.0026  219.4749 H   0  0  0  0  0  0  0  0  0  0  0  0
  142.9712   72.8806  220.8250 H   0  0  0  0  0  0  0  0  0  0  0  0
  144.2783   71.8587  221.4920 H   0  0  0  0  0  0  0  0  0  0  0  0
  144.5736   74.5871  220.1237 H   0  0  0  0  0  0  0  0  0  0  0  0
  144.8853   74.2299  221.8304 H   0  0  0  0  0  0  0  0  0  0  0  0
  147.0548   74.1032  220.7255 H   0  0  0  0  0  0  0  0  0  0  0  0
  146.5600   72.4012  220.9747 H   0  0  0  0  0  0  0  0  0  0  0  0
  146.7780   73.9590  218.5640 H   0  0  0  0  0  0  0  0  0  0  0  0
  144.5626   73.7318  218.2174 H   0  0  0  0  0  0  0  0  0  0  0  0
  145.2840   72.2013  217.5377 H   0  0  0  0  0  0  0  0  0  0  0  0
  141.3826   76.0617  219.6643 H   0  0  0  0  0  0  0  0  0  0  0  0
  139.6835   75.6135  219.2871 H   0  0  0  0  0  0  0  0  0  0  0  0
  140.0910   78.1011  219.1127 H   0  0  0  0  0  0  0  0  0  0  0  0
  138.8667   77.7225  220.3281 H   0  0  0  0  0  0  0  0  0  0  0  0
  141.5562   79.8368  219.9331 H   0  0  0  0  0  0  0  0  0  0  0  0
  142.9707   80.6744  221.7960 H   0  0  0  0  0  0  0  0  0  0  0  0
  143.0129   79.5310  223.9775 H   0  0  0  0  0  0  0  0  0  0  0  0
  141.6275   77.4765  224.3765 H   0  0  0  0  0  0  0  0  0  0  0  0
  140.2314   75.7736  223.3825 H   0  0  0  0  0  0  0  0  0  0  0  0
  138.9093   76.6189  222.5435 H   0  0  0  0  0  0  0  0  0  0  0  0
  140.2180   72.2602  225.0358 H   0  0  0  0  0  0  0  0  0  0  0  0
  138.5169   71.8228  225.3931 H   0  0  0  0  0  0  0  0  0  0  0  0
  1  2  2  0
  2  3  1  0
  3  4  2  0
  4  5  1  0
  5  6  2  0
  5  7  1  0
  7  8  1  0
  8  9  1  0
  9 10  1  0
 10 11  2  0
 11 12  1  0
 12 13  1  0
 13 14  1  0
 14 15  1  0
 15 16  1  0
 16 17  1  0
 17 18  1  0
 18 19  1  0
 19 20  1  0
 12 21  2  0
 21 22  1  0
 22 23  1  0
 23 24  1  0
 24 25  1  0
 25 26  1  0
 26 27  2  0
 27 28  1  0
 28 29  2  0
 29 30  1  0
 30 31  2  0
 31 32  1  0
 22 33  2  0
  9 34  1  0
  6  1  1  0
 33 10  1  0
 34  4  1  0
 20 15  1  0
 32 23  1  0
 31 26  1  0
  1 35  1  0
  2 36  1  0
  3 37  1  0
  6 38  1  0
  7 39  1  0
  7 40  1  0
  8 41  1  0
  8 42  1  0
 13 43  1  0
 14 44  1  0
 14 45  1  0
 15 46  1  1
 16 47  1  0
 16 48  1  0
 17 49  1  0
 17 50  1  0
 18 51  1  0
 18 52  1  0
 19 53  1  0
 20 54  1  0
 20 55  1  0
 24 56  1  0
 24 57  1  0
 25 58  1  0
 25 59  1  0
 27 60  1  0
 28 61  1  0
 29 62  1  0
 30 63  1  0
 32 64  1  0
 32 65  1  0
 34 66  1  0
 34 67  1  0
M  END
>  <smiles>  (14) 
c1ccc2c(c1)CCN(c1nc(NCC3CCCNC3)nc(N3CCc4ccccc4C3)n1)C2

>  <score_type>  (14) 
oracle

>  <origin>  (14) 
autodockgpu

>  <m_score__min__energy>  (14) 
-10.83

>  <m_primary>  (14) 
energy

>  <rmsd>  (14) 
6.15628502587119

>  <m_score__min__rmsd>  (14) 
6.15628502587119

>  <meeko>  (14) 
{"free_energy": -9.84, "intermolecular_energy": -11.33, "internal_energy": -1.04, "cluster_size": 29, "cluster_id": 1, "rank_in_cluster": 11}

>  <energy>  (14) 
-9.62

>  <cluster_rmsd>  (14) 
1.86

>  <cluster>  (14) 
1

$$$$

     RDKit          3D

 67 72  0  0  0  0  0  0  0  0999 V2000
  140.3070   67.4180  226.4260 C   0  0  0  0  0  0  0  0  0  0  0  0
  140.9130   68.4030  227.2020 C   0  0  0  0  0  0  0  0  0  0  0  0
  140.7770   69.7200  226.8180 C   0  0  0  0  0  0  0  0  0  0  0  0
  140.0450   69.9930  225.6840 C   0  0  0  0  0  0  0  0  0  0  0  0
  139.4370   69.0490  224.9030 C   0  0  0  0  0  0  0  0  0  0  0  0
  139.5800   67.7200  225.2960 C   0  0  0  0  0  0  0  0  0  0  0  0
  138.6500   69.2980  223.6840 C   0  0  0  0  0  0  0  0  0  0  0  0
  138.4080   70.7810  223.4480 C   0  0  0  0  0  0  0  0  0  0  0  0
  139.6070   71.5090  223.8610 N   0  0  0  0  0  0  0  0  0  0  0  0
  140.3810   72.2090  222.9070 C   0  0  0  0  0  0  0  0  0  0  0  0
  141.3590   71.5170  222.2920 N   0  0  0  0  0  0  0  0  0  0  0  0
  142.1280   72.1410  221.3870 C   0  0  0  0  0  0  0  0  0  0  0  0
  143.1480   71.3350  220.7790 N   0  0  0  0  0  0  0  0  0  0  0  0
  143.1220   70.9590  219.3800 C   0  0  0  0  0  0  0  0  0  0  0  0
  143.5400   72.1430  218.5190 C   0  0  2  0  0  0  0  0  0  0  0  0
  144.5480   72.9370  219.3180 C   0  0  0  0  0  0  0  0  0  0  0  0
  144.0830   74.3730  219.3810 C   0  0  0  0  0  0  0  0  0  0  0  0
  143.8150   74.7950  217.9330 C   0  0  0  0  0  0  0  0  0  0  0  0
  142.6120   74.1610  217.4860 N   0  0  0  0  0  0  0  0  0  0  0  0
  142.3170   72.9250  218.1700 C   0  0  0  0  0  0  0  0  0  0  0  0
  141.9380   73.4360  221.0870 N   0  0  0  0  0  0  0  0  0  0  0  0
  140.9530   74.1570  221.6990 C   0  0  0  0  0  0  0  0  0  0  0  0
  140.7350   75.5300  221.4060 N   0  0  0  0  0  0  0  0  0  0  0  0
  141.1670   76.0090  220.1140 C   0  0  0  0  0  0  0  0  0  0  0  0
  140.6250   77.4170  219.8820 C   0  0  0  0  0  0  0  0  0  0  0  0
  141.1230   78.2220  221.0300 C   0  0  0  0  0  0  0  0  0  0  0  0
  141.8080   79.3990  220.8700 C   0  0  0  0  0  0  0  0  0  0  0  0
  142.2230   80.0580  222.0080 C   0  0  0  0  0  0  0  0  0  0  0  0
  141.9620   79.5550  223.2750 C   0  0  0  0  0  0  0  0  0  0  0  0
  141.2700   78.3650  223.4510 C   0  0  0  0  0  0  0  0  0  0  0  0
  140.8650   77.7230  222.3000 C   0  0  0  0  0  0  0  0  0  0  0  0
  140.1070   76.4240  222.3480 C   0  0  0  0  0  0  0  0  0  0  0  0
  140.2050   73.5020  222.5970 N   0  0  0  0  0  0  0  0  0  0  0  0
  139.9170   71.4420  225.2770 C   0  0  0  0  0  0  0  0  0  0  0  0
  140.4125   66.3648  226.7253 H   0  0  0  0  0  0  0  0  0  0  0  0
  141.4874   68.1360  228.1013 H   0  0  0  0  0  0  0  0  0  0  0  0
  141.2401   70.5298  227.4009 H   0  0  0  0  0  0  0  0  0  0  0  0
  139.1146   66.9161  224.7068 H   0  0  0  0  0  0  0  0  0  0  0  0
  139.1940   68.8863  222.8211 H   0  0  0  0  0  0  0  0  0  0  0  0
  137.6710   68.8124  223.8096 H   0  0  0  0  0  0  0  0  0  0  0  0
  138.2115   70.9614  222.3808 H   0  0  0  0  0  0  0  0  0  0  0  0
  137.5372   71.1217  224.0274 H   0  0  0  0  0  0  0  0  0  0  0  0
  143.9160   71.0380  221.4170 H   0  0  0  0  0  0  0  0  0  0  0  0
  143.8175   70.1232  219.2137 H   0  0  0  0  0  0  0  0  0  0  0  0
  142.1017   70.6530  219.1055 H   0  0  0  0  0  0  0  0  0  0  0  0
  144.0105   71.8439  217.5707 H   0  0  0  0  0  0  0  0  0  0  0  0
  144.6224   72.5257  220.3355 H   0  0  0  0  0  0  0  0  0  0  0  0
  145.5372   72.8810  218.8402 H   0  0  0  0  0  0  0  0  0  0  0  0
  143.1625   74.4506  219.9781 H   0  0  0  0  0  0  0  0  0  0  0  0
  144.8358   75.0194  219.8559 H   0  0  0  0  0  0  0  0  0  0  0  0
  143.6990   75.8876  217.8812 H   0  0  0  0  0  0  0  0  0  0  0  0
  144.6575   74.4946  217.2927 H   0  0  0  0  0  0  0  0  0  0  0  0
  141.8140   74.8280  217.5840 H   0  0  0  0  0  0  0  0  0  0  0  0
  141.7744   73.1591  219.0978 H   0  0  0  0  0  0  0  0  0  0  0  0
  141.7162   72.3070  217.4866 H   0  0  0  0  0  0  0  0  0  0  0  0
  142.2663   76.0298  220.0802 H   0  0  0  0  0  0  0  0  0  0  0  0
  140.7869   75.3376  219.3299 H   0  0  0  0  0  0  0  0  0  0  0  0
  141.0032   77.8242  218.9327 H   0  0  0  0  0  0  0  0  0  0  0  0
  139.5269   77.4289  219.8177 H   0  0  0  0  0  0  0  0  0  0  0  0
  142.0191   79.8033  219.8690 H   0  0  0  0  0  0  0  0  0  0  0  0
  142.7740   81.0049  221.9093 H   0  0  0  0  0  0  0  0  0  0  0  0
  142.3108   80.1110  224.1577 H   0  0  0  0  0  0  0  0  0  0  0  0
  141.0571   77.9578  224.4504 H   0  0  0  0  0  0  0  0  0  0  0  0
  140.1532   75.9976  223.3610 H   0  0  0  0  0  0  0  0  0  0  0  0
  139.0482   76.5795  222.0934 H   0  0  0  0  0  0  0  0  0  0  0  0
  140.8648   71.9651  225.4722 H   0  0  0  0  0  0  0  0  0  0  0  0
  139.1143   71.9214  225.8564 H   0  0  0  0  0  0  0  0  0  0  0  0
  1  2  2  0
  2  3  1  0
  3  4  2  0
  4  5  1  0
  5  6  2  0
  5  7  1  0
  7  8  1  0
  8  9  1  0
  9 10  1  0
 10 11  2  0
 11 12  1  0
 12 13  1  0
 13 14  1  0
 14 15  1  0
 15 16  1  0
 16 17  1  0
 17 18  1  0
 18 19  1  0
 19 20  1  0
 12 21  2  0
 21 22  1  0
 22 23  1  0
 23 24  1  0
 24 25  1  0
 25 26  1  0
 26 27  2  0
 27 28  1  0
 28 29  2  0
 29 30  1  0
 30 31  2  0
 31 32  1  0
 22 33  2  0
  9 34  1  0
  6  1  1  0
 33 10  1  0
 34  4  1  0
 20 15  1  0
 32 23  1  0
 31 26  1  0
  1 35  1  0
  2 36  1  0
  3 37  1  0
  6 38  1  0
  7 39  1  0
  7 40  1  0
  8 41  1  0
  8 42  1  0
 13 43  1  0
 14 44  1  0
 14 45  1  0
 15 46  1  6
 16 47  1  0
 16 48  1  0
 17 49  1  0
 17 50  1  0
 18 51  1  0
 18 52  1  0
 19 53  1  0
 20 54  1  0
 20 55  1  0
 24 56  1  0
 24 57  1  0
 25 58  1  0
 25 59  1  0
 27 60  1  0
 28 61  1  0
 29 62  1  0
 30 63  1  0
 32 64  1  0
 32 65  1  0
 34 66  1  0
 34 67  1  0
M  END
>  <smiles>  (15) 
c1ccc2c(c1)CCN(c1nc(NCC3CCCNC3)nc(N3CCc4ccccc4C3)n1)C2

>  <score_type>  (15) 
oracle

>  <origin>  (15) 
autodockgpu

>  <m_score__min__energy>  (15) 
-10.83

>  <m_primary>  (15) 
energy

>  <rmsd>  (15) 
5.647479598659369

>  <m_score__min__rmsd>  (15) 
5.647479598659369

>  <meeko>  (15) 
{"free_energy": -8.75, "intermolecular_energy": -10.25, "internal_energy": -1.46, "cluster_size": 29, "cluster_id": 1, "rank_in_cluster": 29}

>  <energy>  (15) 
-9.62

>  <cluster_rmsd>  (15) 
1.2

>  <cluster>  (15) 
1

$$$$

     RDKit          3D

 67 72  0  0  0  0  0  0  0  0999 V2000
  140.3030   67.4380  226.2450 C   0  0  0  0  0  0  0  0  0  0  0  0
  141.0020   68.3740  227.0020 C   0  0  0  0  0  0  0  0  0  0  0  0
  140.9450   69.7000  226.6260 C   0  0  0  0  0  0  0  0  0  0  0  0
  140.1960   70.0280  225.5190 C   0  0  0  0  0  0  0  0  0  0  0  0
  139.4980   69.1310  224.7550 C   0  0  0  0  0  0  0  0  0  0  0  0
  139.5610   67.7940  225.1400 C   0  0  0  0  0  0  0  0  0  0  0  0
  138.6900   69.4410  223.5650 C   0  0  0  0  0  0  0  0  0  0  0  0
  138.5440   70.9380  223.3400 C   0  0  0  0  0  0  0  0  0  0  0  0
  139.8040   71.5790  223.7140 N   0  0  0  0  0  0  0  0  0  0  0  0
  140.5920   72.2290  222.7370 C   0  0  0  0  0  0  0  0  0  0  0  0
  141.5900   71.5120  222.1870 N   0  0  0  0  0  0  0  0  0  0  0  0
  142.3740   72.0880  221.2630 C   0  0  0  0  0  0  0  0  0  0  0  0
  143.4150   71.2580  220.7280 N   0  0  0  0  0  0  0  0  0  0  0  0
  143.2170   70.3850  219.5880 C   0  0  0  0  0  0  0  0  0  0  0  0
  144.0840   69.1420  219.7330 C   0  0  2  0  0  0  0  0  0  0  0  0
  145.4490   69.4880  219.1850 C   0  0  0  0  0  0  0  0  0  0  0  0
  145.8200   68.4570  218.1450 C   0  0  0  0  0  0  0  0  0  0  0  0
  145.6360   67.0930  218.8160 C   0  0  0  0  0  0  0  0  0  0  0  0
  144.2340   66.8290  218.9400 N   0  0  0  0  0  0  0  0  0  0  0  0
  143.4220   68.0200  219.0040 C   0  0  0  0  0  0  0  0  0  0  0  0
  142.1780   73.3590  220.8810 N   0  0  0  0  0  0  0  0  0  0  0  0
  141.1720   74.1050  221.4250 C   0  0  0  0  0  0  0  0  0  0  0  0
  140.9480   75.4560  221.0440 N   0  0  0  0  0  0  0  0  0  0  0  0
  141.7050   75.9630  219.9240 C   0  0  0  0  0  0  0  0  0  0  0  0
  141.1510   77.3220  219.5050 C   0  0  0  0  0  0  0  0  0  0  0  0
  141.2250   78.1690  220.7260 C   0  0  0  0  0  0  0  0  0  0  0  0
  141.8350   79.3970  220.7440 C   0  0  0  0  0  0  0  0  0  0  0  0
  141.8440   80.0900  221.9360 C   0  0  0  0  0  0  0  0  0  0  0  0
  141.2590   79.5730  223.0830 C   0  0  0  0  0  0  0  0  0  0  0  0
  140.6380   78.3310  223.0790 C   0  0  0  0  0  0  0  0  0  0  0  0
  140.6410   77.6550  221.8770 C   0  0  0  0  0  0  0  0  0  0  0  0
  140.0030   76.2990  221.7350 C   0  0  0  0  0  0  0  0  0  0  0  0
  140.4110   73.4980  222.3450 N   0  0  0  0  0  0  0  0  0  0  0  0
  140.1560   71.4850  225.1200 C   0  0  0  0  0  0  0  0  0  0  0  0
  140.3444   66.3788  226.5388 H   0  0  0  0  0  0  0  0  0  0  0  0
  141.5867   68.0632  227.8804 H   0  0  0  0  0  0  0  0  0  0  0  0
  141.4828   70.4730  227.1946 H   0  0  0  0  0  0  0  0  0  0  0  0
  139.0215   67.0268  224.5652 H   0  0  0  0  0  0  0  0  0  0  0  0
  139.1742   68.9964  222.6831 H   0  0  0  0  0  0  0  0  0  0  0  0
  137.6841   69.0250  223.7237 H   0  0  0  0  0  0  0  0  0  0  0  0
  138.3251   71.1361  222.2804 H   0  0  0  0  0  0  0  0  0  0  0  0
  137.7187   71.3360  223.9487 H   0  0  0  0  0  0  0  0  0  0  0  0
  144.3320   71.3260  221.2180 H   0  0  0  0  0  0  0  0  0  0  0  0
  142.1591   70.0881  219.5349 H   0  0  0  0  0  0  0  0  0  0  0  0
  143.4989   70.9190  218.6686 H   0  0  0  0  0  0  0  0  0  0  0  0
  144.2049   68.8177  220.7771 H   0  0  0  0  0  0  0  0  0  0  0  0
  145.4225   70.4869  218.7251 H   0  0  0  0  0  0  0  0  0  0  0  0
  146.1923   69.4917  219.9959 H   0  0  0  0  0  0  0  0  0  0  0  0
  145.1604   68.5437  217.2690 H   0  0  0  0  0  0  0  0  0  0  0  0
  146.8525   68.5955  217.7918 H   0  0  0  0  0  0  0  0  0  0  0  0
  146.1071   66.3115  218.2017 H   0  0  0  0  0  0  0  0  0  0  0  0
  146.1065   67.0974  219.8103 H   0  0  0  0  0  0  0  0  0  0  0  0
  143.9260   66.2220  218.1490 H   0  0  0  0  0  0  0  0  0  0  0  0
  143.2033   68.3501  217.9777 H   0  0  0  0  0  0  0  0  0  0  0  0
  142.5070   67.7636  219.5581 H   0  0  0  0  0  0  0  0  0  0  0  0
  142.7604   76.0716  220.2145 H   0  0  0  0  0  0  0  0  0  0  0  0
  141.6256   75.2605  219.0813 H   0  0  0  0  0  0  0  0  0  0  0  0
  141.7609   77.7547  218.6983 H   0  0  0  0  0  0  0  0  0  0  0  0
  140.1232   77.2453  219.1206 H   0  0  0  0  0  0  0  0  0  0  0  0
  142.3008   79.8146  219.8392 H   0  0  0  0  0  0  0  0  0  0  0  0
  142.3270   81.0774  221.9787 H   0  0  0  0  0  0  0  0  0  0  0  0
  141.2877   80.1585  224.0138 H   0  0  0  0  0  0  0  0  0  0  0  0
  140.1709   77.9109  223.9819 H   0  0  0  0  0  0  0  0  0  0  0  0
  139.7800   75.8811  222.7278 H   0  0  0  0  0  0  0  0  0  0  0  0
  139.0579   76.3675  221.1764 H   0  0  0  0  0  0  0  0  0  0  0  0
  141.1439   71.9400  225.2844 H   0  0  0  0  0  0  0  0  0  0  0  0
  139.4089   72.0170  225.7273 H   0  0  0  0  0  0  0  0  0  0  0  0
  1  2  2  0
  2  3  1  0
  3  4  2  0
  4  5  1  0
  5  6  2  0
  5  7  1  0
  7  8  1  0
  8  9  1  0
  9 10  1  0
 10 11  2  0
 11 12  1  0
 12 13  1  0
 13 14  1  0
 14 15  1  0
 15 16  1  0
 16 17  1  0
 17 18  1  0
 18 19  1  0
 19 20  1  0
 12 21  2  0
 21 22  1  0
 22 23  1  0
 23 24  1  0
 24 25  1  0
 25 26  1  0
 26 27  2  0
 27 28  1  0
 28 29  2  0
 29 30  1  0
 30 31  2  0
 31 32  1  0
 22 33  2  0
  9 34  1  0
  6  1  1  0
 33 10  1  0
 34  4  1  0
 20 15  1  0
 32 23  1  0
 31 26  1  0
  1 35  1  0
  2 36  1  0
  3 37  1  0
  6 38  1  0
  7 39  1  0
  7 40  1  0
  8 41  1  0
  8 42  1  0
 13 43  1  0
 14 44  1  0
 14 45  1  0
 15 46  1  1
 16 47  1  0
 16 48  1  0
 17 49  1  0
 17 50  1  0
 18 51  1  0
 18 52  1  0
 19 53  1  0
 20 54  1  0
 20 55  1  0
 24 56  1  0
 24 57  1  0
 25 58  1  0
 25 59  1  0
 27 60  1  0
 28 61  1  0
 29 62  1  0
 30 63  1  0
 32 64  1  0
 32 65  1  0
 34 66  1  0
 34 67  1  0
M  END
>  <smiles>  (16) 
c1ccc2c(c1)CCN(c1nc(NCC3CCCNC3)nc(N3CCc4ccccc4C3)n1)C2

>  <score_type>  (16) 
oracle

>  <origin>  (16) 
autodockgpu

>  <m_score__min__energy>  (16) 
-10.83

>  <m_primary>  (16) 
energy

>  <rmsd>  (16) 
9.262906064202092

>  <m_score__min__rmsd>  (16) 
9.262906064202092

>  <meeko>  (16) 
{"free_energy": -9.49, "intermolecular_energy": -10.98, "internal_energy": -0.87, "cluster_size": 1, "cluster_id": 3, "rank_in_cluster": 1}

>  <energy>  (16) 
-9.57

>  <cluster_rmsd>  (16) 
0.96

>  <cluster>  (16) 
1

$$$$

     RDKit          3D

 67 72  0  0  0  0  0  0  0  0999 V2000
  140.1570   67.6270  226.2320 C   0  0  0  0  0  0  0  0  0  0  0  0
  141.1420   68.4450  226.7780 C   0  0  0  0  0  0  0  0  0  0  0  0
  141.1850   69.7700  226.3960 C   0  0  0  0  0  0  0  0  0  0  0  0
  140.2470   70.2140  225.4910 C   0  0  0  0  0  0  0  0  0  0  0  0
  139.2670   69.4350  224.9380 C   0  0  0  0  0  0  0  0  0  0  0  0
  139.2300   68.0980  225.3280 C   0  0  0  0  0  0  0  0  0  0  0  0
  138.2490   69.8700  223.9670 C   0  0  0  0  0  0  0  0  0  0  0  0
  138.2670   71.3750  223.7490 C   0  0  0  0  0  0  0  0  0  0  0  0
  139.6570   71.8250  223.7970 N   0  0  0  0  0  0  0  0  0  0  0  0
  140.2730   72.3660  222.6450 C   0  0  0  0  0  0  0  0  0  0  0  0
  140.8730   71.4950  221.8110 N   0  0  0  0  0  0  0  0  0  0  0  0
  141.4800   71.9620  220.7090 C   0  0  0  0  0  0  0  0  0  0  0  0
  142.0980   70.9710  219.8750 N   0  0  0  0  0  0  0  0  0  0  0  0
  142.9700   71.3080  218.7680 C   0  0  0  0  0  0  0  0  0  0  0  0
  144.3700   71.6070  219.2880 C   0  0  2  0  0  0  0  0  0  0  0  0
  144.2250   72.0370  220.7290 C   0  0  0  0  0  0  0  0  0  0  0  0
  144.9130   73.3710  220.9000 C   0  0  0  0  0  0  0  0  0  0  0  0
  146.3270   73.1920  220.3400 C   0  0  0  0  0  0  0  0  0  0  0  0
  146.2490   73.1330  218.9110 N   0  0  0  0  0  0  0  0  0  0  0  0
  144.9800   72.6560  218.4170 C   0  0  0  0  0  0  0  0  0  0  0  0
  141.4980   73.2740  220.4280 N   0  0  0  0  0  0  0  0  0  0  0  0
  140.8960   74.1750  221.2590 C   0  0  0  0  0  0  0  0  0  0  0  0
  140.9070   75.5690  220.9880 N   0  0  0  0  0  0  0  0  0  0  0  0
  142.0200   76.0900  220.2290 C   0  0  0  0  0  0  0  0  0  0  0  0
  141.7320   77.5320  219.8210 C   0  0  0  0  0  0  0  0  0  0  0  0
  141.4700   78.2550  221.0950 C   0  0  0  0  0  0  0  0  0  0  0  0
  142.1310   79.4040  221.4470 C   0  0  0  0  0  0  0  0  0  0  0  0
  141.8060   79.9850  222.6550 C   0  0  0  0  0  0  0  0  0  0  0  0
  140.8460   79.4340  223.4920 C   0  0  0  0  0  0  0  0  0  0  0  0
  140.1700   78.2710  223.1480 C   0  0  0  0  0  0  0  0  0  0  0  0
  140.5110   77.7070  221.9370 C   0  0  0  0  0  0  0  0  0  0  0  0
  139.8550   76.4460  221.4440 C   0  0  0  0  0  0  0  0  0  0  0  0
  140.3000   73.6740  222.3490 N   0  0  0  0  0  0  0  0  0  0  0  0
  140.3190   71.6660  225.0790 C   0  0  0  0  0  0  0  0  0  0  0  0
  140.1174   66.5695  226.5322 H   0  0  0  0  0  0  0  0  0  0  0  0
  141.8702   68.0438  227.4983 H   0  0  0  0  0  0  0  0  0  0  0  0
  141.9464   70.4519  226.8025 H   0  0  0  0  0  0  0  0  0  0  0  0
  138.4654   67.4226  224.9167 H   0  0  0  0  0  0  0  0  0  0  0  0
  138.4405   69.3708  223.0057 H   0  0  0  0  0  0  0  0  0  0  0  0
  137.2617   69.5995  224.3697 H   0  0  0  0  0  0  0  0  0  0  0  0
  137.8313   71.6147  222.7678 H   0  0  0  0  0  0  0  0  0  0  0  0
  137.6763   71.8796  224.5277 H   0  0  0  0  0  0  0  0  0  0  0  0
  141.8760   69.9830  220.1220 H   0  0  0  0  0  0  0  0  0  0  0  0
  143.0137   70.4618  218.0666 H   0  0  0  0  0  0  0  0  0  0  0  0
  142.5762   72.1962  218.2522 H   0  0  0  0  0  0  0  0  0  0  0  0
  145.0394   70.7348  219.2557 H   0  0  0  0  0  0  0  0  0  0  0  0
  143.1590   72.1336  220.9824 H   0  0  0  0  0  0  0  0  0  0  0  0
  144.6805   71.2888  221.3944 H   0  0  0  0  0  0  0  0  0  0  0  0
  144.3767   74.1520  220.3411 H   0  0  0  0  0  0  0  0  0  0  0  0
  144.9340   73.6810  221.9552 H   0  0  0  0  0  0  0  0  0  0  0  0
  146.9555   74.0428  220.6419 H   0  0  0  0  0  0  0  0  0  0  0  0
  146.7710   72.2644  220.7305 H   0  0  0  0  0  0  0  0  0  0  0  0
  146.4610   74.0750  218.5140 H   0  0  0  0  0  0  0  0  0  0  0  0
  144.2859   73.5071  218.3553 H   0  0  0  0  0  0  0  0  0  0  0  0
  145.1612   72.2006  217.4322 H   0  0  0  0  0  0  0  0  0  0  0  0
  142.9302   76.0591  220.8460 H   0  0  0  0  0  0  0  0  0  0  0  0
  142.1653   75.4775  219.3269 H   0  0  0  0  0  0  0  0  0  0  0  0
  142.5995   77.9665  219.3026 H   0  0  0  0  0  0  0  0  0  0  0  0
  140.8805   77.6001  219.1279 H   0  0  0  0  0  0  0  0  0  0  0  0
  142.8934   79.8466  220.7891 H   0  0  0  0  0  0  0  0  0  0  0  0
  142.3203   80.9075  222.9624 H   0  0  0  0  0  0  0  0  0  0  0  0
  140.6159   79.9286  224.4472 H   0  0  0  0  0  0  0  0  0  0  0  0
  139.4070   77.8256  223.8033 H   0  0  0  0  0  0  0  0  0  0  0  0
  139.2938   75.9687  222.2608 H   0  0  0  0  0  0  0  0  0  0  0  0
  139.1485   76.6654  220.6299 H   0  0  0  0  0  0  0  0  0  0  0  0
  141.3716   71.9731  224.9915 H   0  0  0  0  0  0  0  0  0  0  0  0
  139.8227   72.2926  225.8347 H   0  0  0  0  0  0  0  0  0  0  0  0
  1  2  2  0
  2  3  1  0
  3  4  2  0
  4  5  1  0
  5  6  2  0
  5  7  1  0
  7  8  1  0
  8  9  1  0
  9 10  1  0
 10 11  2  0
 11 12  1  0
 12 13  1  0
 13 14  1  0
 14 15  1  0
 15 16  1  0
 16 17  1  0
 17 18  1  0
 18 19  1  0
 19 20  1  0
 12 21  2  0
 21 22  1  0
 22 23  1  0
 23 24  1  0
 24 25  1  0
 25 26  1  0
 26 27  2  0
 27 28  1  0
 28 29  2  0
 29 30  1  0
 30 31  2  0
 31 32  1  0
 22 33  2  0
  9 34  1  0
  6  1  1  0
 33 10  1  0
 34  4  1  0
 20 15  1  0
 32 23  1  0
 31 26  1  0
  1 35  1  0
  2 36  1  0
  3 37  1  0
  6 38  1  0
  7 39  1  0
  7 40  1  0
  8 41  1  0
  8 42  1  0
 13 43  1  0
 14 44  1  0
 14 45  1  0
 15 46  1  1
 16 47  1  0
 16 48  1  0
 17 49  1  0
 17 50  1  0
 18 51  1  0
 18 52  1  0
 19 53  1  0
 20 54  1  0
 20 55  1  0
 24 56  1  0
 24 57  1  0
 25 58  1  0
 25 59  1  0
 27 60  1  0
 28 61  1  0
 29 62  1  0
 30 63  1  0
 32 64  1  0
 32 65  1  0
 34 66  1  0
 34 67  1  0
M  END
>  <smiles>  (17) 
c1ccc2c(c1)CCN(c1nc(NCC3CCCNC3)nc(N3CCc4ccccc4C3)n1)C2

>  <score_type>  (17) 
oracle

>  <origin>  (17) 
autodockgpu

>  <m_score__min__energy>  (17) 
-10.83

>  <m_primary>  (17) 
energy

>  <rmsd>  (17) 
6.39995712743446

>  <m_score__min__rmsd>  (17) 
6.39995712743446

>  <meeko>  (17) 
{"free_energy": -10.57, "intermolecular_energy": -12.06, "internal_energy": -0.87, "cluster_size": 29, "cluster_id": 1, "rank_in_cluster": 5}

>  <energy>  (17) 
-9.57

>  <cluster_rmsd>  (17) 
1.21

>  <cluster>  (17) 
1

$$$$

     RDKit          3D

 67 72  0  0  0  0  0  0  0  0999 V2000
  140.2240   67.4250  226.6160 C   0  0  0  0  0  0  0  0  0  0  0  0
  141.0410   68.3630  227.2400 C   0  0  0  0  0  0  0  0  0  0  0  0
  140.9490   69.6820  226.8480 C   0  0  0  0  0  0  0  0  0  0  0  0
  140.0480   70.0020  225.8570 C   0  0  0  0  0  0  0  0  0  0  0  0
  139.2310   69.1040  225.2260 C   0  0  0  0  0  0  0  0  0  0  0  0
  139.3310   67.7730  225.6270 C   0  0  0  0  0  0  0  0  0  0  0  0
  138.2590   69.4050  224.1620 C   0  0  0  0  0  0  0  0  0  0  0  0
  138.1040   70.9000  223.9300 C   0  0  0  0  0  0  0  0  0  0  0  0
  139.4140   71.5250  224.0980 N   0  0  0  0  0  0  0  0  0  0  0  0
  140.0580   72.1420  223.0000 C   0  0  0  0  0  0  0  0  0  0  0  0
  140.8180   71.3500  222.2190 N   0  0  0  0  0  0  0  0  0  0  0  0
  141.4580   71.8910  221.1710 C   0  0  0  0  0  0  0  0  0  0  0  0
  142.2490   70.9820  220.3920 N   0  0  0  0  0  0  0  0  0  0  0  0
  142.8540   71.3520  219.1280 C   0  0  0  0  0  0  0  0  0  0  0  0
  144.3150   71.7240  219.3440 C   0  0  2  0  0  0  0  0  0  0  0  0
  144.4330   72.2480  220.7560 C   0  0  0  0  0  0  0  0  0  0  0  0
  145.0880   73.6080  220.7070 C   0  0  0  0  0  0  0  0  0  0  0  0
  146.3730   73.4300  219.8930 C   0  0  0  0  0  0  0  0  0  0  0  0
  146.0230   73.2710  218.5130 N   0  0  0  0  0  0  0  0  0  0  0  0
  144.7020   72.7260  218.3080 C   0  0  0  0  0  0  0  0  0  0  0  0
  141.3520   73.1990  220.8920 N   0  0  0  0  0  0  0  0  0  0  0  0
  140.5880   74.0200  221.6700 C   0  0  0  0  0  0  0  0  0  0  0  0
  140.4640   75.4100  221.4000 N   0  0  0  0  0  0  0  0  0  0  0  0
  140.8990   75.8750  220.1050 C   0  0  0  0  0  0  0  0  0  0  0  0
  140.4560   77.3220  219.9050 C   0  0  0  0  0  0  0  0  0  0  0  0
  141.0390   78.0720  221.0500 C   0  0  0  0  0  0  0  0  0  0  0  0
  141.8050   79.1980  220.8890 C   0  0  0  0  0  0  0  0  0  0  0  0
  142.2940   79.8080  222.0250 C   0  0  0  0  0  0  0  0  0  0  0  0
  142.0280   79.3070  223.2910 C   0  0  0  0  0  0  0  0  0  0  0  0
  141.2540   78.1670  223.4690 C   0  0  0  0  0  0  0  0  0  0  0  0
  140.7760   77.5740  222.3200 C   0  0  0  0  0  0  0  0  0  0  0  0
  139.9260   76.3330  222.3700 C   0  0  0  0  0  0  0  0  0  0  0  0
  139.9640   73.4470  222.7070 N   0  0  0  0  0  0  0  0  0  0  0  0
  139.9710   71.4520  225.4370 C   0  0  0  0  0  0  0  0  0  0  0  0
  140.2938   66.3710  226.9228 H   0  0  0  0  0  0  0  0  0  0  0  0
  141.7449   68.0589  228.0288 H   0  0  0  0  0  0  0  0  0  0  0  0
  141.5771   70.4559  227.3134 H   0  0  0  0  0  0  0  0  0  0  0  0
  138.7001   67.0047  225.1562 H   0  0  0  0  0  0  0  0  0  0  0  0
  138.6001   68.9352  223.2277 H   0  0  0  0  0  0  0  0  0  0  0  0
  137.2819   69.0095  224.4762 H   0  0  0  0  0  0  0  0  0  0  0  0
  137.7321   71.0823  222.9109 H   0  0  0  0  0  0  0  0  0  0  0  0
  137.3854   71.3238  224.6469 H   0  0  0  0  0  0  0  0  0  0  0  0
  142.3620   70.0300  220.8000 H   0  0  0  0  0  0  0  0  0  0  0  0
  142.7926   70.5029  218.4315 H   0  0  0  0  0  0  0  0  0  0  0  0
  142.3178   72.2158  218.7080 H   0  0  0  0  0  0  0  0  0  0  0  0
  145.0006   70.8707  219.2353 H   0  0  0  0  0  0  0  0  0  0  0  0
  143.4326   72.3335  221.2053 H   0  0  0  0  0  0  0  0  0  0  0  0
  145.0370   71.5595  221.3652 H   0  0  0  0  0  0  0  0  0  0  0  0
  144.4232   74.3348  220.2173 H   0  0  0  0  0  0  0  0  0  0  0  0
  145.3008   73.9887  221.7168 H   0  0  0  0  0  0  0  0  0  0  0  0
  147.0132   74.3165  220.0130 H   0  0  0  0  0  0  0  0  0  0  0  0
  146.9209   72.5437  220.2457 H   0  0  0  0  0  0  0  0  0  0  0  0
  146.1160   74.1890  218.0250 H   0  0  0  0  0  0  0  0  0  0  0  0
  143.9753   73.5515  218.3306 H   0  0  0  0  0  0  0  0  0  0  0  0
  144.7075   72.2087  217.3372 H   0  0  0  0  0  0  0  0  0  0  0  0
  141.9958   75.8162  220.0444 H   0  0  0  0  0  0  0  0  0  0  0  0
  140.4526   75.2448  219.3217 H   0  0  0  0  0  0  0  0  0  0  0  0
  140.8398   77.7144  218.9517 H   0  0  0  0  0  0  0  0  0  0  0  0
  139.3605   77.4146  219.8688 H   0  0  0  0  0  0  0  0  0  0  0  0
  142.0218   79.6006  219.8886 H   0  0  0  0  0  0  0  0  0  0  0  0
  142.9100   80.7138  221.9249 H   0  0  0  0  0  0  0  0  0  0  0  0
  142.4382   79.8228  224.1718 H   0  0  0  0  0  0  0  0  0  0  0  0
  141.0355   77.7615  224.4679 H   0  0  0  0  0  0  0  0  0  0  0  0
  139.9656   75.8890  223.3756 H   0  0  0  0  0  0  0  0  0  0  0  0
  138.8755   76.5690  222.1447 H   0  0  0  0  0  0  0  0  0  0  0  0
  140.9792   71.8919  225.4420 H   0  0  0  0  0  0  0  0  0  0  0  0
  139.3317   72.0094  226.1374 H   0  0  0  0  0  0  0  0  0  0  0  0
  1  2  2  0
  2  3  1  0
  3  4  2  0
  4  5  1  0
  5  6  2  0
  5  7  1  0
  7  8  1  0
  8  9  1  0
  9 10  1  0
 10 11  2  0
 11 12  1  0
 12 13  1  0
 13 14  1  0
 14 15  1  0
 15 16  1  0
 16 17  1  0
 17 18  1  0
 18 19  1  0
 19 20  1  0
 12 21  2  0
 21 22  1  0
 22 23  1  0
 23 24  1  0
 24 25  1  0
 25 26  1  0
 26 27  2  0
 27 28  1  0
 28 29  2  0
 29 30  1  0
 30 31  2  0
 31 32  1  0
 22 33  2  0
  9 34  1  0
  6  1  1  0
 33 10  1  0
 34  4  1  0
 20 15  1  0
 32 23  1  0
 31 26  1  0
  1 35  1  0
  2 36  1  0
  3 37  1  0
  6 38  1  0
  7 39  1  0
  7 40  1  0
  8 41  1  0
  8 42  1  0
 13 43  1  0
 14 44  1  0
 14 45  1  0
 15 46  1  1
 16 47  1  0
 16 48  1  0
 17 49  1  0
 17 50  1  0
 18 51  1  0
 18 52  1  0
 19 53  1  0
 20 54  1  0
 20 55  1  0
 24 56  1  0
 24 57  1  0
 25 58  1  0
 25 59  1  0
 27 60  1  0
 28 61  1  0
 29 62  1  0
 30 63  1  0
 32 64  1  0
 32 65  1  0
 34 66  1  0
 34 67  1  0
M  END
>  <smiles>  (18) 
c1ccc2c(c1)CCN(c1nc(NCC3CCCNC3)nc(N3CCc4ccccc4C3)n1)C2

>  <score_type>  (18) 
oracle

>  <origin>  (18) 
autodockgpu

>  <m_score__min__energy>  (18) 
-10.83

>  <m_primary>  (18) 
energy

>  <rmsd>  (18) 
6.323320446443076

>  <m_score__min__rmsd>  (18) 
6.323320446443076

>  <meeko>  (18) 
{"free_energy": -10.61, "intermolecular_energy": -12.1, "internal_energy": -1.13, "cluster_size": 29, "cluster_id": 1, "rank_in_cluster": 4}

>  <energy>  (18) 
-9.5

>  <cluster_rmsd>  (18) 
1.45

>  <cluster>  (18) 
1

$$$$

     RDKit          3D

 67 72  0  0  0  0  0  0  0  0999 V2000
  140.4790   67.4180  226.0510 C   0  0  0  0  0  0  0  0  0  0  0  0
  141.4510   68.2750  226.5610 C   0  0  0  0  0  0  0  0  0  0  0  0
  141.3730   69.6170  226.2540 C   0  0  0  0  0  0  0  0  0  0  0  0
  140.3340   70.0400  225.4560 C   0  0  0  0  0  0  0  0  0  0  0  0
  139.3640   69.2230  224.9400 C   0  0  0  0  0  0  0  0  0  0  0  0
  139.4500   67.8690  225.2540 C   0  0  0  0  0  0  0  0  0  0  0  0
  138.2410   69.6350  224.0830 C   0  0  0  0  0  0  0  0  0  0  0  0
  138.1400   71.1470  223.9510 C   0  0  0  0  0  0  0  0  0  0  0  0
  139.4960   71.6920  223.9110 N   0  0  0  0  0  0  0  0  0  0  0  0
  139.9740   72.3340  222.7460 C   0  0  0  0  0  0  0  0  0  0  0  0
  140.5070   71.5460  221.7930 N   0  0  0  0  0  0  0  0  0  0  0  0
  140.9840   72.1100  220.6730 C   0  0  0  0  0  0  0  0  0  0  0  0
  141.5380   71.2030  219.7090 N   0  0  0  0  0  0  0  0  0  0  0  0
  142.7920   71.4500  219.0270 C   0  0  0  0  0  0  0  0  0  0  0  0
  143.5690   72.5390  219.7540 C   0  0  2  0  0  0  0  0  0  0  0  0
  144.4530   73.2110  218.7290 C   0  0  0  0  0  0  0  0  0  0  0  0
  145.8750   73.1900  219.2380 C   0  0  0  0  0  0  0  0  0  0  0  0
  145.8280   73.7820  220.6500 C   0  0  0  0  0  0  0  0  0  0  0  0
  145.2330   72.8210  221.5300 N   0  0  0  0  0  0  0  0  0  0  0  0
  144.3340   71.9060  220.8680 C   0  0  0  0  0  0  0  0  0  0  0  0
  140.9380   73.4390  220.4900 N   0  0  0  0  0  0  0  0  0  0  0  0
  140.4020   74.2570  221.4420 C   0  0  0  0  0  0  0  0  0  0  0  0
  140.3470   75.6670  221.2770 N   0  0  0  0  0  0  0  0  0  0  0  0
  140.7620   76.2020  220.0020 C   0  0  0  0  0  0  0  0  0  0  0  0
  140.3940   77.6810  219.9220 C   0  0  0  0  0  0  0  0  0  0  0  0
  141.0570   78.3130  221.0950 C   0  0  0  0  0  0  0  0  0  0  0  0
  141.8780   79.4060  220.9840 C   0  0  0  0  0  0  0  0  0  0  0  0
  142.4400   79.9040  222.1410 C   0  0  0  0  0  0  0  0  0  0  0  0
  142.1890   79.3270  223.3780 C   0  0  0  0  0  0  0  0  0  0  0  0
  141.3600   78.2210  223.5040 C   0  0  0  0  0  0  0  0  0  0  0  0
  140.8100   77.7390  222.3350 C   0  0  0  0  0  0  0  0  0  0  0  0
  139.8950   76.5440  222.3290 C   0  0  0  0  0  0  0  0  0  0  0  0
  139.9360   73.6600  222.5470 N   0  0  0  0  0  0  0  0  0  0  0  0
  140.2740   71.5130  225.1240 C   0  0  0  0  0  0  0  0  0  0  0  0
  140.5348   66.3463  226.2924 H   0  0  0  0  0  0  0  0  0  0  0  0
  142.2633   67.8898  227.1949 H   0  0  0  0  0  0  0  0  0  0  0  0
  142.1195   70.3291  226.6357 H   0  0  0  0  0  0  0  0  0  0  0  0
  138.7000   67.1632  224.8675 H   0  0  0  0  0  0  0  0  0  0  0  0
  138.3822   69.2012  223.0821 H   0  0  0  0  0  0  0  0  0  0  0  0
  137.3121   69.2751  224.5494 H   0  0  0  0  0  0  0  0  0  0  0  0
  137.6070   71.4054  223.0241 H   0  0  0  0  0  0  0  0  0  0  0  0
  137.5858   71.5673  224.8032 H   0  0  0  0  0  0  0  0  0  0  0  0
  140.9730   70.3450  219.5320 H   0  0  0  0  0  0  0  0  0  0  0  0
  143.3874   70.5252  219.0112 H   0  0  0  0  0  0  0  0  0  0  0  0
  142.5869   71.7765  217.9968 H   0  0  0  0  0  0  0  0  0  0  0  0
  142.9214   73.3051  220.2053 H   0  0  0  0  0  0  0  0  0  0  0  0
  144.3924   72.6689  217.7738 H   0  0  0  0  0  0  0  0  0  0  0  0
  144.1244   74.2485  218.5689 H   0  0  0  0  0  0  0  0  0  0  0  0
  146.2545   72.1580  219.2689 H   0  0  0  0  0  0  0  0  0  0  0  0
  146.5456   73.7651  218.5826 H   0  0  0  0  0  0  0  0  0  0  0  0
  146.8487   74.0126  220.9891 H   0  0  0  0  0  0  0  0  0  0  0  0
  145.2345   74.7081  220.6491 H   0  0  0  0  0  0  0  0  0  0  0  0
  145.9860   72.2950  222.0260 H   0  0  0  0  0  0  0  0  0  0  0  0
  144.9226   71.0718  220.4585 H   0  0  0  0  0  0  0  0  0  0  0  0
  143.6027   71.5663  221.6162 H   0  0  0  0  0  0  0  0  0  0  0  0
  141.8510   76.0896  219.8950 H   0  0  0  0  0  0  0  0  0  0  0  0
  140.2537   75.6553  219.1940 H   0  0  0  0  0  0  0  0  0  0  0  0
  140.7666   78.1209  218.9852 H   0  0  0  0  0  0  0  0  0  0  0  0
  139.3048   77.8345  219.9338 H   0  0  0  0  0  0  0  0  0  0  0  0
  142.0811   79.8690  220.0071 H   0  0  0  0  0  0  0  0  0  0  0  0
  143.1032   80.7796  222.0818 H   0  0  0  0  0  0  0  0  0  0  0  0
  142.6566   79.7550  224.2770 H   0  0  0  0  0  0  0  0  0  0  0  0
  141.1538   77.7561  224.4794 H   0  0  0  0  0  0  0  0  0  0  0  0
  139.9443   76.0265  223.2984 H   0  0  0  0  0  0  0  0  0  0  0  0
  138.8522   76.8511  222.1607 H   0  0  0  0  0  0  0  0  0  0  0  0
  141.2927   71.8981  224.9692 H   0  0  0  0  0  0  0  0  0  0  0  0
  139.8030   72.0622  225.9525 H   0  0  0  0  0  0  0  0  0  0  0  0
  1  2  2  0
  2  3  1  0
  3  4  2  0
  4  5  1  0
  5  6  2  0
  5  7  1  0
  7  8  1  0
  8  9  1  0
  9 10  1  0
 10 11  2  0
 11 12  1  0
 12 13  1  0
 13 14  1  0
 14 15  1  0
 15 16  1  0
 16 17  1  0
 17 18  1  0
 18 19  1  0
 19 20  1  0
 12 21  2  0
 21 22  1  0
 22 23  1  0
 23 24  1  0
 24 25  1  0
 25 26  1  0
 26 27  2  0
 27 28  1  0
 28 29  2  0
 29 30  1  0
 30 31  2  0
 31 32  1  0
 22 33  2  0
  9 34  1  0
  6  1  1  0
 33 10  1  0
 34  4  1  0
 20 15  1  0
 32 23  1  0
 31 26  1  0
  1 35  1  0
  2 36  1  0
  3 37  1  0
  6 38  1  0
  7 39  1  0
  7 40  1  0
  8 41  1  0
  8 42  1  0
 13 43  1  0
 14 44  1  0
 14 45  1  0
 15 46  1  1
 16 47  1  0
 16 48  1  0
 17 49  1  0
 17 50  1  0
 18 51  1  0
 18 52  1  0
 19 53  1  0
 20 54  1  0
 20 55  1  0
 24 56  1  0
 24 57  1  0
 25 58  1  0
 25 59  1  0
 27 60  1  0
 28 61  1  0
 29 62  1  0
 30 63  1  0
 32 64  1  0
 32 65  1  0
 34 66  1  0
 34 67  1  0
M  END
>  <smiles>  (19) 
c1ccc2c(c1)CCN(c1nc(NCC3CCCNC3)nc(N3CCc4ccccc4C3)n1)C2

>  <score_type>  (19) 
oracle

>  <origin>  (19) 
autodockgpu

>  <m_score__min__energy>  (19) 
-10.83

>  <m_primary>  (19) 
energy

>  <rmsd>  (19) 
6.06502009052282

>  <m_score__min__rmsd>  (19) 
6.06502009052282

>  <meeko>  (19) 
{"free_energy": -9.57, "intermolecular_energy": -11.06, "internal_energy": -1.22, "cluster_size": 29, "cluster_id": 1, "rank_in_cluster": 17}

>  <energy>  (19) 
-9.21

>  <cluster_rmsd>  (19) 
1.22

>  <cluster>  (19) 
1

$$$$

     RDKit          3D

 67 72  0  0  0  0  0  0  0  0999 V2000
  141.0660   81.6190  222.1420 C   0  0  0  0  0  0  0  0  0  0  0  0
  141.0370   81.2020  223.4700 C   0  0  0  0  0  0  0  0  0  0  0  0
  141.1670   79.8560  223.7410 C   0  0  0  0  0  0  0  0  0  0  0  0
  141.3190   78.9930  222.6790 C   0  0  0  0  0  0  0  0  0  0  0  0
  141.3520   79.3720  221.3650 C   0  0  0  0  0  0  0  0  0  0  0  0
  141.2190   80.7330  221.0990 C   0  0  0  0  0  0  0  0  0  0  0  0
  141.5090   78.4820  220.2030 C   0  0  0  0  0  0  0  0  0  0  0  0
  141.8240   77.0510  220.6110 C   0  0  0  0  0  0  0  0  0  0  0  0
  141.0720   76.7500  221.8280 N   0  0  0  0  0  0  0  0  0  0  0  0
  140.0530   75.7700  221.8140 C   0  0  0  0  0  0  0  0  0  0  0  0
  138.8680   76.1330  221.2880 N   0  0  0  0  0  0  0  0  0  0  0  0
  137.8660   75.2410  221.2620 C   0  0  0  0  0  0  0  0  0  0  0  0
  136.6360   75.7070  220.6890 N   0  0  0  0  0  0  0  0  0  0  0  0
  135.6280   76.4110  221.4560 C   0  0  0  0  0  0  0  0  0  0  0  0
  136.0370   77.8670  221.6340 C   0  0  2  0  0  0  0  0  0  0  0  0
  136.6070   78.3300  220.3140 C   0  0  0  0  0  0  0  0  0  0  0  0
  137.9780   78.9110  220.5640 C   0  0  0  0  0  0  0  0  0  0  0  0
  137.8020   79.9480  221.6780 C   0  0  0  0  0  0  0  0  0  0  0  0
  137.5920   79.2590  222.9160 N   0  0  0  0  0  0  0  0  0  0  0  0
  137.0140   77.9460  222.7600 C   0  0  0  0  0  0  0  0  0  0  0  0
  138.0270   74.0010  221.7490 N   0  0  0  0  0  0  0  0  0  0  0  0
  139.2190   73.6110  222.2870 C   0  0  0  0  0  0  0  0  0  0  0  0
  139.4140   72.3070  222.8160 N   0  0  0  0  0  0  0  0  0  0  0  0
  138.2840   71.4070  222.7950 C   0  0  0  0  0  0  0  0  0  0  0  0
  138.7450   69.9970  223.1560 C   0  0  0  0  0  0  0  0  0  0  0  0
  139.3980   70.1270  224.4860 C   0  0  0  0  0  0  0  0  0  0  0  0
  139.0530   69.3510  225.5630 C   0  0  0  0  0  0  0  0  0  0  0  0
  139.7260   69.5640  226.7480 C   0  0  0  0  0  0  0  0  0  0  0  0
  140.7190   70.5270  226.8570 C   0  0  0  0  0  0  0  0  0  0  0  0
  141.0790   71.3190  225.7750 C   0  0  0  0  0  0  0  0  0  0  0  0
  140.3930   71.0900  224.6020 C   0  0  0  0  0  0  0  0  0  0  0  0
  140.6830   71.8800  223.3540 C   0  0  0  0  0  0  0  0  0  0  0  0
  140.1960   74.5270  222.2970 N   0  0  0  0  0  0  0  0  0  0  0  0
  141.4490   77.5220  222.9980 C   0  0  0  0  0  0  0  0  0  0  0  0
  140.9633   82.6912  221.9186 H   0  0  0  0  0  0  0  0  0  0  0  0
  140.9131   81.9301  224.2852 H   0  0  0  0  0  0  0  0  0  0  0  0
  141.1498   79.4827  224.7756 H   0  0  0  0  0  0  0  0  0  0  0  0
  141.2361   81.0979  220.0614 H   0  0  0  0  0  0  0  0  0  0  0  0
  140.5735   78.4872  219.6244 H   0  0  0  0  0  0  0  0  0  0  0  0
  142.3532   78.8552  219.6046 H   0  0  0  0  0  0  0  0  0  0  0  0
  141.5264   76.3603  219.8083 H   0  0  0  0  0  0  0  0  0  0  0  0
  142.9029   76.9346  220.7910 H   0  0  0  0  0  0  0  0  0  0  0  0
  136.5160   75.5070  219.6740 H   0  0  0  0  0  0  0  0  0  0  0  0
  134.6662   76.3645  220.9242 H   0  0  0  0  0  0  0  0  0  0  0  0
  135.5289   75.9387  222.4445 H   0  0  0  0  0  0  0  0  0  0  0  0
  135.1951   78.5252  221.8949 H   0  0  0  0  0  0  0  0  0  0  0  0
  136.6852   77.4772  219.6236 H   0  0  0  0  0  0  0  0  0  0  0  0
  135.9507   79.0900  219.8649 H   0  0  0  0  0  0  0  0  0  0  0  0
  138.6748   78.1220  220.8832 H   0  0  0  0  0  0  0  0  0  0  0  0
  138.3945   79.3658  219.6531 H   0  0  0  0  0  0  0  0  0  0  0  0
  138.7054   80.5715  221.7497 H   0  0  0  0  0  0  0  0  0  0  0  0
  136.9394   80.5938  221.4568 H   0  0  0  0  0  0  0  0  0  0  0  0
  138.4960   79.1970  223.4340 H   0  0  0  0  0  0  0  0  0  0  0  0
  137.8246   77.2267  222.5715 H   0  0  0  0  0  0  0  0  0  0  0  0
  136.4669   77.7160  223.6861 H   0  0  0  0  0  0  0  0  0  0  0  0
  137.5334   71.7448  223.5248 H   0  0  0  0  0  0  0  0  0  0  0  0
  137.8415   71.3999  221.7879 H   0  0  0  0  0  0  0  0  0  0  0  0
  137.8852   69.3134  223.2139 H   0  0  0  0  0  0  0  0  0  0  0  0
  139.4298   69.5832  222.4012 H   0  0  0  0  0  0  0  0  0  0  0  0
  138.2670   68.5855  225.4845 H   0  0  0  0  0  0  0  0  0  0  0  0
  139.4693   68.9558  227.6279 H   0  0  0  0  0  0  0  0  0  0  0  0
  141.2315   70.6658  227.8204 H   0  0  0  0  0  0  0  0  0  0  0  0
  141.8656   72.0843  225.8497 H   0  0  0  0  0  0  0  0  0  0  0  0
  141.3031   72.7553  223.5974 H   0  0  0  0  0  0  0  0  0  0  0  0
  141.2317   71.2682  222.6228 H   0  0  0  0  0  0  0  0  0  0  0  0
  140.7860   77.2667  223.8378 H   0  0  0  0  0  0  0  0  0  0  0  0
  142.4882   77.2923  223.2760 H   0  0  0  0  0  0  0  0  0  0  0  0
  1  2  2  0
  2  3  1  0
  3  4  2  0
  4  5  1  0
  5  6  2  0
  5  7  1  0
  7  8  1  0
  8  9  1  0
  9 10  1  0
 10 11  2  0
 11 12  1  0
 12 13  1  0
 13 14  1  0
 14 15  1  0
 15 16  1  0
 16 17  1  0
 17 18  1  0
 18 19  1  0
 19 20  1  0
 12 21  2  0
 21 22  1  0
 22 23  1  0
 23 24  1  0
 24 25  1  0
 25 26  1  0
 26 27  2  0
 27 28  1  0
 28 29  2  0
 29 30  1  0
 30 31  2  0
 31 32  1  0
 22 33  2  0
  9 34  1  0
  6  1  1  0
 33 10  1  0
 34  4  1  0
 20 15  1  0
 32 23  1  0
 31 26  1  0
  1 35  1  0
  2 36  1  0
  3 37  1  0
  6 38  1  0
  7 39  1  0
  7 40  1  0
  8 41  1  0
  8 42  1  0
 13 43  1  0
 14 44  1  0
 14 45  1  0
 15 46  1  1
 16 47  1  0
 16 48  1  0
 17 49  1  0
 17 50  1  0
 18 51  1  0
 18 52  1  0
 19 53  1  0
 20 54  1  0
 20 55  1  0
 24 56  1  0
 24 57  1  0
 25 58  1  0
 25 59  1  0
 27 60  1  0
 28 61  1  0
 29 62  1  0
 30 63  1  0
 32 64  1  0
 32 65  1  0
 34 66  1  0
 34 67  1  0
M  END
>  <smiles>  (20) 
c1ccc2c(c1)CCN(c1nc(NCC3CCCNC3)nc(N3CCc4ccccc4C3)n1)C2

>  <score_type>  (20) 
oracle

>  <origin>  (20) 
autodockgpu

>  <m_score__min__energy>  (20) 
-10.83

>  <m_primary>  (20) 
energy

>  <rmsd>  (20) 
4.710510672468619

>  <m_score__min__rmsd>  (20) 
4.710510672468619

>  <meeko>  (20) 
{"free_energy": -7.52, "intermolecular_energy": -9.01, "internal_energy": -2.13, "cluster_size": 1, "cluster_id": 7, "rank_in_cluster": 1}

>  <energy>  (20) 
-9.19

>  <cluster_rmsd>  (20) 
1.3

>  <cluster>  (20) 
1

$$$$

     RDKit          3D

 67 72  0  0  0  0  0  0  0  0999 V2000
  140.9590   79.6550  222.8660 C   0  0  0  0  0  0  0  0  0  0  0  0
  141.9100   79.3960  221.8830 C   0  0  0  0  0  0  0  0  0  0  0  0
  141.7770   78.2520  221.1230 C   0  0  0  0  0  0  0  0  0  0  0  0
  140.7070   77.4250  221.3780 C   0  0  0  0  0  0  0  0  0  0  0  0
  139.7560   77.6530  222.3360 C   0  0  0  0  0  0  0  0  0  0  0  0
  139.8970   78.8100  223.1000 C   0  0  0  0  0  0  0  0  0  0  0  0
  138.6000   76.7940  222.6410 C   0  0  0  0  0  0  0  0  0  0  0  0
  138.4420   75.6620  221.6380 C   0  0  0  0  0  0  0  0  0  0  0  0
  139.7770   75.2030  221.2560 N   0  0  0  0  0  0  0  0  0  0  0  0
  140.2060   73.8980  221.5880 C   0  0  0  0  0  0  0  0  0  0  0  0
  140.8570   73.2100  220.6310 N   0  0  0  0  0  0  0  0  0  0  0  0
  141.2760   71.9630  220.8950 C   0  0  0  0  0  0  0  0  0  0  0  0
  141.9580   71.2980  219.8220 N   0  0  0  0  0  0  0  0  0  0  0  0
  143.3990   71.3250  219.6700 C   0  0  0  0  0  0  0  0  0  0  0  0
  143.8420   72.7040  219.1990 C   0  0  2  0  0  0  0  0  0  0  0  0
  144.2130   73.4950  220.4320 C   0  0  0  0  0  0  0  0  0  0  0  0
  143.4390   74.7920  220.4180 C   0  0  0  0  0  0  0  0  0  0  0  0
  143.7000   75.4250  219.0480 C   0  0  0  0  0  0  0  0  0  0  0  0
  142.9730   74.6890  218.0570 N   0  0  0  0  0  0  0  0  0  0  0  0
  142.7240   73.3150  218.4200 C   0  0  0  0  0  0  0  0  0  0  0  0
  141.0560   71.3950  222.0910 N   0  0  0  0  0  0  0  0  0  0  0  0
  140.3980   72.0740  223.0770 C   0  0  0  0  0  0  0  0  0  0  0  0
  140.1470   71.4940  224.3490 N   0  0  0  0  0  0  0  0  0  0  0  0
  141.0000   71.8970  225.4420 C   0  0  0  0  0  0  0  0  0  0  0  0
  140.4250   71.3800  226.7580 C   0  0  0  0  0  0  0  0  0  0  0  0
  140.3120   69.9060  226.5840 C   0  0  0  0  0  0  0  0  0  0  0  0
  140.8500   69.0090  227.4710 C   0  0  0  0  0  0  0  0  0  0  0  0
  140.6830   67.6670  227.2030 C   0  0  0  0  0  0  0  0  0  0  0  0
  139.9980   67.2290  226.0780 C   0  0  0  0  0  0  0  0  0  0  0  0
  139.4500   68.1260  225.1730 C   0  0  0  0  0  0  0  0  0  0  0  0
  139.6280   69.4630  225.4590 C   0  0  0  0  0  0  0  0  0  0  0  0
  139.0850   70.5400  224.5590 C   0  0  0  0  0  0  0  0  0  0  0  0
  139.9950   73.3160  222.7780 N   0  0  0  0  0  0  0  0  0  0  0  0
  140.5870   76.1730  220.5410 C   0  0  0  0  0  0  0  0  0  0  0  0
  141.0591   80.5648  223.4761 H   0  0  0  0  0  0  0  0  0  0  0  0
  142.7487   80.0878  221.7158 H   0  0  0  0  0  0  0  0  0  0  0  0
  142.5055   78.0080  220.3357 H   0  0  0  0  0  0  0  0  0  0  0  0
  139.1642   79.0469  223.8855 H   0  0  0  0  0  0  0  0  0  0  0  0
  138.7349   76.3621  223.6436 H   0  0  0  0  0  0  0  0  0  0  0  0
  137.6949   77.4172  222.5907 H   0  0  0  0  0  0  0  0  0  0  0  0
  137.8800   74.8344  222.0955 H   0  0  0  0  0  0  0  0  0  0  0  0
  137.8917   76.0121  220.7522 H   0  0  0  0  0  0  0  0  0  0  0  0
  141.3430   70.7870  219.1540 H   0  0  0  0  0  0  0  0  0  0  0  0
  143.8726   71.0997  220.6370 H   0  0  0  0  0  0  0  0  0  0  0  0
  143.7000   70.5729  218.9259 H   0  0  0  0  0  0  0  0  0  0  0  0
  144.7174   72.6740  218.5336 H   0  0  0  0  0  0  0  0  0  0  0  0
  143.9567   72.9193  221.3336 H   0  0  0  0  0  0  0  0  0  0  0  0
  145.2937   73.7002  220.4381 H   0  0  0  0  0  0  0  0  0  0  0  0
  142.3645   74.5973  220.5505 H   0  0  0  0  0  0  0  0  0  0  0  0
  143.7533   75.4574  221.2356 H   0  0  0  0  0  0  0  0  0  0  0  0
  143.3625   76.4719  219.0534 H   0  0  0  0  0  0  0  0  0  0  0  0
  144.7760   75.3980  218.8211 H   0  0  0  0  0  0  0  0  0  0  0  0
  142.0740   75.1790  217.8540 H   0  0  0  0  0  0  0  0  0  0  0  0
  141.8091   73.2740  219.0294 H   0  0  0  0  0  0  0  0  0  0  0  0
  142.6226   72.7419  217.4866 H   0  0  0  0  0  0  0  0  0  0  0  0
  142.0069   71.4798  225.2935 H   0  0  0  0  0  0  0  0  0  0  0  0
  141.0574   72.9950  225.4748 H   0  0  0  0  0  0  0  0  0  0  0  0
  141.0993   71.6189  227.5936 H   0  0  0  0  0  0  0  0  0  0  0  0
  139.4541   71.8414  226.9912 H   0  0  0  0  0  0  0  0  0  0  0  0
  141.3952   69.3481  228.3642 H   0  0  0  0  0  0  0  0  0  0  0  0
  141.1030   66.9249  227.8979 H   0  0  0  0  0  0  0  0  0  0  0  0
  139.8875   66.1490  225.9006 H   0  0  0  0  0  0  0  0  0  0  0  0
  138.9048   67.7900  224.2786 H   0  0  0  0  0  0  0  0  0  0  0  0
  138.7723   70.1061  223.5978 H   0  0  0  0  0  0  0  0  0  0  0  0
  138.2083   71.0244  225.0136 H   0  0  0  0  0  0  0  0  0  0  0  0
  141.5876   75.7545  220.3577 H   0  0  0  0  0  0  0  0  0  0  0  0
  140.1146   76.4138  219.5772 H   0  0  0  0  0  0  0  0  0  0  0  0
  1  2  2  0
  2  3  1  0
  3  4  2  0
  4  5  1  0
  5  6  2  0
  5  7  1  0
  7  8  1  0
  8  9  1  0
  9 10  1  0
 10 11  2  0
 11 12  1  0
 12 13  1  0
 13 14  1  0
 14 15  1  0
 15 16  1  0
 16 17  1  0
 17 18  1  0
 18 19  1  0
 19 20  1  0
 12 21  2  0
 21 22  1  0
 22 23  1  0
 23 24  1  0
 24 25  1  0
 25 26  1  0
 26 27  2  0
 27 28  1  0
 28 29  2  0
 29 30  1  0
 30 31  2  0
 31 32  1  0
 22 33  2  0
  9 34  1  0
  6  1  1  0
 33 10  1  0
 34  4  1  0
 20 15  1  0
 32 23  1  0
 31 26  1  0
  1 35  1  0
  2 36  1  0
  3 37  1  0
  6 38  1  0
  7 39  1  0
  7 40  1  0
  8 41  1  0
  8 42  1  0
 13 43  1  0
 14 44  1  0
 14 45  1  0
 15 46  1  6
 16 47  1  0
 16 48  1  0
 17 49  1  0
 17 50  1  0
 18 51  1  0
 18 52  1  0
 19 53  1  0
 20 54  1  0
 20 55  1  0
 24 56  1  0
 24 57  1  0
 25 58  1  0
 25 59  1  0
 27 60  1  0
 28 61  1  0
 29 62  1  0
 30 63  1  0
 32 64  1  0
 32 65  1  0
 34 66  1  0
 34 67  1  0
M  END
>  <smiles>  (21) 
c1ccc2c(c1)CCN(c1nc(NCC3CCCNC3)nc(N3CCc4ccccc4C3)n1)C2

>  <score_type>  (21) 
oracle

>  <origin>  (21) 
autodockgpu

>  <m_score__min__energy>  (21) 
-10.83

>  <m_primary>  (21) 
energy

>  <rmsd>  (21) 
5.438268790499955

>  <m_score__min__rmsd>  (21) 
5.438268790499955

>  <meeko>  (21) 
{"free_energy": -8.95, "intermolecular_energy": -10.44, "internal_energy": -1.61, "cluster_size": 29, "cluster_id": 1, "rank_in_cluster": 25}

>  <energy>  (21) 
-9.18

>  <cluster_rmsd>  (21) 
0.88

>  <cluster>  (21) 
1

$$$$

     RDKit          3D

 67 72  0  0  0  0  0  0  0  0999 V2000
  139.6290   79.1870  223.7220 C   0  0  0  0  0  0  0  0  0  0  0  0
  140.9970   79.0770  223.4880 C   0  0  0  0  0  0  0  0  0  0  0  0
  141.4450   78.0580  222.6740 C   0  0  0  0  0  0  0  0  0  0  0  0
  140.5130   77.2010  222.1350 C   0  0  0  0  0  0  0  0  0  0  0  0
  139.1630   77.2840  222.3450 C   0  0  0  0  0  0  0  0  0  0  0  0
  138.7170   78.3160  223.1690 C   0  0  0  0  0  0  0  0  0  0  0  0
  138.1350   76.3890  221.7900 C   0  0  0  0  0  0  0  0  0  0  0  0
  138.7080   75.4170  220.7700 C   0  0  0  0  0  0  0  0  0  0  0  0
  140.0420   75.0200  221.2180 N   0  0  0  0  0  0  0  0  0  0  0  0
  140.3040   73.6810  221.5870 C   0  0  0  0  0  0  0  0  0  0  0  0
  140.7770   72.8670  220.6230 N   0  0  0  0  0  0  0  0  0  0  0  0
  141.0310   71.5830  220.9220 C   0  0  0  0  0  0  0  0  0  0  0  0
  141.5280   70.7830  219.8400 N   0  0  0  0  0  0  0  0  0  0  0  0
  142.1570   71.3530  218.6650 C   0  0  0  0  0  0  0  0  0  0  0  0
  143.2450   72.3310  219.0850 C   0  0  2  0  0  0  0  0  0  0  0  0
  144.0430   72.6640  217.8450 C   0  0  0  0  0  0  0  0  0  0  0  0
  145.5020   72.4010  218.1320 C   0  0  0  0  0  0  0  0  0  0  0  0
  145.8230   73.1610  219.4230 C   0  0  0  0  0  0  0  0  0  0  0  0
  145.2230   72.4690  220.5240 N   0  0  0  0  0  0  0  0  0  0  0  0
  144.0620   71.6930  220.1590 C   0  0  0  0  0  0  0  0  0  0  0  0
  140.8220   71.1030  222.1570 N   0  0  0  0  0  0  0  0  0  0  0  0
  140.3430   71.9100  223.1490 C   0  0  0  0  0  0  0  0  0  0  0  0
  140.1070   71.4250  224.4640 N   0  0  0  0  0  0  0  0  0  0  0  0
  141.0090   71.8610  225.5040 C   0  0  0  0  0  0  0  0  0  0  0  0
  140.4540   71.4550  226.8660 C   0  0  0  0  0  0  0  0  0  0  0  0
  140.2750   69.9800  226.7930 C   0  0  0  0  0  0  0  0  0  0  0  0
  140.8020   69.1190  227.7220 C   0  0  0  0  0  0  0  0  0  0  0  0
  140.5730   67.7710  227.5480 C   0  0  0  0  0  0  0  0  0  0  0  0
  139.8360   67.2910  226.4740 C   0  0  0  0  0  0  0  0  0  0  0  0
  139.2980   68.1500  225.5270 C   0  0  0  0  0  0  0  0  0  0  0  0
  139.5390   69.4940  225.7190 C   0  0  0  0  0  0  0  0  0  0  0  0
  139.0140   70.5330  224.7660 C   0  0  0  0  0  0  0  0  0  0  0  0
  140.1010   73.1840  222.8160 N   0  0  0  0  0  0  0  0  0  0  0  0
  141.0280   76.0860  221.2550 C   0  0  0  0  0  0  0  0  0  0  0  0
  139.2643   79.9971  224.3706 H   0  0  0  0  0  0  0  0  0  0  0  0
  141.7043   79.7867  223.9420 H   0  0  0  0  0  0  0  0  0  0  0  0
  142.5171   77.9337  222.4615 H   0  0  0  0  0  0  0  0  0  0  0  0
  137.6431   78.4339  223.3762 H   0  0  0  0  0  0  0  0  0  0  0  0
  137.6844   75.8142  222.6126 H   0  0  0  0  0  0  0  0  0  0  0  0
  137.3860   77.0117  221.2788 H   0  0  0  0  0  0  0  0  0  0  0  0
  138.0609   74.5306  220.6956 H   0  0  0  0  0  0  0  0  0  0  0  0
  138.7653   75.8939  219.7804 H   0  0  0  0  0  0  0  0  0  0  0  0
  141.4090   69.7550  219.9580 H   0  0  0  0  0  0  0  0  0  0  0  0
  142.6027   70.5477  218.0626 H   0  0  0  0  0  0  0  0  0  0  0  0
  141.4001   71.8856  218.0704 H   0  0  0  0  0  0  0  0  0  0  0  0
  142.8473   73.2686  219.5007 H   0  0  0  0  0  0  0  0  0  0  0  0
  143.7094   72.0330  217.0080 H   0  0  0  0  0  0  0  0  0  0  0  0
  143.8957   73.7196  217.5730 H   0  0  0  0  0  0  0  0  0  0  0  0
  145.6762   71.3236  218.2695 H   0  0  0  0  0  0  0  0  0  0  0  0
  146.1418   72.7316  217.3005 H   0  0  0  0  0  0  0  0  0  0  0  0
  146.9129   73.2070  219.5643 H   0  0  0  0  0  0  0  0  0  0  0  0
  145.4270   74.1855  219.3634 H   0  0  0  0  0  0  0  0  0  0  0  0
  145.9370   71.8590  220.9790 H   0  0  0  0  0  0  0  0  0  0  0  0
  144.3972   70.7070  219.8048 H   0  0  0  0  0  0  0  0  0  0  0  0
  143.4254   71.6151  221.0527 H   0  0  0  0  0  0  0  0  0  0  0  0
  141.9931   71.3925  225.3552 H   0  0  0  0  0  0  0  0  0  0  0  0
  141.1123   72.9554  225.4630 H   0  0  0  0  0  0  0  0  0  0  0  0
  141.1629   71.7180  227.6649 H   0  0  0  0  0  0  0  0  0  0  0  0
  139.5104   71.9718  227.0950 H   0  0  0  0  0  0  0  0  0  0  0  0
  141.3869   69.4914  228.5759 H   0  0  0  0  0  0  0  0  0  0  0  0
  140.9842   67.0582  228.2780 H   0  0  0  0  0  0  0  0  0  0  0  0
  139.6754   66.2076  226.3719 H   0  0  0  0  0  0  0  0  0  0  0  0
  138.7128   67.7803  224.6721 H   0  0  0  0  0  0  0  0  0  0  0  0
  138.6544   70.0519  223.8445 H   0  0  0  0  0  0  0  0  0  0  0  0
  138.1726   71.0831  225.2124 H   0  0  0  0  0  0  0  0  0  0  0  0
  141.9734   75.7000  221.6639 H   0  0  0  0  0  0  0  0  0  0  0  0
  141.2034   76.4659  220.2377 H   0  0  0  0  0  0  0  0  0  0  0  0
  1  2  2  0
  2  3  1  0
  3  4  2  0
  4  5  1  0
  5  6  2  0
  5  7  1  0
  7  8  1  0
  8  9  1  0
  9 10  1  0
 10 11  2  0
 11 12  1  0
 12 13  1  0
 13 14  1  0
 14 15  1  0
 15 16  1  0
 16 17  1  0
 17 18  1  0
 18 19  1  0
 19 20  1  0
 12 21  2  0
 21 22  1  0
 22 23  1  0
 23 24  1  0
 24 25  1  0
 25 26  1  0
 26 27  2  0
 27 28  1  0
 28 29  2  0
 29 30  1  0
 30 31  2  0
 31 32  1  0
 22 33  2  0
  9 34  1  0
  6  1  1  0
 33 10  1  0
 34  4  1  0
 20 15  1  0
 32 23  1  0
 31 26  1  0
  1 35  1  0
  2 36  1  0
  3 37  1  0
  6 38  1  0
  7 39  1  0
  7 40  1  0
  8 41  1  0
  8 42  1  0
 13 43  1  0
 14 44  1  0
 14 45  1  0
 15 46  1  1
 16 47  1  0
 16 48  1  0
 17 49  1  0
 17 50  1  0
 18 51  1  0
 18 52  1  0
 19 53  1  0
 20 54  1  0
 20 55  1  0
 24 56  1  0
 24 57  1  0
 25 58  1  0
 25 59  1  0
 27 60  1  0
 28 61  1  0
 29 62  1  0
 30 63  1  0
 32 64  1  0
 32 65  1  0
 34 66  1  0
 34 67  1  0
M  END
>  <smiles>  (22) 
c1ccc2c(c1)CCN(c1nc(NCC3CCCNC3)nc(N3CCc4ccccc4C3)n1)C2

>  <score_type>  (22) 
oracle

>  <origin>  (22) 
autodockgpu

>  <m_score__min__energy>  (22) 
-10.83

>  <m_primary>  (22) 
energy

>  <rmsd>  (22) 
6.178392190282157

>  <m_score__min__rmsd>  (22) 
6.178392190282157

>  <meeko>  (22) 
{"free_energy": -9.18, "intermolecular_energy": -10.67, "internal_energy": -1.07, "cluster_size": 29, "cluster_id": 1, "rank_in_cluster": 21}

>  <energy>  (22) 
-9.15

>  <cluster_rmsd>  (22) 
1.31

>  <cluster>  (22) 
1

$$$$

     RDKit          3D

 67 72  0  0  0  0  0  0  0  0999 V2000
  143.6900   75.9290  215.4120 C   0  0  0  0  0  0  0  0  0  0  0  0
  143.2710   77.2040  215.7830 C   0  0  0  0  0  0  0  0  0  0  0  0
  143.0480   77.4620  217.1190 C   0  0  0  0  0  0  0  0  0  0  0  0
  143.2520   76.4400  218.0190 C   0  0  0  0  0  0  0  0  0  0  0  0
  143.6630   75.1780  217.6860 C   0  0  0  0  0  0  0  0  0  0  0  0
  143.8860   74.9250  216.3340 C   0  0  0  0  0  0  0  0  0  0  0  0
  143.8900   74.0590  218.6150 C   0  0  0  0  0  0  0  0  0  0  0  0
  143.7920   74.4900  220.0700 C   0  0  0  0  0  0  0  0  0  0  0  0
  142.7370   75.4960  220.1780 N   0  0  0  0  0  0  0  0  0  0  0  0
  141.5640   75.2250  220.9190 C   0  0  0  0  0  0  0  0  0  0  0  0
  140.7990   76.2810  221.2540 N   0  0  0  0  0  0  0  0  0  0  0  0
  139.6810   76.0760  221.9660 C   0  0  0  0  0  0  0  0  0  0  0  0
  138.9240   77.2530  222.2840 N   0  0  0  0  0  0  0  0  0  0  0  0
  139.3760   78.5900  221.9570 C   0  0  0  0  0  0  0  0  0  0  0  0
  140.5490   78.9710  222.8500 C   0  0  2  0  0  0  0  0  0  0  0  0
  140.2400   80.3320  223.4290 C   0  0  0  0  0  0  0  0  0  0  0  0
  141.4030   81.2510  223.1360 C   0  0  0  0  0  0  0  0  0  0  0  0
  142.6550   80.5210  223.6340 C   0  0  0  0  0  0  0  0  0  0  0  0
  142.9490   79.4480  222.7320 N   0  0  0  0  0  0  0  0  0  0  0  0
  141.7930   78.9490  222.0260 C   0  0  0  0  0  0  0  0  0  0  0  0
  139.3160   74.8420  222.3480 N   0  0  0  0  0  0  0  0  0  0  0  0
  140.0770   73.7560  222.0200 C   0  0  0  0  0  0  0  0  0  0  0  0
  139.7180   72.4400  222.4170 N   0  0  0  0  0  0  0  0  0  0  0  0
  138.3220   72.0800  222.3330 C   0  0  0  0  0  0  0  0  0  0  0  0
  138.1670   70.5760  222.5470 C   0  0  0  0  0  0  0  0  0  0  0  0
  138.7900   70.3040  223.8710 C   0  0  0  0  0  0  0  0  0  0  0  0
  138.1390   69.6340  224.8750 C   0  0  0  0  0  0  0  0  0  0  0  0
  138.8160   69.4420  226.0610 C   0  0  0  0  0  0  0  0  0  0  0  0
  140.1110   69.9060  226.2420 C   0  0  0  0  0  0  0  0  0  0  0  0
  140.7810   70.5860  225.2340 C   0  0  0  0  0  0  0  0  0  0  0  0
  140.0860   70.7670  224.0580 C   0  0  0  0  0  0  0  0  0  0  0  0
  140.6950   71.4880  222.8860 C   0  0  0  0  0  0  0  0  0  0  0  0
  141.1850   73.9980  221.3090 N   0  0  0  0  0  0  0  0  0  0  0  0
  142.9920   76.7410  219.4770 C   0  0  0  0  0  0  0  0  0  0  0  0
  143.8703   75.7168  214.3478 H   0  0  0  0  0  0  0  0  0  0  0  0
  143.1211   77.9885  215.0266 H   0  0  0  0  0  0  0  0  0  0  0  0
  142.7168   78.4553  217.4561 H   0  0  0  0  0  0  0  0  0  0  0  0
  144.2168   73.9288  216.0050 H   0  0  0  0  0  0  0  0  0  0  0  0
  143.1352   73.2819  218.4244 H   0  0  0  0  0  0  0  0  0  0  0  0
  144.9082   73.6796  218.4435 H   0  0  0  0  0  0  0  0  0  0  0  0
  143.5452   73.6224  220.6996 H   0  0  0  0  0  0  0  0  0  0  0  0
  144.7517   74.9079  220.4081 H   0  0  0  0  0  0  0  0  0  0  0  0
  138.0180   77.0800  222.7680 H   0  0  0  0  0  0  0  0  0  0  0  0
  139.6935   78.6208  220.9043 H   0  0  0  0  0  0  0  0  0  0  0  0
  138.5521   79.3011  222.1168 H   0  0  0  0  0  0  0  0  0  0  0  0
  140.7048   78.2698  223.6831 H   0  0  0  0  0  0  0  0  0  0  0  0
  139.3250   80.7325  222.9683 H   0  0  0  0  0  0  0  0  0  0  0  0
  140.0848   80.2539  224.5152 H   0  0  0  0  0  0  0  0  0  0  0  0
  141.4764   81.4417  222.0551 H   0  0  0  0  0  0  0  0  0  0  0  0
  141.2811   82.2253  223.6318 H   0  0  0  0  0  0  0  0  0  0  0  0
  143.5033   81.2205  223.6664 H   0  0  0  0  0  0  0  0  0  0  0  0
  142.4808   80.1242  224.6450 H   0  0  0  0  0  0  0  0  0  0  0  0
  143.6810   79.7580  222.0550 H   0  0  0  0  0  0  0  0  0  0  0  0
  141.6325   79.5712  221.1332 H   0  0  0  0  0  0  0  0  0  0  0  0
  141.9954   77.8996  221.7658 H   0  0  0  0  0  0  0  0  0  0  0  0
  137.7574   72.6200  223.1073 H   0  0  0  0  0  0  0  0  0  0  0  0
  137.9345   72.3494  221.3394 H   0  0  0  0  0  0  0  0  0  0  0  0
  137.1035   70.2953  222.5561 H   0  0  0  0  0  0  0  0  0  0  0  0
  138.6414   69.9952  221.7423 H   0  0  0  0  0  0  0  0  0  0  0  0
  137.1126   69.2627  224.7390 H   0  0  0  0  0  0  0  0  0  0  0  0
  138.3173   68.9081  226.8834 H   0  0  0  0  0  0  0  0  0  0  0  0
  140.6168   69.7316  227.2031 H   0  0  0  0  0  0  0  0  0  0  0  0
  141.8074   70.9588  225.3664 H   0  0  0  0  0  0  0  0  0  0  0  0
  141.6106   72.0109  223.1994 H   0  0  0  0  0  0  0  0  0  0  0  0
  140.9645   70.7797  222.0887 H   0  0  0  0  0  0  0  0  0  0  0  0
  142.1166   77.4010  219.5670 H   0  0  0  0  0  0  0  0  0  0  0  0
  143.8679   77.2417  219.9152 H   0  0  0  0  0  0  0  0  0  0  0  0
  1  2  2  0
  2  3  1  0
  3  4  2  0
  4  5  1  0
  5  6  2  0
  5  7  1  0
  7  8  1  0
  8  9  1  0
  9 10  1  0
 10 11  2  0
 11 12  1  0
 12 13  1  0
 13 14  1  0
 14 15  1  0
 15 16  1  0
 16 17  1  0
 17 18  1  0
 18 19  1  0
 19 20  1  0
 12 21  2  0
 21 22  1  0
 22 23  1  0
 23 24  1  0
 24 25  1  0
 25 26  1  0
 26 27  2  0
 27 28  1  0
 28 29  2  0
 29 30  1  0
 30 31  2  0
 31 32  1  0
 22 33  2  0
  9 34  1  0
  6  1  1  0
 33 10  1  0
 34  4  1  0
 20 15  1  0
 32 23  1  0
 31 26  1  0
  1 35  1  0
  2 36  1  0
  3 37  1  0
  6 38  1  0
  7 39  1  0
  7 40  1  0
  8 41  1  0
  8 42  1  0
 13 43  1  0
 14 44  1  0
 14 45  1  0
 15 46  1  1
 16 47  1  0
 16 48  1  0
 17 49  1  0
 17 50  1  0
 18 51  1  0
 18 52  1  0
 19 53  1  0
 20 54  1  0
 20 55  1  0
 24 56  1  0
 24 57  1  0
 25 58  1  0
 25 59  1  0
 27 60  1  0
 28 61  1  0
 29 62  1  0
 30 63  1  0
 32 64  1  0
 32 65  1  0
 34 66  1  0
 34 67  1  0
M  END
>  <smiles>  (23) 
c1ccc2c(c1)CCN(c1nc(NCC3CCCNC3)nc(N3CCc4ccccc4C3)n1)C2

>  <score_type>  (23) 
oracle

>  <origin>  (23) 
autodockgpu

>  <m_score__min__energy>  (23) 
-10.83

>  <m_primary>  (23) 
energy

>  <rmsd>  (23) 
4.910735333435932

>  <m_score__min__rmsd>  (23) 
4.910735333435932

>  <meeko>  (23) 
{"free_energy": -9.15, "intermolecular_energy": -10.64, "internal_energy": -1.15, "cluster_size": 1, "cluster_id": 4, "rank_in_cluster": 1}

>  <energy>  (23) 
-9.15

>  <cluster_rmsd>  (23) 
1.44

>  <cluster>  (23) 
1

$$$$

     RDKit          3D

 67 72  0  0  0  0  0  0  0  0999 V2000
  133.3200   73.3820  226.5540 C   0  0  0  0  0  0  0  0  0  0  0  0
  133.4850   74.7570  226.4120 C   0  0  0  0  0  0  0  0  0  0  0  0
  134.1200   75.2310  225.2830 C   0  0  0  0  0  0  0  0  0  0  0  0
  134.5590   74.3160  224.3540 C   0  0  0  0  0  0  0  0  0  0  0  0
  134.4110   72.9600  224.4640 C   0  0  0  0  0  0  0  0  0  0  0  0
  133.7690   72.4880  225.6070 C   0  0  0  0  0  0  0  0  0  0  0  0
  134.8670   71.9500  223.4960 C   0  0  0  0  0  0  0  0  0  0  0  0
  135.3890   72.5760  222.2120 C   0  0  0  0  0  0  0  0  0  0  0  0
  136.0910   73.8110  222.5600 N   0  0  0  0  0  0  0  0  0  0  0  0
  137.4830   73.9270  222.3450 C   0  0  0  0  0  0  0  0  0  0  0  0
  138.2110   72.7990  222.4500 N   0  0  0  0  0  0  0  0  0  0  0  0
  139.5380   72.8600  222.2650 C   0  0  0  0  0  0  0  0  0  0  0  0
  140.2400   71.6160  222.3970 N   0  0  0  0  0  0  0  0  0  0  0  0
  139.6690   70.4580  223.0550 C   0  0  0  0  0  0  0  0  0  0  0  0
  139.5480   70.7200  224.5500 C   0  0  2  0  0  0  0  0  0  0  0  0
  140.7730   71.5040  224.9610 C   0  0  0  0  0  0  0  0  0  0  0  0
  141.4360   70.7840  226.1120 C   0  0  0  0  0  0  0  0  0  0  0  0
  140.3390   70.5570  227.1570 C   0  0  0  0  0  0  0  0  0  0  0  0
  139.4650   69.5250  226.6870 N   0  0  0  0  0  0  0  0  0  0  0  0
  139.4260   69.4060  225.2490 C   0  0  0  0  0  0  0  0  0  0  0  0
  140.1460   74.0210  221.9770 N   0  0  0  0  0  0  0  0  0  0  0  0
  139.4290   75.1780  221.8650 C   0  0  0  0  0  0  0  0  0  0  0  0
  140.0490   76.4210  221.5680 N   0  0  0  0  0  0  0  0  0  0  0  0
  141.4200   76.3870  221.1140 C   0  0  0  0  0  0  0  0  0  0  0  0
  141.8250   77.7670  220.6050 C   0  0  0  0  0  0  0  0  0  0  0  0
  141.5820   78.6920  221.7450 C   0  0  0  0  0  0  0  0  0  0  0  0
  142.5410   79.5470  222.2270 C   0  0  0  0  0  0  0  0  0  0  0  0
  142.2010   80.3560  223.2900 C   0  0  0  0  0  0  0  0  0  0  0  0
  140.9360   80.3150  223.8600 C   0  0  0  0  0  0  0  0  0  0  0  0
  139.9570   79.4550  223.3830 C   0  0  0  0  0  0  0  0  0  0  0  0
  140.3180   78.6550  222.3200 C   0  0  0  0  0  0  0  0  0  0  0  0
  139.3520   77.6770  221.7070 C   0  0  0  0  0  0  0  0  0  0  0  0
  138.1070   75.0790  222.0570 N   0  0  0  0  0  0  0  0  0  0  0  0
  135.2610   74.8580  223.1300 C   0  0  0  0  0  0  0  0  0  0  0  0
  132.8145   72.9968  227.4518 H   0  0  0  0  0  0  0  0  0  0  0  0
  133.1172   75.4500  227.1830 H   0  0  0  0  0  0  0  0  0  0  0  0
  134.2711   76.3097  225.1297 H   0  0  0  0  0  0  0  0  0  0  0  0
  133.6215   71.4077  225.7523 H   0  0  0  0  0  0  0  0  0  0  0  0
  135.6734   71.3589  223.9547 H   0  0  0  0  0  0  0  0  0  0  0  0
  134.0043   71.3188  223.2364 H   0  0  0  0  0  0  0  0  0  0  0  0
  136.0814   71.8816  221.7135 H   0  0  0  0  0  0  0  0  0  0  0  0
  134.5554   72.7920  221.5276 H   0  0  0  0  0  0  0  0  0  0  0  0
  141.1960   71.6000  221.9850 H   0  0  0  0  0  0  0  0  0  0  0  0
  138.6713   70.2563  222.6379 H   0  0  0  0  0  0  0  0  0  0  0  0
  140.3227   69.5887  222.8909 H   0  0  0  0  0  0  0  0  0  0  0  0
  138.6572   71.3077  224.8166 H   0  0  0  0  0  0  0  0  0  0  0  0
  141.4715   71.5728  224.1140 H   0  0  0  0  0  0  0  0  0  0  0  0
  140.4859   72.5210  225.2664 H   0  0  0  0  0  0  0  0  0  0  0  0
  141.8473   69.8212  225.7744 H   0  0  0  0  0  0  0  0  0  0  0  0
  142.2711   71.3687  226.5253 H   0  0  0  0  0  0  0  0  0  0  0  0
  140.7937   70.2513  228.1108 H   0  0  0  0  0  0  0  0  0  0  0  0
  139.7719   71.4865  227.3136 H   0  0  0  0  0  0  0  0  0  0  0  0
  139.7420   68.6150  227.1180 H   0  0  0  0  0  0  0  0  0  0  0  0
  140.2567   68.7602  224.9283 H   0  0  0  0  0  0  0  0  0  0  0  0
  138.4475   68.9810  224.9810 H   0  0  0  0  0  0  0  0  0  0  0  0
  142.0751   76.0981  221.9491 H   0  0  0  0  0  0  0  0  0  0  0  0
  141.5169   75.6542  220.2993 H   0  0  0  0  0  0  0  0  0  0  0  0
  142.8876   77.7764  220.3207 H   0  0  0  0  0  0  0  0  0  0  0  0
  141.2542   78.0585  219.7110 H   0  0  0  0  0  0  0  0  0  0  0  0
  143.5457   79.5854  221.7808 H   0  0  0  0  0  0  0  0  0  0  0  0
  142.9504   81.0511  223.6965 H   0  0  0  0  0  0  0  0  0  0  0  0
  140.7049   80.9777  224.7070 H   0  0  0  0  0  0  0  0  0  0  0  0
  138.9515   79.4140  223.8272 H   0  0  0  0  0  0  0  0  0  0  0  0
  138.4762   77.5520  222.3607 H   0  0  0  0  0  0  0  0  0  0  0  0
  138.9974   78.0377  220.7302 H   0  0  0  0  0  0  0  0  0  0  0  0
  135.8904   75.7141  223.4144 H   0  0  0  0  0  0  0  0  0  0  0  0
  134.5172   75.1877  222.3898 H   0  0  0  0  0  0  0  0  0  0  0  0
  1  2  2  0
  2  3  1  0
  3  4  2  0
  4  5  1  0
  5  6  2  0
  5  7  1  0
  7  8  1  0
  8  9  1  0
  9 10  1  0
 10 11  2  0
 11 12  1  0
 12 13  1  0
 13 14  1  0
 14 15  1  0
 15 16  1  0
 16 17  1  0
 17 18  1  0
 18 19  1  0
 19 20  1  0
 12 21  2  0
 21 22  1  0
 22 23  1  0
 23 24  1  0
 24 25  1  0
 25 26  1  0
 26 27  2  0
 27 28  1  0
 28 29  2  0
 29 30  1  0
 30 31  2  0
 31 32  1  0
 22 33  2  0
  9 34  1  0
  6  1  1  0
 33 10  1  0
 34  4  1  0
 20 15  1  0
 32 23  1  0
 31 26  1  0
  1 35  1  0
  2 36  1  0
  3 37  1  0
  6 38  1  0
  7 39  1  0
  7 40  1  0
  8 41  1  0
  8 42  1  0
 13 43  1  0
 14 44  1  0
 14 45  1  0
 15 46  1  6
 16 47  1  0
 16 48  1  0
 17 49  1  0
 17 50  1  0
 18 51  1  0
 18 52  1  0
 19 53  1  0
 20 54  1  0
 20 55  1  0
 24 56  1  0
 24 57  1  0
 25 58  1  0
 25 59  1  0
 27 60  1  0
 28 61  1  0
 29 62  1  0
 30 63  1  0
 32 64  1  0
 32 65  1  0
 34 66  1  0
 34 67  1  0
M  END
>  <smiles>  (24) 
c1ccc2c(c1)CCN(c1nc(NCC3CCCNC3)nc(N3CCc4ccccc4C3)n1)C2

>  <score_type>  (24) 
oracle

>  <origin>  (24) 
autodockgpu

>  <m_score__min__energy>  (24) 
-10.83

>  <m_primary>  (24) 
energy

>  <rmsd>  (24) 
8.543515750516649

>  <m_score__min__rmsd>  (24) 
8.543515750516649

>  <meeko>  (24) 
{"free_energy": -8.47, "intermolecular_energy": -9.96, "internal_energy": -1.2, "cluster_size": 2, "cluster_id": 5, "rank_in_cluster": 2}

>  <energy>  (24) 
-8.96

>  <cluster_rmsd>  (24) 
1.41

>  <cluster>  (24) 
1

$$$$

     RDKit          3D

 67 72  0  0  0  0  0  0  0  0999 V2000
  141.0200   79.4570  222.8380 C   0  0  0  0  0  0  0  0  0  0  0  0
  141.9690   79.1600  221.8640 C   0  0  0  0  0  0  0  0  0  0  0  0
  141.8070   78.0150  221.1140 C   0  0  0  0  0  0  0  0  0  0  0  0
  140.7100   77.2230  221.3690 C   0  0  0  0  0  0  0  0  0  0  0  0
  139.7600   77.4880  222.3170 C   0  0  0  0  0  0  0  0  0  0  0  0
  139.9310   78.6470  223.0720 C   0  0  0  0  0  0  0  0  0  0  0  0
  138.5770   76.6680  222.6220 C   0  0  0  0  0  0  0  0  0  0  0  0
  138.3920   75.5320  221.6280 C   0  0  0  0  0  0  0  0  0  0  0  0
  139.7140   75.0290  221.2590 N   0  0  0  0  0  0  0  0  0  0  0  0
  140.1010   73.7140  221.6070 C   0  0  0  0  0  0  0  0  0  0  0  0
  140.6330   72.9590  220.6270 N   0  0  0  0  0  0  0  0  0  0  0  0
  141.0060   71.7000  220.9040 C   0  0  0  0  0  0  0  0  0  0  0  0
  141.5600   70.9620  219.8070 N   0  0  0  0  0  0  0  0  0  0  0  0
  142.9780   70.6890  219.6780 C   0  0  0  0  0  0  0  0  0  0  0  0
  143.7290   71.9830  219.3960 C   0  0  2  0  0  0  0  0  0  0  0  0
  144.0760   72.5940  220.7340 C   0  0  0  0  0  0  0  0  0  0  0  0
  143.5670   74.0160  220.7560 C   0  0  0  0  0  0  0  0  0  0  0  0
  144.1200   74.6830  219.4920 C   0  0  0  0  0  0  0  0  0  0  0  0
  143.4050   74.1780  218.3580 N   0  0  0  0  0  0  0  0  0  0  0  0
  142.8580   72.8580  218.5560 C   0  0  0  0  0  0  0  0  0  0  0  0
  140.8590   71.1880  222.1360 N   0  0  0  0  0  0  0  0  0  0  0  0
  140.3220   71.9350  223.1450 C   0  0  0  0  0  0  0  0  0  0  0  0
  140.1490   71.4150  224.4550 N   0  0  0  0  0  0  0  0  0  0  0  0
  141.0450   71.8920  225.4820 C   0  0  0  0  0  0  0  0  0  0  0  0
  140.5490   71.4290  226.8500 C   0  0  0  0  0  0  0  0  0  0  0  0
  140.4640   69.9460  226.7540 C   0  0  0  0  0  0  0  0  0  0  0  0
  141.0670   69.1070  227.6560 C   0  0  0  0  0  0  0  0  0  0  0  0
  140.9210   67.7490  227.4630 C   0  0  0  0  0  0  0  0  0  0  0  0
  140.1920   67.2400  226.3980 C   0  0  0  0  0  0  0  0  0  0  0  0
  139.5770   68.0780  225.4780 C   0  0  0  0  0  0  0  0  0  0  0  0
  139.7360   69.4310  225.6890 C   0  0  0  0  0  0  0  0  0  0  0  0
  139.1230   70.4490  224.7660 C   0  0  0  0  0  0  0  0  0  0  0  0
  139.9610   73.1860  222.8310 N   0  0  0  0  0  0  0  0  0  0  0  0
  140.5580   75.9680  220.5420 C   0  0  0  0  0  0  0  0  0  0  0  0
  141.1439   80.3688  223.4407 H   0  0  0  0  0  0  0  0  0  0  0  0
  142.8294   79.8246  221.6965 H   0  0  0  0  0  0  0  0  0  0  0  0
  142.5332   77.7418  220.3342 H   0  0  0  0  0  0  0  0  0  0  0  0
  139.2005   78.9132  223.8502 H   0  0  0  0  0  0  0  0  0  0  0  0
  138.6920   76.2416  223.6295 H   0  0  0  0  0  0  0  0  0  0  0  0
  137.6915   77.3176  222.5601 H   0  0  0  0  0  0  0  0  0  0  0  0
  137.8021   74.7260  222.0890 H   0  0  0  0  0  0  0  0  0  0  0  0
  137.8589   75.8909  220.7353 H   0  0  0  0  0  0  0  0  0  0  0  0
  140.8690   70.6300  219.1020 H   0  0  0  0  0  0  0  0  0  0  0  0
  143.3513   70.2466  220.6134 H   0  0  0  0  0  0  0  0  0  0  0  0
  143.1385   69.9874  218.8461 H   0  0  0  0  0  0  0  0  0  0  0  0
  144.6629   71.8283  218.8358 H   0  0  0  0  0  0  0  0  0  0  0  0
  143.6002   72.0167  221.5405 H   0  0  0  0  0  0  0  0  0  0  0  0
  145.1656   72.5806  220.8841 H   0  0  0  0  0  0  0  0  0  0  0  0
  142.4671   74.0283  220.7445 H   0  0  0  0  0  0  0  0  0  0  0  0
  143.8900   74.5452  221.6646 H   0  0  0  0  0  0  0  0  0  0  0  0
  143.9860   75.7727  219.5592 H   0  0  0  0  0  0  0  0  0  0  0  0
  145.1925   74.4614  219.3889 H   0  0  0  0  0  0  0  0  0  0  0  0
  142.6480   74.8490  218.1010 H   0  0  0  0  0  0  0  0  0  0  0  0
  141.8795   72.9549  219.0491 H   0  0  0  0  0  0  0  0  0  0  0  0
  142.7753   72.3853  217.5662 H   0  0  0  0  0  0  0  0  0  0  0  0
  142.0535   71.4908  225.3032 H   0  0  0  0  0  0  0  0  0  0  0  0
  141.0764   72.9913  225.4577 H   0  0  0  0  0  0  0  0  0  0  0  0
  141.2580   71.7244  227.6374 H   0  0  0  0  0  0  0  0  0  0  0  0
  139.5799   71.8800  227.1098 H   0  0  0  0  0  0  0  0  0  0  0  0
  141.6464   69.5029  228.5031 H   0  0  0  0  0  0  0  0  0  0  0  0
  141.3942   67.0526  228.1709 H   0  0  0  0  0  0  0  0  0  0  0  0
  140.0995   66.1502  226.2802 H   0  0  0  0  0  0  0  0  0  0  0  0
  138.9966   67.6854  224.6301 H   0  0  0  0  0  0  0  0  0  0  0  0
  138.7736   69.9603  223.8445 H   0  0  0  0  0  0  0  0  0  0  0  0
  138.2586   70.9363  225.2407 H   0  0  0  0  0  0  0  0  0  0  0  0
  141.5468   75.5179  220.3696 H   0  0  0  0  0  0  0  0  0  0  0  0
  140.0998   76.2147  219.5729 H   0  0  0  0  0  0  0  0  0  0  0  0
  1  2  2  0
  2  3  1  0
  3  4  2  0
  4  5  1  0
  5  6  2  0
  5  7  1  0
  7  8  1  0
  8  9  1  0
  9 10  1  0
 10 11  2  0
 11 12  1  0
 12 13  1  0
 13 14  1  0
 14 15  1  0
 15 16  1  0
 16 17  1  0
 17 18  1  0
 18 19  1  0
 19 20  1  0
 12 21  2  0
 21 22  1  0
 22 23  1  0
 23 24  1  0
 24 25  1  0
 25 26  1  0
 26 27  2  0
 27 28  1  0
 28 29  2  0
 29 30  1  0
 30 31  2  0
 31 32  1  0
 22 33  2  0
  9 34  1  0
  6  1  1  0
 33 10  1  0
 34  4  1  0
 20 15  1  0
 32 23  1  0
 31 26  1  0
  1 35  1  0
  2 36  1  0
  3 37  1  0
  6 38  1  0
  7 39  1  0
  7 40  1  0
  8 41  1  0
  8 42  1  0
 13 43  1  0
 14 44  1  0
 14 45  1  0
 15 46  1  6
 16 47  1  0
 16 48  1  0
 17 49  1  0
 17 50  1  0
 18 51  1  0
 18 52  1  0
 19 53  1  0
 20 54  1  0
 20 55  1  0
 24 56  1  0
 24 57  1  0
 25 58  1  0
 25 59  1  0
 27 60  1  0
 28 61  1  0
 29 62  1  0
 30 63  1  0
 32 64  1  0
 32 65  1  0
 34 66  1  0
 34 67  1  0
M  END
>  <smiles>  (25) 
c1ccc2c(c1)CCN(c1nc(NCC3CCCNC3)nc(N3CCc4ccccc4C3)n1)C2

>  <score_type>  (25) 
oracle

>  <origin>  (25) 
autodockgpu

>  <m_score__min__energy>  (25) 
-10.83

>  <m_primary>  (25) 
energy

>  <rmsd>  (25) 
5.80289660739415

>  <m_score__min__rmsd>  (25) 
5.80289660739415

>  <meeko>  (25) 
{"free_energy": -8.88, "intermolecular_energy": -10.37, "internal_energy": -1.68, "cluster_size": 29, "cluster_id": 1, "rank_in_cluster": 27}

>  <energy>  (25) 
-8.95

>  <cluster_rmsd>  (25) 
1.22

>  <cluster>  (25) 
1

$$$$

     RDKit          3D

 67 72  0  0  0  0  0  0  0  0999 V2000
  140.9120   79.6390  223.0540 C   0  0  0  0  0  0  0  0  0  0  0  0
  141.8950   79.3970  222.0990 C   0  0  0  0  0  0  0  0  0  0  0  0
  141.7780   78.2780  221.3010 C   0  0  0  0  0  0  0  0  0  0  0  0
  140.6900   77.4570  221.4940 C   0  0  0  0  0  0  0  0  0  0  0  0
  139.7070   77.6680  222.4230 C   0  0  0  0  0  0  0  0  0  0  0  0
  139.8330   78.8000  223.2250 C   0  0  0  0  0  0  0  0  0  0  0  0
  138.5320   76.8140  222.6610 C   0  0  0  0  0  0  0  0  0  0  0  0
  138.3990   75.7140  221.6200 C   0  0  0  0  0  0  0  0  0  0  0  0
  139.7410   75.2500  221.2730 N   0  0  0  0  0  0  0  0  0  0  0  0
  140.1440   73.9310  221.5820 C   0  0  0  0  0  0  0  0  0  0  0  0
  140.7330   73.2280  220.5950 N   0  0  0  0  0  0  0  0  0  0  0  0
  141.1230   71.9670  220.8370 C   0  0  0  0  0  0  0  0  0  0  0  0
  141.7380   71.2870  219.7340 N   0  0  0  0  0  0  0  0  0  0  0  0
  142.7540   71.9000  218.9000 C   0  0  0  0  0  0  0  0  0  0  0  0
  143.5970   72.8560  219.7330 C   0  0  2  0  0  0  0  0  0  0  0  0
  144.5430   73.5540  218.7830 C   0  0  0  0  0  0  0  0  0  0  0  0
  145.9520   73.3800  219.2990 C   0  0  0  0  0  0  0  0  0  0  0  0
  145.9270   73.8400  220.7600 C   0  0  0  0  0  0  0  0  0  0  0  0
  145.2500   72.8480  221.5410 N   0  0  0  0  0  0  0  0  0  0  0  0
  144.2970   72.0670  220.7890 C   0  0  0  0  0  0  0  0  0  0  0  0
  140.9370   71.4010  222.0390 N   0  0  0  0  0  0  0  0  0  0  0  0
  140.3420   72.0940  223.0540 C   0  0  0  0  0  0  0  0  0  0  0  0
  140.1270   71.5160  224.3340 N   0  0  0  0  0  0  0  0  0  0  0  0
  141.0370   71.8890  225.3910 C   0  0  0  0  0  0  0  0  0  0  0  0
  140.5030   71.3820  226.7290 C   0  0  0  0  0  0  0  0  0  0  0  0
  140.3380   69.9130  226.5540 C   0  0  0  0  0  0  0  0  0  0  0  0
  140.8860   68.9970  227.4140 C   0  0  0  0  0  0  0  0  0  0  0  0
  140.6690   67.6610  227.1490 C   0  0  0  0  0  0  0  0  0  0  0  0
  139.9240   67.2490  226.0530 C   0  0  0  0  0  0  0  0  0  0  0  0
  139.3650   68.1660  225.1740 C   0  0  0  0  0  0  0  0  0  0  0  0
  139.5950   69.4950  225.4570 C   0  0  0  0  0  0  0  0  0  0  0  0
  139.0470   70.5930  224.5850 C   0  0  0  0  0  0  0  0  0  0  0  0
  139.9650   73.3490  222.7770 N   0  0  0  0  0  0  0  0  0  0  0  0
  140.5870   76.2310  220.6160 C   0  0  0  0  0  0  0  0  0  0  0  0
  140.9996   80.5298  223.6934 H   0  0  0  0  0  0  0  0  0  0  0  0
  142.7468   80.0833  221.9831 H   0  0  0  0  0  0  0  0  0  0  0  0
  142.5316   78.0485  220.5333 H   0  0  0  0  0  0  0  0  0  0  0  0
  139.0751   79.0226  223.9905 H   0  0  0  0  0  0  0  0  0  0  0  0
  138.6261   76.3515  223.6546 H   0  0  0  0  0  0  0  0  0  0  0  0
  137.6358   77.4486  222.5970 H   0  0  0  0  0  0  0  0  0  0  0  0
  137.8115   74.8803  222.0320 H   0  0  0  0  0  0  0  0  0  0  0  0
  137.8859   76.0969  220.7255 H   0  0  0  0  0  0  0  0  0  0  0  0
  141.4050   70.3140  219.5710 H   0  0  0  0  0  0  0  0  0  0  0  0
  143.4004   71.1170  218.4768 H   0  0  0  0  0  0  0  0  0  0  0  0
  142.2678   72.4588  218.0867 H   0  0  0  0  0  0  0  0  0  0  0  0
  143.0000   73.6222  220.2493 H   0  0  0  0  0  0  0  0  0  0  0  0
  144.4572   73.1099  217.7803 H   0  0  0  0  0  0  0  0  0  0  0  0
  144.2934   74.6234  218.7192 H   0  0  0  0  0  0  0  0  0  0  0  0
  146.2544   72.3243  219.2359 H   0  0  0  0  0  0  0  0  0  0  0  0
  146.6728   73.9619  218.7059 H   0  0  0  0  0  0  0  0  0  0  0  0
  146.9566   73.9617  221.1277 H   0  0  0  0  0  0  0  0  0  0  0  0
  145.4029   74.8037  220.8412 H   0  0  0  0  0  0  0  0  0  0  0  0
  145.9550   72.2240  221.9910 H   0  0  0  0  0  0  0  0  0  0  0  0
  144.8295   71.2333  220.3079 H   0  0  0  0  0  0  0  0  0  0  0  0
  143.5318   71.7137  221.4959 H   0  0  0  0  0  0  0  0  0  0  0  0
  142.0242   71.4437  225.1983 H   0  0  0  0  0  0  0  0  0  0  0  0
  141.1278   72.9847  225.4253 H   0  0  0  0  0  0  0  0  0  0  0  0
  141.2193   71.5960  227.5359 H   0  0  0  0  0  0  0  0  0  0  0  0
  139.5573   71.8712  227.0054 H   0  0  0  0  0  0  0  0  0  0  0  0
  141.4778   69.3161  228.2846 H   0  0  0  0  0  0  0  0  0  0  0  0
  141.0967   66.9038  227.8226 H   0  0  0  0  0  0  0  0  0  0  0  0
  139.7735   66.1736  225.8774 H   0  0  0  0  0  0  0  0  0  0  0  0
  138.7729   67.8505  224.3023 H   0  0  0  0  0  0  0  0  0  0  0  0
  138.6810   70.1738  223.6362 H   0  0  0  0  0  0  0  0  0  0  0  0
  138.2053   71.1009  225.0786 H   0  0  0  0  0  0  0  0  0  0  0  0
  141.5890   75.8063  220.4563 H   0  0  0  0  0  0  0  0  0  0  0  0
  140.1526   76.5053  219.6433 H   0  0  0  0  0  0  0  0  0  0  0  0
  1  2  2  0
  2  3  1  0
  3  4  2  0
  4  5  1  0
  5  6  2  0
  5  7  1  0
  7  8  1  0
  8  9  1  0
  9 10  1  0
 10 11  2  0
 11 12  1  0
 12 13  1  0
 13 14  1  0
 14 15  1  0
 15 16  1  0
 16 17  1  0
 17 18  1  0
 18 19  1  0
 19 20  1  0
 12 21  2  0
 21 22  1  0
 22 23  1  0
 23 24  1  0
 24 25  1  0
 25 26  1  0
 26 27  2  0
 27 28  1  0
 28 29  2  0
 29 30  1  0
 30 31  2  0
 31 32  1  0
 22 33  2  0
  9 34  1  0
  6  1  1  0
 33 10  1  0
 34  4  1  0
 20 15  1  0
 32 23  1  0
 31 26  1  0
  1 35  1  0
  2 36  1  0
  3 37  1  0
  6 38  1  0
  7 39  1  0
  7 40  1  0
  8 41  1  0
  8 42  1  0
 13 43  1  0
 14 44  1  0
 14 45  1  0
 15 46  1  1
 16 47  1  0
 16 48  1  0
 17 49  1  0
 17 50  1  0
 18 51  1  0
 18 52  1  0
 19 53  1  0
 20 54  1  0
 20 55  1  0
 24 56  1  0
 24 57  1  0
 25 58  1  0
 25 59  1  0
 27 60  1  0
 28 61  1  0
 29 62  1  0
 30 63  1  0
 32 64  1  0
 32 65  1  0
 34 66  1  0
 34 67  1  0
M  END
>  <smiles>  (26) 
c1ccc2c(c1)CCN(c1nc(NCC3CCCNC3)nc(N3CCc4ccccc4C3)n1)C2

>  <score_type>  (26) 
oracle

>  <origin>  (26) 
autodockgpu

>  <m_score__min__energy>  (26) 
-10.83

>  <m_primary>  (26) 
energy

>  <rmsd>  (26) 
5.926098071685991

>  <m_score__min__rmsd>  (26) 
5.926098071685991

>  <meeko>  (26) 
{"free_energy": -9.91, "intermolecular_energy": -11.4, "internal_energy": -1.2, "cluster_size": 29, "cluster_id": 1, "rank_in_cluster": 10}

>  <energy>  (26) 
-8.9

>  <cluster_rmsd>  (26) 
1.25

>  <cluster>  (26) 
1

$$$$

     RDKit          3D

 67 72  0  0  0  0  0  0  0  0999 V2000
  140.9340   79.6570  223.0440 C   0  0  0  0  0  0  0  0  0  0  0  0
  141.9190   79.4180  222.0890 C   0  0  0  0  0  0  0  0  0  0  0  0
  141.8050   78.2980  221.2930 C   0  0  0  0  0  0  0  0  0  0  0  0
  140.7200   77.4730  221.4850 C   0  0  0  0  0  0  0  0  0  0  0  0
  139.7370   77.6810  222.4130 C   0  0  0  0  0  0  0  0  0  0  0  0
  139.8580   78.8140  223.2150 C   0  0  0  0  0  0  0  0  0  0  0  0
  138.5650   76.8230  222.6520 C   0  0  0  0  0  0  0  0  0  0  0  0
  138.4350   75.7220  221.6110 C   0  0  0  0  0  0  0  0  0  0  0  0
  139.7800   75.2630  221.2650 N   0  0  0  0  0  0  0  0  0  0  0  0
  140.1870   73.9450  221.5750 C   0  0  0  0  0  0  0  0  0  0  0  0
  140.7950   73.2500  220.5950 N   0  0  0  0  0  0  0  0  0  0  0  0
  141.1910   71.9910  220.8370 C   0  0  0  0  0  0  0  0  0  0  0  0
  141.8270   71.3200  219.7410 N   0  0  0  0  0  0  0  0  0  0  0  0
  142.7470   71.9840  218.8390 C   0  0  0  0  0  0  0  0  0  0  0  0
  144.1120   72.1190  219.5010 C   0  0  2  0  0  0  0  0  0  0  0  0
  143.9110   72.9140  220.7700 C   0  0  0  0  0  0  0  0  0  0  0  0
  144.8670   74.0840  220.7560 C   0  0  0  0  0  0  0  0  0  0  0  0
  146.2540   73.4940  220.4850 C   0  0  0  0  0  0  0  0  0  0  0  0
  146.3230   73.0980  219.1110 N   0  0  0  0  0  0  0  0  0  0  0  0
  145.0400   72.7750  218.5340 C   0  0  0  0  0  0  0  0  0  0  0  0
  140.9910   71.4190  222.0350 N   0  0  0  0  0  0  0  0  0  0  0  0
  140.3770   72.1040  223.0430 C   0  0  0  0  0  0  0  0  0  0  0  0
  140.1470   71.5190  224.3180 N   0  0  0  0  0  0  0  0  0  0  0  0
  141.0350   71.8990  225.3910 C   0  0  0  0  0  0  0  0  0  0  0  0
  140.4840   71.3830  226.7180 C   0  0  0  0  0  0  0  0  0  0  0  0
  140.3390   69.9130  226.5360 C   0  0  0  0  0  0  0  0  0  0  0  0
  140.8830   68.9990  227.4030 C   0  0  0  0  0  0  0  0  0  0  0  0
  140.6850   67.6620  227.1300 C   0  0  0  0  0  0  0  0  0  0  0  0
  139.9640   67.2450  226.0210 C   0  0  0  0  0  0  0  0  0  0  0  0
  139.4090   68.1590  225.1350 C   0  0  0  0  0  0  0  0  0  0  0  0
  139.6190   69.4900  225.4260 C   0  0  0  0  0  0  0  0  0  0  0  0
  139.0730   70.5830  224.5480 C   0  0  0  0  0  0  0  0  0  0  0  0
  139.9950   73.3580  222.7650 N   0  0  0  0  0  0  0  0  0  0  0  0
  140.6220   76.2460  220.6080 C   0  0  0  0  0  0  0  0  0  0  0  0
  141.0180   80.5484  223.6830 H   0  0  0  0  0  0  0  0  0  0  0  0
  142.7685   80.1070  221.9724 H   0  0  0  0  0  0  0  0  0  0  0  0
  142.5599   78.0701  220.5260 H   0  0  0  0  0  0  0  0  0  0  0  0
  139.0989   79.0340  223.9801 H   0  0  0  0  0  0  0  0  0  0  0  0
  138.6613   76.3610  223.6456 H   0  0  0  0  0  0  0  0  0  0  0  0
  137.6666   77.4545  222.5885 H   0  0  0  0  0  0  0  0  0  0  0  0
  137.8503   74.8863  222.0231 H   0  0  0  0  0  0  0  0  0  0  0  0
  137.9200   76.1021  220.7164 H   0  0  0  0  0  0  0  0  0  0  0  0
  141.5830   70.3120  219.6360 H   0  0  0  0  0  0  0  0  0  0  0  0
  142.8453   71.3923  217.9170 H   0  0  0  0  0  0  0  0  0  0  0  0
  142.3599   72.9850  218.5977 H   0  0  0  0  0  0  0  0  0  0  0  0
  144.5614   71.1514  219.7689 H   0  0  0  0  0  0  0  0  0  0  0  0
  142.8752   73.2811  220.8183 H   0  0  0  0  0  0  0  0  0  0  0  0
  144.1028   72.2796  221.6479 H   0  0  0  0  0  0  0  0  0  0  0  0
  144.5915   74.7929  219.9613 H   0  0  0  0  0  0  0  0  0  0  0  0
  144.8429   74.6348  221.7078 H   0  0  0  0  0  0  0  0  0  0  0  0
  147.0251   74.2508  220.6914 H   0  0  0  0  0  0  0  0  0  0  0  0
  146.4250   72.6235  221.1353 H   0  0  0  0  0  0  0  0  0  0  0  0
  146.7900   73.8500  218.5580 H   0  0  0  0  0  0  0  0  0  0  0  0
  144.5730   73.7045  218.1761 H   0  0  0  0  0  0  0  0  0  0  0  0
  145.2185   72.0622  217.7154 H   0  0  0  0  0  0  0  0  0  0  0  0
  142.0300   71.4648  225.2140 H   0  0  0  0  0  0  0  0  0  0  0  0
  141.1136   72.9955  225.4295 H   0  0  0  0  0  0  0  0  0  0  0  0
  141.1838   71.6029  227.5377 H   0  0  0  0  0  0  0  0  0  0  0  0
  139.5283   71.8608  226.9796 H   0  0  0  0  0  0  0  0  0  0  0  0
  141.4566   69.3215  228.2845 H   0  0  0  0  0  0  0  0  0  0  0  0
  141.1094   66.9074  227.8086 H   0  0  0  0  0  0  0  0  0  0  0  0
  139.8291   66.1685  225.8396 H   0  0  0  0  0  0  0  0  0  0  0  0
  138.8353   67.8396  224.2525 H   0  0  0  0  0  0  0  0  0  0  0  0
  138.7281   70.1621  223.5920 H   0  0  0  0  0  0  0  0  0  0  0  0
  138.2169   71.0797  225.0280 H   0  0  0  0  0  0  0  0  0  0  0  0
  141.6257   75.8249  220.4490 H   0  0  0  0  0  0  0  0  0  0  0  0
  140.1869   76.5178  219.6350 H   0  0  0  0  0  0  0  0  0  0  0  0
  1  2  2  0
  2  3  1  0
  3  4  2  0
  4  5  1  0
  5  6  2  0
  5  7  1  0
  7  8  1  0
  8  9  1  0
  9 10  1  0
 10 11  2  0
 11 12  1  0
 12 13  1  0
 13 14  1  0
 14 15  1  0
 15 16  1  0
 16 17  1  0
 17 18  1  0
 18 19  1  0
 19 20  1  0
 12 21  2  0
 21 22  1  0
 22 23  1  0
 23 24  1  0
 24 25  1  0
 25 26  1  0
 26 27  2  0
 27 28  1  0
 28 29  2  0
 29 30  1  0
 30 31  2  0
 31 32  1  0
 22 33  2  0
  9 34  1  0
  6  1  1  0
 33 10  1  0
 34  4  1  0
 20 15  1  0
 32 23  1  0
 31 26  1  0
  1 35  1  0
  2 36  1  0
  3 37  1  0
  6 38  1  0
  7 39  1  0
  7 40  1  0
  8 41  1  0
  8 42  1  0
 13 43  1  0
 14 44  1  0
 14 45  1  0
 15 46  1  1
 16 47  1  0
 16 48  1  0
 17 49  1  0
 17 50  1  0
 18 51  1  0
 18 52  1  0
 19 53  1  0
 20 54  1  0
 20 55  1  0
 24 56  1  0
 24 57  1  0
 25 58  1  0
 25 59  1  0
 27 60  1  0
 28 61  1  0
 29 62  1  0
 30 63  1  0
 32 64  1  0
 32 65  1  0
 34 66  1  0
 34 67  1  0
M  END
>  <smiles>  (27) 
c1ccc2c(c1)CCN(c1nc(NCC3CCCNC3)nc(N3CCc4ccccc4C3)n1)C2

>  <score_type>  (27) 
oracle

>  <origin>  (27) 
autodockgpu

>  <m_score__min__energy>  (27) 
-10.83

>  <m_primary>  (27) 
energy

>  <rmsd>  (27) 
6.03599123866709

>  <m_score__min__rmsd>  (27) 
6.03599123866709

>  <meeko>  (27) 
{"free_energy": -10.73, "intermolecular_energy": -12.22, "internal_energy": -1.04, "cluster_size": 29, "cluster_id": 1, "rank_in_cluster": 2}

>  <energy>  (27) 
-8.88

>  <cluster_rmsd>  (27) 
1.06

>  <cluster>  (27) 
1

$$$$

     RDKit          3D

 67 72  0  0  0  0  0  0  0  0999 V2000
  140.3800   67.3950  226.0690 C   0  0  0  0  0  0  0  0  0  0  0  0
  141.1350   68.3030  226.8070 C   0  0  0  0  0  0  0  0  0  0  0  0
  141.0710   69.6390  226.4700 C   0  0  0  0  0  0  0  0  0  0  0  0
  140.2620   70.0040  225.4180 C   0  0  0  0  0  0  0  0  0  0  0  0
  139.5080   69.1360  224.6750 C   0  0  0  0  0  0  0  0  0  0  0  0
  139.5780   67.7880  225.0210 C   0  0  0  0  0  0  0  0  0  0  0  0
  138.6340   69.4850  223.5440 C   0  0  0  0  0  0  0  0  0  0  0  0
  138.4940   70.9890  223.3680 C   0  0  0  0  0  0  0  0  0  0  0  0
  139.7810   71.6070  223.6810 N   0  0  0  0  0  0  0  0  0  0  0  0
  140.5180   72.2740  222.6760 C   0  0  0  0  0  0  0  0  0  0  0  0
  141.4500   71.5520  222.0260 N   0  0  0  0  0  0  0  0  0  0  0  0
  142.1830   72.1430  221.0700 C   0  0  0  0  0  0  0  0  0  0  0  0
  143.1560   71.3070  220.4280 N   0  0  0  0  0  0  0  0  0  0  0  0
  143.5830   71.5070  219.0580 C   0  0  0  0  0  0  0  0  0  0  0  0
  144.2950   70.2600  218.5520 C   0  0  2  0  0  0  0  0  0  0  0  0
  143.7130   69.0830  219.3010 C   0  0  0  0  0  0  0  0  0  0  0  0
  144.8470   68.3110  219.9320 C   0  0  0  0  0  0  0  0  0  0  0  0
  145.8440   68.0270  218.8050 C   0  0  0  0  0  0  0  0  0  0  0  0
  146.5230   69.2440  218.4760 N   0  0  0  0  0  0  0  0  0  0  0  0
  145.7610   70.4330  218.7730 C   0  0  0  0  0  0  0  0  0  0  0  0
  142.0010   73.4350  220.7540 N   0  0  0  0  0  0  0  0  0  0  0  0
  141.0610   74.1860  221.4000 C   0  0  0  0  0  0  0  0  0  0  0  0
  140.8530   75.5570  221.0900 N   0  0  0  0  0  0  0  0  0  0  0  0
  141.4180   76.0520  219.8570 C   0  0  0  0  0  0  0  0  0  0  0  0
  140.8800   77.4510  219.5720 C   0  0  0  0  0  0  0  0  0  0  0  0
  141.2330   78.2580  220.7710 C   0  0  0  0  0  0  0  0  0  0  0  0
  141.9110   79.4480  220.6940 C   0  0  0  0  0  0  0  0  0  0  0  0
  142.1850   80.1060  221.8740 C   0  0  0  0  0  0  0  0  0  0  0  0
  141.7930   79.5920  223.1020 C   0  0  0  0  0  0  0  0  0  0  0  0
  141.1070   78.3880  223.1940 C   0  0  0  0  0  0  0  0  0  0  0  0
  140.8440   77.7470  222.0030 C   0  0  0  0  0  0  0  0  0  0  0  0
  140.1090   76.4340  221.9610 C   0  0  0  0  0  0  0  0  0  0  0  0
  140.3490   73.5640  222.3480 N   0  0  0  0  0  0  0  0  0  0  0  0
  140.2160   71.4720  225.0600 C   0  0  0  0  0  0  0  0  0  0  0  0
  140.4259   66.3279  226.3321 H   0  0  0  0  0  0  0  0  0  0  0  0
  141.7680   67.9626  227.6397 H   0  0  0  0  0  0  0  0  0  0  0  0
  141.6499   70.3911  227.0260 H   0  0  0  0  0  0  0  0  0  0  0  0
  138.9958   67.0420  224.4601 H   0  0  0  0  0  0  0  0  0  0  0  0
  139.0591   69.0588  222.6233 H   0  0  0  0  0  0  0  0  0  0  0  0
  137.6345   69.0751  223.7511 H   0  0  0  0  0  0  0  0  0  0  0  0
  138.2138   71.2179  222.3292 H   0  0  0  0  0  0  0  0  0  0  0  0
  137.7126   71.3788  224.0369 H   0  0  0  0  0  0  0  0  0  0  0  0
  143.5400   70.5400  221.0190 H   0  0  0  0  0  0  0  0  0  0  0  0
  142.7043   71.7070  218.4272 H   0  0  0  0  0  0  0  0  0  0  0  0
  144.2734   72.3622  219.0141 H   0  0  0  0  0  0  0  0  0  0  0  0
  144.1521   70.0875  217.4751 H   0  0  0  0  0  0  0  0  0  0  0  0
  143.0280   69.4424  220.0830 H   0  0  0  0  0  0  0  0  0  0  0  0
  143.1533   68.4351  218.6103 H   0  0  0  0  0  0  0  0  0  0  0  0
  145.3238   68.9098  220.7220 H   0  0  0  0  0  0  0  0  0  0  0  0
  144.4903   67.3805  220.3979 H   0  0  0  0  0  0  0  0  0  0  0  0
  146.5738   67.2740  219.1373 H   0  0  0  0  0  0  0  0  0  0  0  0
  145.3123   67.6436  217.9217 H   0  0  0  0  0  0  0  0  0  0  0  0
  147.4430   69.2710  218.9690 H   0  0  0  0  0  0  0  0  0  0  0  0
  145.9269   70.7008  219.8269 H   0  0  0  0  0  0  0  0  0  0  0  0
  146.1048   71.2222  218.0882 H   0  0  0  0  0  0  0  0  0  0  0  0
  142.5136   76.0925  219.9468 H   0  0  0  0  0  0  0  0  0  0  0  0
  141.1404   75.3792  219.0322 H   0  0  0  0  0  0  0  0  0  0  0  0
  141.3537   77.8702  218.6721 H   0  0  0  0  0  0  0  0  0  0  0  0
  139.7958   77.4440  219.3865 H   0  0  0  0  0  0  0  0  0  0  0  0
  142.2250   79.8626  219.7247 H   0  0  0  0  0  0  0  0  0  0  0  0
  142.7278   81.0622  221.8414 H   0  0  0  0  0  0  0  0  0  0  0  0
  142.0303   80.1491  224.0204 H   0  0  0  0  0  0  0  0  0  0  0  0
  140.7919   77.9703  224.1616 H   0  0  0  0  0  0  0  0  0  0  0  0
  140.0510   76.0019  222.9709 H   0  0  0  0  0  0  0  0  0  0  0  0
  139.0822   76.5726  221.5915 H   0  0  0  0  0  0  0  0  0  0  0  0
  141.2176   71.9118  225.1759 H   0  0  0  0  0  0  0  0  0  0  0  0
  139.5136   71.9958  225.7251 H   0  0  0  0  0  0  0  0  0  0  0  0
  1  2  2  0
  2  3  1  0
  3  4  2  0
  4  5  1  0
  5  6  2  0
  5  7  1  0
  7  8  1  0
  8  9  1  0
  9 10  1  0
 10 11  2  0
 11 12  1  0
 12 13  1  0
 13 14  1  0
 14 15  1  0
 15 16  1  0
 16 17  1  0
 17 18  1  0
 18 19  1  0
 19 20  1  0
 12 21  2  0
 21 22  1  0
 22 23  1  0
 23 24  1  0
 24 25  1  0
 25 26  1  0
 26 27  2  0
 27 28  1  0
 28 29  2  0
 29 30  1  0
 30 31  2  0
 31 32  1  0
 22 33  2  0
  9 34  1  0
  6  1  1  0
 33 10  1  0
 34  4  1  0
 20 15  1  0
 32 23  1  0
 31 26  1  0
  1 35  1  0
  2 36  1  0
  3 37  1  0
  6 38  1  0
  7 39  1  0
  7 40  1  0
  8 41  1  0
  8 42  1  0
 13 43  1  0
 14 44  1  0
 14 45  1  0
 15 46  1  6
 16 47  1  0
 16 48  1  0
 17 49  1  0
 17 50  1  0
 18 51  1  0
 18 52  1  0
 19 53  1  0
 20 54  1  0
 20 55  1  0
 24 56  1  0
 24 57  1  0
 25 58  1  0
 25 59  1  0
 27 60  1  0
 28 61  1  0
 29 62  1  0
 30 63  1  0
 32 64  1  0
 32 65  1  0
 34 66  1  0
 34 67  1  0
M  END
>  <smiles>  (28) 
c1ccc2c(c1)CCN(c1nc(NCC3CCCNC3)nc(N3CCc4ccccc4C3)n1)C2

>  <score_type>  (28) 
oracle

>  <origin>  (28) 
autodockgpu

>  <m_score__min__energy>  (28) 
-10.83

>  <m_primary>  (28) 
energy

>  <rmsd>  (28) 
8.39087554655558

>  <m_score__min__rmsd>  (28) 
8.39087554655558

>  <meeko>  (28) 
{"free_energy": -9.62, "intermolecular_energy": -11.11, "internal_energy": -0.92, "cluster_size": 29, "cluster_id": 1, "rank_in_cluster": 14}

>  <energy>  (28) 
-8.84

>  <cluster_rmsd>  (28) 
1.26

>  <cluster>  (28) 
1

$$$$

     RDKit          3D

 67 72  0  0  0  0  0  0  0  0999 V2000
  140.3520   67.4690  226.3930 C   0  0  0  0  0  0  0  0  0  0  0  0
  141.0000   68.4520  227.1360 C   0  0  0  0  0  0  0  0  0  0  0  0
  140.8590   69.7680  226.7500 C   0  0  0  0  0  0  0  0  0  0  0  0
  140.0840   70.0410  225.6460 C   0  0  0  0  0  0  0  0  0  0  0  0
  139.4350   69.0970  224.8960 C   0  0  0  0  0  0  0  0  0  0  0  0
  139.5810   67.7690  225.2920 C   0  0  0  0  0  0  0  0  0  0  0  0
  138.6000   69.3460  223.7100 C   0  0  0  0  0  0  0  0  0  0  0  0
  138.3620   70.8300  223.4740 C   0  0  0  0  0  0  0  0  0  0  0  0
  139.5830   71.5490  223.8320 N   0  0  0  0  0  0  0  0  0  0  0  0
  140.3230   72.2360  222.8420 C   0  0  0  0  0  0  0  0  0  0  0  0
  141.2410   71.5210  222.1640 N   0  0  0  0  0  0  0  0  0  0  0  0
  141.9760   72.1310  221.2220 C   0  0  0  0  0  0  0  0  0  0  0  0
  142.9330   71.3010  220.5480 N   0  0  0  0  0  0  0  0  0  0  0  0
  144.1490   71.8230  219.9580 C   0  0  0  0  0  0  0  0  0  0  0  0
  143.8080   72.6870  218.7520 C   0  0  2  0  0  0  0  0  0  0  0  0
  144.6220   72.1650  217.5900 C   0  0  0  0  0  0  0  0  0  0  0  0
  145.3950   73.3180  216.9930 C   0  0  0  0  0  0  0  0  0  0  0  0
  144.3680   74.4200  216.7180 C   0  0  0  0  0  0  0  0  0  0  0  0
  143.9740   75.0010  217.9660 N   0  0  0  0  0  0  0  0  0  0  0  0
  144.1100   74.1090  219.0920 C   0  0  0  0  0  0  0  0  0  0  0  0
  141.8110   73.4340  220.9480 N   0  0  0  0  0  0  0  0  0  0  0  0
  140.8870   74.1790  221.6230 C   0  0  0  0  0  0  0  0  0  0  0  0
  140.6970   75.5620  221.3570 N   0  0  0  0  0  0  0  0  0  0  0  0
  141.1180   76.0530  220.0660 C   0  0  0  0  0  0  0  0  0  0  0  0
  140.6060   77.4770  219.8670 C   0  0  0  0  0  0  0  0  0  0  0  0
  141.1430   78.2500  221.0200 C   0  0  0  0  0  0  0  0  0  0  0  0
  141.8530   79.4140  220.8690 C   0  0  0  0  0  0  0  0  0  0  0  0
  142.3030   80.0420  222.0110 C   0  0  0  0  0  0  0  0  0  0  0  0
  142.0510   79.5240  223.2730 C   0  0  0  0  0  0  0  0  0  0  0  0
  141.3340   78.3470  223.4400 C   0  0  0  0  0  0  0  0  0  0  0  0
  140.8940   77.7360  222.2860 C   0  0  0  0  0  0  0  0  0  0  0  0
  140.1070   76.4540  222.3250 C   0  0  0  0  0  0  0  0  0  0  0  0
  140.1720   73.5380  222.5560 N   0  0  0  0  0  0  0  0  0  0  0  0
  139.9520   71.4890  225.2350 C   0  0  0  0  0  0  0  0  0  0  0  0
  140.4595   66.4169  226.6956 H   0  0  0  0  0  0  0  0  0  0  0  0
  141.6106   68.1848  228.0111 H   0  0  0  0  0  0  0  0  0  0  0  0
  141.3521   70.5771  227.3088 H   0  0  0  0  0  0  0  0  0  0  0  0
  139.0837   66.9655  224.7289 H   0  0  0  0  0  0  0  0  0  0  0  0
  139.1033   68.9236  222.8278 H   0  0  0  0  0  0  0  0  0  0  0  0
  137.6226   68.8709  223.8802 H   0  0  0  0  0  0  0  0  0  0  0  0
  138.1232   71.0053  222.4146 H   0  0  0  0  0  0  0  0  0  0  0  0
  137.5190   71.1826  224.0865 H   0  0  0  0  0  0  0  0  0  0  0  0
  142.6930   70.2880  220.5120 H   0  0  0  0  0  0  0  0  0  0  0  0
  144.6845   72.4304  220.7025 H   0  0  0  0  0  0  0  0  0  0  0  0
  144.7849   70.9852  219.6361 H   0  0  0  0  0  0  0  0  0  0  0  0
  142.7444   72.6433  218.4749 H   0  0  0  0  0  0  0  0  0  0  0  0
  145.3209   71.3925  217.9433 H   0  0  0  0  0  0  0  0  0  0  0  0
  143.9586   71.7223  216.8325 H   0  0  0  0  0  0  0  0  0  0  0  0
  146.1571   73.6745  217.7017 H   0  0  0  0  0  0  0  0  0  0  0  0
  145.9186   73.0178  216.0734 H   0  0  0  0  0  0  0  0  0  0  0  0
  144.8163   75.1920  216.0753 H   0  0  0  0  0  0  0  0  0  0  0  0
  143.4904   73.9962  216.2078 H   0  0  0  0  0  0  0  0  0  0  0  0
  144.5230   75.8750  218.1270 H   0  0  0  0  0  0  0  0  0  0  0  0
  145.1439   74.1684  219.4629 H   0  0  0  0  0  0  0  0  0  0  0  0
  143.3811   74.4266  219.8521 H   0  0  0  0  0  0  0  0  0  0  0  0
  142.2167   76.0485  220.0133 H   0  0  0  0  0  0  0  0  0  0  0  0
  140.7084   75.4044  219.2776 H   0  0  0  0  0  0  0  0  0  0  0  0
  140.9777   77.8914  218.9182 H   0  0  0  0  0  0  0  0  0  0  0  0
  139.5076   77.5162  219.8218 H   0  0  0  0  0  0  0  0  0  0  0  0
  142.0562   79.8317  219.8719 H   0  0  0  0  0  0  0  0  0  0  0  0
  142.8758   80.9766  221.9192 H   0  0  0  0  0  0  0  0  0  0  0  0
  142.4268   80.0565  224.1591 H   0  0  0  0  0  0  0  0  0  0  0  0
  141.1291   77.9266  224.4356 H   0  0  0  0  0  0  0  0  0  0  0  0
  140.1609   76.0091  223.3295 H   0  0  0  0  0  0  0  0  0  0  0  0
  139.0480   76.6385  222.0916 H   0  0  0  0  0  0  0  0  0  0  0  0
  140.9118   72.0046  225.3865 H   0  0  0  0  0  0  0  0  0  0  0  0
  139.1790   71.9799  225.8445 H   0  0  0  0  0  0  0  0  0  0  0  0
  1  2  2  0
  2  3  1  0
  3  4  2  0
  4  5  1  0
  5  6  2  0
  5  7  1  0
  7  8  1  0
  8  9  1  0
  9 10  1  0
 10 11  2  0
 11 12  1  0
 12 13  1  0
 13 14  1  0
 14 15  1  0
 15 16  1  0
 16 17  1  0
 17 18  1  0
 18 19  1  0
 19 20  1  0
 12 21  2  0
 21 22  1  0
 22 23  1  0
 23 24  1  0
 24 25  1  0
 25 26  1  0
 26 27  2  0
 27 28  1  0
 28 29  2  0
 29 30  1  0
 30 31  2  0
 31 32  1  0
 22 33  2  0
  9 34  1  0
  6  1  1  0
 33 10  1  0
 34  4  1  0
 20 15  1  0
 32 23  1  0
 31 26  1  0
  1 35  1  0
  2 36  1  0
  3 37  1  0
  6 38  1  0
  7 39  1  0
  7 40  1  0
  8 41  1  0
  8 42  1  0
 13 43  1  0
 14 44  1  0
 14 45  1  0
 15 46  1  6
 16 47  1  0
 16 48  1  0
 17 49  1  0
 17 50  1  0
 18 51  1  0
 18 52  1  0
 19 53  1  0
 20 54  1  0
 20 55  1  0
 24 56  1  0
 24 57  1  0
 25 58  1  0
 25 59  1  0
 27 60  1  0
 28 61  1  0
 29 62  1  0
 30 63  1  0
 32 64  1  0
 32 65  1  0
 34 66  1  0
 34 67  1  0
M  END
>  <smiles>  (29) 
c1ccc2c(c1)CCN(c1nc(NCC3CCCNC3)nc(N3CCc4ccccc4C3)n1)C2

>  <score_type>  (29) 
oracle

>  <origin>  (29) 
autodockgpu

>  <m_score__min__energy>  (29) 
-10.83

>  <m_primary>  (29) 
energy

>  <rmsd>  (29) 
6.0814298966101

>  <m_score__min__rmsd>  (29) 
6.0814298966101

>  <meeko>  (29) 
{"free_energy": -9.19, "intermolecular_energy": -10.68, "internal_energy": -1.19, "cluster_size": 29, "cluster_id": 1, "rank_in_cluster": 20}

>  <energy>  (29) 
-8.75

>  <cluster_rmsd>  (29) 
1.57

>  <cluster>  (29) 
1

$$$$

     RDKit          3D

 67 72  0  0  0  0  0  0  0  0999 V2000
  140.1680   67.5790  226.1060 C   0  0  0  0  0  0  0  0  0  0  0  0
  141.1690   68.3760  226.6560 C   0  0  0  0  0  0  0  0  0  0  0  0
  141.2210   69.7070  226.2980 C   0  0  0  0  0  0  0  0  0  0  0  0
  140.2780   70.1780  225.4140 C   0  0  0  0  0  0  0  0  0  0  0  0
  139.2830   69.4210  224.8580 C   0  0  0  0  0  0  0  0  0  0  0  0
  139.2360   68.0770  225.2230 C   0  0  0  0  0  0  0  0  0  0  0  0
  138.2590   69.8850  223.9080 C   0  0  0  0  0  0  0  0  0  0  0  0
  138.2900   71.3940  223.7190 C   0  0  0  0  0  0  0  0  0  0  0  0
  139.6860   71.8290  223.7580 N   0  0  0  0  0  0  0  0  0  0  0  0
  140.2940   72.3850  222.6090 C   0  0  0  0  0  0  0  0  0  0  0  0
  140.8720   71.5230  221.7500 N   0  0  0  0  0  0  0  0  0  0  0  0
  141.4710   72.0040  220.6500 C   0  0  0  0  0  0  0  0  0  0  0  0
  142.0650   71.0220  219.7890 N   0  0  0  0  0  0  0  0  0  0  0  0
  143.0070   71.3630  218.7410 C   0  0  0  0  0  0  0  0  0  0  0  0
  144.3880   71.5860  219.3430 C   0  0  2  0  0  0  0  0  0  0  0  0
  144.1870   71.8990  220.8070 C   0  0  0  0  0  0  0  0  0  0  0  0
  144.8920   73.1980  221.1190 C   0  0  0  0  0  0  0  0  0  0  0  0
  146.3260   73.0350  220.6060 C   0  0  0  0  0  0  0  0  0  0  0  0
  146.3100   73.0960  219.1750 N   0  0  0  0  0  0  0  0  0  0  0  0
  145.0550   72.6900  218.5900 C   0  0  0  0  0  0  0  0  0  0  0  0
  141.5020   73.3210  220.3950 N   0  0  0  0  0  0  0  0  0  0  0  0
  140.9230   74.2130  221.2510 C   0  0  0  0  0  0  0  0  0  0  0  0
  140.9470   75.6120  221.0090 N   0  0  0  0  0  0  0  0  0  0  0  0
  142.0770   76.1390  220.2800 C   0  0  0  0  0  0  0  0  0  0  0  0
  141.8060   77.5910  219.8950 C   0  0  0  0  0  0  0  0  0  0  0  0
  141.5280   78.2910  221.1790 C   0  0  0  0  0  0  0  0  0  0  0  0
  142.1910   79.4280  221.5650 C   0  0  0  0  0  0  0  0  0  0  0  0
  141.8490   79.9870  222.7780 C   0  0  0  0  0  0  0  0  0  0  0  0
  140.8710   79.4270  223.5870 C   0  0  0  0  0  0  0  0  0  0  0  0
  140.1930   78.2760  223.2090 C   0  0  0  0  0  0  0  0  0  0  0  0
  140.5500   77.7340  221.9930 C   0  0  0  0  0  0  0  0  0  0  0  0
  139.8940   76.4870  221.4640 C   0  0  0  0  0  0  0  0  0  0  0  0
  140.3340   73.6980  222.3390 N   0  0  0  0  0  0  0  0  0  0  0  0
  140.3610   71.6370  225.0290 C   0  0  0  0  0  0  0  0  0  0  0  0
  140.1203   66.5164  226.3863 H   0  0  0  0  0  0  0  0  0  0  0  0
  141.9014   67.9537  227.3598 H   0  0  0  0  0  0  0  0  0  0  0  0
  141.9946   70.3731  226.7078 H   0  0  0  0  0  0  0  0  0  0  0  0
  138.4591   67.4179  224.8083 H   0  0  0  0  0  0  0  0  0  0  0  0
  138.4344   69.4027  222.9350 H   0  0  0  0  0  0  0  0  0  0  0  0
  137.2737   69.6167  224.3169 H   0  0  0  0  0  0  0  0  0  0  0  0
  137.8445   71.6573  222.7483 H   0  0  0  0  0  0  0  0  0  0  0  0
  137.7144   71.8893  224.5148 H   0  0  0  0  0  0  0  0  0  0  0  0
  141.7720   70.0390  219.9690 H   0  0  0  0  0  0  0  0  0  0  0  0
  143.0549   70.5414  218.0112 H   0  0  0  0  0  0  0  0  0  0  0  0
  142.6756   72.2844  218.2397 H   0  0  0  0  0  0  0  0  0  0  0  0
  145.0417   70.7046  219.2662 H   0  0  0  0  0  0  0  0  0  0  0  0
  143.1127   71.9988  221.0213 H   0  0  0  0  0  0  0  0  0  0  0  0
  144.5980   71.0881  221.4263 H   0  0  0  0  0  0  0  0  0  0  0  0
  144.3955   74.0349  220.6060 H   0  0  0  0  0  0  0  0  0  0  0  0
  144.8726   73.4178  222.1966 H   0  0  0  0  0  0  0  0  0  0  0  0
  146.9561   73.8440  221.0042 H   0  0  0  0  0  0  0  0  0  0  0  0
  146.7353   72.0688  220.9360 H   0  0  0  0  0  0  0  0  0  0  0  0
  146.5570   74.0620  218.8680 H   0  0  0  0  0  0  0  0  0  0  0  0
  144.3802   73.5585  218.5711 H   0  0  0  0  0  0  0  0  0  0  0  0
  145.2705   72.3141  217.5789 H   0  0  0  0  0  0  0  0  0  0  0  0
  142.9758   76.0895  220.9122 H   0  0  0  0  0  0  0  0  0  0  0  0
  142.2342   75.5428  219.3690 H   0  0  0  0  0  0  0  0  0  0  0  0
  142.6850   78.0290  219.3996 H   0  0  0  0  0  0  0  0  0  0  0  0
  140.9669   77.6790  219.1892 H   0  0  0  0  0  0  0  0  0  0  0  0
  142.9679   79.8778  220.9294 H   0  0  0  0  0  0  0  0  0  0  0  0
  142.3643   80.8995  223.1125 H   0  0  0  0  0  0  0  0  0  0  0  0
  140.6278   79.9047  224.5476 H   0  0  0  0  0  0  0  0  0  0  0  0
  139.4164   77.8231  223.8428 H   0  0  0  0  0  0  0  0  0  0  0  0
  139.3157   75.9978  222.2617 H   0  0  0  0  0  0  0  0  0  0  0  0
  139.2032   76.7273  220.6424 H   0  0  0  0  0  0  0  0  0  0  0  0
  141.4159   71.9343  224.9351 H   0  0  0  0  0  0  0  0  0  0  0  0
  139.8799   72.2537  225.8025 H   0  0  0  0  0  0  0  0  0  0  0  0
  1  2  2  0
  2  3  1  0
  3  4  2  0
  4  5  1  0
  5  6  2  0
  5  7  1  0
  7  8  1  0
  8  9  1  0
  9 10  1  0
 10 11  2  0
 11 12  1  0
 12 13  1  0
 13 14  1  0
 14 15  1  0
 15 16  1  0
 16 17  1  0
 17 18  1  0
 18 19  1  0
 19 20  1  0
 12 21  2  0
 21 22  1  0
 22 23  1  0
 23 24  1  0
 24 25  1  0
 25 26  1  0
 26 27  2  0
 27 28  1  0
 28 29  2  0
 29 30  1  0
 30 31  2  0
 31 32  1  0
 22 33  2  0
  9 34  1  0
  6  1  1  0
 33 10  1  0
 34  4  1  0
 20 15  1  0
 32 23  1  0
 31 26  1  0
  1 35  1  0
  2 36  1  0
  3 37  1  0
  6 38  1  0
  7 39  1  0
  7 40  1  0
  8 41  1  0
  8 42  1  0
 13 43  1  0
 14 44  1  0
 14 45  1  0
 15 46  1  1
 16 47  1  0
 16 48  1  0
 17 49  1  0
 17 50  1  0
 18 51  1  0
 18 52  1  0
 19 53  1  0
 20 54  1  0
 20 55  1  0
 24 56  1  0
 24 57  1  0
 25 58  1  0
 25 59  1  0
 27 60  1  0
 28 61  1  0
 29 62  1  0
 30 63  1  0
 32 64  1  0
 32 65  1  0
 34 66  1  0
 34 67  1  0
M  END
>  <smiles>  (30) 
c1ccc2c(c1)CCN(c1nc(NCC3CCCNC3)nc(N3CCc4ccccc4C3)n1)C2

>  <score_type>  (30) 
oracle

>  <origin>  (30) 
autodockgpu

>  <m_score__min__energy>  (30) 
-10.83

>  <m_primary>  (30) 
energy

>  <rmsd>  (30) 
6.420891681227439

>  <m_score__min__rmsd>  (30) 
6.420891681227439

>  <meeko>  (30) 
{"free_energy": -10.48, "intermolecular_energy": -11.97, "internal_energy": -0.82, "cluster_size": 29, "cluster_id": 1, "rank_in_cluster": 6}

>  <energy>  (30) 
-9.92

>  <cluster_rmsd>  (30) 
0.0

>  <cluster>  (30) 
2

$$$$

     RDKit          3D

 67 72  0  0  0  0  0  0  0  0999 V2000
  140.1990   67.4800  226.4650 C   0  0  0  0  0  0  0  0  0  0  0  0
  141.0810   68.3850  227.0510 C   0  0  0  0  0  0  0  0  0  0  0  0
  141.0360   69.7030  226.6470 C   0  0  0  0  0  0  0  0  0  0  0  0
  140.1180   70.0550  225.6840 C   0  0  0  0  0  0  0  0  0  0  0  0
  139.2380   69.1900  225.0910 C   0  0  0  0  0  0  0  0  0  0  0  0
  139.2900   67.8600  225.5030 C   0  0  0  0  0  0  0  0  0  0  0  0
  138.2450   69.5250  224.0580 C   0  0  0  0  0  0  0  0  0  0  0  0
  138.1510   71.0240  223.8130 C   0  0  0  0  0  0  0  0  0  0  0  0
  139.4950   71.5890  223.9300 N   0  0  0  0  0  0  0  0  0  0  0  0
  140.1280   72.1640  222.8050 C   0  0  0  0  0  0  0  0  0  0  0  0
  140.8290   71.3320  222.0110 N   0  0  0  0  0  0  0  0  0  0  0  0
  141.4570   71.8320  220.9360 C   0  0  0  0  0  0  0  0  0  0  0  0
  142.1830   70.8810  220.1440 N   0  0  0  0  0  0  0  0  0  0  0  0
  142.9880   71.2610  219.0000 C   0  0  0  0  0  0  0  0  0  0  0  0
  144.3860   71.6500  219.4590 C   0  0  2  0  0  0  0  0  0  0  0  0
  144.2480   72.2470  220.8410 C   0  0  0  0  0  0  0  0  0  0  0  0
  144.9080   73.6060  220.8420 C   0  0  0  0  0  0  0  0  0  0  0  0
  146.3190   73.3920  220.2860 C   0  0  0  0  0  0  0  0  0  0  0  0
  146.2250   73.1600  218.8760 N   0  0  0  0  0  0  0  0  0  0  0  0
  144.9610   72.6010  218.4610 C   0  0  0  0  0  0  0  0  0  0  0  0
  141.3970   73.1400  220.6420 N   0  0  0  0  0  0  0  0  0  0  0  0
  140.6930   74.0020  221.4330 C   0  0  0  0  0  0  0  0  0  0  0  0
  140.6200   75.3920  221.1480 N   0  0  0  0  0  0  0  0  0  0  0  0
  141.8040   76.0240  220.6160 C   0  0  0  0  0  0  0  0  0  0  0  0
  141.4630   77.4320  220.1370 C   0  0  0  0  0  0  0  0  0  0  0  0
  140.8850   78.1200  221.3240 C   0  0  0  0  0  0  0  0  0  0  0  0
  141.3470   79.3270  221.7820 C   0  0  0  0  0  0  0  0  0  0  0  0
  140.7340   79.8670  222.8930 C   0  0  0  0  0  0  0  0  0  0  0  0
  139.6870   79.2200  223.5330 C   0  0  0  0  0  0  0  0  0  0  0  0
  139.2100   77.9970  223.0800 C   0  0  0  0  0  0  0  0  0  0  0  0
  139.8360   77.4760  221.9680 C   0  0  0  0  0  0  0  0  0  0  0  0
  139.4180   76.1580  221.3750 C   0  0  0  0  0  0  0  0  0  0  0  0
  140.0790   73.4680  222.4970 N   0  0  0  0  0  0  0  0  0  0  0  0
  140.0930   71.5020  225.2500 C   0  0  0  0  0  0  0  0  0  0  0  0
  140.2297   66.4269  226.7812 H   0  0  0  0  0  0  0  0  0  0  0  0
  141.7971   68.0560  227.8185 H   0  0  0  0  0  0  0  0  0  0  0  0
  141.7145   70.4515  227.0821 H   0  0  0  0  0  0  0  0  0  0  0  0
  138.6085   67.1175  225.0622 H   0  0  0  0  0  0  0  0  0  0  0  0
  138.5312   69.0301  223.1182 H   0  0  0  0  0  0  0  0  0  0  0  0
  137.2622   69.1790  224.4106 H   0  0  0  0  0  0  0  0  0  0  0  0
  137.7537   71.2128  222.8048 H   0  0  0  0  0  0  0  0  0  0  0  0
  137.4771   71.4886  224.5479 H   0  0  0  0  0  0  0  0  0  0  0  0
  142.0950   69.8890  220.4500 H   0  0  0  0  0  0  0  0  0  0  0  0
  143.0554   70.4126  218.3031 H   0  0  0  0  0  0  0  0  0  0  0  0
  142.5197   72.1191  218.4956 H   0  0  0  0  0  0  0  0  0  0  0  0
  145.0748   70.7946  219.5203 H   0  0  0  0  0  0  0  0  0  0  0  0
  143.1830   72.3511  221.0960 H   0  0  0  0  0  0  0  0  0  0  0  0
  144.7278   71.5935  221.5844 H   0  0  0  0  0  0  0  0  0  0  0  0
  144.3472   74.3035  220.2025 H   0  0  0  0  0  0  0  0  0  0  0  0
  144.9352   74.0393  221.8527 H   0  0  0  0  0  0  0  0  0  0  0  0
  146.9309   74.2865  220.4742 H   0  0  0  0  0  0  0  0  0  0  0  0
  146.7894   72.5280  220.7781 H   0  0  0  0  0  0  0  0  0  0  0  0
  146.4100   74.0530  218.3660 H   0  0  0  0  0  0  0  0  0  0  0  0
  144.2469   73.4239  218.3095 H   0  0  0  0  0  0  0  0  0  0  0  0
  145.1402   72.0360  217.5344 H   0  0  0  0  0  0  0  0  0  0  0  0
  142.5725   76.0807  221.4010 H   0  0  0  0  0  0  0  0  0  0  0  0
  142.1840   75.4329  219.7697 H   0  0  0  0  0  0  0  0  0  0  0  0
  142.3691   77.9523  219.7931 H   0  0  0  0  0  0  0  0  0  0  0  0
  140.7629   77.4189  219.2886 H   0  0  0  0  0  0  0  0  0  0  0  0
  142.1773   79.8462  221.2809 H   0  0  0  0  0  0  0  0  0  0  0  0
  141.0839   80.8348  223.2814 H   0  0  0  0  0  0  0  0  0  0  0  0
  139.2255   79.6849  224.4167 H   0  0  0  0  0  0  0  0  0  0  0  0
  138.3809   77.4745  223.5795 H   0  0  0  0  0  0  0  0  0  0  0  0
  138.7566   75.6235  222.0728 H   0  0  0  0  0  0  0  0  0  0  0  0
  138.8681   76.3097  220.4345 H   0  0  0  0  0  0  0  0  0  0  0  0
  141.1199   71.8948  225.2163 H   0  0  0  0  0  0  0  0  0  0  0  0
  139.5033   72.0944  225.9650 H   0  0  0  0  0  0  0  0  0  0  0  0
  1  2  2  0
  2  3  1  0
  3  4  2  0
  4  5  1  0
  5  6  2  0
  5  7  1  0
  7  8  1  0
  8  9  1  0
  9 10  1  0
 10 11  2  0
 11 12  1  0
 12 13  1  0
 13 14  1  0
 14 15  1  0
 15 16  1  0
 16 17  1  0
 17 18  1  0
 18 19  1  0
 19 20  1  0
 12 21  2  0
 21 22  1  0
 22 23  1  0
 23 24  1  0
 24 25  1  0
 25 26  1  0
 26 27  2  0
 27 28  1  0
 28 29  2  0
 29 30  1  0
 30 31  2  0
 31 32  1  0
 22 33  2  0
  9 34  1  0
  6  1  1  0
 33 10  1  0
 34  4  1  0
 20 15  1  0
 32 23  1  0
 31 26  1  0
  1 35  1  0
  2 36  1  0
  3 37  1  0
  6 38  1  0
  7 39  1  0
  7 40  1  0
  8 41  1  0
  8 42  1  0
 13 43  1  0
 14 44  1  0
 14 45  1  0
 15 46  1  1
 16 47  1  0
 16 48  1  0
 17 49  1  0
 17 50  1  0
 18 51  1  0
 18 52  1  0
 19 53  1  0
 20 54  1  0
 20 55  1  0
 24 56  1  0
 24 57  1  0
 25 58  1  0
 25 59  1  0
 27 60  1  0
 28 61  1  0
 29 62  1  0
 30 63  1  0
 32 64  1  0
 32 65  1  0
 34 66  1  0
 34 67  1  0
M  END
>  <smiles>  (31) 
c1ccc2c(c1)CCN(c1nc(NCC3CCCNC3)nc(N3CCc4ccccc4C3)n1)C2

>  <score_type>  (31) 
oracle

>  <origin>  (31) 
autodockgpu

>  <m_score__min__energy>  (31) 
-10.83

>  <m_primary>  (31) 
energy

>  <rmsd>  (31) 
6.384803701349087

>  <m_score__min__rmsd>  (31) 
6.384803701349087

>  <meeko>  (31) 
{"free_energy": -10.48, "intermolecular_energy": -11.97, "internal_energy": -0.96, "cluster_size": 29, "cluster_id": 1, "rank_in_cluster": 7}

>  <energy>  (31) 
-9.89

>  <cluster_rmsd>  (31) 
0.16

>  <cluster>  (31) 
2

$$$$

     RDKit          3D

 67 72  0  0  0  0  0  0  0  0999 V2000
  145.3950   72.4110  216.2890 C   0  0  0  0  0  0  0  0  0  0  0  0
  146.0770   73.3170  217.0960 C   0  0  0  0  0  0  0  0  0  0  0  0
  145.7440   73.3890  218.4320 C   0  0  0  0  0  0  0  0  0  0  0  0
  144.7500   72.5580  218.8980 C   0  0  0  0  0  0  0  0  0  0  0  0
  144.0630   71.6570  218.1300 C   0  0  0  0  0  0  0  0  0  0  0  0
  144.4050   71.5900  216.7810 C   0  0  0  0  0  0  0  0  0  0  0  0
  142.9950   70.7540  218.5890 C   0  0  0  0  0  0  0  0  0  0  0  0
  142.8270   70.7810  220.1000 C   0  0  0  0  0  0  0  0  0  0  0  0
  143.0490   72.1510  220.5590 N   0  0  0  0  0  0  0  0  0  0  0  0
  141.9940   72.8900  221.1400 C   0  0  0  0  0  0  0  0  0  0  0  0
  141.0560   72.1900  221.8060 N   0  0  0  0  0  0  0  0  0  0  0  0
  140.0280   72.8450  222.3670 C   0  0  0  0  0  0  0  0  0  0  0  0
  139.0720   72.0270  223.0540 N   0  0  0  0  0  0  0  0  0  0  0  0
  139.0190   70.5860  222.9040 C   0  0  0  0  0  0  0  0  0  0  0  0
  138.9330   69.9280  224.2750 C   0  0  2  0  0  0  0  0  0  0  0  0
  139.9540   70.6080  225.1570 C   0  0  0  0  0  0  0  0  0  0  0  0
  140.8430   69.5480  225.7630 C   0  0  0  0  0  0  0  0  0  0  0  0
  139.9030   68.5240  226.4050 C   0  0  0  0  0  0  0  0  0  0  0  0
  139.2770   67.7620  225.3660 N   0  0  0  0  0  0  0  0  0  0  0  0
  139.1780   68.4650  224.1090 C   0  0  0  0  0  0  0  0  0  0  0  0
  139.9230   74.1800  222.2750 N   0  0  0  0  0  0  0  0  0  0  0  0
  140.8620   74.9110  221.6050 C   0  0  0  0  0  0  0  0  0  0  0  0
  140.7710   76.3240  221.4870 N   0  0  0  0  0  0  0  0  0  0  0  0
  141.2770   76.9220  220.2740 C   0  0  0  0  0  0  0  0  0  0  0  0
  140.8640   78.3910  220.2170 C   0  0  0  0  0  0  0  0  0  0  0  0
  141.3980   78.9970  221.4660 C   0  0  0  0  0  0  0  0  0  0  0  0
  142.1860   80.1200  221.4690 C   0  0  0  0  0  0  0  0  0  0  0  0
  142.6260   80.5900  222.6890 C   0  0  0  0  0  0  0  0  0  0  0  0
  142.2890   79.9560  223.8770 C   0  0  0  0  0  0  0  0  0  0  0  0
  141.4930   78.8190  223.8870 C   0  0  0  0  0  0  0  0  0  0  0  0
  141.0650   78.3660  222.6580 C   0  0  0  0  0  0  0  0  0  0  0  0
  140.1970   77.1440  222.5270 C   0  0  0  0  0  0  0  0  0  0  0  0
  141.8730   74.2230  221.0580 N   0  0  0  0  0  0  0  0  0  0  0  0
  144.3940   72.6610  220.3630 C   0  0  0  0  0  0  0  0  0  0  0  0
  145.6556   72.3487  215.2221 H   0  0  0  0  0  0  0  0  0  0  0  0
  146.8641   73.9612  216.6772 H   0  0  0  0  0  0  0  0  0  0  0  0
  146.2577   74.0902  219.1062 H   0  0  0  0  0  0  0  0  0  0  0  0
  143.8874   70.8857  216.1132 H   0  0  0  0  0  0  0  0  0  0  0  0
  142.0474   71.0606  218.1221 H   0  0  0  0  0  0  0  0  0  0  0  0
  143.2723   69.7297  218.2992 H   0  0  0  0  0  0  0  0  0  0  0  0
  141.8099   70.4587  220.3676 H   0  0  0  0  0  0  0  0  0  0  0  0
  143.5478   70.0992  220.5751 H   0  0  0  0  0  0  0  0  0  0  0  0
  138.4120   72.5410  223.6740 H   0  0  0  0  0  0  0  0  0  0  0  0
  138.1334   70.3127  222.3115 H   0  0  0  0  0  0  0  0  0  0  0  0
  139.9287   70.2402  222.3913 H   0  0  0  0  0  0  0  0  0  0  0  0
  137.9450   70.0361  224.7463 H   0  0  0  0  0  0  0  0  0  0  0  0
  140.5601   71.3021  224.5563 H   0  0  0  0  0  0  0  0  0  0  0  0
  139.4481   71.1761  225.9516 H   0  0  0  0  0  0  0  0  0  0  0  0
  141.4535   69.0697  224.9829 H   0  0  0  0  0  0  0  0  0  0  0  0
  141.5354   69.9776  226.5020 H   0  0  0  0  0  0  0  0  0  0  0  0
  140.4779   67.8537  227.0608 H   0  0  0  0  0  0  0  0  0  0  0  0
  139.1386   69.0403  227.0042 H   0  0  0  0  0  0  0  0  0  0  0  0
  139.7930   66.8630  225.2390 H   0  0  0  0  0  0  0  0  0  0  0  0
  140.1190   68.3280  223.5560 H   0  0  0  0  0  0  0  0  0  0  0  0
  138.3172   68.0474  223.5661 H   0  0  0  0  0  0  0  0  0  0  0  0
  142.3745   76.8493  220.2601 H   0  0  0  0  0  0  0  0  0  0  0  0
  140.8621   76.3916  219.4042 H   0  0  0  0  0  0  0  0  0  0  0  0
  141.3009   78.8802  219.3339 H   0  0  0  0  0  0  0  0  0  0  0  0
  139.7731   78.5078  220.1381 H   0  0  0  0  0  0  0  0  0  0  0  0
  142.4574   80.6277  220.5317 H   0  0  0  0  0  0  0  0  0  0  0  0
  143.2592   81.4889  222.7212 H   0  0  0  0  0  0  0  0  0  0  0  0
  142.6601   80.3627  224.8293 H   0  0  0  0  0  0  0  0  0  0  0  0
  141.2195   78.3088  224.8223 H   0  0  0  0  0  0  0  0  0  0  0  0
  140.1794   76.5903  223.4773 H   0  0  0  0  0  0  0  0  0  0  0  0
  139.1627   77.4238  222.2783 H   0  0  0  0  0  0  0  0  0  0  0  0
  144.4395   73.7132  220.6806 H   0  0  0  0  0  0  0  0  0  0  0  0
  145.1056   72.0726  220.9609 H   0  0  0  0  0  0  0  0  0  0  0  0
  1  2  2  0
  2  3  1  0
  3  4  2  0
  4  5  1  0
  5  6  2  0
  5  7  1  0
  7  8  1  0
  8  9  1  0
  9 10  1  0
 10 11  2  0
 11 12  1  0
 12 13  1  0
 13 14  1  0
 14 15  1  0
 15 16  1  0
 16 17  1  0
 17 18  1  0
 18 19  1  0
 19 20  1  0
 12 21  2  0
 21 22  1  0
 22 23  1  0
 23 24  1  0
 24 25  1  0
 25 26  1  0
 26 27  2  0
 27 28  1  0
 28 29  2  0
 29 30  1  0
 30 31  2  0
 31 32  1  0
 22 33  2  0
  9 34  1  0
  6  1  1  0
 33 10  1  0
 34  4  1  0
 20 15  1  0
 32 23  1  0
 31 26  1  0
  1 35  1  0
  2 36  1  0
  3 37  1  0
  6 38  1  0
  7 39  1  0
  7 40  1  0
  8 41  1  0
  8 42  1  0
 13 43  1  0
 14 44  1  0
 14 45  1  0
 15 46  1  1
 16 47  1  0
 16 48  1  0
 17 49  1  0
 17 50  1  0
 18 51  1  0
 18 52  1  0
 19 53  1  0
 20 54  1  0
 20 55  1  0
 24 56  1  0
 24 57  1  0
 25 58  1  0
 25 59  1  0
 27 60  1  0
 28 61  1  0
 29 62  1  0
 30 63  1  0
 32 64  1  0
 32 65  1  0
 34 66  1  0
 34 67  1  0
M  END
>  <smiles>  (32) 
c1ccc2c(c1)CCN(c1nc(NCC3CCCNC3)nc(N3CCc4ccccc4C3)n1)C2

>  <score_type>  (32) 
oracle

>  <origin>  (32) 
autodockgpu

>  <m_score__min__energy>  (32) 
-10.83

>  <m_primary>  (32) 
energy

>  <rmsd>  (32) 
9.061735803417118

>  <m_score__min__rmsd>  (32) 
9.061735803417118

>  <meeko>  (32) 
{"free_energy": -9.28, "intermolecular_energy": -10.77, "internal_energy": -1.04, "cluster_size": 15, "cluster_id": 2, "rank_in_cluster": 14}

>  <energy>  (32) 
-9.79

>  <cluster_rmsd>  (32) 
0.18

>  <cluster>  (32) 
2

$$$$

     RDKit          3D

 67 72  0  0  0  0  0  0  0  0999 V2000
  140.4140   67.4380  226.1040 C   0  0  0  0  0  0  0  0  0  0  0  0
  141.3820   68.2920  226.6240 C   0  0  0  0  0  0  0  0  0  0  0  0
  141.3130   69.6340  226.3110 C   0  0  0  0  0  0  0  0  0  0  0  0
  140.2870   70.0570  225.4980 C   0  0  0  0  0  0  0  0  0  0  0  0
  139.3210   69.2430  224.9720 C   0  0  0  0  0  0  0  0  0  0  0  0
  139.3970   67.8890  225.2920 C   0  0  0  0  0  0  0  0  0  0  0  0
  138.2110   69.6560  224.0980 C   0  0  0  0  0  0  0  0  0  0  0  0
  138.1180   71.1680  223.9600 C   0  0  0  0  0  0  0  0  0  0  0  0
  139.4770   71.7070  223.9360 N   0  0  0  0  0  0  0  0  0  0  0  0
  139.9730   72.3430  222.7750 C   0  0  0  0  0  0  0  0  0  0  0  0
  140.5280   71.5510  221.8380 N   0  0  0  0  0  0  0  0  0  0  0  0
  141.0230   72.1090  220.7230 C   0  0  0  0  0  0  0  0  0  0  0  0
  141.6000   71.1980  219.7770 N   0  0  0  0  0  0  0  0  0  0  0  0
  142.7950   71.5050  219.0170 C   0  0  0  0  0  0  0  0  0  0  0  0
  143.5980   72.5840  219.7330 C   0  0  2  0  0  0  0  0  0  0  0  0
  144.5020   73.2190  218.7020 C   0  0  0  0  0  0  0  0  0  0  0  0
  145.9220   73.1670  219.2160 C   0  0  0  0  0  0  0  0  0  0  0  0
  145.8860   73.7790  220.6200 C   0  0  0  0  0  0  0  0  0  0  0  0
  145.2630   72.8460  221.5110 N   0  0  0  0  0  0  0  0  0  0  0  0
  144.3430   71.9460  220.8580 C   0  0  0  0  0  0  0  0  0  0  0  0
  140.9730   73.4360  220.5290 N   0  0  0  0  0  0  0  0  0  0  0  0
  140.4140   74.2590  221.4650 C   0  0  0  0  0  0  0  0  0  0  0  0
  140.3550   75.6670  221.2870 N   0  0  0  0  0  0  0  0  0  0  0  0
  140.7470   76.1910  220.0000 C   0  0  0  0  0  0  0  0  0  0  0  0
  140.3750   77.6680  219.9130 C   0  0  0  0  0  0  0  0  0  0  0  0
  141.0580   78.3120  221.0680 C   0  0  0  0  0  0  0  0  0  0  0  0
  141.8750   79.4050  220.9340 C   0  0  0  0  0  0  0  0  0  0  0  0
  142.4560   79.9150  222.0760 C   0  0  0  0  0  0  0  0  0  0  0  0
  142.2280   79.3490  223.3220 C   0  0  0  0  0  0  0  0  0  0  0  0
  141.4030   78.2420  223.4720 C   0  0  0  0  0  0  0  0  0  0  0  0
  140.8330   77.7490  222.3180 C   0  0  0  0  0  0  0  0  0  0  0  0
  139.9200   76.5530  222.3390 C   0  0  0  0  0  0  0  0  0  0  0  0
  139.9310   73.6670  222.5650 N   0  0  0  0  0  0  0  0  0  0  0  0
  140.2370   71.5290  225.1600 C   0  0  0  0  0  0  0  0  0  0  0  0
  140.4627   66.3669  226.3497 H   0  0  0  0  0  0  0  0  0  0  0  0
  142.1842   67.9058  227.2700 H   0  0  0  0  0  0  0  0  0  0  0  0
  142.0567   70.3450  226.7002 H   0  0  0  0  0  0  0  0  0  0  0  0
  138.6494   67.1846  224.8985 H   0  0  0  0  0  0  0  0  0  0  0  0
  138.3642   69.2183  223.1005 H   0  0  0  0  0  0  0  0  0  0  0  0
  137.2743   69.3009  224.5524 H   0  0  0  0  0  0  0  0  0  0  0  0
  137.5982   71.4257  223.0254 H   0  0  0  0  0  0  0  0  0  0  0  0
  137.5544   71.5934  224.8034 H   0  0  0  0  0  0  0  0  0  0  0  0
  141.0990   70.2910  219.6730 H   0  0  0  0  0  0  0  0  0  0  0  0
  143.4088   70.5974  218.9189 H   0  0  0  0  0  0  0  0  0  0  0  0
  142.5080   71.8675  218.0189 H   0  0  0  0  0  0  0  0  0  0  0  0
  142.9693   73.3725  220.1722 H   0  0  0  0  0  0  0  0  0  0  0  0
  144.4297   72.6663  217.7537 H   0  0  0  0  0  0  0  0  0  0  0  0
  144.2013   74.2626  218.5272 H   0  0  0  0  0  0  0  0  0  0  0  0
  146.2739   72.1258  219.2619 H   0  0  0  0  0  0  0  0  0  0  0  0
  146.6098   73.7151  218.5553 H   0  0  0  0  0  0  0  0  0  0  0  0
  146.9113   73.9873  220.9596 H   0  0  0  0  0  0  0  0  0  0  0  0
  145.3170   74.7202  220.6045 H   0  0  0  0  0  0  0  0  0  0  0  0
  146.0000   72.3070  222.0160 H   0  0  0  0  0  0  0  0  0  0  0  0
  144.9112   71.0916  220.4615 H   0  0  0  0  0  0  0  0  0  0  0  0
  143.6008   71.6350  221.6080 H   0  0  0  0  0  0  0  0  0  0  0  0
  141.8342   76.0795  219.8752 H   0  0  0  0  0  0  0  0  0  0  0  0
  140.2260   75.6360  219.2059 H   0  0  0  0  0  0  0  0  0  0  0  0
  140.7298   78.0998  218.9655 H   0  0  0  0  0  0  0  0  0  0  0  0
  139.2859   77.8198  219.9430 H   0  0  0  0  0  0  0  0  0  0  0  0
  142.0606   79.8594  219.9496 H   0  0  0  0  0  0  0  0  0  0  0  0
  143.1160   80.7915  221.9971 H   0  0  0  0  0  0  0  0  0  0  0  0
  142.7104   79.7858  224.2089 H   0  0  0  0  0  0  0  0  0  0  0  0
  141.2153   77.7851  224.4549 H   0  0  0  0  0  0  0  0  0  0  0  0
  139.9871   76.0445  223.3121 H   0  0  0  0  0  0  0  0  0  0  0  0
  138.8739   76.8570  222.1864 H   0  0  0  0  0  0  0  0  0  0  0  0
  141.2592   71.9098  225.0182 H   0  0  0  0  0  0  0  0  0  0  0  0
  139.7562   72.0826  225.9800 H   0  0  0  0  0  0  0  0  0  0  0  0
  1  2  2  0
  2  3  1  0
  3  4  2  0
  4  5  1  0
  5  6  2  0
  5  7  1  0
  7  8  1  0
  8  9  1  0
  9 10  1  0
 10 11  2  0
 11 12  1  0
 12 13  1  0
 13 14  1  0
 14 15  1  0
 15 16  1  0
 16 17  1  0
 17 18  1  0
 18 19  1  0
 19 20  1  0
 12 21  2  0
 21 22  1  0
 22 23  1  0
 23 24  1  0
 24 25  1  0
 25 26  1  0
 26 27  2  0
 27 28  1  0
 28 29  2  0
 29 30  1  0
 30 31  2  0
 31 32  1  0
 22 33  2  0
  9 34  1  0
  6  1  1  0
 33 10  1  0
 34  4  1  0
 20 15  1  0
 32 23  1  0
 31 26  1  0
  1 35  1  0
  2 36  1  0
  3 37  1  0
  6 38  1  0
  7 39  1  0
  7 40  1  0
  8 41  1  0
  8 42  1  0
 13 43  1  0
 14 44  1  0
 14 45  1  0
 15 46  1  1
 16 47  1  0
 16 48  1  0
 17 49  1  0
 17 50  1  0
 18 51  1  0
 18 52  1  0
 19 53  1  0
 20 54  1  0
 20 55  1  0
 24 56  1  0
 24 57  1  0
 25 58  1  0
 25 59  1  0
 27 60  1  0
 28 61  1  0
 29 62  1  0
 30 63  1  0
 32 64  1  0
 32 65  1  0
 34 66  1  0
 34 67  1  0
M  END
>  <smiles>  (33) 
c1ccc2c(c1)CCN(c1nc(NCC3CCCNC3)nc(N3CCc4ccccc4C3)n1)C2

>  <score_type>  (33) 
oracle

>  <origin>  (33) 
autodockgpu

>  <m_score__min__energy>  (33) 
-10.83

>  <m_primary>  (33) 
energy

>  <rmsd>  (33) 
6.061866534808215

>  <m_score__min__rmsd>  (33) 
6.061866534808215

>  <meeko>  (33) 
{"free_energy": -9.62, "intermolecular_energy": -11.11, "internal_energy": -1.19, "cluster_size": 29, "cluster_id": 1, "rank_in_cluster": 15}

>  <energy>  (33) 
-9.75

>  <cluster_rmsd>  (33) 
0.79

>  <cluster>  (33) 
2

$$$$

     RDKit          3D

 67 72  0  0  0  0  0  0  0  0999 V2000
  146.2800   68.0660  219.4410 C   0  0  0  0  0  0  0  0  0  0  0  0
  145.0690   67.3820  219.3720 C   0  0  0  0  0  0  0  0  0  0  0  0
  143.9120   68.1080  219.1880 C   0  0  0  0  0  0  0  0  0  0  0  0
  144.0160   69.4770  219.0810 C   0  0  0  0  0  0  0  0  0  0  0  0
  145.1900   70.1770  219.1430 C   0  0  0  0  0  0  0  0  0  0  0  0
  146.3550   69.4360  219.3300 C   0  0  0  0  0  0  0  0  0  0  0  0
  145.3430   71.6370  219.0360 C   0  0  0  0  0  0  0  0  0  0  0  0
  144.0420   72.3270  218.6560 C   0  0  0  0  0  0  0  0  0  0  0  0
  142.9440   71.6240  219.3190 N   0  0  0  0  0  0  0  0  0  0  0  0
  142.1730   72.2760  220.3100 C   0  0  0  0  0  0  0  0  0  0  0  0
  141.6880   71.5080  221.3040 N   0  0  0  0  0  0  0  0  0  0  0  0
  140.9410   72.0790  222.2620 C   0  0  0  0  0  0  0  0  0  0  0  0
  140.4600   71.1930  223.2820 N   0  0  0  0  0  0  0  0  0  0  0  0
  140.2790   71.6050  224.6600 C   0  0  0  0  0  0  0  0  0  0  0  0
  139.7170   70.4480  225.4750 C   0  0  2  0  0  0  0  0  0  0  0  0
  140.6560   70.2300  226.6400 C   0  0  0  0  0  0  0  0  0  0  0  0
  141.0740   68.7790  226.6500 C   0  0  0  0  0  0  0  0  0  0  0  0
  139.7780   67.9640  226.6060 C   0  0  0  0  0  0  0  0  0  0  0  0
  139.2240   68.0560  225.2880 N   0  0  0  0  0  0  0  0  0  0  0  0
  139.5990   69.2580  224.5820 C   0  0  0  0  0  0  0  0  0  0  0  0
  140.6750   73.3940  222.2440 N   0  0  0  0  0  0  0  0  0  0  0  0
  141.1570   74.1910  221.2460 C   0  0  0  0  0  0  0  0  0  0  0  0
  140.8830   75.5850  221.2000 N   0  0  0  0  0  0  0  0  0  0  0  0
  141.1750   76.2770  219.9660 C   0  0  0  0  0  0  0  0  0  0  0  0
  140.5840   77.6840  220.0160 C   0  0  0  0  0  0  0  0  0  0  0  0
  141.1780   78.3150  221.2260 C   0  0  0  0  0  0  0  0  0  0  0  0
  141.8200   79.5260  221.1930 C   0  0  0  0  0  0  0  0  0  0  0  0
  142.3340   80.0110  222.3780 C   0  0  0  0  0  0  0  0  0  0  0  0
  142.2100   79.3050  223.5670 C   0  0  0  0  0  0  0  0  0  0  0  0
  141.5630   78.0780  223.6130 C   0  0  0  0  0  0  0  0  0  0  0  0
  141.0580   77.6120  222.4190 C   0  0  0  0  0  0  0  0  0  0  0  0
  140.3350   76.2960  222.3290 C   0  0  0  0  0  0  0  0  0  0  0  0
  141.8970   73.5880  220.3070 N   0  0  0  0  0  0  0  0  0  0  0  0
  142.7340   70.2540  218.8890 C   0  0  0  0  0  0  0  0  0  0  0  0
  147.2071   67.4927  219.5890 H   0  0  0  0  0  0  0  0  0  0  0  0
  145.0365   66.2862  219.4624 H   0  0  0  0  0  0  0  0  0  0  0  0
  142.9338   67.6084  219.1284 H   0  0  0  0  0  0  0  0  0  0  0  0
  147.3294   69.9430  219.3886 H   0  0  0  0  0  0  0  0  0  0  0  0
  145.6813   72.0294  220.0064 H   0  0  0  0  0  0  0  0  0  0  0  0
  146.0768   71.8414  218.2424 H   0  0  0  0  0  0  0  0  0  0  0  0
  144.0662   73.3761  218.9860 H   0  0  0  0  0  0  0  0  0  0  0  0
  143.9042   72.3059  217.5649 H   0  0  0  0  0  0  0  0  0  0  0  0
  140.2440   70.2250  222.9640 H   0  0  0  0  0  0  0  0  0  0  0  0
  141.2486   71.9105  225.0801 H   0  0  0  0  0  0  0  0  0  0  0  0
  139.5761   72.4503  224.6969 H   0  0  0  0  0  0  0  0  0  0  0  0
  138.7123   70.6484  225.8755 H   0  0  0  0  0  0  0  0  0  0  0  0
  141.5426   70.8713  226.5276 H   0  0  0  0  0  0  0  0  0  0  0  0
  140.1525   70.4848  227.5842 H   0  0  0  0  0  0  0  0  0  0  0  0
  141.6961   68.5548  225.7710 H   0  0  0  0  0  0  0  0  0  0  0  0
  141.6702   68.5384  227.5425 H   0  0  0  0  0  0  0  0  0  0  0  0
  139.9936   66.9121  226.8446 H   0  0  0  0  0  0  0  0  0  0  0  0
  139.0619   68.3572  227.3426 H   0  0  0  0  0  0  0  0  0  0  0  0
  139.5000   67.2120  224.7380 H   0  0  0  0  0  0  0  0  0  0  0  0
  140.5701   69.0889  224.0938 H   0  0  0  0  0  0  0  0  0  0  0  0
  138.8036   69.4722  223.8530 H   0  0  0  0  0  0  0  0  0  0  0  0
  142.2648   76.3422  219.8318 H   0  0  0  0  0  0  0  0  0  0  0  0
  140.7329   75.7246  219.1238 H   0  0  0  0  0  0  0  0  0  0  0  0
  140.8572   78.2493  219.1128 H   0  0  0  0  0  0  0  0  0  0  0  0
  139.4850   77.6666  220.0594 H   0  0  0  0  0  0  0  0  0  0  0  0
  141.9217   80.0911  220.2547 H   0  0  0  0  0  0  0  0  0  0  0  0
  142.8544   80.9801  222.3808 H   0  0  0  0  0  0  0  0  0  0  0  0
  142.6329   79.7264  224.4909 H   0  0  0  0  0  0  0  0  0  0  0  0
  141.4594   77.5101  224.5493 H   0  0  0  0  0  0  0  0  0  0  0  0
  140.4906   75.7166  223.2510 H   0  0  0  0  0  0  0  0  0  0  0  0
  139.2533   76.4523  222.2046 H   0  0  0  0  0  0  0  0  0  0  0  0
  141.9327   69.7978  219.4888 H   0  0  0  0  0  0  0  0  0  0  0  0
  142.4442   70.2374  217.8280 H   0  0  0  0  0  0  0  0  0  0  0  0
  1  2  2  0
  2  3  1  0
  3  4  2  0
  4  5  1  0
  5  6  2  0
  5  7  1  0
  7  8  1  0
  8  9  1  0
  9 10  1  0
 10 11  2  0
 11 12  1  0
 12 13  1  0
 13 14  1  0
 14 15  1  0
 15 16  1  0
 16 17  1  0
 17 18  1  0
 18 19  1  0
 19 20  1  0
 12 21  2  0
 21 22  1  0
 22 23  1  0
 23 24  1  0
 24 25  1  0
 25 26  1  0
 26 27  2  0
 27 28  1  0
 28 29  2  0
 29 30  1  0
 30 31  2  0
 31 32  1  0
 22 33  2  0
  9 34  1  0
  6  1  1  0
 33 10  1  0
 34  4  1  0
 20 15  1  0
 32 23  1  0
 31 26  1  0
  1 35  1  0
  2 36  1  0
  3 37  1  0
  6 38  1  0
  7 39  1  0
  7 40  1  0
  8 41  1  0
  8 42  1  0
 13 43  1  0
 14 44  1  0
 14 45  1  0
 15 46  1  1
 16 47  1  0
 16 48  1  0
 17 49  1  0
 17 50  1  0
 18 51  1  0
 18 52  1  0
 19 53  1  0
 20 54  1  0
 20 55  1  0
 24 56  1  0
 24 57  1  0
 25 58  1  0
 25 59  1  0
 27 60  1  0
 28 61  1  0
 29 62  1  0
 30 63  1  0
 32 64  1  0
 32 65  1  0
 34 66  1  0
 34 67  1  0
M  END
>  <smiles>  (34) 
c1ccc2c(c1)CCN(c1nc(NCC3CCCNC3)nc(N3CCc4ccccc4C3)n1)C2

>  <score_type>  (34) 
oracle

>  <origin>  (34) 
autodockgpu

>  <m_score__min__energy>  (34) 
-10.83

>  <m_primary>  (34) 
energy

>  <rmsd>  (34) 
9.598356007755283

>  <m_score__min__rmsd>  (34) 
9.598356007755283

>  <meeko>  (34) 
{"free_energy": -9.53, "intermolecular_energy": -11.02, "internal_energy": -0.69, "cluster_size": 15, "cluster_id": 2, "rank_in_cluster": 10}

>  <energy>  (34) 
-9.68

>  <cluster_rmsd>  (34) 
0.77

>  <cluster>  (34) 
2

$$$$

     RDKit          3D

 67 72  0  0  0  0  0  0  0  0999 V2000
  140.3580   67.4580  226.1570 C   0  0  0  0  0  0  0  0  0  0  0  0
  141.0590   68.4150  226.8870 C   0  0  0  0  0  0  0  0  0  0  0  0
  140.9170   69.7420  226.5390 C   0  0  0  0  0  0  0  0  0  0  0  0
  140.0880   70.0510  225.4850 C   0  0  0  0  0  0  0  0  0  0  0  0
  139.3860   69.1340  224.7500 C   0  0  0  0  0  0  0  0  0  0  0  0
  139.5340   67.7950  225.1070 C   0  0  0  0  0  0  0  0  0  0  0  0
  138.4920   69.4220  223.6160 C   0  0  0  0  0  0  0  0  0  0  0  0
  138.2640   70.9140  223.4280 C   0  0  0  0  0  0  0  0  0  0  0  0
  139.5130   71.6090  223.7350 N   0  0  0  0  0  0  0  0  0  0  0  0
  140.2090   72.3090  222.7230 C   0  0  0  0  0  0  0  0  0  0  0  0
  141.0570   71.5910  221.9610 N   0  0  0  0  0  0  0  0  0  0  0  0
  141.7490   72.2130  220.9940 C   0  0  0  0  0  0  0  0  0  0  0  0
  142.6320   71.3800  220.2300 N   0  0  0  0  0  0  0  0  0  0  0  0
  144.0170   71.1600  220.5950 C   0  0  0  0  0  0  0  0  0  0  0  0
  144.9280   71.9390  219.6560 C   0  0  2  0  0  0  0  0  0  0  0  0
  144.4180   73.3610  219.6230 C   0  0  0  0  0  0  0  0  0  0  0  0
  144.1900   73.7530  218.1820 C   0  0  0  0  0  0  0  0  0  0  0  0
  145.4950   73.4380  217.4460 C   0  0  0  0  0  0  0  0  0  0  0  0
  145.6090   72.0170  217.3040 N   0  0  0  0  0  0  0  0  0  0  0  0
  144.9040   71.2730  218.3200 C   0  0  0  0  0  0  0  0  0  0  0  0
  141.6090   73.5300  220.7770 N   0  0  0  0  0  0  0  0  0  0  0  0
  140.7560   74.2770  221.5370 C   0  0  0  0  0  0  0  0  0  0  0  0
  140.5940   75.6740  221.3330 N   0  0  0  0  0  0  0  0  0  0  0  0
  140.9640   76.2020  220.0410 C   0  0  0  0  0  0  0  0  0  0  0  0
  140.4850   77.6460  219.9220 C   0  0  0  0  0  0  0  0  0  0  0  0
  141.1020   78.3600  221.0730 C   0  0  0  0  0  0  0  0  0  0  0  0
  141.8390   79.5070  220.9280 C   0  0  0  0  0  0  0  0  0  0  0  0
  142.3640   80.0790  222.0670 C   0  0  0  0  0  0  0  0  0  0  0  0
  142.1620   79.5200  223.3210 C   0  0  0  0  0  0  0  0  0  0  0  0
  141.4190   78.3580  223.4820 C   0  0  0  0  0  0  0  0  0  0  0  0
  140.9030   77.8040  222.3300 C   0  0  0  0  0  0  0  0  0  0  0  0
  140.0800   76.5440  222.3620 C   0  0  0  0  0  0  0  0  0  0  0  0
  140.0820   73.6240  222.4930 N   0  0  0  0  0  0  0  0  0  0  0  0
  139.9560   71.5100  225.1140 C   0  0  0  0  0  0  0  0  0  0  0  0
  140.4665   66.3976  226.4286 H   0  0  0  0  0  0  0  0  0  0  0  0
  141.7110   68.1191  227.7220 H   0  0  0  0  0  0  0  0  0  0  0  0
  141.4513   70.5311  227.0884 H   0  0  0  0  0  0  0  0  0  0  0  0
  138.9955   67.0120  224.5530 H   0  0  0  0  0  0  0  0  0  0  0  0
  138.9411   69.0140  222.6985 H   0  0  0  0  0  0  0  0  0  0  0  0
  137.5183   68.9558  223.8270 H   0  0  0  0  0  0  0  0  0  0  0  0
  137.9705   71.1177  222.3876 H   0  0  0  0  0  0  0  0  0  0  0  0
  137.4613   71.2627  224.0944 H   0  0  0  0  0  0  0  0  0  0  0  0
  142.2070   70.9370  219.3890 H   0  0  0  0  0  0  0  0  0  0  0  0
  144.1808   71.5001  221.6282 H   0  0  0  0  0  0  0  0  0  0  0  0
  144.2471   70.0872  220.5170 H   0  0  0  0  0  0  0  0  0  0  0  0
  145.9770   71.9573  219.9866 H   0  0  0  0  0  0  0  0  0  0  0  0
  143.4723   73.4294  220.1806 H   0  0  0  0  0  0  0  0  0  0  0  0
  145.1521   74.0364  220.0866 H   0  0  0  0  0  0  0  0  0  0  0  0
  143.3603   73.1709  217.7545 H   0  0  0  0  0  0  0  0  0  0  0  0
  143.9237   74.8164  218.0916 H   0  0  0  0  0  0  0  0  0  0  0  0
  145.4831   73.9098  216.4524 H   0  0  0  0  0  0  0  0  0  0  0  0
  146.3511   73.8283  218.0159 H   0  0  0  0  0  0  0  0  0  0  0  0
  145.2770   71.7380  216.3540 H   0  0  0  0  0  0  0  0  0  0  0  0
  143.8564   71.1569  218.0054 H   0  0  0  0  0  0  0  0  0  0  0  0
  145.4114   70.3030  218.4278 H   0  0  0  0  0  0  0  0  0  0  0  0
  142.0581   76.1690  219.9317 H   0  0  0  0  0  0  0  0  0  0  0  0
  140.4966   75.5957  219.2511 H   0  0  0  0  0  0  0  0  0  0  0  0
  140.8200   78.0860  218.9711 H   0  0  0  0  0  0  0  0  0  0  0  0
  139.3874   77.7167  219.9360 H   0  0  0  0  0  0  0  0  0  0  0  0
  142.0055   79.9551  219.9373 H   0  0  0  0  0  0  0  0  0  0  0  0
  142.9575   81.0010  221.9798 H   0  0  0  0  0  0  0  0  0  0  0  0
  142.5992   80.0071  224.2051 H   0  0  0  0  0  0  0  0  0  0  0  0
  141.2520   77.9061  224.4709 H   0  0  0  0  0  0  0  0  0  0  0  0
  140.1704   76.0594  223.3454 H   0  0  0  0  0  0  0  0  0  0  0  0
  139.0167   76.7671  222.1902 H   0  0  0  0  0  0  0  0  0  0  0  0
  140.9303   72.0083  225.2250 H   0  0  0  0  0  0  0  0  0  0  0  0
  139.2240   71.9968  225.7753 H   0  0  0  0  0  0  0  0  0  0  0  0
  1  2  2  0
  2  3  1  0
  3  4  2  0
  4  5  1  0
  5  6  2  0
  5  7  1  0
  7  8  1  0
  8  9  1  0
  9 10  1  0
 10 11  2  0
 11 12  1  0
 12 13  1  0
 13 14  1  0
 14 15  1  0
 15 16  1  0
 16 17  1  0
 17 18  1  0
 18 19  1  0
 19 20  1  0
 12 21  2  0
 21 22  1  0
 22 23  1  0
 23 24  1  0
 24 25  1  0
 25 26  1  0
 26 27  2  0
 27 28  1  0
 28 29  2  0
 29 30  1  0
 30 31  2  0
 31 32  1  0
 22 33  2  0
  9 34  1  0
  6  1  1  0
 33 10  1  0
 34  4  1  0
 20 15  1  0
 32 23  1  0
 31 26  1  0
  1 35  1  0
  2 36  1  0
  3 37  1  0
  6 38  1  0
  7 39  1  0
  7 40  1  0
  8 41  1  0
  8 42  1  0
 13 43  1  0
 14 44  1  0
 14 45  1  0
 15 46  1  1
 16 47  1  0
 16 48  1  0
 17 49  1  0
 17 50  1  0
 18 51  1  0
 18 52  1  0
 19 53  1  0
 20 54  1  0
 20 55  1  0
 24 56  1  0
 24 57  1  0
 25 58  1  0
 25 59  1  0
 27 60  1  0
 28 61  1  0
 29 62  1  0
 30 63  1  0
 32 64  1  0
 32 65  1  0
 34 66  1  0
 34 67  1  0
M  END
>  <smiles>  (35) 
c1ccc2c(c1)CCN(c1nc(NCC3CCCNC3)nc(N3CCc4ccccc4C3)n1)C2

>  <score_type>  (35) 
oracle

>  <origin>  (35) 
autodockgpu

>  <m_score__min__energy>  (35) 
-10.83

>  <m_primary>  (35) 
energy

>  <rmsd>  (35) 
6.910499181080381

>  <m_score__min__rmsd>  (35) 
6.910499181080381

>  <meeko>  (35) 
{"free_energy": -9.21, "intermolecular_energy": -10.7, "internal_energy": -1.15, "cluster_size": 29, "cluster_id": 1, "rank_in_cluster": 19}

>  <energy>  (35) 
-9.65

>  <cluster_rmsd>  (35) 
0.56

>  <cluster>  (35) 
2

$$$$

     RDKit          3D

 67 72  0  0  0  0  0  0  0  0999 V2000
  140.8280   79.5940  223.2400 C   0  0  0  0  0  0  0  0  0  0  0  0
  141.8630   79.3710  222.3360 C   0  0  0  0  0  0  0  0  0  0  0  0
  141.7820   78.2780  221.4980 C   0  0  0  0  0  0  0  0  0  0  0  0
  140.6780   77.4630  221.6010 C   0  0  0  0  0  0  0  0  0  0  0  0
  139.6450   77.6570  222.4780 C   0  0  0  0  0  0  0  0  0  0  0  0
  139.7330   78.7620  223.3210 C   0  0  0  0  0  0  0  0  0  0  0  0
  138.4500   76.8090  222.6200 C   0  0  0  0  0  0  0  0  0  0  0  0
  138.3670   75.7430  221.5390 C   0  0  0  0  0  0  0  0  0  0  0  0
  139.7240   75.2750  221.2560 N   0  0  0  0  0  0  0  0  0  0  0  0
  140.0960   73.9430  221.5460 C   0  0  0  0  0  0  0  0  0  0  0  0
  140.6300   73.2270  220.5370 N   0  0  0  0  0  0  0  0  0  0  0  0
  140.9890   71.9540  220.7610 C   0  0  0  0  0  0  0  0  0  0  0  0
  141.5460   71.2610  219.6350 N   0  0  0  0  0  0  0  0  0  0  0  0
  142.0270   69.8960  219.7120 C   0  0  0  0  0  0  0  0  0  0  0  0
  143.3930   69.7920  219.0460 C   0  0  2  0  0  0  0  0  0  0  0  0
  143.7960   68.3360  219.0890 C   0  0  0  0  0  0  0  0  0  0  0  0
  145.1630   68.2380  219.7260 C   0  0  0  0  0  0  0  0  0  0  0  0
  146.0590   69.2130  218.9550 C   0  0  0  0  0  0  0  0  0  0  0  0
  145.7050   70.5510  219.3260 N   0  0  0  0  0  0  0  0  0  0  0  0
  144.3400   70.6880  219.7730 C   0  0  0  0  0  0  0  0  0  0  0  0
  140.8260   71.3880  221.9660 N   0  0  0  0  0  0  0  0  0  0  0  0
  140.2870   72.0930  223.0030 C   0  0  0  0  0  0  0  0  0  0  0  0
  140.0970   71.5160  224.2870 N   0  0  0  0  0  0  0  0  0  0  0  0
  141.0370   71.8760  225.3220 C   0  0  0  0  0  0  0  0  0  0  0  0
  140.5300   71.3730  226.6720 C   0  0  0  0  0  0  0  0  0  0  0  0
  140.3440   69.9070  226.4990 C   0  0  0  0  0  0  0  0  0  0  0  0
  140.9020   68.9820  227.3440 C   0  0  0  0  0  0  0  0  0  0  0  0
  140.6620   67.6500  227.0830 C   0  0  0  0  0  0  0  0  0  0  0  0
  139.8860   67.2480  226.0050 C   0  0  0  0  0  0  0  0  0  0  0  0
  139.3160   68.1740  225.1410 C   0  0  0  0  0  0  0  0  0  0  0  0
  139.5690   69.5000  225.4210 C   0  0  0  0  0  0  0  0  0  0  0  0
  139.0120   70.6050  224.5640 C   0  0  0  0  0  0  0  0  0  0  0  0
  139.9390   73.3610  222.7440 N   0  0  0  0  0  0  0  0  0  0  0  0
  140.6150   76.2670  220.6810 C   0  0  0  0  0  0  0  0  0  0  0  0
  140.8865   80.4631  223.9117 H   0  0  0  0  0  0  0  0  0  0  0  0
  142.7263   80.0512  222.2909 H   0  0  0  0  0  0  0  0  0  0  0  0
  142.5771   78.0642  220.7685 H   0  0  0  0  0  0  0  0  0  0  0  0
  138.9331   78.9692  224.0471 H   0  0  0  0  0  0  0  0  0  0  0  0
  138.4815   76.3149  223.6023 H   0  0  0  0  0  0  0  0  0  0  0  0
  137.5653   77.4555  222.5236 H   0  0  0  0  0  0  0  0  0  0  0  0
  137.7489   74.9035  221.8900 H   0  0  0  0  0  0  0  0  0  0  0  0
  137.9099   76.1585  220.6288 H   0  0  0  0  0  0  0  0  0  0  0  0
  141.5800   71.8080  218.7500 H   0  0  0  0  0  0  0  0  0  0  0  0
  142.1116   69.5976  220.7674 H   0  0  0  0  0  0  0  0  0  0  0  0
  141.3191   69.2317  219.1946 H   0  0  0  0  0  0  0  0  0  0  0  0
  143.3883   70.1172  217.9952 H   0  0  0  0  0  0  0  0  0  0  0  0
  143.0671   67.7662  219.6841 H   0  0  0  0  0  0  0  0  0  0  0  0
  143.8230   67.9211  218.0706 H   0  0  0  0  0  0  0  0  0  0  0  0
  145.1116   68.5236  220.7870 H   0  0  0  0  0  0  0  0  0  0  0  0
  145.5547   67.2110  219.6833 H   0  0  0  0  0  0  0  0  0  0  0  0
  147.1133   69.0254  219.2067 H   0  0  0  0  0  0  0  0  0  0  0  0
  145.9207   69.0744  217.8726 H   0  0  0  0  0  0  0  0  0  0  0  0
  146.3630   70.8900  220.0620 H   0  0  0  0  0  0  0  0  0  0  0  0
  144.2969   70.4467  220.8453 H   0  0  0  0  0  0  0  0  0  0  0  0
  144.0313   71.7243  219.5713 H   0  0  0  0  0  0  0  0  0  0  0  0
  142.0137   71.4192  225.1045 H   0  0  0  0  0  0  0  0  0  0  0  0
  141.1417   72.9705  225.3558 H   0  0  0  0  0  0  0  0  0  0  0  0
  141.2682   71.5774  227.4615 H   0  0  0  0  0  0  0  0  0  0  0  0
  139.5971   71.8726  226.9722 H   0  0  0  0  0  0  0  0  0  0  0  0
  141.5194   69.2922  228.1999 H   0  0  0  0  0  0  0  0  0  0  0  0
  141.0963   66.8868  227.7455 H   0  0  0  0  0  0  0  0  0  0  0  0
  139.7191   66.1747  225.8314 H   0  0  0  0  0  0  0  0  0  0  0  0
  138.6989   67.8674  224.2836 H   0  0  0  0  0  0  0  0  0  0  0  0
  138.6176   70.1912  223.6242 H   0  0  0  0  0  0  0  0  0  0  0  0
  138.1886   71.1220  225.0785 H   0  0  0  0  0  0  0  0  0  0  0  0
  141.6208   75.8368  220.5659 H   0  0  0  0  0  0  0  0  0  0  0  0
  140.2398   76.5763  219.6943 H   0  0  0  0  0  0  0  0  0  0  0  0
  1  2  2  0
  2  3  1  0
  3  4  2  0
  4  5  1  0
  5  6  2  0
  5  7  1  0
  7  8  1  0
  8  9  1  0
  9 10  1  0
 10 11  2  0
 11 12  1  0
 12 13  1  0
 13 14  1  0
 14 15  1  0
 15 16  1  0
 16 17  1  0
 17 18  1  0
 18 19  1  0
 19 20  1  0
 12 21  2  0
 21 22  1  0
 22 23  1  0
 23 24  1  0
 24 25  1  0
 25 26  1  0
 26 27  2  0
 27 28  1  0
 28 29  2  0
 29 30  1  0
 30 31  2  0
 31 32  1  0
 22 33  2  0
  9 34  1  0
  6  1  1  0
 33 10  1  0
 34  4  1  0
 20 15  1  0
 32 23  1  0
 31 26  1  0
  1 35  1  0
  2 36  1  0
  3 37  1  0
  6 38  1  0
  7 39  1  0
  7 40  1  0
  8 41  1  0
  8 42  1  0
 13 43  1  0
 14 44  1  0
 14 45  1  0
 15 46  1  6
 16 47  1  0
 16 48  1  0
 17 49  1  0
 17 50  1  0
 18 51  1  0
 18 52  1  0
 19 53  1  0
 20 54  1  0
 20 55  1  0
 24 56  1  0
 24 57  1  0
 25 58  1  0
 25 59  1  0
 27 60  1  0
 28 61  1  0
 29 62  1  0
 30 63  1  0
 32 64  1  0
 32 65  1  0
 34 66  1  0
 34 67  1  0
M  END
>  <smiles>  (36) 
c1ccc2c(c1)CCN(c1nc(NCC3CCCNC3)nc(N3CCc4ccccc4C3)n1)C2

>  <score_type>  (36) 
oracle

>  <origin>  (36) 
autodockgpu

>  <m_score__min__energy>  (36) 
-10.83

>  <m_primary>  (36) 
energy

>  <rmsd>  (36) 
8.165970119458429

>  <m_score__min__rmsd>  (36) 
8.165970119458429

>  <meeko>  (36) 
{"free_energy": -9.5, "intermolecular_energy": -10.99, "internal_energy": -0.92, "cluster_size": 29, "cluster_id": 1, "rank_in_cluster": 18}

>  <energy>  (36) 
-9.64

>  <cluster_rmsd>  (36) 
0.66

>  <cluster>  (36) 
2

$$$$

     RDKit          3D

 67 72  0  0  0  0  0  0  0  0999 V2000
  145.3730   72.4130  216.2500 C   0  0  0  0  0  0  0  0  0  0  0  0
  146.0690   73.3140  217.0510 C   0  0  0  0  0  0  0  0  0  0  0  0
  145.7450   73.3920  218.3900 C   0  0  0  0  0  0  0  0  0  0  0  0
  144.7470   72.5720  218.8640 C   0  0  0  0  0  0  0  0  0  0  0  0
  144.0460   71.6760  218.1030 C   0  0  0  0  0  0  0  0  0  0  0  0
  144.3780   71.6030  216.7520 C   0  0  0  0  0  0  0  0  0  0  0  0
  142.9720   70.7840  218.5700 C   0  0  0  0  0  0  0  0  0  0  0  0
  142.8150   70.8160  220.0830 C   0  0  0  0  0  0  0  0  0  0  0  0
  143.0540   72.1850  220.5370 N   0  0  0  0  0  0  0  0  0  0  0  0
  142.0100   72.9350  221.1250 C   0  0  0  0  0  0  0  0  0  0  0  0
  141.0820   72.2470  221.8170 N   0  0  0  0  0  0  0  0  0  0  0  0
  140.0650   72.9140  222.3840 C   0  0  0  0  0  0  0  0  0  0  0  0
  139.1180   72.1080  223.0990 N   0  0  0  0  0  0  0  0  0  0  0  0
  138.9240   70.6970  222.8290 C   0  0  0  0  0  0  0  0  0  0  0  0
  138.7730   69.9370  224.1400 C   0  0  2  0  0  0  0  0  0  0  0  0
  139.6590   70.6240  225.1540 C   0  0  0  0  0  0  0  0  0  0  0  0
  140.5730   69.5890  225.7670 C   0  0  0  0  0  0  0  0  0  0  0  0
  139.6640   68.4560  226.2520 C   0  0  0  0  0  0  0  0  0  0  0  0
  139.1910   67.7280  225.1130 N   0  0  0  0  0  0  0  0  0  0  0  0
  139.1450   68.5110  223.9020 C   0  0  0  0  0  0  0  0  0  0  0  0
  139.9610   74.2470  222.2730 N   0  0  0  0  0  0  0  0  0  0  0  0
  140.8900   74.9650  221.5770 C   0  0  0  0  0  0  0  0  0  0  0  0
  140.8000   76.3760  221.4390 N   0  0  0  0  0  0  0  0  0  0  0  0
  141.3700   76.9640  220.2490 C   0  0  0  0  0  0  0  0  0  0  0  0
  140.9550   78.4300  220.1520 C   0  0  0  0  0  0  0  0  0  0  0  0
  141.4170   79.0520  221.4220 C   0  0  0  0  0  0  0  0  0  0  0  0
  142.1980   80.1790  221.4570 C   0  0  0  0  0  0  0  0  0  0  0  0
  142.5680   80.6640  222.6940 C   0  0  0  0  0  0  0  0  0  0  0  0
  142.1680   80.0410  223.8680 C   0  0  0  0  0  0  0  0  0  0  0  0
  141.3770   78.9010  223.8470 C   0  0  0  0  0  0  0  0  0  0  0  0
  141.0200   78.4330  222.6010 C   0  0  0  0  0  0  0  0  0  0  0  0
  140.1660   77.2050  222.4360 C   0  0  0  0  0  0  0  0  0  0  0  0
  141.8900   74.2670  221.0240 N   0  0  0  0  0  0  0  0  0  0  0  0
  144.4030   72.6810  220.3310 C   0  0  0  0  0  0  0  0  0  0  0  0
  145.6257   72.3456  215.1815 H   0  0  0  0  0  0  0  0  0  0  0  0
  146.8597   73.9497  216.6259 H   0  0  0  0  0  0  0  0  0  0  0  0
  146.2696   74.0898  219.0593 H   0  0  0  0  0  0  0  0  0  0  0  0
  143.8486   70.9024  216.0896 H   0  0  0  0  0  0  0  0  0  0  0  0
  142.0243   71.0991  218.1089 H   0  0  0  0  0  0  0  0  0  0  0  0
  143.2366   69.7565  218.2798 H   0  0  0  0  0  0  0  0  0  0  0  0
  141.7967   70.5045  220.3586 H   0  0  0  0  0  0  0  0  0  0  0  0
  143.5322   70.1281  220.5546 H   0  0  0  0  0  0  0  0  0  0  0  0
  138.5750   72.6080  223.8340 H   0  0  0  0  0  0  0  0  0  0  0  0
  138.0163   70.5627  222.2224 H   0  0  0  0  0  0  0  0  0  0  0  0
  139.7959   70.3086  222.2823 H   0  0  0  0  0  0  0  0  0  0  0  0
  137.7427   69.9389  224.5254 H   0  0  0  0  0  0  0  0  0  0  0  0
  140.2582   71.4015  224.6576 H   0  0  0  0  0  0  0  0  0  0  0  0
  139.0445   71.0958  225.9349 H   0  0  0  0  0  0  0  0  0  0  0  0
  141.2835   69.2138  225.0157 H   0  0  0  0  0  0  0  0  0  0  0  0
  141.1640   70.0123  226.5926 H   0  0  0  0  0  0  0  0  0  0  0  0
  140.2311   67.7832  226.9121 H   0  0  0  0  0  0  0  0  0  0  0  0
  138.8129   68.8715  226.8115 H   0  0  0  0  0  0  0  0  0  0  0  0
  139.7850   66.8810  224.9740 H   0  0  0  0  0  0  0  0  0  0  0  0
  140.1376   68.4825  223.4289 H   0  0  0  0  0  0  0  0  0  0  0  0
  138.3686   68.0728  223.2576 H   0  0  0  0  0  0  0  0  0  0  0  0
  142.4669   76.8966  220.2968 H   0  0  0  0  0  0  0  0  0  0  0  0
  141.0057   76.4222  219.3637 H   0  0  0  0  0  0  0  0  0  0  0  0
  141.4382   78.9112  219.2889 H   0  0  0  0  0  0  0  0  0  0  0  0
  139.8697   78.5412  220.0112 H   0  0  0  0  0  0  0  0  0  0  0  0
  142.5181   80.6786  220.5308 H   0  0  0  0  0  0  0  0  0  0  0  0
  143.1950   81.5660  222.7515 H   0  0  0  0  0  0  0  0  0  0  0  0
  142.4845   80.4594  224.8348 H   0  0  0  0  0  0  0  0  0  0  0  0
  141.0537   78.4000  224.7714 H   0  0  0  0  0  0  0  0  0  0  0  0
  140.0982   76.6620  223.3902 H   0  0  0  0  0  0  0  0  0  0  0  0
  139.1459   77.4770  222.1270 H   0  0  0  0  0  0  0  0  0  0  0  0
  144.4616   73.7331  220.6466 H   0  0  0  0  0  0  0  0  0  0  0  0
  145.1129   72.0866  220.9249 H   0  0  0  0  0  0  0  0  0  0  0  0
  1  2  2  0
  2  3  1  0
  3  4  2  0
  4  5  1  0
  5  6  2  0
  5  7  1  0
  7  8  1  0
  8  9  1  0
  9 10  1  0
 10 11  2  0
 11 12  1  0
 12 13  1  0
 13 14  1  0
 14 15  1  0
 15 16  1  0
 16 17  1  0
 17 18  1  0
 18 19  1  0
 19 20  1  0
 12 21  2  0
 21 22  1  0
 22 23  1  0
 23 24  1  0
 24 25  1  0
 25 26  1  0
 26 27  2  0
 27 28  1  0
 28 29  2  0
 29 30  1  0
 30 31  2  0
 31 32  1  0
 22 33  2  0
  9 34  1  0
  6  1  1  0
 33 10  1  0
 34  4  1  0
 20 15  1  0
 32 23  1  0
 31 26  1  0
  1 35  1  0
  2 36  1  0
  3 37  1  0
  6 38  1  0
  7 39  1  0
  7 40  1  0
  8 41  1  0
  8 42  1  0
 13 43  1  0
 14 44  1  0
 14 45  1  0
 15 46  1  1
 16 47  1  0
 16 48  1  0
 17 49  1  0
 17 50  1  0
 18 51  1  0
 18 52  1  0
 19 53  1  0
 20 54  1  0
 20 55  1  0
 24 56  1  0
 24 57  1  0
 25 58  1  0
 25 59  1  0
 27 60  1  0
 28 61  1  0
 29 62  1  0
 30 63  1  0
 32 64  1  0
 32 65  1  0
 34 66  1  0
 34 67  1  0
M  END
>  <smiles>  (37) 
c1ccc2c(c1)CCN(c1nc(NCC3CCCNC3)nc(N3CCc4ccccc4C3)n1)C2

>  <score_type>  (37) 
oracle

>  <origin>  (37) 
autodockgpu

>  <m_score__min__energy>  (37) 
-10.83

>  <m_primary>  (37) 
energy

>  <rmsd>  (37) 
9.00780751839014

>  <m_score__min__rmsd>  (37) 
9.00780751839014

>  <meeko>  (37) 
{"free_energy": -9.19, "intermolecular_energy": -10.68, "internal_energy": -1.03, "cluster_size": 15, "cluster_id": 2, "rank_in_cluster": 15}

>  <energy>  (37) 
-9.58

>  <cluster_rmsd>  (37) 
0.99

>  <cluster>  (37) 
2

$$$$

     RDKit          3D

 67 72  0  0  0  0  0  0  0  0999 V2000
  141.2050   80.3930  223.8320 C   0  0  0  0  0  0  0  0  0  0  0  0
  142.2710   80.3250  222.9390 C   0  0  0  0  0  0  0  0  0  0  0  0
  142.2470   79.3560  221.9580 C   0  0  0  0  0  0  0  0  0  0  0  0
  141.1660   78.5050  221.9130 C   0  0  0  0  0  0  0  0  0  0  0  0
  140.1040   78.5480  222.7750 C   0  0  0  0  0  0  0  0  0  0  0  0
  140.1350   79.5280  223.7640 C   0  0  0  0  0  0  0  0  0  0  0  0
  138.9320   77.6560  222.7620 C   0  0  0  0  0  0  0  0  0  0  0  0
  138.9130   76.7470  221.5430 C   0  0  0  0  0  0  0  0  0  0  0  0
  140.2900   76.3600  221.2420 N   0  0  0  0  0  0  0  0  0  0  0  0
  140.6950   75.0110  221.3580 C   0  0  0  0  0  0  0  0  0  0  0  0
  139.9000   74.1980  222.0800 N   0  0  0  0  0  0  0  0  0  0  0  0
  140.2480   72.9110  222.2280 C   0  0  0  0  0  0  0  0  0  0  0  0
  139.3500   72.1130  223.0130 N   0  0  0  0  0  0  0  0  0  0  0  0
  139.2330   70.6770  222.8560 C   0  0  0  0  0  0  0  0  0  0  0  0
  139.0370   70.0230  224.2170 C   0  0  2  0  0  0  0  0  0  0  0  0
  140.0480   70.6400  225.1540 C   0  0  0  0  0  0  0  0  0  0  0  0
  140.8400   69.5280  225.8010 C   0  0  0  0  0  0  0  0  0  0  0  0
  139.8080   68.5600  226.3880 C   0  0  0  0  0  0  0  0  0  0  0  0
  139.1940   67.8390  225.3140 N   0  0  0  0  0  0  0  0  0  0  0  0
  139.2030   68.5480  224.0570 C   0  0  0  0  0  0  0  0  0  0  0  0
  141.3680   72.4250  221.6720 N   0  0  0  0  0  0  0  0  0  0  0  0
  142.1890   73.2310  220.9360 C   0  0  0  0  0  0  0  0  0  0  0  0
  143.3850   72.7440  220.3420 N   0  0  0  0  0  0  0  0  0  0  0  0
  143.9040   73.4690  219.2060 C   0  0  0  0  0  0  0  0  0  0  0  0
  145.3050   72.9620  218.8720 C   0  0  0  0  0  0  0  0  0  0  0  0
  145.1480   71.5000  218.6440 C   0  0  0  0  0  0  0  0  0  0  0  0
  145.5950   70.8730  217.5090 C   0  0  0  0  0  0  0  0  0  0  0  0
  145.3920   69.5130  217.4070 C   0  0  0  0  0  0  0  0  0  0  0  0
  144.7580   68.7950  218.4110 C   0  0  0  0  0  0  0  0  0  0  0  0
  144.3000   69.4180  219.5640 C   0  0  0  0  0  0  0  0  0  0  0  0
  144.5140   70.7770  219.6450 C   0  0  0  0  0  0  0  0  0  0  0  0
  144.0660   71.5740  220.8410 C   0  0  0  0  0  0  0  0  0  0  0  0
  141.8110   74.5090  220.8090 N   0  0  0  0  0  0  0  0  0  0  0  0
  141.1660   77.4450  220.8360 C   0  0  0  0  0  0  0  0  0  0  0  0
  141.2176   81.1628  224.6177 H   0  0  0  0  0  0  0  0  0  0  0  0
  143.1134   81.0283  223.0142 H   0  0  0  0  0  0  0  0  0  0  0  0
  143.0685   79.2657  221.2320 H   0  0  0  0  0  0  0  0  0  0  0  0
  139.3099   79.6109  224.4867 H   0  0  0  0  0  0  0  0  0  0  0  0
  138.9517   77.0326  223.6681 H   0  0  0  0  0  0  0  0  0  0  0  0
  138.0303   78.2851  222.7272 H   0  0  0  0  0  0  0  0  0  0  0  0
  138.3121   75.8506  221.7560 H   0  0  0  0  0  0  0  0  0  0  0  0
  138.4687   77.2714  220.6842 H   0  0  0  0  0  0  0  0  0  0  0  0
  138.7840   72.6390  223.7120 H   0  0  0  0  0  0  0  0  0  0  0  0
  138.3695   70.4491  222.2137 H   0  0  0  0  0  0  0  0  0  0  0  0
  140.1519   70.2863  222.3946 H   0  0  0  0  0  0  0  0  0  0  0  0
  138.0338   70.1884  224.6368 H   0  0  0  0  0  0  0  0  0  0  0  0
  140.7248   71.2980  224.5892 H   0  0  0  0  0  0  0  0  0  0  0  0
  139.5354   71.2359  225.9235 H   0  0  0  0  0  0  0  0  0  0  0  0
  141.4616   69.0157  225.0519 H   0  0  0  0  0  0  0  0  0  0  0  0
  141.5166   69.9146  226.5773 H   0  0  0  0  0  0  0  0  0  0  0  0
  140.3068   67.8554  227.0697 H   0  0  0  0  0  0  0  0  0  0  0  0
  139.0450   69.1196  226.9490 H   0  0  0  0  0  0  0  0  0  0  0  0
  139.6620   66.9110  225.2100 H   0  0  0  0  0  0  0  0  0  0  0  0
  140.1619   68.3559  223.5533 H   0  0  0  0  0  0  0  0  0  0  0  0
  138.3488   68.1832  223.4678 H   0  0  0  0  0  0  0  0  0  0  0  0
  143.2429   73.3153  218.3404 H   0  0  0  0  0  0  0  0  0  0  0  0
  143.9512   74.5412  219.4472 H   0  0  0  0  0  0  0  0  0  0  0  0
  145.6874   73.4546  217.9659 H   0  0  0  0  0  0  0  0  0  0  0  0
  146.0225   73.1773  219.6775 H   0  0  0  0  0  0  0  0  0  0  0  0
  146.0977   71.4353  216.7083 H   0  0  0  0  0  0  0  0  0  0  0  0
  145.7412   68.9843  216.5078 H   0  0  0  0  0  0  0  0  0  0  0  0
  144.6155   67.7109  218.2909 H   0  0  0  0  0  0  0  0  0  0  0  0
  143.7956   68.8594  220.3662 H   0  0  0  0  0  0  0  0  0  0  0  0
  143.3816   70.9742  221.4589 H   0  0  0  0  0  0  0  0  0  0  0  0
  144.9257   71.8586  221.4654 H   0  0  0  0  0  0  0  0  0  0  0  0
  142.1874   77.0617  220.6955 H   0  0  0  0  0  0  0  0  0  0  0  0
  140.8095   77.8766  219.8891 H   0  0  0  0  0  0  0  0  0  0  0  0
  1  2  2  0
  2  3  1  0
  3  4  2  0
  4  5  1  0
  5  6  2  0
  5  7  1  0
  7  8  1  0
  8  9  1  0
  9 10  1  0
 10 11  2  0
 11 12  1  0
 12 13  1  0
 13 14  1  0
 14 15  1  0
 15 16  1  0
 16 17  1  0
 17 18  1  0
 18 19  1  0
 19 20  1  0
 12 21  2  0
 21 22  1  0
 22 23  1  0
 23 24  1  0
 24 25  1  0
 25 26  1  0
 26 27  2  0
 27 28  1  0
 28 29  2  0
 29 30  1  0
 30 31  2  0
 31 32  1  0
 22 33  2  0
  9 34  1  0
  6  1  1  0
 33 10  1  0
 34  4  1  0
 20 15  1  0
 32 23  1  0
 31 26  1  0
  1 35  1  0
  2 36  1  0
  3 37  1  0
  6 38  1  0
  7 39  1  0
  7 40  1  0
  8 41  1  0
  8 42  1  0
 13 43  1  0
 14 44  1  0
 14 45  1  0
 15 46  1  1
 16 47  1  0
 16 48  1  0
 17 49  1  0
 17 50  1  0
 18 51  1  0
 18 52  1  0
 19 53  1  0
 20 54  1  0
 20 55  1  0
 24 56  1  0
 24 57  1  0
 25 58  1  0
 25 59  1  0
 27 60  1  0
 28 61  1  0
 29 62  1  0
 30 63  1  0
 32 64  1  0
 32 65  1  0
 34 66  1  0
 34 67  1  0
M  END
>  <smiles>  (38) 
c1ccc2c(c1)CCN(c1nc(NCC3CCCNC3)nc(N3CCc4ccccc4C3)n1)C2

>  <score_type>  (38) 
oracle

>  <origin>  (38) 
autodockgpu

>  <m_score__min__energy>  (38) 
-10.83

>  <m_primary>  (38) 
energy

>  <rmsd>  (38) 
9.009265612193314

>  <m_score__min__rmsd>  (38) 
9.009265612193314

>  <meeko>  (38) 
{"free_energy": -9.47, "intermolecular_energy": -10.96, "internal_energy": -0.97, "cluster_size": 15, "cluster_id": 2, "rank_in_cluster": 12}

>  <energy>  (38) 
-9.55

>  <cluster_rmsd>  (38) 
0.95

>  <cluster>  (38) 
2

$$$$

     RDKit          3D

 67 72  0  0  0  0  0  0  0  0999 V2000
  140.6890   79.6170  223.1670 C   0  0  0  0  0  0  0  0  0  0  0  0
  141.8030   79.4110  222.3580 C   0  0  0  0  0  0  0  0  0  0  0  0
  141.8270   78.3020  221.5390 C   0  0  0  0  0  0  0  0  0  0  0  0
  140.7420   77.4550  221.5640 C   0  0  0  0  0  0  0  0  0  0  0  0
  139.6330   77.6300  222.3460 C   0  0  0  0  0  0  0  0  0  0  0  0
  139.6170   78.7520  223.1720 C   0  0  0  0  0  0  0  0  0  0  0  0
  138.4570   76.7480  222.4040 C   0  0  0  0  0  0  0  0  0  0  0  0
  138.4990   75.6610  221.3410 C   0  0  0  0  0  0  0  0  0  0  0  0
  139.8870   75.2320  221.1830 N   0  0  0  0  0  0  0  0  0  0  0  0
  140.2730   73.9170  221.5300 C   0  0  0  0  0  0  0  0  0  0  0  0
  140.8890   73.1920  220.5770 N   0  0  0  0  0  0  0  0  0  0  0  0
  141.2650   71.9350  220.8550 C   0  0  0  0  0  0  0  0  0  0  0  0
  141.9110   71.2300  219.7860 N   0  0  0  0  0  0  0  0  0  0  0  0
  142.7860   71.8820  218.8310 C   0  0  0  0  0  0  0  0  0  0  0  0
  144.1830   72.0180  219.4200 C   0  0  2  0  0  0  0  0  0  0  0  0
  144.0310   72.6810  220.7700 C   0  0  0  0  0  0  0  0  0  0  0  0
  144.9340   73.8910  220.8110 C   0  0  0  0  0  0  0  0  0  0  0  0
  146.3250   73.3950  220.4030 C   0  0  0  0  0  0  0  0  0  0  0  0
  146.3230   73.1330  218.9950 N   0  0  0  0  0  0  0  0  0  0  0  0
  145.0200   72.8050  218.4670 C   0  0  0  0  0  0  0  0  0  0  0  0
  141.0380   71.3930  222.0620 N   0  0  0  0  0  0  0  0  0  0  0  0
  140.4150   72.1080  223.0440 C   0  0  0  0  0  0  0  0  0  0  0  0
  140.1570   71.5560  224.3270 N   0  0  0  0  0  0  0  0  0  0  0  0
  141.0630   71.9080  225.3950 C   0  0  0  0  0  0  0  0  0  0  0  0
  140.4880   71.4410  226.7290 C   0  0  0  0  0  0  0  0  0  0  0  0
  140.2690   69.9770  226.5710 C   0  0  0  0  0  0  0  0  0  0  0  0
  140.7660   69.0520  227.4520 C   0  0  0  0  0  0  0  0  0  0  0  0
  140.5020   67.7220  227.2010 C   0  0  0  0  0  0  0  0  0  0  0  0
  139.7610   67.3240  226.0970 C   0  0  0  0  0  0  0  0  0  0  0  0
  139.2520   68.2500  225.1970 C   0  0  0  0  0  0  0  0  0  0  0  0
  139.5290   69.5730  225.4680 C   0  0  0  0  0  0  0  0  0  0  0  0
  139.0380   70.6790  224.5720 C   0  0  0  0  0  0  0  0  0  0  0  0
  140.0540   73.3600  222.7310 N   0  0  0  0  0  0  0  0  0  0  0  0
  140.7940   76.2410  220.6660 C   0  0  0  0  0  0  0  0  0  0  0  0
  140.6640   80.4992  223.8236 H   0  0  0  0  0  0  0  0  0  0  0  0
  142.6459   80.1177  222.3718 H   0  0  0  0  0  0  0  0  0  0  0  0
  142.6879   78.1000  220.8848 H   0  0  0  0  0  0  0  0  0  0  0  0
  138.7530   78.9460  223.8246 H   0  0  0  0  0  0  0  0  0  0  0  0
  138.4198   76.2725  223.3952 H   0  0  0  0  0  0  0  0  0  0  0  0
  137.5643   77.3641  222.2208 H   0  0  0  0  0  0  0  0  0  0  0  0
  137.8790   74.8084  221.6552 H   0  0  0  0  0  0  0  0  0  0  0  0
  138.1089   76.0461  220.3873 H   0  0  0  0  0  0  0  0  0  0  0  0
  141.7100   70.2090  219.7420 H   0  0  0  0  0  0  0  0  0  0  0  0
  142.8346   71.2811  217.9109 H   0  0  0  0  0  0  0  0  0  0  0  0
  142.3904   72.8822  218.6003 H   0  0  0  0  0  0  0  0  0  0  0  0
  144.6876   71.0515  219.5659 H   0  0  0  0  0  0  0  0  0  0  0  0
  142.9860   72.9922  220.9156 H   0  0  0  0  0  0  0  0  0  0  0  0
  144.3053   71.9773  221.5698 H   0  0  0  0  0  0  0  0  0  0  0  0
  144.5792   74.6566  220.1053 H   0  0  0  0  0  0  0  0  0  0  0  0
  144.9474   74.3496  221.8108 H   0  0  0  0  0  0  0  0  0  0  0  0
  147.0756   74.1648  220.6354 H   0  0  0  0  0  0  0  0  0  0  0  0
  146.5729   72.4766  220.9553 H   0  0  0  0  0  0  0  0  0  0  0  0
  146.7220   73.9550  218.4900 H   0  0  0  0  0  0  0  0  0  0  0  0
  144.4931   73.7408  218.2287 H   0  0  0  0  0  0  0  0  0  0  0  0
  145.1754   72.1810  217.5745 H   0  0  0  0  0  0  0  0  0  0  0  0
  142.0352   71.4222  225.2253 H   0  0  0  0  0  0  0  0  0  0  0  0
  141.1956   72.9998  225.4166 H   0  0  0  0  0  0  0  0  0  0  0  0
  141.1985   71.6385  227.5452 H   0  0  0  0  0  0  0  0  0  0  0  0
  139.5575   71.9700  226.9824 H   0  0  0  0  0  0  0  0  0  0  0  0
  141.3549   69.3599  228.3286 H   0  0  0  0  0  0  0  0  0  0  0  0
  140.8879   66.9583  227.8923 H   0  0  0  0  0  0  0  0  0  0  0  0
  139.5733   66.2528  225.9319 H   0  0  0  0  0  0  0  0  0  0  0  0
  138.6625   67.9462  224.3194 H   0  0  0  0  0  0  0  0  0  0  0  0
  138.6716   70.2609  223.6228 H   0  0  0  0  0  0  0  0  0  0  0  0
  138.2086   71.2258  225.0442 H   0  0  0  0  0  0  0  0  0  0  0  0
  141.8184   75.8407  220.6459 H   0  0  0  0  0  0  0  0  0  0  0  0
  140.4959   76.5208  219.6448 H   0  0  0  0  0  0  0  0  0  0  0  0
  1  2  2  0
  2  3  1  0
  3  4  2  0
  4  5  1  0
  5  6  2  0
  5  7  1  0
  7  8  1  0
  8  9  1  0
  9 10  1  0
 10 11  2  0
 11 12  1  0
 12 13  1  0
 13 14  1  0
 14 15  1  0
 15 16  1  0
 16 17  1  0
 17 18  1  0
 18 19  1  0
 19 20  1  0
 12 21  2  0
 21 22  1  0
 22 23  1  0
 23 24  1  0
 24 25  1  0
 25 26  1  0
 26 27  2  0
 27 28  1  0
 28 29  2  0
 29 30  1  0
 30 31  2  0
 31 32  1  0
 22 33  2  0
  9 34  1  0
  6  1  1  0
 33 10  1  0
 34  4  1  0
 20 15  1  0
 32 23  1  0
 31 26  1  0
  1 35  1  0
  2 36  1  0
  3 37  1  0
  6 38  1  0
  7 39  1  0
  7 40  1  0
  8 41  1  0
  8 42  1  0
 13 43  1  0
 14 44  1  0
 14 45  1  0
 15 46  1  1
 16 47  1  0
 16 48  1  0
 17 49  1  0
 17 50  1  0
 18 51  1  0
 18 52  1  0
 19 53  1  0
 20 54  1  0
 20 55  1  0
 24 56  1  0
 24 57  1  0
 25 58  1  0
 25 59  1  0
 27 60  1  0
 28 61  1  0
 29 62  1  0
 30 63  1  0
 32 64  1  0
 32 65  1  0
 34 66  1  0
 34 67  1  0
M  END
>  <smiles>  (39) 
c1ccc2c(c1)CCN(c1nc(NCC3CCCNC3)nc(N3CCc4ccccc4C3)n1)C2

>  <score_type>  (39) 
oracle

>  <origin>  (39) 
autodockgpu

>  <m_score__min__energy>  (39) 
-10.83

>  <m_primary>  (39) 
energy

>  <rmsd>  (39) 
6.118735928625534

>  <m_score__min__rmsd>  (39) 
6.118735928625534

>  <meeko>  (39) 
{"free_energy": -10.83, "intermolecular_energy": -12.32, "internal_energy": -1.02, "cluster_size": 29, "cluster_id": 1, "rank_in_cluster": 1}

>  <energy>  (39) 
-9.53

>  <cluster_rmsd>  (39) 
1.07

>  <cluster>  (39) 
2

$$$$

     RDKit          3D

 67 72  0  0  0  0  0  0  0  0999 V2000
  140.2780   67.7950  225.6950 C   0  0  0  0  0  0  0  0  0  0  0  0
  141.1900   68.6360  226.3290 C   0  0  0  0  0  0  0  0  0  0  0  0
  141.1730   69.9790  226.0180 C   0  0  0  0  0  0  0  0  0  0  0  0
  140.2510   70.4190  225.0950 C   0  0  0  0  0  0  0  0  0  0  0  0
  139.3420   69.6190  224.4580 C   0  0  0  0  0  0  0  0  0  0  0  0
  139.3660   68.2630  224.7750 C   0  0  0  0  0  0  0  0  0  0  0  0
  138.3450   70.0500  223.4650 C   0  0  0  0  0  0  0  0  0  0  0  0
  138.2850   71.5630  223.3260 C   0  0  0  0  0  0  0  0  0  0  0  0
  139.6440   72.0860  223.4620 N   0  0  0  0  0  0  0  0  0  0  0  0
  140.2760   72.7220  222.3690 C   0  0  0  0  0  0  0  0  0  0  0  0
  140.8710   71.9240  221.4620 N   0  0  0  0  0  0  0  0  0  0  0  0
  141.4950   72.4810  220.4130 C   0  0  0  0  0  0  0  0  0  0  0  0
  142.1050   71.5630  219.4960 N   0  0  0  0  0  0  0  0  0  0  0  0
  143.1460   70.6330  219.8900 C   0  0  0  0  0  0  0  0  0  0  0  0
  144.4730   71.3680  220.0170 C   0  0  2  0  0  0  0  0  0  0  0  0
  144.3610   72.2810  221.2160 C   0  0  0  0  0  0  0  0  0  0  0  0
  144.7190   73.6830  220.7830 C   0  0  0  0  0  0  0  0  0  0  0  0
  146.0770   73.5750  220.0820 C   0  0  0  0  0  0  0  0  0  0  0  0
  145.8850   72.9600  218.8030 N   0  0  0  0  0  0  0  0  0  0  0  0
  144.7290   72.0990  218.7400 C   0  0  0  0  0  0  0  0  0  0  0  0
  141.5330   73.8130  220.2550 N   0  0  0  0  0  0  0  0  0  0  0  0
  140.9360   74.6420  221.1610 C   0  0  0  0  0  0  0  0  0  0  0  0
  140.9680   76.0560  221.0210 N   0  0  0  0  0  0  0  0  0  0  0  0
  142.0270   76.6190  220.2180 C   0  0  0  0  0  0  0  0  0  0  0  0
  141.7520   78.1000  219.9720 C   0  0  0  0  0  0  0  0  0  0  0  0
  141.6240   78.7050  221.3250 C   0  0  0  0  0  0  0  0  0  0  0  0
  142.3500   79.7990  221.7220 C   0  0  0  0  0  0  0  0  0  0  0  0
  142.1490   80.2700  223.0020 C   0  0  0  0  0  0  0  0  0  0  0  0
  141.2480   79.6650  223.8670 C   0  0  0  0  0  0  0  0  0  0  0  0
  140.5080   78.5570  223.4780 C   0  0  0  0  0  0  0  0  0  0  0  0
  140.7240   78.1030  222.1950 C   0  0  0  0  0  0  0  0  0  0  0  0
  139.9880   76.9090  221.6480 C   0  0  0  0  0  0  0  0  0  0  0  0
  140.3240   74.0520  222.1960 N   0  0  0  0  0  0  0  0  0  0  0  0
  140.2570   71.8940  224.7630 C   0  0  0  0  0  0  0  0  0  0  0  0
  140.2865   66.7220  225.9371 H   0  0  0  0  0  0  0  0  0  0  0  0
  141.9076   68.2374  227.0613 H   0  0  0  0  0  0  0  0  0  0  0  0
  141.8758   70.6789  226.4936 H   0  0  0  0  0  0  0  0  0  0  0  0
  138.6607   67.5698  224.2934 H   0  0  0  0  0  0  0  0  0  0  0  0
  138.6070   69.6153  222.4891 H   0  0  0  0  0  0  0  0  0  0  0  0
  137.3584   69.7043  223.8071 H   0  0  0  0  0  0  0  0  0  0  0  0
  137.8794   71.8310  222.3393 H   0  0  0  0  0  0  0  0  0  0  0  0
  137.6325   71.9913  224.1011 H   0  0  0  0  0  0  0  0  0  0  0  0
  141.7470   71.6070  218.5190 H   0  0  0  0  0  0  0  0  0  0  0  0
  142.8847   70.1812  220.8583 H   0  0  0  0  0  0  0  0  0  0  0  0
  143.2381   69.8463  219.1267 H   0  0  0  0  0  0  0  0  0  0  0  0
  145.3275   70.6941  220.1770 H   0  0  0  0  0  0  0  0  0  0  0  0
  143.3310   72.2630  221.6017 H   0  0  0  0  0  0  0  0  0  0  0  0
  145.0427   71.9455  222.0114 H   0  0  0  0  0  0  0  0  0  0  0  0
  143.9606   74.0739  220.0888 H   0  0  0  0  0  0  0  0  0  0  0  0
  144.7619   74.3708  221.6404 H   0  0  0  0  0  0  0  0  0  0  0  0
  146.5062   74.5791  219.9494 H   0  0  0  0  0  0  0  0  0  0  0  0
  146.7658   72.9697  220.6897 H   0  0  0  0  0  0  0  0  0  0  0  0
  145.8260   73.7000  218.0700 H   0  0  0  0  0  0  0  0  0  0  0  0
  143.8472   72.7133  218.5054 H   0  0  0  0  0  0  0  0  0  0  0  0
  144.9237   71.3446  217.9634 H   0  0  0  0  0  0  0  0  0  0  0  0
  142.9855   76.5076  220.7461 H   0  0  0  0  0  0  0  0  0  0  0  0
  142.0739   76.0914  219.2539 H   0  0  0  0  0  0  0  0  0  0  0  0
  142.5855   78.5604  219.4212 H   0  0  0  0  0  0  0  0  0  0  0  0
  140.8468   78.2542  219.3663 H   0  0  0  0  0  0  0  0  0  0  0  0
  143.0672   80.2834  221.0431 H   0  0  0  0  0  0  0  0  0  0  0  0
  142.7168   81.1470  223.3462 H   0  0  0  0  0  0  0  0  0  0  0  0
  141.1178   80.0715  224.8808 H   0  0  0  0  0  0  0  0  0  0  0  0
  139.7907   78.0696  224.1547 H   0  0  0  0  0  0  0  0  0  0  0  0
  139.4854   76.3694  222.4642 H   0  0  0  0  0  0  0  0  0  0  0  0
  139.2205   77.2206  220.9242 H   0  0  0  0  0  0  0  0  0  0  0  0
  141.2930   72.2632  224.7411 H   0  0  0  0  0  0  0  0  0  0  0  0
  139.6927   72.4498  225.5263 H   0  0  0  0  0  0  0  0  0  0  0  0
  1  2  2  0
  2  3  1  0
  3  4  2  0
  4  5  1  0
  5  6  2  0
  5  7  1  0
  7  8  1  0
  8  9  1  0
  9 10  1  0
 10 11  2  0
 11 12  1  0
 12 13  1  0
 13 14  1  0
 14 15  1  0
 15 16  1  0
 16 17  1  0
 17 18  1  0
 18 19  1  0
 19 20  1  0
 12 21  2  0
 21 22  1  0
 22 23  1  0
 23 24  1  0
 24 25  1  0
 25 26  1  0
 26 27  2  0
 27 28  1  0
 28 29  2  0
 29 30  1  0
 30 31  2  0
 31 32  1  0
 22 33  2  0
  9 34  1  0
  6  1  1  0
 33 10  1  0
 34  4  1  0
 20 15  1  0
 32 23  1  0
 31 26  1  0
  1 35  1  0
  2 36  1  0
  3 37  1  0
  6 38  1  0
  7 39  1  0
  7 40  1  0
  8 41  1  0
  8 42  1  0
 13 43  1  0
 14 44  1  0
 14 45  1  0
 15 46  1  1
 16 47  1  0
 16 48  1  0
 17 49  1  0
 17 50  1  0
 18 51  1  0
 18 52  1  0
 19 53  1  0
 20 54  1  0
 20 55  1  0
 24 56  1  0
 24 57  1  0
 25 58  1  0
 25 59  1  0
 27 60  1  0
 28 61  1  0
 29 62  1  0
 30 63  1  0
 32 64  1  0
 32 65  1  0
 34 66  1  0
 34 67  1  0
M  END
>  <smiles>  (40) 
c1ccc2c(c1)CCN(c1nc(NCC3CCCNC3)nc(N3CCc4ccccc4C3)n1)C2

>  <score_type>  (40) 
oracle

>  <origin>  (40) 
autodockgpu

>  <m_score__min__energy>  (40) 
-10.83

>  <m_primary>  (40) 
energy

>  <rmsd>  (40) 
6.627964926772512

>  <m_score__min__rmsd>  (40) 
6.627964926772512

>  <meeko>  (40) 
{"free_energy": -9.65, "intermolecular_energy": -11.14, "internal_energy": -1.34, "cluster_size": 29, "cluster_id": 1, "rank_in_cluster": 13}

>  <energy>  (40) 
-9.51

>  <cluster_rmsd>  (40) 
0.66

>  <cluster>  (40) 
2

$$$$

     RDKit          3D

 67 72  0  0  0  0  0  0  0  0999 V2000
  141.5100   80.6970  223.9100 C   0  0  0  0  0  0  0  0  0  0  0  0
  142.5880   80.6680  223.0300 C   0  0  0  0  0  0  0  0  0  0  0  0
  142.5780   79.7450  222.0060 C   0  0  0  0  0  0  0  0  0  0  0  0
  141.4980   78.8970  221.9080 C   0  0  0  0  0  0  0  0  0  0  0  0
  140.4240   78.9020  222.7560 C   0  0  0  0  0  0  0  0  0  0  0  0
  140.4410   79.8370  223.7880 C   0  0  0  0  0  0  0  0  0  0  0  0
  139.2530   78.0120  222.6870 C   0  0  0  0  0  0  0  0  0  0  0  0
  139.2500   77.1590  221.4280 C   0  0  0  0  0  0  0  0  0  0  0  0
  140.6320   76.7850  221.1290 N   0  0  0  0  0  0  0  0  0  0  0  0
  141.0360   75.4320  221.1910 C   0  0  0  0  0  0  0  0  0  0  0  0
  140.3040   74.6150  221.9730 N   0  0  0  0  0  0  0  0  0  0  0  0
  140.6540   73.3230  222.0720 C   0  0  0  0  0  0  0  0  0  0  0  0
  139.8270   72.5210  222.9270 N   0  0  0  0  0  0  0  0  0  0  0  0
  140.0990   71.1240  223.1980 C   0  0  0  0  0  0  0  0  0  0  0  0
  139.6090   70.7640  224.5940 C   0  0  2  0  0  0  0  0  0  0  0  0
  140.6850   71.1920  225.5650 C   0  0  0  0  0  0  0  0  0  0  0  0
  141.0500   70.0060  226.4270 C   0  0  0  0  0  0  0  0  0  0  0  0
  139.7310   69.4780  226.9990 C   0  0  0  0  0  0  0  0  0  0  0  0
  139.0100   68.8160  225.9530 N   0  0  0  0  0  0  0  0  0  0  0  0
  139.3310   69.2980  224.6310 C   0  0  0  0  0  0  0  0  0  0  0  0
  141.7140   72.8370  221.4080 N   0  0  0  0  0  0  0  0  0  0  0  0
  142.4700   73.6470  220.6100 C   0  0  0  0  0  0  0  0  0  0  0  0
  143.6010   73.1600  219.9020 N   0  0  0  0  0  0  0  0  0  0  0  0
  143.8690   73.7340  218.6040 C   0  0  0  0  0  0  0  0  0  0  0  0
  145.2440   73.2830  218.1180 C   0  0  0  0  0  0  0  0  0  0  0  0
  145.1950   71.7960  218.1300 C   0  0  0  0  0  0  0  0  0  0  0  0
  145.5210   71.0330  217.0380 C   0  0  0  0  0  0  0  0  0  0  0  0
  145.4350   69.6620  217.1660 C   0  0  0  0  0  0  0  0  0  0  0  0
  145.0350   69.0670  218.3540 C   0  0  0  0  0  0  0  0  0  0  0  0
  144.7010   69.8280  219.4660 C   0  0  0  0  0  0  0  0  0  0  0  0
  144.7930   71.1950  219.3160 C   0  0  0  0  0  0  0  0  0  0  0  0
  144.4600   72.1350  220.4430 C   0  0  0  0  0  0  0  0  0  0  0  0
  142.0920   74.9300  220.5340 N   0  0  0  0  0  0  0  0  0  0  0  0
  141.5130   77.8870  220.7850 C   0  0  0  0  0  0  0  0  0  0  0  0
  141.5118   81.4306  224.7296 H   0  0  0  0  0  0  0  0  0  0  0  0
  143.4296   81.3663  223.1490 H   0  0  0  0  0  0  0  0  0  0  0  0
  143.4092   79.6878  221.2878 H   0  0  0  0  0  0  0  0  0  0  0  0
  139.6055   79.8884  224.5016 H   0  0  0  0  0  0  0  0  0  0  0  0
  139.2610   77.3482  223.5641 H   0  0  0  0  0  0  0  0  0  0  0  0
  138.3517   78.6424  222.6686 H   0  0  0  0  0  0  0  0  0  0  0  0
  138.6461   76.2543  221.5920 H   0  0  0  0  0  0  0  0  0  0  0  0
  138.8172   77.7216  220.5876 H   0  0  0  0  0  0  0  0  0  0  0  0
  139.0110   73.0150  223.3450 H   0  0  0  0  0  0  0  0  0  0  0  0
  139.5787   70.5002  222.4563 H   0  0  0  0  0  0  0  0  0  0  0  0
  141.1829   70.9467  223.1368 H   0  0  0  0  0  0  0  0  0  0  0  0
  138.6741   71.2742  224.8692 H   0  0  0  0  0  0  0  0  0  0  0  0
  141.5709   71.5345  225.0102 H   0  0  0  0  0  0  0  0  0  0  0  0
  140.3196   72.0174  226.1936 H   0  0  0  0  0  0  0  0  0  0  0  0
  141.5417   69.2304  225.8215 H   0  0  0  0  0  0  0  0  0  0  0  0
  141.7510   70.2892  227.2260 H   0  0  0  0  0  0  0  0  0  0  0  0
  139.9383   68.7676  227.8128 H   0  0  0  0  0  0  0  0  0  0  0  0
  139.1339   70.3120  227.3965 H   0  0  0  0  0  0  0  0  0  0  0  0
  139.1810   67.7870  226.0150 H   0  0  0  0  0  0  0  0  0  0  0  0
  140.2221   68.7634  224.2702 H   0  0  0  0  0  0  0  0  0  0  0  0
  138.4541   69.1141  223.9929 H   0  0  0  0  0  0  0  0  0  0  0  0
  143.1011   73.4003  217.8906 H   0  0  0  0  0  0  0  0  0  0  0  0
  143.8502   74.8313  218.6791 H   0  0  0  0  0  0  0  0  0  0  0  0
  145.4340   73.6543  217.1001 H   0  0  0  0  0  0  0  0  0  0  0  0
  146.0524   73.6723  218.7543 H   0  0  0  0  0  0  0  0  0  0  0  0
  145.8398   71.4978  216.0933 H   0  0  0  0  0  0  0  0  0  0  0  0
  145.6896   69.0254  216.3058 H   0  0  0  0  0  0  0  0  0  0  0  0
  144.9815   67.9701  218.4159 H   0  0  0  0  0  0  0  0  0  0  0  0
  144.3814   69.3667  220.4121 H   0  0  0  0  0  0  0  0  0  0  0  0
  143.9398   71.5920  221.2458 H   0  0  0  0  0  0  0  0  0  0  0  0
  145.3741   72.5751  220.8682 H   0  0  0  0  0  0  0  0  0  0  0  0
  142.5364   77.5101  220.6415 H   0  0  0  0  0  0  0  0  0  0  0  0
  141.1692   78.3612  219.8539 H   0  0  0  0  0  0  0  0  0  0  0  0
  1  2  2  0
  2  3  1  0
  3  4  2  0
  4  5  1  0
  5  6  2  0
  5  7  1  0
  7  8  1  0
  8  9  1  0
  9 10  1  0
 10 11  2  0
 11 12  1  0
 12 13  1  0
 13 14  1  0
 14 15  1  0
 15 16  1  0
 16 17  1  0
 17 18  1  0
 18 19  1  0
 19 20  1  0
 12 21  2  0
 21 22  1  0
 22 23  1  0
 23 24  1  0
 24 25  1  0
 25 26  1  0
 26 27  2  0
 27 28  1  0
 28 29  2  0
 29 30  1  0
 30 31  2  0
 31 32  1  0
 22 33  2  0
  9 34  1  0
  6  1  1  0
 33 10  1  0
 34  4  1  0
 20 15  1  0
 32 23  1  0
 31 26  1  0
  1 35  1  0
  2 36  1  0
  3 37  1  0
  6 38  1  0
  7 39  1  0
  7 40  1  0
  8 41  1  0
  8 42  1  0
 13 43  1  0
 14 44  1  0
 14 45  1  0
 15 46  1  1
 16 47  1  0
 16 48  1  0
 17 49  1  0
 17 50  1  0
 18 51  1  0
 18 52  1  0
 19 53  1  0
 20 54  1  0
 20 55  1  0
 24 56  1  0
 24 57  1  0
 25 58  1  0
 25 59  1  0
 27 60  1  0
 28 61  1  0
 29 62  1  0
 30 63  1  0
 32 64  1  0
 32 65  1  0
 34 66  1  0
 34 67  1  0
M  END
>  <smiles>  (41) 
c1ccc2c(c1)CCN(c1nc(NCC3CCCNC3)nc(N3CCc4ccccc4C3)n1)C2

>  <score_type>  (41) 
oracle

>  <origin>  (41) 
autodockgpu

>  <m_score__min__energy>  (41) 
-10.83

>  <m_primary>  (41) 
energy

>  <rmsd>  (41) 
8.798718471759523

>  <m_score__min__rmsd>  (41) 
8.798718471759523

>  <meeko>  (41) 
{"free_energy": -9.33, "intermolecular_energy": -10.82, "internal_energy": -0.9, "cluster_size": 15, "cluster_id": 2, "rank_in_cluster": 13}

>  <energy>  (41) 
-9.47

>  <cluster_rmsd>  (41) 
1.26

>  <cluster>  (41) 
2

$$$$

     RDKit          3D

 67 72  0  0  0  0  0  0  0  0999 V2000
  140.9500   79.5520  223.2800 C   0  0  0  0  0  0  0  0  0  0  0  0
  141.9470   79.3010  222.3420 C   0  0  0  0  0  0  0  0  0  0  0  0
  141.7970   78.2230  221.4940 C   0  0  0  0  0  0  0  0  0  0  0  0
  140.6650   77.4510  221.6220 C   0  0  0  0  0  0  0  0  0  0  0  0
  139.6680   77.6720  222.5330 C   0  0  0  0  0  0  0  0  0  0  0  0
  139.8260   78.7620  223.3860 C   0  0  0  0  0  0  0  0  0  0  0  0
  138.4460   76.8700  222.7030 C   0  0  0  0  0  0  0  0  0  0  0  0
  138.2880   75.8220  221.6120 C   0  0  0  0  0  0  0  0  0  0  0  0
  139.6150   75.3060  221.2800 N   0  0  0  0  0  0  0  0  0  0  0  0
  139.9440   73.9560  221.5430 C   0  0  0  0  0  0  0  0  0  0  0  0
  140.3560   73.2170  220.4960 N   0  0  0  0  0  0  0  0  0  0  0  0
  140.6690   71.9270  220.6920 C   0  0  0  0  0  0  0  0  0  0  0  0
  141.0960   71.2080  219.5260 N   0  0  0  0  0  0  0  0  0  0  0  0
  142.4780   71.1680  219.0900 C   0  0  0  0  0  0  0  0  0  0  0  0
  143.2490   72.3240  219.7110 C   0  0  2  0  0  0  0  0  0  0  0  0
  144.0660   72.9540  218.6070 C   0  0  0  0  0  0  0  0  0  0  0  0
  145.5090   73.0080  219.0520 C   0  0  0  0  0  0  0  0  0  0  0  0
  145.5020   73.6900  220.4240 C   0  0  0  0  0  0  0  0  0  0  0  0
  144.9760   72.7710  221.3890 N   0  0  0  0  0  0  0  0  0  0  0  0
  144.0810   71.7880  220.8280 C   0  0  0  0  0  0  0  0  0  0  0  0
  140.5790   71.3670  221.9090 N   0  0  0  0  0  0  0  0  0  0  0  0
  140.1630   72.0980  222.9850 C   0  0  0  0  0  0  0  0  0  0  0  0
  140.0520   71.5290  224.2820 N   0  0  0  0  0  0  0  0  0  0  0  0
  141.0600   71.8860  225.2520 C   0  0  0  0  0  0  0  0  0  0  0  0
  140.6380   71.3960  226.6340 C   0  0  0  0  0  0  0  0  0  0  0  0
  140.4290   69.9300  226.4820 C   0  0  0  0  0  0  0  0  0  0  0  0
  141.0320   69.0050  227.2950 C   0  0  0  0  0  0  0  0  0  0  0  0
  140.7650   67.6730  227.0580 C   0  0  0  0  0  0  0  0  0  0  0  0
  139.9180   67.2730  226.0340 C   0  0  0  0  0  0  0  0  0  0  0  0
  139.3010   68.1990  225.2040 C   0  0  0  0  0  0  0  0  0  0  0  0
  139.5820   69.5240  225.4590 C   0  0  0  0  0  0  0  0  0  0  0  0
  138.9800   70.6290  224.6330 C   0  0  0  0  0  0  0  0  0  0  0  0
  139.8590   73.3810  222.7510 N   0  0  0  0  0  0  0  0  0  0  0  0
  140.5270   76.2700  220.6890 C   0  0  0  0  0  0  0  0  0  0  0  0
  141.0630   80.4097  223.9594 H   0  0  0  0  0  0  0  0  0  0  0  0
  142.8347   79.9475  222.2781 H   0  0  0  0  0  0  0  0  0  0  0  0
  142.5601   77.9875  220.7376 H   0  0  0  0  0  0  0  0  0  0  0  0
  139.0581   78.9907  224.1397 H   0  0  0  0  0  0  0  0  0  0  0  0
  138.4886   76.3623  223.6779 H   0  0  0  0  0  0  0  0  0  0  0  0
  137.5846   77.5515  222.6428 H   0  0  0  0  0  0  0  0  0  0  0  0
  137.6490   75.0024  221.9725 H   0  0  0  0  0  0  0  0  0  0  0  0
  137.8193   76.2671  220.7219 H   0  0  0  0  0  0  0  0  0  0  0  0
  140.3400   70.7110  219.0100 H   0  0  0  0  0  0  0  0  0  0  0  0
  142.9321   70.2163  219.4031 H   0  0  0  0  0  0  0  0  0  0  0  0
  142.5154   71.2541  217.9940 H   0  0  0  0  0  0  0  0  0  0  0  0
  142.5965   73.0980  220.1413 H   0  0  0  0  0  0  0  0  0  0  0  0
  143.9820   72.3497  217.6917 H   0  0  0  0  0  0  0  0  0  0  0  0
  143.6975   73.9688  218.3965 H   0  0  0  0  0  0  0  0  0  0  0  0
  145.9226   71.9919  219.1323 H   0  0  0  0  0  0  0  0  0  0  0  0
  146.1327   73.5577  218.3317 H   0  0  0  0  0  0  0  0  0  0  0  0
  146.5279   73.9728  220.7024 H   0  0  0  0  0  0  0  0  0  0  0  0
  144.8793   74.5961  220.3899 H   0  0  0  0  0  0  0  0  0  0  0  0
  145.7660   72.3010  221.8840 H   0  0  0  0  0  0  0  0  0  0  0  0
  144.6790   70.9471  220.4469 H   0  0  0  0  0  0  0  0  0  0  0  0
  143.3939   71.4753  221.6281 H   0  0  0  0  0  0  0  0  0  0  0  0
  142.0165   71.4190  224.9745 H   0  0  0  0  0  0  0  0  0  0  0  0
  141.1759   72.9797  225.2722 H   0  0  0  0  0  0  0  0  0  0  0  0
  141.4276   71.5984  227.3726 H   0  0  0  0  0  0  0  0  0  0  0  0
  139.7309   71.9055  226.9913 H   0  0  0  0  0  0  0  0  0  0  0  0
  141.7052   69.3147  228.1079 H   0  0  0  0  0  0  0  0  0  0  0  0
  141.2345   66.9095  227.6957 H   0  0  0  0  0  0  0  0  0  0  0  0
  139.7318   66.2003  225.8768 H   0  0  0  0  0  0  0  0  0  0  0  0
  138.6271   67.8931  224.3902 H   0  0  0  0  0  0  0  0  0  0  0  0
  138.5229   70.2135  223.7228 H   0  0  0  0  0  0  0  0  0  0  0  0
  138.1954   71.1556  225.1961 H   0  0  0  0  0  0  0  0  0  0  0  0
  141.5111   75.8023  220.5376 H   0  0  0  0  0  0  0  0  0  0  0  0
  140.1348   76.6066  219.7180 H   0  0  0  0  0  0  0  0  0  0  0  0
  1  2  2  0
  2  3  1  0
  3  4  2  0
  4  5  1  0
  5  6  2  0
  5  7  1  0
  7  8  1  0
  8  9  1  0
  9 10  1  0
 10 11  2  0
 11 12  1  0
 12 13  1  0
 13 14  1  0
 14 15  1  0
 15 16  1  0
 16 17  1  0
 17 18  1  0
 18 19  1  0
 19 20  1  0
 12 21  2  0
 21 22  1  0
 22 23  1  0
 23 24  1  0
 24 25  1  0
 25 26  1  0
 26 27  2  0
 27 28  1  0
 28 29  2  0
 29 30  1  0
 30 31  2  0
 31 32  1  0
 22 33  2  0
  9 34  1  0
  6  1  1  0
 33 10  1  0
 34  4  1  0
 20 15  1  0
 32 23  1  0
 31 26  1  0
  1 35  1  0
  2 36  1  0
  3 37  1  0
  6 38  1  0
  7 39  1  0
  7 40  1  0
  8 41  1  0
  8 42  1  0
 13 43  1  0
 14 44  1  0
 14 45  1  0
 15 46  1  1
 16 47  1  0
 16 48  1  0
 17 49  1  0
 17 50  1  0
 18 51  1  0
 18 52  1  0
 19 53  1  0
 20 54  1  0
 20 55  1  0
 24 56  1  0
 24 57  1  0
 25 58  1  0
 25 59  1  0
 27 60  1  0
 28 61  1  0
 29 62  1  0
 30 63  1  0
 32 64  1  0
 32 65  1  0
 34 66  1  0
 34 67  1  0
M  END
>  <smiles>  (42) 
c1ccc2c(c1)CCN(c1nc(NCC3CCCNC3)nc(N3CCc4ccccc4C3)n1)C2

>  <score_type>  (42) 
oracle

>  <origin>  (42) 
autodockgpu

>  <m_score__min__energy>  (42) 
-10.83

>  <m_primary>  (42) 
energy

>  <rmsd>  (42) 
6.018806074545361

>  <m_score__min__rmsd>  (42) 
6.018806074545361

>  <meeko>  (42) 
{"free_energy": -9.57, "intermolecular_energy": -11.07, "internal_energy": -1.28, "cluster_size": 29, "cluster_id": 1, "rank_in_cluster": 16}

>  <energy>  (42) 
-9.33

>  <cluster_rmsd>  (42) 
1.18

>  <cluster>  (42) 
2

$$$$

     RDKit          3D

 67 72  0  0  0  0  0  0  0  0999 V2000
  140.3860   67.4680  226.4470 C   0  0  0  0  0  0  0  0  0  0  0  0
  141.0330   68.4590  227.1810 C   0  0  0  0  0  0  0  0  0  0  0  0
  140.8860   69.7720  226.7860 C   0  0  0  0  0  0  0  0  0  0  0  0
  140.1040   70.0340  225.6840 C   0  0  0  0  0  0  0  0  0  0  0  0
  139.4550   69.0830  224.9440 C   0  0  0  0  0  0  0  0  0  0  0  0
  139.6090   67.7580  225.3480 C   0  0  0  0  0  0  0  0  0  0  0  0
  138.6140   69.3200  223.7600 C   0  0  0  0  0  0  0  0  0  0  0  0
  138.3690   70.8010  223.5150 C   0  0  0  0  0  0  0  0  0  0  0  0
  139.5890   71.5280  223.8620 N   0  0  0  0  0  0  0  0  0  0  0  0
  140.3220   72.2110  222.8640 C   0  0  0  0  0  0  0  0  0  0  0  0
  141.2320   71.4920  222.1790 N   0  0  0  0  0  0  0  0  0  0  0  0
  141.9600   72.0990  221.2290 C   0  0  0  0  0  0  0  0  0  0  0  0
  142.9080   71.2650  220.5490 N   0  0  0  0  0  0  0  0  0  0  0  0
  144.1000   71.7890  219.9110 C   0  0  0  0  0  0  0  0  0  0  0  0
  143.7080   72.7120  218.7650 C   0  0  2  0  0  0  0  0  0  0  0  0
  144.4120   72.2050  217.5280 C   0  0  0  0  0  0  0  0  0  0  0  0
  145.1870   73.3490  216.9180 C   0  0  0  0  0  0  0  0  0  0  0  0
  144.1890   74.5000  216.7600 C   0  0  0  0  0  0  0  0  0  0  0  0
  143.9120   75.0470  218.0540 N   0  0  0  0  0  0  0  0  0  0  0  0
  144.0930   74.1070  219.1340 C   0  0  0  0  0  0  0  0  0  0  0  0
  141.7950   73.4020  220.9540 N   0  0  0  0  0  0  0  0  0  0  0  0
  140.8790   74.1500  221.6350 C   0  0  0  0  0  0  0  0  0  0  0  0
  140.6900   75.5330  221.3680 N   0  0  0  0  0  0  0  0  0  0  0  0
  141.1230   76.0250  220.0820 C   0  0  0  0  0  0  0  0  0  0  0  0
  140.6110   77.4480  219.8790 C   0  0  0  0  0  0  0  0  0  0  0  0
  141.1350   78.2220  221.0370 C   0  0  0  0  0  0  0  0  0  0  0  0
  141.8450   79.3860  220.8920 C   0  0  0  0  0  0  0  0  0  0  0  0
  142.2830   80.0150  222.0390 C   0  0  0  0  0  0  0  0  0  0  0  0
  142.0200   79.4960  223.2990 C   0  0  0  0  0  0  0  0  0  0  0  0
  141.3030   78.3180  223.4590 C   0  0  0  0  0  0  0  0  0  0  0  0
  140.8750   77.7060  222.3000 C   0  0  0  0  0  0  0  0  0  0  0  0
  140.0890   76.4230  222.3310 C   0  0  0  0  0  0  0  0  0  0  0  0
  140.1700   73.5120  222.5760 N   0  0  0  0  0  0  0  0  0  0  0  0
  139.9650   71.4790  225.2630 C   0  0  0  0  0  0  0  0  0  0  0  0
  140.4995   66.4183  226.7556 H   0  0  0  0  0  0  0  0  0  0  0  0
  141.6474   68.2003  228.0560 H   0  0  0  0  0  0  0  0  0  0  0  0
  141.3796   70.5868  227.3359 H   0  0  0  0  0  0  0  0  0  0  0  0
  139.1127   66.9488  224.7922 H   0  0  0  0  0  0  0  0  0  0  0  0
  139.1152   68.8935  222.8786 H   0  0  0  0  0  0  0  0  0  0  0  0
  137.6394   68.8418  223.9375 H   0  0  0  0  0  0  0  0  0  0  0  0
  138.1243   70.9680  222.4556 H   0  0  0  0  0  0  0  0  0  0  0  0
  137.5277   71.1543  224.1294 H   0  0  0  0  0  0  0  0  0  0  0  0
  142.6830   70.2480  220.5450 H   0  0  0  0  0  0  0  0  0  0  0  0
  144.6910   72.3525  220.6480 H   0  0  0  0  0  0  0  0  0  0  0  0
  144.6980   70.9541  219.5168 H   0  0  0  0  0  0  0  0  0  0  0  0
  142.6263   72.7204  218.5655 H   0  0  0  0  0  0  0  0  0  0  0  0
  145.1016   71.3922  217.7998 H   0  0  0  0  0  0  0  0  0  0  0  0
  143.6771   71.8190  216.8063 H   0  0  0  0  0  0  0  0  0  0  0  0
  146.0125   73.6475  217.5809 H   0  0  0  0  0  0  0  0  0  0  0  0
  145.6300   73.0651  215.9520 H   0  0  0  0  0  0  0  0  0  0  0  0
  144.6206   75.2783  216.1136 H   0  0  0  0  0  0  0  0  0  0  0  0
  143.2596   74.1306  216.3020 H   0  0  0  0  0  0  0  0  0  0  0  0
  144.5070   75.8920  218.2060 H   0  0  0  0  0  0  0  0  0  0  0  0
  145.1528   74.1117  219.4287 H   0  0  0  0  0  0  0  0  0  0  0  0
  143.4359   74.4224  219.9579 H   0  0  0  0  0  0  0  0  0  0  0  0
  142.2222   76.0221  220.0402 H   0  0  0  0  0  0  0  0  0  0  0  0
  140.7224   75.3763  219.2891 H   0  0  0  0  0  0  0  0  0  0  0  0
  140.9912   77.8633  218.9340 H   0  0  0  0  0  0  0  0  0  0  0  0
  139.5130   77.4851  219.8236 H   0  0  0  0  0  0  0  0  0  0  0  0
  142.0577   79.8033  219.8967 H   0  0  0  0  0  0  0  0  0  0  0  0
  142.8547   80.9508  221.9528 H   0  0  0  0  0  0  0  0  0  0  0  0
  142.3870   80.0287  224.1887 H   0  0  0  0  0  0  0  0  0  0  0  0
  141.0888   77.8974  224.4526 H   0  0  0  0  0  0  0  0  0  0  0  0
  140.1338   75.9774  223.3357 H   0  0  0  0  0  0  0  0  0  0  0  0
  139.0319   76.6060  222.0880 H   0  0  0  0  0  0  0  0  0  0  0  0
  140.9238   71.9989  225.4061 H   0  0  0  0  0  0  0  0  0  0  0  0
  139.1932   71.9715  225.8727 H   0  0  0  0  0  0  0  0  0  0  0  0
  1  2  2  0
  2  3  1  0
  3  4  2  0
  4  5  1  0
  5  6  2  0
  5  7  1  0
  7  8  1  0
  8  9  1  0
  9 10  1  0
 10 11  2  0
 11 12  1  0
 12 13  1  0
 13 14  1  0
 14 15  1  0
 15 16  1  0
 16 17  1  0
 17 18  1  0
 18 19  1  0
 19 20  1  0
 12 21  2  0
 21 22  1  0
 22 23  1  0
 23 24  1  0
 24 25  1  0
 25 26  1  0
 26 27  2  0
 27 28  1  0
 28 29  2  0
 29 30  1  0
 30 31  2  0
 31 32  1  0
 22 33  2  0
  9 34  1  0
  6  1  1  0
 33 10  1  0
 34  4  1  0
 20 15  1  0
 32 23  1  0
 31 26  1  0
  1 35  1  0
  2 36  1  0
  3 37  1  0
  6 38  1  0
  7 39  1  0
  7 40  1  0
  8 41  1  0
  8 42  1  0
 13 43  1  0
 14 44  1  0
 14 45  1  0
 15 46  1  6
 16 47  1  0
 16 48  1  0
 17 49  1  0
 17 50  1  0
 18 51  1  0
 18 52  1  0
 19 53  1  0
 20 54  1  0
 20 55  1  0
 24 56  1  0
 24 57  1  0
 25 58  1  0
 25 59  1  0
 27 60  1  0
 28 61  1  0
 29 62  1  0
 30 63  1  0
 32 64  1  0
 32 65  1  0
 34 66  1  0
 34 67  1  0
M  END
>  <smiles>  (43) 
c1ccc2c(c1)CCN(c1nc(NCC3CCCNC3)nc(N3CCc4ccccc4C3)n1)C2

>  <score_type>  (43) 
oracle

>  <origin>  (43) 
autodockgpu

>  <m_score__min__energy>  (43) 
-10.83

>  <m_primary>  (43) 
energy

>  <rmsd>  (43) 
6.009501682199858

>  <m_score__min__rmsd>  (43) 
6.009501682199858

>  <meeko>  (43) 
{"free_energy": -9.15, "intermolecular_energy": -10.64, "internal_energy": -1.2, "cluster_size": 29, "cluster_id": 1, "rank_in_cluster": 22}

>  <energy>  (43) 
-9.28

>  <cluster_rmsd>  (43) 
1.42

>  <cluster>  (43) 
2

$$$$

     RDKit          3D

 67 72  0  0  0  0  0  0  0  0999 V2000
  145.9940   68.8510  219.3610 C   0  0  0  0  0  0  0  0  0  0  0  0
  144.8680   68.0900  219.6640 C   0  0  0  0  0  0  0  0  0  0  0  0
  143.6300   68.6940  219.6080 C   0  0  0  0  0  0  0  0  0  0  0  0
  143.5730   70.0240  219.2550 C   0  0  0  0  0  0  0  0  0  0  0  0
  144.6600   70.7980  218.9510 C   0  0  0  0  0  0  0  0  0  0  0  0
  145.9070   70.1810  219.0100 C   0  0  0  0  0  0  0  0  0  0  0  0
  144.6410   72.2200  218.5730 C   0  0  0  0  0  0  0  0  0  0  0  0
  143.2280   72.7430  218.3660 C   0  0  0  0  0  0  0  0  0  0  0  0
  142.3570   72.1050  219.3520 N   0  0  0  0  0  0  0  0  0  0  0  0
  141.7330   72.8760  220.3590 C   0  0  0  0  0  0  0  0  0  0  0  0
  141.1580   72.2010  221.3720 N   0  0  0  0  0  0  0  0  0  0  0  0
  140.5430   72.8880  222.3470 C   0  0  0  0  0  0  0  0  0  0  0  0
  139.9530   72.0950  223.3870 N   0  0  0  0  0  0  0  0  0  0  0  0
  140.6610   71.0200  224.0530 C   0  0  0  0  0  0  0  0  0  0  0  0
  139.9570   70.6700  225.3570 C   0  0  2  0  0  0  0  0  0  0  0  0
  140.6000   71.4990  226.4440 C   0  0  0  0  0  0  0  0  0  0  0  0
  141.0480   70.5720  227.5500 C   0  0  0  0  0  0  0  0  0  0  0  0
  139.8230   69.7270  227.9160 C   0  0  0  0  0  0  0  0  0  0  0  0
  139.5930   68.7770  226.8690 N   0  0  0  0  0  0  0  0  0  0  0  0
  140.0880   69.1990  225.5810 C   0  0  0  0  0  0  0  0  0  0  0  0
  140.4960   74.2290  222.3280 N   0  0  0  0  0  0  0  0  0  0  0  0
  141.0730   74.9350  221.3110 C   0  0  0  0  0  0  0  0  0  0  0  0
  141.0310   76.3540  221.2630 N   0  0  0  0  0  0  0  0  0  0  0  0
  141.7330   77.0020  220.1800 C   0  0  0  0  0  0  0  0  0  0  0  0
  141.3650   78.4830  220.1440 C   0  0  0  0  0  0  0  0  0  0  0  0
  141.7090   79.0050  221.4950 C   0  0  0  0  0  0  0  0  0  0  0  0
  142.5100   80.1010  221.6860 C   0  0  0  0  0  0  0  0  0  0  0  0
  142.7620   80.4910  222.9850 C   0  0  0  0  0  0  0  0  0  0  0  0
  142.2290   79.8040  224.0670 C   0  0  0  0  0  0  0  0  0  0  0  0
  141.4180   78.6930  223.8870 C   0  0  0  0  0  0  0  0  0  0  0  0
  141.1790   78.3200  222.5810 C   0  0  0  0  0  0  0  0  0  0  0  0
  140.3180   77.1330  222.2460 C   0  0  0  0  0  0  0  0  0  0  0  0
  141.6760   74.2160  220.3550 N   0  0  0  0  0  0  0  0  0  0  0  0
  142.2060   70.6680  219.2110 C   0  0  0  0  0  0  0  0  0  0  0  0
  146.9850   68.3754  219.4031 H   0  0  0  0  0  0  0  0  0  0  0  0
  144.9642   67.0301  219.9420 H   0  0  0  0  0  0  0  0  0  0  0  0
  142.7142   68.1300  219.8386 H   0  0  0  0  0  0  0  0  0  0  0  0
  146.8179   70.7522  218.7777 H   0  0  0  0  0  0  0  0  0  0  0  0
  145.1213   72.8048  219.3714 H   0  0  0  0  0  0  0  0  0  0  0  0
  145.1808   72.3223  217.6200 H   0  0  0  0  0  0  0  0  0  0  0  0
  143.2106   73.8341  218.5041 H   0  0  0  0  0  0  0  0  0  0  0  0
  142.8824   72.5126  217.3474 H   0  0  0  0  0  0  0  0  0  0  0  0
  138.9730   72.3470  223.6350 H   0  0  0  0  0  0  0  0  0  0  0  0
  140.6804   70.1354  223.3995 H   0  0  0  0  0  0  0  0  0  0  0  0
  141.6900   71.3423  224.2705 H   0  0  0  0  0  0  0  0  0  0  0  0
  138.8809   70.8974  225.3425 H   0  0  0  0  0  0  0  0  0  0  0  0
  141.4683   72.0372  226.0360 H   0  0  0  0  0  0  0  0  0  0  0  0
  139.8800   72.2330  226.8350 H   0  0  0  0  0  0  0  0  0  0  0  0
  141.8666   69.9263  227.1993 H   0  0  0  0  0  0  0  0  0  0  0  0
  141.4240   71.1332  228.4182 H   0  0  0  0  0  0  0  0  0  0  0  0
  140.0074   69.1977  228.8625 H   0  0  0  0  0  0  0  0  0  0  0  0
  138.9420   70.3748  228.0354 H   0  0  0  0  0  0  0  0  0  0  0  0
  140.0160   67.8610  227.1370 H   0  0  0  0  0  0  0  0  0  0  0  0
  141.1513   68.9270  225.5082 H   0  0  0  0  0  0  0  0  0  0  0  0
  139.4809   68.6948  224.8147 H   0  0  0  0  0  0  0  0  0  0  0  0
  142.8174   76.8979  220.3326 H   0  0  0  0  0  0  0  0  0  0  0  0
  141.4481   76.5318  219.2272 H   0  0  0  0  0  0  0  0  0  0  0  0
  141.9454   79.0057  219.3695 H   0  0  0  0  0  0  0  0  0  0  0  0
  140.3028   78.6364  219.9028 H   0  0  0  0  0  0  0  0  0  0  0  0
  142.9367   80.6500  220.8336 H   0  0  0  0  0  0  0  0  0  0  0  0
  143.4008   81.3676  223.1678 H   0  0  0  0  0  0  0  0  0  0  0  0
  142.4542   80.1474  225.0875 H   0  0  0  0  0  0  0  0  0  0  0  0
  140.9902   78.1413  224.7371 H   0  0  0  0  0  0  0  0  0  0  0  0
  140.1399   76.5297  223.1484 H   0  0  0  0  0  0  0  0  0  0  0  0
  139.3416   77.4560  221.8556 H   0  0  0  0  0  0  0  0  0  0  0  0
  141.5883   70.2793  220.0341 H   0  0  0  0  0  0  0  0  0  0  0  0
  141.7167   70.4374  218.2532 H   0  0  0  0  0  0  0  0  0  0  0  0
  1  2  2  0
  2  3  1  0
  3  4  2  0
  4  5  1  0
  5  6  2  0
  5  7  1  0
  7  8  1  0
  8  9  1  0
  9 10  1  0
 10 11  2  0
 11 12  1  0
 12 13  1  0
 13 14  1  0
 14 15  1  0
 15 16  1  0
 16 17  1  0
 17 18  1  0
 18 19  1  0
 19 20  1  0
 12 21  2  0
 21 22  1  0
 22 23  1  0
 23 24  1  0
 24 25  1  0
 25 26  1  0
 26 27  2  0
 27 28  1  0
 28 29  2  0
 29 30  1  0
 30 31  2  0
 31 32  1  0
 22 33  2  0
  9 34  1  0
  6  1  1  0
 33 10  1  0
 34  4  1  0
 20 15  1  0
 32 23  1  0
 31 26  1  0
  1 35  1  0
  2 36  1  0
  3 37  1  0
  6 38  1  0
  7 39  1  0
  7 40  1  0
  8 41  1  0
  8 42  1  0
 13 43  1  0
 14 44  1  0
 14 45  1  0
 15 46  1  6
 16 47  1  0
 16 48  1  0
 17 49  1  0
 17 50  1  0
 18 51  1  0
 18 52  1  0
 19 53  1  0
 20 54  1  0
 20 55  1  0
 24 56  1  0
 24 57  1  0
 25 58  1  0
 25 59  1  0
 27 60  1  0
 28 61  1  0
 29 62  1  0
 30 63  1  0
 32 64  1  0
 32 65  1  0
 34 66  1  0
 34 67  1  0
M  END
>  <smiles>  (44) 
c1ccc2c(c1)CCN(c1nc(NCC3CCCNC3)nc(N3CCc4ccccc4C3)n1)C2

>  <score_type>  (44) 
oracle

>  <origin>  (44) 
autodockgpu

>  <m_score__min__energy>  (44) 
-10.83

>  <m_primary>  (44) 
energy

>  <rmsd>  (44) 
9.25052785271244

>  <m_score__min__rmsd>  (44) 
9.25052785271244

>  <meeko>  (44) 
{"free_energy": -9.89, "intermolecular_energy": -11.38, "internal_energy": -0.9, "cluster_size": 15, "cluster_id": 2, "rank_in_cluster": 2}

>  <energy>  (44) 
-9.19

>  <cluster_rmsd>  (44) 
1.46

>  <cluster>  (44) 
2

$$$$

     RDKit          3D

 67 72  0  0  0  0  0  0  0  0999 V2000
  140.3490   67.4240  226.4440 C   0  0  0  0  0  0  0  0  0  0  0  0
  141.1500   68.3670  227.0820 C   0  0  0  0  0  0  0  0  0  0  0  0
  141.0370   69.6890  226.7070 C   0  0  0  0  0  0  0  0  0  0  0  0
  140.1360   70.0070  225.7160 C   0  0  0  0  0  0  0  0  0  0  0  0
  139.3350   69.1050  225.0710 C   0  0  0  0  0  0  0  0  0  0  0  0
  139.4540   67.7710  225.4550 C   0  0  0  0  0  0  0  0  0  0  0  0
  138.3620   69.4030  224.0080 C   0  0  0  0  0  0  0  0  0  0  0  0
  138.1840   70.8980  223.7930 C   0  0  0  0  0  0  0  0  0  0  0  0
  139.4840   71.5420  223.9740 N   0  0  0  0  0  0  0  0  0  0  0  0
  140.1220   72.1820  222.8870 C   0  0  0  0  0  0  0  0  0  0  0  0
  140.8890   71.4110  222.0920 N   0  0  0  0  0  0  0  0  0  0  0  0
  141.5240   71.9740  221.0530 C   0  0  0  0  0  0  0  0  0  0  0  0
  142.3210   71.0850  220.2580 N   0  0  0  0  0  0  0  0  0  0  0  0
  143.7670   71.1670  220.1990 C   0  0  0  0  0  0  0  0  0  0  0  0
  144.2990   70.1730  219.1770 C   0  0  2  0  0  0  0  0  0  0  0  0
  144.0010   68.7900  219.7080 C   0  0  0  0  0  0  0  0  0  0  0  0
  145.2870   67.9980  219.7280 C   0  0  0  0  0  0  0  0  0  0  0  0
  145.8800   68.1180  218.3200 C   0  0  0  0  0  0  0  0  0  0  0  0
  146.4020   69.4410  218.1550 N   0  0  0  0  0  0  0  0  0  0  0  0
  145.7580   70.4290  218.9860 C   0  0  0  0  0  0  0  0  0  0  0  0
  141.4060   73.2860  220.7960 N   0  0  0  0  0  0  0  0  0  0  0  0
  140.6350   74.0870  221.5870 C   0  0  0  0  0  0  0  0  0  0  0  0
  140.5000   75.4800  221.3410 N   0  0  0  0  0  0  0  0  0  0  0  0
  140.9350   75.9720  220.0550 C   0  0  0  0  0  0  0  0  0  0  0  0
  140.4790   77.4180  219.8790 C   0  0  0  0  0  0  0  0  0  0  0  0
  141.0510   78.1530  221.0390 C   0  0  0  0  0  0  0  0  0  0  0  0
  141.8070   79.2890  220.9000 C   0  0  0  0  0  0  0  0  0  0  0  0
  142.2870   79.8830  222.0480 C   0  0  0  0  0  0  0  0  0  0  0  0
  142.0210   79.3580  223.3040 C   0  0  0  0  0  0  0  0  0  0  0  0
  141.2580   78.2090  223.4590 C   0  0  0  0  0  0  0  0  0  0  0  0
  140.7890   77.6310  222.2990 C   0  0  0  0  0  0  0  0  0  0  0  0
  139.9500   76.3810  222.3250 C   0  0  0  0  0  0  0  0  0  0  0  0
  140.0170   73.4910  222.6150 N   0  0  0  0  0  0  0  0  0  0  0  0
  140.0370   71.4610  225.3140 C   0  0  0  0  0  0  0  0  0  0  0  0
  140.4331   66.3676  226.7388 H   0  0  0  0  0  0  0  0  0  0  0  0
  141.8575   68.0641  227.8680 H   0  0  0  0  0  0  0  0  0  0  0  0
  141.6493   70.4673  227.1860 H   0  0  0  0  0  0  0  0  0  0  0  0
  138.8371   66.9991  224.9716 H   0  0  0  0  0  0  0  0  0  0  0  0
  138.7133   68.9497  223.0693 H   0  0  0  0  0  0  0  0  0  0  0  0
  137.3903   68.9884  224.3145 H   0  0  0  0  0  0  0  0  0  0  0  0
  137.8133   71.0865  222.7746 H   0  0  0  0  0  0  0  0  0  0  0  0
  137.4558   71.3019  224.5118 H   0  0  0  0  0  0  0  0  0  0  0  0
  141.7880   70.3690  219.7230 H   0  0  0  0  0  0  0  0  0  0  0  0
  144.0633   72.1852  219.9065 H   0  0  0  0  0  0  0  0  0  0  0  0
  144.1847   70.9289  221.1884 H   0  0  0  0  0  0  0  0  0  0  0  0
  143.8246   70.2729  218.1896 H   0  0  0  0  0  0  0  0  0  0  0  0
  143.5943   68.8634  220.7274 H   0  0  0  0  0  0  0  0  0  0  0  0
  143.2604   68.2908  219.0659 H   0  0  0  0  0  0  0  0  0  0  0  0
  145.9814   68.4157  220.4719 H   0  0  0  0  0  0  0  0  0  0  0  0
  145.1086   66.9476  220.0015 H   0  0  0  0  0  0  0  0  0  0  0  0
  146.6882   67.3825  218.1945 H   0  0  0  0  0  0  0  0  0  0  0  0
  145.1019   67.9246  217.5670 H   0  0  0  0  0  0  0  0  0  0  0  0
  147.4300   69.4310  218.3360 H   0  0  0  0  0  0  0  0  0  0  0  0
  146.2455   70.4286  219.9721 H   0  0  0  0  0  0  0  0  0  0  0  0
  145.8569   71.3996  218.4780 H   0  0  0  0  0  0  0  0  0  0  0  0
  142.0324   75.9246  219.9970 H   0  0  0  0  0  0  0  0  0  0  0  0
  140.4971   75.3515  219.2593 H   0  0  0  0  0  0  0  0  0  0  0  0
  140.8623   77.8307  218.9342 H   0  0  0  0  0  0  0  0  0  0  0  0
  139.3828   77.5009  219.8406 H   0  0  0  0  0  0  0  0  0  0  0  0
  142.0228   79.7113  219.9075 H   0  0  0  0  0  0  0  0  0  0  0  0
  142.8957   80.7955  221.9658 H   0  0  0  0  0  0  0  0  0  0  0  0
  142.4228   79.8624  224.1951 H   0  0  0  0  0  0  0  0  0  0  0  0
  141.0402   77.7843  224.4501 H   0  0  0  0  0  0  0  0  0  0  0  0
  139.9905   75.9201  223.3230 H   0  0  0  0  0  0  0  0  0  0  0  0
  138.8980   76.6109  222.1005 H   0  0  0  0  0  0  0  0  0  0  0  0
  141.0379   71.9171  225.3285 H   0  0  0  0  0  0  0  0  0  0  0  0
  139.3861   71.9990  226.0189 H   0  0  0  0  0  0  0  0  0  0  0  0
  1  2  2  0
  2  3  1  0
  3  4  2  0
  4  5  1  0
  5  6  2  0
  5  7  1  0
  7  8  1  0
  8  9  1  0
  9 10  1  0
 10 11  2  0
 11 12  1  0
 12 13  1  0
 13 14  1  0
 14 15  1  0
 15 16  1  0
 16 17  1  0
 17 18  1  0
 18 19  1  0
 19 20  1  0
 12 21  2  0
 21 22  1  0
 22 23  1  0
 23 24  1  0
 24 25  1  0
 25 26  1  0
 26 27  2  0
 27 28  1  0
 28 29  2  0
 29 30  1  0
 30 31  2  0
 31 32  1  0
 22 33  2  0
  9 34  1  0
  6  1  1  0
 33 10  1  0
 34  4  1  0
 20 15  1  0
 32 23  1  0
 31 26  1  0
  1 35  1  0
  2 36  1  0
  3 37  1  0
  6 38  1  0
  7 39  1  0
  7 40  1  0
  8 41  1  0
  8 42  1  0
 13 43  1  0
 14 44  1  0
 14 45  1  0
 15 46  1  6
 16 47  1  0
 16 48  1  0
 17 49  1  0
 17 50  1  0
 18 51  1  0
 18 52  1  0
 19 53  1  0
 20 54  1  0
 20 55  1  0
 24 56  1  0
 24 57  1  0
 25 58  1  0
 25 59  1  0
 27 60  1  0
 28 61  1  0
 29 62  1  0
 30 63  1  0
 32 64  1  0
 32 65  1  0
 34 66  1  0
 34 67  1  0
M  END
>  <smiles>  (45) 
c1ccc2c(c1)CCN(c1nc(NCC3CCCNC3)nc(N3CCc4ccccc4C3)n1)C2

>  <score_type>  (45) 
oracle

>  <origin>  (45) 
autodockgpu

>  <m_score__min__energy>  (45) 
-10.83

>  <m_primary>  (45) 
energy

>  <rmsd>  (45) 
8.666604551145793

>  <m_score__min__rmsd>  (45) 
8.666604551145793

>  <meeko>  (45) 
{"free_energy": -10.09, "intermolecular_energy": -11.59, "internal_energy": -0.87, "cluster_size": 29, "cluster_id": 1, "rank_in_cluster": 9}

>  <energy>  (45) 
-9.49

>  <cluster_rmsd>  (45) 
0.0

>  <cluster>  (45) 
3

$$$$

     RDKit          3D

 67 72  0  0  0  0  0  0  0  0999 V2000
  144.4190   67.6460  219.4660 C   0  0  0  0  0  0  0  0  0  0  0  0
  143.1170   67.4560  219.0100 C   0  0  0  0  0  0  0  0  0  0  0  0
  142.3320   68.5670  218.7800 C   0  0  0  0  0  0  0  0  0  0  0  0
  142.8800   69.8080  219.0140 C   0  0  0  0  0  0  0  0  0  0  0  0
  144.1550   70.0260  219.4610 C   0  0  0  0  0  0  0  0  0  0  0  0
  144.9420   68.9000  219.6920 C   0  0  0  0  0  0  0  0  0  0  0  0
  144.7760   71.3340  219.7250 C   0  0  0  0  0  0  0  0  0  0  0  0
  143.8980   72.4910  219.2730 C   0  0  0  0  0  0  0  0  0  0  0  0
  142.5040   72.1330  219.5320 N   0  0  0  0  0  0  0  0  0  0  0  0
  141.7450   72.8580  220.4790 C   0  0  0  0  0  0  0  0  0  0  0  0
  141.1010   72.1400  221.4190 N   0  0  0  0  0  0  0  0  0  0  0  0
  140.3590   72.7820  222.3340 C   0  0  0  0  0  0  0  0  0  0  0  0
  139.7030   71.9450  223.2980 N   0  0  0  0  0  0  0  0  0  0  0  0
  140.3380   70.7850  223.8920 C   0  0  0  0  0  0  0  0  0  0  0  0
  139.7740   70.5460  225.2860 C   0  0  2  0  0  0  0  0  0  0  0  0
  140.5210   71.4620  226.2280 C   0  0  0  0  0  0  0  0  0  0  0  0
  141.0860   70.6300  227.3550 C   0  0  0  0  0  0  0  0  0  0  0  0
  139.9110   69.8220  227.9150 C   0  0  0  0  0  0  0  0  0  0  0  0
  139.5810   68.7880  226.9810 N   0  0  0  0  0  0  0  0  0  0  0  0
  139.9370   69.1000  225.6170 C   0  0  0  0  0  0  0  0  0  0  0  0
  140.2490   74.1190  222.3260 N   0  0  0  0  0  0  0  0  0  0  0  0
  140.8930   74.8670  221.3820 C   0  0  0  0  0  0  0  0  0  0  0  0
  140.7890   76.2840  221.3470 N   0  0  0  0  0  0  0  0  0  0  0  0
  141.2490   76.9530  220.1530 C   0  0  0  0  0  0  0  0  0  0  0  0
  140.8250   78.4190  220.1920 C   0  0  0  0  0  0  0  0  0  0  0  0
  141.3980   78.9590  221.4550 C   0  0  0  0  0  0  0  0  0  0  0  0
  142.1770   80.0870  221.4950 C   0  0  0  0  0  0  0  0  0  0  0  0
  142.6550   80.4910  222.7240 C   0  0  0  0  0  0  0  0  0  0  0  0
  142.3620   79.7900  223.8850 C   0  0  0  0  0  0  0  0  0  0  0  0
  141.5740   78.6470  223.8580 C   0  0  0  0  0  0  0  0  0  0  0  0
  141.1080   78.2600  222.6200 C   0  0  0  0  0  0  0  0  0  0  0  0
  140.2450   77.0390  222.4490 C   0  0  0  0  0  0  0  0  0  0  0  0
  141.6240   74.1930  220.4850 N   0  0  0  0  0  0  0  0  0  0  0  0
  141.9980   71.0090  218.7650 C   0  0  0  0  0  0  0  0  0  0  0  0
  145.0510   66.7651  219.6520 H   0  0  0  0  0  0  0  0  0  0  0  0
  142.7235   66.4434  218.8371 H   0  0  0  0  0  0  0  0  0  0  0  0
  141.2977   68.4641  218.4199 H   0  0  0  0  0  0  0  0  0  0  0  0
  145.9751   69.0117  220.0528 H   0  0  0  0  0  0  0  0  0  0  0  0
  144.9567   71.4282  220.8060 H   0  0  0  0  0  0  0  0  0  0  0  0
  145.7157   71.3818  219.1553 H   0  0  0  0  0  0  0  0  0  0  0  0
  144.1601   73.3994  219.8352 H   0  0  0  0  0  0  0  0  0  0  0  0
  144.0479   72.6864  218.2009 H   0  0  0  0  0  0  0  0  0  0  0  0
  138.7330   72.2310  223.5460 H   0  0  0  0  0  0  0  0  0  0  0  0
  140.1465   69.9023  223.2642 H   0  0  0  0  0  0  0  0  0  0  0  0
  141.4215   70.9607  223.9636 H   0  0  0  0  0  0  0  0  0  0  0  0
  138.7005   70.7730  225.3637 H   0  0  0  0  0  0  0  0  0  0  0  0
  141.3393   71.9618  225.6890 H   0  0  0  0  0  0  0  0  0  0  0  0
  139.8408   72.2281  226.6284 H   0  0  0  0  0  0  0  0  0  0  0  0
  141.8679   69.9551  226.9767 H   0  0  0  0  0  0  0  0  0  0  0  0
  141.5460   71.2611  228.1297 H   0  0  0  0  0  0  0  0  0  0  0  0
  140.1952   69.3740  228.8786 H   0  0  0  0  0  0  0  0  0  0  0  0
  139.0428   70.4795  228.0699 H   0  0  0  0  0  0  0  0  0  0  0  0
  140.0350   67.8960  227.2790 H   0  0  0  0  0  0  0  0  0  0  0  0
  140.9888   68.8205  225.4570 H   0  0  0  0  0  0  0  0  0  0  0  0
  139.2568   68.5349  224.9628 H   0  0  0  0  0  0  0  0  0  0  0  0
  142.3458   76.8905  220.0978 H   0  0  0  0  0  0  0  0  0  0  0  0
  140.8077   76.4684  219.2696 H   0  0  0  0  0  0  0  0  0  0  0  0
  141.2283   78.9602  219.3234 H   0  0  0  0  0  0  0  0  0  0  0  0
  139.7313   78.5311  220.1565 H   0  0  0  0  0  0  0  0  0  0  0  0
  142.4122   80.6495  220.5794 H   0  0  0  0  0  0  0  0  0  0  0  0
  143.2841   81.3913  222.7853 H   0  0  0  0  0  0  0  0  0  0  0  0
  142.7618   80.1467  224.8457 H   0  0  0  0  0  0  0  0  0  0  0  0
  141.3355   78.0830  224.7718 H   0  0  0  0  0  0  0  0  0  0  0  0
  140.2633   76.4329  223.3668 H   0  0  0  0  0  0  0  0  0  0  0  0
  139.2010   77.3230  222.2505 H   0  0  0  0  0  0  0  0  0  0  0  0
  140.9684   70.7820  219.0785 H   0  0  0  0  0  0  0  0  0  0  0  0
  142.0020   71.2578  217.6935 H   0  0  0  0  0  0  0  0  0  0  0  0
  1  2  2  0
  2  3  1  0
  3  4  2  0
  4  5  1  0
  5  6  2  0
  5  7  1  0
  7  8  1  0
  8  9  1  0
  9 10  1  0
 10 11  2  0
 11 12  1  0
 12 13  1  0
 13 14  1  0
 14 15  1  0
 15 16  1  0
 16 17  1  0
 17 18  1  0
 18 19  1  0
 19 20  1  0
 12 21  2  0
 21 22  1  0
 22 23  1  0
 23 24  1  0
 24 25  1  0
 25 26  1  0
 26 27  2  0
 27 28  1  0
 28 29  2  0
 29 30  1  0
 30 31  2  0
 31 32  1  0
 22 33  2  0
  9 34  1  0
  6  1  1  0
 33 10  1  0
 34  4  1  0
 20 15  1  0
 32 23  1  0
 31 26  1  0
  1 35  1  0
  2 36  1  0
  3 37  1  0
  6 38  1  0
  7 39  1  0
  7 40  1  0
  8 41  1  0
  8 42  1  0
 13 43  1  0
 14 44  1  0
 14 45  1  0
 15 46  1  6
 16 47  1  0
 16 48  1  0
 17 49  1  0
 17 50  1  0
 18 51  1  0
 18 52  1  0
 19 53  1  0
 20 54  1  0
 20 55  1  0
 24 56  1  0
 24 57  1  0
 25 58  1  0
 25 59  1  0
 27 60  1  0
 28 61  1  0
 29 62  1  0
 30 63  1  0
 32 64  1  0
 32 65  1  0
 34 66  1  0
 34 67  1  0
M  END
>  <smiles>  (46) 
c1ccc2c(c1)CCN(c1nc(NCC3CCCNC3)nc(N3CCc4ccccc4C3)n1)C2

>  <score_type>  (46) 
oracle

>  <origin>  (46) 
autodockgpu

>  <m_score__min__energy>  (46) 
-10.83

>  <m_primary>  (46) 
energy

>  <rmsd>  (46) 
9.207452496132928

>  <m_score__min__rmsd>  (46) 
9.207452496132928

>  <meeko>  (46) 
{"free_energy": -9.65, "intermolecular_energy": -11.14, "internal_energy": -0.93, "cluster_size": 15, "cluster_id": 2, "rank_in_cluster": 6}

>  <energy>  (46) 
-9.15

>  <cluster_rmsd>  (46) 
0.0

>  <cluster>  (46) 
4

$$$$

     RDKit          3D

 67 72  0  0  0  0  0  0  0  0999 V2000
  140.3360   67.4220  226.3360 C   0  0  0  0  0  0  0  0  0  0  0  0
  141.2030   68.3300  226.9350 C   0  0  0  0  0  0  0  0  0  0  0  0
  141.0990   69.6630  226.5950 C   0  0  0  0  0  0  0  0  0  0  0  0
  140.1390   70.0240  225.6780 C   0  0  0  0  0  0  0  0  0  0  0  0
  139.2720   69.1560  225.0730 C   0  0  0  0  0  0  0  0  0  0  0  0
  139.3830   67.8110  225.4200 C   0  0  0  0  0  0  0  0  0  0  0  0
  138.2350   69.5010  224.0870 C   0  0  0  0  0  0  0  0  0  0  0  0
  138.0810   71.0050  223.9160 C   0  0  0  0  0  0  0  0  0  0  0  0
  139.4070   71.6130  224.0170 N   0  0  0  0  0  0  0  0  0  0  0  0
  139.9830   72.2610  222.9010 C   0  0  0  0  0  0  0  0  0  0  0  0
  140.6720   71.4880  222.0390 N   0  0  0  0  0  0  0  0  0  0  0  0
  141.2470   72.0590  220.9690 C   0  0  0  0  0  0  0  0  0  0  0  0
  141.9640   71.1690  220.1020 N   0  0  0  0  0  0  0  0  0  0  0  0
  142.8680   71.6360  219.0700 C   0  0  0  0  0  0  0  0  0  0  0  0
  144.2170   71.9830  219.6840 C   0  0  2  0  0  0  0  0  0  0  0  0
  143.9450   72.8840  220.8670 C   0  0  0  0  0  0  0  0  0  0  0  0
  144.7690   74.1400  220.7090 C   0  0  0  0  0  0  0  0  0  0  0  0
  146.2090   73.6740  220.4720 C   0  0  0  0  0  0  0  0  0  0  0  0
  146.3060   73.1430  219.1460 N   0  0  0  0  0  0  0  0  0  0  0  0
  145.0590   72.6270  218.6340 C   0  0  0  0  0  0  0  0  0  0  0  0
  141.1450   73.3790  220.7470 N   0  0  0  0  0  0  0  0  0  0  0  0
  140.4520   74.1810  221.6080 C   0  0  0  0  0  0  0  0  0  0  0  0
  140.3360   75.5820  221.4000 N   0  0  0  0  0  0  0  0  0  0  0  0
  140.6930   76.0910  220.0970 C   0  0  0  0  0  0  0  0  0  0  0  0
  140.2640   77.5510  219.9820 C   0  0  0  0  0  0  0  0  0  0  0  0
  140.9340   78.2470  221.1140 C   0  0  0  0  0  0  0  0  0  0  0  0
  141.7070   79.3670  220.9450 C   0  0  0  0  0  0  0  0  0  0  0  0
  142.2810   79.9240  222.0690 C   0  0  0  0  0  0  0  0  0  0  0  0
  142.0890   79.3780  223.3300 C   0  0  0  0  0  0  0  0  0  0  0  0
  141.3090   78.2440  223.5140 C   0  0  0  0  0  0  0  0  0  0  0  0
  140.7460   77.7040  222.3780 C   0  0  0  0  0  0  0  0  0  0  0  0
  139.8790   76.4740  222.4370 C   0  0  0  0  0  0  0  0  0  0  0  0
  139.8920   73.5780  222.6640 N   0  0  0  0  0  0  0  0  0  0  0  0
  140.0500   71.4880  225.3130 C   0  0  0  0  0  0  0  0  0  0  0  0
  140.4138   66.3576  226.6025 H   0  0  0  0  0  0  0  0  0  0  0  0
  141.9549   67.9927  227.6636 H   0  0  0  0  0  0  0  0  0  0  0  0
  141.7642   70.4153  227.0440 H   0  0  0  0  0  0  0  0  0  0  0  0
  138.7144   67.0649  224.9658 H   0  0  0  0  0  0  0  0  0  0  0  0
  138.5083   69.0605  223.1168 H   0  0  0  0  0  0  0  0  0  0  0  0
  137.2767   69.1031  224.4521 H   0  0  0  0  0  0  0  0  0  0  0  0
  137.6441   71.2252  222.9308 H   0  0  0  0  0  0  0  0  0  0  0  0
  137.4163   71.4103  224.6931 H   0  0  0  0  0  0  0  0  0  0  0  0
  141.7910   70.1550  220.2670 H   0  0  0  0  0  0  0  0  0  0  0  0
  143.0021   70.8454  218.3170 H   0  0  0  0  0  0  0  0  0  0  0  0
  142.4440   72.5328  218.5947 H   0  0  0  0  0  0  0  0  0  0  0  0
  144.7699   71.1019  220.0416 H   0  0  0  0  0  0  0  0  0  0  0  0
  142.8763   73.1424  220.8992 H   0  0  0  0  0  0  0  0  0  0  0  0
  144.2134   72.3711  221.8024 H   0  0  0  0  0  0  0  0  0  0  0  0
  144.4109   74.7264  219.8500 H   0  0  0  0  0  0  0  0  0  0  0  0
  144.6954   74.7843  221.5975 H   0  0  0  0  0  0  0  0  0  0  0  0
  146.8966   74.5257  220.5811 H   0  0  0  0  0  0  0  0  0  0  0  0
  146.4790   72.9010  221.2065 H   0  0  0  0  0  0  0  0  0  0  0  0
  146.6840   73.8770  218.5070 H   0  0  0  0  0  0  0  0  0  0  0  0
  144.4913   73.4588  218.1914 H   0  0  0  0  0  0  0  0  0  0  0  0
  145.3043   71.8542  217.8906 H   0  0  0  0  0  0  0  0  0  0  0  0
  141.7821   76.0178  219.9613 H   0  0  0  0  0  0  0  0  0  0  0  0
  140.1844   75.4989  219.3219 H   0  0  0  0  0  0  0  0  0  0  0  0
  140.5917   77.9744  219.0211 H   0  0  0  0  0  0  0  0  0  0  0  0
  139.1703   77.6616  220.0219 H   0  0  0  0  0  0  0  0  0  0  0  0
  141.8638   79.8057  219.9485 H   0  0  0  0  0  0  0  0  0  0  0  0
  142.9061   80.8229  221.9629 H   0  0  0  0  0  0  0  0  0  0  0  0
  142.5640   79.8528  224.2011 H   0  0  0  0  0  0  0  0  0  0  0  0
  141.1498   77.8024  224.5088 H   0  0  0  0  0  0  0  0  0  0  0  0
  139.9765   75.9906  223.4203 H   0  0  0  0  0  0  0  0  0  0  0  0
  138.8203   76.7343  222.2906 H   0  0  0  0  0  0  0  0  0  0  0  0
  141.0611   71.9187  225.2663 H   0  0  0  0  0  0  0  0  0  0  0  0
  139.4637   72.0258  226.0726 H   0  0  0  0  0  0  0  0  0  0  0  0
  1  2  2  0
  2  3  1  0
  3  4  2  0
  4  5  1  0
  5  6  2  0
  5  7  1  0
  7  8  1  0
  8  9  1  0
  9 10  1  0
 10 11  2  0
 11 12  1  0
 12 13  1  0
 13 14  1  0
 14 15  1  0
 15 16  1  0
 16 17  1  0
 17 18  1  0
 18 19  1  0
 19 20  1  0
 12 21  2  0
 21 22  1  0
 22 23  1  0
 23 24  1  0
 24 25  1  0
 25 26  1  0
 26 27  2  0
 27 28  1  0
 28 29  2  0
 29 30  1  0
 30 31  2  0
 31 32  1  0
 22 33  2  0
  9 34  1  0
  6  1  1  0
 33 10  1  0
 34  4  1  0
 20 15  1  0
 32 23  1  0
 31 26  1  0
  1 35  1  0
  2 36  1  0
  3 37  1  0
  6 38  1  0
  7 39  1  0
  7 40  1  0
  8 41  1  0
  8 42  1  0
 13 43  1  0
 14 44  1  0
 14 45  1  0
 15 46  1  1
 16 47  1  0
 16 48  1  0
 17 49  1  0
 17 50  1  0
 18 51  1  0
 18 52  1  0
 19 53  1  0
 20 54  1  0
 20 55  1  0
 24 56  1  0
 24 57  1  0
 25 58  1  0
 25 59  1  0
 27 60  1  0
 28 61  1  0
 29 62  1  0
 30 63  1  0
 32 64  1  0
 32 65  1  0
 34 66  1  0
 34 67  1  0
M  END
>  <smiles>  (47) 
c1ccc2c(c1)CCN(c1nc(NCC3CCCNC3)nc(N3CCc4ccccc4C3)n1)C2

>  <score_type>  (47) 
oracle

>  <origin>  (47) 
autodockgpu

>  <m_score__min__energy>  (47) 
-10.83

>  <m_primary>  (47) 
energy

>  <rmsd>  (47) 
6.130288259192252

>  <m_score__min__rmsd>  (47) 
6.130288259192252

>  <meeko>  (47) 
{"free_energy": -10.72, "intermolecular_energy": -12.21, "internal_energy": -0.89, "cluster_size": 29, "cluster_id": 1, "rank_in_cluster": 3}

>  <energy>  (47) 
-8.67

>  <cluster_rmsd>  (47) 
0.0

>  <cluster>  (47) 
5

$$$$

     RDKit          3D

 67 72  0  0  0  0  0  0  0  0999 V2000
  140.2300   67.3480  226.4770 C   0  0  0  0  0  0  0  0  0  0  0  0
  141.1850   68.2070  227.0130 C   0  0  0  0  0  0  0  0  0  0  0  0
  141.1520   69.5370  226.6500 C   0  0  0  0  0  0  0  0  0  0  0  0
  140.1730   69.9460  225.7740 C   0  0  0  0  0  0  0  0  0  0  0  0
  139.2200   69.1270  225.2310 C   0  0  0  0  0  0  0  0  0  0  0  0
  139.2600   67.7840  225.6020 C   0  0  0  0  0  0  0  0  0  0  0  0
  138.1600   69.5230  224.2910 C   0  0  0  0  0  0  0  0  0  0  0  0
  138.0970   71.0300  224.0950 C   0  0  0  0  0  0  0  0  0  0  0  0
  139.4640   71.5500  224.1180 N   0  0  0  0  0  0  0  0  0  0  0  0
  140.0240   72.1370  222.9600 C   0  0  0  0  0  0  0  0  0  0  0  0
  140.6660   71.3120  222.1100 N   0  0  0  0  0  0  0  0  0  0  0  0
  141.2240   71.8240  221.0030 C   0  0  0  0  0  0  0  0  0  0  0  0
  141.8900   70.8800  220.1520 N   0  0  0  0  0  0  0  0  0  0  0  0
  142.4120   71.2310  218.8460 C   0  0  0  0  0  0  0  0  0  0  0  0
  143.8540   71.7010  218.9760 C   0  0  2  0  0  0  0  0  0  0  0  0
  144.1740   71.7450  220.4520 C   0  0  0  0  0  0  0  0  0  0  0  0
  144.7020   73.1210  220.7850 C   0  0  0  0  0  0  0  0  0  0  0  0
  145.8370   73.3900  219.7920 C   0  0  0  0  0  0  0  0  0  0  0  0
  145.2670   73.6460  218.5030 N   0  0  0  0  0  0  0  0  0  0  0  0
  143.9770   73.0300  218.3060 C   0  0  0  0  0  0  0  0  0  0  0  0
  141.1520   73.1360  220.7310 N   0  0  0  0  0  0  0  0  0  0  0  0
  140.5070   73.9910  221.5790 C   0  0  0  0  0  0  0  0  0  0  0  0
  140.4230   75.3850  221.3190 N   0  0  0  0  0  0  0  0  0  0  0  0
  140.9180   75.8530  220.0460 C   0  0  0  0  0  0  0  0  0  0  0  0
  140.5130   77.3110  219.8430 C   0  0  0  0  0  0  0  0  0  0  0  0
  141.0660   78.0380  221.0180 C   0  0  0  0  0  0  0  0  0  0  0  0
  141.8600   79.1490  220.8990 C   0  0  0  0  0  0  0  0  0  0  0  0
  142.3170   79.7370  222.0590 C   0  0  0  0  0  0  0  0  0  0  0  0
  141.9910   79.2300  223.3090 C   0  0  0  0  0  0  0  0  0  0  0  0
  141.1880   78.1060  223.4440 C   0  0  0  0  0  0  0  0  0  0  0  0
  140.7430   77.5340  222.2720 C   0  0  0  0  0  0  0  0  0  0  0  0
  139.8670   76.3100  222.2760 C   0  0  0  0  0  0  0  0  0  0  0  0
  139.9630   73.4450  222.6740 N   0  0  0  0  0  0  0  0  0  0  0  0
  140.1620   71.4050  225.3820 C   0  0  0  0  0  0  0  0  0  0  0  0
  140.2507   66.2857  226.7617 H   0  0  0  0  0  0  0  0  0  0  0  0
  141.9490   67.8333  227.7106 H   0  0  0  0  0  0  0  0  0  0  0  0
  141.8875   70.2507  227.0495 H   0  0  0  0  0  0  0  0  0  0  0  0
  138.5209   67.0764  225.1982 H   0  0  0  0  0  0  0  0  0  0  0  0
  138.3538   69.0474  223.3183 H   0  0  0  0  0  0  0  0  0  0  0  0
  137.1974   69.1975  224.7121 H   0  0  0  0  0  0  0  0  0  0  0  0
  137.6268   71.2606  223.1277 H   0  0  0  0  0  0  0  0  0  0  0  0
  137.5002   71.4931  224.8945 H   0  0  0  0  0  0  0  0  0  0  0  0
  141.9770   69.9170  220.5400 H   0  0  0  0  0  0  0  0  0  0  0  0
  142.3730   70.3501  218.1884 H   0  0  0  0  0  0  0  0  0  0  0  0
  141.8034   72.0409  218.4174 H   0  0  0  0  0  0  0  0  0  0  0  0
  144.5742   71.0281  218.4877 H   0  0  0  0  0  0  0  0  0  0  0  0
  143.2632   71.5453  221.0356 H   0  0  0  0  0  0  0  0  0  0  0  0
  144.9267   70.9817  220.6983 H   0  0  0  0  0  0  0  0  0  0  0  0
  143.9076   73.8732  220.6703 H   0  0  0  0  0  0  0  0  0  0  0  0
  145.0555   73.1758  221.8252 H   0  0  0  0  0  0  0  0  0  0  0  0
  146.4172   74.2648  220.1208 H   0  0  0  0  0  0  0  0  0  0  0  0
  146.5051   72.5176  219.7404 H   0  0  0  0  0  0  0  0  0  0  0  0
  145.2030   74.6770  218.3530 H   0  0  0  0  0  0  0  0  0  0  0  0
  143.2039   73.6993  218.7113 H   0  0  0  0  0  0  0  0  0  0  0  0
  143.8538   72.8652  217.2254 H   0  0  0  0  0  0  0  0  0  0  0  0
  142.0148   75.7719  220.0276 H   0  0  0  0  0  0  0  0  0  0  0  0
  140.4895   75.2394  219.2398 H   0  0  0  0  0  0  0  0  0  0  0  0
  140.9422   77.7040  218.9095 H   0  0  0  0  0  0  0  0  0  0  0  0
  139.4220   77.4270  219.7645 H   0  0  0  0  0  0  0  0  0  0  0  0
  142.1234   79.5572  219.9121 H   0  0  0  0  0  0  0  0  0  0  0  0
  142.9558   80.6300  221.9922 H   0  0  0  0  0  0  0  0  0  0  0  0
  142.3765   79.7287  224.2105 H   0  0  0  0  0  0  0  0  0  0  0  0
  140.9223   77.6956  224.4294 H   0  0  0  0  0  0  0  0  0  0  0  0
  139.8582   75.8560  223.2779 H   0  0  0  0  0  0  0  0  0  0  0  0
  138.8313   76.5699  222.0119 H   0  0  0  0  0  0  0  0  0  0  0  0
  141.1956   71.7661  225.2759 H   0  0  0  0  0  0  0  0  0  0  0  0
  139.6513   71.9942  226.1579 H   0  0  0  0  0  0  0  0  0  0  0  0
  1  2  2  0
  2  3  1  0
  3  4  2  0
  4  5  1  0
  5  6  2  0
  5  7  1  0
  7  8  1  0
  8  9  1  0
  9 10  1  0
 10 11  2  0
 11 12  1  0
 12 13  1  0
 13 14  1  0
 14 15  1  0
 15 16  1  0
 16 17  1  0
 17 18  1  0
 18 19  1  0
 19 20  1  0
 12 21  2  0
 21 22  1  0
 22 23  1  0
 23 24  1  0
 24 25  1  0
 25 26  1  0
 26 27  2  0
 27 28  1  0
 28 29  2  0
 29 30  1  0
 30 31  2  0
 31 32  1  0
 22 33  2  0
  9 34  1  0
  6  1  1  0
 33 10  1  0
 34  4  1  0
 20 15  1  0
 32 23  1  0
 31 26  1  0
  1 35  1  0
  2 36  1  0
  3 37  1  0
  6 38  1  0
  7 39  1  0
  7 40  1  0
  8 41  1  0
  8 42  1  0
 13 43  1  0
 14 44  1  0
 14 45  1  0
 15 46  1  6
 16 47  1  0
 16 48  1  0
 17 49  1  0
 17 50  1  0
 18 51  1  0
 18 52  1  0
 19 53  1  0
 20 54  1  0
 20 55  1  0
 24 56  1  0
 24 57  1  0
 25 58  1  0
 25 59  1  0
 27 60  1  0
 28 61  1  0
 29 62  1  0
 30 63  1  0
 32 64  1  0
 32 65  1  0
 34 66  1  0
 34 67  1  0
M  END
>  <smiles>  (48) 
c1ccc2c(c1)CCN(c1nc(NCC3CCCNC3)nc(N3CCc4ccccc4C3)n1)C2

>  <score_type>  (48) 
oracle

>  <origin>  (48) 
autodockgpu

>  <m_score__min__energy>  (48) 
-10.83

>  <m_primary>  (48) 
energy

>  <rmsd>  (48) 
6.059774215987002

>  <m_score__min__rmsd>  (48) 
6.059774215987002

>  <meeko>  (48) 
{"free_energy": -9.7, "intermolecular_energy": -11.19, "internal_energy": -1.24, "cluster_size": 29, "cluster_id": 1, "rank_in_cluster": 12}

>  <energy>  (48) 
-8.47

>  <cluster_rmsd>  (48) 
1.54

>  <cluster>  (48) 
5

$$$$

     RDKit          3D

 67 72  0  0  0  0  0  0  0  0999 V2000
  145.9160   68.9400  219.3620 C   0  0  0  0  0  0  0  0  0  0  0  0
  144.8070   68.1530  219.6600 C   0  0  0  0  0  0  0  0  0  0  0  0
  143.5560   68.7310  219.6050 C   0  0  0  0  0  0  0  0  0  0  0  0
  143.4710   70.0600  219.2560 C   0  0  0  0  0  0  0  0  0  0  0  0
  144.5420   70.8580  218.9560 C   0  0  0  0  0  0  0  0  0  0  0  0
  145.8020   70.2680  219.0150 C   0  0  0  0  0  0  0  0  0  0  0  0
  144.4930   72.2810  218.5820 C   0  0  0  0  0  0  0  0  0  0  0  0
  143.0700   72.7740  218.3750 C   0  0  0  0  0  0  0  0  0  0  0  0
  142.2120   72.1140  219.3580 N   0  0  0  0  0  0  0  0  0  0  0  0
  141.5700   72.8690  220.3670 C   0  0  0  0  0  0  0  0  0  0  0  0
  141.0010   72.1780  221.3730 N   0  0  0  0  0  0  0  0  0  0  0  0
  140.3710   72.8490  222.3490 C   0  0  0  0  0  0  0  0  0  0  0  0
  139.7890   72.0400  223.3810 N   0  0  0  0  0  0  0  0  0  0  0  0
  140.4280   70.8460  223.8980 C   0  0  0  0  0  0  0  0  0  0  0  0
  139.8250   70.4810  225.2470 C   0  0  2  0  0  0  0  0  0  0  0  0
  140.5490   71.2990  226.2910 C   0  0  0  0  0  0  0  0  0  0  0  0
  141.0790   70.3610  227.3500 C   0  0  0  0  0  0  0  0  0  0  0  0
  139.8860   69.5110  227.7980 C   0  0  0  0  0  0  0  0  0  0  0  0
  139.5780   68.5720  226.7620 N   0  0  0  0  0  0  0  0  0  0  0  0
  139.9730   69.0080  225.4450 C   0  0  0  0  0  0  0  0  0  0  0  0
  140.3000   74.1890  222.3370 N   0  0  0  0  0  0  0  0  0  0  0  0
  140.8700   74.9100  221.3270 C   0  0  0  0  0  0  0  0  0  0  0  0
  140.8030   76.3290  221.2870 N   0  0  0  0  0  0  0  0  0  0  0  0
  141.3900   76.9880  220.1440 C   0  0  0  0  0  0  0  0  0  0  0  0
  140.9990   78.4630  220.1480 C   0  0  0  0  0  0  0  0  0  0  0  0
  141.4650   78.9880  221.4600 C   0  0  0  0  0  0  0  0  0  0  0  0
  142.2650   80.0960  221.5770 C   0  0  0  0  0  0  0  0  0  0  0  0
  142.6350   80.4870  222.8460 C   0  0  0  0  0  0  0  0  0  0  0  0
  142.2190   79.7920  223.9720 C   0  0  0  0  0  0  0  0  0  0  0  0
  141.4090   78.6690  223.8680 C   0  0  0  0  0  0  0  0  0  0  0  0
  141.0510   78.2950  222.5910 C   0  0  0  0  0  0  0  0  0  0  0  0
  140.1780   77.0960  222.3370 C   0  0  0  0  0  0  0  0  0  0  0  0
  141.4900   74.2080  220.3700 N   0  0  0  0  0  0  0  0  0  0  0  0
  142.0910   70.6750  219.2110 C   0  0  0  0  0  0  0  0  0  0  0  0
  146.9170   68.4860  219.4051 H   0  0  0  0  0  0  0  0  0  0  0  0
  144.9258   67.0941  219.9332 H   0  0  0  0  0  0  0  0  0  0  0  0
  142.6523   68.1470  219.8334 H   0  0  0  0  0  0  0  0  0  0  0  0
  146.7010   70.8591  218.7858 H   0  0  0  0  0  0  0  0  0  0  0  0
  144.9598   72.8735  219.3826 H   0  0  0  0  0  0  0  0  0  0  0  0
  145.0316   72.3977  217.6300 H   0  0  0  0  0  0  0  0  0  0  0  0
  143.0289   73.8641  218.5167 H   0  0  0  0  0  0  0  0  0  0  0  0
  142.7306   72.5398  217.3552 H   0  0  0  0  0  0  0  0  0  0  0  0
  138.8690   72.3720  223.7390 H   0  0  0  0  0  0  0  0  0  0  0  0
  140.2750   70.0156  223.1930 H   0  0  0  0  0  0  0  0  0  0  0  0
  141.5047   71.0347  224.0207 H   0  0  0  0  0  0  0  0  0  0  0  0
  138.7507   70.7071  225.3162 H   0  0  0  0  0  0  0  0  0  0  0  0
  141.3841   71.8417  225.8241 H   0  0  0  0  0  0  0  0  0  0  0  0
  139.8609   72.0285  226.7430 H   0  0  0  0  0  0  0  0  0  0  0  0
  141.8691   69.7201  226.9318 H   0  0  0  0  0  0  0  0  0  0  0  0
  141.5188   70.9135  228.1934 H   0  0  0  0  0  0  0  0  0  0  0  0
  140.1415   68.9721  228.7223 H   0  0  0  0  0  0  0  0  0  0  0  0
  139.0163   70.1566  227.9901 H   0  0  0  0  0  0  0  0  0  0  0  0
  140.0190   67.6530  226.9870 H   0  0  0  0  0  0  0  0  0  0  0  0
  141.0278   68.7379  225.2884 H   0  0  0  0  0  0  0  0  0  0  0  0
  139.3092   68.5114  224.7221 H   0  0  0  0  0  0  0  0  0  0  0  0
  142.4853   76.8993  220.1927 H   0  0  0  0  0  0  0  0  0  0  0  0
  141.0234   76.5150  219.2210 H   0  0  0  0  0  0  0  0  0  0  0  0
  141.4937   78.9952  219.3221 H   0  0  0  0  0  0  0  0  0  0  0  0
  139.9162   78.6011  220.0117 H   0  0  0  0  0  0  0  0  0  0  0  0
  142.5996   80.6530  220.6894 H   0  0  0  0  0  0  0  0  0  0  0  0
  143.2762   81.3723  222.9688 H   0  0  0  0  0  0  0  0  0  0  0  0
  142.5370   80.1372  224.9668 H   0  0  0  0  0  0  0  0  0  0  0  0
  141.0726   78.1102  224.7538 H   0  0  0  0  0  0  0  0  0  0  0  0
  140.0967   76.4885  223.2504 H   0  0  0  0  0  0  0  0  0  0  0  0
  139.1640   77.4059  222.0441 H   0  0  0  0  0  0  0  0  0  0  0  0
  141.4796   70.2703  220.0310 H   0  0  0  0  0  0  0  0  0  0  0  0
  141.6086   70.4379  218.2513 H   0  0  0  0  0  0  0  0  0  0  0  0
  1  2  2  0
  2  3  1  0
  3  4  2  0
  4  5  1  0
  5  6  2  0
  5  7  1  0
  7  8  1  0
  8  9  1  0
  9 10  1  0
 10 11  2  0
 11 12  1  0
 12 13  1  0
 13 14  1  0
 14 15  1  0
 15 16  1  0
 16 17  1  0
 17 18  1  0
 18 19  1  0
 19 20  1  0
 12 21  2  0
 21 22  1  0
 22 23  1  0
 23 24  1  0
 24 25  1  0
 25 26  1  0
 26 27  2  0
 27 28  1  0
 28 29  2  0
 29 30  1  0
 30 31  2  0
 31 32  1  0
 22 33  2  0
  9 34  1  0
  6  1  1  0
 33 10  1  0
 34  4  1  0
 20 15  1  0
 32 23  1  0
 31 26  1  0
  1 35  1  0
  2 36  1  0
  3 37  1  0
  6 38  1  0
  7 39  1  0
  7 40  1  0
  8 41  1  0
  8 42  1  0
 13 43  1  0
 14 44  1  0
 14 45  1  0
 15 46  1  6
 16 47  1  0
 16 48  1  0
 17 49  1  0
 17 50  1  0
 18 51  1  0
 18 52  1  0
 19 53  1  0
 20 54  1  0
 20 55  1  0
 24 56  1  0
 24 57  1  0
 25 58  1  0
 25 59  1  0
 27 60  1  0
 28 61  1  0
 29 62  1  0
 30 63  1  0
 32 64  1  0
 32 65  1  0
 34 66  1  0
 34 67  1  0
M  END
>  <smiles>  (49) 
c1ccc2c(c1)CCN(c1nc(NCC3CCCNC3)nc(N3CCc4ccccc4C3)n1)C2

>  <score_type>  (49) 
oracle

>  <origin>  (49) 
autodockgpu

>  <m_score__min__energy>  (49) 
-10.83

>  <m_primary>  (49) 
energy

>  <rmsd>  (49) 
9.279751937339915

>  <m_score__min__rmsd>  (49) 
9.279751937339915

>  <meeko>  (49) 
{"free_energy": -9.79, "intermolecular_energy": -11.28, "internal_energy": -0.91, "cluster_size": 15, "cluster_id": 2, "rank_in_cluster": 3}

>  <energy>  (49) 
-8.59

>  <cluster_rmsd>  (49) 
0.0

>  <cluster>  (49) 
6

$$$$

     RDKit          3D

 67 72  0  0  0  0  0  0  0  0999 V2000
  140.4040   67.4240  226.4530 C   0  0  0  0  0  0  0  0  0  0  0  0
  141.1220   68.3910  227.1500 C   0  0  0  0  0  0  0  0  0  0  0  0
  140.9670   69.7140  226.7900 C   0  0  0  0  0  0  0  0  0  0  0  0
  140.1080   70.0070  225.7560 C   0  0  0  0  0  0  0  0  0  0  0  0
  139.3880   69.0790  225.0520 C   0  0  0  0  0  0  0  0  0  0  0  0
  139.5500   67.7460  225.4210 C   0  0  0  0  0  0  0  0  0  0  0  0
  138.4630   69.3510  223.9400 C   0  0  0  0  0  0  0  0  0  0  0  0
  138.2250   70.8400  223.7400 C   0  0  0  0  0  0  0  0  0  0  0  0
  139.4800   71.5420  224.0040 N   0  0  0  0  0  0  0  0  0  0  0  0
  140.1460   72.2310  222.9640 C   0  0  0  0  0  0  0  0  0  0  0  0
  141.0040   71.5150  222.2120 N   0  0  0  0  0  0  0  0  0  0  0  0
  141.6680   72.1270  221.2200 C   0  0  0  0  0  0  0  0  0  0  0  0
  142.5630   71.2960  220.4680 N   0  0  0  0  0  0  0  0  0  0  0  0
  143.9830   71.5660  220.3620 C   0  0  0  0  0  0  0  0  0  0  0  0
  144.2230   72.6820  219.3550 C   0  0  2  0  0  0  0  0  0  0  0  0
  144.5560   73.9260  220.1460 C   0  0  0  0  0  0  0  0  0  0  0  0
  143.6240   75.0330  219.7090 C   0  0  0  0  0  0  0  0  0  0  0  0
  143.7300   75.0970  218.1820 C   0  0  0  0  0  0  0  0  0  0  0  0
  143.0510   73.9650  217.6280 N   0  0  0  0  0  0  0  0  0  0  0  0
  142.9970   72.8270  218.5150 C   0  0  0  0  0  0  0  0  0  0  0  0
  141.4910   73.4330  220.9680 N   0  0  0  0  0  0  0  0  0  0  0  0
  140.6270   74.1790  221.7180 C   0  0  0  0  0  0  0  0  0  0  0  0
  140.4260   75.5650  221.4770 N   0  0  0  0  0  0  0  0  0  0  0  0
  140.6480   76.0430  220.1320 C   0  0  0  0  0  0  0  0  0  0  0  0
  140.1410   77.4770  220.0090 C   0  0  0  0  0  0  0  0  0  0  0  0
  140.8690   78.2420  221.0570 C   0  0  0  0  0  0  0  0  0  0  0  0
  141.5710   79.3890  220.7880 C   0  0  0  0  0  0  0  0  0  0  0  0
  142.2080   80.0110  221.8410 C   0  0  0  0  0  0  0  0  0  0  0  0
  142.1490   79.5020  223.1310 C   0  0  0  0  0  0  0  0  0  0  0  0
  141.4420   78.3410  223.4160 C   0  0  0  0  0  0  0  0  0  0  0  0
  140.8130   77.7360  222.3500 C   0  0  0  0  0  0  0  0  0  0  0  0
  140.0150   76.4720  222.5210 C   0  0  0  0  0  0  0  0  0  0  0  0
  139.9820   73.5350  222.6990 N   0  0  0  0  0  0  0  0  0  0  0  0
  139.9610   71.4610  225.3710 C   0  0  0  0  0  0  0  0  0  0  0  0
  140.5222   66.3675  226.7354 H   0  0  0  0  0  0  0  0  0  0  0  0
  141.7982   68.1070  227.9698 H   0  0  0  0  0  0  0  0  0  0  0  0
  141.5143   70.5112  227.3144 H   0  0  0  0  0  0  0  0  0  0  0  0
  138.9992   66.9546  224.8915 H   0  0  0  0  0  0  0  0  0  0  0  0
  138.8882   68.9332  223.0156 H   0  0  0  0  0  0  0  0  0  0  0  0
  137.4968   68.8849  224.1835 H   0  0  0  0  0  0  0  0  0  0  0  0
  137.9023   71.0300  222.7057 H   0  0  0  0  0  0  0  0  0  0  0  0
  137.4397   71.1948  224.4237 H   0  0  0  0  0  0  0  0  0  0  0  0
  142.1210   70.4770  220.0010 H   0  0  0  0  0  0  0  0  0  0  0  0
  144.3708   71.8717  221.3449 H   0  0  0  0  0  0  0  0  0  0  0  0
  144.5011   70.6560  220.0253 H   0  0  0  0  0  0  0  0  0  0  0  0
  145.0583   72.4760  218.6695 H   0  0  0  0  0  0  0  0  0  0  0  0
  144.4223   73.7301  221.2201 H   0  0  0  0  0  0  0  0  0  0  0  0
  145.6010   74.2191  219.9672 H   0  0  0  0  0  0  0  0  0  0  0  0
  142.5913   74.8045  220.0111 H   0  0  0  0  0  0  0  0  0  0  0  0
  143.8946   75.9934  220.1720 H   0  0  0  0  0  0  0  0  0  0  0  0
  143.2635   76.0239  217.8169 H   0  0  0  0  0  0  0  0  0  0  0  0
  144.7872   75.0860  217.8784 H   0  0  0  0  0  0  0  0  0  0  0  0
  142.0870   74.2460  217.3410 H   0  0  0  0  0  0  0  0  0  0  0  0
  142.1283   72.9420  219.1800 H   0  0  0  0  0  0  0  0  0  0  0  0
  142.9191   71.9259  217.8890 H   0  0  0  0  0  0  0  0  0  0  0  0
  141.7242   76.0144  219.9061 H   0  0  0  0  0  0  0  0  0  0  0  0
  140.1059   75.4013  219.4218 H   0  0  0  0  0  0  0  0  0  0  0  0
  140.3660   77.8809  219.0109 H   0  0  0  0  0  0  0  0  0  0  0  0
  139.0505   77.5390  220.1391 H   0  0  0  0  0  0  0  0  0  0  0  0
  141.6240   79.7983  219.7684 H   0  0  0  0  0  0  0  0  0  0  0  0
  142.7771   80.9336  221.6540 H   0  0  0  0  0  0  0  0  0  0  0  0
  142.6722   80.0282  223.9431 H   0  0  0  0  0  0  0  0  0  0  0  0
  141.3874   77.9283  224.4342 H   0  0  0  0  0  0  0  0  0  0  0  0
  140.2176   76.0286  223.5071 H   0  0  0  0  0  0  0  0  0  0  0  0
  138.9365   76.6788  222.4571 H   0  0  0  0  0  0  0  0  0  0  0  0
  140.9364   71.9635  225.4491 H   0  0  0  0  0  0  0  0  0  0  0  0
  139.2458   71.9536  226.0462 H   0  0  0  0  0  0  0  0  0  0  0  0
  1  2  2  0
  2  3  1  0
  3  4  2  0
  4  5  1  0
  5  6  2  0
  5  7  1  0
  7  8  1  0
  8  9  1  0
  9 10  1  0
 10 11  2  0
 11 12  1  0
 12 13  1  0
 13 14  1  0
 14 15  1  0
 15 16  1  0
 16 17  1  0
 17 18  1  0
 18 19  1  0
 19 20  1  0
 12 21  2  0
 21 22  1  0
 22 23  1  0
 23 24  1  0
 24 25  1  0
 25 26  1  0
 26 27  2  0
 27 28  1  0
 28 29  2  0
 29 30  1  0
 30 31  2  0
 31 32  1  0
 22 33  2  0
  9 34  1  0
  6  1  1  0
 33 10  1  0
 34  4  1  0
 20 15  1  0
 32 23  1  0
 31 26  1  0
  1 35  1  0
  2 36  1  0
  3 37  1  0
  6 38  1  0
  7 39  1  0
  7 40  1  0
  8 41  1  0
  8 42  1  0
 13 43  1  0
 14 44  1  0
 14 45  1  0
 15 46  1  6
 16 47  1  0
 16 48  1  0
 17 49  1  0
 17 50  1  0
 18 51  1  0
 18 52  1  0
 19 53  1  0
 20 54  1  0
 20 55  1  0
 24 56  1  0
 24 57  1  0
 25 58  1  0
 25 59  1  0
 27 60  1  0
 28 61  1  0
 29 62  1  0
 30 63  1  0
 32 64  1  0
 32 65  1  0
 34 66  1  0
 34 67  1  0
M  END
>  <smiles>  (50) 
c1ccc2c(c1)CCN(c1nc(NCC3CCCNC3)nc(N3CCc4ccccc4C3)n1)C2

>  <score_type>  (50) 
oracle

>  <origin>  (50) 
autodockgpu

>  <m_score__min__energy>  (50) 
-10.83

>  <m_primary>  (50) 
energy

>  <rmsd>  (50) 
5.745379812326656

>  <m_score__min__rmsd>  (50) 
5.745379812326656

>  <meeko>  (50) 
{"free_energy": -9.15, "intermolecular_energy": -10.64, "internal_energy": -1.44, "cluster_size": 29, "cluster_id": 1, "rank_in_cluster": 23}

>  <energy>  (50) 
-7.52

>  <cluster_rmsd>  (50) 
0.0

>  <cluster>  (50) 
7

$$$$

     RDKit          3D

 67 72  0  0  0  0  0  0  0  0999 V2000
  139.9360   68.0850  226.6130 C   0  0  0  0  0  0  0  0  0  0  0  0
  140.5330   69.1670  227.2500 C   0  0  0  0  0  0  0  0  0  0  0  0
  140.6940   70.3930  226.6220 C   0  0  0  0  0  0  0  0  0  0  0  0
  140.2280   70.5020  225.3150 C   0  0  0  0  0  0  0  0  0  0  0  0
  139.6350   69.4310  224.6830 C   0  0  0  0  0  0  0  0  0  0  0  0
  139.4770   68.2090  225.3130 C   0  0  0  0  0  0  0  0  0  0  0  0
  139.1210   69.5420  223.2700 C   0  0  0  0  0  0  0  0  0  0  0  0
  138.5710   70.9780  223.1740 C   0  0  0  0  0  0  0  0  0  0  0  0
  139.7660   71.8080  223.3190 N   0  0  0  0  0  0  0  0  0  0  0  0
  140.2720   72.6090  222.2420 C   0  0  0  0  0  0  0  0  0  0  0  0
  140.7290   72.0150  221.1010 N   0  0  0  0  0  0  0  0  0  0  0  0
  141.2500   72.7600  220.0810 C   0  0  0  0  0  0  0  0  0  0  0  0
  141.6870   72.0850  218.9120 N   0  0  0  0  0  0  0  0  0  0  0  0
  142.8910   71.3030  218.8190 C   0  0  0  0  0  0  0  0  0  0  0  0
  144.0480   72.1250  219.3770 C   0  0  1  0  0  0  0  0  0  0  0  0
  144.0670   73.5170  218.8370 C   0  0  0  0  0  0  0  0  0  0  0  0
  144.4300   74.4670  219.9560 C   0  0  0  0  0  0  0  0  0  0  0  0
  145.5920   73.9430  220.7680 C   0  0  0  0  0  0  0  0  0  0  0  0
  145.3500   72.6420  221.3290 N   0  0  0  0  0  0  0  0  0  0  0  0
  144.0780   72.1310  220.8790 C   0  0  0  0  0  0  0  0  0  0  0  0
  141.3060   74.1080  220.2180 N   0  0  0  0  0  0  0  0  0  0  0  0
  140.8550   74.7130  221.3460 C   0  0  0  0  0  0  0  0  0  0  0  0
  140.9530   76.1150  221.4450 N   0  0  0  0  0  0  0  0  0  0  0  0
  140.9290   76.8840  220.2060 C   0  0  0  0  0  0  0  0  0  0  0  0
  142.1100   77.8620  220.3000 C   0  0  0  0  0  0  0  0  0  0  0  0
  141.6860   78.8390  221.3640 C   0  0  0  0  0  0  0  0  0  0  0  0
  141.7870   80.2000  221.1880 C   0  0  0  0  0  0  0  0  0  0  0  0
  141.3890   81.0580  222.1890 C   0  0  0  0  0  0  0  0  0  0  0  0
  140.8880   80.5310  223.3730 C   0  0  0  0  0  0  0  0  0  0  0  0
  140.8020   79.1690  223.5140 C   0  0  0  0  0  0  0  0  0  0  0  0
  141.1890   78.2700  222.5350 C   0  0  0  0  0  0  0  0  0  0  0  0
  141.0790   76.7960  222.7170 C   0  0  0  0  0  0  0  0  0  0  0  0
  140.3480   73.9460  222.3340 N   0  0  0  0  0  0  0  0  0  0  0  0
  140.3960   71.7990  224.6290 C   0  0  0  0  0  0  0  0  0  0  0  0
  139.8281   67.1275  227.1437 H   0  0  0  0  0  0  0  0  0  0  0  0
  140.8886   69.0470  228.2840 H   0  0  0  0  0  0  0  0  0  0  0  0
  141.1693   71.2423  227.1345 H   0  0  0  0  0  0  0  0  0  0  0  0
  139.0013   67.3622  224.7966 H   0  0  0  0  0  0  0  0  0  0  0  0
  139.9351   69.3878  222.5464 H   0  0  0  0  0  0  0  0  0  0  0  0
  138.3572   68.7843  223.0410 H   0  0  0  0  0  0  0  0  0  0  0  0
  138.0876   71.1503  222.2010 H   0  0  0  0  0  0  0  0  0  0  0  0
  137.8024   71.1953  223.9303 H   0  0  0  0  0  0  0  0  0  0  0  0
  141.0480   72.1940  218.0660 H   0  0  0  0  0  0  0  0  0  0  0  0
  142.7781   70.3776  219.4029 H   0  0  0  0  0  0  0  0  0  0  0  0
  143.0884   71.0396  217.7694 H   0  0  0  0  0  0  0  0  0  0  0  0
  144.9647   71.6235  219.0332 H   0  0  0  0  0  0  0  0  0  0  0  0
  144.8128   73.5914  218.0319 H   0  0  0  0  0  0  0  0  0  0  0  0
  143.0771   73.7754  218.4327 H   0  0  0  0  0  0  0  0  0  0  0  0
  144.7051   75.4405  219.5241 H   0  0  0  0  0  0  0  0  0  0  0  0
  143.5597   74.5675  220.6212 H   0  0  0  0  0  0  0  0  0  0  0  0
  146.4757   73.8835  220.1157 H   0  0  0  0  0  0  0  0  0  0  0  0
  145.7438   74.6377  221.6073 H   0  0  0  0  0  0  0  0  0  0  0  0
  146.0770   71.9680  221.0020 H   0  0  0  0  0  0  0  0  0  0  0  0
  143.9408   71.1058  221.2533 H   0  0  0  0  0  0  0  0  0  0  0  0
  143.2684   72.7702  221.2610 H   0  0  0  0  0  0  0  0  0  0  0  0
  141.0507   76.2181  219.3390 H   0  0  0  0  0  0  0  0  0  0  0  0
  139.9735   77.4131  220.0753 H   0  0  0  0  0  0  0  0  0  0  0  0
  143.0306   77.3370  220.5949 H   0  0  0  0  0  0  0  0  0  0  0  0
  142.3343   78.3504  219.3402 H   0  0  0  0  0  0  0  0  0  0  0  0
  142.1865   80.6035  220.2459 H   0  0  0  0  0  0  0  0  0  0  0  0
  141.4668   82.1468  222.0529 H   0  0  0  0  0  0  0  0  0  0  0  0
  140.5646   81.1970  224.1865 H   0  0  0  0  0  0  0  0  0  0  0  0
  140.4032   78.7689  224.4579 H   0  0  0  0  0  0  0  0  0  0  0  0
  141.9802   76.4305  223.2310 H   0  0  0  0  0  0  0  0  0  0  0  0
  140.1783   76.5867  223.3127 H   0  0  0  0  0  0  0  0  0  0  0  0
  141.4707   71.9999  224.5076 H   0  0  0  0  0  0  0  0  0  0  0  0
  139.9133   72.5733  225.2434 H   0  0  0  0  0  0  0  0  0  0  0  0
  1  2  2  0
  2  3  1  0
  3  4  2  0
  4  5  1  0
  5  6  2  0
  5  7  1  0
  7  8  1  0
  8  9  1  0
  9 10  1  0
 10 11  2  0
 11 12  1  0
 12 13  1  0
 13 14  1  0
 14 15  1  0
 15 16  1  0
 16 17  1  0
 17 18  1  0
 18 19  1  0
 19 20  1  0
 12 21  2  0
 21 22  1  0
 22 23  1  0
 23 24  1  0
 24 25  1  0
 25 26  1  0
 26 27  2  0
 27 28  1  0
 28 29  2  0
 29 30  1  0
 30 31  2  0
 31 32  1  0
 22 33  2  0
  9 34  1  0
  6  1  1  0
 33 10  1  0
 34  4  1  0
 20 15  1  0
 32 23  1  0
 31 26  1  0
  1 35  1  0
  2 36  1  0
  3 37  1  0
  6 38  1  0
  7 39  1  0
  7 40  1  0
  8 41  1  0
  8 42  1  0
 13 43  1  0
 14 44  1  0
 14 45  1  0
 15 46  1  6
 16 47  1  0
 16 48  1  0
 17 49  1  0
 17 50  1  0
 18 51  1  0
 18 52  1  0
 19 53  1  0
 20 54  1  0
 20 55  1  0
 24 56  1  0
 24 57  1  0
 25 58  1  0
 25 59  1  0
 27 60  1  0
 28 61  1  0
 29 62  1  0
 30 63  1  0
 32 64  1  0
 32 65  1  0
 34 66  1  0
 34 67  1  0
M  END
>  <smiles>  (51) 
c1ccc2c(c1)CCN(c1nc(NCC3CCCNC3)nc(N3CCc4ccccc4C3)n1)C2

>  <score_type>  (51) 
oracle

>  <origin>  (51) 
autodockgpu

>  <m_score__min__energy>  (51) 
-10.529999999999999

>  <m_primary>  (51) 
energy

>  <rmsd>  (51) 
5.866063604256274

>  <m_score__min__rmsd>  (51) 
5.866063604256274

>  <meeko>  (51) 
{"free_energy": -9.87, "intermolecular_energy": -11.36, "internal_energy": -1.37, "cluster_size": 44, "cluster_id": 1, "rank_in_cluster": 13}

>  <energy>  (51) 
-10.53

>  <cluster_rmsd>  (51) 
0.0

>  <cluster>  (51) 
1

$$$$

     RDKit          3D

 67 72  0  0  0  0  0  0  0  0999 V2000
  146.3240   68.4770  218.8740 C   0  0  0  0  0  0  0  0  0  0  0  0
  145.1660   67.7150  218.9930 C   0  0  0  0  0  0  0  0  0  0  0  0
  143.9400   68.2850  219.3030 C   0  0  0  0  0  0  0  0  0  0  0  0
  143.9110   69.6640  219.4900 C   0  0  0  0  0  0  0  0  0  0  0  0
  145.0580   70.4190  219.3720 C   0  0  0  0  0  0  0  0  0  0  0  0
  146.2780   69.8460  219.0640 C   0  0  0  0  0  0  0  0  0  0  0  0
  145.0330   71.9140  219.5670 C   0  0  0  0  0  0  0  0  0  0  0  0
  143.6780   72.3550  218.9830 C   0  0  0  0  0  0  0  0  0  0  0  0
  142.7050   71.7360  219.8830 N   0  0  0  0  0  0  0  0  0  0  0  0
  141.8660   72.5140  220.7480 C   0  0  0  0  0  0  0  0  0  0  0  0
  140.9950   71.8940  221.5970 N   0  0  0  0  0  0  0  0  0  0  0  0
  140.1610   72.6190  222.4010 C   0  0  0  0  0  0  0  0  0  0  0  0
  139.2950   71.9160  223.2780 N   0  0  0  0  0  0  0  0  0  0  0  0
  139.5910   70.6380  223.8710 C   0  0  0  0  0  0  0  0  0  0  0  0
  139.7950   70.8350  225.3700 C   0  0  1  0  0  0  0  0  0  0  0  0
  139.6360   69.5630  226.1360 C   0  0  0  0  0  0  0  0  0  0  0  0
  140.6930   69.5120  227.2170 C   0  0  0  0  0  0  0  0  0  0  0  0
  140.8060   70.8340  227.9400 C   0  0  0  0  0  0  0  0  0  0  0  0
  141.0980   71.9350  227.0630 N   0  0  0  0  0  0  0  0  0  0  0  0
  141.1080   71.4930  225.6890 C   0  0  0  0  0  0  0  0  0  0  0  0
  140.2110   73.9730  222.3440 N   0  0  0  0  0  0  0  0  0  0  0  0
  141.0720   74.6030  221.5050 C   0  0  0  0  0  0  0  0  0  0  0  0
  141.0720   76.0120  221.4720 N   0  0  0  0  0  0  0  0  0  0  0  0
  141.0690   76.6580  220.1650 C   0  0  0  0  0  0  0  0  0  0  0  0
  142.1760   77.7220  220.2250 C   0  0  0  0  0  0  0  0  0  0  0  0
  141.6260   78.7610  221.1640 C   0  0  0  0  0  0  0  0  0  0  0  0
  141.6470   80.1040  220.8620 C   0  0  0  0  0  0  0  0  0  0  0  0
  141.1350   81.0210  221.7530 C   0  0  0  0  0  0  0  0  0  0  0  0
  140.6020   80.5730  222.9550 C   0  0  0  0  0  0  0  0  0  0  0  0
  140.5970   79.2270  223.2230 C   0  0  0  0  0  0  0  0  0  0  0  0
  141.1000   78.2710  222.3580 C   0  0  0  0  0  0  0  0  0  0  0  0
  141.0770   76.8160  222.6770 C   0  0  0  0  0  0  0  0  0  0  0  0
  141.8810   73.8550  220.7250 N   0  0  0  0  0  0  0  0  0  0  0  0
  142.6150   70.2870  219.8260 C   0  0  0  0  0  0  0  0  0  0  0  0
  147.2788   67.9892  218.6281 H   0  0  0  0  0  0  0  0  0  0  0  0
  145.2245   66.6278  218.8365 H   0  0  0  0  0  0  0  0  0  0  0  0
  143.0303   67.6738  219.3969 H   0  0  0  0  0  0  0  0  0  0  0  0
  147.1854   70.4610  218.9728 H   0  0  0  0  0  0  0  0  0  0  0  0
  145.0974   72.1681  220.6353 H   0  0  0  0  0  0  0  0  0  0  0  0
  145.8823   72.4143  219.0787 H   0  0  0  0  0  0  0  0  0  0  0  0
  143.5826   73.4508  218.9933 H   0  0  0  0  0  0  0  0  0  0  0  0
  143.5442   72.0552  217.9331 H   0  0  0  0  0  0  0  0  0  0  0  0
  138.3720   72.4050  223.4830 H   0  0  0  0  0  0  0  0  0  0  0  0
  138.7535   69.9460  223.6984 H   0  0  0  0  0  0  0  0  0  0  0  0
  140.5004   70.2148  223.4195 H   0  0  0  0  0  0  0  0  0  0  0  0
  138.9970   71.5192  225.6942 H   0  0  0  0  0  0  0  0  0  0  0  0
  138.6364   69.5292  226.5939 H   0  0  0  0  0  0  0  0  0  0  0  0
  139.7492   68.7023  225.4605 H   0  0  0  0  0  0  0  0  0  0  0  0
  140.4259   68.7291  227.9421 H   0  0  0  0  0  0  0  0  0  0  0  0
  141.6615   69.2919  226.7442 H   0  0  0  0  0  0  0  0  0  0  0  0
  139.8526   71.0364  228.4500 H   0  0  0  0  0  0  0  0  0  0  0  0
  141.6431   70.7490  228.6485 H   0  0  0  0  0  0  0  0  0  0  0  0
  140.3530   72.6630  227.1390 H   0  0  0  0  0  0  0  0  0  0  0  0
  141.2564   72.3579  225.0257 H   0  0  0  0  0  0  0  0  0  0  0  0
  141.9269   70.7740  225.5389 H   0  0  0  0  0  0  0  0  0  0  0  0
  141.2844   75.9245  219.3741 H   0  0  0  0  0  0  0  0  0  0  0  0
  140.0899   77.1031  219.9342 H   0  0  0  0  0  0  0  0  0  0  0  0
  143.1099   77.2939  220.6181 H   0  0  0  0  0  0  0  0  0  0  0  0
  142.4248   78.1327  219.2354 H   0  0  0  0  0  0  0  0  0  0  0  0
  142.0735   80.4453  219.9072 H   0  0  0  0  0  0  0  0  0  0  0  0
  141.1480   82.0950  221.5157 H   0  0  0  0  0  0  0  0  0  0  0  0
  140.1894   81.2876  223.6824 H   0  0  0  0  0  0  0  0  0  0  0  0
  140.1694   78.8893  224.1786 H   0  0  0  0  0  0  0  0  0  0  0  0
  141.9683   76.5655  223.2710 H   0  0  0  0  0  0  0  0  0  0  0  0
  140.1585   76.5994  223.2422 H   0  0  0  0  0  0  0  0  0  0  0  0
  142.2850   69.9130  220.8064 H   0  0  0  0  0  0  0  0  0  0  0  0
  141.8965   70.0225  219.0362 H   0  0  0  0  0  0  0  0  0  0  0  0
  1  2  2  0
  2  3  1  0
  3  4  2  0
  4  5  1  0
  5  6  2  0
  5  7  1  0
  7  8  1  0
  8  9  1  0
  9 10  1  0
 10 11  2  0
 11 12  1  0
 12 13  1  0
 13 14  1  0
 14 15  1  0
 15 16  1  0
 16 17  1  0
 17 18  1  0
 18 19  1  0
 19 20  1  0
 12 21  2  0
 21 22  1  0
 22 23  1  0
 23 24  1  0
 24 25  1  0
 25 26  1  0
 26 27  2  0
 27 28  1  0
 28 29  2  0
 29 30  1  0
 30 31  2  0
 31 32  1  0
 22 33  2  0
  9 34  1  0
  6  1  1  0
 33 10  1  0
 34  4  1  0
 20 15  1  0
 32 23  1  0
 31 26  1  0
  1 35  1  0
  2 36  1  0
  3 37  1  0
  6 38  1  0
  7 39  1  0
  7 40  1  0
  8 41  1  0
  8 42  1  0
 13 43  1  0
 14 44  1  0
 14 45  1  0
 15 46  1  1
 16 47  1  0
 16 48  1  0
 17 49  1  0
 17 50  1  0
 18 51  1  0
 18 52  1  0
 19 53  1  0
 20 54  1  0
 20 55  1  0
 24 56  1  0
 24 57  1  0
 25 58  1  0
 25 59  1  0
 27 60  1  0
 28 61  1  0
 29 62  1  0
 30 63  1  0
 32 64  1  0
 32 65  1  0
 34 66  1  0
 34 67  1  0
M  END
>  <smiles>  (52) 
c1ccc2c(c1)CCN(c1nc(NCC3CCCNC3)nc(N3CCc4ccccc4C3)n1)C2

>  <score_type>  (52) 
oracle

>  <origin>  (52) 
autodockgpu

>  <m_score__min__energy>  (52) 
-10.529999999999999

>  <m_primary>  (52) 
energy

>  <rmsd>  (52) 
8.870743633288475

>  <m_score__min__rmsd>  (52) 
8.870743633288475

>  <meeko>  (52) 
{"free_energy": -9.89, "intermolecular_energy": -11.38, "internal_energy": -0.91, "cluster_size": 4, "cluster_id": 2, "rank_in_cluster": 1}

>  <energy>  (52) 
-10.47

>  <cluster_rmsd>  (52) 
0.41

>  <cluster>  (52) 
1

$$$$

     RDKit          3D

 67 72  0  0  0  0  0  0  0  0999 V2000
  139.7410   68.0300  226.4090 C   0  0  0  0  0  0  0  0  0  0  0  0
  140.4370   69.0370  227.0700 C   0  0  0  0  0  0  0  0  0  0  0  0
  140.6590   70.2790  226.4930 C   0  0  0  0  0  0  0  0  0  0  0  0
  140.1500   70.4830  225.2130 C   0  0  0  0  0  0  0  0  0  0  0  0
  139.4590   69.4870  224.5580 C   0  0  0  0  0  0  0  0  0  0  0  0
  139.2410   68.2490  225.1380 C   0  0  0  0  0  0  0  0  0  0  0  0
  138.8990   69.7020  223.1760 C   0  0  0  0  0  0  0  0  0  0  0  0
  138.4470   71.1750  223.1690 C   0  0  0  0  0  0  0  0  0  0  0  0
  139.7030   71.9130  223.3010 N   0  0  0  0  0  0  0  0  0  0  0  0
  140.2210   72.7300  222.2420 C   0  0  0  0  0  0  0  0  0  0  0  0
  140.7250   72.1510  221.1130 N   0  0  0  0  0  0  0  0  0  0  0  0
  141.2580   72.9120  220.1100 C   0  0  0  0  0  0  0  0  0  0  0  0
  141.7450   72.2520  218.9530 N   0  0  0  0  0  0  0  0  0  0  0  0
  143.0290   71.6090  218.8560 C   0  0  0  0  0  0  0  0  0  0  0  0
  144.1020   72.6010  219.2950 C   0  0  1  0  0  0  0  0  0  0  0  0
  144.1320   72.7850  220.7760 C   0  0  0  0  0  0  0  0  0  0  0  0
  145.5730   72.8680  221.2260 C   0  0  0  0  0  0  0  0  0  0  0  0
  146.3820   73.7710  220.3240 C   0  0  0  0  0  0  0  0  0  0  0  0
  146.3520   73.3660  218.9450 N   0  0  0  0  0  0  0  0  0  0  0  0
  145.4640   72.2420  218.7710 C   0  0  0  0  0  0  0  0  0  0  0  0
  141.2780   74.2610  220.2530 N   0  0  0  0  0  0  0  0  0  0  0  0
  140.7790   74.8500  221.3690 C   0  0  0  0  0  0  0  0  0  0  0  0
  140.8410   76.2540  221.4740 N   0  0  0  0  0  0  0  0  0  0  0  0
  140.6880   77.0320  220.2500 C   0  0  0  0  0  0  0  0  0  0  0  0
  141.8410   78.0470  220.2550 C   0  0  0  0  0  0  0  0  0  0  0  0
  141.4770   79.0010  221.3610 C   0  0  0  0  0  0  0  0  0  0  0  0
  141.5200   80.3660  221.1930 C   0  0  0  0  0  0  0  0  0  0  0  0
  141.1810   81.2020  222.2330 C   0  0  0  0  0  0  0  0  0  0  0  0
  140.7980   80.6500  223.4490 C   0  0  0  0  0  0  0  0  0  0  0  0
  140.7680   79.2840  223.5820 C   0  0  0  0  0  0  0  0  0  0  0  0
  141.0990   78.4070  222.5640 C   0  0  0  0  0  0  0  0  0  0  0  0
  141.0520   76.9280  222.7390 C   0  0  0  0  0  0  0  0  0  0  0  0
  140.2620   74.0680  222.3390 N   0  0  0  0  0  0  0  0  0  0  0  0
  140.3810   71.7970  224.5820 C   0  0  0  0  0  0  0  0  0  0  0  0
  139.5879   67.0569  226.8985 H   0  0  0  0  0  0  0  0  0  0  0  0
  140.8232   68.8425  228.0814 H   0  0  0  0  0  0  0  0  0  0  0  0
  141.2127   71.0678  227.0233 H   0  0  0  0  0  0  0  0  0  0  0  0
  138.6868   67.4630  224.6041 H   0  0  0  0  0  0  0  0  0  0  0  0
  139.6712   69.5284  222.4120 H   0  0  0  0  0  0  0  0  0  0  0  0
  138.0754   69.0102  222.9456 H   0  0  0  0  0  0  0  0  0  0  0  0
  137.9392   71.4269  222.2263 H   0  0  0  0  0  0  0  0  0  0  0  0
  137.7253   71.4076  223.9659 H   0  0  0  0  0  0  0  0  0  0  0  0
  141.0800   72.2580  218.1210 H   0  0  0  0  0  0  0  0  0  0  0  0
  143.0514   70.7247  219.5099 H   0  0  0  0  0  0  0  0  0  0  0  0
  143.2129   71.2892  217.8197 H   0  0  0  0  0  0  0  0  0  0  0  0
  143.8209   73.5655  218.8469 H   0  0  0  0  0  0  0  0  0  0  0  0
  143.6066   73.7135  221.0442 H   0  0  0  0  0  0  0  0  0  0  0  0
  143.6341   71.9369  221.2688 H   0  0  0  0  0  0  0  0  0  0  0  0
  145.6053   73.2647  222.2515 H   0  0  0  0  0  0  0  0  0  0  0  0
  146.0072   71.8582  221.1839 H   0  0  0  0  0  0  0  0  0  0  0  0
  145.9785   74.7917  220.3977 H   0  0  0  0  0  0  0  0  0  0  0  0
  147.4284   73.7160  220.6588 H   0  0  0  0  0  0  0  0  0  0  0  0
  145.9790   74.1390  218.3510 H   0  0  0  0  0  0  0  0  0  0  0  0
  145.3926   71.9918  217.7022 H   0  0  0  0  0  0  0  0  0  0  0  0
  145.8547   71.3742  219.3226 H   0  0  0  0  0  0  0  0  0  0  0  0
  140.7571   76.3776  219.3686 H   0  0  0  0  0  0  0  0  0  0  0  0
  139.7086   77.5308  220.2060 H   0  0  0  0  0  0  0  0  0  0  0  0
  142.7993   77.5500  220.4662 H   0  0  0  0  0  0  0  0  0  0  0  0
  141.9683   78.5499  219.2850 H   0  0  0  0  0  0  0  0  0  0  0  0
  141.8260   80.7903  220.2254 H   0  0  0  0  0  0  0  0  0  0  0  0
  141.2130   82.2938  222.1027 H   0  0  0  0  0  0  0  0  0  0  0  0
  140.5226   81.2986  224.2937 H   0  0  0  0  0  0  0  0  0  0  0  0
  140.4639   78.8631  224.5517 H   0  0  0  0  0  0  0  0  0  0  0  0
  142.0046   76.5880  223.1715 H   0  0  0  0  0  0  0  0  0  0  0  0
  140.2122   76.6842  223.4063 H   0  0  0  0  0  0  0  0  0  0  0  0
  141.4615   71.9306  224.4253 H   0  0  0  0  0  0  0  0  0  0  0  0
  139.9772   72.5709  225.2513 H   0  0  0  0  0  0  0  0  0  0  0  0
  1  2  2  0
  2  3  1  0
  3  4  2  0
  4  5  1  0
  5  6  2  0
  5  7  1  0
  7  8  1  0
  8  9  1  0
  9 10  1  0
 10 11  2  0
 11 12  1  0
 12 13  1  0
 13 14  1  0
 14 15  1  0
 15 16  1  0
 16 17  1  0
 17 18  1  0
 18 19  1  0
 19 20  1  0
 12 21  2  0
 21 22  1  0
 22 23  1  0
 23 24  1  0
 24 25  1  0
 25 26  1  0
 26 27  2  0
 27 28  1  0
 28 29  2  0
 29 30  1  0
 30 31  2  0
 31 32  1  0
 22 33  2  0
  9 34  1  0
  6  1  1  0
 33 10  1  0
 34  4  1  0
 20 15  1  0
 32 23  1  0
 31 26  1  0
  1 35  1  0
  2 36  1  0
  3 37  1  0
  6 38  1  0
  7 39  1  0
  7 40  1  0
  8 41  1  0
  8 42  1  0
 13 43  1  0
 14 44  1  0
 14 45  1  0
 15 46  1  6
 16 47  1  0
 16 48  1  0
 17 49  1  0
 17 50  1  0
 18 51  1  0
 18 52  1  0
 19 53  1  0
 20 54  1  0
 20 55  1  0
 24 56  1  0
 24 57  1  0
 25 58  1  0
 25 59  1  0
 27 60  1  0
 28 61  1  0
 29 62  1  0
 30 63  1  0
 32 64  1  0
 32 65  1  0
 34 66  1  0
 34 67  1  0
M  END
>  <smiles>  (53) 
c1ccc2c(c1)CCN(c1nc(NCC3CCCNC3)nc(N3CCc4ccccc4C3)n1)C2

>  <score_type>  (53) 
oracle

>  <origin>  (53) 
autodockgpu

>  <m_score__min__energy>  (53) 
-10.529999999999999

>  <m_primary>  (53) 
energy

>  <rmsd>  (53) 
6.295319066078701

>  <m_score__min__rmsd>  (53) 
6.295319066078701

>  <meeko>  (53) 
{"free_energy": -10.53, "intermolecular_energy": -12.02, "internal_energy": -1.01, "cluster_size": 44, "cluster_id": 1, "rank_in_cluster": 1}

>  <energy>  (53) 
-10.46

>  <cluster_rmsd>  (53) 
0.55

>  <cluster>  (53) 
1

$$$$

     RDKit          3D

 67 72  0  0  0  0  0  0  0  0999 V2000
  139.6520   80.1140  223.5700 C   0  0  0  0  0  0  0  0  0  0  0  0
  140.9420   80.0690  223.0520 C   0  0  0  0  0  0  0  0  0  0  0  0
  141.4390   78.9420  222.4140 C   0  0  0  0  0  0  0  0  0  0  0  0
  140.5890   77.8450  222.3100 C   0  0  0  0  0  0  0  0  0  0  0  0
  139.3100   77.8890  222.8220 C   0  0  0  0  0  0  0  0  0  0  0  0
  138.8190   79.0150  223.4580 C   0  0  0  0  0  0  0  0  0  0  0  0
  138.3810   76.7080  222.7080 C   0  0  0  0  0  0  0  0  0  0  0  0
  138.7090   76.0930  221.3340 C   0  0  0  0  0  0  0  0  0  0  0  0
  140.0810   75.6120  221.4990 N   0  0  0  0  0  0  0  0  0  0  0  0
  140.4040   74.2150  221.4920 C   0  0  0  0  0  0  0  0  0  0  0  0
  140.8280   73.6140  220.3420 N   0  0  0  0  0  0  0  0  0  0  0  0
  141.1040   72.2770  220.3070 C   0  0  0  0  0  0  0  0  0  0  0  0
  141.5630   71.7170  219.0870 N   0  0  0  0  0  0  0  0  0  0  0  0
  142.9340   71.7220  218.6480 C   0  0  0  0  0  0  0  0  0  0  0  0
  143.7640   72.5110  219.6560 C   0  0  1  0  0  0  0  0  0  0  0  0
  145.1090   71.9040  219.8830 C   0  0  0  0  0  0  0  0  0  0  0  0
  146.1310   73.0130  219.9850 C   0  0  0  0  0  0  0  0  0  0  0  0
  145.6390   74.1380  220.8650 C   0  0  0  0  0  0  0  0  0  0  0  0
  144.3930   74.7000  220.4210 N   0  0  0  0  0  0  0  0  0  0  0  0
  143.8850   73.9630  219.2890 C   0  0  0  0  0  0  0  0  0  0  0  0
  140.9500   71.5480  221.4410 N   0  0  0  0  0  0  0  0  0  0  0  0
  140.5300   72.1310  222.5920 C   0  0  0  0  0  0  0  0  0  0  0  0
  140.3700   71.3240  223.7360 N   0  0  0  0  0  0  0  0  0  0  0  0
  139.8530   69.9740  223.5460 C   0  0  0  0  0  0  0  0  0  0  0  0
  138.7280   69.8090  224.5800 C   0  0  0  0  0  0  0  0  0  0  0  0
  139.4540   69.7570  225.8970 C   0  0  0  0  0  0  0  0  0  0  0  0
  139.1880   68.7910  226.8410 C   0  0  0  0  0  0  0  0  0  0  0  0
  139.8750   68.7830  228.0340 C   0  0  0  0  0  0  0  0  0  0  0  0
  140.8340   69.7600  228.2710 C   0  0  0  0  0  0  0  0  0  0  0  0
  141.0730   70.7080  227.3080 C   0  0  0  0  0  0  0  0  0  0  0  0
  140.4090   70.7540  226.0950 C   0  0  0  0  0  0  0  0  0  0  0  0
  140.6940   71.7940  225.0680 C   0  0  0  0  0  0  0  0  0  0  0  0
  140.2660   73.4540  222.5890 N   0  0  0  0  0  0  0  0  0  0  0  0
  141.1040   76.6350  221.6390 C   0  0  0  0  0  0  0  0  0  0  0  0
  139.2931   81.0257  224.0700 H   0  0  0  0  0  0  0  0  0  0  0  0
  141.5877   80.9540  223.1513 H   0  0  0  0  0  0  0  0  0  0  0  0
  142.4609   78.9165  222.0078 H   0  0  0  0  0  0  0  0  0  0  0  0
  137.7964   79.0360  223.8628 H   0  0  0  0  0  0  0  0  0  0  0  0
  138.5713   75.9839  223.5139 H   0  0  0  0  0  0  0  0  0  0  0  0
  137.3233   76.9968  222.7961 H   0  0  0  0  0  0  0  0  0  0  0  0
  138.0259   75.2630  221.1007 H   0  0  0  0  0  0  0  0  0  0  0  0
  138.6005   76.8083  220.5054 H   0  0  0  0  0  0  0  0  0  0  0  0
  140.8050   71.2720  218.4850 H   0  0  0  0  0  0  0  0  0  0  0  0
  143.3077   70.6892  218.5876 H   0  0  0  0  0  0  0  0  0  0  0  0
  143.0089   72.1863  217.6536 H   0  0  0  0  0  0  0  0  0  0  0  0
  143.2122   72.4572  220.6060 H   0  0  0  0  0  0  0  0  0  0  0  0
  145.0997   71.3224  220.8166 H   0  0  0  0  0  0  0  0  0  0  0  0
  145.3640   71.2354  219.0475 H   0  0  0  0  0  0  0  0  0  0  0  0
  147.0597   72.6055  220.4110 H   0  0  0  0  0  0  0  0  0  0  0  0
  146.3071   73.4148  218.9763 H   0  0  0  0  0  0  0  0  0  0  0  0
  145.5038   73.7502  221.8855 H   0  0  0  0  0  0  0  0  0  0  0  0
  146.3921   74.9387  220.8239 H   0  0  0  0  0  0  0  0  0  0  0  0
  143.6750   74.6240  221.1750 H   0  0  0  0  0  0  0  0  0  0  0  0
  142.8960   74.3550  219.0091 H   0  0  0  0  0  0  0  0  0  0  0  0
  144.5742   74.0721  218.4387 H   0  0  0  0  0  0  0  0  0  0  0  0
  139.4572   69.8550  222.5266 H   0  0  0  0  0  0  0  0  0  0  0  0
  140.6394   69.2163  223.6779 H   0  0  0  0  0  0  0  0  0  0  0  0
  138.0372   70.6644  224.5471 H   0  0  0  0  0  0  0  0  0  0  0  0
  138.1120   68.9158  224.3988 H   0  0  0  0  0  0  0  0  0  0  0  0
  138.4251   68.0240  226.6417 H   0  0  0  0  0  0  0  0  0  0  0  0
  139.6671   68.0122  228.7907 H   0  0  0  0  0  0  0  0  0  0  0  0
  141.3941   69.7734  229.2177 H   0  0  0  0  0  0  0  0  0  0  0  0
  141.8353   71.4744  227.5119 H   0  0  0  0  0  0  0  0  0  0  0  0
  140.0929   72.6886  225.2880 H   0  0  0  0  0  0  0  0  0  0  0  0
  141.7683   72.0281  225.1009 H   0  0  0  0  0  0  0  0  0  0  0  0
  141.9354   76.2267  222.2323 H   0  0  0  0  0  0  0  0  0  0  0  0
  141.4374   76.9219  220.6308 H   0  0  0  0  0  0  0  0  0  0  0  0
  1  2  2  0
  2  3  1  0
  3  4  2  0
  4  5  1  0
  5  6  2  0
  5  7  1  0
  7  8  1  0
  8  9  1  0
  9 10  1  0
 10 11  2  0
 11 12  1  0
 12 13  1  0
 13 14  1  0
 14 15  1  0
 15 16  1  0
 16 17  1  0
 17 18  1  0
 18 19  1  0
 19 20  1  0
 12 21  2  0
 21 22  1  0
 22 23  1  0
 23 24  1  0
 24 25  1  0
 25 26  1  0
 26 27  2  0
 27 28  1  0
 28 29  2  0
 29 30  1  0
 30 31  2  0
 31 32  1  0
 22 33  2  0
  9 34  1  0
  6  1  1  0
 33 10  1  0
 34  4  1  0
 20 15  1  0
 32 23  1  0
 31 26  1  0
  1 35  1  0
  2 36  1  0
  3 37  1  0
  6 38  1  0
  7 39  1  0
  7 40  1  0
  8 41  1  0
  8 42  1  0
 13 43  1  0
 14 44  1  0
 14 45  1  0
 15 46  1  1
 16 47  1  0
 16 48  1  0
 17 49  1  0
 17 50  1  0
 18 51  1  0
 18 52  1  0
 19 53  1  0
 20 54  1  0
 20 55  1  0
 24 56  1  0
 24 57  1  0
 25 58  1  0
 25 59  1  0
 27 60  1  0
 28 61  1  0
 29 62  1  0
 30 63  1  0
 32 64  1  0
 32 65  1  0
 34 66  1  0
 34 67  1  0
M  END
>  <smiles>  (54) 
c1ccc2c(c1)CCN(c1nc(NCC3CCCNC3)nc(N3CCc4ccccc4C3)n1)C2

>  <score_type>  (54) 
oracle

>  <origin>  (54) 
autodockgpu

>  <m_score__min__energy>  (54) 
-10.529999999999999

>  <m_primary>  (54) 
energy

>  <rmsd>  (54) 
5.913322828916854

>  <m_score__min__rmsd>  (54) 
5.913322828916854

>  <meeko>  (54) 
{"free_energy": -9.55, "intermolecular_energy": -11.04, "internal_energy": -1.33, "cluster_size": 44, "cluster_id": 1, "rank_in_cluster": 35}

>  <energy>  (54) 
-10.42

>  <cluster_rmsd>  (54) 
0.48

>  <cluster>  (54) 
1

$$$$

     RDKit          3D

 67 72  0  0  0  0  0  0  0  0999 V2000
  139.7960   67.9710  226.7870 C   0  0  0  0  0  0  0  0  0  0  0  0
  140.4550   69.0350  227.3930 C   0  0  0  0  0  0  0  0  0  0  0  0
  140.6640   70.2400  226.7390 C   0  0  0  0  0  0  0  0  0  0  0  0
  140.1830   70.3460  225.4370 C   0  0  0  0  0  0  0  0  0  0  0  0
  139.5300   69.2920  224.8350 C   0  0  0  0  0  0  0  0  0  0  0  0
  139.3240   68.0920  225.4920 C   0  0  0  0  0  0  0  0  0  0  0  0
  139.0000   69.4020  223.4280 C   0  0  0  0  0  0  0  0  0  0  0  0
  138.5170   70.8600  223.3120 C   0  0  0  0  0  0  0  0  0  0  0  0
  139.7530   71.6340  223.4220 N   0  0  0  0  0  0  0  0  0  0  0  0
  140.2800   72.3890  222.3230 C   0  0  0  0  0  0  0  0  0  0  0  0
  140.7890   71.7470  221.2310 N   0  0  0  0  0  0  0  0  0  0  0  0
  141.3290   72.4500  220.1910 C   0  0  0  0  0  0  0  0  0  0  0  0
  141.8210   71.7250  219.0750 N   0  0  0  0  0  0  0  0  0  0  0  0
  142.5670   72.3030  217.9870 C   0  0  0  0  0  0  0  0  0  0  0  0
  143.9500   72.6910  218.4990 C   0  0  1  0  0  0  0  0  0  0  0  0
  143.9870   74.0840  219.0350 C   0  0  0  0  0  0  0  0  0  0  0  0
  144.8400   74.1010  220.2840 C   0  0  0  0  0  0  0  0  0  0  0  0
  146.1190   73.3200  220.0890 C   0  0  0  0  0  0  0  0  0  0  0  0
  145.8930   71.9530  219.7040 N   0  0  0  0  0  0  0  0  0  0  0  0
  144.4850   71.7130  219.5070 C   0  0  0  0  0  0  0  0  0  0  0  0
  141.3530   73.8050  220.2590 N   0  0  0  0  0  0  0  0  0  0  0  0
  140.8500   74.4560  221.3370 C   0  0  0  0  0  0  0  0  0  0  0  0
  140.9150   75.8640  221.3650 N   0  0  0  0  0  0  0  0  0  0  0  0
  140.8720   76.5690  220.0890 C   0  0  0  0  0  0  0  0  0  0  0  0
  142.0300   77.5780  220.1310 C   0  0  0  0  0  0  0  0  0  0  0  0
  141.5830   78.5960  221.1450 C   0  0  0  0  0  0  0  0  0  0  0  0
  141.6520   79.9490  220.9010 C   0  0  0  0  0  0  0  0  0  0  0  0
  141.2350   80.8460  221.8580 C   0  0  0  0  0  0  0  0  0  0  0  0
  140.7470   80.3690  223.0680 C   0  0  0  0  0  0  0  0  0  0  0  0
  140.6930   79.0140  223.2780 C   0  0  0  0  0  0  0  0  0  0  0  0
  141.1000   78.0760  222.3450 C   0  0  0  0  0  0  0  0  0  0  0  0
  141.0250   76.6110  222.6010 C   0  0  0  0  0  0  0  0  0  0  0  0
  140.3240   73.7300  222.3460 N   0  0  0  0  0  0  0  0  0  0  0  0
  140.4020   71.6200  224.7230 C   0  0  0  0  0  0  0  0  0  0  0  0
  139.6496   67.0306  227.3386 H   0  0  0  0  0  0  0  0  0  0  0  0
  140.8220   68.9173  228.4233 H   0  0  0  0  0  0  0  0  0  0  0  0
  141.1869   71.0753  227.2277 H   0  0  0  0  0  0  0  0  0  0  0  0
  138.8007   67.2591  224.9996 H   0  0  0  0  0  0  0  0  0  0  0  0
  139.7946   69.1960  222.6958 H   0  0  0  0  0  0  0  0  0  0  0  0
  138.1975   68.6776  223.2250 H   0  0  0  0  0  0  0  0  0  0  0  0
  138.0264   71.0366  222.3434 H   0  0  0  0  0  0  0  0  0  0  0  0
  137.7718   71.1285  224.0753 H   0  0  0  0  0  0  0  0  0  0  0  0
  141.5990   70.6840  219.0830 H   0  0  0  0  0  0  0  0  0  0  0  0
  142.6652   71.5690  217.1736 H   0  0  0  0  0  0  0  0  0  0  0  0
  142.0449   73.1918  217.6030 H   0  0  0  0  0  0  0  0  0  0  0  0
  144.6143   72.6559  217.6229 H   0  0  0  0  0  0  0  0  0  0  0  0
  144.4200   74.7589  218.2820 H   0  0  0  0  0  0  0  0  0  0  0  0
  142.9673   74.4209  219.2732 H   0  0  0  0  0  0  0  0  0  0  0  0
  145.0911   75.1429  220.5317 H   0  0  0  0  0  0  0  0  0  0  0  0
  144.2693   73.6326  221.0994 H   0  0  0  0  0  0  0  0  0  0  0  0
  146.7127   73.8111  219.3039 H   0  0  0  0  0  0  0  0  0  0  0  0
  146.6447   73.3057  221.0552 H   0  0  0  0  0  0  0  0  0  0  0  0
  146.3620   71.7540  218.7930 H   0  0  0  0  0  0  0  0  0  0  0  0
  144.3352   70.6873  219.1390 H   0  0  0  0  0  0  0  0  0  0  0  0
  143.9528   71.8397  220.4613 H   0  0  0  0  0  0  0  0  0  0  0  0
  141.0085   75.8633  219.2563 H   0  0  0  0  0  0  0  0  0  0  0  0
  139.9043   77.0685  219.9341 H   0  0  0  0  0  0  0  0  0  0  0  0
  142.9630   77.0906  220.4502 H   0  0  0  0  0  0  0  0  0  0  0  0
  142.2426   78.0224  219.1475 H   0  0  0  0  0  0  0  0  0  0  0  0
  142.0412   80.3141  219.9391 H   0  0  0  0  0  0  0  0  0  0  0  0
  141.2875   81.9280  221.6669 H   0  0  0  0  0  0  0  0  0  0  0  0
  140.4085   81.0679  223.8471 H   0  0  0  0  0  0  0  0  0  0  0  0
  140.3045   78.6530  224.2417 H   0  0  0  0  0  0  0  0  0  0  0  0
  141.9347   76.2933  223.1316 H   0  0  0  0  0  0  0  0  0  0  0  0
  140.1295   76.4107  223.2077 H   0  0  0  0  0  0  0  0  0  0  0  0
  141.4830   71.7669  224.5822 H   0  0  0  0  0  0  0  0  0  0  0  0
  139.9661   72.4281  225.3287 H   0  0  0  0  0  0  0  0  0  0  0  0
  1  2  2  0
  2  3  1  0
  3  4  2  0
  4  5  1  0
  5  6  2  0
  5  7  1  0
  7  8  1  0
  8  9  1  0
  9 10  1  0
 10 11  2  0
 11 12  1  0
 12 13  1  0
 13 14  1  0
 14 15  1  0
 15 16  1  0
 16 17  1  0
 17 18  1  0
 18 19  1  0
 19 20  1  0
 12 21  2  0
 21 22  1  0
 22 23  1  0
 23 24  1  0
 24 25  1  0
 25 26  1  0
 26 27  2  0
 27 28  1  0
 28 29  2  0
 29 30  1  0
 30 31  2  0
 31 32  1  0
 22 33  2  0
  9 34  1  0
  6  1  1  0
 33 10  1  0
 34  4  1  0
 20 15  1  0
 32 23  1  0
 31 26  1  0
  1 35  1  0
  2 36  1  0
  3 37  1  0
  6 38  1  0
  7 39  1  0
  7 40  1  0
  8 41  1  0
  8 42  1  0
 13 43  1  0
 14 44  1  0
 14 45  1  0
 15 46  1  6
 16 47  1  0
 16 48  1  0
 17 49  1  0
 17 50  1  0
 18 51  1  0
 18 52  1  0
 19 53  1  0
 20 54  1  0
 20 55  1  0
 24 56  1  0
 24 57  1  0
 25 58  1  0
 25 59  1  0
 27 60  1  0
 28 61  1  0
 29 62  1  0
 30 63  1  0
 32 64  1  0
 32 65  1  0
 34 66  1  0
 34 67  1  0
M  END
>  <smiles>  (55) 
c1ccc2c(c1)CCN(c1nc(NCC3CCCNC3)nc(N3CCc4ccccc4C3)n1)C2

>  <score_type>  (55) 
oracle

>  <origin>  (55) 
autodockgpu

>  <m_score__min__energy>  (55) 
-10.529999999999999

>  <m_primary>  (55) 
energy

>  <rmsd>  (55) 
5.896915811150055

>  <m_score__min__rmsd>  (55) 
5.896915811150055

>  <meeko>  (55) 
{"free_energy": -9.42, "intermolecular_energy": -10.91, "internal_energy": -1.31, "cluster_size": 44, "cluster_id": 1, "rank_in_cluster": 40}

>  <energy>  (55) 
-10.38

>  <cluster_rmsd>  (55) 
0.37

>  <cluster>  (55) 
1

$$$$

     RDKit          3D

 67 72  0  0  0  0  0  0  0  0999 V2000
  140.3430   80.3030  223.4710 C   0  0  0  0  0  0  0  0  0  0  0  0
  141.5670   80.1900  222.8200 C   0  0  0  0  0  0  0  0  0  0  0  0
  141.9250   79.0470  222.1200 C   0  0  0  0  0  0  0  0  0  0  0  0
  141.0010   78.0060  222.0920 C   0  0  0  0  0  0  0  0  0  0  0  0
  139.7880   78.1170  222.7370 C   0  0  0  0  0  0  0  0  0  0  0  0
  139.4360   79.2590  223.4340 C   0  0  0  0  0  0  0  0  0  0  0  0
  138.7800   76.9970  222.7060 C   0  0  0  0  0  0  0  0  0  0  0  0
  138.9250   76.3890  221.2980 C   0  0  0  0  0  0  0  0  0  0  0  0
  140.2740   75.8230  221.3120 N   0  0  0  0  0  0  0  0  0  0  0  0
  140.5070   74.4090  221.2550 C   0  0  0  0  0  0  0  0  0  0  0  0
  140.8870   73.8230  220.0810 N   0  0  0  0  0  0  0  0  0  0  0  0
  141.0770   72.4730  219.9990 C   0  0  0  0  0  0  0  0  0  0  0  0
  141.4940   71.9280  218.7570 N   0  0  0  0  0  0  0  0  0  0  0  0
  142.8180   71.4330  218.4830 C   0  0  0  0  0  0  0  0  0  0  0  0
  143.8330   72.4470  219.0020 C   0  0  1  0  0  0  0  0  0  0  0  0
  143.8600   72.5100  220.4930 C   0  0  0  0  0  0  0  0  0  0  0  0
  145.2960   72.6410  220.9470 C   0  0  0  0  0  0  0  0  0  0  0  0
  146.0450   73.6620  220.1220 C   0  0  0  0  0  0  0  0  0  0  0  0
  146.0320   73.3710  218.7140 N   0  0  0  0  0  0  0  0  0  0  0  0
  145.2100   72.2150  218.4490 C   0  0  0  0  0  0  0  0  0  0  0  0
  140.8810   71.7160  221.1070 N   0  0  0  0  0  0  0  0  0  0  0  0
  140.5040   72.2840  222.2800 C   0  0  0  0  0  0  0  0  0  0  0  0
  140.2970   71.4490  223.3970 N   0  0  0  0  0  0  0  0  0  0  0  0
  139.6340   70.1700  223.1730 C   0  0  0  0  0  0  0  0  0  0  0  0
  138.5330   70.0790  224.2410 C   0  0  0  0  0  0  0  0  0  0  0  0
  139.2930   69.8940  225.5260 C   0  0  0  0  0  0  0  0  0  0  0  0
  138.9580   68.9210  226.4400 C   0  0  0  0  0  0  0  0  0  0  0  0
  139.6790   68.7890  227.6060 C   0  0  0  0  0  0  0  0  0  0  0  0
  140.7440   69.6480  227.8440 C   0  0  0  0  0  0  0  0  0  0  0  0
  141.0500   70.6070  226.9120 C   0  0  0  0  0  0  0  0  0  0  0  0
  140.3540   70.7760  225.7280 C   0  0  0  0  0  0  0  0  0  0  0  0
  140.7140   71.8240  224.7330 C   0  0  0  0  0  0  0  0  0  0  0  0
  140.3250   73.6200  222.3250 N   0  0  0  0  0  0  0  0  0  0  0  0
  141.3680   76.7790  221.3560 C   0  0  0  0  0  0  0  0  0  0  0  0
  140.0954   81.2253  224.0169 H   0  0  0  0  0  0  0  0  0  0  0  0
  142.2727   81.0327  222.8615 H   0  0  0  0  0  0  0  0  0  0  0  0
  142.8961   78.9668  221.6096 H   0  0  0  0  0  0  0  0  0  0  0  0
  138.4641   79.3347  223.9435 H   0  0  0  0  0  0  0  0  0  0  0  0
  139.0070   76.2477  223.4787 H   0  0  0  0  0  0  0  0  0  0  0  0
  137.7572   77.3481  222.9075 H   0  0  0  0  0  0  0  0  0  0  0  0
  138.1712   75.6063  221.1274 H   0  0  0  0  0  0  0  0  0  0  0  0
  138.7758   77.1250  220.4943 H   0  0  0  0  0  0  0  0  0  0  0  0
  140.7420   71.9050  218.0030 H   0  0  0  0  0  0  0  0  0  0  0  0
  142.9654   70.4681  218.9902 H   0  0  0  0  0  0  0  0  0  0  0  0
  142.9494   71.2897  217.4003 H   0  0  0  0  0  0  0  0  0  0  0  0
  143.4929   73.4268  218.6355 H   0  0  0  0  0  0  0  0  0  0  0  0
  143.2822   73.3804  220.8372 H   0  0  0  0  0  0  0  0  0  0  0  0
  143.4156   71.5964  220.9147 H   0  0  0  0  0  0  0  0  0  0  0  0
  145.3107   72.9529  222.0017 H   0  0  0  0  0  0  0  0  0  0  0  0
  145.7889   71.6657  220.8211 H   0  0  0  0  0  0  0  0  0  0  0  0
  145.5817   74.6471  220.2798 H   0  0  0  0  0  0  0  0  0  0  0  0
  147.0946   73.6420  220.4506 H   0  0  0  0  0  0  0  0  0  0  0  0
  145.6100   74.1670  218.1860 H   0  0  0  0  0  0  0  0  0  0  0  0
  145.1469   72.0502  217.3632 H   0  0  0  0  0  0  0  0  0  0  0  0
  145.6545   71.3297  218.9272 H   0  0  0  0  0  0  0  0  0  0  0  0
  139.1943   70.1374  222.1652 H   0  0  0  0  0  0  0  0  0  0  0  0
  140.3396   69.3292  223.2449 H   0  0  0  0  0  0  0  0  0  0  0  0
  137.9364   71.0027  224.2682 H   0  0  0  0  0  0  0  0  0  0  0  0
  137.8197   69.2642  224.0479 H   0  0  0  0  0  0  0  0  0  0  0  0
  138.1122   68.2471  226.2387 H   0  0  0  0  0  0  0  0  0  0  0  0
  139.4147   68.0130  228.3395 H   0  0  0  0  0  0  0  0  0  0  0  0
  141.3346   69.5605  228.7679 H   0  0  0  0  0  0  0  0  0  0  0  0
  141.8961   71.2793  227.1174 H   0  0  0  0  0  0  0  0  0  0  0  0
  140.2197   72.7665  225.0110 H   0  0  0  0  0  0  0  0  0  0  0  0
  141.8077   71.9420  224.7343 H   0  0  0  0  0  0  0  0  0  0  0  0
  142.2295   76.3103  221.8541 H   0  0  0  0  0  0  0  0  0  0  0  0
  141.6127   77.0633  220.3219 H   0  0  0  0  0  0  0  0  0  0  0  0
  1  2  2  0
  2  3  1  0
  3  4  2  0
  4  5  1  0
  5  6  2  0
  5  7  1  0
  7  8  1  0
  8  9  1  0
  9 10  1  0
 10 11  2  0
 11 12  1  0
 12 13  1  0
 13 14  1  0
 14 15  1  0
 15 16  1  0
 16 17  1  0
 17 18  1  0
 18 19  1  0
 19 20  1  0
 12 21  2  0
 21 22  1  0
 22 23  1  0
 23 24  1  0
 24 25  1  0
 25 26  1  0
 26 27  2  0
 27 28  1  0
 28 29  2  0
 29 30  1  0
 30 31  2  0
 31 32  1  0
 22 33  2  0
  9 34  1  0
  6  1  1  0
 33 10  1  0
 34  4  1  0
 20 15  1  0
 32 23  1  0
 31 26  1  0
  1 35  1  0
  2 36  1  0
  3 37  1  0
  6 38  1  0
  7 39  1  0
  7 40  1  0
  8 41  1  0
  8 42  1  0
 13 43  1  0
 14 44  1  0
 14 45  1  0
 15 46  1  6
 16 47  1  0
 16 48  1  0
 17 49  1  0
 17 50  1  0
 18 51  1  0
 18 52  1  0
 19 53  1  0
 20 54  1  0
 20 55  1  0
 24 56  1  0
 24 57  1  0
 25 58  1  0
 25 59  1  0
 27 60  1  0
 28 61  1  0
 29 62  1  0
 30 63  1  0
 32 64  1  0
 32 65  1  0
 34 66  1  0
 34 67  1  0
M  END
>  <smiles>  (56) 
c1ccc2c(c1)CCN(c1nc(NCC3CCCNC3)nc(N3CCc4ccccc4C3)n1)C2

>  <score_type>  (56) 
oracle

>  <origin>  (56) 
autodockgpu

>  <m_score__min__energy>  (56) 
-10.529999999999999

>  <m_primary>  (56) 
energy

>  <rmsd>  (56) 
6.241292019090861

>  <m_score__min__rmsd>  (56) 
6.241292019090861

>  <meeko>  (56) 
{"free_energy": -10.36, "intermolecular_energy": -11.85, "internal_energy": -0.88, "cluster_size": 44, "cluster_id": 1, "rank_in_cluster": 6}

>  <energy>  (56) 
-10.36

>  <cluster_rmsd>  (56) 
0.92

>  <cluster>  (56) 
1

$$$$

     RDKit          3D

 67 72  0  0  0  0  0  0  0  0999 V2000
  140.0880   68.3110  227.2860 C   0  0  0  0  0  0  0  0  0  0  0  0
  140.7700   69.4200  227.7750 C   0  0  0  0  0  0  0  0  0  0  0  0
  140.9610   70.5620  227.0110 C   0  0  0  0  0  0  0  0  0  0  0  0
  140.4380   70.5560  225.7210 C   0  0  0  0  0  0  0  0  0  0  0  0
  139.7620   69.4580  225.2350 C   0  0  0  0  0  0  0  0  0  0  0  0
  139.5750   68.3210  226.0010 C   0  0  0  0  0  0  0  0  0  0  0  0
  139.1880   69.4470  223.8420 C   0  0  0  0  0  0  0  0  0  0  0  0
  138.7060   70.8920  223.6140 C   0  0  0  0  0  0  0  0  0  0  0  0
  139.9470   71.6650  223.6160 N   0  0  0  0  0  0  0  0  0  0  0  0
  140.4400   72.3180  222.4380 C   0  0  0  0  0  0  0  0  0  0  0  0
  140.9030   71.5800  221.3870 N   0  0  0  0  0  0  0  0  0  0  0  0
  141.4110   72.1850  220.2720 C   0  0  0  0  0  0  0  0  0  0  0  0
  141.8550   71.3620  219.2050 N   0  0  0  0  0  0  0  0  0  0  0  0
  143.1280   70.6910  219.1630 C   0  0  0  0  0  0  0  0  0  0  0  0
  144.2170   71.6930  219.5320 C   0  0  1  0  0  0  0  0  0  0  0  0
  144.1540   72.9320  218.7010 C   0  0  0  0  0  0  0  0  0  0  0  0
  144.4330   74.1250  219.5870 C   0  0  0  0  0  0  0  0  0  0  0  0
  145.6110   73.8720  220.4980 C   0  0  0  0  0  0  0  0  0  0  0  0
  145.4450   72.7110  221.3290 N   0  0  0  0  0  0  0  0  0  0  0  0
  144.2180   72.0280  220.9960 C   0  0  0  0  0  0  0  0  0  0  0  0
  141.4490   73.5400  220.2240 N   0  0  0  0  0  0  0  0  0  0  0  0
  140.9920   74.2870  221.2600 C   0  0  0  0  0  0  0  0  0  0  0  0
  141.0710   75.6910  221.1650 N   0  0  0  0  0  0  0  0  0  0  0  0
  140.7700   76.4680  222.3620 C   0  0  0  0  0  0  0  0  0  0  0  0
  139.7860   77.5590  221.9140 C   0  0  0  0  0  0  0  0  0  0  0  0
  140.6260   78.4750  221.0650 C   0  0  0  0  0  0  0  0  0  0  0  0
  140.6090   79.8420  221.2290 C   0  0  0  0  0  0  0  0  0  0  0  0
  141.3920   80.6430  220.4280 C   0  0  0  0  0  0  0  0  0  0  0  0
  142.1930   80.0550  219.4580 C   0  0  0  0  0  0  0  0  0  0  0  0
  142.1840   78.6900  219.3220 C   0  0  0  0  0  0  0  0  0  0  0  0
  141.4150   77.8460  220.1040 C   0  0  0  0  0  0  0  0  0  0  0  0
  141.4310   76.3660  219.9350 C   0  0  0  0  0  0  0  0  0  0  0  0
  140.4970   73.6560  222.3450 N   0  0  0  0  0  0  0  0  0  0  0  0
  140.6380   71.7610  224.8920 C   0  0  0  0  0  0  0  0  0  0  0  0
  139.9561   67.4236  227.9224 H   0  0  0  0  0  0  0  0  0  0  0  0
  141.1703   69.3907  228.7991 H   0  0  0  0  0  0  0  0  0  0  0  0
  141.5020   71.4340  227.4072 H   0  0  0  0  0  0  0  0  0  0  0  0
  139.0345   67.4508  225.6003 H   0  0  0  0  0  0  0  0  0  0  0  0
  139.9582   69.1730  223.1059 H   0  0  0  0  0  0  0  0  0  0  0  0
  138.3774   68.7121  223.7287 H   0  0  0  0  0  0  0  0  0  0  0  0
  138.1848   70.9860  222.6499 H   0  0  0  0  0  0  0  0  0  0  0  0
  137.9867   71.2308  224.3742 H   0  0  0  0  0  0  0  0  0  0  0  0
  141.1660   71.2640  218.3990 H   0  0  0  0  0  0  0  0  0  0  0  0
  143.1319   69.8578  219.8812 H   0  0  0  0  0  0  0  0  0  0  0  0
  143.3100   70.2918  218.1543 H   0  0  0  0  0  0  0  0  0  0  0  0
  145.1712   71.1931  219.3093 H   0  0  0  0  0  0  0  0  0  0  0  0
  144.9079   72.8803  217.9017 H   0  0  0  0  0  0  0  0  0  0  0  0
  143.1569   73.0279  218.2464 H   0  0  0  0  0  0  0  0  0  0  0  0
  144.6512   74.9976  218.9539 H   0  0  0  0  0  0  0  0  0  0  0  0
  143.5458   74.3074  220.2112 H   0  0  0  0  0  0  0  0  0  0  0  0
  146.5089   73.7327  219.8780 H   0  0  0  0  0  0  0  0  0  0  0  0
  145.7007   74.7417  221.1655 H   0  0  0  0  0  0  0  0  0  0  0  0
  146.2210   72.0330  221.1600 H   0  0  0  0  0  0  0  0  0  0  0  0
  144.1417   71.1020  221.5847 H   0  0  0  0  0  0  0  0  0  0  0  0
  143.3608   72.6781  221.2255 H   0  0  0  0  0  0  0  0  0  0  0  0
  140.3095   75.8278  223.1289 H   0  0  0  0  0  0  0  0  0  0  0  0
  141.6798   76.8994  222.8049 H   0  0  0  0  0  0  0  0  0  0  0  0
  138.9624   77.1265  221.3269 H   0  0  0  0  0  0  0  0  0  0  0  0
  139.3134   78.0787  222.7605 H   0  0  0  0  0  0  0  0  0  0  0  0
  139.9692   80.2948  222.0008 H   0  0  0  0  0  0  0  0  0  0  0  0
  141.3831   81.7356  220.5550 H   0  0  0  0  0  0  0  0  0  0  0  0
  142.8264   80.6756  218.8072 H   0  0  0  0  0  0  0  0  0  0  0  0
  142.8239   78.2411  218.5480 H   0  0  0  0  0  0  0  0  0  0  0  0
  140.7125   76.0874  219.1500 H   0  0  0  0  0  0  0  0  0  0  0  0
  142.4502   76.0597  219.6568 H   0  0  0  0  0  0  0  0  0  0  0  0
  141.7144   71.8884  224.7043 H   0  0  0  0  0  0  0  0  0  0  0  0
  140.2249   72.6218  225.4383 H   0  0  0  0  0  0  0  0  0  0  0  0
  1  2  2  0
  2  3  1  0
  3  4  2  0
  4  5  1  0
  5  6  2  0
  5  7  1  0
  7  8  1  0
  8  9  1  0
  9 10  1  0
 10 11  2  0
 11 12  1  0
 12 13  1  0
 13 14  1  0
 14 15  1  0
 15 16  1  0
 16 17  1  0
 17 18  1  0
 18 19  1  0
 19 20  1  0
 12 21  2  0
 21 22  1  0
 22 23  1  0
 23 24  1  0
 24 25  1  0
 25 26  1  0
 26 27  2  0
 27 28  1  0
 28 29  2  0
 29 30  1  0
 30 31  2  0
 31 32  1  0
 22 33  2  0
  9 34  1  0
  6  1  1  0
 33 10  1  0
 34  4  1  0
 20 15  1  0
 32 23  1  0
 31 26  1  0
  1 35  1  0
  2 36  1  0
  3 37  1  0
  6 38  1  0
  7 39  1  0
  7 40  1  0
  8 41  1  0
  8 42  1  0
 13 43  1  0
 14 44  1  0
 14 45  1  0
 15 46  1  6
 16 47  1  0
 16 48  1  0
 17 49  1  0
 17 50  1  0
 18 51  1  0
 18 52  1  0
 19 53  1  0
 20 54  1  0
 20 55  1  0
 24 56  1  0
 24 57  1  0
 25 58  1  0
 25 59  1  0
 27 60  1  0
 28 61  1  0
 29 62  1  0
 30 63  1  0
 32 64  1  0
 32 65  1  0
 34 66  1  0
 34 67  1  0
M  END
>  <smiles>  (57) 
c1ccc2c(c1)CCN(c1nc(NCC3CCCNC3)nc(N3CCc4ccccc4C3)n1)C2

>  <score_type>  (57) 
oracle

>  <origin>  (57) 
autodockgpu

>  <m_score__min__energy>  (57) 
-10.529999999999999

>  <m_primary>  (57) 
energy

>  <rmsd>  (57) 
6.202352747253304

>  <m_score__min__rmsd>  (57) 
6.202352747253304

>  <meeko>  (57) 
{"free_energy": -9.17, "intermolecular_energy": -10.67, "internal_energy": -1.27, "cluster_size": 44, "cluster_id": 1, "rank_in_cluster": 43}

>  <energy>  (57) 
-10.32

>  <cluster_rmsd>  (57) 
1.1

>  <cluster>  (57) 
1

$$$$

     RDKit          3D

 67 72  0  0  0  0  0  0  0  0999 V2000
  140.1430   67.5690  226.6350 C   0  0  0  0  0  0  0  0  0  0  0  0
  140.7620   68.6270  227.2920 C   0  0  0  0  0  0  0  0  0  0  0  0
  140.8370   69.8960  226.7360 C   0  0  0  0  0  0  0  0  0  0  0  0
  140.2600   70.0730  225.4820 C   0  0  0  0  0  0  0  0  0  0  0  0
  139.6450   69.0250  224.8300 C   0  0  0  0  0  0  0  0  0  0  0  0
  139.5740   67.7620  225.3890 C   0  0  0  0  0  0  0  0  0  0  0  0
  139.0130   69.2100  223.4750 C   0  0  0  0  0  0  0  0  0  0  0  0
  138.4180   70.6300  223.5190 C   0  0  0  0  0  0  0  0  0  0  0  0
  139.5990   71.4880  223.6210 N   0  0  0  0  0  0  0  0  0  0  0  0
  139.9910   72.3720  222.5620 C   0  0  0  0  0  0  0  0  0  0  0  0
  140.4620   71.8660  221.3850 N   0  0  0  0  0  0  0  0  0  0  0  0
  140.8760   72.6940  220.3790 C   0  0  0  0  0  0  0  0  0  0  0  0
  141.3340   72.1070  219.1720 N   0  0  0  0  0  0  0  0  0  0  0  0
  142.5100   71.2850  219.0550 C   0  0  0  0  0  0  0  0  0  0  0  0
  143.7250   72.1160  219.4580 C   0  0  1  0  0  0  0  0  0  0  0  0
  143.6740   73.5020  218.9040 C   0  0  0  0  0  0  0  0  0  0  0  0
  144.1690   74.4640  219.9600 C   0  0  0  0  0  0  0  0  0  0  0  0
  145.4220   73.9510  220.6290 C   0  0  0  0  0  0  0  0  0  0  0  0
  145.2530   72.6560  221.2310 N   0  0  0  0  0  0  0  0  0  0  0  0
  143.9370   72.1390  220.9450 C   0  0  0  0  0  0  0  0  0  0  0  0
  140.8110   74.0360  220.5690 N   0  0  0  0  0  0  0  0  0  0  0  0
  140.3440   74.5530  221.7330 C   0  0  0  0  0  0  0  0  0  0  0  0
  140.3150   75.9540  221.8840 N   0  0  0  0  0  0  0  0  0  0  0  0
  139.1050   76.5490  222.4400 C   0  0  0  0  0  0  0  0  0  0  0  0
  138.7440   77.7110  221.5020 C   0  0  0  0  0  0  0  0  0  0  0  0
  139.8220   78.7290  221.7580 C   0  0  0  0  0  0  0  0  0  0  0  0
  139.5360   80.0570  221.9840 C   0  0  0  0  0  0  0  0  0  0  0  0
  140.5540   80.9550  222.2120 C   0  0  0  0  0  0  0  0  0  0  0  0
  141.8680   80.5040  222.2090 C   0  0  0  0  0  0  0  0  0  0  0  0
  142.1170   79.1740  221.9800 C   0  0  0  0  0  0  0  0  0  0  0  0
  141.1260   78.2370  221.7480 C   0  0  0  0  0  0  0  0  0  0  0  0
  141.4290   76.7990  221.5060 C   0  0  0  0  0  0  0  0  0  0  0  0
  139.9450   73.7060  222.7040 N   0  0  0  0  0  0  0  0  0  0  0  0
  140.3350   71.4150  224.8720 C   0  0  0  0  0  0  0  0  0  0  0  0
  140.1058   66.5763  227.1073 H   0  0  0  0  0  0  0  0  0  0  0  0
  141.2059   68.4523  228.2832 H   0  0  0  0  0  0  0  0  0  0  0  0
  141.3308   70.7256  227.2631 H   0  0  0  0  0  0  0  0  0  0  0  0
  139.0795   66.9351  224.8583 H   0  0  0  0  0  0  0  0  0  0  0  0
  139.7681   69.1291  222.6792 H   0  0  0  0  0  0  0  0  0  0  0  0
  138.2534   68.4442  223.2591 H   0  0  0  0  0  0  0  0  0  0  0  0
  137.8508   70.8480  222.6020 H   0  0  0  0  0  0  0  0  0  0  0  0
  137.7092   70.7737  224.3478 H   0  0  0  0  0  0  0  0  0  0  0  0
  140.7350   72.3170  218.3160 H   0  0  0  0  0  0  0  0  0  0  0  0
  142.4204   70.4128  219.7192 H   0  0  0  0  0  0  0  0  0  0  0  0
  142.6216   70.9329  218.0189 H   0  0  0  0  0  0  0  0  0  0  0  0
  144.5946   71.6127  219.0102 H   0  0  0  0  0  0  0  0  0  0  0  0
  144.3154   73.5684  218.0128 H   0  0  0  0  0  0  0  0  0  0  0  0
  142.6416   73.7549  218.6207 H   0  0  0  0  0  0  0  0  0  0  0  0
  144.3868   75.4331  219.4874 H   0  0  0  0  0  0  0  0  0  0  0  0
  143.3864   74.5701  220.7257 H   0  0  0  0  0  0  0  0  0  0  0  0
  146.2192   73.8842  219.8740 H   0  0  0  0  0  0  0  0  0  0  0  0
  145.6743   74.6558  221.4350 H   0  0  0  0  0  0  0  0  0  0  0  0
  145.9370   71.9790  220.8250 H   0  0  0  0  0  0  0  0  0  0  0  0
  143.8485   71.1180  221.3446 H   0  0  0  0  0  0  0  0  0  0  0  0
  143.1783   72.7817  221.4155 H   0  0  0  0  0  0  0  0  0  0  0  0
  138.2909   75.8097  222.4655 H   0  0  0  0  0  0  0  0  0  0  0  0
  139.2601   76.8942  223.4728 H   0  0  0  0  0  0  0  0  0  0  0  0
  138.7552   77.3844  220.4517 H   0  0  0  0  0  0  0  0  0  0  0  0
  137.7340   78.1066  221.6849 H   0  0  0  0  0  0  0  0  0  0  0  0
  138.4912   80.4011  221.9823 H   0  0  0  0  0  0  0  0  0  0  0  0
  140.3299   82.0164  222.3943 H   0  0  0  0  0  0  0  0  0  0  0  0
  142.6978   81.2036  222.3878 H   0  0  0  0  0  0  0  0  0  0  0  0
  143.1631   78.8340  221.9810 H   0  0  0  0  0  0  0  0  0  0  0  0
  141.6424   76.6531  220.4368 H   0  0  0  0  0  0  0  0  0  0  0  0
  142.2989   76.5203  222.1189 H   0  0  0  0  0  0  0  0  0  0  0  0
  141.3901   71.6580  224.6776 H   0  0  0  0  0  0  0  0  0  0  0  0
  139.8834   72.1320  225.5734 H   0  0  0  0  0  0  0  0  0  0  0  0
  1  2  2  0
  2  3  1  0
  3  4  2  0
  4  5  1  0
  5  6  2  0
  5  7  1  0
  7  8  1  0
  8  9  1  0
  9 10  1  0
 10 11  2  0
 11 12  1  0
 12 13  1  0
 13 14  1  0
 14 15  1  0
 15 16  1  0
 16 17  1  0
 17 18  1  0
 18 19  1  0
 19 20  1  0
 12 21  2  0
 21 22  1  0
 22 23  1  0
 23 24  1  0
 24 25  1  0
 25 26  1  0
 26 27  2  0
 27 28  1  0
 28 29  2  0
 29 30  1  0
 30 31  2  0
 31 32  1  0
 22 33  2  0
  9 34  1  0
  6  1  1  0
 33 10  1  0
 34  4  1  0
 20 15  1  0
 32 23  1  0
 31 26  1  0
  1 35  1  0
  2 36  1  0
  3 37  1  0
  6 38  1  0
  7 39  1  0
  7 40  1  0
  8 41  1  0
  8 42  1  0
 13 43  1  0
 14 44  1  0
 14 45  1  0
 15 46  1  6
 16 47  1  0
 16 48  1  0
 17 49  1  0
 17 50  1  0
 18 51  1  0
 18 52  1  0
 19 53  1  0
 20 54  1  0
 20 55  1  0
 24 56  1  0
 24 57  1  0
 25 58  1  0
 25 59  1  0
 27 60  1  0
 28 61  1  0
 29 62  1  0
 30 63  1  0
 32 64  1  0
 32 65  1  0
 34 66  1  0
 34 67  1  0
M  END
>  <smiles>  (58) 
c1ccc2c(c1)CCN(c1nc(NCC3CCCNC3)nc(N3CCc4ccccc4C3)n1)C2

>  <score_type>  (58) 
oracle

>  <origin>  (58) 
autodockgpu

>  <m_score__min__energy>  (58) 
-10.529999999999999

>  <m_primary>  (58) 
energy

>  <rmsd>  (58) 
5.698710186585365

>  <m_score__min__rmsd>  (58) 
5.698710186585365

>  <meeko>  (58) 
{"free_energy": -9.26, "intermolecular_energy": -10.75, "internal_energy": -1.35, "cluster_size": 44, "cluster_id": 1, "rank_in_cluster": 42}

>  <energy>  (58) 
-10.29

>  <cluster_rmsd>  (58) 
1.07

>  <cluster>  (58) 
1

$$$$

     RDKit          3D

 67 72  0  0  0  0  0  0  0  0999 V2000
  146.3160   68.4380  218.8420 C   0  0  0  0  0  0  0  0  0  0  0  0
  145.1430   67.6950  218.9280 C   0  0  0  0  0  0  0  0  0  0  0  0
  143.9220   68.2810  219.2270 C   0  0  0  0  0  0  0  0  0  0  0  0
  143.9140   69.6560  219.4400 C   0  0  0  0  0  0  0  0  0  0  0  0
  145.0750   70.3940  219.3540 C   0  0  0  0  0  0  0  0  0  0  0  0
  146.2910   69.8050  219.0560 C   0  0  0  0  0  0  0  0  0  0  0  0
  145.0730   71.8840  219.5770 C   0  0  0  0  0  0  0  0  0  0  0  0
  143.7360   72.3600  218.9780 C   0  0  0  0  0  0  0  0  0  0  0  0
  142.7380   71.7420  219.8500 N   0  0  0  0  0  0  0  0  0  0  0  0
  141.8970   72.5180  220.7150 C   0  0  0  0  0  0  0  0  0  0  0  0
  141.0360   71.8970  221.5730 N   0  0  0  0  0  0  0  0  0  0  0  0
  140.2010   72.6210  222.3770 C   0  0  0  0  0  0  0  0  0  0  0  0
  139.3460   71.9170  223.2630 N   0  0  0  0  0  0  0  0  0  0  0  0
  139.5750   70.5750  223.7310 C   0  0  0  0  0  0  0  0  0  0  0  0
  139.7550   70.6130  225.2450 C   0  0  1  0  0  0  0  0  0  0  0  0
  139.6310   69.2600  225.8650 C   0  0  0  0  0  0  0  0  0  0  0  0
  140.6760   69.1260  226.9500 C   0  0  0  0  0  0  0  0  0  0  0  0
  140.7350   70.3640  227.8150 C   0  0  0  0  0  0  0  0  0  0  0  0
  140.9990   71.5640  227.0680 N   0  0  0  0  0  0  0  0  0  0  0  0
  141.0400   71.2760  225.6550 C   0  0  0  0  0  0  0  0  0  0  0  0
  140.2410   73.9750  222.3110 N   0  0  0  0  0  0  0  0  0  0  0  0
  141.0920   74.6060  221.4650 C   0  0  0  0  0  0  0  0  0  0  0  0
  141.0810   76.0150  221.4230 N   0  0  0  0  0  0  0  0  0  0  0  0
  141.0820   76.6530  220.1120 C   0  0  0  0  0  0  0  0  0  0  0  0
  142.1790   77.7270  220.1720 C   0  0  0  0  0  0  0  0  0  0  0  0
  141.6160   78.7670  221.1020 C   0  0  0  0  0  0  0  0  0  0  0  0
  141.6280   80.1080  220.7920 C   0  0  0  0  0  0  0  0  0  0  0  0
  141.1030   81.0260  221.6740 C   0  0  0  0  0  0  0  0  0  0  0  0
  140.5660   80.5810  222.8750 C   0  0  0  0  0  0  0  0  0  0  0  0
  140.5700   79.2370  223.1520 C   0  0  0  0  0  0  0  0  0  0  0  0
  141.0860   78.2790  222.2960 C   0  0  0  0  0  0  0  0  0  0  0  0
  141.0720   76.8260  222.6230 C   0  0  0  0  0  0  0  0  0  0  0  0
  141.9020   73.8600  220.6850 N   0  0  0  0  0  0  0  0  0  0  0  0
  142.6230   70.2960  219.7660 C   0  0  0  0  0  0  0  0  0  0  0  0
  147.2660   67.9375  218.6032 H   0  0  0  0  0  0  0  0  0  0  0  0
  145.1852   66.6097  218.7535 H   0  0  0  0  0  0  0  0  0  0  0  0
  143.0000   67.6847  219.2929 H   0  0  0  0  0  0  0  0  0  0  0  0
  147.2104   70.4054  218.9911 H   0  0  0  0  0  0  0  0  0  0  0  0
  145.1231   72.1168  220.6509 H   0  0  0  0  0  0  0  0  0  0  0  0
  145.9394   72.3782  219.1133 H   0  0  0  0  0  0  0  0  0  0  0  0
  143.6595   73.4570  219.0070 H   0  0  0  0  0  0  0  0  0  0  0  0
  143.6148   72.0823  217.9205 H   0  0  0  0  0  0  0  0  0  0  0  0
  138.4840   72.4580  223.5780 H   0  0  0  0  0  0  0  0  0  0  0  0
  138.7129   69.9412  223.4759 H   0  0  0  0  0  0  0  0  0  0  0  0
  140.4754   70.1591  223.2553 H   0  0  0  0  0  0  0  0  0  0  0  0
  138.9301   71.2308  225.6294 H   0  0  0  0  0  0  0  0  0  0  0  0
  138.6278   69.1431  226.3009 H   0  0  0  0  0  0  0  0  0  0  0  0
  139.7818   68.4827  225.1015 H   0  0  0  0  0  0  0  0  0  0  0  0
  140.4276   68.2600  227.5811 H   0  0  0  0  0  0  0  0  0  0  0  0
  141.6570   68.9914  226.4709 H   0  0  0  0  0  0  0  0  0  0  0  0
  139.7694   70.4776  228.3295 H   0  0  0  0  0  0  0  0  0  0  0  0
  141.5664   70.2295  228.5226 H   0  0  0  0  0  0  0  0  0  0  0  0
  140.2280   72.2530  227.2110 H   0  0  0  0  0  0  0  0  0  0  0  0
  141.1656   72.2130  225.0926 H   0  0  0  0  0  0  0  0  0  0  0  0
  141.8851   70.6054  225.4403 H   0  0  0  0  0  0  0  0  0  0  0  0
  141.3092   75.9163  219.3273 H   0  0  0  0  0  0  0  0  0  0  0  0
  140.1008   77.0885  219.8721 H   0  0  0  0  0  0  0  0  0  0  0  0
  143.1145   77.3091  220.5724 H   0  0  0  0  0  0  0  0  0  0  0  0
  142.4288   78.1343  219.1812 H   0  0  0  0  0  0  0  0  0  0  0  0
  142.0578   80.4470  219.8379 H   0  0  0  0  0  0  0  0  0  0  0  0
  141.1089   82.0986  221.4303 H   0  0  0  0  0  0  0  0  0  0  0  0
  140.1428   81.2968  223.5951 H   0  0  0  0  0  0  0  0  0  0  0  0
  140.1393   78.9022  224.1072 H   0  0  0  0  0  0  0  0  0  0  0  0
  141.9613   76.5857  223.2242 H   0  0  0  0  0  0  0  0  0  0  0  0
  140.1514   76.6057  223.1833 H   0  0  0  0  0  0  0  0  0  0  0  0
  142.2703   69.9110  220.7342 H   0  0  0  0  0  0  0  0  0  0  0  0
  141.9128   70.0579  218.9604 H   0  0  0  0  0  0  0  0  0  0  0  0
  1  2  2  0
  2  3  1  0
  3  4  2  0
  4  5  1  0
  5  6  2  0
  5  7  1  0
  7  8  1  0
  8  9  1  0
  9 10  1  0
 10 11  2  0
 11 12  1  0
 12 13  1  0
 13 14  1  0
 14 15  1  0
 15 16  1  0
 16 17  1  0
 17 18  1  0
 18 19  1  0
 19 20  1  0
 12 21  2  0
 21 22  1  0
 22 23  1  0
 23 24  1  0
 24 25  1  0
 25 26  1  0
 26 27  2  0
 27 28  1  0
 28 29  2  0
 29 30  1  0
 30 31  2  0
 31 32  1  0
 22 33  2  0
  9 34  1  0
  6  1  1  0
 33 10  1  0
 34  4  1  0
 20 15  1  0
 32 23  1  0
 31 26  1  0
  1 35  1  0
  2 36  1  0
  3 37  1  0
  6 38  1  0
  7 39  1  0
  7 40  1  0
  8 41  1  0
  8 42  1  0
 13 43  1  0
 14 44  1  0
 14 45  1  0
 15 46  1  1
 16 47  1  0
 16 48  1  0
 17 49  1  0
 17 50  1  0
 18 51  1  0
 18 52  1  0
 19 53  1  0
 20 54  1  0
 20 55  1  0
 24 56  1  0
 24 57  1  0
 25 58  1  0
 25 59  1  0
 27 60  1  0
 28 61  1  0
 29 62  1  0
 30 63  1  0
 32 64  1  0
 32 65  1  0
 34 66  1  0
 34 67  1  0
M  END
>  <smiles>  (59) 
c1ccc2c(c1)CCN(c1nc(NCC3CCCNC3)nc(N3CCc4ccccc4C3)n1)C2

>  <score_type>  (59) 
oracle

>  <origin>  (59) 
autodockgpu

>  <m_score__min__energy>  (59) 
-10.529999999999999

>  <m_primary>  (59) 
energy

>  <rmsd>  (59) 
8.947151063236749

>  <m_score__min__rmsd>  (59) 
8.947151063236749

>  <meeko>  (59) 
{"free_energy": -9.76, "intermolecular_energy": -11.26, "internal_energy": -0.9, "cluster_size": 4, "cluster_id": 2, "rank_in_cluster": 3}

>  <energy>  (59) 
-10.28

>  <cluster_rmsd>  (59) 
1.13

>  <cluster>  (59) 
1

$$$$

     RDKit          3D

 67 72  0  0  0  0  0  0  0  0999 V2000
  139.8870   67.9830  226.5850 C   0  0  0  0  0  0  0  0  0  0  0  0
  140.5640   69.0240  227.2110 C   0  0  0  0  0  0  0  0  0  0  0  0
  140.7600   70.2500  226.5940 C   0  0  0  0  0  0  0  0  0  0  0  0
  140.2460   70.4020  225.3090 C   0  0  0  0  0  0  0  0  0  0  0  0
  139.5740   69.3720  224.6880 C   0  0  0  0  0  0  0  0  0  0  0  0
  139.3810   68.1500  225.3080 C   0  0  0  0  0  0  0  0  0  0  0  0
  139.0080   69.5310  223.3000 C   0  0  0  0  0  0  0  0  0  0  0  0
  138.5270   70.9930  223.2470 C   0  0  0  0  0  0  0  0  0  0  0  0
  139.7680   71.7610  223.3520 N   0  0  0  0  0  0  0  0  0  0  0  0
  140.2680   72.5520  222.2660 C   0  0  0  0  0  0  0  0  0  0  0  0
  140.7280   71.9480  221.1310 N   0  0  0  0  0  0  0  0  0  0  0  0
  141.2430   72.6850  220.1020 C   0  0  0  0  0  0  0  0  0  0  0  0
  141.6830   71.9990  218.9410 N   0  0  0  0  0  0  0  0  0  0  0  0
  142.9040   71.2430  218.8490 C   0  0  0  0  0  0  0  0  0  0  0  0
  144.0490   72.1040  219.3750 C   0  0  1  0  0  0  0  0  0  0  0  0
  144.0300   73.4830  218.8030 C   0  0  0  0  0  0  0  0  0  0  0  0
  144.3840   74.4660  219.8960 C   0  0  0  0  0  0  0  0  0  0  0  0
  145.5670   73.9870  220.7070 C   0  0  0  0  0  0  0  0  0  0  0  0
  145.3590   72.6940  221.3000 N   0  0  0  0  0  0  0  0  0  0  0  0
  144.0940   72.1450  220.8760 C   0  0  0  0  0  0  0  0  0  0  0  0
  141.2920   74.0350  220.2240 N   0  0  0  0  0  0  0  0  0  0  0  0
  140.8380   74.6490  221.3450 C   0  0  0  0  0  0  0  0  0  0  0  0
  140.9270   76.0530  221.4280 N   0  0  0  0  0  0  0  0  0  0  0  0
  140.9140   76.8070  220.1800 C   0  0  0  0  0  0  0  0  0  0  0  0
  142.0890   77.7920  220.2750 C   0  0  0  0  0  0  0  0  0  0  0  0
  141.6470   78.7800  221.3220 C   0  0  0  0  0  0  0  0  0  0  0  0
  141.7430   80.1390  221.1300 C   0  0  0  0  0  0  0  0  0  0  0  0
  141.3290   81.0070  222.1160 C   0  0  0  0  0  0  0  0  0  0  0  0
  140.8170   80.4920  223.3000 C   0  0  0  0  0  0  0  0  0  0  0  0
  140.7360   79.1310  223.4570 C   0  0  0  0  0  0  0  0  0  0  0  0
  141.1390   78.2230  222.4940 C   0  0  0  0  0  0  0  0  0  0  0  0
  141.0350   76.7500  222.6930 C   0  0  0  0  0  0  0  0  0  0  0  0
  140.3360   73.8900  222.3420 N   0  0  0  0  0  0  0  0  0  0  0  0
  140.4500   71.7000  224.6350 C   0  0  0  0  0  0  0  0  0  0  0  0
  139.7533   67.0238  227.1066 H   0  0  0  0  0  0  0  0  0  0  0  0
  140.9561   68.8700  228.2271 H   0  0  0  0  0  0  0  0  0  0  0  0
  141.2979   71.0667  227.0975 H   0  0  0  0  0  0  0  0  0  0  0  0
  138.8418   67.3362  224.8011 H   0  0  0  0  0  0  0  0  0  0  0  0
  139.7826   69.3484  222.5406 H   0  0  0  0  0  0  0  0  0  0  0  0
  138.1983   68.8157  223.0932 H   0  0  0  0  0  0  0  0  0  0  0  0
  138.0123   71.2041  222.2980 H   0  0  0  0  0  0  0  0  0  0  0  0
  137.8026   71.2362  224.0382 H   0  0  0  0  0  0  0  0  0  0  0  0
  141.0330   72.0780  218.1010 H   0  0  0  0  0  0  0  0  0  0  0  0
  142.8200   70.3280  219.4537 H   0  0  0  0  0  0  0  0  0  0  0  0
  143.0946   70.9617  217.8028 H   0  0  0  0  0  0  0  0  0  0  0  0
  144.9736   71.6162  219.0327 H   0  0  0  0  0  0  0  0  0  0  0  0
  144.7647   73.5557  217.9876 H   0  0  0  0  0  0  0  0  0  0  0  0
  143.0301   73.7097  218.4044 H   0  0  0  0  0  0  0  0  0  0  0  0
  144.6323   75.4353  219.4389 H   0  0  0  0  0  0  0  0  0  0  0  0
  143.5191   74.5618  220.5688 H   0  0  0  0  0  0  0  0  0  0  0  0
  146.4448   73.9318  220.0464 H   0  0  0  0  0  0  0  0  0  0  0  0
  145.7132   74.7042  221.5281 H   0  0  0  0  0  0  0  0  0  0  0  0
  146.0980   72.0290  220.9800 H   0  0  0  0  0  0  0  0  0  0  0  0
  143.9834   71.1259  221.2750 H   0  0  0  0  0  0  0  0  0  0  0  0
  143.2742   72.7746  221.2523 H   0  0  0  0  0  0  0  0  0  0  0  0
  141.0488   76.1312  219.3226 H   0  0  0  0  0  0  0  0  0  0  0  0
  139.9576   77.3301  220.0325 H   0  0  0  0  0  0  0  0  0  0  0  0
  143.0087   77.2756  220.5871 H   0  0  0  0  0  0  0  0  0  0  0  0
  142.3224   78.2693  219.3118 H   0  0  0  0  0  0  0  0  0  0  0  0
  142.1510   80.5329  220.1875 H   0  0  0  0  0  0  0  0  0  0  0  0
  141.4029   82.0944  221.9676 H   0  0  0  0  0  0  0  0  0  0  0  0
  140.4808   81.1663  224.1015 H   0  0  0  0  0  0  0  0  0  0  0  0
  140.3280   78.7404  224.4009 H   0  0  0  0  0  0  0  0  0  0  0  0
  141.9324   76.3958  223.2215 H   0  0  0  0  0  0  0  0  0  0  0  0
  140.1289   76.5429  223.2813 H   0  0  0  0  0  0  0  0  0  0  0  0
  141.5275   71.8500  224.4719 H   0  0  0  0  0  0  0  0  0  0  0  0
  140.0317   72.4870  225.2798 H   0  0  0  0  0  0  0  0  0  0  0  0
  1  2  2  0
  2  3  1  0
  3  4  2  0
  4  5  1  0
  5  6  2  0
  5  7  1  0
  7  8  1  0
  8  9  1  0
  9 10  1  0
 10 11  2  0
 11 12  1  0
 12 13  1  0
 13 14  1  0
 14 15  1  0
 15 16  1  0
 16 17  1  0
 17 18  1  0
 18 19  1  0
 19 20  1  0
 12 21  2  0
 21 22  1  0
 22 23  1  0
 23 24  1  0
 24 25  1  0
 25 26  1  0
 26 27  2  0
 27 28  1  0
 28 29  2  0
 29 30  1  0
 30 31  2  0
 31 32  1  0
 22 33  2  0
  9 34  1  0
  6  1  1  0
 33 10  1  0
 34  4  1  0
 20 15  1  0
 32 23  1  0
 31 26  1  0
  1 35  1  0
  2 36  1  0
  3 37  1  0
  6 38  1  0
  7 39  1  0
  7 40  1  0
  8 41  1  0
  8 42  1  0
 13 43  1  0
 14 44  1  0
 14 45  1  0
 15 46  1  6
 16 47  1  0
 16 48  1  0
 17 49  1  0
 17 50  1  0
 18 51  1  0
 18 52  1  0
 19 53  1  0
 20 54  1  0
 20 55  1  0
 24 56  1  0
 24 57  1  0
 25 58  1  0
 25 59  1  0
 27 60  1  0
 28 61  1  0
 29 62  1  0
 30 63  1  0
 32 64  1  0
 32 65  1  0
 34 66  1  0
 34 67  1  0
M  END
>  <smiles>  (60) 
c1ccc2c(c1)CCN(c1nc(NCC3CCCNC3)nc(N3CCc4ccccc4C3)n1)C2

>  <score_type>  (60) 
oracle

>  <origin>  (60) 
autodockgpu

>  <m_score__min__energy>  (60) 
-10.529999999999999

>  <m_primary>  (60) 
energy

>  <rmsd>  (60) 
5.869281671220299

>  <m_score__min__rmsd>  (60) 
5.869281671220299

>  <meeko>  (60) 
{"free_energy": -9.84, "intermolecular_energy": -11.33, "internal_energy": -1.36, "cluster_size": 44, "cluster_id": 1, "rank_in_cluster": 15}

>  <energy>  (60) 
-10.1

>  <cluster_rmsd>  (60) 
0.8

>  <cluster>  (60) 
1

$$$$

     RDKit          3D

 67 72  0  0  0  0  0  0  0  0999 V2000
  142.2120   80.5100  220.8540 C   0  0  0  0  0  0  0  0  0  0  0  0
  142.1680   79.9880  219.5660 C   0  0  0  0  0  0  0  0  0  0  0  0
  141.7420   78.6920  219.3120 C   0  0  0  0  0  0  0  0  0  0  0  0
  141.3550   77.9260  220.4070 C   0  0  0  0  0  0  0  0  0  0  0  0
  141.3970   78.4430  221.6840 C   0  0  0  0  0  0  0  0  0  0  0  0
  141.8230   79.7350  221.9330 C   0  0  0  0  0  0  0  0  0  0  0  0
  140.9740   77.6220  222.8750 C   0  0  0  0  0  0  0  0  0  0  0  0
  139.7970   76.7730  222.3570 C   0  0  0  0  0  0  0  0  0  0  0  0
  140.4240   75.8970  221.3670 N   0  0  0  0  0  0  0  0  0  0  0  0
  140.5320   74.4800  221.5630 C   0  0  0  0  0  0  0  0  0  0  0  0
  139.6080   73.8200  222.3210 N   0  0  0  0  0  0  0  0  0  0  0  0
  139.7160   72.4770  222.5500 C   0  0  0  0  0  0  0  0  0  0  0  0
  138.7120   71.8460  223.3270 N   0  0  0  0  0  0  0  0  0  0  0  0
  138.3430   70.4590  223.2180 C   0  0  0  0  0  0  0  0  0  0  0  0
  139.1750   69.6550  224.2120 C   0  0  1  0  0  0  0  0  0  0  0  0
  139.9880   70.5290  225.1090 C   0  0  0  0  0  0  0  0  0  0  0  0
  139.9560   69.9540  226.5070 C   0  0  0  0  0  0  0  0  0  0  0  0
  140.1710   68.4580  226.4920 C   0  0  0  0  0  0  0  0  0  0  0  0
  139.2100   67.7560  225.6840 N   0  0  0  0  0  0  0  0  0  0  0  0
  138.3430   68.6920  225.0110 C   0  0  0  0  0  0  0  0  0  0  0  0
  140.7620   71.8040  222.0080 N   0  0  0  0  0  0  0  0  0  0  0  0
  141.6860   72.4460  221.2510 C   0  0  0  0  0  0  0  0  0  0  0  0
  142.7620   71.7020  220.7260 N   0  0  0  0  0  0  0  0  0  0  0  0
  144.1010   72.2680  220.8500 C   0  0  0  0  0  0  0  0  0  0  0  0
  144.7320   72.1540  219.4540 C   0  0  0  0  0  0  0  0  0  0  0  0
  144.9580   70.6760  219.2800 C   0  0  0  0  0  0  0  0  0  0  0  0
  146.1570   70.1670  218.8370 C   0  0  0  0  0  0  0  0  0  0  0  0
  146.3190   68.8080  218.6890 C   0  0  0  0  0  0  0  0  0  0  0  0
  145.2580   67.9630  218.9910 C   0  0  0  0  0  0  0  0  0  0  0  0
  144.0770   68.5050  219.4300 C   0  0  0  0  0  0  0  0  0  0  0  0
  143.8700   69.8630  219.5940 C   0  0  0  0  0  0  0  0  0  0  0  0
  142.5760   70.4210  220.0770 C   0  0  0  0  0  0  0  0  0  0  0  0
  141.5490   73.7730  221.0460 N   0  0  0  0  0  0  0  0  0  0  0  0
  140.9040   76.5420  220.1560 C   0  0  0  0  0  0  0  0  0  0  0  0
  142.5570   81.5419  221.0160 H   0  0  0  0  0  0  0  0  0  0  0  0
  142.4804   80.6216  218.7228 H   0  0  0  0  0  0  0  0  0  0  0  0
  141.7116   78.2879  218.2894 H   0  0  0  0  0  0  0  0  0  0  0  0
  141.8518   80.1347  222.9574 H   0  0  0  0  0  0  0  0  0  0  0  0
  141.7979   76.9780  223.2162 H   0  0  0  0  0  0  0  0  0  0  0  0
  140.6935   78.2463  223.7362 H   0  0  0  0  0  0  0  0  0  0  0  0
  139.3451   76.1875  223.1712 H   0  0  0  0  0  0  0  0  0  0  0  0
  138.9799   77.3794  221.9391 H   0  0  0  0  0  0  0  0  0  0  0  0
  138.2220   72.4810  224.0280 H   0  0  0  0  0  0  0  0  0  0  0  0
  137.2739   70.3407  223.4483 H   0  0  0  0  0  0  0  0  0  0  0  0
  138.5287   70.0998  222.1950 H   0  0  0  0  0  0  0  0  0  0  0  0
  139.8743   69.0604  223.6058 H   0  0  0  0  0  0  0  0  0  0  0  0
  141.0264   70.5658  224.7478 H   0  0  0  0  0  0  0  0  0  0  0  0
  139.5744   71.5483  225.1139 H   0  0  0  0  0  0  0  0  0  0  0  0
  140.7502   70.4239  227.1057 H   0  0  0  0  0  0  0  0  0  0  0  0
  138.9668   70.1577  226.9430 H   0  0  0  0  0  0  0  0  0  0  0  0
  141.1767   68.2532  226.0963 H   0  0  0  0  0  0  0  0  0  0  0  0
  140.0531   68.1002  227.5255 H   0  0  0  0  0  0  0  0  0  0  0  0
  139.6980   67.2100  224.9400 H   0  0  0  0  0  0  0  0  0  0  0  0
  137.6651   68.1463  224.3382 H   0  0  0  0  0  0  0  0  0  0  0  0
  137.7513   69.2459  225.7547 H   0  0  0  0  0  0  0  0  0  0  0  0
  144.0446   73.3218  221.1604 H   0  0  0  0  0  0  0  0  0  0  0  0
  144.6964   71.7392  221.6089 H   0  0  0  0  0  0  0  0  0  0  0  0
  144.0487   72.5391  218.6828 H   0  0  0  0  0  0  0  0  0  0  0  0
  145.6581   72.7396  219.3573 H   0  0  0  0  0  0  0  0  0  0  0  0
  146.9882   70.8476  218.6005 H   0  0  0  0  0  0  0  0  0  0  0  0
  147.2761   68.3962  218.3362 H   0  0  0  0  0  0  0  0  0  0  0  0
  145.3639   66.8738  218.8795 H   0  0  0  0  0  0  0  0  0  0  0  0
  143.2478   67.8215  219.6649 H   0  0  0  0  0  0  0  0  0  0  0  0
  141.8993   70.5493  219.2193 H   0  0  0  0  0  0  0  0  0  0  0  0
  142.1492   69.7205  220.8099 H   0  0  0  0  0  0  0  0  0  0  0  0
  141.7475   75.9610  219.7548 H   0  0  0  0  0  0  0  0  0  0  0  0
  140.0707   76.5812  219.4391 H   0  0  0  0  0  0  0  0  0  0  0  0
  1  2  2  0
  2  3  1  0
  3  4  2  0
  4  5  1  0
  5  6  2  0
  5  7  1  0
  7  8  1  0
  8  9  1  0
  9 10  1  0
 10 11  2  0
 11 12  1  0
 12 13  1  0
 13 14  1  0
 14 15  1  0
 15 16  1  0
 16 17  1  0
 17 18  1  0
 18 19  1  0
 19 20  1  0
 12 21  2  0
 21 22  1  0
 22 23  1  0
 23 24  1  0
 24 25  1  0
 25 26  1  0
 26 27  2  0
 27 28  1  0
 28 29  2  0
 29 30  1  0
 30 31  2  0
 31 32  1  0
 22 33  2  0
  9 34  1  0
  6  1  1  0
 33 10  1  0
 34  4  1  0
 20 15  1  0
 32 23  1  0
 31 26  1  0
  1 35  1  0
  2 36  1  0
  3 37  1  0
  6 38  1  0
  7 39  1  0
  7 40  1  0
  8 41  1  0
  8 42  1  0
 13 43  1  0
 14 44  1  0
 14 45  1  0
 15 46  1  6
 16 47  1  0
 16 48  1  0
 17 49  1  0
 17 50  1  0
 18 51  1  0
 18 52  1  0
 19 53  1  0
 20 54  1  0
 20 55  1  0
 24 56  1  0
 24 57  1  0
 25 58  1  0
 25 59  1  0
 27 60  1  0
 28 61  1  0
 29 62  1  0
 30 63  1  0
 32 64  1  0
 32 65  1  0
 34 66  1  0
 34 67  1  0
M  END
>  <smiles>  (61) 
c1ccc2c(c1)CCN(c1nc(NCC3CCCNC3)nc(N3CCc4ccccc4C3)n1)C2

>  <score_type>  (61) 
oracle

>  <origin>  (61) 
autodockgpu

>  <m_score__min__energy>  (61) 
-10.529999999999999

>  <m_primary>  (61) 
energy

>  <rmsd>  (61) 
9.183975775426699

>  <m_score__min__rmsd>  (61) 
9.183975775426699

>  <meeko>  (61) 
{"free_energy": -9.33, "intermolecular_energy": -10.82, "internal_energy": -0.98, "cluster_size": 4, "cluster_id": 2, "rank_in_cluster": 4}

>  <energy>  (61) 
-10.07

>  <cluster_rmsd>  (61) 
1.21

>  <cluster>  (61) 
1

$$$$

     RDKit          3D

 67 72  0  0  0  0  0  0  0  0999 V2000
  139.1680   80.4670  223.8610 C   0  0  0  0  0  0  0  0  0  0  0  0
  140.4330   80.5620  223.2920 C   0  0  0  0  0  0  0  0  0  0  0  0
  140.9920   79.5220  222.5640 C   0  0  0  0  0  0  0  0  0  0  0  0
  140.2300   78.3670  222.4220 C   0  0  0  0  0  0  0  0  0  0  0  0
  138.9750   78.2710  222.9850 C   0  0  0  0  0  0  0  0  0  0  0  0
  138.4230   79.3110  223.7110 C   0  0  0  0  0  0  0  0  0  0  0  0
  138.1410   77.0260  222.8310 C   0  0  0  0  0  0  0  0  0  0  0  0
  138.4580   76.5250  221.4090 C   0  0  0  0  0  0  0  0  0  0  0  0
  139.8700   76.1520  221.4890 N   0  0  0  0  0  0  0  0  0  0  0  0
  140.3050   74.7900  221.3790 C   0  0  0  0  0  0  0  0  0  0  0  0
  140.9270   74.3580  220.2430 N   0  0  0  0  0  0  0  0  0  0  0  0
  141.3140   73.0540  220.1070 C   0  0  0  0  0  0  0  0  0  0  0  0
  141.9760   72.6730  218.9110 N   0  0  0  0  0  0  0  0  0  0  0  0
  142.7110   73.5700  218.0590 C   0  0  0  0  0  0  0  0  0  0  0  0
  144.0620   73.8570  218.7070 C   0  0  1  0  0  0  0  0  0  0  0  0
  143.9250   74.3800  220.0990 C   0  0  0  0  0  0  0  0  0  0  0  0
  144.9960   73.7510  220.9610 C   0  0  0  0  0  0  0  0  0  0  0  0
  146.3380   73.7600  220.2670 C   0  0  0  0  0  0  0  0  0  0  0  0
  146.3210   73.0910  218.9940 N   0  0  0  0  0  0  0  0  0  0  0  0
  144.9810   72.6680  218.6680 C   0  0  0  0  0  0  0  0  0  0  0  0
  141.0700   72.1890  221.1230 N   0  0  0  0  0  0  0  0  0  0  0  0
  140.4540   72.6050  222.2580 C   0  0  0  0  0  0  0  0  0  0  0  0
  140.2100   71.6620  223.2760 N   0  0  0  0  0  0  0  0  0  0  0  0
  139.4500   70.4680  222.9240 C   0  0  0  0  0  0  0  0  0  0  0  0
  138.3680   70.3290  224.0060 C   0  0  0  0  0  0  0  0  0  0  0  0
  139.1380   69.9410  225.2390 C   0  0  0  0  0  0  0  0  0  0  0  0
  138.7510   68.8930  226.0430 C   0  0  0  0  0  0  0  0  0  0  0  0
  139.4840   68.5750  227.1640 C   0  0  0  0  0  0  0  0  0  0  0  0
  140.6130   69.3230  227.4700 C   0  0  0  0  0  0  0  0  0  0  0  0
  140.9700   70.3610  226.6470 C   0  0  0  0  0  0  0  0  0  0  0  0
  140.2640   70.7160  225.5100 C   0  0  0  0  0  0  0  0  0  0  0  0
  140.6790   71.8460  224.6340 C   0  0  0  0  0  0  0  0  0  0  0  0
  140.0850   73.8990  222.3590 N   0  0  0  0  0  0  0  0  0  0  0  0
  140.8110   77.2470  221.6550 C   0  0  0  0  0  0  0  0  0  0  0  0
  138.7584   81.3133  224.4320 H   0  0  0  0  0  0  0  0  0  0  0  0
  141.0082   81.4904  223.4232 H   0  0  0  0  0  0  0  0  0  0  0  0
  141.9941   79.6069  222.1184 H   0  0  0  0  0  0  0  0  0  0  0  0
  137.4210   79.2215  224.1560 H   0  0  0  0  0  0  0  0  0  0  0  0
  138.4241   76.2728  223.5810 H   0  0  0  0  0  0  0  0  0  0  0  0
  137.0681   77.2196  222.9776 H   0  0  0  0  0  0  0  0  0  0  0  0
  137.8353   75.6561  221.1497 H   0  0  0  0  0  0  0  0  0  0  0  0
  138.2556   77.2778  220.6329 H   0  0  0  0  0  0  0  0  0  0  0  0
  141.8960   71.6390  218.6650 H   0  0  0  0  0  0  0  0  0  0  0  0
  142.8635   73.1045  217.0741 H   0  0  0  0  0  0  0  0  0  0  0  0
  142.1505   74.5071  217.9264 H   0  0  0  0  0  0  0  0  0  0  0  0
  144.5234   74.6499  218.1000 H   0  0  0  0  0  0  0  0  0  0  0  0
  144.0461   75.4733  220.0972 H   0  0  0  0  0  0  0  0  0  0  0  0
  142.9300   74.1311  220.4965 H   0  0  0  0  0  0  0  0  0  0  0  0
  145.0757   74.3156  221.9017 H   0  0  0  0  0  0  0  0  0  0  0  0
  144.7140   72.7058  221.1559 H   0  0  0  0  0  0  0  0  0  0  0  0
  146.6430   74.8050  220.1089 H   0  0  0  0  0  0  0  0  0  0  0  0
  147.0440   73.2171  220.9126 H   0  0  0  0  0  0  0  0  0  0  0  0
  146.6210   73.7470  218.2400 H   0  0  0  0  0  0  0  0  0  0  0  0
  144.9696   72.2275  217.6601 H   0  0  0  0  0  0  0  0  0  0  0  0
  144.6436   71.9171  219.3976 H   0  0  0  0  0  0  0  0  0  0  0  0
  138.9880   70.5860  221.9327 H   0  0  0  0  0  0  0  0  0  0  0  0
  140.0932   69.5769  222.8767 H   0  0  0  0  0  0  0  0  0  0  0  0
  137.8410   71.2826  224.1575 H   0  0  0  0  0  0  0  0  0  0  0  0
  137.5938   69.5941  223.7402 H   0  0  0  0  0  0  0  0  0  0  0  0
  137.8544   68.3085  225.7893 H   0  0  0  0  0  0  0  0  0  0  0  0
  139.1789   67.7383  227.8096 H   0  0  0  0  0  0  0  0  0  0  0  0
  141.2135   69.0864  228.3608 H   0  0  0  0  0  0  0  0  0  0  0  0
  141.8668   70.9435  226.9047 H   0  0  0  0  0  0  0  0  0  0  0  0
  140.2600   72.7812  225.0337 H   0  0  0  0  0  0  0  0  0  0  0  0
  141.7782   71.8860  224.6181 H   0  0  0  0  0  0  0  0  0  0  0  0
  141.6982   76.8745  222.1880 H   0  0  0  0  0  0  0  0  0  0  0  0
  141.0745   77.6219  220.6550 H   0  0  0  0  0  0  0  0  0  0  0  0
  1  2  2  0
  2  3  1  0
  3  4  2  0
  4  5  1  0
  5  6  2  0
  5  7  1  0
  7  8  1  0
  8  9  1  0
  9 10  1  0
 10 11  2  0
 11 12  1  0
 12 13  1  0
 13 14  1  0
 14 15  1  0
 15 16  1  0
 16 17  1  0
 17 18  1  0
 18 19  1  0
 19 20  1  0
 12 21  2  0
 21 22  1  0
 22 23  1  0
 23 24  1  0
 24 25  1  0
 25 26  1  0
 26 27  2  0
 27 28  1  0
 28 29  2  0
 29 30  1  0
 30 31  2  0
 31 32  1  0
 22 33  2  0
  9 34  1  0
  6  1  1  0
 33 10  1  0
 34  4  1  0
 20 15  1  0
 32 23  1  0
 31 26  1  0
  1 35  1  0
  2 36  1  0
  3 37  1  0
  6 38  1  0
  7 39  1  0
  7 40  1  0
  8 41  1  0
  8 42  1  0
 13 43  1  0
 14 44  1  0
 14 45  1  0
 15 46  1  6
 16 47  1  0
 16 48  1  0
 17 49  1  0
 17 50  1  0
 18 51  1  0
 18 52  1  0
 19 53  1  0
 20 54  1  0
 20 55  1  0
 24 56  1  0
 24 57  1  0
 25 58  1  0
 25 59  1  0
 27 60  1  0
 28 61  1  0
 29 62  1  0
 30 63  1  0
 32 64  1  0
 32 65  1  0
 34 66  1  0
 34 67  1  0
M  END
>  <smiles>  (62) 
c1ccc2c(c1)CCN(c1nc(NCC3CCCNC3)nc(N3CCc4ccccc4C3)n1)C2

>  <score_type>  (62) 
oracle

>  <origin>  (62) 
autodockgpu

>  <m_score__min__energy>  (62) 
-10.529999999999999

>  <m_primary>  (62) 
energy

>  <rmsd>  (62) 
5.623543654969246

>  <m_score__min__rmsd>  (62) 
5.623543654969246

>  <meeko>  (62) 
{"free_energy": -10.07, "intermolecular_energy": -11.57, "internal_energy": -0.99, "cluster_size": 44, "cluster_id": 1, "rank_in_cluster": 11}

>  <energy>  (62) 
-10.05

>  <cluster_rmsd>  (62) 
0.81

>  <cluster>  (62) 
1

$$$$

     RDKit          3D

 67 72  0  0  0  0  0  0  0  0999 V2000
  140.0490   80.1320  223.3570 C   0  0  0  0  0  0  0  0  0  0  0  0
  141.2940   80.0350  222.7450 C   0  0  0  0  0  0  0  0  0  0  0  0
  141.7160   78.8750  222.1140 C   0  0  0  0  0  0  0  0  0  0  0  0
  140.8340   77.7970  222.1150 C   0  0  0  0  0  0  0  0  0  0  0  0
  139.6000   77.8920  222.7210 C   0  0  0  0  0  0  0  0  0  0  0  0
  139.1850   79.0520  223.3500 C   0  0  0  0  0  0  0  0  0  0  0  0
  138.6370   76.7320  222.7210 C   0  0  0  0  0  0  0  0  0  0  0  0
  138.8450   76.0610  221.3500 C   0  0  0  0  0  0  0  0  0  0  0  0
  140.2140   75.5500  221.4280 N   0  0  0  0  0  0  0  0  0  0  0  0
  140.5030   74.1460  221.4490 C   0  0  0  0  0  0  0  0  0  0  0  0
  140.9160   73.5140  220.3110 N   0  0  0  0  0  0  0  0  0  0  0  0
  141.1600   72.1690  220.3030 C   0  0  0  0  0  0  0  0  0  0  0  0
  141.6080   71.5750  219.0960 N   0  0  0  0  0  0  0  0  0  0  0  0
  142.9660   71.1740  218.8350 C   0  0  0  0  0  0  0  0  0  0  0  0
  143.8970   72.3010  219.2710 C   0  0  1  0  0  0  0  0  0  0  0  0
  143.9490   72.4520  220.7550 C   0  0  0  0  0  0  0  0  0  0  0  0
  145.3770   72.7340  221.1650 C   0  0  0  0  0  0  0  0  0  0  0  0
  146.0150   73.7670  220.2660 C   0  0  0  0  0  0  0  0  0  0  0  0
  145.9990   73.3950  218.8770 N   0  0  0  0  0  0  0  0  0  0  0  0
  145.2790   72.1590  218.6970 C   0  0  0  0  0  0  0  0  0  0  0  0
  140.9850   71.4660  221.4500 N   0  0  0  0  0  0  0  0  0  0  0  0
  140.5760   72.0810  222.5880 C   0  0  0  0  0  0  0  0  0  0  0  0
  140.3930   71.3000  223.7480 N   0  0  0  0  0  0  0  0  0  0  0  0
  139.8460   69.9590  223.5810 C   0  0  0  0  0  0  0  0  0  0  0  0
  138.7140   69.8400  224.6130 C   0  0  0  0  0  0  0  0  0  0  0  0
  139.4340   69.7960  225.9340 C   0  0  0  0  0  0  0  0  0  0  0  0
  139.1420   68.8550  226.8950 C   0  0  0  0  0  0  0  0  0  0  0  0
  139.8240   68.8540  228.0910 C   0  0  0  0  0  0  0  0  0  0  0  0
  140.8050   69.8130  228.3130 C   0  0  0  0  0  0  0  0  0  0  0  0
  141.0690   70.7360  227.3330 C   0  0  0  0  0  0  0  0  0  0  0  0
  140.4100   70.7750  226.1170 C   0  0  0  0  0  0  0  0  0  0  0  0
  140.7230   71.7880  225.0710 C   0  0  0  0  0  0  0  0  0  0  0  0
  140.3440   73.4100  222.5600 N   0  0  0  0  0  0  0  0  0  0  0  0
  141.2680   76.5510  221.4520 C   0  0  0  0  0  0  0  0  0  0  0  0
  139.7506   81.0701  223.8479 H   0  0  0  0  0  0  0  0  0  0  0  0
  141.9652   80.9063  222.7621 H   0  0  0  0  0  0  0  0  0  0  0  0
  142.7035   78.8089  221.6339 H   0  0  0  0  0  0  0  0  0  0  0  0
  138.1973   79.1137  223.8303 H   0  0  0  0  0  0  0  0  0  0  0  0
  138.8710   76.0319  223.5365 H   0  0  0  0  0  0  0  0  0  0  0  0
  137.5961   77.0513  222.8778 H   0  0  0  0  0  0  0  0  0  0  0  0
  138.1268   75.2415  221.1996 H   0  0  0  0  0  0  0  0  0  0  0  0
  138.6907   76.7498  220.5064 H   0  0  0  0  0  0  0  0  0  0  0  0
  140.8530   71.4360  218.3570 H   0  0  0  0  0  0  0  0  0  0  0  0
  143.1985   70.2606  219.4022 H   0  0  0  0  0  0  0  0  0  0  0  0
  143.0987   70.9699  217.7623 H   0  0  0  0  0  0  0  0  0  0  0  0
  143.4633   73.2242  218.8591 H   0  0  0  0  0  0  0  0  0  0  0  0
  143.3034   73.2870  221.0648 H   0  0  0  0  0  0  0  0  0  0  0  0
  143.5963   71.5287  221.2378 H   0  0  0  0  0  0  0  0  0  0  0  0
  145.3853   73.1063  222.2000 H   0  0  0  0  0  0  0  0  0  0  0  0
  145.9520   71.8000  221.0814 H   0  0  0  0  0  0  0  0  0  0  0  0
  145.4694   74.7152  220.3805 H   0  0  0  0  0  0  0  0  0  0  0  0
  147.0687   73.8582  220.5684 H   0  0  0  0  0  0  0  0  0  0  0  0
  145.4980   74.1190  218.3160 H   0  0  0  0  0  0  0  0  0  0  0  0
  145.2092   71.9273  217.6239 H   0  0  0  0  0  0  0  0  0  0  0  0
  145.8100   71.3449  219.2120 H   0  0  0  0  0  0  0  0  0  0  0  0
  139.4514   69.8299  222.5624 H   0  0  0  0  0  0  0  0  0  0  0  0
  140.6141   69.1858  223.7301 H   0  0  0  0  0  0  0  0  0  0  0  0
  138.0436   70.7106  224.5611 H   0  0  0  0  0  0  0  0  0  0  0  0
  138.0779   68.9582  224.4462 H   0  0  0  0  0  0  0  0  0  0  0  0
  138.3622   68.1023  226.7071 H   0  0  0  0  0  0  0  0  0  0  0  0
  139.5952   68.1031  228.8616 H   0  0  0  0  0  0  0  0  0  0  0  0
  141.3620   69.8317  229.2613 H   0  0  0  0  0  0  0  0  0  0  0  0
  141.8488   71.4877  227.5248 H   0  0  0  0  0  0  0  0  0  0  0  0
  140.1422   72.7005  225.2712 H   0  0  0  0  0  0  0  0  0  0  0  0
  141.8024   71.9976  225.1037 H   0  0  0  0  0  0  0  0  0  0  0  0
  142.1330   76.1427  221.9951 H   0  0  0  0  0  0  0  0  0  0  0  0
  141.5293   76.7936  220.4114 H   0  0  0  0  0  0  0  0  0  0  0  0
  1  2  2  0
  2  3  1  0
  3  4  2  0
  4  5  1  0
  5  6  2  0
  5  7  1  0
  7  8  1  0
  8  9  1  0
  9 10  1  0
 10 11  2  0
 11 12  1  0
 12 13  1  0
 13 14  1  0
 14 15  1  0
 15 16  1  0
 16 17  1  0
 17 18  1  0
 18 19  1  0
 19 20  1  0
 12 21  2  0
 21 22  1  0
 22 23  1  0
 23 24  1  0
 24 25  1  0
 25 26  1  0
 26 27  2  0
 27 28  1  0
 28 29  2  0
 29 30  1  0
 30 31  2  0
 31 32  1  0
 22 33  2  0
  9 34  1  0
  6  1  1  0
 33 10  1  0
 34  4  1  0
 20 15  1  0
 32 23  1  0
 31 26  1  0
  1 35  1  0
  2 36  1  0
  3 37  1  0
  6 38  1  0
  7 39  1  0
  7 40  1  0
  8 41  1  0
  8 42  1  0
 13 43  1  0
 14 44  1  0
 14 45  1  0
 15 46  1  6
 16 47  1  0
 16 48  1  0
 17 49  1  0
 17 50  1  0
 18 51  1  0
 18 52  1  0
 19 53  1  0
 20 54  1  0
 20 55  1  0
 24 56  1  0
 24 57  1  0
 25 58  1  0
 25 59  1  0
 27 60  1  0
 28 61  1  0
 29 62  1  0
 30 63  1  0
 32 64  1  0
 32 65  1  0
 34 66  1  0
 34 67  1  0
M  END
>  <smiles>  (63) 
c1ccc2c(c1)CCN(c1nc(NCC3CCCNC3)nc(N3CCc4ccccc4C3)n1)C2

>  <score_type>  (63) 
oracle

>  <origin>  (63) 
autodockgpu

>  <m_score__min__energy>  (63) 
-10.529999999999999

>  <m_primary>  (63) 
energy

>  <rmsd>  (63) 
6.340633322598082

>  <m_score__min__rmsd>  (63) 
6.340633322598082

>  <meeko>  (63) 
{"free_energy": -10.29, "intermolecular_energy": -11.78, "internal_energy": -0.9, "cluster_size": 44, "cluster_id": 1, "rank_in_cluster": 8}

>  <energy>  (63) 
-9.87

>  <cluster_rmsd>  (63) 
0.86

>  <cluster>  (63) 
1

$$$$

     RDKit          3D

 67 72  0  0  0  0  0  0  0  0999 V2000
  139.7080   67.9560  226.6130 C   0  0  0  0  0  0  0  0  0  0  0  0
  140.3870   68.9930  227.2430 C   0  0  0  0  0  0  0  0  0  0  0  0
  140.6010   70.2160  226.6250 C   0  0  0  0  0  0  0  0  0  0  0  0
  140.1040   70.3680  225.3330 C   0  0  0  0  0  0  0  0  0  0  0  0
  139.4310   69.3420  224.7070 C   0  0  0  0  0  0  0  0  0  0  0  0
  139.2200   68.1240  225.3290 C   0  0  0  0  0  0  0  0  0  0  0  0
  138.8840   69.5010  223.3120 C   0  0  0  0  0  0  0  0  0  0  0  0
  138.4170   70.9680  223.2480 C   0  0  0  0  0  0  0  0  0  0  0  0
  139.6630   71.7240  223.3660 N   0  0  0  0  0  0  0  0  0  0  0  0
  140.1840   72.5080  222.2830 C   0  0  0  0  0  0  0  0  0  0  0  0
  140.6850   71.8950  221.1710 N   0  0  0  0  0  0  0  0  0  0  0  0
  141.2190   72.6240  220.1470 C   0  0  0  0  0  0  0  0  0  0  0  0
  141.7020   71.9290  219.0090 N   0  0  0  0  0  0  0  0  0  0  0  0
  143.0650   71.9610  218.5460 C   0  0  0  0  0  0  0  0  0  0  0  0
  143.9170   72.6690  219.5950 C   0  0  1  0  0  0  0  0  0  0  0  0
  145.2210   71.9800  219.8260 C   0  0  0  0  0  0  0  0  0  0  0  0
  146.3020   73.0260  219.9830 C   0  0  0  0  0  0  0  0  0  0  0  0
  145.8550   74.1480  220.8920 C   0  0  0  0  0  0  0  0  0  0  0  0
  144.6500   74.7930  220.4450 N   0  0  0  0  0  0  0  0  0  0  0  0
  144.1260   74.1230  219.2800 C   0  0  0  0  0  0  0  0  0  0  0  0
  141.2460   73.9760  220.2510 N   0  0  0  0  0  0  0  0  0  0  0  0
  140.7510   74.6000  221.3500 C   0  0  0  0  0  0  0  0  0  0  0  0
  140.8190   76.0060  221.4150 N   0  0  0  0  0  0  0  0  0  0  0  0
  140.6900   76.7480  220.1660 C   0  0  0  0  0  0  0  0  0  0  0  0
  141.8490   77.7570  220.1600 C   0  0  0  0  0  0  0  0  0  0  0  0
  141.4730   78.7440  221.2320 C   0  0  0  0  0  0  0  0  0  0  0  0
  141.5260   80.1040  221.0240 C   0  0  0  0  0  0  0  0  0  0  0  0
  141.1750   80.9720  222.0330 C   0  0  0  0  0  0  0  0  0  0  0  0
  140.7700   80.4580  223.2580 C   0  0  0  0  0  0  0  0  0  0  0  0
  140.7290   79.0970  223.4310 C   0  0  0  0  0  0  0  0  0  0  0  0
  141.0720   78.1880  222.4450 C   0  0  0  0  0  0  0  0  0  0  0  0
  141.0130   76.7160  222.6620 C   0  0  0  0  0  0  0  0  0  0  0  0
  140.2310   73.8480  222.3420 N   0  0  0  0  0  0  0  0  0  0  0  0
  140.3290   71.6620  224.6570 C   0  0  0  0  0  0  0  0  0  0  0  0
  139.5584   67.0001  227.1363 H   0  0  0  0  0  0  0  0  0  0  0  0
  140.7664   68.8385  228.2639 H   0  0  0  0  0  0  0  0  0  0  0  0
  141.1394   71.0298  227.1328 H   0  0  0  0  0  0  0  0  0  0  0  0
  138.6803   67.3132  224.8178 H   0  0  0  0  0  0  0  0  0  0  0  0
  139.6662   69.3086  222.5630 H   0  0  0  0  0  0  0  0  0  0  0  0
  138.0704   68.7924  223.0975 H   0  0  0  0  0  0  0  0  0  0  0  0
  137.9163   71.1806  222.2919 H   0  0  0  0  0  0  0  0  0  0  0  0
  137.6849   71.2208  224.0291 H   0  0  0  0  0  0  0  0  0  0  0  0
  140.9700   71.3560  218.4890 H   0  0  0  0  0  0  0  0  0  0  0  0
  143.4319   70.9341  218.4017 H   0  0  0  0  0  0  0  0  0  0  0  0
  143.1246   72.4977  217.5877 H   0  0  0  0  0  0  0  0  0  0  0  0
  143.3437   72.6157  220.5323 H   0  0  0  0  0  0  0  0  0  0  0  0
  145.1606   71.3704  220.7396 H   0  0  0  0  0  0  0  0  0  0  0  0
  145.4546   71.3252  218.9736 H   0  0  0  0  0  0  0  0  0  0  0  0
  147.1980   72.5533  220.4117 H   0  0  0  0  0  0  0  0  0  0  0  0
  146.5209   73.4495  218.9917 H   0  0  0  0  0  0  0  0  0  0  0  0
  145.6788   73.7352  221.8963 H   0  0  0  0  0  0  0  0  0  0  0  0
  146.6516   74.9066  220.8911 H   0  0  0  0  0  0  0  0  0  0  0  0
  143.9150   74.7330  221.1830 H   0  0  0  0  0  0  0  0  0  0  0  0
  143.1664   74.5787  218.9947 H   0  0  0  0  0  0  0  0  0  0  0  0
  144.8382   74.2208  218.4474 H   0  0  0  0  0  0  0  0  0  0  0  0
  140.7696   76.0673  219.3056 H   0  0  0  0  0  0  0  0  0  0  0  0
  139.7142   77.2502  220.0911 H   0  0  0  0  0  0  0  0  0  0  0  0
  142.8011   77.2613  220.4005 H   0  0  0  0  0  0  0  0  0  0  0  0
  141.9945   78.2311  219.1781 H   0  0  0  0  0  0  0  0  0  0  0  0
  141.8496   80.4978  220.0492 H   0  0  0  0  0  0  0  0  0  0  0  0
  141.2148   82.0593  221.8711 H   0  0  0  0  0  0  0  0  0  0  0  0
  140.4858   81.1328  224.0789 H   0  0  0  0  0  0  0  0  0  0  0  0
  140.4056   78.7070  224.4074 H   0  0  0  0  0  0  0  0  0  0  0  0
  141.9562   76.3836  223.1202 H   0  0  0  0  0  0  0  0  0  0  0  0
  140.1604   76.4970  223.3216 H   0  0  0  0  0  0  0  0  0  0  0  0
  141.4097   71.8010  224.5063 H   0  0  0  0  0  0  0  0  0  0  0  0
  139.9112   72.4557  225.2938 H   0  0  0  0  0  0  0  0  0  0  0  0
  1  2  2  0
  2  3  1  0
  3  4  2  0
  4  5  1  0
  5  6  2  0
  5  7  1  0
  7  8  1  0
  8  9  1  0
  9 10  1  0
 10 11  2  0
 11 12  1  0
 12 13  1  0
 13 14  1  0
 14 15  1  0
 15 16  1  0
 16 17  1  0
 17 18  1  0
 18 19  1  0
 19 20  1  0
 12 21  2  0
 21 22  1  0
 22 23  1  0
 23 24  1  0
 24 25  1  0
 25 26  1  0
 26 27  2  0
 27 28  1  0
 28 29  2  0
 29 30  1  0
 30 31  2  0
 31 32  1  0
 22 33  2  0
  9 34  1  0
  6  1  1  0
 33 10  1  0
 34  4  1  0
 20 15  1  0
 32 23  1  0
 31 26  1  0
  1 35  1  0
  2 36  1  0
  3 37  1  0
  6 38  1  0
  7 39  1  0
  7 40  1  0
  8 41  1  0
  8 42  1  0
 13 43  1  0
 14 44  1  0
 14 45  1  0
 15 46  1  1
 16 47  1  0
 16 48  1  0
 17 49  1  0
 17 50  1  0
 18 51  1  0
 18 52  1  0
 19 53  1  0
 20 54  1  0
 20 55  1  0
 24 56  1  0
 24 57  1  0
 25 58  1  0
 25 59  1  0
 27 60  1  0
 28 61  1  0
 29 62  1  0
 30 63  1  0
 32 64  1  0
 32 65  1  0
 34 66  1  0
 34 67  1  0
M  END
>  <smiles>  (64) 
c1ccc2c(c1)CCN(c1nc(NCC3CCCNC3)nc(N3CCc4ccccc4C3)n1)C2

>  <score_type>  (64) 
oracle

>  <origin>  (64) 
autodockgpu

>  <m_score__min__energy>  (64) 
-10.529999999999999

>  <m_primary>  (64) 
energy

>  <rmsd>  (64) 
5.915158341179182

>  <m_score__min__rmsd>  (64) 
5.915158341179182

>  <meeko>  (64) 
{"free_energy": -9.59, "intermolecular_energy": -11.08, "internal_energy": -1.39, "cluster_size": 44, "cluster_id": 1, "rank_in_cluster": 27}

>  <energy>  (64) 
-9.85

>  <cluster_rmsd>  (64) 
0.84

>  <cluster>  (64) 
1

$$$$

     RDKit          3D

 67 72  0  0  0  0  0  0  0  0999 V2000
  139.7140   80.3200  223.5920 C   0  0  0  0  0  0  0  0  0  0  0  0
  140.9850   80.2800  223.0280 C   0  0  0  0  0  0  0  0  0  0  0  0
  141.4500   79.1700  222.3380 C   0  0  0  0  0  0  0  0  0  0  0  0
  140.5860   78.0840  222.2300 C   0  0  0  0  0  0  0  0  0  0  0  0
  139.3260   78.1220  222.7880 C   0  0  0  0  0  0  0  0  0  0  0  0
  138.8680   79.2320  223.4750 C   0  0  0  0  0  0  0  0  0  0  0  0
  138.3830   76.9530  222.6690 C   0  0  0  0  0  0  0  0  0  0  0  0
  138.6580   76.3780  221.2660 C   0  0  0  0  0  0  0  0  0  0  0  0
  140.0300   75.8810  221.3680 N   0  0  0  0  0  0  0  0  0  0  0  0
  140.3390   74.4820  221.3070 C   0  0  0  0  0  0  0  0  0  0  0  0
  140.7700   73.9260  220.1370 N   0  0  0  0  0  0  0  0  0  0  0  0
  141.0330   72.5880  220.0500 C   0  0  0  0  0  0  0  0  0  0  0  0
  141.4990   72.0740  218.8130 N   0  0  0  0  0  0  0  0  0  0  0  0
  142.8660   72.1320  218.3640 C   0  0  0  0  0  0  0  0  0  0  0  0
  143.7090   72.7770  219.4590 C   0  0  1  0  0  0  0  0  0  0  0  0
  144.9930   72.0510  219.6880 C   0  0  0  0  0  0  0  0  0  0  0  0
  146.0920   73.0660  219.9120 C   0  0  0  0  0  0  0  0  0  0  0  0
  145.6490   74.1580  220.8580 C   0  0  0  0  0  0  0  0  0  0  0  0
  144.4690   74.8480  220.4120 N   0  0  0  0  0  0  0  0  0  0  0  0
  143.9560   74.2380  219.2100 C   0  0  0  0  0  0  0  0  0  0  0  0
  140.8600   71.8140  221.1510 N   0  0  0  0  0  0  0  0  0  0  0  0
  140.4340   72.3540  222.3210 C   0  0  0  0  0  0  0  0  0  0  0  0
  140.2540   71.5030  223.4300 N   0  0  0  0  0  0  0  0  0  0  0  0
  139.6060   70.2170  223.1980 C   0  0  0  0  0  0  0  0  0  0  0  0
  138.5220   70.0960  224.2790 C   0  0  0  0  0  0  0  0  0  0  0  0
  139.3020   69.9060  225.5520 C   0  0  0  0  0  0  0  0  0  0  0  0
  138.9920   68.9170  226.4580 C   0  0  0  0  0  0  0  0  0  0  0  0
  139.7310   68.7810  227.6120 C   0  0  0  0  0  0  0  0  0  0  0  0
  140.7870   69.6530  227.8470 C   0  0  0  0  0  0  0  0  0  0  0  0
  141.0670   70.6270  226.9230 C   0  0  0  0  0  0  0  0  0  0  0  0
  140.3520   70.8010  225.7510 C   0  0  0  0  0  0  0  0  0  0  0  0
  140.6840   71.8670  224.7640 C   0  0  0  0  0  0  0  0  0  0  0  0
  140.1830   73.6790  222.3700 N   0  0  0  0  0  0  0  0  0  0  0  0
  141.0660   76.8910  221.5040 C   0  0  0  0  0  0  0  0  0  0  0  0
  139.3811   81.2186  224.1321 H   0  0  0  0  0  0  0  0  0  0  0  0
  141.6420   81.1561  223.1324 H   0  0  0  0  0  0  0  0  0  0  0  0
  142.4570   79.1490  221.8958 H   0  0  0  0  0  0  0  0  0  0  0  0
  137.8602   79.2489  223.9155 H   0  0  0  0  0  0  0  0  0  0  0  0
  138.5939   76.2026  223.4451 H   0  0  0  0  0  0  0  0  0  0  0  0
  137.3316   77.2480  222.8019 H   0  0  0  0  0  0  0  0  0  0  0  0
  137.9596   75.5612  221.0312 H   0  0  0  0  0  0  0  0  0  0  0  0
  138.5277   77.1196  220.4641 H   0  0  0  0  0  0  0  0  0  0  0  0
  140.7500   71.6230  218.2040 H   0  0  0  0  0  0  0  0  0  0  0  0
  143.2339   71.1150  218.1633 H   0  0  0  0  0  0  0  0  0  0  0  0
  142.9337   72.7235  217.4391 H   0  0  0  0  0  0  0  0  0  0  0  0
  143.1137   72.6974  220.3806 H   0  0  0  0  0  0  0  0  0  0  0  0
  144.8999   71.4050  220.5735 H   0  0  0  0  0  0  0  0  0  0  0  0
  145.2317   71.4276  218.8137 H   0  0  0  0  0  0  0  0  0  0  0  0
  146.9684   72.5564  220.3389 H   0  0  0  0  0  0  0  0  0  0  0  0
  146.3411   73.5260  218.9444 H   0  0  0  0  0  0  0  0  0  0  0  0
  145.4407   73.7073  221.8396 H   0  0  0  0  0  0  0  0  0  0  0  0
  146.4617   74.8977  220.9077 H   0  0  0  0  0  0  0  0  0  0  0  0
  143.7160   74.7730  221.1310 H   0  0  0  0  0  0  0  0  0  0  0  0
  143.0127   74.7263  218.9243 H   0  0  0  0  0  0  0  0  0  0  0  0
  144.6883   74.3539  218.3974 H   0  0  0  0  0  0  0  0  0  0  0  0
  139.1528   70.1913  222.1960 H   0  0  0  0  0  0  0  0  0  0  0  0
  140.3245   69.3856  223.2491 H   0  0  0  0  0  0  0  0  0  0  0  0
  137.9122   71.0103  224.3261 H   0  0  0  0  0  0  0  0  0  0  0  0
  137.8186   69.2729  224.0850 H   0  0  0  0  0  0  0  0  0  0  0  0
  138.1526   68.2342  226.2598 H   0  0  0  0  0  0  0  0  0  0  0  0
  139.4883   67.9918  228.3388 H   0  0  0  0  0  0  0  0  0  0  0  0
  141.3905   69.5633  228.7622 H   0  0  0  0  0  0  0  0  0  0  0  0
  141.9069   71.3080  227.1248 H   0  0  0  0  0  0  0  0  0  0  0  0
  140.1807   72.7990  225.0607 H   0  0  0  0  0  0  0  0  0  0  0  0
  141.7758   72.0004  224.7520 H   0  0  0  0  0  0  0  0  0  0  0  0
  141.9138   76.4577  222.0549 H   0  0  0  0  0  0  0  0  0  0  0  0
  141.3662   77.2068  220.4940 H   0  0  0  0  0  0  0  0  0  0  0  0
  1  2  2  0
  2  3  1  0
  3  4  2  0
  4  5  1  0
  5  6  2  0
  5  7  1  0
  7  8  1  0
  8  9  1  0
  9 10  1  0
 10 11  2  0
 11 12  1  0
 12 13  1  0
 13 14  1  0
 14 15  1  0
 15 16  1  0
 16 17  1  0
 17 18  1  0
 18 19  1  0
 19 20  1  0
 12 21  2  0
 21 22  1  0
 22 23  1  0
 23 24  1  0
 24 25  1  0
 25 26  1  0
 26 27  2  0
 27 28  1  0
 28 29  2  0
 29 30  1  0
 30 31  2  0
 31 32  1  0
 22 33  2  0
  9 34  1  0
  6  1  1  0
 33 10  1  0
 34  4  1  0
 20 15  1  0
 32 23  1  0
 31 26  1  0
  1 35  1  0
  2 36  1  0
  3 37  1  0
  6 38  1  0
  7 39  1  0
  7 40  1  0
  8 41  1  0
  8 42  1  0
 13 43  1  0
 14 44  1  0
 14 45  1  0
 15 46  1  1
 16 47  1  0
 16 48  1  0
 17 49  1  0
 17 50  1  0
 18 51  1  0
 18 52  1  0
 19 53  1  0
 20 54  1  0
 20 55  1  0
 24 56  1  0
 24 57  1  0
 25 58  1  0
 25 59  1  0
 27 60  1  0
 28 61  1  0
 29 62  1  0
 30 63  1  0
 32 64  1  0
 32 65  1  0
 34 66  1  0
 34 67  1  0
M  END
>  <smiles>  (65) 
c1ccc2c(c1)CCN(c1nc(NCC3CCCNC3)nc(N3CCc4ccccc4C3)n1)C2

>  <score_type>  (65) 
oracle

>  <origin>  (65) 
autodockgpu

>  <m_score__min__energy>  (65) 
-10.529999999999999

>  <m_primary>  (65) 
energy

>  <rmsd>  (65) 
5.723968358385754

>  <m_score__min__rmsd>  (65) 
5.723968358385754

>  <meeko>  (65) 
{"free_energy": -9.55, "intermolecular_energy": -11.04, "internal_energy": -1.32, "cluster_size": 44, "cluster_id": 1, "rank_in_cluster": 34}

>  <energy>  (65) 
-9.84

>  <cluster_rmsd>  (65) 
0.85

>  <cluster>  (65) 
1

$$$$

     RDKit          3D

 67 72  0  0  0  0  0  0  0  0999 V2000
  142.1290   80.7800  221.7130 C   0  0  0  0  0  0  0  0  0  0  0  0
  142.0770   80.3730  223.0420 C   0  0  0  0  0  0  0  0  0  0  0  0
  141.7390   79.0770  223.4030 C   0  0  0  0  0  0  0  0  0  0  0  0
  141.4490   78.1880  222.3720 C   0  0  0  0  0  0  0  0  0  0  0  0
  141.5000   78.5890  221.0540 C   0  0  0  0  0  0  0  0  0  0  0  0
  141.8380   79.8830  220.7000 C   0  0  0  0  0  0  0  0  0  0  0  0
  141.1950   77.6310  219.9320 C   0  0  0  0  0  0  0  0  0  0  0  0
  141.7580   76.2810  220.4160 C   0  0  0  0  0  0  0  0  0  0  0  0
  140.9160   75.9580  221.5680 N   0  0  0  0  0  0  0  0  0  0  0  0
  140.0040   74.8510  221.5580 C   0  0  0  0  0  0  0  0  0  0  0  0
  138.8960   74.8830  220.7620 N   0  0  0  0  0  0  0  0  0  0  0  0
  137.9970   73.8540  220.7680 C   0  0  0  0  0  0  0  0  0  0  0  0
  136.8770   73.9360  219.9010 N   0  0  0  0  0  0  0  0  0  0  0  0
  135.5480   74.3040  220.3120 C   0  0  0  0  0  0  0  0  0  0  0  0
  135.5400   74.4830  221.8270 C   0  0  1  0  0  0  0  0  0  0  0  0
  134.5720   75.5290  222.2700 C   0  0  0  0  0  0  0  0  0  0  0  0
  133.8820   75.0520  223.5280 C   0  0  0  0  0  0  0  0  0  0  0  0
  134.8700   74.4570  224.5050 C   0  0  0  0  0  0  0  0  0  0  0  0
  135.6260   73.3660  223.9520 N   0  0  0  0  0  0  0  0  0  0  0  0
  135.3050   73.1910  222.5560 C   0  0  0  0  0  0  0  0  0  0  0  0
  138.2220   72.7930  221.5820 N   0  0  0  0  0  0  0  0  0  0  0  0
  139.3200   72.7470  222.3780 C   0  0  0  0  0  0  0  0  0  0  0  0
  139.4970   71.6300  223.2180 N   0  0  0  0  0  0  0  0  0  0  0  0
  138.7530   70.4170  222.8980 C   0  0  0  0  0  0  0  0  0  0  0  0
  138.1050   69.9650  224.2150 C   0  0  0  0  0  0  0  0  0  0  0  0
  139.2680   69.4910  225.0450 C   0  0  0  0  0  0  0  0  0  0  0  0
  139.2480   68.2860  225.7100 C   0  0  0  0  0  0  0  0  0  0  0  0
  140.3330   67.8930  226.4600 C   0  0  0  0  0  0  0  0  0  0  0  0
  141.4420   68.7260  226.5360 C   0  0  0  0  0  0  0  0  0  0  0  0
  141.4280   69.9200  225.8610 C   0  0  0  0  0  0  0  0  0  0  0  0
  140.3600   70.3550  225.0950 C   0  0  0  0  0  0  0  0  0  0  0  0
  140.3760   71.6560  224.3690 C   0  0  0  0  0  0  0  0  0  0  0  0
  140.1860   73.7810  222.3470 N   0  0  0  0  0  0  0  0  0  0  0  0
  141.0810   76.8060  222.7370 C   0  0  0  0  0  0  0  0  0  0  0  0
  142.4019   81.8167  221.4666 H   0  0  0  0  0  0  0  0  0  0  0  0
  142.3113   81.1019  223.8318 H   0  0  0  0  0  0  0  0  0  0  0  0
  141.7018   78.7656  224.4574 H   0  0  0  0  0  0  0  0  0  0  0  0
  141.8744   80.1899  219.6443 H   0  0  0  0  0  0  0  0  0  0  0  0
  140.1102   77.5622  219.7632 H   0  0  0  0  0  0  0  0  0  0  0  0
  141.6364   77.9507  218.9765 H   0  0  0  0  0  0  0  0  0  0  0  0
  141.6669   75.5130  219.6338 H   0  0  0  0  0  0  0  0  0  0  0  0
  142.8286   76.3257  220.6647 H   0  0  0  0  0  0  0  0  0  0  0  0
  137.0810   73.6990  218.8820 H   0  0  0  0  0  0  0  0  0  0  0  0
  135.2573   75.2469  219.8257 H   0  0  0  0  0  0  0  0  0  0  0  0
  134.8338   73.5192  220.0222 H   0  0  0  0  0  0  0  0  0  0  0  0
  136.5487   74.8319  222.0930 H   0  0  0  0  0  0  0  0  0  0  0  0
  135.1092   76.4666  222.4757 H   0  0  0  0  0  0  0  0  0  0  0  0
  133.8277   75.7083  221.4802 H   0  0  0  0  0  0  0  0  0  0  0  0
  133.3763   75.9048  224.0045 H   0  0  0  0  0  0  0  0  0  0  0  0
  133.1558   74.2735  223.2515 H   0  0  0  0  0  0  0  0  0  0  0  0
  135.5708   75.2452  224.8173 H   0  0  0  0  0  0  0  0  0  0  0  0
  134.2925   74.0584  225.3522 H   0  0  0  0  0  0  0  0  0  0  0  0
  136.6480   73.5750  224.0020 H   0  0  0  0  0  0  0  0  0  0  0  0
  135.9449   72.4056  222.1274 H   0  0  0  0  0  0  0  0  0  0  0  0
  134.2498   72.8972  222.4545 H   0  0  0  0  0  0  0  0  0  0  0  0
  137.9807   70.6289  222.1439 H   0  0  0  0  0  0  0  0  0  0  0  0
  139.4080   69.6382  222.4804 H   0  0  0  0  0  0  0  0  0  0  0  0
  137.5895   70.8036  224.7059 H   0  0  0  0  0  0  0  0  0  0  0  0
  137.3426   69.1858  224.0679 H   0  0  0  0  0  0  0  0  0  0  0  0
  138.3632   67.6360  225.6419 H   0  0  0  0  0  0  0  0  0  0  0  0
  140.3221   66.9308  226.9929 H   0  0  0  0  0  0  0  0  0  0  0  0
  142.3200   68.4319  227.1298 H   0  0  0  0  0  0  0  0  0  0  0  0
  142.3143   70.5676  225.9322 H   0  0  0  0  0  0  0  0  0  0  0  0
  140.0463   72.4517  225.0532 H   0  0  0  0  0  0  0  0  0  0  0  0
  141.4013   71.8435  224.0173 H   0  0  0  0  0  0  0  0  0  0  0  0
  140.1342   76.8269  223.2966 H   0  0  0  0  0  0  0  0  0  0  0  0
  141.8955   76.3880  223.3468 H   0  0  0  0  0  0  0  0  0  0  0  0
  1  2  2  0
  2  3  1  0
  3  4  2  0
  4  5  1  0
  5  6  2  0
  5  7  1  0
  7  8  1  0
  8  9  1  0
  9 10  1  0
 10 11  2  0
 11 12  1  0
 12 13  1  0
 13 14  1  0
 14 15  1  0
 15 16  1  0
 16 17  1  0
 17 18  1  0
 18 19  1  0
 19 20  1  0
 12 21  2  0
 21 22  1  0
 22 23  1  0
 23 24  1  0
 24 25  1  0
 25 26  1  0
 26 27  2  0
 27 28  1  0
 28 29  2  0
 29 30  1  0
 30 31  2  0
 31 32  1  0
 22 33  2  0
  9 34  1  0
  6  1  1  0
 33 10  1  0
 34  4  1  0
 20 15  1  0
 32 23  1  0
 31 26  1  0
  1 35  1  0
  2 36  1  0
  3 37  1  0
  6 38  1  0
  7 39  1  0
  7 40  1  0
  8 41  1  0
  8 42  1  0
 13 43  1  0
 14 44  1  0
 14 45  1  0
 15 46  1  1
 16 47  1  0
 16 48  1  0
 17 49  1  0
 17 50  1  0
 18 51  1  0
 18 52  1  0
 19 53  1  0
 20 54  1  0
 20 55  1  0
 24 56  1  0
 24 57  1  0
 25 58  1  0
 25 59  1  0
 27 60  1  0
 28 61  1  0
 29 62  1  0
 30 63  1  0
 32 64  1  0
 32 65  1  0
 34 66  1  0
 34 67  1  0
M  END
>  <smiles>  (66) 
c1ccc2c(c1)CCN(c1nc(NCC3CCCNC3)nc(N3CCc4ccccc4C3)n1)C2

>  <score_type>  (66) 
oracle

>  <origin>  (66) 
autodockgpu

>  <m_score__min__energy>  (66) 
-10.529999999999999

>  <m_primary>  (66) 
energy

>  <rmsd>  (66) 
6.87025663917966

>  <m_score__min__rmsd>  (66) 
6.87025663917966

>  <meeko>  (66) 
{"free_energy": -8.8, "intermolecular_energy": -10.29, "internal_energy": -1.37, "cluster_size": 2, "cluster_id": 3, "rank_in_cluster": 1}

>  <energy>  (66) 
-9.82

>  <cluster_rmsd>  (66) 
0.95

>  <cluster>  (66) 
1

$$$$

     RDKit          3D

 67 72  0  0  0  0  0  0  0  0999 V2000
  139.5890   80.1120  223.5460 C   0  0  0  0  0  0  0  0  0  0  0  0
  140.8750   80.0820  223.0160 C   0  0  0  0  0  0  0  0  0  0  0  0
  141.3850   78.9570  222.3860 C   0  0  0  0  0  0  0  0  0  0  0  0
  140.5510   77.8460  222.3010 C   0  0  0  0  0  0  0  0  0  0  0  0
  139.2770   77.8740  222.8250 C   0  0  0  0  0  0  0  0  0  0  0  0
  138.7730   78.9990  223.4530 C   0  0  0  0  0  0  0  0  0  0  0  0
  138.3650   76.6770  222.7310 C   0  0  0  0  0  0  0  0  0  0  0  0
  138.6910   76.0530  221.3610 C   0  0  0  0  0  0  0  0  0  0  0  0
  140.0720   75.5960  221.5190 N   0  0  0  0  0  0  0  0  0  0  0  0
  140.4170   74.2040  221.5230 C   0  0  0  0  0  0  0  0  0  0  0  0
  140.8750   73.6060  220.3840 N   0  0  0  0  0  0  0  0  0  0  0  0
  141.1720   72.2730  220.3610 C   0  0  0  0  0  0  0  0  0  0  0  0
  141.6650   71.7160  219.1520 N   0  0  0  0  0  0  0  0  0  0  0  0
  142.8930   72.1080  218.5110 C   0  0  0  0  0  0  0  0  0  0  0  0
  143.7850   72.7880  219.5440 C   0  0  1  0  0  0  0  0  0  0  0  0
  145.0850   72.0780  219.7270 C   0  0  0  0  0  0  0  0  0  0  0  0
  146.1850   73.1070  219.8670 C   0  0  0  0  0  0  0  0  0  0  0  0
  145.7810   74.2220  220.8050 C   0  0  0  0  0  0  0  0  0  0  0  0
  144.5730   74.8900  220.4010 N   0  0  0  0  0  0  0  0  0  0  0  0
  144.0050   74.2440  219.2430 C   0  0  0  0  0  0  0  0  0  0  0  0
  141.0070   71.5460  221.4940 N   0  0  0  0  0  0  0  0  0  0  0  0
  140.5540   72.1260  222.6330 C   0  0  0  0  0  0  0  0  0  0  0  0
  140.3830   71.3210  223.7780 N   0  0  0  0  0  0  0  0  0  0  0  0
  139.8200   69.9890  223.5900 C   0  0  0  0  0  0  0  0  0  0  0  0
  138.7050   69.8570  224.6390 C   0  0  0  0  0  0  0  0  0  0  0  0
  139.4470   69.7770  225.9460 C   0  0  0  0  0  0  0  0  0  0  0  0
  139.1620   68.8170  226.8900 C   0  0  0  0  0  0  0  0  0  0  0  0
  139.8640   68.7820  228.0740 C   0  0  0  0  0  0  0  0  0  0  0  0
  140.8580   69.7260  228.3000 C   0  0  0  0  0  0  0  0  0  0  0  0
  141.1150   70.6690  227.3370 C   0  0  0  0  0  0  0  0  0  0  0  0
  140.4350   70.7410  226.1340 C   0  0  0  0  0  0  0  0  0  0  0  0
  140.7400   71.7750  225.1060 C   0  0  0  0  0  0  0  0  0  0  0  0
  140.2690   73.4450  222.6200 N   0  0  0  0  0  0  0  0  0  0  0  0
  141.0800   76.6370  221.6380 C   0  0  0  0  0  0  0  0  0  0  0  0
  139.2203   81.0230  224.0402 H   0  0  0  0  0  0  0  0  0  0  0  0
  141.5068   80.9786  223.0993 H   0  0  0  0  0  0  0  0  0  0  0  0
  142.4039   78.9432  221.9716 H   0  0  0  0  0  0  0  0  0  0  0  0
  137.7536   79.0081  223.8661 H   0  0  0  0  0  0  0  0  0  0  0  0
  138.5733   75.9644  223.5427 H   0  0  0  0  0  0  0  0  0  0  0  0
  137.3037   76.9503  222.8251 H   0  0  0  0  0  0  0  0  0  0  0  0
  138.0195   75.2096  221.1424 H   0  0  0  0  0  0  0  0  0  0  0  0
  138.5637   76.7576  220.5259 H   0  0  0  0  0  0  0  0  0  0  0  0
  141.0500   70.9590  218.7240 H   0  0  0  0  0  0  0  0  0  0  0  0
  143.4018   71.2191  218.1097 H   0  0  0  0  0  0  0  0  0  0  0  0
  142.6806   72.8008  217.6834 H   0  0  0  0  0  0  0  0  0  0  0  0
  143.2392   72.7286  220.4972 H   0  0  0  0  0  0  0  0  0  0  0  0
  145.0426   71.4561  220.6333 H   0  0  0  0  0  0  0  0  0  0  0  0
  145.2845   71.4323  218.8591 H   0  0  0  0  0  0  0  0  0  0  0  0
  147.0864   72.6158  220.2622 H   0  0  0  0  0  0  0  0  0  0  0  0
  146.3804   73.5421  218.8758 H   0  0  0  0  0  0  0  0  0  0  0  0
  145.6274   73.7972  221.8080 H   0  0  0  0  0  0  0  0  0  0  0  0
  146.5883   74.9690  220.7930 H   0  0  0  0  0  0  0  0  0  0  0  0
  143.8580   74.8300  221.1590 H   0  0  0  0  0  0  0  0  0  0  0  0
  143.0438   74.7168  218.9930 H   0  0  0  0  0  0  0  0  0  0  0  0
  144.6932   74.3441  218.3907 H   0  0  0  0  0  0  0  0  0  0  0  0
  139.4065   69.8871  222.5758 H   0  0  0  0  0  0  0  0  0  0  0  0
  140.5830   69.2054  223.7077 H   0  0  0  0  0  0  0  0  0  0  0  0
  138.0419   70.7345  224.6182 H   0  0  0  0  0  0  0  0  0  0  0  0
  138.0581   68.9847  224.4638 H   0  0  0  0  0  0  0  0  0  0  0  0
  138.3718   68.0762  226.6983 H   0  0  0  0  0  0  0  0  0  0  0  0
  139.6406   68.0162  228.8314 H   0  0  0  0  0  0  0  0  0  0  0  0
  141.4314   69.7175  229.2387 H   0  0  0  0  0  0  0  0  0  0  0  0
  141.9054   71.4087  227.5321 H   0  0  0  0  0  0  0  0  0  0  0  0
  140.1716   72.6880  225.3370 H   0  0  0  0  0  0  0  0  0  0  0  0
  141.8218   71.9735  225.1249 H   0  0  0  0  0  0  0  0  0  0  0  0
  141.9235   76.2488  222.2278 H   0  0  0  0  0  0  0  0  0  0  0  0
  141.3997   76.9180  220.6237 H   0  0  0  0  0  0  0  0  0  0  0  0
  1  2  2  0
  2  3  1  0
  3  4  2  0
  4  5  1  0
  5  6  2  0
  5  7  1  0
  7  8  1  0
  8  9  1  0
  9 10  1  0
 10 11  2  0
 11 12  1  0
 12 13  1  0
 13 14  1  0
 14 15  1  0
 15 16  1  0
 16 17  1  0
 17 18  1  0
 18 19  1  0
 19 20  1  0
 12 21  2  0
 21 22  1  0
 22 23  1  0
 23 24  1  0
 24 25  1  0
 25 26  1  0
 26 27  2  0
 27 28  1  0
 28 29  2  0
 29 30  1  0
 30 31  2  0
 31 32  1  0
 22 33  2  0
  9 34  1  0
  6  1  1  0
 33 10  1  0
 34  4  1  0
 20 15  1  0
 32 23  1  0
 31 26  1  0
  1 35  1  0
  2 36  1  0
  3 37  1  0
  6 38  1  0
  7 39  1  0
  7 40  1  0
  8 41  1  0
  8 42  1  0
 13 43  1  0
 14 44  1  0
 14 45  1  0
 15 46  1  1
 16 47  1  0
 16 48  1  0
 17 49  1  0
 17 50  1  0
 18 51  1  0
 18 52  1  0
 19 53  1  0
 20 54  1  0
 20 55  1  0
 24 56  1  0
 24 57  1  0
 25 58  1  0
 25 59  1  0
 27 60  1  0
 28 61  1  0
 29 62  1  0
 30 63  1  0
 32 64  1  0
 32 65  1  0
 34 66  1  0
 34 67  1  0
M  END
>  <smiles>  (67) 
c1ccc2c(c1)CCN(c1nc(NCC3CCCNC3)nc(N3CCc4ccccc4C3)n1)C2

>  <score_type>  (67) 
oracle

>  <origin>  (67) 
autodockgpu

>  <m_score__min__energy>  (67) 
-10.529999999999999

>  <m_primary>  (67) 
energy

>  <rmsd>  (67) 
5.767272322965772

>  <m_score__min__rmsd>  (67) 
5.767272322965772

>  <meeko>  (67) 
{"free_energy": -9.44, "intermolecular_energy": -10.93, "internal_energy": -1.27, "cluster_size": 44, "cluster_id": 1, "rank_in_cluster": 39}

>  <energy>  (67) 
-9.81

>  <cluster_rmsd>  (67) 
0.95

>  <cluster>  (67) 
1

$$$$

     RDKit          3D

 67 72  0  0  0  0  0  0  0  0999 V2000
  139.8640   80.3420  223.8420 C   0  0  0  0  0  0  0  0  0  0  0  0
  141.1490   80.2550  223.3180 C   0  0  0  0  0  0  0  0  0  0  0  0
  141.5750   79.1530  222.5910 C   0  0  0  0  0  0  0  0  0  0  0  0
  140.6560   78.1250  222.4030 C   0  0  0  0  0  0  0  0  0  0  0  0
  139.3820   78.2090  222.9220 C   0  0  0  0  0  0  0  0  0  0  0  0
  138.9630   79.3100  223.6470 C   0  0  0  0  0  0  0  0  0  0  0  0
  138.3790   77.1030  222.7170 C   0  0  0  0  0  0  0  0  0  0  0  0
  138.6700   76.5790  221.2980 C   0  0  0  0  0  0  0  0  0  0  0  0
  140.0070   76.0000  221.4200 N   0  0  0  0  0  0  0  0  0  0  0  0
  140.2410   74.5900  221.3010 C   0  0  0  0  0  0  0  0  0  0  0  0
  140.5730   74.0480  220.0920 N   0  0  0  0  0  0  0  0  0  0  0  0
  140.7620   72.7020  219.9530 C   0  0  0  0  0  0  0  0  0  0  0  0
  141.1290   72.2050  218.6760 N   0  0  0  0  0  0  0  0  0  0  0  0
  142.1830   72.7440  217.8590 C   0  0  0  0  0  0  0  0  0  0  0  0
  143.4610   72.8030  218.6910 C   0  0  1  0  0  0  0  0  0  0  0  0
  143.5590   71.6720  219.6610 C   0  0  0  0  0  0  0  0  0  0  0  0
  144.9890   71.1830  219.6940 C   0  0  0  0  0  0  0  0  0  0  0  0
  145.9640   72.3360  219.7580 C   0  0  0  0  0  0  0  0  0  0  0  0
  145.8190   73.2610  218.6660 N   0  0  0  0  0  0  0  0  0  0  0  0
  144.6970   72.8890  217.8400 C   0  0  0  0  0  0  0  0  0  0  0  0
  140.6130   71.9050  221.0400 N   0  0  0  0  0  0  0  0  0  0  0  0
  140.2840   72.4290  222.2480 C   0  0  0  0  0  0  0  0  0  0  0  0
  140.1250   71.5540  223.3410 N   0  0  0  0  0  0  0  0  0  0  0  0
  139.4510   70.2830  223.0990 C   0  0  0  0  0  0  0  0  0  0  0  0
  138.3970   70.1520  224.2090 C   0  0  0  0  0  0  0  0  0  0  0  0
  139.2120   69.9200  225.4530 C   0  0  0  0  0  0  0  0  0  0  0  0
  138.9150   68.9140  226.3440 C   0  0  0  0  0  0  0  0  0  0  0  0
  139.6860   68.7400  227.4720 C   0  0  0  0  0  0  0  0  0  0  0  0
  140.7600   69.5910  227.6960 C   0  0  0  0  0  0  0  0  0  0  0  0
  141.0270   70.5830  226.7870 C   0  0  0  0  0  0  0  0  0  0  0  0
  140.2810   70.7950  225.6410 C   0  0  0  0  0  0  0  0  0  0  0  0
  140.5980   71.8790  224.6710 C   0  0  0  0  0  0  0  0  0  0  0  0
  140.1050   73.7620  222.3490 N   0  0  0  0  0  0  0  0  0  0  0  0
  141.0940   76.9410  221.6370 C   0  0  0  0  0  0  0  0  0  0  0  0
  139.5631   81.2329  224.4127 H   0  0  0  0  0  0  0  0  0  0  0  0
  141.8499   81.0862  223.4852 H   0  0  0  0  0  0  0  0  0  0  0  0
  142.5941   79.0943  222.1813 H   0  0  0  0  0  0  0  0  0  0  0  0
  137.9435   79.3636  224.0565 H   0  0  0  0  0  0  0  0  0  0  0  0
  138.5202   76.3065  223.4625 H   0  0  0  0  0  0  0  0  0  0  0  0
  137.3419   77.4516  222.8304 H   0  0  0  0  0  0  0  0  0  0  0  0
  137.9356   75.8155  221.0017 H   0  0  0  0  0  0  0  0  0  0  0  0
  138.6094   77.3633  220.5291 H   0  0  0  0  0  0  0  0  0  0  0  0
  140.5560   71.3730  218.3380 H   0  0  0  0  0  0  0  0  0  0  0  0
  142.3404   72.0976  216.9830 H   0  0  0  0  0  0  0  0  0  0  0  0
  141.9125   73.7525  217.5131 H   0  0  0  0  0  0  0  0  0  0  0  0
  143.3973   73.7343  219.2730 H   0  0  0  0  0  0  0  0  0  0  0  0
  143.2627   72.0169  220.6626 H   0  0  0  0  0  0  0  0  0  0  0  0
  142.8909   70.8547  219.3518 H   0  0  0  0  0  0  0  0  0  0  0  0
  145.1292   70.5460  220.5798 H   0  0  0  0  0  0  0  0  0  0  0  0
  145.1827   70.6162  218.7714 H   0  0  0  0  0  0  0  0  0  0  0  0
  145.8017   72.8794  220.7005 H   0  0  0  0  0  0  0  0  0  0  0  0
  146.9770   71.9118  219.6952 H   0  0  0  0  0  0  0  0  0  0  0  0
  145.6200   74.2180  219.0310 H   0  0  0  0  0  0  0  0  0  0  0  0
  144.5511   73.6462  217.0555 H   0  0  0  0  0  0  0  0  0  0  0  0
  144.8913   71.9125  217.3723 H   0  0  0  0  0  0  0  0  0  0  0  0
  138.9683   70.2872  222.1106 H   0  0  0  0  0  0  0  0  0  0  0  0
  140.1582   69.4405  223.1098 H   0  0  0  0  0  0  0  0  0  0  0  0
  137.8030   71.0737  224.2960 H   0  0  0  0  0  0  0  0  0  0  0  0
  137.6752   69.3445  224.0168 H   0  0  0  0  0  0  0  0  0  0  0  0
  138.0604   68.2478  226.1549 H   0  0  0  0  0  0  0  0  0  0  0  0
  139.4537   67.9367  228.1866 H   0  0  0  0  0  0  0  0  0  0  0  0
  141.3886   69.4713  228.5907 H   0  0  0  0  0  0  0  0  0  0  0  0
  141.8822   71.2473  226.9799 H   0  0  0  0  0  0  0  0  0  0  0  0
  140.1160   72.8098  225.0046 H   0  0  0  0  0  0  0  0  0  0  0  0
  141.6908   71.9978  224.6300 H   0  0  0  0  0  0  0  0  0  0  0  0
  141.8962   76.4346  222.1938 H   0  0  0  0  0  0  0  0  0  0  0  0
  141.4476   77.2843  220.6536 H   0  0  0  0  0  0  0  0  0  0  0  0
  1  2  2  0
  2  3  1  0
  3  4  2  0
  4  5  1  0
  5  6  2  0
  5  7  1  0
  7  8  1  0
  8  9  1  0
  9 10  1  0
 10 11  2  0
 11 12  1  0
 12 13  1  0
 13 14  1  0
 14 15  1  0
 15 16  1  0
 16 17  1  0
 17 18  1  0
 18 19  1  0
 19 20  1  0
 12 21  2  0
 21 22  1  0
 22 23  1  0
 23 24  1  0
 24 25  1  0
 25 26  1  0
 26 27  2  0
 27 28  1  0
 28 29  2  0
 29 30  1  0
 30 31  2  0
 31 32  1  0
 22 33  2  0
  9 34  1  0
  6  1  1  0
 33 10  1  0
 34  4  1  0
 20 15  1  0
 32 23  1  0
 31 26  1  0
  1 35  1  0
  2 36  1  0
  3 37  1  0
  6 38  1  0
  7 39  1  0
  7 40  1  0
  8 41  1  0
  8 42  1  0
 13 43  1  0
 14 44  1  0
 14 45  1  0
 15 46  1  1
 16 47  1  0
 16 48  1  0
 17 49  1  0
 17 50  1  0
 18 51  1  0
 18 52  1  0
 19 53  1  0
 20 54  1  0
 20 55  1  0
 24 56  1  0
 24 57  1  0
 25 58  1  0
 25 59  1  0
 27 60  1  0
 28 61  1  0
 29 62  1  0
 30 63  1  0
 32 64  1  0
 32 65  1  0
 34 66  1  0
 34 67  1  0
M  END
>  <smiles>  (68) 
c1ccc2c(c1)CCN(c1nc(NCC3CCCNC3)nc(N3CCc4ccccc4C3)n1)C2

>  <score_type>  (68) 
oracle

>  <origin>  (68) 
autodockgpu

>  <m_score__min__energy>  (68) 
-10.529999999999999

>  <m_primary>  (68) 
energy

>  <rmsd>  (68) 
6.093393333176169

>  <m_score__min__rmsd>  (68) 
6.093393333176169

>  <meeko>  (68) 
{"free_energy": -9.57, "intermolecular_energy": -11.06, "internal_energy": -0.96, "cluster_size": 44, "cluster_id": 1, "rank_in_cluster": 28}

>  <energy>  (68) 
-9.8

>  <cluster_rmsd>  (68) 
0.89

>  <cluster>  (68) 
1

$$$$

     RDKit          3D

 67 72  0  0  0  0  0  0  0  0999 V2000
  139.7770   67.9920  226.4910 C   0  0  0  0  0  0  0  0  0  0  0  0
  140.4650   69.0150  227.1360 C   0  0  0  0  0  0  0  0  0  0  0  0
  140.6740   70.2500  226.5420 C   0  0  0  0  0  0  0  0  0  0  0  0
  140.1630   70.4310  225.2590 C   0  0  0  0  0  0  0  0  0  0  0  0
  139.4810   69.4190  224.6190 C   0  0  0  0  0  0  0  0  0  0  0  0
  139.2760   68.1880  225.2160 C   0  0  0  0  0  0  0  0  0  0  0  0
  138.9200   69.6090  223.2330 C   0  0  0  0  0  0  0  0  0  0  0  0
  138.4540   71.0770  223.2060 C   0  0  0  0  0  0  0  0  0  0  0  0
  139.7030   71.8290  223.3260 N   0  0  0  0  0  0  0  0  0  0  0  0
  140.2130   72.6350  222.2550 C   0  0  0  0  0  0  0  0  0  0  0  0
  140.6950   72.0450  221.1220 N   0  0  0  0  0  0  0  0  0  0  0  0
  141.2200   72.7950  220.1080 C   0  0  0  0  0  0  0  0  0  0  0  0
  141.6840   72.1250  218.9480 N   0  0  0  0  0  0  0  0  0  0  0  0
  143.0710   71.9150  218.6220 C   0  0  0  0  0  0  0  0  0  0  0  0
  143.9270   72.6430  219.6530 C   0  0  1  0  0  0  0  0  0  0  0  0
  145.2430   71.9730  219.8730 C   0  0  0  0  0  0  0  0  0  0  0  0
  146.3120   73.0350  220.0070 C   0  0  0  0  0  0  0  0  0  0  0  0
  145.8620   74.1580  220.9110 C   0  0  0  0  0  0  0  0  0  0  0  0
  144.6440   74.7840  220.4730 N   0  0  0  0  0  0  0  0  0  0  0  0
  144.1130   74.0970  219.3220 C   0  0  0  0  0  0  0  0  0  0  0  0
  141.2550   74.1450  220.2430 N   0  0  0  0  0  0  0  0  0  0  0  0
  140.7780   74.7450  221.3620 C   0  0  0  0  0  0  0  0  0  0  0  0
  140.8530   76.1490  221.4590 N   0  0  0  0  0  0  0  0  0  0  0  0
  140.7110   76.9210  220.2300 C   0  0  0  0  0  0  0  0  0  0  0  0
  141.8750   77.9240  220.2310 C   0  0  0  0  0  0  0  0  0  0  0  0
  141.5190   78.8880  221.3300 C   0  0  0  0  0  0  0  0  0  0  0  0
  141.5760   80.2520  221.1520 C   0  0  0  0  0  0  0  0  0  0  0  0
  141.2430   81.0980  222.1860 C   0  0  0  0  0  0  0  0  0  0  0  0
  140.8520   80.5580  223.4050 C   0  0  0  0  0  0  0  0  0  0  0  0
  140.8070   79.1940  223.5470 C   0  0  0  0  0  0  0  0  0  0  0  0
  141.1310   78.3060  222.5360 C   0  0  0  0  0  0  0  0  0  0  0  0
  141.0690   76.8290  222.7190 C   0  0  0  0  0  0  0  0  0  0  0  0
  140.2670   73.9730  222.3440 N   0  0  0  0  0  0  0  0  0  0  0  0
  140.3820   71.7380  224.6080 C   0  0  0  0  0  0  0  0  0  0  0  0
  139.6310   67.0255  226.9955 H   0  0  0  0  0  0  0  0  0  0  0  0
  140.8554   68.8382  228.1491 H   0  0  0  0  0  0  0  0  0  0  0  0
  141.2195   71.0518  227.0612 H   0  0  0  0  0  0  0  0  0  0  0  0
  138.7309   67.3886  224.6927 H   0  0  0  0  0  0  0  0  0  0  0  0
  139.6945   69.4324  222.4721 H   0  0  0  0  0  0  0  0  0  0  0  0
  138.1036   68.9059  223.0112 H   0  0  0  0  0  0  0  0  0  0  0  0
  137.9426   71.3107  222.2605 H   0  0  0  0  0  0  0  0  0  0  0  0
  137.7310   71.3137  224.0005 H   0  0  0  0  0  0  0  0  0  0  0  0
  140.9180   71.7690  218.2990 H   0  0  0  0  0  0  0  0  0  0  0  0
  143.2984   70.8390  218.6443 H   0  0  0  0  0  0  0  0  0  0  0  0
  143.2839   72.3025  217.6148 H   0  0  0  0  0  0  0  0  0  0  0  0
  143.3668   72.5907  220.5982 H   0  0  0  0  0  0  0  0  0  0  0  0
  145.2025   71.3706  220.7925 H   0  0  0  0  0  0  0  0  0  0  0  0
  145.4744   71.3137  219.0234 H   0  0  0  0  0  0  0  0  0  0  0  0
  147.2197   72.5782  220.4282 H   0  0  0  0  0  0  0  0  0  0  0  0
  146.5125   73.4526  219.0093 H   0  0  0  0  0  0  0  0  0  0  0  0
  145.7028   73.7516  221.9207 H   0  0  0  0  0  0  0  0  0  0  0  0
  146.6489   74.9264  220.8943 H   0  0  0  0  0  0  0  0  0  0  0  0
  143.9190   74.7220  221.2220 H   0  0  0  0  0  0  0  0  0  0  0  0
  143.1438   74.5378  219.0459 H   0  0  0  0  0  0  0  0  0  0  0  0
  144.8124   74.1962  218.4788 H   0  0  0  0  0  0  0  0  0  0  0  0
  140.7749   76.2604  219.3528 H   0  0  0  0  0  0  0  0  0  0  0  0
  139.7371   77.4300  220.1810 H   0  0  0  0  0  0  0  0  0  0  0  0
  142.8276   77.4182  220.4471 H   0  0  0  0  0  0  0  0  0  0  0  0
  142.0096   78.4196  219.2582 H   0  0  0  0  0  0  0  0  0  0  0  0
  141.8881   80.6666  220.1821 H   0  0  0  0  0  0  0  0  0  0  0  0
  141.2860   82.1885  222.0486 H   0  0  0  0  0  0  0  0  0  0  0  0
  140.5822   81.2151  224.2449 H   0  0  0  0  0  0  0  0  0  0  0  0
  140.4960   78.7832  224.5189 H   0  0  0  0  0  0  0  0  0  0  0  0
  142.0176   76.4823  223.1548 H   0  0  0  0  0  0  0  0  0  0  0  0
  140.2254   76.5980  223.3861 H   0  0  0  0  0  0  0  0  0  0  0  0
  141.4613   71.8790  224.4489 H   0  0  0  0  0  0  0  0  0  0  0  0
  139.9712   72.5180  225.2659 H   0  0  0  0  0  0  0  0  0  0  0  0
  1  2  2  0
  2  3  1  0
  3  4  2  0
  4  5  1  0
  5  6  2  0
  5  7  1  0
  7  8  1  0
  8  9  1  0
  9 10  1  0
 10 11  2  0
 11 12  1  0
 12 13  1  0
 13 14  1  0
 14 15  1  0
 15 16  1  0
 16 17  1  0
 17 18  1  0
 18 19  1  0
 19 20  1  0
 12 21  2  0
 21 22  1  0
 22 23  1  0
 23 24  1  0
 24 25  1  0
 25 26  1  0
 26 27  2  0
 27 28  1  0
 28 29  2  0
 29 30  1  0
 30 31  2  0
 31 32  1  0
 22 33  2  0
  9 34  1  0
  6  1  1  0
 33 10  1  0
 34  4  1  0
 20 15  1  0
 32 23  1  0
 31 26  1  0
  1 35  1  0
  2 36  1  0
  3 37  1  0
  6 38  1  0
  7 39  1  0
  7 40  1  0
  8 41  1  0
  8 42  1  0
 13 43  1  0
 14 44  1  0
 14 45  1  0
 15 46  1  1
 16 47  1  0
 16 48  1  0
 17 49  1  0
 17 50  1  0
 18 51  1  0
 18 52  1  0
 19 53  1  0
 20 54  1  0
 20 55  1  0
 24 56  1  0
 24 57  1  0
 25 58  1  0
 25 59  1  0
 27 60  1  0
 28 61  1  0
 29 62  1  0
 30 63  1  0
 32 64  1  0
 32 65  1  0
 34 66  1  0
 34 67  1  0
M  END
>  <smiles>  (69) 
c1ccc2c(c1)CCN(c1nc(NCC3CCCNC3)nc(N3CCc4ccccc4C3)n1)C2

>  <score_type>  (69) 
oracle

>  <origin>  (69) 
autodockgpu

>  <m_score__min__energy>  (69) 
-10.529999999999999

>  <m_primary>  (69) 
energy

>  <rmsd>  (69) 
5.932277612694096

>  <m_score__min__rmsd>  (69) 
5.932277612694096

>  <meeko>  (69) 
{"free_energy": -9.63, "intermolecular_energy": -11.12, "internal_energy": -1.37, "cluster_size": 44, "cluster_id": 1, "rank_in_cluster": 23}

>  <energy>  (69) 
-9.74

>  <cluster_rmsd>  (69) 
1.04

>  <cluster>  (69) 
1

$$$$

     RDKit          3D

 67 72  0  0  0  0  0  0  0  0999 V2000
  142.0970   80.5890  221.4110 C   0  0  0  0  0  0  0  0  0  0  0  0
  142.0250   80.2760  222.7640 C   0  0  0  0  0  0  0  0  0  0  0  0
  141.6690   79.0110  223.2090 C   0  0  0  0  0  0  0  0  0  0  0  0
  141.3850   78.0550  222.2380 C   0  0  0  0  0  0  0  0  0  0  0  0
  141.4560   78.3640  220.8970 C   0  0  0  0  0  0  0  0  0  0  0  0
  141.8110   79.6270  220.4580 C   0  0  0  0  0  0  0  0  0  0  0  0
  141.1560   77.3320  219.8390 C   0  0  0  0  0  0  0  0  0  0  0  0
  141.7000   76.0150  220.4230 C   0  0  0  0  0  0  0  0  0  0  0  0
  140.8410   75.7790  221.5830 N   0  0  0  0  0  0  0  0  0  0  0  0
  139.9180   74.6820  221.6370 C   0  0  0  0  0  0  0  0  0  0  0  0
  138.7370   74.7450  220.9560 N   0  0  0  0  0  0  0  0  0  0  0  0
  137.8300   73.7260  221.0270 C   0  0  0  0  0  0  0  0  0  0  0  0
  136.6310   73.8400  220.2780 N   0  0  0  0  0  0  0  0  0  0  0  0
  135.3090   73.8600  220.8460 C   0  0  0  0  0  0  0  0  0  0  0  0
  135.4250   74.1630  222.3360 C   0  0  1  0  0  0  0  0  0  0  0  0
  134.5960   75.3360  222.7440 C   0  0  0  0  0  0  0  0  0  0  0  0
  133.9550   75.0360  224.0800 C   0  0  0  0  0  0  0  0  0  0  0  0
  134.9460   74.4260  225.0430 C   0  0  0  0  0  0  0  0  0  0  0  0
  135.5530   73.2220  224.5430 N   0  0  0  0  0  0  0  0  0  0  0  0
  135.1190   72.9660  223.1910 C   0  0  0  0  0  0  0  0  0  0  0  0
  138.1220   72.6420  221.7890 N   0  0  0  0  0  0  0  0  0  0  0  0
  139.2920   72.5650  222.4710 C   0  0  0  0  0  0  0  0  0  0  0  0
  139.5380   71.4260  223.2620 N   0  0  0  0  0  0  0  0  0  0  0  0
  139.4230   70.1200  222.6220 C   0  0  0  0  0  0  0  0  0  0  0  0
  138.5530   69.2710  223.5620 C   0  0  0  0  0  0  0  0  0  0  0  0
  139.4370   69.0340  224.7560 C   0  0  0  0  0  0  0  0  0  0  0  0
  139.6020   67.7830  225.3060 C   0  0  0  0  0  0  0  0  0  0  0  0
  140.4190   67.6120  226.4010 C   0  0  0  0  0  0  0  0  0  0  0  0
  141.0690   68.7150  226.9400 C   0  0  0  0  0  0  0  0  0  0  0  0
  140.8810   69.9470  226.3670 C   0  0  0  0  0  0  0  0  0  0  0  0
  140.0710   70.1650  225.2660 C   0  0  0  0  0  0  0  0  0  0  0  0
  139.8900   71.5160  224.6640 C   0  0  0  0  0  0  0  0  0  0  0  0
  140.1650   73.5910  222.3780 N   0  0  0  0  0  0  0  0  0  0  0  0
  140.9980   76.7050  222.6930 C   0  0  0  0  0  0  0  0  0  0  0  0
  142.3821   81.6040  221.0973 H   0  0  0  0  0  0  0  0  0  0  0  0
  142.2575   81.0555  223.5044 H   0  0  0  0  0  0  0  0  0  0  0  0
  141.6137   78.7740  224.2817 H   0  0  0  0  0  0  0  0  0  0  0  0
  141.8643   79.8596  219.3842 H   0  0  0  0  0  0  0  0  0  0  0  0
  140.0729   77.2607  219.6609 H   0  0  0  0  0  0  0  0  0  0  0  0
  141.6123   77.5807  218.8695 H   0  0  0  0  0  0  0  0  0  0  0  0
  141.6121   75.1953  219.6947 H   0  0  0  0  0  0  0  0  0  0  0  0
  142.7676   76.0686  220.6827 H   0  0  0  0  0  0  0  0  0  0  0  0
  136.7660   73.9130  219.2240 H   0  0  0  0  0  0  0  0  0  0  0  0
  134.7064   74.6385  220.3552 H   0  0  0  0  0  0  0  0  0  0  0  0
  134.8210   72.8855  220.6973 H   0  0  0  0  0  0  0  0  0  0  0  0
  136.4790   74.4279  222.5062 H   0  0  0  0  0  0  0  0  0  0  0  0
  135.2342   76.2276  222.8317 H   0  0  0  0  0  0  0  0  0  0  0  0
  133.8183   75.5256  221.9896 H   0  0  0  0  0  0  0  0  0  0  0  0
  133.5684   75.9720  224.5096 H   0  0  0  0  0  0  0  0  0  0  0  0
  133.1405   74.3145  223.9186 H   0  0  0  0  0  0  0  0  0  0  0  0
  135.7395   75.1616  225.2410 H   0  0  0  0  0  0  0  0  0  0  0  0
  134.3934   74.1592  225.9559 H   0  0  0  0  0  0  0  0  0  0  0  0
  136.5910   73.3290  224.5110 H   0  0  0  0  0  0  0  0  0  0  0  0
  135.6486   72.0868  222.7954 H   0  0  0  0  0  0  0  0  0  0  0  0
  134.0359   72.7739  223.1819 H   0  0  0  0  0  0  0  0  0  0  0  0
  138.9423   70.2165  221.6373 H   0  0  0  0  0  0  0  0  0  0  0  0
  140.4088   69.6610  222.4564 H   0  0  0  0  0  0  0  0  0  0  0  0
  137.6422   69.8158  223.8512 H   0  0  0  0  0  0  0  0  0  0  0  0
  138.2108   68.3358  223.0947 H   0  0  0  0  0  0  0  0  0  0  0  0
  139.0802   66.9184  224.8699 H   0  0  0  0  0  0  0  0  0  0  0  0
  140.5553   66.6142  226.8436 H   0  0  0  0  0  0  0  0  0  0  0  0
  141.7260   68.6019  227.8150 H   0  0  0  0  0  0  0  0  0  0  0  0
  141.4029   70.8096  226.8069 H   0  0  0  0  0  0  0  0  0  0  0  0
  139.0878   72.0429  225.2015 H   0  0  0  0  0  0  0  0  0  0  0  0
  140.8405   72.0632  224.7483 H   0  0  0  0  0  0  0  0  0  0  0  0
  140.0437   76.7734  223.2358 H   0  0  0  0  0  0  0  0  0  0  0  0
  141.7995   76.3232  223.3425 H   0  0  0  0  0  0  0  0  0  0  0  0
  1  2  2  0
  2  3  1  0
  3  4  2  0
  4  5  1  0
  5  6  2  0
  5  7  1  0
  7  8  1  0
  8  9  1  0
  9 10  1  0
 10 11  2  0
 11 12  1  0
 12 13  1  0
 13 14  1  0
 14 15  1  0
 15 16  1  0
 16 17  1  0
 17 18  1  0
 18 19  1  0
 19 20  1  0
 12 21  2  0
 21 22  1  0
 22 23  1  0
 23 24  1  0
 24 25  1  0
 25 26  1  0
 26 27  2  0
 27 28  1  0
 28 29  2  0
 29 30  1  0
 30 31  2  0
 31 32  1  0
 22 33  2  0
  9 34  1  0
  6  1  1  0
 33 10  1  0
 34  4  1  0
 20 15  1  0
 32 23  1  0
 31 26  1  0
  1 35  1  0
  2 36  1  0
  3 37  1  0
  6 38  1  0
  7 39  1  0
  7 40  1  0
  8 41  1  0
  8 42  1  0
 13 43  1  0
 14 44  1  0
 14 45  1  0
 15 46  1  6
 16 47  1  0
 16 48  1  0
 17 49  1  0
 17 50  1  0
 18 51  1  0
 18 52  1  0
 19 53  1  0
 20 54  1  0
 20 55  1  0
 24 56  1  0
 24 57  1  0
 25 58  1  0
 25 59  1  0
 27 60  1  0
 28 61  1  0
 29 62  1  0
 30 63  1  0
 32 64  1  0
 32 65  1  0
 34 66  1  0
 34 67  1  0
M  END
>  <smiles>  (70) 
c1ccc2c(c1)CCN(c1nc(NCC3CCCNC3)nc(N3CCc4ccccc4C3)n1)C2

>  <score_type>  (70) 
oracle

>  <origin>  (70) 
autodockgpu

>  <m_score__min__energy>  (70) 
-10.529999999999999

>  <m_primary>  (70) 
energy

>  <rmsd>  (70) 
7.180995812186736

>  <m_score__min__rmsd>  (70) 
7.180995812186736

>  <meeko>  (70) 
{"free_energy": -8.8, "intermolecular_energy": -10.29, "internal_energy": -1.29, "cluster_size": 2, "cluster_id": 3, "rank_in_cluster": 2}

>  <energy>  (70) 
-9.71

>  <cluster_rmsd>  (70) 
0.86

>  <cluster>  (70) 
1

$$$$

     RDKit          3D

 67 72  0  0  0  0  0  0  0  0999 V2000
  140.0610   67.7880  227.1440 C   0  0  0  0  0  0  0  0  0  0  0  0
  140.6320   68.8990  227.7540 C   0  0  0  0  0  0  0  0  0  0  0  0
  140.7280   70.1250  227.1110 C   0  0  0  0  0  0  0  0  0  0  0  0
  140.2220   70.2010  225.8160 C   0  0  0  0  0  0  0  0  0  0  0  0
  139.6550   69.1010  225.2100 C   0  0  0  0  0  0  0  0  0  0  0  0
  139.5630   67.8810  225.8560 C   0  0  0  0  0  0  0  0  0  0  0  0
  139.1000   69.1780  223.8110 C   0  0  0  0  0  0  0  0  0  0  0  0
  138.4910   70.5900  223.7170 C   0  0  0  0  0  0  0  0  0  0  0  0
  139.6570   71.4670  223.8210 N   0  0  0  0  0  0  0  0  0  0  0  0
  140.1020   72.2760  222.7230 C   0  0  0  0  0  0  0  0  0  0  0  0
  140.7400   71.7020  221.6620 N   0  0  0  0  0  0  0  0  0  0  0  0
  141.2040   72.4620  220.6260 C   0  0  0  0  0  0  0  0  0  0  0  0
  141.8390   71.8030  219.5420 N   0  0  0  0  0  0  0  0  0  0  0  0
  143.1510   71.2140  219.5960 C   0  0  0  0  0  0  0  0  0  0  0  0
  144.1760   72.3280  219.7830 C   0  0  1  0  0  0  0  0  0  0  0  0
  144.3130   72.7390  221.2120 C   0  0  0  0  0  0  0  0  0  0  0  0
  145.7760   72.9820  221.5090 C   0  0  0  0  0  0  0  0  0  0  0  0
  146.4340   73.7870  220.4130 C   0  0  0  0  0  0  0  0  0  0  0  0
  146.3230   73.1740  219.1160 N   0  0  0  0  0  0  0  0  0  0  0  0
  145.5140   71.9820  219.1930 C   0  0  0  0  0  0  0  0  0  0  0  0
  141.0200   73.8050  220.6660 N   0  0  0  0  0  0  0  0  0  0  0  0
  140.3870   74.3900  221.7140 C   0  0  0  0  0  0  0  0  0  0  0  0
  140.2380   75.7910  221.7140 N   0  0  0  0  0  0  0  0  0  0  0  0
  139.2110   76.3630  220.8510 C   0  0  0  0  0  0  0  0  0  0  0  0
  139.8980   77.5040  220.0860 C   0  0  0  0  0  0  0  0  0  0  0  0
  140.1370   78.5520  221.1400 C   0  0  0  0  0  0  0  0  0  0  0  0
  139.8090   79.8740  220.9440 C   0  0  0  0  0  0  0  0  0  0  0  0
  140.0470   80.8000  221.9340 C   0  0  0  0  0  0  0  0  0  0  0  0
  140.6220   80.3820  223.1280 C   0  0  0  0  0  0  0  0  0  0  0  0
  140.9370   79.0560  223.2890 C   0  0  0  0  0  0  0  0  0  0  0  0
  140.7140   78.0920  222.3220 C   0  0  0  0  0  0  0  0  0  0  0  0
  141.0640   76.6590  222.5290 C   0  0  0  0  0  0  0  0  0  0  0  0
  139.9420   73.6090  222.7200 N   0  0  0  0  0  0  0  0  0  0  0  0
  140.3210   71.4960  225.1140 C   0  0  0  0  0  0  0  0  0  0  0  0
  140.0048   66.8326  227.6863 H   0  0  0  0  0  0  0  0  0  0  0  0
  141.0200   68.8033  228.7788 H   0  0  0  0  0  0  0  0  0  0  0  0
  141.1833   70.9975  227.6022 H   0  0  0  0  0  0  0  0  0  0  0  0
  139.1076   67.0108  225.3607 H   0  0  0  0  0  0  0  0  0  0  0  0
  139.9001   69.0490  223.0673 H   0  0  0  0  0  0  0  0  0  0  0  0
  138.3610   68.3886  223.6093 H   0  0  0  0  0  0  0  0  0  0  0  0
  137.9746   70.7333  222.7564 H   0  0  0  0  0  0  0  0  0  0  0  0
  137.7351   70.7852  224.4919 H   0  0  0  0  0  0  0  0  0  0  0  0
  141.2670   71.7660  218.6430 H   0  0  0  0  0  0  0  0  0  0  0  0
  143.2079   70.5121  220.4411 H   0  0  0  0  0  0  0  0  0  0  0  0
  143.3562   70.6664  218.6643 H   0  0  0  0  0  0  0  0  0  0  0  0
  143.7849   73.1922  219.2260 H   0  0  0  0  0  0  0  0  0  0  0  0
  143.7413   73.6622  221.3880 H   0  0  0  0  0  0  0  0  0  0  0  0
  143.9240   71.9468  221.8686 H   0  0  0  0  0  0  0  0  0  0  0  0
  145.8622   73.5317  222.4579 H   0  0  0  0  0  0  0  0  0  0  0  0
  146.2826   72.0078  221.5752 H   0  0  0  0  0  0  0  0  0  0  0  0
  145.9584   74.7781  220.3733 H   0  0  0  0  0  0  0  0  0  0  0  0
  147.5054   73.8526  220.6533 H   0  0  0  0  0  0  0  0  0  0  0  0
  145.8430   73.8210  218.4530 H   0  0  0  0  0  0  0  0  0  0  0  0
  145.3745   71.5666  218.1840 H   0  0  0  0  0  0  0  0  0  0  0  0
  146.0153   71.2364  219.8277 H   0  0  0  0  0  0  0  0  0  0  0  0
  138.8332   75.6043  220.1498 H   0  0  0  0  0  0  0  0  0  0  0  0
  138.3491   76.7247  221.4309 H   0  0  0  0  0  0  0  0  0  0  0  0
  140.8484   77.1652  219.6479 H   0  0  0  0  0  0  0  0  0  0  0  0
  139.2936   77.8765  219.2458 H   0  0  0  0  0  0  0  0  0  0  0  0
  139.3554   80.1915  219.9935 H   0  0  0  0  0  0  0  0  0  0  0  0
  139.7854   81.8576  221.7820 H   0  0  0  0  0  0  0  0  0  0  0  0
  140.8220   81.1042  223.9333 H   0  0  0  0  0  0  0  0  0  0  0  0
  141.3922   78.7421  224.2399 H   0  0  0  0  0  0  0  0  0  0  0  0
  142.1194   76.5056  222.2595 H   0  0  0  0  0  0  0  0  0  0  0  0
  140.8914   76.4092  223.5863 H   0  0  0  0  0  0  0  0  0  0  0  0
  141.3834   71.7373  224.9623 H   0  0  0  0  0  0  0  0  0  0  0  0
  139.8245   72.2572  225.7338 H   0  0  0  0  0  0  0  0  0  0  0  0
  1  2  2  0
  2  3  1  0
  3  4  2  0
  4  5  1  0
  5  6  2  0
  5  7  1  0
  7  8  1  0
  8  9  1  0
  9 10  1  0
 10 11  2  0
 11 12  1  0
 12 13  1  0
 13 14  1  0
 14 15  1  0
 15 16  1  0
 16 17  1  0
 17 18  1  0
 18 19  1  0
 19 20  1  0
 12 21  2  0
 21 22  1  0
 22 23  1  0
 23 24  1  0
 24 25  1  0
 25 26  1  0
 26 27  2  0
 27 28  1  0
 28 29  2  0
 29 30  1  0
 30 31  2  0
 31 32  1  0
 22 33  2  0
  9 34  1  0
  6  1  1  0
 33 10  1  0
 34  4  1  0
 20 15  1  0
 32 23  1  0
 31 26  1  0
  1 35  1  0
  2 36  1  0
  3 37  1  0
  6 38  1  0
  7 39  1  0
  7 40  1  0
  8 41  1  0
  8 42  1  0
 13 43  1  0
 14 44  1  0
 14 45  1  0
 15 46  1  6
 16 47  1  0
 16 48  1  0
 17 49  1  0
 17 50  1  0
 18 51  1  0
 18 52  1  0
 19 53  1  0
 20 54  1  0
 20 55  1  0
 24 56  1  0
 24 57  1  0
 25 58  1  0
 25 59  1  0
 27 60  1  0
 28 61  1  0
 29 62  1  0
 30 63  1  0
 32 64  1  0
 32 65  1  0
 34 66  1  0
 34 67  1  0
M  END
>  <smiles>  (71) 
c1ccc2c(c1)CCN(c1nc(NCC3CCCNC3)nc(N3CCc4ccccc4C3)n1)C2

>  <score_type>  (71) 
oracle

>  <origin>  (71) 
autodockgpu

>  <m_score__min__energy>  (71) 
-10.529999999999999

>  <m_primary>  (71) 
energy

>  <rmsd>  (71) 
6.51751021973581

>  <m_score__min__rmsd>  (71) 
6.51751021973581

>  <meeko>  (71) 
{"free_energy": -10.1, "intermolecular_energy": -11.59, "internal_energy": -1.05, "cluster_size": 44, "cluster_id": 1, "rank_in_cluster": 10}

>  <energy>  (71) 
-9.71

>  <cluster_rmsd>  (71) 
1.08

>  <cluster>  (71) 
1

$$$$

     RDKit          3D

 67 72  0  0  0  0  0  0  0  0999 V2000
  139.8840   67.9430  226.8160 C   0  0  0  0  0  0  0  0  0  0  0  0
  140.4880   69.0320  227.4360 C   0  0  0  0  0  0  0  0  0  0  0  0
  140.6510   70.2490  226.7890 C   0  0  0  0  0  0  0  0  0  0  0  0
  140.1810   70.3400  225.4820 C   0  0  0  0  0  0  0  0  0  0  0  0
  139.5820   69.2620  224.8680 C   0  0  0  0  0  0  0  0  0  0  0  0
  139.4220   68.0500  225.5170 C   0  0  0  0  0  0  0  0  0  0  0  0
  139.0640   69.3550  223.4550 C   0  0  0  0  0  0  0  0  0  0  0  0
  138.5190   70.7910  223.3400 C   0  0  0  0  0  0  0  0  0  0  0  0
  139.7180   71.6180  223.4680 N   0  0  0  0  0  0  0  0  0  0  0  0
  140.2240   72.4010  222.3780 C   0  0  0  0  0  0  0  0  0  0  0  0
  140.7560   71.7880  221.2810 N   0  0  0  0  0  0  0  0  0  0  0  0
  141.2760   72.5180  220.2500 C   0  0  0  0  0  0  0  0  0  0  0  0
  141.7930   71.8210  219.1280 N   0  0  0  0  0  0  0  0  0  0  0  0
  143.1200   71.2680  219.0470 C   0  0  0  0  0  0  0  0  0  0  0  0
  144.1240   72.3620  219.3960 C   0  0  1  0  0  0  0  0  0  0  0  0
  144.1780   72.6370  220.8620 C   0  0  0  0  0  0  0  0  0  0  0  0
  145.6190   72.8550  221.2630 C   0  0  0  0  0  0  0  0  0  0  0  0
  146.3320   73.7610  220.2860 C   0  0  0  0  0  0  0  0  0  0  0  0
  146.2990   73.2720  218.9340 N   0  0  0  0  0  0  0  0  0  0  0  0
  145.4960   72.0770  218.8520 C   0  0  0  0  0  0  0  0  0  0  0  0
  141.2570   73.8720  220.3330 N   0  0  0  0  0  0  0  0  0  0  0  0
  140.7310   74.4960  221.4170 C   0  0  0  0  0  0  0  0  0  0  0  0
  140.7510   75.9040  221.4600 N   0  0  0  0  0  0  0  0  0  0  0  0
  140.4530   76.6240  220.2270 C   0  0  0  0  0  0  0  0  0  0  0  0
  141.5640   77.6740  220.0790 C   0  0  0  0  0  0  0  0  0  0  0  0
  141.2750   78.6630  221.1760 C   0  0  0  0  0  0  0  0  0  0  0  0
  141.2510   80.0200  220.9500 C   0  0  0  0  0  0  0  0  0  0  0  0
  140.9840   80.8890  221.9840 C   0  0  0  0  0  0  0  0  0  0  0  0
  140.7410   80.3770  223.2530 C   0  0  0  0  0  0  0  0  0  0  0  0
  140.7730   79.0190  223.4420 C   0  0  0  0  0  0  0  0  0  0  0  0
  141.0360   78.1090  222.4330 C   0  0  0  0  0  0  0  0  0  0  0  0
  141.0590   76.6390  222.6700 C   0  0  0  0  0  0  0  0  0  0  0  0
  140.2260   73.7430  222.4160 N   0  0  0  0  0  0  0  0  0  0  0  0
  140.3520   71.6260  224.7770 C   0  0  0  0  0  0  0  0  0  0  0  0
  139.7735   66.9938  227.3607 H   0  0  0  0  0  0  0  0  0  0  0  0
  140.8473   68.9254  228.4702 H   0  0  0  0  0  0  0  0  0  0  0  0
  141.1307   71.1043  227.2874 H   0  0  0  0  0  0  0  0  0  0  0  0
  138.9417   67.1974  225.0145 H   0  0  0  0  0  0  0  0  0  0  0  0
  139.8753   69.1875  222.7313 H   0  0  0  0  0  0  0  0  0  0  0  0
  138.2966   68.5970  223.2392 H   0  0  0  0  0  0  0  0  0  0  0  0
  138.0323   70.9508  222.3665 H   0  0  0  0  0  0  0  0  0  0  0  0
  137.7541   71.0226  224.0958 H   0  0  0  0  0  0  0  0  0  0  0  0
  141.1180   71.7260  218.3100 H   0  0  0  0  0  0  0  0  0  0  0  0
  143.2182   70.4342  219.7577 H   0  0  0  0  0  0  0  0  0  0  0  0
  143.3101   70.8933  218.0304 H   0  0  0  0  0  0  0  0  0  0  0  0
  143.7572   73.2738  218.9019 H   0  0  0  0  0  0  0  0  0  0  0  0
  143.5899   73.5379  221.0912 H   0  0  0  0  0  0  0  0  0  0  0  0
  143.7597   71.7851  221.4181 H   0  0  0  0  0  0  0  0  0  0  0  0
  145.6469   73.3137  222.2624 H   0  0  0  0  0  0  0  0  0  0  0  0
  146.1287   71.8802  221.2666 H   0  0  0  0  0  0  0  0  0  0  0  0
  145.8519   74.7504  220.3120 H   0  0  0  0  0  0  0  0  0  0  0  0
  147.3876   73.8065  220.5921 H   0  0  0  0  0  0  0  0  0  0  0  0
  145.8520   73.9780  218.3080 H   0  0  0  0  0  0  0  0  0  0  0  0
  145.4162   71.7593  217.8019 H   0  0  0  0  0  0  0  0  0  0  0  0
  145.9666   71.2757  219.4406 H   0  0  0  0  0  0  0  0  0  0  0  0
  140.4599   75.9351  219.3695 H   0  0  0  0  0  0  0  0  0  0  0  0
  139.4568   77.0893  220.2596 H   0  0  0  0  0  0  0  0  0  0  0  0
  142.5552   77.2170  220.2151 H   0  0  0  0  0  0  0  0  0  0  0  0
  141.5790   78.1384  219.0819 H   0  0  0  0  0  0  0  0  0  0  0  0
  141.4457   80.4116  219.9407 H   0  0  0  0  0  0  0  0  0  0  0  0
  140.9633   81.9746  221.8080 H   0  0  0  0  0  0  0  0  0  0  0  0
  140.5259   81.0519  224.0945 H   0  0  0  0  0  0  0  0  0  0  0  0
  140.5786   78.6311  224.4528 H   0  0  0  0  0  0  0  0  0  0  0  0
  142.0605   76.3485  223.0202 H   0  0  0  0  0  0  0  0  0  0  0  0
  140.2965   76.3979  223.4253 H   0  0  0  0  0  0  0  0  0  0  0  0
  141.4271   71.8211  224.6498 H   0  0  0  0  0  0  0  0  0  0  0  0
  139.8741   72.4111  225.3813 H   0  0  0  0  0  0  0  0  0  0  0  0
  1  2  2  0
  2  3  1  0
  3  4  2  0
  4  5  1  0
  5  6  2  0
  5  7  1  0
  7  8  1  0
  8  9  1  0
  9 10  1  0
 10 11  2  0
 11 12  1  0
 12 13  1  0
 13 14  1  0
 14 15  1  0
 15 16  1  0
 16 17  1  0
 17 18  1  0
 18 19  1  0
 19 20  1  0
 12 21  2  0
 21 22  1  0
 22 23  1  0
 23 24  1  0
 24 25  1  0
 25 26  1  0
 26 27  2  0
 27 28  1  0
 28 29  2  0
 29 30  1  0
 30 31  2  0
 31 32  1  0
 22 33  2  0
  9 34  1  0
  6  1  1  0
 33 10  1  0
 34  4  1  0
 20 15  1  0
 32 23  1  0
 31 26  1  0
  1 35  1  0
  2 36  1  0
  3 37  1  0
  6 38  1  0
  7 39  1  0
  7 40  1  0
  8 41  1  0
  8 42  1  0
 13 43  1  0
 14 44  1  0
 14 45  1  0
 15 46  1  6
 16 47  1  0
 16 48  1  0
 17 49  1  0
 17 50  1  0
 18 51  1  0
 18 52  1  0
 19 53  1  0
 20 54  1  0
 20 55  1  0
 24 56  1  0
 24 57  1  0
 25 58  1  0
 25 59  1  0
 27 60  1  0
 28 61  1  0
 29 62  1  0
 30 63  1  0
 32 64  1  0
 32 65  1  0
 34 66  1  0
 34 67  1  0
M  END
>  <smiles>  (72) 
c1ccc2c(c1)CCN(c1nc(NCC3CCCNC3)nc(N3CCc4ccccc4C3)n1)C2

>  <score_type>  (72) 
oracle

>  <origin>  (72) 
autodockgpu

>  <m_score__min__energy>  (72) 
-10.529999999999999

>  <m_primary>  (72) 
energy

>  <rmsd>  (72) 
6.439081439437762

>  <m_score__min__rmsd>  (72) 
6.439081439437762

>  <meeko>  (72) 
{"free_energy": -10.38, "intermolecular_energy": -11.88, "internal_energy": -1.03, "cluster_size": 44, "cluster_id": 1, "rank_in_cluster": 5}

>  <energy>  (72) 
-9.67

>  <cluster_rmsd>  (72) 
1.14

>  <cluster>  (72) 
1

$$$$

     RDKit          3D

 67 72  0  0  0  0  0  0  0  0999 V2000
  139.9540   68.1800  227.0790 C   0  0  0  0  0  0  0  0  0  0  0  0
  140.5480   69.3070  227.6380 C   0  0  0  0  0  0  0  0  0  0  0  0
  140.7220   70.4810  226.9190 C   0  0  0  0  0  0  0  0  0  0  0  0
  140.2720   70.4890  225.6020 C   0  0  0  0  0  0  0  0  0  0  0  0
  139.6830   69.3730  225.0470 C   0  0  0  0  0  0  0  0  0  0  0  0
  139.5130   68.2050  225.7680 C   0  0  0  0  0  0  0  0  0  0  0  0
  139.1880   69.3770  223.6240 C   0  0  0  0  0  0  0  0  0  0  0  0
  138.6440   70.8020  223.4090 C   0  0  0  0  0  0  0  0  0  0  0  0
  139.8410   71.6370  223.5040 N   0  0  0  0  0  0  0  0  0  0  0  0
  140.3640   72.3510  222.3750 C   0  0  0  0  0  0  0  0  0  0  0  0
  140.8620   71.6680  221.3030 N   0  0  0  0  0  0  0  0  0  0  0  0
  141.3990   72.3310  220.2350 C   0  0  0  0  0  0  0  0  0  0  0  0
  141.8790   71.5660  219.1420 N   0  0  0  0  0  0  0  0  0  0  0  0
  143.2370   71.1120  218.9940 C   0  0  0  0  0  0  0  0  0  0  0  0
  144.1750   72.2530  219.3750 C   0  0  1  0  0  0  0  0  0  0  0  0
  144.2680   72.4430  220.8530 C   0  0  0  0  0  0  0  0  0  0  0  0
  145.7050   72.7410  221.2150 C   0  0  0  0  0  0  0  0  0  0  0  0
  146.3130   73.7540  220.2720 C   0  0  0  0  0  0  0  0  0  0  0  0
  146.2600   73.3460  218.8940 N   0  0  0  0  0  0  0  0  0  0  0  0
  145.5400   72.1020  218.7660 C   0  0  0  0  0  0  0  0  0  0  0  0
  141.4290   73.6870  220.2560 N   0  0  0  0  0  0  0  0  0  0  0  0
  140.9360   74.3790  221.3140 C   0  0  0  0  0  0  0  0  0  0  0  0
  141.0080   75.7860  221.2910 N   0  0  0  0  0  0  0  0  0  0  0  0
  141.0360   76.4420  219.9890 C   0  0  0  0  0  0  0  0  0  0  0  0
  142.1960   77.4470  220.0540 C   0  0  0  0  0  0  0  0  0  0  0  0
  141.7030   78.5060  221.0040 C   0  0  0  0  0  0  0  0  0  0  0  0
  141.7920   79.8480  220.7120 C   0  0  0  0  0  0  0  0  0  0  0  0
  141.3300   80.7830  221.6120 C   0  0  0  0  0  0  0  0  0  0  0  0
  140.7780   80.3530  222.8110 C   0  0  0  0  0  0  0  0  0  0  0  0
  140.7050   79.0080  223.0690 C   0  0  0  0  0  0  0  0  0  0  0  0
  141.1550   78.0340  222.1950 C   0  0  0  0  0  0  0  0  0  0  0  0
  141.0580   76.5790  222.5030 C   0  0  0  0  0  0  0  0  0  0  0  0
  140.4140   73.6910  222.3510 N   0  0  0  0  0  0  0  0  0  0  0  0
  140.4540   71.7280  224.8190 C   0  0  0  0  0  0  0  0  0  0  0  0
  139.8347   67.2670  227.6808 H   0  0  0  0  0  0  0  0  0  0  0  0
  140.8904   69.2662  228.6825 H   0  0  0  0  0  0  0  0  0  0  0  0
  141.1946   71.3661  227.3699 H   0  0  0  0  0  0  0  0  0  0  0  0
  139.0411   67.3220  225.3124 H   0  0  0  0  0  0  0  0  0  0  0  0
  140.0110   69.1655  222.9254 H   0  0  0  0  0  0  0  0  0  0  0  0
  138.4241   68.6061  223.4446 H   0  0  0  0  0  0  0  0  0  0  0  0
  138.1734   70.8990  222.4195 H   0  0  0  0  0  0  0  0  0  0  0  0
  137.8664   71.0801  224.1356 H   0  0  0  0  0  0  0  0  0  0  0  0
  141.1490   71.3340  218.4020 H   0  0  0  0  0  0  0  0  0  0  0  0
  143.4139   70.2504  219.6545 H   0  0  0  0  0  0  0  0  0  0  0  0
  143.4200   70.8062  217.9533 H   0  0  0  0  0  0  0  0  0  0  0  0
  143.7255   73.1637  218.9523 H   0  0  0  0  0  0  0  0  0  0  0  0
  143.6275   73.2833  221.1590 H   0  0  0  0  0  0  0  0  0  0  0  0
  143.9333   71.5312  221.3694 H   0  0  0  0  0  0  0  0  0  0  0  0
  145.7406   73.1395  222.2397 H   0  0  0  0  0  0  0  0  0  0  0  0
  146.2818   71.8075  221.1388 H   0  0  0  0  0  0  0  0  0  0  0  0
  145.7661   74.7026  220.3774 H   0  0  0  0  0  0  0  0  0  0  0  0
  147.3742   73.8577  220.5424 H   0  0  0  0  0  0  0  0  0  0  0  0
  145.7390   74.0530  218.3290 H   0  0  0  0  0  0  0  0  0  0  0  0
  145.4408   71.8428  217.7016 H   0  0  0  0  0  0  0  0  0  0  0  0
  146.0891   71.3034  219.2863 H   0  0  0  0  0  0  0  0  0  0  0  0
  141.2117   75.7047  219.1919 H   0  0  0  0  0  0  0  0  0  0  0  0
  140.0807   76.9390  219.7645 H   0  0  0  0  0  0  0  0  0  0  0  0
  143.1078   76.9681  220.4403 H   0  0  0  0  0  0  0  0  0  0  0  0
  142.4624   77.8526  219.0668 H   0  0  0  0  0  0  0  0  0  0  0  0
  142.2327   80.1745  219.7585 H   0  0  0  0  0  0  0  0  0  0  0  0
  141.3976   81.8569  221.3835 H   0  0  0  0  0  0  0  0  0  0  0  0
  140.4038   81.0819  223.5449 H   0  0  0  0  0  0  0  0  0  0  0  0
  140.2642   78.6855  224.0238 H   0  0  0  0  0  0  0  0  0  0  0  0
  141.9370   76.2781  223.0920 H   0  0  0  0  0  0  0  0  0  0  0  0
  140.1314   76.4053  223.0698 H   0  0  0  0  0  0  0  0  0  0  0  0
  141.5309   71.9155  224.6964 H   0  0  0  0  0  0  0  0  0  0  0  0
  139.9663   72.5492  225.3648 H   0  0  0  0  0  0  0  0  0  0  0  0
  1  2  2  0
  2  3  1  0
  3  4  2  0
  4  5  1  0
  5  6  2  0
  5  7  1  0
  7  8  1  0
  8  9  1  0
  9 10  1  0
 10 11  2  0
 11 12  1  0
 12 13  1  0
 13 14  1  0
 14 15  1  0
 15 16  1  0
 16 17  1  0
 17 18  1  0
 18 19  1  0
 19 20  1  0
 12 21  2  0
 21 22  1  0
 22 23  1  0
 23 24  1  0
 24 25  1  0
 25 26  1  0
 26 27  2  0
 27 28  1  0
 28 29  2  0
 29 30  1  0
 30 31  2  0
 31 32  1  0
 22 33  2  0
  9 34  1  0
  6  1  1  0
 33 10  1  0
 34  4  1  0
 20 15  1  0
 32 23  1  0
 31 26  1  0
  1 35  1  0
  2 36  1  0
  3 37  1  0
  6 38  1  0
  7 39  1  0
  7 40  1  0
  8 41  1  0
  8 42  1  0
 13 43  1  0
 14 44  1  0
 14 45  1  0
 15 46  1  6
 16 47  1  0
 16 48  1  0
 17 49  1  0
 17 50  1  0
 18 51  1  0
 18 52  1  0
 19 53  1  0
 20 54  1  0
 20 55  1  0
 24 56  1  0
 24 57  1  0
 25 58  1  0
 25 59  1  0
 27 60  1  0
 28 61  1  0
 29 62  1  0
 30 63  1  0
 32 64  1  0
 32 65  1  0
 34 66  1  0
 34 67  1  0
M  END
>  <smiles>  (73) 
c1ccc2c(c1)CCN(c1nc(NCC3CCCNC3)nc(N3CCc4ccccc4C3)n1)C2

>  <score_type>  (73) 
oracle

>  <origin>  (73) 
autodockgpu

>  <m_score__min__energy>  (73) 
-10.529999999999999

>  <m_primary>  (73) 
energy

>  <rmsd>  (73) 
6.536312413187314

>  <m_score__min__rmsd>  (73) 
6.536312413187314

>  <meeko>  (73) 
{"free_energy": -10.46, "intermolecular_energy": -11.95, "internal_energy": -1.05, "cluster_size": 44, "cluster_id": 1, "rank_in_cluster": 3}

>  <energy>  (73) 
-9.63

>  <cluster_rmsd>  (73) 
0.85

>  <cluster>  (73) 
1

$$$$

     RDKit          3D

 67 72  0  0  0  0  0  0  0  0999 V2000
  140.0210   68.0090  226.5900 C   0  0  0  0  0  0  0  0  0  0  0  0
  140.6550   69.0770  227.2160 C   0  0  0  0  0  0  0  0  0  0  0  0
  140.8130   70.3070  226.5950 C   0  0  0  0  0  0  0  0  0  0  0  0
  140.3040   70.4340  225.3050 C   0  0  0  0  0  0  0  0  0  0  0  0
  139.6750   69.3770  224.6840 C   0  0  0  0  0  0  0  0  0  0  0  0
  139.5210   68.1520  225.3080 C   0  0  0  0  0  0  0  0  0  0  0  0
  139.1160   69.5090  223.2900 C   0  0  0  0  0  0  0  0  0  0  0  0
  138.5830   70.9530  223.2250 C   0  0  0  0  0  0  0  0  0  0  0  0
  139.7950   71.7650  223.3370 N   0  0  0  0  0  0  0  0  0  0  0  0
  140.2760   72.5690  222.2510 C   0  0  0  0  0  0  0  0  0  0  0  0
  140.7330   71.9770  221.1090 N   0  0  0  0  0  0  0  0  0  0  0  0
  141.2300   72.7250  220.0790 C   0  0  0  0  0  0  0  0  0  0  0  0
  141.6690   72.0520  218.9100 N   0  0  0  0  0  0  0  0  0  0  0  0
  142.6460   72.5660  217.9870 C   0  0  0  0  0  0  0  0  0  0  0  0
  143.9080   72.9250  218.7650 C   0  0  1  0  0  0  0  0  0  0  0  0
  143.9930   74.3850  219.0660 C   0  0  0  0  0  0  0  0  0  0  0  0
  144.5230   74.5600  220.4720 C   0  0  0  0  0  0  0  0  0  0  0  0
  145.7030   73.6530  220.7330 C   0  0  0  0  0  0  0  0  0  0  0  0
  145.4050   72.2620  220.5240 N   0  0  0  0  0  0  0  0  0  0  0  0
  144.0630   72.1080  220.0170 C   0  0  0  0  0  0  0  0  0  0  0  0
  141.2630   74.0750  220.2080 N   0  0  0  0  0  0  0  0  0  0  0  0
  140.8110   74.6780  221.3370 C   0  0  0  0  0  0  0  0  0  0  0  0
  140.8840   76.0820  221.4260 N   0  0  0  0  0  0  0  0  0  0  0  0
  140.7670   76.8460  220.1900 C   0  0  0  0  0  0  0  0  0  0  0  0
  141.9300   77.8500  220.2090 C   0  0  0  0  0  0  0  0  0  0  0  0
  141.5490   78.8210  221.2950 C   0  0  0  0  0  0  0  0  0  0  0  0
  141.6090   80.1840  221.1100 C   0  0  0  0  0  0  0  0  0  0  0  0
  141.2540   81.0360  222.1320 C   0  0  0  0  0  0  0  0  0  0  0  0
  140.8380   80.5020  223.3450 C   0  0  0  0  0  0  0  0  0  0  0  0
  140.7910   79.1390  223.4940 C   0  0  0  0  0  0  0  0  0  0  0  0
  141.1370   78.2460  222.4960 C   0  0  0  0  0  0  0  0  0  0  0  0
  141.0720   76.7700  222.6870 C   0  0  0  0  0  0  0  0  0  0  0  0
  140.3270   73.9070  222.3340 N   0  0  0  0  0  0  0  0  0  0  0  0
  140.4680   71.7350  224.6250 C   0  0  0  0  0  0  0  0  0  0  0  0
  139.9169   67.0483  227.1155 H   0  0  0  0  0  0  0  0  0  0  0  0
  141.0435   68.9418  228.2362 H   0  0  0  0  0  0  0  0  0  0  0  0
  141.3177   71.1446  227.0988 H   0  0  0  0  0  0  0  0  0  0  0  0
  139.0163   67.3169  224.8002 H   0  0  0  0  0  0  0  0  0  0  0  0
  139.9035   69.3507  222.5384 H   0  0  0  0  0  0  0  0  0  0  0  0
  138.3344   68.7641  223.0798 H   0  0  0  0  0  0  0  0  0  0  0  0
  138.0697   71.1409  222.2704 H   0  0  0  0  0  0  0  0  0  0  0  0
  137.8430   71.1742  224.0083 H   0  0  0  0  0  0  0  0  0  0  0  0
  141.2160   71.1020  218.7440 H   0  0  0  0  0  0  0  0  0  0  0  0
  142.8809   71.8013  217.2320 H   0  0  0  0  0  0  0  0  0  0  0  0
  142.2507   73.4581  217.4792 H   0  0  0  0  0  0  0  0  0  0  0  0
  144.7500   72.6740  218.1031 H   0  0  0  0  0  0  0  0  0  0  0  0
  144.6727   74.8715  218.3509 H   0  0  0  0  0  0  0  0  0  0  0  0
  142.9969   74.8439  218.9810 H   0  0  0  0  0  0  0  0  0  0  0  0
  144.8378   75.6051  220.6084 H   0  0  0  0  0  0  0  0  0  0  0  0
  143.7220   74.2983  221.1791 H   0  0  0  0  0  0  0  0  0  0  0  0
  146.5215   73.9407  220.0567 H   0  0  0  0  0  0  0  0  0  0  0  0
  145.9798   73.7728  221.7908 H   0  0  0  0  0  0  0  0  0  0  0  0
  146.0460   71.8610  219.8040 H   0  0  0  0  0  0  0  0  0  0  0  0
  143.8755   71.0482  219.7897 H   0  0  0  0  0  0  0  0  0  0  0  0
  143.3418   72.4520  220.7730 H   0  0  0  0  0  0  0  0  0  0  0  0
  140.8496   76.1801  219.3184 H   0  0  0  0  0  0  0  0  0  0  0  0
  139.7939   77.3538  220.1176 H   0  0  0  0  0  0  0  0  0  0  0  0
  142.8783   77.3466  220.4485 H   0  0  0  0  0  0  0  0  0  0  0  0
  142.0852   78.3394  219.2362 H   0  0  0  0  0  0  0  0  0  0  0  0
  141.9410   80.5930  220.1444 H   0  0  0  0  0  0  0  0  0  0  0  0
  141.2993   82.1258  221.9896 H   0  0  0  0  0  0  0  0  0  0  0  0
  140.5500   81.1634  224.1754 H   0  0  0  0  0  0  0  0  0  0  0  0
  140.4596   78.7336  224.4614 H   0  0  0  0  0  0  0  0  0  0  0  0
  142.0111   76.4267  223.1456 H   0  0  0  0  0  0  0  0  0  0  0  0
  140.2143   76.5423  223.3370 H   0  0  0  0  0  0  0  0  0  0  0  0
  141.5408   71.9217  224.4695 H   0  0  0  0  0  0  0  0  0  0  0  0
  140.0173   72.5104  225.2619 H   0  0  0  0  0  0  0  0  0  0  0  0
  1  2  2  0
  2  3  1  0
  3  4  2  0
  4  5  1  0
  5  6  2  0
  5  7  1  0
  7  8  1  0
  8  9  1  0
  9 10  1  0
 10 11  2  0
 11 12  1  0
 12 13  1  0
 13 14  1  0
 14 15  1  0
 15 16  1  0
 16 17  1  0
 17 18  1  0
 18 19  1  0
 19 20  1  0
 12 21  2  0
 21 22  1  0
 22 23  1  0
 23 24  1  0
 24 25  1  0
 25 26  1  0
 26 27  2  0
 27 28  1  0
 28 29  2  0
 29 30  1  0
 30 31  2  0
 31 32  1  0
 22 33  2  0
  9 34  1  0
  6  1  1  0
 33 10  1  0
 34  4  1  0
 20 15  1  0
 32 23  1  0
 31 26  1  0
  1 35  1  0
  2 36  1  0
  3 37  1  0
  6 38  1  0
  7 39  1  0
  7 40  1  0
  8 41  1  0
  8 42  1  0
 13 43  1  0
 14 44  1  0
 14 45  1  0
 15 46  1  6
 16 47  1  0
 16 48  1  0
 17 49  1  0
 17 50  1  0
 18 51  1  0
 18 52  1  0
 19 53  1  0
 20 54  1  0
 20 55  1  0
 24 56  1  0
 24 57  1  0
 25 58  1  0
 25 59  1  0
 27 60  1  0
 28 61  1  0
 29 62  1  0
 30 63  1  0
 32 64  1  0
 32 65  1  0
 34 66  1  0
 34 67  1  0
M  END
>  <smiles>  (74) 
c1ccc2c(c1)CCN(c1nc(NCC3CCCNC3)nc(N3CCc4ccccc4C3)n1)C2

>  <score_type>  (74) 
oracle

>  <origin>  (74) 
autodockgpu

>  <m_score__min__energy>  (74) 
-10.529999999999999

>  <m_primary>  (74) 
energy

>  <rmsd>  (74) 
5.5759978943473785

>  <m_score__min__rmsd>  (74) 
5.5759978943473785

>  <meeko>  (74) 
{"free_energy": -9.38, "intermolecular_energy": -10.87, "internal_energy": -1.27, "cluster_size": 44, "cluster_id": 1, "rank_in_cluster": 41}

>  <energy>  (74) 
-9.62

>  <cluster_rmsd>  (74) 
0.85

>  <cluster>  (74) 
1

$$$$

     RDKit          3D

 67 72  0  0  0  0  0  0  0  0999 V2000
  139.8170   67.9590  226.4970 C   0  0  0  0  0  0  0  0  0  0  0  0
  140.5020   68.9820  227.1430 C   0  0  0  0  0  0  0  0  0  0  0  0
  140.7120   70.2170  226.5460 C   0  0  0  0  0  0  0  0  0  0  0  0
  140.2050   70.3950  225.2620 C   0  0  0  0  0  0  0  0  0  0  0  0
  139.5260   69.3810  224.6220 C   0  0  0  0  0  0  0  0  0  0  0  0
  139.3190   68.1520  225.2210 C   0  0  0  0  0  0  0  0  0  0  0  0
  138.9680   69.5690  223.2340 C   0  0  0  0  0  0  0  0  0  0  0  0
  138.5010   71.0370  223.2030 C   0  0  0  0  0  0  0  0  0  0  0  0
  139.7500   71.7890  223.3250 N   0  0  0  0  0  0  0  0  0  0  0  0
  140.2630   72.5940  222.2540 C   0  0  0  0  0  0  0  0  0  0  0  0
  140.7520   72.0020  221.1260 N   0  0  0  0  0  0  0  0  0  0  0  0
  141.2790   72.7500  220.1110 C   0  0  0  0  0  0  0  0  0  0  0  0
  141.7510   72.0780  218.9550 N   0  0  0  0  0  0  0  0  0  0  0  0
  142.5770   72.6750  217.9390 C   0  0  0  0  0  0  0  0  0  0  0  0
  143.9490   72.9680  218.5400 C   0  0  1  0  0  0  0  0  0  0  0  0
  143.9970   74.2940  219.2240 C   0  0  0  0  0  0  0  0  0  0  0  0
  144.8010   74.1540  220.4970 C   0  0  0  0  0  0  0  0  0  0  0  0
  146.0680   73.3640  220.2650 C   0  0  0  0  0  0  0  0  0  0  0  0
  145.8260   72.0520  219.7270 N   0  0  0  0  0  0  0  0  0  0  0  0
  144.4210   71.8730  219.4550 C   0  0  0  0  0  0  0  0  0  0  0  0
  141.3100   74.1000  220.2430 N   0  0  0  0  0  0  0  0  0  0  0  0
  140.8260   74.7030  221.3580 C   0  0  0  0  0  0  0  0  0  0  0  0
  140.8980   76.1070  221.4510 N   0  0  0  0  0  0  0  0  0  0  0  0
  140.8000   76.8730  220.2140 C   0  0  0  0  0  0  0  0  0  0  0  0
  141.9620   77.8770  220.2530 C   0  0  0  0  0  0  0  0  0  0  0  0
  141.5660   78.8460  221.3330 C   0  0  0  0  0  0  0  0  0  0  0  0
  141.6290   80.2090  221.1520 C   0  0  0  0  0  0  0  0  0  0  0  0
  141.2580   81.0590  222.1690 C   0  0  0  0  0  0  0  0  0  0  0  0
  140.8230   80.5240  223.3750 C   0  0  0  0  0  0  0  0  0  0  0  0
  140.7740   79.1610  223.5210 C   0  0  0  0  0  0  0  0  0  0  0  0
  141.1350   78.2690  222.5270 C   0  0  0  0  0  0  0  0  0  0  0  0
  141.0660   76.7930  222.7150 C   0  0  0  0  0  0  0  0  0  0  0  0
  140.3130   73.9320  222.3400 N   0  0  0  0  0  0  0  0  0  0  0  0
  140.4250   71.7010  224.6100 C   0  0  0  0  0  0  0  0  0  0  0  0
  139.6706   66.9929  227.0023 H   0  0  0  0  0  0  0  0  0  0  0  0
  140.8891   68.8072  228.1577 H   0  0  0  0  0  0  0  0  0  0  0  0
  141.2555   71.0203  227.0649 H   0  0  0  0  0  0  0  0  0  0  0  0
  138.7746   67.3517  224.6984 H   0  0  0  0  0  0  0  0  0  0  0  0
  139.7444   69.3916  222.4752 H   0  0  0  0  0  0  0  0  0  0  0  0
  138.1524   68.8652  223.0116 H   0  0  0  0  0  0  0  0  0  0  0  0
  137.9921   71.2689  222.2558 H   0  0  0  0  0  0  0  0  0  0  0  0
  137.7755   71.2752  223.9948 H   0  0  0  0  0  0  0  0  0  0  0  0
  141.4460   71.0600  218.8740 H   0  0  0  0  0  0  0  0  0  0  0  0
  142.6834   71.9809  217.0923 H   0  0  0  0  0  0  0  0  0  0  0  0
  142.1167   73.6069  217.5788 H   0  0  0  0  0  0  0  0  0  0  0  0
  144.6466   73.0087  217.6904 H   0  0  0  0  0  0  0  0  0  0  0  0
  144.4741   75.0337  218.5643 H   0  0  0  0  0  0  0  0  0  0  0  0
  142.9769   74.6311  219.4601 H   0  0  0  0  0  0  0  0  0  0  0  0
  145.0664   75.1562  220.8647 H   0  0  0  0  0  0  0  0  0  0  0  0
  144.1884   73.6166  221.2359 H   0  0  0  0  0  0  0  0  0  0  0  0
  146.7026   73.9199  219.5591 H   0  0  0  0  0  0  0  0  0  0  0  0
  146.5553   73.2323  221.2424 H   0  0  0  0  0  0  0  0  0  0  0  0
  146.3250   71.9400  218.8170 H   0  0  0  0  0  0  0  0  0  0  0  0
  144.2614   70.8971  218.9732 H   0  0  0  0  0  0  0  0  0  0  0  0
  143.8553   71.9109  220.3976 H   0  0  0  0  0  0  0  0  0  0  0  0
  140.8966   76.2084  219.3428 H   0  0  0  0  0  0  0  0  0  0  0  0
  139.8280   77.3805  220.1269 H   0  0  0  0  0  0  0  0  0  0  0  0
  142.9064   77.3731  220.5063 H   0  0  0  0  0  0  0  0  0  0  0  0
  142.1313   78.3681  219.2834 H   0  0  0  0  0  0  0  0  0  0  0  0
  141.9766   80.6198  220.1926 H   0  0  0  0  0  0  0  0  0  0  0  0
  141.3054   82.1490  222.0285 H   0  0  0  0  0  0  0  0  0  0  0  0
  140.5220   81.1844  224.2016 H   0  0  0  0  0  0  0  0  0  0  0  0
  140.4282   78.7542  224.4827 H   0  0  0  0  0  0  0  0  0  0  0  0
  141.9973   76.4485  223.1882 H   0  0  0  0  0  0  0  0  0  0  0  0
  140.1978   76.5651  223.3508 H   0  0  0  0  0  0  0  0  0  0  0  0
  141.5047   71.8429  224.4544 H   0  0  0  0  0  0  0  0  0  0  0  0
  140.0114   72.4818  225.2652 H   0  0  0  0  0  0  0  0  0  0  0  0
  1  2  2  0
  2  3  1  0
  3  4  2  0
  4  5  1  0
  5  6  2  0
  5  7  1  0
  7  8  1  0
  8  9  1  0
  9 10  1  0
 10 11  2  0
 11 12  1  0
 12 13  1  0
 13 14  1  0
 14 15  1  0
 15 16  1  0
 16 17  1  0
 17 18  1  0
 18 19  1  0
 19 20  1  0
 12 21  2  0
 21 22  1  0
 22 23  1  0
 23 24  1  0
 24 25  1  0
 25 26  1  0
 26 27  2  0
 27 28  1  0
 28 29  2  0
 29 30  1  0
 30 31  2  0
 31 32  1  0
 22 33  2  0
  9 34  1  0
  6  1  1  0
 33 10  1  0
 34  4  1  0
 20 15  1  0
 32 23  1  0
 31 26  1  0
  1 35  1  0
  2 36  1  0
  3 37  1  0
  6 38  1  0
  7 39  1  0
  7 40  1  0
  8 41  1  0
  8 42  1  0
 13 43  1  0
 14 44  1  0
 14 45  1  0
 15 46  1  6
 16 47  1  0
 16 48  1  0
 17 49  1  0
 17 50  1  0
 18 51  1  0
 18 52  1  0
 19 53  1  0
 20 54  1  0
 20 55  1  0
 24 56  1  0
 24 57  1  0
 25 58  1  0
 25 59  1  0
 27 60  1  0
 28 61  1  0
 29 62  1  0
 30 63  1  0
 32 64  1  0
 32 65  1  0
 34 66  1  0
 34 67  1  0
M  END
>  <smiles>  (75) 
c1ccc2c(c1)CCN(c1nc(NCC3CCCNC3)nc(N3CCc4ccccc4C3)n1)C2

>  <score_type>  (75) 
oracle

>  <origin>  (75) 
autodockgpu

>  <m_score__min__energy>  (75) 
-10.529999999999999

>  <m_primary>  (75) 
energy

>  <rmsd>  (75) 
5.769931565138033

>  <m_score__min__rmsd>  (75) 
5.769931565138033

>  <meeko>  (75) 
{"free_energy": -9.57, "intermolecular_energy": -11.06, "internal_energy": -1.28, "cluster_size": 44, "cluster_id": 1, "rank_in_cluster": 29}

>  <energy>  (75) 
-9.61

>  <cluster_rmsd>  (75) 
0.87

>  <cluster>  (75) 
1

$$$$

     RDKit          3D

 67 72  0  0  0  0  0  0  0  0999 V2000
  139.6280   80.1110  223.5560 C   0  0  0  0  0  0  0  0  0  0  0  0
  140.9100   80.0710  223.0180 C   0  0  0  0  0  0  0  0  0  0  0  0
  141.4060   78.9430  222.3800 C   0  0  0  0  0  0  0  0  0  0  0  0
  140.5610   77.8400  222.2970 C   0  0  0  0  0  0  0  0  0  0  0  0
  139.2900   77.8790  222.8290 C   0  0  0  0  0  0  0  0  0  0  0  0
  138.8010   79.0060  223.4650 C   0  0  0  0  0  0  0  0  0  0  0  0
  138.3680   76.6910  222.7370 C   0  0  0  0  0  0  0  0  0  0  0  0
  138.6790   76.0680  221.3630 C   0  0  0  0  0  0  0  0  0  0  0  0
  140.0560   75.5980  221.5100 N   0  0  0  0  0  0  0  0  0  0  0  0
  140.3890   74.2030  221.5080 C   0  0  0  0  0  0  0  0  0  0  0  0
  140.8200   73.6020  220.3600 N   0  0  0  0  0  0  0  0  0  0  0  0
  141.1050   72.2660  220.3300 C   0  0  0  0  0  0  0  0  0  0  0  0
  141.5710   71.7060  219.1130 N   0  0  0  0  0  0  0  0  0  0  0  0
  142.8510   71.9880  218.5180 C   0  0  0  0  0  0  0  0  0  0  0  0
  143.7210   72.6950  219.5520 C   0  0  1  0  0  0  0  0  0  0  0  0
  145.0300   72.0070  219.7580 C   0  0  0  0  0  0  0  0  0  0  0  0
  146.1130   73.0540  219.8970 C   0  0  0  0  0  0  0  0  0  0  0  0
  145.6820   74.1740  220.8150 C   0  0  0  0  0  0  0  0  0  0  0  0
  144.4690   74.8190  220.3900 N   0  0  0  0  0  0  0  0  0  0  0  0
  143.9240   74.1500  219.2340 C   0  0  0  0  0  0  0  0  0  0  0  0
  140.9530   71.5390  221.4650 N   0  0  0  0  0  0  0  0  0  0  0  0
  140.5260   72.1230  222.6130 C   0  0  0  0  0  0  0  0  0  0  0  0
  140.3690   71.3180  223.7600 N   0  0  0  0  0  0  0  0  0  0  0  0
  139.8510   69.9680  223.5730 C   0  0  0  0  0  0  0  0  0  0  0  0
  138.7290   69.8050  224.6100 C   0  0  0  0  0  0  0  0  0  0  0  0
  139.4580   69.7550  225.9260 C   0  0  0  0  0  0  0  0  0  0  0  0
  139.1940   68.7910  226.8720 C   0  0  0  0  0  0  0  0  0  0  0  0
  139.8840   68.7850  228.0630 C   0  0  0  0  0  0  0  0  0  0  0  0
  140.8440   69.7620  228.2960 C   0  0  0  0  0  0  0  0  0  0  0  0
  141.0810   70.7080  227.3310 C   0  0  0  0  0  0  0  0  0  0  0  0
  140.4130   70.7520  226.1190 C   0  0  0  0  0  0  0  0  0  0  0  0
  140.6960   71.7910  225.0900 C   0  0  0  0  0  0  0  0  0  0  0  0
  140.2540   73.4440  222.6060 N   0  0  0  0  0  0  0  0  0  0  0  0
  141.0740   76.6290  221.6270 C   0  0  0  0  0  0  0  0  0  0  0  0
  139.2709   81.0238  224.0552 H   0  0  0  0  0  0  0  0  0  0  0  0
  141.5507   80.9613  223.1009 H   0  0  0  0  0  0  0  0  0  0  0  0
  142.4218   78.9214  221.9586 H   0  0  0  0  0  0  0  0  0  0  0  0
  137.7848   79.0229  223.8858 H   0  0  0  0  0  0  0  0  0  0  0  0
  138.5755   75.9741  223.5451 H   0  0  0  0  0  0  0  0  0  0  0  0
  137.3098   76.9735  222.8387 H   0  0  0  0  0  0  0  0  0  0  0  0
  137.9982   75.2315  221.1465 H   0  0  0  0  0  0  0  0  0  0  0  0
  138.5527   76.7763  220.5309 H   0  0  0  0  0  0  0  0  0  0  0  0
  140.8920   71.0350  218.6390 H   0  0  0  0  0  0  0  0  0  0  0  0
  143.3317   71.0480  218.2092 H   0  0  0  0  0  0  0  0  0  0  0  0
  142.7220   72.6286  217.6331 H   0  0  0  0  0  0  0  0  0  0  0  0
  143.1647   72.6400  220.4994 H   0  0  0  0  0  0  0  0  0  0  0  0
  144.9869   71.3958  220.6715 H   0  0  0  0  0  0  0  0  0  0  0  0
  145.2486   71.3539  218.9003 H   0  0  0  0  0  0  0  0  0  0  0  0
  147.0170   72.5815  220.3088 H   0  0  0  0  0  0  0  0  0  0  0  0
  146.3135   73.4791  218.9025 H   0  0  0  0  0  0  0  0  0  0  0  0
  145.5237   73.7598  221.8216 H   0  0  0  0  0  0  0  0  0  0  0  0
  146.4782   74.9329  220.8014 H   0  0  0  0  0  0  0  0  0  0  0  0
  143.7470   74.7580  221.1410 H   0  0  0  0  0  0  0  0  0  0  0  0
  142.9593   74.6058  218.9665 H   0  0  0  0  0  0  0  0  0  0  0  0
  144.6207   74.2487  218.3885 H   0  0  0  0  0  0  0  0  0  0  0  0
  139.4524   69.8479  222.5548 H   0  0  0  0  0  0  0  0  0  0  0  0
  140.6374   69.2100  223.7036 H   0  0  0  0  0  0  0  0  0  0  0  0
  138.0383   70.6605  224.5773 H   0  0  0  0  0  0  0  0  0  0  0  0
  138.1127   68.9114  224.4318 H   0  0  0  0  0  0  0  0  0  0  0  0
  138.4303   68.0240  226.6760 H   0  0  0  0  0  0  0  0  0  0  0  0
  139.6778   68.0156  228.8216 H   0  0  0  0  0  0  0  0  0  0  0  0
  141.4063   69.7768  229.2413 H   0  0  0  0  0  0  0  0  0  0  0  0
  141.8443   71.4743  227.5313 H   0  0  0  0  0  0  0  0  0  0  0  0
  140.0952   72.6859  225.3098 H   0  0  0  0  0  0  0  0  0  0  0  0
  141.7702   72.0261  225.1204 H   0  0  0  0  0  0  0  0  0  0  0  0
  141.9172   76.2307  222.2104 H   0  0  0  0  0  0  0  0  0  0  0  0
  141.3900   76.9108  220.6118 H   0  0  0  0  0  0  0  0  0  0  0  0
  1  2  2  0
  2  3  1  0
  3  4  2  0
  4  5  1  0
  5  6  2  0
  5  7  1  0
  7  8  1  0
  8  9  1  0
  9 10  1  0
 10 11  2  0
 11 12  1  0
 12 13  1  0
 13 14  1  0
 14 15  1  0
 15 16  1  0
 16 17  1  0
 17 18  1  0
 18 19  1  0
 19 20  1  0
 12 21  2  0
 21 22  1  0
 22 23  1  0
 23 24  1  0
 24 25  1  0
 25 26  1  0
 26 27  2  0
 27 28  1  0
 28 29  2  0
 29 30  1  0
 30 31  2  0
 31 32  1  0
 22 33  2  0
  9 34  1  0
  6  1  1  0
 33 10  1  0
 34  4  1  0
 20 15  1  0
 32 23  1  0
 31 26  1  0
  1 35  1  0
  2 36  1  0
  3 37  1  0
  6 38  1  0
  7 39  1  0
  7 40  1  0
  8 41  1  0
  8 42  1  0
 13 43  1  0
 14 44  1  0
 14 45  1  0
 15 46  1  1
 16 47  1  0
 16 48  1  0
 17 49  1  0
 17 50  1  0
 18 51  1  0
 18 52  1  0
 19 53  1  0
 20 54  1  0
 20 55  1  0
 24 56  1  0
 24 57  1  0
 25 58  1  0
 25 59  1  0
 27 60  1  0
 28 61  1  0
 29 62  1  0
 30 63  1  0
 32 64  1  0
 32 65  1  0
 34 66  1  0
 34 67  1  0
M  END
>  <smiles>  (76) 
c1ccc2c(c1)CCN(c1nc(NCC3CCCNC3)nc(N3CCc4ccccc4C3)n1)C2

>  <score_type>  (76) 
oracle

>  <origin>  (76) 
autodockgpu

>  <m_score__min__energy>  (76) 
-10.529999999999999

>  <m_primary>  (76) 
energy

>  <rmsd>  (76) 
5.784128385477306

>  <m_score__min__rmsd>  (76) 
5.784128385477306

>  <meeko>  (76) 
{"free_energy": -9.56, "intermolecular_energy": -11.05, "internal_energy": -1.31, "cluster_size": 44, "cluster_id": 1, "rank_in_cluster": 32}

>  <energy>  (76) 
-9.6

>  <cluster_rmsd>  (76) 
1.51

>  <cluster>  (76) 
1

$$$$

     RDKit          3D

 67 72  0  0  0  0  0  0  0  0999 V2000
  139.9780   68.1260  226.6270 C   0  0  0  0  0  0  0  0  0  0  0  0
  140.5510   69.2220  227.2640 C   0  0  0  0  0  0  0  0  0  0  0  0
  140.6870   70.4500  226.6350 C   0  0  0  0  0  0  0  0  0  0  0  0
  140.2220   70.5470  225.3260 C   0  0  0  0  0  0  0  0  0  0  0  0
  139.6540   69.4630  224.6940 C   0  0  0  0  0  0  0  0  0  0  0  0
  139.5210   68.2390  225.3260 C   0  0  0  0  0  0  0  0  0  0  0  0
  139.1420   69.5610  223.2800 C   0  0  0  0  0  0  0  0  0  0  0  0
  138.5610   70.9840  223.1800 C   0  0  0  0  0  0  0  0  0  0  0  0
  139.7390   71.8400  223.3270 N   0  0  0  0  0  0  0  0  0  0  0  0
  140.2300   72.6500  222.2500 C   0  0  0  0  0  0  0  0  0  0  0  0
  140.7020   72.0650  221.1110 N   0  0  0  0  0  0  0  0  0  0  0  0
  141.2090   72.8190  220.0910 C   0  0  0  0  0  0  0  0  0  0  0  0
  141.6620   72.1530  218.9240 N   0  0  0  0  0  0  0  0  0  0  0  0
  143.0450   71.9270  218.5940 C   0  0  0  0  0  0  0  0  0  0  0  0
  143.9130   72.6540  219.6170 C   0  0  1  0  0  0  0  0  0  0  0  0
  145.2360   71.9910  219.8110 C   0  0  0  0  0  0  0  0  0  0  0  0
  146.3000   73.0580  219.9350 C   0  0  0  0  0  0  0  0  0  0  0  0
  145.8580   74.1730  220.8550 C   0  0  0  0  0  0  0  0  0  0  0  0
  144.6290   74.7940  220.4400 N   0  0  0  0  0  0  0  0  0  0  0  0
  144.0840   74.1110  219.2920 C   0  0  0  0  0  0  0  0  0  0  0  0
  141.2370   74.1690  220.2270 N   0  0  0  0  0  0  0  0  0  0  0  0
  140.7710   74.7650  221.3530 C   0  0  0  0  0  0  0  0  0  0  0  0
  140.8400   76.1690  221.4510 N   0  0  0  0  0  0  0  0  0  0  0  0
  140.6730   76.9420  220.2250 C   0  0  0  0  0  0  0  0  0  0  0  0
  141.8310   77.9520  220.2090 C   0  0  0  0  0  0  0  0  0  0  0  0
  141.4860   78.9120  221.3150 C   0  0  0  0  0  0  0  0  0  0  0  0
  141.5320   80.2770  221.1390 C   0  0  0  0  0  0  0  0  0  0  0  0
  141.2120   81.1190  222.1800 C   0  0  0  0  0  0  0  0  0  0  0  0
  140.8450   80.5750  223.4040 C   0  0  0  0  0  0  0  0  0  0  0  0
  140.8100   79.2100  223.5440 C   0  0  0  0  0  0  0  0  0  0  0  0
  141.1230   78.3260  222.5260 C   0  0  0  0  0  0  0  0  0  0  0  0
  141.0720   76.8490  222.7090 C   0  0  0  0  0  0  0  0  0  0  0  0
  140.2780   73.9880  222.3410 N   0  0  0  0  0  0  0  0  0  0  0  0
  140.3640   71.8460  224.6390 C   0  0  0  0  0  0  0  0  0  0  0  0
  139.8881   67.1674  227.1589 H   0  0  0  0  0  0  0  0  0  0  0  0
  140.9072   69.1109  228.2988 H   0  0  0  0  0  0  0  0  0  0  0  0
  141.1424   71.3102  227.1476 H   0  0  0  0  0  0  0  0  0  0  0  0
  139.0654   67.3814  224.8093 H   0  0  0  0  0  0  0  0  0  0  0  0
  139.9614   69.4237  222.5591 H   0  0  0  0  0  0  0  0  0  0  0  0
  138.3955   68.7865  223.0500 H   0  0  0  0  0  0  0  0  0  0  0  0
  138.0767   71.1442  222.2055 H   0  0  0  0  0  0  0  0  0  0  0  0
  137.7854   71.1861  223.9334 H   0  0  0  0  0  0  0  0  0  0  0  0
  140.8900   71.8130  218.2730 H   0  0  0  0  0  0  0  0  0  0  0  0
  143.2618   70.8490  218.6229 H   0  0  0  0  0  0  0  0  0  0  0  0
  143.2575   72.3054  217.5832 H   0  0  0  0  0  0  0  0  0  0  0  0
  143.3691   72.5922  220.5711 H   0  0  0  0  0  0  0  0  0  0  0  0
  145.2140   71.3821  220.7269 H   0  0  0  0  0  0  0  0  0  0  0  0
  145.4576   71.3390  218.9532 H   0  0  0  0  0  0  0  0  0  0  0  0
  147.2172   72.6038  220.3380 H   0  0  0  0  0  0  0  0  0  0  0  0
  146.4814   73.4838  218.9371 H   0  0  0  0  0  0  0  0  0  0  0  0
  145.7174   73.7589  221.8643 H   0  0  0  0  0  0  0  0  0  0  0  0
  146.6400   74.9463  220.8319 H   0  0  0  0  0  0  0  0  0  0  0  0
  143.9160   74.7220  221.1990 H   0  0  0  0  0  0  0  0  0  0  0  0
  143.1077   74.5471  219.0341 H   0  0  0  0  0  0  0  0  0  0  0  0
  144.7688   74.2205  218.4382 H   0  0  0  0  0  0  0  0  0  0  0  0
  140.7267   76.2830  219.3459 H   0  0  0  0  0  0  0  0  0  0  0  0
  139.6953   77.4449  220.1923 H   0  0  0  0  0  0  0  0  0  0  0  0
  142.7900   77.4518  220.4094 H   0  0  0  0  0  0  0  0  0  0  0  0
  141.9476   78.4497  219.2350 H   0  0  0  0  0  0  0  0  0  0  0  0
  141.8250   80.6953  220.1648 H   0  0  0  0  0  0  0  0  0  0  0  0
  141.2466   82.2100  222.0439 H   0  0  0  0  0  0  0  0  0  0  0  0
  140.5859   81.2290  224.2497 H   0  0  0  0  0  0  0  0  0  0  0  0
  140.5168   78.7955  224.5198 H   0  0  0  0  0  0  0  0  0  0  0  0
  142.0292   76.5071  223.1296 H   0  0  0  0  0  0  0  0  0  0  0  0
  140.2405   76.6126  223.3892 H   0  0  0  0  0  0  0  0  0  0  0  0
  141.4345   72.0702  224.5213 H   0  0  0  0  0  0  0  0  0  0  0  0
  139.8620   72.6101  225.2506 H   0  0  0  0  0  0  0  0  0  0  0  0
  1  2  2  0
  2  3  1  0
  3  4  2  0
  4  5  1  0
  5  6  2  0
  5  7  1  0
  7  8  1  0
  8  9  1  0
  9 10  1  0
 10 11  2  0
 11 12  1  0
 12 13  1  0
 13 14  1  0
 14 15  1  0
 15 16  1  0
 16 17  1  0
 17 18  1  0
 18 19  1  0
 19 20  1  0
 12 21  2  0
 21 22  1  0
 22 23  1  0
 23 24  1  0
 24 25  1  0
 25 26  1  0
 26 27  2  0
 27 28  1  0
 28 29  2  0
 29 30  1  0
 30 31  2  0
 31 32  1  0
 22 33  2  0
  9 34  1  0
  6  1  1  0
 33 10  1  0
 34  4  1  0
 20 15  1  0
 32 23  1  0
 31 26  1  0
  1 35  1  0
  2 36  1  0
  3 37  1  0
  6 38  1  0
  7 39  1  0
  7 40  1  0
  8 41  1  0
  8 42  1  0
 13 43  1  0
 14 44  1  0
 14 45  1  0
 15 46  1  1
 16 47  1  0
 16 48  1  0
 17 49  1  0
 17 50  1  0
 18 51  1  0
 18 52  1  0
 19 53  1  0
 20 54  1  0
 20 55  1  0
 24 56  1  0
 24 57  1  0
 25 58  1  0
 25 59  1  0
 27 60  1  0
 28 61  1  0
 29 62  1  0
 30 63  1  0
 32 64  1  0
 32 65  1  0
 34 66  1  0
 34 67  1  0
M  END
>  <smiles>  (77) 
c1ccc2c(c1)CCN(c1nc(NCC3CCCNC3)nc(N3CCc4ccccc4C3)n1)C2

>  <score_type>  (77) 
oracle

>  <origin>  (77) 
autodockgpu

>  <m_score__min__energy>  (77) 
-10.529999999999999

>  <m_primary>  (77) 
energy

>  <rmsd>  (77) 
5.911788781624779

>  <m_score__min__rmsd>  (77) 
5.911788781624779

>  <meeko>  (77) 
{"free_energy": -9.62, "intermolecular_energy": -11.11, "internal_energy": -1.36, "cluster_size": 44, "cluster_id": 1, "rank_in_cluster": 24}

>  <energy>  (77) 
-9.59

>  <cluster_rmsd>  (77) 
0.88

>  <cluster>  (77) 
1

$$$$

     RDKit          3D

 67 72  0  0  0  0  0  0  0  0999 V2000
  139.7510   68.0400  226.4300 C   0  0  0  0  0  0  0  0  0  0  0  0
  140.4560   69.0470  227.0800 C   0  0  0  0  0  0  0  0  0  0  0  0
  140.6720   70.2880  226.4980 C   0  0  0  0  0  0  0  0  0  0  0  0
  140.1480   70.4890  225.2240 C   0  0  0  0  0  0  0  0  0  0  0  0
  139.4490   69.4920  224.5790 C   0  0  0  0  0  0  0  0  0  0  0  0
  139.2370   68.2560  225.1640 C   0  0  0  0  0  0  0  0  0  0  0  0
  138.8730   69.7050  223.2030 C   0  0  0  0  0  0  0  0  0  0  0  0
  138.4220   71.1780  223.1990 C   0  0  0  0  0  0  0  0  0  0  0  0
  139.6800   71.9160  223.3140 N   0  0  0  0  0  0  0  0  0  0  0  0
  140.1860   72.7300  222.2470 C   0  0  0  0  0  0  0  0  0  0  0  0
  140.6620   72.1490  221.1070 N   0  0  0  0  0  0  0  0  0  0  0  0
  141.1830   72.9070  220.0970 C   0  0  0  0  0  0  0  0  0  0  0  0
  141.6400   72.2450  218.9280 N   0  0  0  0  0  0  0  0  0  0  0  0
  143.0110   71.8910  218.6710 C   0  0  0  0  0  0  0  0  0  0  0  0
  143.8990   72.6300  219.6680 C   0  0  1  0  0  0  0  0  0  0  0  0
  145.2180   71.9590  219.8600 C   0  0  0  0  0  0  0  0  0  0  0  0
  146.2940   73.0180  219.9480 C   0  0  0  0  0  0  0  0  0  0  0  0
  145.8740   74.1560  220.8500 C   0  0  0  0  0  0  0  0  0  0  0  0
  144.6450   74.7800  220.4380 N   0  0  0  0  0  0  0  0  0  0  0  0
  144.0800   74.0790  219.3110 C   0  0  0  0  0  0  0  0  0  0  0  0
  141.2200   74.2550  220.2420 N   0  0  0  0  0  0  0  0  0  0  0  0
  140.7490   74.8470  221.3690 C   0  0  0  0  0  0  0  0  0  0  0  0
  140.8280   76.2490  221.4770 N   0  0  0  0  0  0  0  0  0  0  0  0
  140.6680   77.0320  220.2570 C   0  0  0  0  0  0  0  0  0  0  0  0
  141.8330   78.0340  220.2500 C   0  0  0  0  0  0  0  0  0  0  0  0
  141.4930   78.9890  221.3620 C   0  0  0  0  0  0  0  0  0  0  0  0
  141.5490   80.3540  221.1960 C   0  0  0  0  0  0  0  0  0  0  0  0
  141.2320   81.1920  222.2430 C   0  0  0  0  0  0  0  0  0  0  0  0
  140.8590   80.6410  223.4620 C   0  0  0  0  0  0  0  0  0  0  0  0
  140.8150   79.2750  223.5920 C   0  0  0  0  0  0  0  0  0  0  0  0
  141.1240   78.3970  222.5690 C   0  0  0  0  0  0  0  0  0  0  0  0
  141.0620   76.9180  222.7400 C   0  0  0  0  0  0  0  0  0  0  0  0
  140.2430   74.0670  222.3470 N   0  0  0  0  0  0  0  0  0  0  0  0
  140.3730   71.8020  224.5870 C   0  0  0  0  0  0  0  0  0  0  0  0
  139.6016   67.0686  226.9240 H   0  0  0  0  0  0  0  0  0  0  0  0
  140.8548   68.8538  228.0868 H   0  0  0  0  0  0  0  0  0  0  0  0
  141.2323   71.0777  227.0200 H   0  0  0  0  0  0  0  0  0  0  0  0
  138.6766   67.4689  224.6382 H   0  0  0  0  0  0  0  0  0  0  0  0
  139.6361   69.5297  222.4304 H   0  0  0  0  0  0  0  0  0  0  0  0
  138.0464   69.0133  222.9833 H   0  0  0  0  0  0  0  0  0  0  0  0
  137.9025   71.4284  222.2623 H   0  0  0  0  0  0  0  0  0  0  0  0
  137.7105   71.4123  224.0046 H   0  0  0  0  0  0  0  0  0  0  0  0
  140.8810   72.0140  218.2180 H   0  0  0  0  0  0  0  0  0  0  0  0
  143.1424   70.8055  218.7912 H   0  0  0  0  0  0  0  0  0  0  0  0
  143.2855   72.1711  217.6433 H   0  0  0  0  0  0  0  0  0  0  0  0
  143.3661   72.5922  220.6296 H   0  0  0  0  0  0  0  0  0  0  0  0
  145.2017   71.3701  220.7890 H   0  0  0  0  0  0  0  0  0  0  0  0
  145.4227   71.2869  219.0136 H   0  0  0  0  0  0  0  0  0  0  0  0
  147.2119   72.5634  220.3489 H   0  0  0  0  0  0  0  0  0  0  0  0
  146.4670   73.4210  218.9392 H   0  0  0  0  0  0  0  0  0  0  0  0
  145.7429   73.7643  221.8695 H   0  0  0  0  0  0  0  0  0  0  0  0
  146.6625   74.9213  220.8005 H   0  0  0  0  0  0  0  0  0  0  0  0
  143.9410   74.7300  221.2070 H   0  0  0  0  0  0  0  0  0  0  0  0
  143.1048   74.5192  219.0556 H   0  0  0  0  0  0  0  0  0  0  0  0
  144.7557   74.1644  218.4472 H   0  0  0  0  0  0  0  0  0  0  0  0
  140.7183   76.3793  219.3730 H   0  0  0  0  0  0  0  0  0  0  0  0
  139.6938   77.5419  220.2268 H   0  0  0  0  0  0  0  0  0  0  0  0
  142.7881   77.5257  220.4485 H   0  0  0  0  0  0  0  0  0  0  0  0
  141.9546   78.5376  219.2796 H   0  0  0  0  0  0  0  0  0  0  0  0
  141.8474   80.7770  220.2254 H   0  0  0  0  0  0  0  0  0  0  0  0
  141.2739   82.2837  222.1148 H   0  0  0  0  0  0  0  0  0  0  0  0
  140.6022   81.2903  224.3120 H   0  0  0  0  0  0  0  0  0  0  0  0
  140.5173   78.8553  224.5642 H   0  0  0  0  0  0  0  0  0  0  0  0
  142.0158   76.5661  223.1600 H   0  0  0  0  0  0  0  0  0  0  0  0
  140.2269   76.6826  223.4162 H   0  0  0  0  0  0  0  0  0  0  0  0
  141.4518   71.9340  224.4171 H   0  0  0  0  0  0  0  0  0  0  0  0
  139.9780   72.5778  225.2594 H   0  0  0  0  0  0  0  0  0  0  0  0
  1  2  2  0
  2  3  1  0
  3  4  2  0
  4  5  1  0
  5  6  2  0
  5  7  1  0
  7  8  1  0
  8  9  1  0
  9 10  1  0
 10 11  2  0
 11 12  1  0
 12 13  1  0
 13 14  1  0
 14 15  1  0
 15 16  1  0
 16 17  1  0
 17 18  1  0
 18 19  1  0
 19 20  1  0
 12 21  2  0
 21 22  1  0
 22 23  1  0
 23 24  1  0
 24 25  1  0
 25 26  1  0
 26 27  2  0
 27 28  1  0
 28 29  2  0
 29 30  1  0
 30 31  2  0
 31 32  1  0
 22 33  2  0
  9 34  1  0
  6  1  1  0
 33 10  1  0
 34  4  1  0
 20 15  1  0
 32 23  1  0
 31 26  1  0
  1 35  1  0
  2 36  1  0
  3 37  1  0
  6 38  1  0
  7 39  1  0
  7 40  1  0
  8 41  1  0
  8 42  1  0
 13 43  1  0
 14 44  1  0
 14 45  1  0
 15 46  1  1
 16 47  1  0
 16 48  1  0
 17 49  1  0
 17 50  1  0
 18 51  1  0
 18 52  1  0
 19 53  1  0
 20 54  1  0
 20 55  1  0
 24 56  1  0
 24 57  1  0
 25 58  1  0
 25 59  1  0
 27 60  1  0
 28 61  1  0
 29 62  1  0
 30 63  1  0
 32 64  1  0
 32 65  1  0
 34 66  1  0
 34 67  1  0
M  END
>  <smiles>  (78) 
c1ccc2c(c1)CCN(c1nc(NCC3CCCNC3)nc(N3CCc4ccccc4C3)n1)C2

>  <score_type>  (78) 
oracle

>  <origin>  (78) 
autodockgpu

>  <m_score__min__energy>  (78) 
-10.529999999999999

>  <m_primary>  (78) 
energy

>  <rmsd>  (78) 
5.923903563949649

>  <m_score__min__rmsd>  (78) 
5.923903563949649

>  <meeko>  (78) 
{"free_energy": -9.56, "intermolecular_energy": -11.06, "internal_energy": -1.33, "cluster_size": 44, "cluster_id": 1, "rank_in_cluster": 31}

>  <energy>  (78) 
-9.57

>  <cluster_rmsd>  (78) 
1.12

>  <cluster>  (78) 
1

$$$$

     RDKit          3D

 67 72  0  0  0  0  0  0  0  0999 V2000
  139.9350   68.0530  226.6280 C   0  0  0  0  0  0  0  0  0  0  0  0
  140.5200   69.1400  227.2690 C   0  0  0  0  0  0  0  0  0  0  0  0
  140.6800   70.3660  226.6410 C   0  0  0  0  0  0  0  0  0  0  0  0
  140.2270   70.4700  225.3290 C   0  0  0  0  0  0  0  0  0  0  0  0
  139.6470   69.3940  224.6930 C   0  0  0  0  0  0  0  0  0  0  0  0
  139.4900   68.1730  225.3230 C   0  0  0  0  0  0  0  0  0  0  0  0
  139.1470   69.5000  223.2750 C   0  0  0  0  0  0  0  0  0  0  0  0
  138.5890   70.9320  223.1700 C   0  0  0  0  0  0  0  0  0  0  0  0
  139.7790   71.7700  223.3260 N   0  0  0  0  0  0  0  0  0  0  0  0
  140.2910   72.5720  222.2530 C   0  0  0  0  0  0  0  0  0  0  0  0
  140.7690   71.9790  221.1200 N   0  0  0  0  0  0  0  0  0  0  0  0
  141.2960   72.7250  220.1040 C   0  0  0  0  0  0  0  0  0  0  0  0
  141.7550   72.0510  218.9440 N   0  0  0  0  0  0  0  0  0  0  0  0
  142.5910   72.6400  217.9310 C   0  0  0  0  0  0  0  0  0  0  0  0
  143.9660   72.9090  218.5340 C   0  0  1  0  0  0  0  0  0  0  0  0
  144.0410   74.2410  219.2050 C   0  0  0  0  0  0  0  0  0  0  0  0
  144.8380   74.0960  220.4820 C   0  0  0  0  0  0  0  0  0  0  0  0
  146.0880   73.2760  220.2630 C   0  0  0  0  0  0  0  0  0  0  0  0
  145.8190   71.9650  219.7370 N   0  0  0  0  0  0  0  0  0  0  0  0
  144.4120   71.8140  219.4610 C   0  0  0  0  0  0  0  0  0  0  0  0
  141.3370   74.0750  220.2380 N   0  0  0  0  0  0  0  0  0  0  0  0
  140.8650   74.6780  221.3580 C   0  0  0  0  0  0  0  0  0  0  0  0
  140.9490   76.0820  221.4530 N   0  0  0  0  0  0  0  0  0  0  0  0
  140.9380   76.8460  220.2110 C   0  0  0  0  0  0  0  0  0  0  0  0
  142.1090   77.8360  220.3210 C   0  0  0  0  0  0  0  0  0  0  0  0
  141.6570   78.8120  221.3740 C   0  0  0  0  0  0  0  0  0  0  0  0
  141.7480   80.1740  221.1950 C   0  0  0  0  0  0  0  0  0  0  0  0
  141.3250   81.0310  222.1860 C   0  0  0  0  0  0  0  0  0  0  0  0
  140.8090   80.5040  223.3630 C   0  0  0  0  0  0  0  0  0  0  0  0
  140.7330   79.1420  223.5070 C   0  0  0  0  0  0  0  0  0  0  0  0
  141.1450   78.2430  222.5390 C   0  0  0  0  0  0  0  0  0  0  0  0
  141.0460   76.7690  222.7240 C   0  0  0  0  0  0  0  0  0  0  0  0
  140.3530   73.9100  222.3410 N   0  0  0  0  0  0  0  0  0  0  0  0
  140.3940   71.7660  224.6430 C   0  0  0  0  0  0  0  0  0  0  0  0
  139.8258   67.0961  227.1594 H   0  0  0  0  0  0  0  0  0  0  0  0
  140.8666   69.0235  228.3065 H   0  0  0  0  0  0  0  0  0  0  0  0
  141.1446   71.2190  227.1572 H   0  0  0  0  0  0  0  0  0  0  0  0
  139.0254   67.3226  224.8025 H   0  0  0  0  0  0  0  0  0  0  0  0
  139.9695   69.3496  222.5602 H   0  0  0  0  0  0  0  0  0  0  0  0
  138.3900   68.7373  223.0398 H   0  0  0  0  0  0  0  0  0  0  0  0
  138.1149   71.0993  222.1916 H   0  0  0  0  0  0  0  0  0  0  0  0
  137.8109   71.1464  223.9173 H   0  0  0  0  0  0  0  0  0  0  0  0
  141.4320   71.0400  218.8560 H   0  0  0  0  0  0  0  0  0  0  0  0
  142.6875   71.9482  217.0812 H   0  0  0  0  0  0  0  0  0  0  0  0
  142.1453   73.5804  217.5746 H   0  0  0  0  0  0  0  0  0  0  0  0
  144.6665   72.9257  217.6861 H   0  0  0  0  0  0  0  0  0  0  0  0
  144.5362   74.9634  218.5395 H   0  0  0  0  0  0  0  0  0  0  0  0
  143.0279   74.6028  219.4344 H   0  0  0  0  0  0  0  0  0  0  0  0
  145.1243   75.0958  220.8404 H   0  0  0  0  0  0  0  0  0  0  0  0
  144.2113   73.5794  221.2239 H   0  0  0  0  0  0  0  0  0  0  0  0
  146.7375   73.8108  219.5544 H   0  0  0  0  0  0  0  0  0  0  0  0
  146.5685   73.1432  221.2436 H   0  0  0  0  0  0  0  0  0  0  0  0
  146.3190   71.8330  218.8300 H   0  0  0  0  0  0  0  0  0  0  0  0
  144.2334   70.8371  218.9880 H   0  0  0  0  0  0  0  0  0  0  0  0
  143.8442   71.8740  220.4012 H   0  0  0  0  0  0  0  0  0  0  0  0
  141.0802   76.1781  219.3486 H   0  0  0  0  0  0  0  0  0  0  0  0
  139.9798   77.3655  220.0624 H   0  0  0  0  0  0  0  0  0  0  0  0
  143.0294   77.3210  220.6334 H   0  0  0  0  0  0  0  0  0  0  0  0
  142.3455   78.3229  219.3634 H   0  0  0  0  0  0  0  0  0  0  0  0
  142.1595   80.5783  220.2584 H   0  0  0  0  0  0  0  0  0  0  0  0
  141.3948   82.1200  222.0473 H   0  0  0  0  0  0  0  0  0  0  0  0
  140.4660   81.1698  224.1687 H   0  0  0  0  0  0  0  0  0  0  0  0
  140.3212   78.7417  224.4452 H   0  0  0  0  0  0  0  0  0  0  0  0
  141.9415   76.4141  223.2552 H   0  0  0  0  0  0  0  0  0  0  0  0
  140.1367   76.5534  223.3042 H   0  0  0  0  0  0  0  0  0  0  0  0
  141.4687   71.9736  224.5334 H   0  0  0  0  0  0  0  0  0  0  0  0
  139.8988   72.5376  225.2508 H   0  0  0  0  0  0  0  0  0  0  0  0
  1  2  2  0
  2  3  1  0
  3  4  2  0
  4  5  1  0
  5  6  2  0
  5  7  1  0
  7  8  1  0
  8  9  1  0
  9 10  1  0
 10 11  2  0
 11 12  1  0
 12 13  1  0
 13 14  1  0
 14 15  1  0
 15 16  1  0
 16 17  1  0
 17 18  1  0
 18 19  1  0
 19 20  1  0
 12 21  2  0
 21 22  1  0
 22 23  1  0
 23 24  1  0
 24 25  1  0
 25 26  1  0
 26 27  2  0
 27 28  1  0
 28 29  2  0
 29 30  1  0
 30 31  2  0
 31 32  1  0
 22 33  2  0
  9 34  1  0
  6  1  1  0
 33 10  1  0
 34  4  1  0
 20 15  1  0
 32 23  1  0
 31 26  1  0
  1 35  1  0
  2 36  1  0
  3 37  1  0
  6 38  1  0
  7 39  1  0
  7 40  1  0
  8 41  1  0
  8 42  1  0
 13 43  1  0
 14 44  1  0
 14 45  1  0
 15 46  1  6
 16 47  1  0
 16 48  1  0
 17 49  1  0
 17 50  1  0
 18 51  1  0
 18 52  1  0
 19 53  1  0
 20 54  1  0
 20 55  1  0
 24 56  1  0
 24 57  1  0
 25 58  1  0
 25 59  1  0
 27 60  1  0
 28 61  1  0
 29 62  1  0
 30 63  1  0
 32 64  1  0
 32 65  1  0
 34 66  1  0
 34 67  1  0
M  END
>  <smiles>  (79) 
c1ccc2c(c1)CCN(c1nc(NCC3CCCNC3)nc(N3CCc4ccccc4C3)n1)C2

>  <score_type>  (79) 
oracle

>  <origin>  (79) 
autodockgpu

>  <m_score__min__energy>  (79) 
-10.529999999999999

>  <m_primary>  (79) 
energy

>  <rmsd>  (79) 
5.819248621649367

>  <m_score__min__rmsd>  (79) 
5.819248621649367

>  <meeko>  (79) 
{"free_energy": -9.54, "intermolecular_energy": -11.03, "internal_energy": -1.3, "cluster_size": 44, "cluster_id": 1, "rank_in_cluster": 36}

>  <energy>  (79) 
-9.57

>  <cluster_rmsd>  (79) 
0.74

>  <cluster>  (79) 
1

$$$$

     RDKit          3D

 67 72  0  0  0  0  0  0  0  0999 V2000
  139.6930   80.3720  223.8500 C   0  0  0  0  0  0  0  0  0  0  0  0
  140.9780   80.3660  223.3190 C   0  0  0  0  0  0  0  0  0  0  0  0
  141.4700   79.2910  222.5940 C   0  0  0  0  0  0  0  0  0  0  0  0
  140.6180   78.2050  222.4140 C   0  0  0  0  0  0  0  0  0  0  0  0
  139.3430   78.2100  222.9380 C   0  0  0  0  0  0  0  0  0  0  0  0
  138.8580   79.2850  223.6620 C   0  0  0  0  0  0  0  0  0  0  0  0
  138.4130   77.0410  222.7420 C   0  0  0  0  0  0  0  0  0  0  0  0
  138.7290   76.5320  221.3230 C   0  0  0  0  0  0  0  0  0  0  0  0
  140.1020   76.0400  221.4400 N   0  0  0  0  0  0  0  0  0  0  0  0
  140.4240   74.6470  221.3250 C   0  0  0  0  0  0  0  0  0  0  0  0
  140.8940   74.1470  220.1440 N   0  0  0  0  0  0  0  0  0  0  0  0
  141.1700   72.8160  220.0050 C   0  0  0  0  0  0  0  0  0  0  0  0
  141.6770   72.3620  218.7600 N   0  0  0  0  0  0  0  0  0  0  0  0
  142.4270   73.1720  217.8370 C   0  0  0  0  0  0  0  0  0  0  0  0
  143.8220   73.3990  218.4120 C   0  0  1  0  0  0  0  0  0  0  0  0
  143.8160   74.3660  219.5500 C   0  0  0  0  0  0  0  0  0  0  0  0
  144.7670   73.8680  220.6150 C   0  0  0  0  0  0  0  0  0  0  0  0
  146.0710   73.3980  220.0140 C   0  0  0  0  0  0  0  0  0  0  0  0
  145.9000   72.3640  219.0290 N   0  0  0  0  0  0  0  0  0  0  0  0
  144.4970   72.1140  218.8020 C   0  0  0  0  0  0  0  0  0  0  0  0
  140.9700   71.9920  221.0640 N   0  0  0  0  0  0  0  0  0  0  0  0
  140.5050   72.4750  222.2440 C   0  0  0  0  0  0  0  0  0  0  0  0
  140.2980   71.5730  223.3060 N   0  0  0  0  0  0  0  0  0  0  0  0
  139.6620   70.2970  222.9980 C   0  0  0  0  0  0  0  0  0  0  0  0
  138.5490   70.1240  224.0420 C   0  0  0  0  0  0  0  0  0  0  0  0
  139.2940   69.8780  225.3260 C   0  0  0  0  0  0  0  0  0  0  0  0
  138.9640   68.8470  226.1770 C   0  0  0  0  0  0  0  0  0  0  0  0
  139.6720   68.6600  227.3430 C   0  0  0  0  0  0  0  0  0  0  0  0
  140.7170   69.5230  227.6470 C   0  0  0  0  0  0  0  0  0  0  0  0
  141.0180   70.5400  226.7770 C   0  0  0  0  0  0  0  0  0  0  0  0
  140.3350   70.7650  225.5950 C   0  0  0  0  0  0  0  0  0  0  0  0
  140.6890   71.8770  224.6680 C   0  0  0  0  0  0  0  0  0  0  0  0
  140.2420   73.7950  222.3450 N   0  0  0  0  0  0  0  0  0  0  0  0
  141.1270   77.0490  221.6490 C   0  0  0  0  0  0  0  0  0  0  0  0
  139.3394   81.2432  224.4210 H   0  0  0  0  0  0  0  0  0  0  0  0
  141.6246   81.2414  223.4790 H   0  0  0  0  0  0  0  0  0  0  0  0
  142.4888   79.2963  222.1794 H   0  0  0  0  0  0  0  0  0  0  0  0
  137.8388   79.2755  224.0758 H   0  0  0  0  0  0  0  0  0  0  0  0
  138.6097   76.2579  223.4890 H   0  0  0  0  0  0  0  0  0  0  0  0
  137.3562   77.3223  222.8603 H   0  0  0  0  0  0  0  0  0  0  0  0
  138.0435   75.7220  221.0331 H   0  0  0  0  0  0  0  0  0  0  0  0
  138.6140   77.3079  220.5518 H   0  0  0  0  0  0  0  0  0  0  0  0
  141.4620   71.3440  218.5340 H   0  0  0  0  0  0  0  0  0  0  0  0
  142.5046   72.6555  216.8689 H   0  0  0  0  0  0  0  0  0  0  0  0
  141.9208   74.1369  217.6861 H   0  0  0  0  0  0  0  0  0  0  0  0
  144.4130   73.8477  217.6000 H   0  0  0  0  0  0  0  0  0  0  0  0
  144.1415   75.3555  219.1966 H   0  0  0  0  0  0  0  0  0  0  0  0
  142.8005   74.4505  219.9644 H   0  0  0  0  0  0  0  0  0  0  0  0
  144.9728   74.6855  221.3216 H   0  0  0  0  0  0  0  0  0  0  0  0
  144.2962   73.0169  221.1288 H   0  0  0  0  0  0  0  0  0  0  0  0
  146.5660   74.2569  219.5372 H   0  0  0  0  0  0  0  0  0  0  0  0
  146.6742   72.9752  220.8309 H   0  0  0  0  0  0  0  0  0  0  0  0
  146.3030   72.6670  218.1160 H   0  0  0  0  0  0  0  0  0  0  0  0
  144.3808   71.3774  217.9933 H   0  0  0  0  0  0  0  0  0  0  0  0
  144.0386   71.7204  219.7212 H   0  0  0  0  0  0  0  0  0  0  0  0
  139.2368   70.3155  221.9837 H   0  0  0  0  0  0  0  0  0  0  0  0
  140.3822   69.4662  223.0312 H   0  0  0  0  0  0  0  0  0  0  0  0
  137.9347   71.0336  224.1138 H   0  0  0  0  0  0  0  0  0  0  0  0
  137.8543   69.3088  223.7911 H   0  0  0  0  0  0  0  0  0  0  0  0
  138.1332   68.1715  225.9248 H   0  0  0  0  0  0  0  0  0  0  0  0
  139.4132   67.8371  228.0255 H   0  0  0  0  0  0  0  0  0  0  0  0
  141.2957   69.3927  228.5733 H   0  0  0  0  0  0  0  0  0  0  0  0
  141.8486   71.2141  227.0334 H   0  0  0  0  0  0  0  0  0  0  0  0
  140.1727   72.7923  224.9930 H   0  0  0  0  0  0  0  0  0  0  0  0
  141.7800   72.0153  224.6929 H   0  0  0  0  0  0  0  0  0  0  0  0
  141.9627   76.5967  222.2031 H   0  0  0  0  0  0  0  0  0  0  0  0
  141.4529   77.4113  220.6629 H   0  0  0  0  0  0  0  0  0  0  0  0
  1  2  2  0
  2  3  1  0
  3  4  2  0
  4  5  1  0
  5  6  2  0
  5  7  1  0
  7  8  1  0
  8  9  1  0
  9 10  1  0
 10 11  2  0
 11 12  1  0
 12 13  1  0
 13 14  1  0
 14 15  1  0
 15 16  1  0
 16 17  1  0
 17 18  1  0
 18 19  1  0
 19 20  1  0
 12 21  2  0
 21 22  1  0
 22 23  1  0
 23 24  1  0
 24 25  1  0
 25 26  1  0
 26 27  2  0
 27 28  1  0
 28 29  2  0
 29 30  1  0
 30 31  2  0
 31 32  1  0
 22 33  2  0
  9 34  1  0
  6  1  1  0
 33 10  1  0
 34  4  1  0
 20 15  1  0
 32 23  1  0
 31 26  1  0
  1 35  1  0
  2 36  1  0
  3 37  1  0
  6 38  1  0
  7 39  1  0
  7 40  1  0
  8 41  1  0
  8 42  1  0
 13 43  1  0
 14 44  1  0
 14 45  1  0
 15 46  1  6
 16 47  1  0
 16 48  1  0
 17 49  1  0
 17 50  1  0
 18 51  1  0
 18 52  1  0
 19 53  1  0
 20 54  1  0
 20 55  1  0
 24 56  1  0
 24 57  1  0
 25 58  1  0
 25 59  1  0
 27 60  1  0
 28 61  1  0
 29 62  1  0
 30 63  1  0
 32 64  1  0
 32 65  1  0
 34 66  1  0
 34 67  1  0
M  END
>  <smiles>  (80) 
c1ccc2c(c1)CCN(c1nc(NCC3CCCNC3)nc(N3CCc4ccccc4C3)n1)C2

>  <score_type>  (80) 
oracle

>  <origin>  (80) 
autodockgpu

>  <m_score__min__energy>  (80) 
-10.529999999999999

>  <m_primary>  (80) 
energy

>  <rmsd>  (80) 
5.656049059620279

>  <m_score__min__rmsd>  (80) 
5.656049059620279

>  <meeko>  (80) 
{"free_energy": -9.67, "intermolecular_energy": -11.17, "internal_energy": -1.19, "cluster_size": 44, "cluster_id": 1, "rank_in_cluster": 22}

>  <energy>  (80) 
-9.57

>  <cluster_rmsd>  (80) 
1.39

>  <cluster>  (80) 
1

$$$$

     RDKit          3D

 67 72  0  0  0  0  0  0  0  0999 V2000
  139.7010   67.9750  226.4030 C   0  0  0  0  0  0  0  0  0  0  0  0
  140.3830   68.9780  227.0830 C   0  0  0  0  0  0  0  0  0  0  0  0
  140.6250   70.2190  226.5130 C   0  0  0  0  0  0  0  0  0  0  0  0
  140.1530   70.4250  225.2190 C   0  0  0  0  0  0  0  0  0  0  0  0
  139.4770   69.4320  224.5450 C   0  0  0  0  0  0  0  0  0  0  0  0
  139.2380   68.1950  225.1180 C   0  0  0  0  0  0  0  0  0  0  0  0
  138.9570   69.6500  223.1470 C   0  0  0  0  0  0  0  0  0  0  0  0
  138.5110   71.1240  223.1280 C   0  0  0  0  0  0  0  0  0  0  0  0
  139.7660   71.8580  223.2950 N   0  0  0  0  0  0  0  0  0  0  0  0
  140.3170   72.6720  222.2510 C   0  0  0  0  0  0  0  0  0  0  0  0
  140.8850   72.0900  221.1540 N   0  0  0  0  0  0  0  0  0  0  0  0
  141.4480   72.8500  220.1680 C   0  0  0  0  0  0  0  0  0  0  0  0
  142.0020   72.1870  219.0430 N   0  0  0  0  0  0  0  0  0  0  0  0
  143.1700   71.3460  219.0810 C   0  0  0  0  0  0  0  0  0  0  0  0
  144.3460   72.1720  219.5930 C   0  0  1  0  0  0  0  0  0  0  0  0
  144.3730   73.5440  219.0060 C   0  0  0  0  0  0  0  0  0  0  0  0
  144.7660   74.5260  220.0870 C   0  0  0  0  0  0  0  0  0  0  0  0
  145.9340   74.0150  220.8980 C   0  0  0  0  0  0  0  0  0  0  0  0
  145.6840   72.7360  221.5070 N   0  0  0  0  0  0  0  0  0  0  0  0
  144.3990   72.2280  221.0930 C   0  0  0  0  0  0  0  0  0  0  0  0
  141.4350   74.2010  220.2950 N   0  0  0  0  0  0  0  0  0  0  0  0
  140.8730   74.7930  221.3780 C   0  0  0  0  0  0  0  0  0  0  0  0
  140.9010   76.1990  221.4690 N   0  0  0  0  0  0  0  0  0  0  0  0
  140.7520   76.9600  220.2340 C   0  0  0  0  0  0  0  0  0  0  0  0
  141.8820   78.0000  220.2460 C   0  0  0  0  0  0  0  0  0  0  0  0
  141.4790   78.9580  221.3350 C   0  0  0  0  0  0  0  0  0  0  0  0
  141.4940   80.3220  221.1510 C   0  0  0  0  0  0  0  0  0  0  0  0
  141.1180   81.1610  222.1760 C   0  0  0  0  0  0  0  0  0  0  0  0
  140.7280   80.6140  223.3920 C   0  0  0  0  0  0  0  0  0  0  0  0
  140.7250   79.2500  223.5400 C   0  0  0  0  0  0  0  0  0  0  0  0
  141.0930   78.3690  222.5380 C   0  0  0  0  0  0  0  0  0  0  0  0
  141.0760   76.8920  222.7290 C   0  0  0  0  0  0  0  0  0  0  0  0
  140.3260   74.0120  222.3330 N   0  0  0  0  0  0  0  0  0  0  0  0
  140.4070   71.7390  224.5940 C   0  0  0  0  0  0  0  0  0  0  0  0
  139.5290   67.0031  226.8886 H   0  0  0  0  0  0  0  0  0  0  0  0
  140.7415   68.7812  228.1041 H   0  0  0  0  0  0  0  0  0  0  0  0
  141.1659   71.0060  227.0590 H   0  0  0  0  0  0  0  0  0  0  0  0
  138.6965   67.4108  224.5685 H   0  0  0  0  0  0  0  0  0  0  0  0
  139.7499   69.4739  222.4052 H   0  0  0  0  0  0  0  0  0  0  0  0
  138.1377   68.9614  222.8929 H   0  0  0  0  0  0  0  0  0  0  0  0
  138.0303   71.3779  222.1717 H   0  0  0  0  0  0  0  0  0  0  0  0
  137.7684   71.3589  223.9048 H   0  0  0  0  0  0  0  0  0  0  0  0
  141.4850   72.3520  218.1270 H   0  0  0  0  0  0  0  0  0  0  0  0
  142.9927   70.4953  219.7555 H   0  0  0  0  0  0  0  0  0  0  0  0
  143.3900   70.9615  218.0741 H   0  0  0  0  0  0  0  0  0  0  0  0
  145.2514   71.6482  219.2526 H   0  0  0  0  0  0  0  0  0  0  0  0
  145.1064   73.5819  218.1870 H   0  0  0  0  0  0  0  0  0  0  0  0
  143.3801   73.8014  218.6087 H   0  0  0  0  0  0  0  0  0  0  0  0
  145.0462   75.4809  219.6184 H   0  0  0  0  0  0  0  0  0  0  0  0
  143.9078   74.6594  220.7621 H   0  0  0  0  0  0  0  0  0  0  0  0
  146.8064   73.9218  220.2344 H   0  0  0  0  0  0  0  0  0  0  0  0
  146.1083   74.7357  221.7105 H   0  0  0  0  0  0  0  0  0  0  0  0
  146.3970   72.0420  221.1920 H   0  0  0  0  0  0  0  0  0  0  0  0
  144.2538   71.2179  221.5036 H   0  0  0  0  0  0  0  0  0  0  0  0
  143.6039   72.8910  221.4649 H   0  0  0  0  0  0  0  0  0  0  0  0
  140.8501   76.2975  219.3614 H   0  0  0  0  0  0  0  0  0  0  0  0
  139.7629   77.4368  220.1685 H   0  0  0  0  0  0  0  0  0  0  0  0
  142.8474   77.5267  220.4784 H   0  0  0  0  0  0  0  0  0  0  0  0
  142.0142   78.4948  219.2725 H   0  0  0  0  0  0  0  0  0  0  0  0
  141.8068   80.7424  220.1838 H   0  0  0  0  0  0  0  0  0  0  0  0
  141.1263   82.2517  222.0337 H   0  0  0  0  0  0  0  0  0  0  0  0
  140.4257   81.2657  224.2250 H   0  0  0  0  0  0  0  0  0  0  0  0
  140.4127   78.8334  224.5090 H   0  0  0  0  0  0  0  0  0  0  0  0
  142.0286   76.5784  223.1808 H   0  0  0  0  0  0  0  0  0  0  0  0
  140.2307   76.6371  223.3851 H   0  0  0  0  0  0  0  0  0  0  0  0
  141.4920   71.8682  224.4676 H   0  0  0  0  0  0  0  0  0  0  0  0
  139.9875   72.5145  225.2518 H   0  0  0  0  0  0  0  0  0  0  0  0
  1  2  2  0
  2  3  1  0
  3  4  2  0
  4  5  1  0
  5  6  2  0
  5  7  1  0
  7  8  1  0
  8  9  1  0
  9 10  1  0
 10 11  2  0
 11 12  1  0
 12 13  1  0
 13 14  1  0
 14 15  1  0
 15 16  1  0
 16 17  1  0
 17 18  1  0
 18 19  1  0
 19 20  1  0
 12 21  2  0
 21 22  1  0
 22 23  1  0
 23 24  1  0
 24 25  1  0
 25 26  1  0
 26 27  2  0
 27 28  1  0
 28 29  2  0
 29 30  1  0
 30 31  2  0
 31 32  1  0
 22 33  2  0
  9 34  1  0
  6  1  1  0
 33 10  1  0
 34  4  1  0
 20 15  1  0
 32 23  1  0
 31 26  1  0
  1 35  1  0
  2 36  1  0
  3 37  1  0
  6 38  1  0
  7 39  1  0
  7 40  1  0
  8 41  1  0
  8 42  1  0
 13 43  1  0
 14 44  1  0
 14 45  1  0
 15 46  1  6
 16 47  1  0
 16 48  1  0
 17 49  1  0
 17 50  1  0
 18 51  1  0
 18 52  1  0
 19 53  1  0
 20 54  1  0
 20 55  1  0
 24 56  1  0
 24 57  1  0
 25 58  1  0
 25 59  1  0
 27 60  1  0
 28 61  1  0
 29 62  1  0
 30 63  1  0
 32 64  1  0
 32 65  1  0
 34 66  1  0
 34 67  1  0
M  END
>  <smiles>  (81) 
c1ccc2c(c1)CCN(c1nc(NCC3CCCNC3)nc(N3CCc4ccccc4C3)n1)C2

>  <score_type>  (81) 
oracle

>  <origin>  (81) 
autodockgpu

>  <m_score__min__energy>  (81) 
-10.529999999999999

>  <m_primary>  (81) 
energy

>  <rmsd>  (81) 
6.014096961674721

>  <m_score__min__rmsd>  (81) 
6.014096961674721

>  <meeko>  (81) 
{"free_energy": -9.71, "intermolecular_energy": -11.2, "internal_energy": -1.36, "cluster_size": 44, "cluster_id": 1, "rank_in_cluster": 20}

>  <energy>  (81) 
-9.56

>  <cluster_rmsd>  (81) 
0.84

>  <cluster>  (81) 
1

$$$$

     RDKit          3D

 67 72  0  0  0  0  0  0  0  0999 V2000
  139.9920   68.4510  227.4120 C   0  0  0  0  0  0  0  0  0  0  0  0
  140.6480   69.5800  227.8900 C   0  0  0  0  0  0  0  0  0  0  0  0
  140.8520   70.7020  227.1010 C   0  0  0  0  0  0  0  0  0  0  0  0
  140.3690   70.6550  225.7960 C   0  0  0  0  0  0  0  0  0  0  0  0
  139.7180   69.5370  225.3210 C   0  0  0  0  0  0  0  0  0  0  0  0
  139.5170   68.4210  226.1130 C   0  0  0  0  0  0  0  0  0  0  0  0
  139.1860   69.4810  223.9120 C   0  0  0  0  0  0  0  0  0  0  0  0
  138.6980   70.9150  223.6290 C   0  0  0  0  0  0  0  0  0  0  0  0
  139.9320   71.7000  223.6460 N   0  0  0  0  0  0  0  0  0  0  0  0
  140.4550   72.3250  222.4660 C   0  0  0  0  0  0  0  0  0  0  0  0
  140.9350   71.5610  221.4410 N   0  0  0  0  0  0  0  0  0  0  0  0
  141.4720   72.1390  220.3250 C   0  0  0  0  0  0  0  0  0  0  0  0
  141.9330   71.2910  219.2860 N   0  0  0  0  0  0  0  0  0  0  0  0
  143.3100   70.9250  219.0780 C   0  0  0  0  0  0  0  0  0  0  0  0
  144.1870   72.1290  219.4070 C   0  0  1  0  0  0  0  0  0  0  0  0
  144.3660   72.3160  220.8770 C   0  0  0  0  0  0  0  0  0  0  0  0
  145.8000   72.7140  221.1460 C   0  0  0  0  0  0  0  0  0  0  0  0
  146.2680   73.7730  220.1750 C   0  0  0  0  0  0  0  0  0  0  0  0
  146.1520   73.3710  218.8000 N   0  0  0  0  0  0  0  0  0  0  0  0
  145.5160   72.0800  218.7070 C   0  0  0  0  0  0  0  0  0  0  0  0
  141.5200   73.4930  220.2490 N   0  0  0  0  0  0  0  0  0  0  0  0
  141.0450   74.2640  221.2580 C   0  0  0  0  0  0  0  0  0  0  0  0
  141.1350   75.6650  221.1360 N   0  0  0  0  0  0  0  0  0  0  0  0
  140.9510   76.4640  222.3420 C   0  0  0  0  0  0  0  0  0  0  0  0
  139.9470   77.5640  221.9650 C   0  0  0  0  0  0  0  0  0  0  0  0
  140.7220   78.4550  221.0320 C   0  0  0  0  0  0  0  0  0  0  0  0
  140.7390   79.8240  221.1750 C   0  0  0  0  0  0  0  0  0  0  0  0
  141.4600   80.6010  220.2970 C   0  0  0  0  0  0  0  0  0  0  0  0
  142.1650   79.9870  219.2700 C   0  0  0  0  0  0  0  0  0  0  0  0
  142.1260   78.6210  219.1570 C   0  0  0  0  0  0  0  0  0  0  0  0
  141.4160   77.8000  220.0160 C   0  0  0  0  0  0  0  0  0  0  0  0
  141.3960   76.3180  219.8690 C   0  0  0  0  0  0  0  0  0  0  0  0
  140.5230   73.6600  222.3460 N   0  0  0  0  0  0  0  0  0  0  0  0
  140.5830   71.8390  224.9390 C   0  0  0  0  0  0  0  0  0  0  0  0
  139.8504   67.5796  228.0683 H   0  0  0  0  0  0  0  0  0  0  0  0
  141.0166   69.5832  228.9264 H   0  0  0  0  0  0  0  0  0  0  0  0
  141.3725   71.5900  227.4890 H   0  0  0  0  0  0  0  0  0  0  0  0
  138.9948   67.5356  225.7215 H   0  0  0  0  0  0  0  0  0  0  0  0
  139.9803   69.1940  223.2072 H   0  0  0  0  0  0  0  0  0  0  0  0
  138.3858   68.7352  223.7954 H   0  0  0  0  0  0  0  0  0  0  0  0
  138.2051   70.9770  222.6476 H   0  0  0  0  0  0  0  0  0  0  0  0
  137.9533   71.2679  224.3576 H   0  0  0  0  0  0  0  0  0  0  0  0
  141.1730   70.9240  218.6370 H   0  0  0  0  0  0  0  0  0  0  0  0
  143.5735   70.0835  219.7356 H   0  0  0  0  0  0  0  0  0  0  0  0
  143.4649   70.6210  218.0322 H   0  0  0  0  0  0  0  0  0  0  0  0
  143.6459   73.0070  219.0246 H   0  0  0  0  0  0  0  0  0  0  0  0
  143.6896   73.1064  221.2343 H   0  0  0  0  0  0  0  0  0  0  0  0
  144.1326   71.3793  221.4043 H   0  0  0  0  0  0  0  0  0  0  0  0
  145.8762   73.1082  222.1701 H   0  0  0  0  0  0  0  0  0  0  0  0
  146.4358   71.8249  221.0225 H   0  0  0  0  0  0  0  0  0  0  0  0
  145.6625   74.6787  220.3268 H   0  0  0  0  0  0  0  0  0  0  0  0
  147.3349   73.9512  220.3747 H   0  0  0  0  0  0  0  0  0  0  0  0
  145.5450   74.0430  218.2790 H   0  0  0  0  0  0  0  0  0  0  0  0
  145.3645   71.8205  217.6488 H   0  0  0  0  0  0  0  0  0  0  0  0
  146.1543   71.3200  219.1813 H   0  0  0  0  0  0  0  0  0  0  0  0
  140.5504   75.8422  223.1562 H   0  0  0  0  0  0  0  0  0  0  0  0
  141.9022   76.8877  222.6964 H   0  0  0  0  0  0  0  0  0  0  0  0
  139.0691   77.1362  221.4589 H   0  0  0  0  0  0  0  0  0  0  0  0
  139.5580   78.1027  222.8416 H   0  0  0  0  0  0  0  0  0  0  0  0
  140.1754   80.2978  221.9923 H   0  0  0  0  0  0  0  0  0  0  0  0
  141.4776   81.6953  220.4074 H   0  0  0  0  0  0  0  0  0  0  0  0
  142.7471   80.5887  218.5565 H   0  0  0  0  0  0  0  0  0  0  0  0
  142.6905   78.1514  218.3380 H   0  0  0  0  0  0  0  0  0  0  0  0
  140.6079   76.0398  219.1538 H   0  0  0  0  0  0  0  0  0  0  0  0
  142.3828   75.9923  219.5082 H   0  0  0  0  0  0  0  0  0  0  0  0
  141.6633   71.9720  224.7803 H   0  0  0  0  0  0  0  0  0  0  0  0
  140.1455   72.7105  225.4479 H   0  0  0  0  0  0  0  0  0  0  0  0
  1  2  2  0
  2  3  1  0
  3  4  2  0
  4  5  1  0
  5  6  2  0
  5  7  1  0
  7  8  1  0
  8  9  1  0
  9 10  1  0
 10 11  2  0
 11 12  1  0
 12 13  1  0
 13 14  1  0
 14 15  1  0
 15 16  1  0
 16 17  1  0
 17 18  1  0
 18 19  1  0
 19 20  1  0
 12 21  2  0
 21 22  1  0
 22 23  1  0
 23 24  1  0
 24 25  1  0
 25 26  1  0
 26 27  2  0
 27 28  1  0
 28 29  2  0
 29 30  1  0
 30 31  2  0
 31 32  1  0
 22 33  2  0
  9 34  1  0
  6  1  1  0
 33 10  1  0
 34  4  1  0
 20 15  1  0
 32 23  1  0
 31 26  1  0
  1 35  1  0
  2 36  1  0
  3 37  1  0
  6 38  1  0
  7 39  1  0
  7 40  1  0
  8 41  1  0
  8 42  1  0
 13 43  1  0
 14 44  1  0
 14 45  1  0
 15 46  1  6
 16 47  1  0
 16 48  1  0
 17 49  1  0
 17 50  1  0
 18 51  1  0
 18 52  1  0
 19 53  1  0
 20 54  1  0
 20 55  1  0
 24 56  1  0
 24 57  1  0
 25 58  1  0
 25 59  1  0
 27 60  1  0
 28 61  1  0
 29 62  1  0
 30 63  1  0
 32 64  1  0
 32 65  1  0
 34 66  1  0
 34 67  1  0
M  END
>  <smiles>  (82) 
c1ccc2c(c1)CCN(c1nc(NCC3CCCNC3)nc(N3CCc4ccccc4C3)n1)C2

>  <score_type>  (82) 
oracle

>  <origin>  (82) 
autodockgpu

>  <m_score__min__energy>  (82) 
-10.529999999999999

>  <m_primary>  (82) 
energy

>  <rmsd>  (82) 
6.62411812954188

>  <m_score__min__rmsd>  (82) 
6.62411812954188

>  <meeko>  (82) 
{"free_energy": -9.82, "intermolecular_energy": -11.31, "internal_energy": -1.05, "cluster_size": 44, "cluster_id": 1, "rank_in_cluster": 16}

>  <energy>  (82) 
-9.56

>  <cluster_rmsd>  (82) 
1.41

>  <cluster>  (82) 
1

$$$$

     RDKit          3D

 67 72  0  0  0  0  0  0  0  0999 V2000
  139.7140   67.9390  226.5640 C   0  0  0  0  0  0  0  0  0  0  0  0
  140.4090   68.9620  227.1990 C   0  0  0  0  0  0  0  0  0  0  0  0
  140.6310   70.1890  226.5910 C   0  0  0  0  0  0  0  0  0  0  0  0
  140.1240   70.3600  225.3060 C   0  0  0  0  0  0  0  0  0  0  0  0
  139.4350   69.3470  224.6760 C   0  0  0  0  0  0  0  0  0  0  0  0
  139.2160   68.1250  225.2860 C   0  0  0  0  0  0  0  0  0  0  0  0
  138.8770   69.5260  223.2870 C   0  0  0  0  0  0  0  0  0  0  0  0
  138.4250   70.9980  223.2420 C   0  0  0  0  0  0  0  0  0  0  0  0
  139.6800   71.7400  223.3560 N   0  0  0  0  0  0  0  0  0  0  0  0
  140.2000   72.5290  222.2780 C   0  0  0  0  0  0  0  0  0  0  0  0
  140.6880   71.9220  221.1560 N   0  0  0  0  0  0  0  0  0  0  0  0
  141.2220   72.6560  220.1350 C   0  0  0  0  0  0  0  0  0  0  0  0
  141.6920   71.9680  218.9870 N   0  0  0  0  0  0  0  0  0  0  0  0
  143.0730   71.8840  218.5900 C   0  0  0  0  0  0  0  0  0  0  0  0
  143.9210   72.6120  219.6280 C   0  0  1  0  0  0  0  0  0  0  0  0
  145.2360   71.9430  219.8570 C   0  0  0  0  0  0  0  0  0  0  0  0
  146.3030   73.0060  219.9990 C   0  0  0  0  0  0  0  0  0  0  0  0
  145.8460   74.1280  220.9010 C   0  0  0  0  0  0  0  0  0  0  0  0
  144.6300   74.7540  220.4550 N   0  0  0  0  0  0  0  0  0  0  0  0
  144.1080   74.0670  219.2990 C   0  0  0  0  0  0  0  0  0  0  0  0
  141.2600   74.0080  220.2510 N   0  0  0  0  0  0  0  0  0  0  0  0
  140.7770   74.6250  221.3590 C   0  0  0  0  0  0  0  0  0  0  0  0
  140.8570   76.0300  221.4360 N   0  0  0  0  0  0  0  0  0  0  0  0
  140.7330   76.7840  220.1940 C   0  0  0  0  0  0  0  0  0  0  0  0
  141.9000   77.7830  220.1950 C   0  0  0  0  0  0  0  0  0  0  0  0
  141.5330   78.7650  221.2750 C   0  0  0  0  0  0  0  0  0  0  0  0
  141.5970   80.1250  221.0790 C   0  0  0  0  0  0  0  0  0  0  0  0
  141.2540   80.9870  222.0960 C   0  0  0  0  0  0  0  0  0  0  0  0
  140.8460   80.4660  223.3180 C   0  0  0  0  0  0  0  0  0  0  0  0
  140.7950   79.1040  223.4790 C   0  0  0  0  0  0  0  0  0  0  0  0
  141.1290   78.2010  222.4850 C   0  0  0  0  0  0  0  0  0  0  0  0
  141.0580   76.7270  222.6890 C   0  0  0  0  0  0  0  0  0  0  0  0
  140.2580   73.8680  222.3480 N   0  0  0  0  0  0  0  0  0  0  0  0
  140.3560   71.6570  224.6410 C   0  0  0  0  0  0  0  0  0  0  0  0
  139.5595   66.9792  227.0786 H   0  0  0  0  0  0  0  0  0  0  0  0
  140.7949   68.7932  228.2152 H   0  0  0  0  0  0  0  0  0  0  0  0
  141.1834   70.9914  227.1019 H   0  0  0  0  0  0  0  0  0  0  0  0
  138.6630   67.3255  224.7712 H   0  0  0  0  0  0  0  0  0  0  0  0
  139.6505   69.3330  222.5290 H   0  0  0  0  0  0  0  0  0  0  0  0
  138.0541   68.8282  223.0727 H   0  0  0  0  0  0  0  0  0  0  0  0
  137.9178   71.2254  222.2928 H   0  0  0  0  0  0  0  0  0  0  0  0
  137.7028   71.2505  224.0324 H   0  0  0  0  0  0  0  0  0  0  0  0
  140.9340   71.4950  218.4070 H   0  0  0  0  0  0  0  0  0  0  0  0
  143.3795   70.8290  218.5345 H   0  0  0  0  0  0  0  0  0  0  0  0
  143.2093   72.3462  217.6012 H   0  0  0  0  0  0  0  0  0  0  0  0
  143.3543   72.5584  220.5693 H   0  0  0  0  0  0  0  0  0  0  0  0
  145.1895   71.3402  220.7759 H   0  0  0  0  0  0  0  0  0  0  0  0
  145.4740   71.2842  219.0089 H   0  0  0  0  0  0  0  0  0  0  0  0
  147.2083   72.5497  220.4258 H   0  0  0  0  0  0  0  0  0  0  0  0
  146.5096   73.4246  219.0030 H   0  0  0  0  0  0  0  0  0  0  0  0
  145.6801   73.7206  221.9092 H   0  0  0  0  0  0  0  0  0  0  0  0
  146.6325   74.8970  220.8904 H   0  0  0  0  0  0  0  0  0  0  0  0
  143.9000   74.6900  221.1980 H   0  0  0  0  0  0  0  0  0  0  0  0
  143.1404   74.5070  219.0159 H   0  0  0  0  0  0  0  0  0  0  0  0
  144.8134   74.1676  218.4610 H   0  0  0  0  0  0  0  0  0  0  0  0
  140.8058   76.1102  219.3275 H   0  0  0  0  0  0  0  0  0  0  0  0
  139.7614   77.2952  220.1250 H   0  0  0  0  0  0  0  0  0  0  0  0
  142.8480   77.2775  220.4310 H   0  0  0  0  0  0  0  0  0  0  0  0
  142.0488   78.2634  219.2167 H   0  0  0  0  0  0  0  0  0  0  0  0
  141.9230   80.5247  220.1074 H   0  0  0  0  0  0  0  0  0  0  0  0
  141.3023   82.0753  221.9432 H   0  0  0  0  0  0  0  0  0  0  0  0
  140.5677   81.1360  224.1448 H   0  0  0  0  0  0  0  0  0  0  0  0
  140.4705   78.7080  224.4526 H   0  0  0  0  0  0  0  0  0  0  0  0
  141.9988   76.3827  223.1433 H   0  0  0  0  0  0  0  0  0  0  0  0
  140.2043   76.5091  223.3475 H   0  0  0  0  0  0  0  0  0  0  0  0
  141.4368   71.7863  224.4825 H   0  0  0  0  0  0  0  0  0  0  0  0
  139.9510   72.4480  225.2893 H   0  0  0  0  0  0  0  0  0  0  0  0
  1  2  2  0
  2  3  1  0
  3  4  2  0
  4  5  1  0
  5  6  2  0
  5  7  1  0
  7  8  1  0
  8  9  1  0
  9 10  1  0
 10 11  2  0
 11 12  1  0
 12 13  1  0
 13 14  1  0
 14 15  1  0
 15 16  1  0
 16 17  1  0
 17 18  1  0
 18 19  1  0
 19 20  1  0
 12 21  2  0
 21 22  1  0
 22 23  1  0
 23 24  1  0
 24 25  1  0
 25 26  1  0
 26 27  2  0
 27 28  1  0
 28 29  2  0
 29 30  1  0
 30 31  2  0
 31 32  1  0
 22 33  2  0
  9 34  1  0
  6  1  1  0
 33 10  1  0
 34  4  1  0
 20 15  1  0
 32 23  1  0
 31 26  1  0
  1 35  1  0
  2 36  1  0
  3 37  1  0
  6 38  1  0
  7 39  1  0
  7 40  1  0
  8 41  1  0
  8 42  1  0
 13 43  1  0
 14 44  1  0
 14 45  1  0
 15 46  1  1
 16 47  1  0
 16 48  1  0
 17 49  1  0
 17 50  1  0
 18 51  1  0
 18 52  1  0
 19 53  1  0
 20 54  1  0
 20 55  1  0
 24 56  1  0
 24 57  1  0
 25 58  1  0
 25 59  1  0
 27 60  1  0
 28 61  1  0
 29 62  1  0
 30 63  1  0
 32 64  1  0
 32 65  1  0
 34 66  1  0
 34 67  1  0
M  END
>  <smiles>  (83) 
c1ccc2c(c1)CCN(c1nc(NCC3CCCNC3)nc(N3CCc4ccccc4C3)n1)C2

>  <score_type>  (83) 
oracle

>  <origin>  (83) 
autodockgpu

>  <m_score__min__energy>  (83) 
-10.529999999999999

>  <m_primary>  (83) 
energy

>  <rmsd>  (83) 
5.949629951825363

>  <m_score__min__rmsd>  (83) 
5.949629951825363

>  <meeko>  (83) 
{"free_energy": -9.61, "intermolecular_energy": -11.1, "internal_energy": -1.39, "cluster_size": 44, "cluster_id": 1, "rank_in_cluster": 25}

>  <energy>  (83) 
-9.56

>  <cluster_rmsd>  (83) 
1.31

>  <cluster>  (83) 
1

$$$$

     RDKit          3D

 67 72  0  0  0  0  0  0  0  0999 V2000
  139.6870   80.3350  223.6270 C   0  0  0  0  0  0  0  0  0  0  0  0
  140.9730   80.2960  223.0980 C   0  0  0  0  0  0  0  0  0  0  0  0
  141.4520   79.1910  222.4100 C   0  0  0  0  0  0  0  0  0  0  0  0
  140.5870   78.1100  222.2660 C   0  0  0  0  0  0  0  0  0  0  0  0
  139.3120   78.1480  222.7880 C   0  0  0  0  0  0  0  0  0  0  0  0
  138.8390   79.2520  223.4740 C   0  0  0  0  0  0  0  0  0  0  0  0
  138.3670   76.9850  222.6300 C   0  0  0  0  0  0  0  0  0  0  0  0
  138.6790   76.4240  221.2290 C   0  0  0  0  0  0  0  0  0  0  0  0
  140.0450   75.9190  221.3650 N   0  0  0  0  0  0  0  0  0  0  0  0
  140.3500   74.5200  221.2970 C   0  0  0  0  0  0  0  0  0  0  0  0
  140.7810   73.9670  220.1250 N   0  0  0  0  0  0  0  0  0  0  0  0
  141.0400   72.6290  220.0310 C   0  0  0  0  0  0  0  0  0  0  0  0
  141.5060   72.1200  218.7920 N   0  0  0  0  0  0  0  0  0  0  0  0
  142.8780   72.1510  218.3580 C   0  0  0  0  0  0  0  0  0  0  0  0
  143.7210   72.7890  219.4580 C   0  0  1  0  0  0  0  0  0  0  0  0
  144.9900   72.0430  219.7040 C   0  0  0  0  0  0  0  0  0  0  0  0
  146.1030   73.0410  219.9330 C   0  0  0  0  0  0  0  0  0  0  0  0
  145.6690   74.1460  220.8670 C   0  0  0  0  0  0  0  0  0  0  0  0
  144.5050   74.8530  220.4050 N   0  0  0  0  0  0  0  0  0  0  0  0
  143.9940   74.2440  219.2010 C   0  0  0  0  0  0  0  0  0  0  0  0
  140.8620   71.8510  221.1280 N   0  0  0  0  0  0  0  0  0  0  0  0
  140.4360   72.3860  222.3000 C   0  0  0  0  0  0  0  0  0  0  0  0
  140.2520   71.5300  223.4040 N   0  0  0  0  0  0  0  0  0  0  0  0
  139.6010   70.2470  223.1650 C   0  0  0  0  0  0  0  0  0  0  0  0
  138.5140   70.1240  224.2430 C   0  0  0  0  0  0  0  0  0  0  0  0
  139.2900   69.9250  225.5170 C   0  0  0  0  0  0  0  0  0  0  0  0
  138.9760   68.9330  226.4170 C   0  0  0  0  0  0  0  0  0  0  0  0
  139.7130   68.7890  227.5720 C   0  0  0  0  0  0  0  0  0  0  0  0
  140.7700   69.6560  227.8140 C   0  0  0  0  0  0  0  0  0  0  0  0
  141.0540   70.6350  226.8950 C   0  0  0  0  0  0  0  0  0  0  0  0
  140.3430   70.8160  225.7220 C   0  0  0  0  0  0  0  0  0  0  0  0
  140.6790   71.8860  224.7420 C   0  0  0  0  0  0  0  0  0  0  0  0
  140.1900   73.7110  222.3560 N   0  0  0  0  0  0  0  0  0  0  0  0
  141.0820   76.9230  221.5410 C   0  0  0  0  0  0  0  0  0  0  0  0
  139.3432   81.2288  224.1682 H   0  0  0  0  0  0  0  0  0  0  0  0
  141.6302   81.1683  223.2294 H   0  0  0  0  0  0  0  0  0  0  0  0
  142.4710   79.1699  221.9962 H   0  0  0  0  0  0  0  0  0  0  0  0
  137.8191   79.2687  223.8857 H   0  0  0  0  0  0  0  0  0  0  0  0
  138.5524   76.2252  223.4035 H   0  0  0  0  0  0  0  0  0  0  0  0
  137.3137   77.2836  222.7367 H   0  0  0  0  0  0  0  0  0  0  0  0
  137.9837   75.6134  220.9653 H   0  0  0  0  0  0  0  0  0  0  0  0
  138.5751   77.1748  220.4318 H   0  0  0  0  0  0  0  0  0  0  0  0
  140.7520   71.6950  218.1700 H   0  0  0  0  0  0  0  0  0  0  0  0
  143.2301   71.1263  218.1682 H   0  0  0  0  0  0  0  0  0  0  0  0
  142.9660   72.7350  217.4300 H   0  0  0  0  0  0  0  0  0  0  0  0
  143.1165   72.7255  220.3748 H   0  0  0  0  0  0  0  0  0  0  0  0
  144.8774   71.4040  220.5922 H   0  0  0  0  0  0  0  0  0  0  0  0
  145.2269   71.4103  218.8359 H   0  0  0  0  0  0  0  0  0  0  0  0
  146.9664   72.5197  220.3721 H   0  0  0  0  0  0  0  0  0  0  0  0
  146.3694   73.4906  218.9651 H   0  0  0  0  0  0  0  0  0  0  0  0
  145.4435   73.7052  221.8493 H   0  0  0  0  0  0  0  0  0  0  0  0
  146.4934   74.8723  220.9198 H   0  0  0  0  0  0  0  0  0  0  0  0
  143.7440   74.7960  221.1170 H   0  0  0  0  0  0  0  0  0  0  0  0
  143.0617   74.7457  218.9026 H   0  0  0  0  0  0  0  0  0  0  0  0
  144.7355   74.3430  218.3945 H   0  0  0  0  0  0  0  0  0  0  0  0
  139.1501   70.2269  222.1619 H   0  0  0  0  0  0  0  0  0  0  0  0
  140.3171   69.4135  223.2142 H   0  0  0  0  0  0  0  0  0  0  0  0
  137.9070   71.0400  224.2933 H   0  0  0  0  0  0  0  0  0  0  0  0
  137.8085   69.3040  224.0430 H   0  0  0  0  0  0  0  0  0  0  0  0
  138.1350   68.2536  226.2141 H   0  0  0  0  0  0  0  0  0  0  0  0
  139.4669   67.9964  228.2940 H   0  0  0  0  0  0  0  0  0  0  0  0
  141.3717   69.5596  228.7298 H   0  0  0  0  0  0  0  0  0  0  0  0
  141.8942   71.3139  227.1027 H   0  0  0  0  0  0  0  0  0  0  0  0
  140.1763   72.8172  225.0423 H   0  0  0  0  0  0  0  0  0  0  0  0
  141.7711   72.0174  224.7336 H   0  0  0  0  0  0  0  0  0  0  0  0
  141.9121   76.4798  222.1107 H   0  0  0  0  0  0  0  0  0  0  0  0
  141.4121   77.2481  220.5434 H   0  0  0  0  0  0  0  0  0  0  0  0
  1  2  2  0
  2  3  1  0
  3  4  2  0
  4  5  1  0
  5  6  2  0
  5  7  1  0
  7  8  1  0
  8  9  1  0
  9 10  1  0
 10 11  2  0
 11 12  1  0
 12 13  1  0
 13 14  1  0
 14 15  1  0
 15 16  1  0
 16 17  1  0
 17 18  1  0
 18 19  1  0
 19 20  1  0
 12 21  2  0
 21 22  1  0
 22 23  1  0
 23 24  1  0
 24 25  1  0
 25 26  1  0
 26 27  2  0
 27 28  1  0
 28 29  2  0
 29 30  1  0
 30 31  2  0
 31 32  1  0
 22 33  2  0
  9 34  1  0
  6  1  1  0
 33 10  1  0
 34  4  1  0
 20 15  1  0
 32 23  1  0
 31 26  1  0
  1 35  1  0
  2 36  1  0
  3 37  1  0
  6 38  1  0
  7 39  1  0
  7 40  1  0
  8 41  1  0
  8 42  1  0
 13 43  1  0
 14 44  1  0
 14 45  1  0
 15 46  1  1
 16 47  1  0
 16 48  1  0
 17 49  1  0
 17 50  1  0
 18 51  1  0
 18 52  1  0
 19 53  1  0
 20 54  1  0
 20 55  1  0
 24 56  1  0
 24 57  1  0
 25 58  1  0
 25 59  1  0
 27 60  1  0
 28 61  1  0
 29 62  1  0
 30 63  1  0
 32 64  1  0
 32 65  1  0
 34 66  1  0
 34 67  1  0
M  END
>  <smiles>  (84) 
c1ccc2c(c1)CCN(c1nc(NCC3CCCNC3)nc(N3CCc4ccccc4C3)n1)C2

>  <score_type>  (84) 
oracle

>  <origin>  (84) 
autodockgpu

>  <m_score__min__energy>  (84) 
-10.529999999999999

>  <m_primary>  (84) 
energy

>  <rmsd>  (84) 
5.7302064702585636

>  <m_score__min__rmsd>  (84) 
5.7302064702585636

>  <meeko>  (84) 
{"free_energy": -9.56, "intermolecular_energy": -11.05, "internal_energy": -1.31, "cluster_size": 44, "cluster_id": 1, "rank_in_cluster": 33}

>  <energy>  (84) 
-9.55

>  <cluster_rmsd>  (84) 
1.32

>  <cluster>  (84) 
1

$$$$

     RDKit          3D

 67 72  0  0  0  0  0  0  0  0999 V2000
  139.7080   80.3910  223.8300 C   0  0  0  0  0  0  0  0  0  0  0  0
  140.9960   80.3830  223.3050 C   0  0  0  0  0  0  0  0  0  0  0  0
  141.4890   79.3060  222.5820 C   0  0  0  0  0  0  0  0  0  0  0  0
  140.6350   78.2220  222.4000 C   0  0  0  0  0  0  0  0  0  0  0  0
  139.3590   78.2290  222.9190 C   0  0  0  0  0  0  0  0  0  0  0  0
  138.8720   79.3050  223.6400 C   0  0  0  0  0  0  0  0  0  0  0  0
  138.4270   77.0610  222.7200 C   0  0  0  0  0  0  0  0  0  0  0  0
  138.7480   76.5500  221.3030 C   0  0  0  0  0  0  0  0  0  0  0  0
  140.1190   76.0560  221.4260 N   0  0  0  0  0  0  0  0  0  0  0  0
  140.4400   74.6630  221.3130 C   0  0  0  0  0  0  0  0  0  0  0  0
  140.9170   74.1610  220.1360 N   0  0  0  0  0  0  0  0  0  0  0  0
  141.1910   72.8300  219.9990 C   0  0  0  0  0  0  0  0  0  0  0  0
  141.7060   72.3750  218.7580 N   0  0  0  0  0  0  0  0  0  0  0  0
  142.5830   73.1340  217.9070 C   0  0  0  0  0  0  0  0  0  0  0  0
  143.9390   73.2600  218.5970 C   0  0  1  0  0  0  0  0  0  0  0  0
  143.9570   74.3500  219.6170 C   0  0  0  0  0  0  0  0  0  0  0  0
  144.7350   73.8740  220.8220 C   0  0  0  0  0  0  0  0  0  0  0  0
  146.0160   73.1830  220.4140 C   0  0  0  0  0  0  0  0  0  0  0  0
  145.8010   72.0670  219.5340 N   0  0  0  0  0  0  0  0  0  0  0  0
  144.4040   71.9610  219.1910 C   0  0  0  0  0  0  0  0  0  0  0  0
  140.9820   72.0070  221.0570 N   0  0  0  0  0  0  0  0  0  0  0  0
  140.5100   72.4910  222.2330 C   0  0  0  0  0  0  0  0  0  0  0  0
  140.2950   71.5900  223.2950 N   0  0  0  0  0  0  0  0  0  0  0  0
  139.6480   70.3200  222.9850 C   0  0  0  0  0  0  0  0  0  0  0  0
  138.5320   70.1550  224.0280 C   0  0  0  0  0  0  0  0  0  0  0  0
  139.2740   69.9010  225.3120 C   0  0  0  0  0  0  0  0  0  0  0  0
  138.9340   68.8720  226.1610 C   0  0  0  0  0  0  0  0  0  0  0  0
  139.6390   68.6780  227.3280 C   0  0  0  0  0  0  0  0  0  0  0  0
  140.6910   69.5310  227.6340 C   0  0  0  0  0  0  0  0  0  0  0  0
  141.0020   70.5470  226.7650 C   0  0  0  0  0  0  0  0  0  0  0  0
  140.3220   70.7790  225.5820 C   0  0  0  0  0  0  0  0  0  0  0  0
  140.6860   71.8880  224.6570 C   0  0  0  0  0  0  0  0  0  0  0  0
  140.2490   73.8110  222.3330 N   0  0  0  0  0  0  0  0  0  0  0  0
  141.1450   77.0640  221.6380 C   0  0  0  0  0  0  0  0  0  0  0  0
  139.3529   81.2635  224.3981 H   0  0  0  0  0  0  0  0  0  0  0  0
  141.6436   81.2571  223.4679 H   0  0  0  0  0  0  0  0  0  0  0  0
  142.5093   79.3088  222.1710 H   0  0  0  0  0  0  0  0  0  0  0  0
  137.8512   79.2972  224.0497 H   0  0  0  0  0  0  0  0  0  0  0  0
  138.6190   76.2782  223.4686 H   0  0  0  0  0  0  0  0  0  0  0  0
  137.3702   77.3445  222.8335 H   0  0  0  0  0  0  0  0  0  0  0  0
  138.0623   75.7409  221.0112 H   0  0  0  0  0  0  0  0  0  0  0  0
  138.6375   77.3253  220.5305 H   0  0  0  0  0  0  0  0  0  0  0  0
  141.3930   71.3970  218.4750 H   0  0  0  0  0  0  0  0  0  0  0  0
  142.7037   72.6173  216.9434 H   0  0  0  0  0  0  0  0  0  0  0  0
  142.1592   74.1325  217.7241 H   0  0  0  0  0  0  0  0  0  0  0  0
  144.6535   73.5339  217.8067 H   0  0  0  0  0  0  0  0  0  0  0  0
  144.4392   75.2440  219.1948 H   0  0  0  0  0  0  0  0  0  0  0  0
  142.9282   74.6040  219.9119 H   0  0  0  0  0  0  0  0  0  0  0  0
  144.9812   74.7400  221.4540 H   0  0  0  0  0  0  0  0  0  0  0  0
  144.1131   73.1530  221.3727 H   0  0  0  0  0  0  0  0  0  0  0  0
  146.6596   73.9134  219.9018 H   0  0  0  0  0  0  0  0  0  0  0  0
  146.4831   72.7922  221.3300 H   0  0  0  0  0  0  0  0  0  0  0  0
  146.3200   72.2090  218.6400 H   0  0  0  0  0  0  0  0  0  0  0  0
  144.2657   71.1517  218.4589 H   0  0  0  0  0  0  0  0  0  0  0  0
  143.8183   71.7385  220.0951 H   0  0  0  0  0  0  0  0  0  0  0  0
  139.2239   70.3435  221.9703 H   0  0  0  0  0  0  0  0  0  0  0  0
  140.3610   69.4830  223.0181 H   0  0  0  0  0  0  0  0  0  0  0  0
  137.9253   71.0697  224.1006 H   0  0  0  0  0  0  0  0  0  0  0  0
  137.8305   69.3462  223.7754 H   0  0  0  0  0  0  0  0  0  0  0  0
  138.0980   68.2038  225.9069 H   0  0  0  0  0  0  0  0  0  0  0  0
  139.3719   67.8570  228.0096 H   0  0  0  0  0  0  0  0  0  0  0  0
  141.2676   69.3944  228.5607 H   0  0  0  0  0  0  0  0  0  0  0  0
  141.8380   71.2137  227.0231 H   0  0  0  0  0  0  0  0  0  0  0  0
  140.1769   72.8072  224.9825 H   0  0  0  0  0  0  0  0  0  0  0  0
  141.7782   72.0163  224.6834 H   0  0  0  0  0  0  0  0  0  0  0  0
  141.9779   76.6110  222.1958 H   0  0  0  0  0  0  0  0  0  0  0  0
  141.4751   77.4248  220.6527 H   0  0  0  0  0  0  0  0  0  0  0  0
  1  2  2  0
  2  3  1  0
  3  4  2  0
  4  5  1  0
  5  6  2  0
  5  7  1  0
  7  8  1  0
  8  9  1  0
  9 10  1  0
 10 11  2  0
 11 12  1  0
 12 13  1  0
 13 14  1  0
 14 15  1  0
 15 16  1  0
 16 17  1  0
 17 18  1  0
 18 19  1  0
 19 20  1  0
 12 21  2  0
 21 22  1  0
 22 23  1  0
 23 24  1  0
 24 25  1  0
 25 26  1  0
 26 27  2  0
 27 28  1  0
 28 29  2  0
 29 30  1  0
 30 31  2  0
 31 32  1  0
 22 33  2  0
  9 34  1  0
  6  1  1  0
 33 10  1  0
 34  4  1  0
 20 15  1  0
 32 23  1  0
 31 26  1  0
  1 35  1  0
  2 36  1  0
  3 37  1  0
  6 38  1  0
  7 39  1  0
  7 40  1  0
  8 41  1  0
  8 42  1  0
 13 43  1  0
 14 44  1  0
 14 45  1  0
 15 46  1  6
 16 47  1  0
 16 48  1  0
 17 49  1  0
 17 50  1  0
 18 51  1  0
 18 52  1  0
 19 53  1  0
 20 54  1  0
 20 55  1  0
 24 56  1  0
 24 57  1  0
 25 58  1  0
 25 59  1  0
 27 60  1  0
 28 61  1  0
 29 62  1  0
 30 63  1  0
 32 64  1  0
 32 65  1  0
 34 66  1  0
 34 67  1  0
M  END
>  <smiles>  (85) 
c1ccc2c(c1)CCN(c1nc(NCC3CCCNC3)nc(N3CCc4ccccc4C3)n1)C2

>  <score_type>  (85) 
oracle

>  <origin>  (85) 
autodockgpu

>  <m_score__min__energy>  (85) 
-10.529999999999999

>  <m_primary>  (85) 
energy

>  <rmsd>  (85) 
5.731857228361075

>  <m_score__min__rmsd>  (85) 
5.731857228361075

>  <meeko>  (85) 
{"free_energy": -9.5, "intermolecular_energy": -10.99, "internal_energy": -1.27, "cluster_size": 44, "cluster_id": 1, "rank_in_cluster": 37}

>  <energy>  (85) 
-9.55

>  <cluster_rmsd>  (85) 
1.39

>  <cluster>  (85) 
1

$$$$

     RDKit          3D

 67 72  0  0  0  0  0  0  0  0999 V2000
  140.0550   68.1980  226.9760 C   0  0  0  0  0  0  0  0  0  0  0  0
  140.6800   69.3150  227.5220 C   0  0  0  0  0  0  0  0  0  0  0  0
  140.8200   70.4990  226.8130 C   0  0  0  0  0  0  0  0  0  0  0  0
  140.3050   70.5280  225.5200 C   0  0  0  0  0  0  0  0  0  0  0  0
  139.6860   69.4230  224.9780 C   0  0  0  0  0  0  0  0  0  0  0  0
  139.5490   68.2440  225.6890 C   0  0  0  0  0  0  0  0  0  0  0  0
  139.1200   69.4490  223.5820 C   0  0  0  0  0  0  0  0  0  0  0  0
  138.5700   70.8780  223.4170 C   0  0  0  0  0  0  0  0  0  0  0  0
  139.7730   71.7090  223.4640 N   0  0  0  0  0  0  0  0  0  0  0  0
  140.2410   72.4390  222.3220 C   0  0  0  0  0  0  0  0  0  0  0  0
  140.6740   71.7720  221.2120 N   0  0  0  0  0  0  0  0  0  0  0  0
  141.1590   72.4500  220.1290 C   0  0  0  0  0  0  0  0  0  0  0  0
  141.5730   71.7010  218.9980 N   0  0  0  0  0  0  0  0  0  0  0  0
  142.9220   71.2620  218.7550 C   0  0  0  0  0  0  0  0  0  0  0  0
  143.8790   72.3530  219.2230 C   0  0  1  0  0  0  0  0  0  0  0  0
  143.8890   72.5000  220.7090 C   0  0  0  0  0  0  0  0  0  0  0  0
  145.3130   72.7290  221.1640 C   0  0  0  0  0  0  0  0  0  0  0  0
  146.0160   73.7400  220.2880 C   0  0  0  0  0  0  0  0  0  0  0  0
  146.0310   73.3710  218.8990 N   0  0  0  0  0  0  0  0  0  0  0  0
  145.2720   72.1620  218.6930 C   0  0  0  0  0  0  0  0  0  0  0  0
  141.2020   73.8050  220.1710 N   0  0  0  0  0  0  0  0  0  0  0  0
  140.7740   74.4810  221.2670 C   0  0  0  0  0  0  0  0  0  0  0  0
  140.8570   75.8880  221.2660 N   0  0  0  0  0  0  0  0  0  0  0  0
  140.8960   76.5630  219.9740 C   0  0  0  0  0  0  0  0  0  0  0  0
  142.0640   77.5580  220.0580 C   0  0  0  0  0  0  0  0  0  0  0  0
  141.5750   78.6060  221.0210 C   0  0  0  0  0  0  0  0  0  0  0  0
  141.6770   79.9520  220.7500 C   0  0  0  0  0  0  0  0  0  0  0  0
  141.2190   80.8770  221.6610 C   0  0  0  0  0  0  0  0  0  0  0  0
  140.6570   80.4340  222.8520 C   0  0  0  0  0  0  0  0  0  0  0  0
  140.5720   79.0860  223.0900 C   0  0  0  0  0  0  0  0  0  0  0  0
  141.0180   78.1210  222.2030 C   0  0  0  0  0  0  0  0  0  0  0  0
  140.9080   76.6630  222.4890 C   0  0  0  0  0  0  0  0  0  0  0  0
  140.3020   73.7800  222.3180 N   0  0  0  0  0  0  0  0  0  0  0  0
  140.4510   71.7790  224.7480 C   0  0  0  0  0  0  0  0  0  0  0  0
  139.9630   67.2761  227.5690 H   0  0  0  0  0  0  0  0  0  0  0  0
  141.0750   69.2573  228.5470 H   0  0  0  0  0  0  0  0  0  0  0  0
  141.3162   71.3765  227.2532 H   0  0  0  0  0  0  0  0  0  0  0  0
  139.0524   67.3690  225.2442 H   0  0  0  0  0  0  0  0  0  0  0  0
  139.9061   69.2465  222.8396 H   0  0  0  0  0  0  0  0  0  0  0  0
  138.3462   68.6822  223.4294 H   0  0  0  0  0  0  0  0  0  0  0  0
  138.0501   70.9914  222.4543 H   0  0  0  0  0  0  0  0  0  0  0  0
  137.8311   71.1464  224.1864 H   0  0  0  0  0  0  0  0  0  0  0  0
  140.7970   71.4700  218.3050 H   0  0  0  0  0  0  0  0  0  0  0  0
  143.1162   70.3341  219.3129 H   0  0  0  0  0  0  0  0  0  0  0  0
  143.0674   71.0688  217.6819 H   0  0  0  0  0  0  0  0  0  0  0  0
  143.4927   73.2919  218.7997 H   0  0  0  0  0  0  0  0  0  0  0  0
  143.2649   73.3577  221.0003 H   0  0  0  0  0  0  0  0  0  0  0  0
  143.4873   71.5899  221.1784 H   0  0  0  0  0  0  0  0  0  0  0  0
  145.3026   73.0989  222.1999 H   0  0  0  0  0  0  0  0  0  0  0  0
  145.8559   71.7748  221.0956 H   0  0  0  0  0  0  0  0  0  0  0  0
  145.5012   74.7070  220.3875 H   0  0  0  0  0  0  0  0  0  0  0  0
  147.0621   73.7929  220.6239 H   0  0  0  0  0  0  0  0  0  0  0  0
  145.5740   74.1140  218.3250 H   0  0  0  0  0  0  0  0  0  0  0  0
  145.2279   71.9347  217.6176 H   0  0  0  0  0  0  0  0  0  0  0  0
  145.7564   71.3284  219.2226 H   0  0  0  0  0  0  0  0  0  0  0  0
  141.0691   75.8360  219.1668 H   0  0  0  0  0  0  0  0  0  0  0  0
  139.9457   77.0711  219.7533 H   0  0  0  0  0  0  0  0  0  0  0  0
  142.9705   77.0665  220.4409 H   0  0  0  0  0  0  0  0  0  0  0  0
  142.3379   77.9758  219.0780 H   0  0  0  0  0  0  0  0  0  0  0  0
  142.1253   80.2890  219.8037 H   0  0  0  0  0  0  0  0  0  0  0  0
  141.2970   81.9535  221.4486 H   0  0  0  0  0  0  0  0  0  0  0  0
  140.2850   81.1553  223.5946 H   0  0  0  0  0  0  0  0  0  0  0  0
  140.1247   78.7531  224.0382 H   0  0  0  0  0  0  0  0  0  0  0  0
  141.7819   76.3465  223.0773 H   0  0  0  0  0  0  0  0  0  0  0  0
  139.9774   76.4888  223.0490 H   0  0  0  0  0  0  0  0  0  0  0  0
  141.5210   71.9666  224.5748 H   0  0  0  0  0  0  0  0  0  0  0  0
  139.9934   72.5926  225.3299 H   0  0  0  0  0  0  0  0  0  0  0  0
  1  2  2  0
  2  3  1  0
  3  4  2  0
  4  5  1  0
  5  6  2  0
  5  7  1  0
  7  8  1  0
  8  9  1  0
  9 10  1  0
 10 11  2  0
 11 12  1  0
 12 13  1  0
 13 14  1  0
 14 15  1  0
 15 16  1  0
 16 17  1  0
 17 18  1  0
 18 19  1  0
 19 20  1  0
 12 21  2  0
 21 22  1  0
 22 23  1  0
 23 24  1  0
 24 25  1  0
 25 26  1  0
 26 27  2  0
 27 28  1  0
 28 29  2  0
 29 30  1  0
 30 31  2  0
 31 32  1  0
 22 33  2  0
  9 34  1  0
  6  1  1  0
 33 10  1  0
 34  4  1  0
 20 15  1  0
 32 23  1  0
 31 26  1  0
  1 35  1  0
  2 36  1  0
  3 37  1  0
  6 38  1  0
  7 39  1  0
  7 40  1  0
  8 41  1  0
  8 42  1  0
 13 43  1  0
 14 44  1  0
 14 45  1  0
 15 46  1  6
 16 47  1  0
 16 48  1  0
 17 49  1  0
 17 50  1  0
 18 51  1  0
 18 52  1  0
 19 53  1  0
 20 54  1  0
 20 55  1  0
 24 56  1  0
 24 57  1  0
 25 58  1  0
 25 59  1  0
 27 60  1  0
 28 61  1  0
 29 62  1  0
 30 63  1  0
 32 64  1  0
 32 65  1  0
 34 66  1  0
 34 67  1  0
M  END
>  <smiles>  (86) 
c1ccc2c(c1)CCN(c1nc(NCC3CCCNC3)nc(N3CCc4ccccc4C3)n1)C2

>  <score_type>  (86) 
oracle

>  <origin>  (86) 
autodockgpu

>  <m_score__min__energy>  (86) 
-10.529999999999999

>  <m_primary>  (86) 
energy

>  <rmsd>  (86) 
6.294395936905813

>  <m_score__min__rmsd>  (86) 
6.294395936905813

>  <meeko>  (86) 
{"free_energy": -10.42, "intermolecular_energy": -11.91, "internal_energy": -0.85, "cluster_size": 44, "cluster_id": 1, "rank_in_cluster": 4}

>  <energy>  (86) 
-9.54

>  <cluster_rmsd>  (86) 
0.76

>  <cluster>  (86) 
1

$$$$

     RDKit          3D

 67 72  0  0  0  0  0  0  0  0999 V2000
  139.5690   80.0910  223.5620 C   0  0  0  0  0  0  0  0  0  0  0  0
  140.8500   80.0760  223.0210 C   0  0  0  0  0  0  0  0  0  0  0  0
  141.3670   78.9560  222.3860 C   0  0  0  0  0  0  0  0  0  0  0  0
  140.5450   77.8360  222.3090 C   0  0  0  0  0  0  0  0  0  0  0  0
  139.2750   77.8500  222.8440 C   0  0  0  0  0  0  0  0  0  0  0  0
  138.7640   78.9690  223.4770 C   0  0  0  0  0  0  0  0  0  0  0  0
  138.3760   76.6430  222.7580 C   0  0  0  0  0  0  0  0  0  0  0  0
  138.6970   76.0220  221.3850 C   0  0  0  0  0  0  0  0  0  0  0  0
  140.0840   75.5800  221.5310 N   0  0  0  0  0  0  0  0  0  0  0  0
  140.4450   74.1920  221.5330 C   0  0  0  0  0  0  0  0  0  0  0  0
  140.9280   73.6070  220.3980 N   0  0  0  0  0  0  0  0  0  0  0  0
  141.2410   72.2780  220.3710 C   0  0  0  0  0  0  0  0  0  0  0  0
  141.7600   71.7350  219.1670 N   0  0  0  0  0  0  0  0  0  0  0  0
  143.1010   71.2370  219.0040 C   0  0  0  0  0  0  0  0  0  0  0  0
  144.0790   72.3530  219.3610 C   0  0  1  0  0  0  0  0  0  0  0  0
  144.1260   72.6190  220.8290 C   0  0  0  0  0  0  0  0  0  0  0  0
  145.5620   72.8680  221.2320 C   0  0  0  0  0  0  0  0  0  0  0  0
  146.2530   73.7970  220.2620 C   0  0  0  0  0  0  0  0  0  0  0  0
  146.2320   73.3180  218.9060 N   0  0  0  0  0  0  0  0  0  0  0  0
  145.4570   72.1040  218.8160 C   0  0  0  0  0  0  0  0  0  0  0  0
  141.0650   71.5410  221.4960 N   0  0  0  0  0  0  0  0  0  0  0  0
  140.5870   72.1090  222.6320 C   0  0  0  0  0  0  0  0  0  0  0  0
  140.4060   71.2950  223.7680 N   0  0  0  0  0  0  0  0  0  0  0  0
  139.8460   69.9640  223.5640 C   0  0  0  0  0  0  0  0  0  0  0  0
  138.7210   69.8220  224.6010 C   0  0  0  0  0  0  0  0  0  0  0  0
  139.4510   69.7320  225.9140 C   0  0  0  0  0  0  0  0  0  0  0  0
  139.1580   68.7640  226.8480 C   0  0  0  0  0  0  0  0  0  0  0  0
  139.8490   68.7210  228.0380 C   0  0  0  0  0  0  0  0  0  0  0  0
  140.8400   69.6640  228.2810 C   0  0  0  0  0  0  0  0  0  0  0  0
  141.1040   70.6150  227.3290 C   0  0  0  0  0  0  0  0  0  0  0  0
  140.4360   70.6960  226.1190 C   0  0  0  0  0  0  0  0  0  0  0  0
  140.7500   71.7390  225.1030 C   0  0  0  0  0  0  0  0  0  0  0  0
  140.2870   73.4250  222.6220 N   0  0  0  0  0  0  0  0  0  0  0  0
  141.0810   76.6320  221.6420 C   0  0  0  0  0  0  0  0  0  0  0  0
  139.1945   80.9980  224.0592 H   0  0  0  0  0  0  0  0  0  0  0  0
  141.4724   80.9797  223.0989 H   0  0  0  0  0  0  0  0  0  0  0  0
  142.3820   78.9536  221.9621 H   0  0  0  0  0  0  0  0  0  0  0  0
  137.7485   78.9667  223.8999 H   0  0  0  0  0  0  0  0  0  0  0  0
  138.5993   75.9330  223.5680 H   0  0  0  0  0  0  0  0  0  0  0  0
  137.3125   76.9045  222.8612 H   0  0  0  0  0  0  0  0  0  0  0  0
  138.0328   75.1714  221.1723 H   0  0  0  0  0  0  0  0  0  0  0  0
  138.5550   76.7250  220.5510 H   0  0  0  0  0  0  0  0  0  0  0  0
  141.0740   71.7140  218.3530 H   0  0  0  0  0  0  0  0  0  0  0  0
  143.2608   70.3765  219.6703 H   0  0  0  0  0  0  0  0  0  0  0  0
  143.2597   70.9153  217.9641 H   0  0  0  0  0  0  0  0  0  0  0  0
  143.6909   73.2593  218.8731 H   0  0  0  0  0  0  0  0  0  0  0  0
  143.5169   73.5043  221.0642 H   0  0  0  0  0  0  0  0  0  0  0  0
  143.7275   71.7538  221.3791 H   0  0  0  0  0  0  0  0  0  0  0  0
  145.5792   73.3201  222.2346 H   0  0  0  0  0  0  0  0  0  0  0  0
  146.0945   71.9055  221.2289 H   0  0  0  0  0  0  0  0  0  0  0  0
  145.7497   74.7745  220.2953 H   0  0  0  0  0  0  0  0  0  0  0  0
  147.3073   73.8644  220.5686 H   0  0  0  0  0  0  0  0  0  0  0  0
  145.7680   74.0170  218.2850 H   0  0  0  0  0  0  0  0  0  0  0  0
  145.3850   71.7911  217.7639 H   0  0  0  0  0  0  0  0  0  0  0  0
  145.9463   71.3103  219.3997 H   0  0  0  0  0  0  0  0  0  0  0  0
  139.4423   69.8699  222.5451 H   0  0  0  0  0  0  0  0  0  0  0  0
  140.6087   69.1803  223.6830 H   0  0  0  0  0  0  0  0  0  0  0  0
  138.0571   70.6988  224.5812 H   0  0  0  0  0  0  0  0  0  0  0  0
  138.0766   68.9507  224.4124 H   0  0  0  0  0  0  0  0  0  0  0  0
  138.3706   68.0237  226.6432 H   0  0  0  0  0  0  0  0  0  0  0  0
  139.6193   67.9493  228.7874 H   0  0  0  0  0  0  0  0  0  0  0  0
  141.4053   69.6479  229.2245 H   0  0  0  0  0  0  0  0  0  0  0  0
  141.8906   71.3549  227.5384 H   0  0  0  0  0  0  0  0  0  0  0  0
  140.1784   72.6495  225.3360 H   0  0  0  0  0  0  0  0  0  0  0  0
  141.8312   71.9390  225.1341 H   0  0  0  0  0  0  0  0  0  0  0  0
  141.9333   76.2531  222.2250 H   0  0  0  0  0  0  0  0  0  0  0  0
  141.3887   76.9163  220.6249 H   0  0  0  0  0  0  0  0  0  0  0  0
  1  2  2  0
  2  3  1  0
  3  4  2  0
  4  5  1  0
  5  6  2  0
  5  7  1  0
  7  8  1  0
  8  9  1  0
  9 10  1  0
 10 11  2  0
 11 12  1  0
 12 13  1  0
 13 14  1  0
 14 15  1  0
 15 16  1  0
 16 17  1  0
 17 18  1  0
 18 19  1  0
 19 20  1  0
 12 21  2  0
 21 22  1  0
 22 23  1  0
 23 24  1  0
 24 25  1  0
 25 26  1  0
 26 27  2  0
 27 28  1  0
 28 29  2  0
 29 30  1  0
 30 31  2  0
 31 32  1  0
 22 33  2  0
  9 34  1  0
  6  1  1  0
 33 10  1  0
 34  4  1  0
 20 15  1  0
 32 23  1  0
 31 26  1  0
  1 35  1  0
  2 36  1  0
  3 37  1  0
  6 38  1  0
  7 39  1  0
  7 40  1  0
  8 41  1  0
  8 42  1  0
 13 43  1  0
 14 44  1  0
 14 45  1  0
 15 46  1  6
 16 47  1  0
 16 48  1  0
 17 49  1  0
 17 50  1  0
 18 51  1  0
 18 52  1  0
 19 53  1  0
 20 54  1  0
 20 55  1  0
 24 56  1  0
 24 57  1  0
 25 58  1  0
 25 59  1  0
 27 60  1  0
 28 61  1  0
 29 62  1  0
 30 63  1  0
 32 64  1  0
 32 65  1  0
 34 66  1  0
 34 67  1  0
M  END
>  <smiles>  (87) 
c1ccc2c(c1)CCN(c1nc(NCC3CCCNC3)nc(N3CCc4ccccc4C3)n1)C2

>  <score_type>  (87) 
oracle

>  <origin>  (87) 
autodockgpu

>  <m_score__min__energy>  (87) 
-10.529999999999999

>  <m_primary>  (87) 
energy

>  <rmsd>  (87) 
6.412653035313694

>  <m_score__min__rmsd>  (87) 
6.412653035313694

>  <meeko>  (87) 
{"free_energy": -10.32, "intermolecular_energy": -11.81, "internal_energy": -0.98, "cluster_size": 44, "cluster_id": 1, "rank_in_cluster": 7}

>  <energy>  (87) 
-9.5

>  <cluster_rmsd>  (87) 
1.16

>  <cluster>  (87) 
1

$$$$

     RDKit          3D

 67 72  0  0  0  0  0  0  0  0999 V2000
  139.8100   68.0230  226.7770 C   0  0  0  0  0  0  0  0  0  0  0  0
  140.4480   69.0960  227.3890 C   0  0  0  0  0  0  0  0  0  0  0  0
  140.6500   70.3020  226.7350 C   0  0  0  0  0  0  0  0  0  0  0  0
  140.1830   70.4000  225.4270 C   0  0  0  0  0  0  0  0  0  0  0  0
  139.5490   69.3370  224.8190 C   0  0  0  0  0  0  0  0  0  0  0  0
  139.3510   68.1360  225.4760 C   0  0  0  0  0  0  0  0  0  0  0  0
  139.0350   69.4370  223.4060 C   0  0  0  0  0  0  0  0  0  0  0  0
  138.5360   70.8890  223.2810 C   0  0  0  0  0  0  0  0  0  0  0  0
  139.7610   71.6790  223.4050 N   0  0  0  0  0  0  0  0  0  0  0  0
  140.2910   72.4390  222.3100 C   0  0  0  0  0  0  0  0  0  0  0  0
  140.7870   71.8010  221.2090 N   0  0  0  0  0  0  0  0  0  0  0  0
  141.3310   72.5080  220.1730 C   0  0  0  0  0  0  0  0  0  0  0  0
  141.8080   71.7890  219.0480 N   0  0  0  0  0  0  0  0  0  0  0  0
  142.5870   72.3600  217.9810 C   0  0  0  0  0  0  0  0  0  0  0  0
  143.9620   72.7320  218.5290 C   0  0  1  0  0  0  0  0  0  0  0  0
  143.9980   74.1220  219.0730 C   0  0  0  0  0  0  0  0  0  0  0  0
  144.8200   74.1250  220.3430 C   0  0  0  0  0  0  0  0  0  0  0  0
  146.0960   73.3330  220.1750 C   0  0  0  0  0  0  0  0  0  0  0  0
  145.8670   71.9700  219.7780 N   0  0  0  0  0  0  0  0  0  0  0  0
  144.4620   71.7450  219.5450 C   0  0  0  0  0  0  0  0  0  0  0  0
  141.3700   73.8610  220.2540 N   0  0  0  0  0  0  0  0  0  0  0  0
  140.8800   74.5080  221.3420 C   0  0  0  0  0  0  0  0  0  0  0  0
  140.9620   75.9150  221.3830 N   0  0  0  0  0  0  0  0  0  0  0  0
  140.9460   76.6310  220.1130 C   0  0  0  0  0  0  0  0  0  0  0  0
  142.1150   77.6250  220.1800 C   0  0  0  0  0  0  0  0  0  0  0  0
  141.6670   78.6410  221.1970 C   0  0  0  0  0  0  0  0  0  0  0  0
  141.7560   79.9940  220.9650 C   0  0  0  0  0  0  0  0  0  0  0  0
  141.3350   80.8880  221.9250 C   0  0  0  0  0  0  0  0  0  0  0  0
  140.8250   80.4060  223.1230 C   0  0  0  0  0  0  0  0  0  0  0  0
  140.7510   79.0500  223.3200 C   0  0  0  0  0  0  0  0  0  0  0  0
  141.1600   78.1160  222.3850 C   0  0  0  0  0  0  0  0  0  0  0  0
  141.0640   76.6490  222.6270 C   0  0  0  0  0  0  0  0  0  0  0  0
  140.3510   73.7790  222.3460 N   0  0  0  0  0  0  0  0  0  0  0  0
  140.3940   71.6750  224.7130 C   0  0  0  0  0  0  0  0  0  0  0  0
  139.6696   67.0815  227.3282 H   0  0  0  0  0  0  0  0  0  0  0  0
  140.8035   68.9849  228.4240 H   0  0  0  0  0  0  0  0  0  0  0  0
  141.1571   71.1445  227.2281 H   0  0  0  0  0  0  0  0  0  0  0  0
  138.8439   67.2957  224.9794 H   0  0  0  0  0  0  0  0  0  0  0  0
  139.8408   69.2389  222.6839 H   0  0  0  0  0  0  0  0  0  0  0  0
  138.2439   68.7024  223.1949 H   0  0  0  0  0  0  0  0  0  0  0  0
  138.0555   71.0578  222.3060 H   0  0  0  0  0  0  0  0  0  0  0  0
  137.7782   71.1496  224.0346 H   0  0  0  0  0  0  0  0  0  0  0  0
  141.5470   70.7560  219.0320 H   0  0  0  0  0  0  0  0  0  0  0  0
  142.6976   71.6263  217.1689 H   0  0  0  0  0  0  0  0  0  0  0  0
  142.0847   73.2552  217.5856 H   0  0  0  0  0  0  0  0  0  0  0  0
  144.6477   72.6940  217.6697 H   0  0  0  0  0  0  0  0  0  0  0  0
  144.4555   74.7967  218.3345 H   0  0  0  0  0  0  0  0  0  0  0  0
  142.9758   74.4670  219.2875 H   0  0  0  0  0  0  0  0  0  0  0  0
  145.0746   75.1633  220.6022 H   0  0  0  0  0  0  0  0  0  0  0  0
  144.2251   73.6582  221.1419 H   0  0  0  0  0  0  0  0  0  0  0  0
  146.7129   73.8222  219.4068 H   0  0  0  0  0  0  0  0  0  0  0  0
  146.5979   73.3092  221.1535 H   0  0  0  0  0  0  0  0  0  0  0  0
  146.3570   71.7720  218.8780 H   0  0  0  0  0  0  0  0  0  0  0  0
  144.3112   70.7224  219.1688 H   0  0  0  0  0  0  0  0  0  0  0  0
  143.9076   71.8730  220.4864 H   0  0  0  0  0  0  0  0  0  0  0  0
  141.0858   75.9307  219.2764 H   0  0  0  0  0  0  0  0  0  0  0  0
  139.9868   77.1437  219.9486 H   0  0  0  0  0  0  0  0  0  0  0  0
  143.0374   77.1232  220.5078 H   0  0  0  0  0  0  0  0  0  0  0  0
  142.3462   78.0752  219.2033 H   0  0  0  0  0  0  0  0  0  0  0  0
  142.1637   80.3625  220.0121 H   0  0  0  0  0  0  0  0  0  0  0  0
  141.4022   81.9710  221.7445 H   0  0  0  0  0  0  0  0  0  0  0  0
  140.4847   81.1019  223.9039 H   0  0  0  0  0  0  0  0  0  0  0  0
  140.3438   78.6853  224.2746 H   0  0  0  0  0  0  0  0  0  0  0  0
  141.9625   76.3156  223.1669 H   0  0  0  0  0  0  0  0  0  0  0  0
  140.1582   76.4540  223.2199 H   0  0  0  0  0  0  0  0  0  0  0  0
  141.4747   71.8354  224.5848 H   0  0  0  0  0  0  0  0  0  0  0  0
  139.9402   72.4783  225.3119 H   0  0  0  0  0  0  0  0  0  0  0  0
  1  2  2  0
  2  3  1  0
  3  4  2  0
  4  5  1  0
  5  6  2  0
  5  7  1  0
  7  8  1  0
  8  9  1  0
  9 10  1  0
 10 11  2  0
 11 12  1  0
 12 13  1  0
 13 14  1  0
 14 15  1  0
 15 16  1  0
 16 17  1  0
 17 18  1  0
 18 19  1  0
 19 20  1  0
 12 21  2  0
 21 22  1  0
 22 23  1  0
 23 24  1  0
 24 25  1  0
 25 26  1  0
 26 27  2  0
 27 28  1  0
 28 29  2  0
 29 30  1  0
 30 31  2  0
 31 32  1  0
 22 33  2  0
  9 34  1  0
  6  1  1  0
 33 10  1  0
 34  4  1  0
 20 15  1  0
 32 23  1  0
 31 26  1  0
  1 35  1  0
  2 36  1  0
  3 37  1  0
  6 38  1  0
  7 39  1  0
  7 40  1  0
  8 41  1  0
  8 42  1  0
 13 43  1  0
 14 44  1  0
 14 45  1  0
 15 46  1  6
 16 47  1  0
 16 48  1  0
 17 49  1  0
 17 50  1  0
 18 51  1  0
 18 52  1  0
 19 53  1  0
 20 54  1  0
 20 55  1  0
 24 56  1  0
 24 57  1  0
 25 58  1  0
 25 59  1  0
 27 60  1  0
 28 61  1  0
 29 62  1  0
 30 63  1  0
 32 64  1  0
 32 65  1  0
 34 66  1  0
 34 67  1  0
M  END
>  <smiles>  (88) 
c1ccc2c(c1)CCN(c1nc(NCC3CCCNC3)nc(N3CCc4ccccc4C3)n1)C2

>  <score_type>  (88) 
oracle

>  <origin>  (88) 
autodockgpu

>  <m_score__min__energy>  (88) 
-10.529999999999999

>  <m_primary>  (88) 
energy

>  <rmsd>  (88) 
5.871684323240353

>  <m_score__min__rmsd>  (88) 
5.871684323240353

>  <meeko>  (88) 
{"free_energy": -9.46, "intermolecular_energy": -10.95, "internal_energy": -1.31, "cluster_size": 44, "cluster_id": 1, "rank_in_cluster": 38}

>  <energy>  (88) 
-9.46

>  <cluster_rmsd>  (88) 
0.82

>  <cluster>  (88) 
1

$$$$

     RDKit          3D

 67 72  0  0  0  0  0  0  0  0999 V2000
  139.8470   67.9970  226.5010 C   0  0  0  0  0  0  0  0  0  0  0  0
  140.5200   69.0310  227.1430 C   0  0  0  0  0  0  0  0  0  0  0  0
  140.7150   70.2670  226.5440 C   0  0  0  0  0  0  0  0  0  0  0  0
  140.2040   70.4350  225.2600 C   0  0  0  0  0  0  0  0  0  0  0  0
  139.5360   69.4120  224.6230 C   0  0  0  0  0  0  0  0  0  0  0  0
  139.3450   68.1810  225.2250 C   0  0  0  0  0  0  0  0  0  0  0  0
  138.9740   69.5890  223.2360 C   0  0  0  0  0  0  0  0  0  0  0  0
  138.4890   71.0510  223.2020 C   0  0  0  0  0  0  0  0  0  0  0  0
  139.7280   71.8190  223.3210 N   0  0  0  0  0  0  0  0  0  0  0  0
  140.2290   72.6280  222.2470 C   0  0  0  0  0  0  0  0  0  0  0  0
  140.6940   72.0400  221.1060 N   0  0  0  0  0  0  0  0  0  0  0  0
  141.2100   72.7930  220.0880 C   0  0  0  0  0  0  0  0  0  0  0  0
  141.6560   72.1250  218.9190 N   0  0  0  0  0  0  0  0  0  0  0  0
  142.8480   71.3210  218.8390 C   0  0  0  0  0  0  0  0  0  0  0  0
  144.0210   72.1380  219.3710 C   0  0  1  0  0  0  0  0  0  0  0  0
  144.0320   73.5310  218.8350 C   0  0  0  0  0  0  0  0  0  0  0  0
  144.4250   74.4760  219.9480 C   0  0  0  0  0  0  0  0  0  0  0  0
  145.6050   73.9460  220.7300 C   0  0  0  0  0  0  0  0  0  0  0  0
  145.3700   72.6430  221.2930 N   0  0  0  0  0  0  0  0  0  0  0  0
  144.0860   72.1390  220.8720 C   0  0  0  0  0  0  0  0  0  0  0  0
  141.2540   74.1410  220.2290 N   0  0  0  0  0  0  0  0  0  0  0  0
  140.7950   74.7390  221.3570 C   0  0  0  0  0  0  0  0  0  0  0  0
  140.8800   76.1410  221.4590 N   0  0  0  0  0  0  0  0  0  0  0  0
  140.7740   76.9180  220.2290 C   0  0  0  0  0  0  0  0  0  0  0  0
  141.9460   77.9110  220.2610 C   0  0  0  0  0  0  0  0  0  0  0  0
  141.5700   78.8750  221.3540 C   0  0  0  0  0  0  0  0  0  0  0  0
  141.6430   80.2390  221.1820 C   0  0  0  0  0  0  0  0  0  0  0  0
  141.2920   81.0850  222.2090 C   0  0  0  0  0  0  0  0  0  0  0  0
  140.8680   80.5450  223.4170 C   0  0  0  0  0  0  0  0  0  0  0  0
  140.8080   79.1810  223.5540 C   0  0  0  0  0  0  0  0  0  0  0  0
  141.1490   78.2930  222.5480 C   0  0  0  0  0  0  0  0  0  0  0  0
  141.0700   76.8170  222.7270 C   0  0  0  0  0  0  0  0  0  0  0  0
  140.2920   73.9650  222.3420 N   0  0  0  0  0  0  0  0  0  0  0  0
  140.4060   71.7420  224.6040 C   0  0  0  0  0  0  0  0  0  0  0  0
  139.7135   67.0305  227.0090 H   0  0  0  0  0  0  0  0  0  0  0  0
  140.9100   68.8635  228.1578 H   0  0  0  0  0  0  0  0  0  0  0  0
  141.2494   71.0780  227.0605 H   0  0  0  0  0  0  0  0  0  0  0  0
  138.8101   67.3728  224.7047 H   0  0  0  0  0  0  0  0  0  0  0  0
  139.7514   69.4192  222.4765 H   0  0  0  0  0  0  0  0  0  0  0  0
  138.1669   68.8746  223.0166 H   0  0  0  0  0  0  0  0  0  0  0  0
  137.9764   71.2743  222.2547 H   0  0  0  0  0  0  0  0  0  0  0  0
  137.7615   71.2819  223.9941 H   0  0  0  0  0  0  0  0  0  0  0  0
  141.0350   72.2560  218.0640 H   0  0  0  0  0  0  0  0  0  0  0  0
  142.7236   70.4121  219.4459 H   0  0  0  0  0  0  0  0  0  0  0  0
  143.0355   71.0288  217.7952 H   0  0  0  0  0  0  0  0  0  0  0  0
  144.9278   71.6353  219.0035 H   0  0  0  0  0  0  0  0  0  0  0  0
  144.7587   73.6053  218.0125 H   0  0  0  0  0  0  0  0  0  0  0  0
  143.0338   73.7941  218.4551 H   0  0  0  0  0  0  0  0  0  0  0  0
  144.6925   75.4502  219.5127 H   0  0  0  0  0  0  0  0  0  0  0  0
  143.5715   74.5766  220.6346 H   0  0  0  0  0  0  0  0  0  0  0  0
  146.4724   73.8850  220.0563 H   0  0  0  0  0  0  0  0  0  0  0  0
  145.7811   74.6378  221.5669 H   0  0  0  0  0  0  0  0  0  0  0  0
  146.0870   71.9680  220.9470 H   0  0  0  0  0  0  0  0  0  0  0  0
  143.9532   71.1132  221.2462 H   0  0  0  0  0  0  0  0  0  0  0  0
  143.2882   72.7802  221.2750 H   0  0  0  0  0  0  0  0  0  0  0  0
  140.8534   76.2594  219.3515 H   0  0  0  0  0  0  0  0  0  0  0  0
  139.8059   77.4354  220.1583 H   0  0  0  0  0  0  0  0  0  0  0  0
  142.8888   77.3969  220.4992 H   0  0  0  0  0  0  0  0  0  0  0  0
  142.1092   78.4078  219.2932 H   0  0  0  0  0  0  0  0  0  0  0  0
  141.9827   80.6535  220.2214 H   0  0  0  0  0  0  0  0  0  0  0  0
  141.3464   82.1755  222.0752 H   0  0  0  0  0  0  0  0  0  0  0  0
  140.5842   81.2021  224.2523 H   0  0  0  0  0  0  0  0  0  0  0  0
  140.4701   78.7701  224.5168 H   0  0  0  0  0  0  0  0  0  0  0  0
  142.0043   76.4614  223.1859 H   0  0  0  0  0  0  0  0  0  0  0  0
  140.2083   76.5917  223.3725 H   0  0  0  0  0  0  0  0  0  0  0  0
  141.4835   71.8970  224.4459 H   0  0  0  0  0  0  0  0  0  0  0  0
  139.9834   72.5188  225.2582 H   0  0  0  0  0  0  0  0  0  0  0  0
  1  2  2  0
  2  3  1  0
  3  4  2  0
  4  5  1  0
  5  6  2  0
  5  7  1  0
  7  8  1  0
  8  9  1  0
  9 10  1  0
 10 11  2  0
 11 12  1  0
 12 13  1  0
 13 14  1  0
 14 15  1  0
 15 16  1  0
 16 17  1  0
 17 18  1  0
 18 19  1  0
 19 20  1  0
 12 21  2  0
 21 22  1  0
 22 23  1  0
 23 24  1  0
 24 25  1  0
 25 26  1  0
 26 27  2  0
 27 28  1  0
 28 29  2  0
 29 30  1  0
 30 31  2  0
 31 32  1  0
 22 33  2  0
  9 34  1  0
  6  1  1  0
 33 10  1  0
 34  4  1  0
 20 15  1  0
 32 23  1  0
 31 26  1  0
  1 35  1  0
  2 36  1  0
  3 37  1  0
  6 38  1  0
  7 39  1  0
  7 40  1  0
  8 41  1  0
  8 42  1  0
 13 43  1  0
 14 44  1  0
 14 45  1  0
 15 46  1  6
 16 47  1  0
 16 48  1  0
 17 49  1  0
 17 50  1  0
 18 51  1  0
 18 52  1  0
 19 53  1  0
 20 54  1  0
 20 55  1  0
 24 56  1  0
 24 57  1  0
 25 58  1  0
 25 59  1  0
 27 60  1  0
 28 61  1  0
 29 62  1  0
 30 63  1  0
 32 64  1  0
 32 65  1  0
 34 66  1  0
 34 67  1  0
M  END
>  <smiles>  (89) 
c1ccc2c(c1)CCN(c1nc(NCC3CCCNC3)nc(N3CCc4ccccc4C3)n1)C2

>  <score_type>  (89) 
oracle

>  <origin>  (89) 
autodockgpu

>  <m_score__min__energy>  (89) 
-10.529999999999999

>  <m_primary>  (89) 
energy

>  <rmsd>  (89) 
5.846102054434663

>  <m_score__min__rmsd>  (89) 
5.846102054434663

>  <meeko>  (89) 
{"free_energy": -9.85, "intermolecular_energy": -11.35, "internal_energy": -1.37, "cluster_size": 44, "cluster_id": 1, "rank_in_cluster": 14}

>  <energy>  (89) 
-9.44

>  <cluster_rmsd>  (89) 
1.41

>  <cluster>  (89) 
1

$$$$

     RDKit          3D

 67 72  0  0  0  0  0  0  0  0999 V2000
  140.0510   68.0080  227.6040 C   0  0  0  0  0  0  0  0  0  0  0  0
  140.6010   69.1730  228.1270 C   0  0  0  0  0  0  0  0  0  0  0  0
  140.7070   70.3370  227.3800 C   0  0  0  0  0  0  0  0  0  0  0  0
  140.2350   70.2950  226.0710 C   0  0  0  0  0  0  0  0  0  0  0  0
  139.6900   69.1400  225.5510 C   0  0  0  0  0  0  0  0  0  0  0  0
  139.5870   67.9820  226.3010 C   0  0  0  0  0  0  0  0  0  0  0  0
  139.1710   69.0880  224.1370 C   0  0  0  0  0  0  0  0  0  0  0  0
  138.5570   70.4810  223.9010 C   0  0  0  0  0  0  0  0  0  0  0  0
  139.7150   71.3730  223.9570 N   0  0  0  0  0  0  0  0  0  0  0  0
  140.1850   72.0850  222.8030 C   0  0  0  0  0  0  0  0  0  0  0  0
  140.7760   71.4100  221.7740 N   0  0  0  0  0  0  0  0  0  0  0  0
  141.2630   72.0750  220.6850 C   0  0  0  0  0  0  0  0  0  0  0  0
  141.8470   71.3150  219.6390 N   0  0  0  0  0  0  0  0  0  0  0  0
  143.0220   71.7000  218.9030 C   0  0  0  0  0  0  0  0  0  0  0  0
  143.9250   72.5160  219.8230 C   0  0  1  0  0  0  0  0  0  0  0  0
  145.2700   71.8930  219.9980 C   0  0  0  0  0  0  0  0  0  0  0  0
  146.3160   72.9850  219.9880 C   0  0  0  0  0  0  0  0  0  0  0  0
  145.8970   74.1570  220.8430 C   0  0  0  0  0  0  0  0  0  0  0  0
  144.6360   74.7240  220.4480 N   0  0  0  0  0  0  0  0  0  0  0  0
  144.0490   73.9480  219.3840 C   0  0  0  0  0  0  0  0  0  0  0  0
  141.1490   73.4260  220.6390 N   0  0  0  0  0  0  0  0  0  0  0  0
  140.5630   74.1100  221.6530 C   0  0  0  0  0  0  0  0  0  0  0  0
  140.4860   75.5140  221.5630 N   0  0  0  0  0  0  0  0  0  0  0  0
  140.8080   76.1290  220.2800 C   0  0  0  0  0  0  0  0  0  0  0  0
  141.7880   77.2690  220.5990 C   0  0  0  0  0  0  0  0  0  0  0  0
  140.9370   78.2880  221.3070 C   0  0  0  0  0  0  0  0  0  0  0  0
  140.9600   79.6220  220.9680 C   0  0  0  0  0  0  0  0  0  0  0  0
  140.1660   80.5210  221.6450 C   0  0  0  0  0  0  0  0  0  0  0  0
  139.3470   80.0640  222.6700 C   0  0  0  0  0  0  0  0  0  0  0  0
  139.3500   78.7280  222.9820 C   0  0  0  0  0  0  0  0  0  0  0  0
  140.1300   77.7900  222.3290 C   0  0  0  0  0  0  0  0  0  0  0  0
  140.1080   76.3440  222.6880 C   0  0  0  0  0  0  0  0  0  0  0  0
  140.0940   73.4210  222.7140 N   0  0  0  0  0  0  0  0  0  0  0  0
  140.3450   71.5230  225.2580 C   0  0  0  0  0  0  0  0  0  0  0  0
  139.9846   67.1046  228.2280 H   0  0  0  0  0  0  0  0  0  0  0  0
  140.9634   69.1716  229.1656 H   0  0  0  0  0  0  0  0  0  0  0  0
  141.1448   71.2530  227.8034 H   0  0  0  0  0  0  0  0  0  0  0  0
  139.1492   67.0677  225.8739 H   0  0  0  0  0  0  0  0  0  0  0  0
  139.9909   68.8992  223.4284 H   0  0  0  0  0  0  0  0  0  0  0  0
  138.4415   68.2783  223.9883 H   0  0  0  0  0  0  0  0  0  0  0  0
  138.0661   70.5339  222.9181 H   0  0  0  0  0  0  0  0  0  0  0  0
  137.7793   70.7386  224.6350 H   0  0  0  0  0  0  0  0  0  0  0  0
  141.3450   70.4020  219.4160 H   0  0  0  0  0  0  0  0  0  0  0  0
  143.5562   70.8014  218.5607 H   0  0  0  0  0  0  0  0  0  0  0  0
  142.7372   72.2999  218.0261 H   0  0  0  0  0  0  0  0  0  0  0  0
  143.4302   72.5153  220.8054 H   0  0  0  0  0  0  0  0  0  0  0  0
  145.3065   71.3545  220.9565 H   0  0  0  0  0  0  0  0  0  0  0  0
  145.4627   71.1824  219.1808 H   0  0  0  0  0  0  0  0  0  0  0  0
  147.2615   72.5785  220.3764 H   0  0  0  0  0  0  0  0  0  0  0  0
  146.4385   73.3376  218.9533 H   0  0  0  0  0  0  0  0  0  0  0  0
  145.8163   73.8176  221.8862 H   0  0  0  0  0  0  0  0  0  0  0  0
  146.6600   74.9399  220.7212 H   0  0  0  0  0  0  0  0  0  0  0  0
  143.9640   74.6970  221.2460 H   0  0  0  0  0  0  0  0  0  0  0  0
  143.0519   74.3467  219.1455 H   0  0  0  0  0  0  0  0  0  0  0  0
  144.6882   74.0053  218.4906 H   0  0  0  0  0  0  0  0  0  0  0  0
  141.2791   75.3945  219.6102 H   0  0  0  0  0  0  0  0  0  0  0  0
  139.9066   76.4996  219.7700 H   0  0  0  0  0  0  0  0  0  0  0  0
  142.6004   76.9161  221.2512 H   0  0  0  0  0  0  0  0  0  0  0  0
  142.2760   77.6738  219.7001 H   0  0  0  0  0  0  0  0  0  0  0  0
  141.6137   79.9706  220.1549 H   0  0  0  0  0  0  0  0  0  0  0  0
  140.1801   81.5879  221.3774 H   0  0  0  0  0  0  0  0  0  0  0  0
  138.7046   80.7642  223.2241 H   0  0  0  0  0  0  0  0  0  0  0  0
  138.6960   78.3833  223.7965 H   0  0  0  0  0  0  0  0  0  0  0  0
  140.8131   76.1697  223.5141 H   0  0  0  0  0  0  0  0  0  0  0  0
  139.0834   76.0771  222.9861 H   0  0  0  0  0  0  0  0  0  0  0  0
  141.4096   71.7581  225.1120 H   0  0  0  0  0  0  0  0  0  0  0  0
  139.8285   72.3328  225.7942 H   0  0  0  0  0  0  0  0  0  0  0  0
  1  2  2  0
  2  3  1  0
  3  4  2  0
  4  5  1  0
  5  6  2  0
  5  7  1  0
  7  8  1  0
  8  9  1  0
  9 10  1  0
 10 11  2  0
 11 12  1  0
 12 13  1  0
 13 14  1  0
 14 15  1  0
 15 16  1  0
 16 17  1  0
 17 18  1  0
 18 19  1  0
 19 20  1  0
 12 21  2  0
 21 22  1  0
 22 23  1  0
 23 24  1  0
 24 25  1  0
 25 26  1  0
 26 27  2  0
 27 28  1  0
 28 29  2  0
 29 30  1  0
 30 31  2  0
 31 32  1  0
 22 33  2  0
  9 34  1  0
  6  1  1  0
 33 10  1  0
 34  4  1  0
 20 15  1  0
 32 23  1  0
 31 26  1  0
  1 35  1  0
  2 36  1  0
  3 37  1  0
  6 38  1  0
  7 39  1  0
  7 40  1  0
  8 41  1  0
  8 42  1  0
 13 43  1  0
 14 44  1  0
 14 45  1  0
 15 46  1  1
 16 47  1  0
 16 48  1  0
 17 49  1  0
 17 50  1  0
 18 51  1  0
 18 52  1  0
 19 53  1  0
 20 54  1  0
 20 55  1  0
 24 56  1  0
 24 57  1  0
 25 58  1  0
 25 59  1  0
 27 60  1  0
 28 61  1  0
 29 62  1  0
 30 63  1  0
 32 64  1  0
 32 65  1  0
 34 66  1  0
 34 67  1  0
M  END
>  <smiles>  (90) 
c1ccc2c(c1)CCN(c1nc(NCC3CCCNC3)nc(N3CCc4ccccc4C3)n1)C2

>  <score_type>  (90) 
oracle

>  <origin>  (90) 
autodockgpu

>  <m_score__min__energy>  (90) 
-10.529999999999999

>  <m_primary>  (90) 
energy

>  <rmsd>  (90) 
6.024795603290341

>  <m_score__min__rmsd>  (90) 
6.024795603290341

>  <meeko>  (90) 
{"free_energy": -9.16, "intermolecular_energy": -10.65, "internal_energy": -1.33, "cluster_size": 44, "cluster_id": 1, "rank_in_cluster": 44}

>  <energy>  (90) 
-9.42

>  <cluster_rmsd>  (90) 
0.84

>  <cluster>  (90) 
1

$$$$

     RDKit          3D

 67 72  0  0  0  0  0  0  0  0999 V2000
  139.8910   67.9950  226.8240 C   0  0  0  0  0  0  0  0  0  0  0  0
  140.6160   69.0290  227.4060 C   0  0  0  0  0  0  0  0  0  0  0  0
  140.8510   70.2260  226.7460 C   0  0  0  0  0  0  0  0  0  0  0  0
  140.3260   70.3560  225.4630 C   0  0  0  0  0  0  0  0  0  0  0  0
  139.6060   69.3320  224.8850 C   0  0  0  0  0  0  0  0  0  0  0  0
  139.3750   68.1400  225.5480 C   0  0  0  0  0  0  0  0  0  0  0  0
  139.0290   69.4670  223.5000 C   0  0  0  0  0  0  0  0  0  0  0  0
  138.6040   70.9440  223.4030 C   0  0  0  0  0  0  0  0  0  0  0  0
  139.8750   71.6660  223.4670 N   0  0  0  0  0  0  0  0  0  0  0  0
  140.3910   72.4010  222.3490 C   0  0  0  0  0  0  0  0  0  0  0  0
  140.9000   71.7390  221.2690 N   0  0  0  0  0  0  0  0  0  0  0  0
  141.4300   72.4230  220.2120 C   0  0  0  0  0  0  0  0  0  0  0  0
  141.9220   71.6790  219.1090 N   0  0  0  0  0  0  0  0  0  0  0  0
  143.2110   71.0380  219.0620 C   0  0  0  0  0  0  0  0  0  0  0  0
  144.2640   72.0330  219.5400 C   0  0  1  0  0  0  0  0  0  0  0  0
  144.1670   73.3450  218.8350 C   0  0  0  0  0  0  0  0  0  0  0  0
  144.4000   74.4530  219.8380 C   0  0  0  0  0  0  0  0  0  0  0  0
  145.5790   74.1480  220.7330 C   0  0  0  0  0  0  0  0  0  0  0  0
  145.4430   72.9050  221.4430 N   0  0  0  0  0  0  0  0  0  0  0  0
  144.2420   72.2210  221.0310 C   0  0  0  0  0  0  0  0  0  0  0  0
  141.4440   73.7790  220.2500 N   0  0  0  0  0  0  0  0  0  0  0  0
  140.9410   74.4500  221.3170 C   0  0  0  0  0  0  0  0  0  0  0  0
  140.9960   75.8580  221.3140 N   0  0  0  0  0  0  0  0  0  0  0  0
  141.0220   76.5330  220.0210 C   0  0  0  0  0  0  0  0  0  0  0  0
  142.1700   77.5510  220.1050 C   0  0  0  0  0  0  0  0  0  0  0  0
  141.6590   78.5900  221.0670 C   0  0  0  0  0  0  0  0  0  0  0  0
  141.7340   79.9370  220.7940 C   0  0  0  0  0  0  0  0  0  0  0  0
  141.2570   80.8540  221.7040 C   0  0  0  0  0  0  0  0  0  0  0  0
  140.7030   80.4010  222.8950 C   0  0  0  0  0  0  0  0  0  0  0  0
  140.6450   79.0520  223.1340 C   0  0  0  0  0  0  0  0  0  0  0  0
  141.1110   78.0950  222.2490 C   0  0  0  0  0  0  0  0  0  0  0  0
  141.0310   76.6360  222.5360 C   0  0  0  0  0  0  0  0  0  0  0  0
  140.4260   73.7430  222.3440 N   0  0  0  0  0  0  0  0  0  0  0  0
  140.5710   71.6210  224.7430 C   0  0  0  0  0  0  0  0  0  0  0  0
  139.7272   67.0596  227.3791 H   0  0  0  0  0  0  0  0  0  0  0  0
  141.0157   68.8934  228.4218 H   0  0  0  0  0  0  0  0  0  0  0  0
  141.4269   71.0371  227.2156 H   0  0  0  0  0  0  0  0  0  0  0  0
  138.7983   67.3314  225.0751 H   0  0  0  0  0  0  0  0  0  0  0  0
  139.7861   69.2292  222.7383 H   0  0  0  0  0  0  0  0  0  0  0  0
  138.1896   68.7775  223.3270 H   0  0  0  0  0  0  0  0  0  0  0  0
  138.0853   71.1431  222.4536 H   0  0  0  0  0  0  0  0  0  0  0  0
  137.9000   71.2417  224.1940 H   0  0  0  0  0  0  0  0  0  0  0  0
  141.2580   71.6160  218.2790 H   0  0  0  0  0  0  0  0  0  0  0  0
  143.2103   70.1548  219.7177 H   0  0  0  0  0  0  0  0  0  0  0  0
  143.4350   70.7168  218.0340 H   0  0  0  0  0  0  0  0  0  0  0  0
  145.2360   71.5887  219.2794 H   0  0  0  0  0  0  0  0  0  0  0  0
  144.9284   73.3967  218.0428 H   0  0  0  0  0  0  0  0  0  0  0  0
  143.1710   73.4538  218.3811 H   0  0  0  0  0  0  0  0  0  0  0  0
  144.5947   75.3906  219.2967 H   0  0  0  0  0  0  0  0  0  0  0  0
  143.5024   74.5446  220.4672 H   0  0  0  0  0  0  0  0  0  0  0  0
  146.4859   74.0990  220.1124 H   0  0  0  0  0  0  0  0  0  0  0  0
  145.6359   74.9496  221.4841 H   0  0  0  0  0  0  0  0  0  0  0  0
  146.2420   72.2730  221.2170 H   0  0  0  0  0  0  0  0  0  0  0  0
  144.1907   71.2392  221.5244 H   0  0  0  0  0  0  0  0  0  0  0  0
  143.3625   72.8178  221.3142 H   0  0  0  0  0  0  0  0  0  0  0  0
  141.2099   75.8091  219.2144 H   0  0  0  0  0  0  0  0  0  0  0  0
  140.0619   77.0219  219.7994 H   0  0  0  0  0  0  0  0  0  0  0  0
  143.0858   77.0780  220.4891 H   0  0  0  0  0  0  0  0  0  0  0  0
  142.4366   77.9733  219.1249 H   0  0  0  0  0  0  0  0  0  0  0  0
  142.1757   80.2816  219.8474 H   0  0  0  0  0  0  0  0  0  0  0  0
  141.3139   81.9316  221.4906 H   0  0  0  0  0  0  0  0  0  0  0  0
  140.3159   81.1153  223.6366 H   0  0  0  0  0  0  0  0  0  0  0  0
  140.2034   78.7112  224.0821 H   0  0  0  0  0  0  0  0  0  0  0  0
  141.9112   76.3383  223.1248 H   0  0  0  0  0  0  0  0  0  0  0  0
  140.1038   76.4435  223.0956 H   0  0  0  0  0  0  0  0  0  0  0  0
  141.6512   71.7230  224.5620 H   0  0  0  0  0  0  0  0  0  0  0  0
  140.1920   72.4448  225.3656 H   0  0  0  0  0  0  0  0  0  0  0  0
  1  2  2  0
  2  3  1  0
  3  4  2  0
  4  5  1  0
  5  6  2  0
  5  7  1  0
  7  8  1  0
  8  9  1  0
  9 10  1  0
 10 11  2  0
 11 12  1  0
 12 13  1  0
 13 14  1  0
 14 15  1  0
 15 16  1  0
 16 17  1  0
 17 18  1  0
 18 19  1  0
 19 20  1  0
 12 21  2  0
 21 22  1  0
 22 23  1  0
 23 24  1  0
 24 25  1  0
 25 26  1  0
 26 27  2  0
 27 28  1  0
 28 29  2  0
 29 30  1  0
 30 31  2  0
 31 32  1  0
 22 33  2  0
  9 34  1  0
  6  1  1  0
 33 10  1  0
 34  4  1  0
 20 15  1  0
 32 23  1  0
 31 26  1  0
  1 35  1  0
  2 36  1  0
  3 37  1  0
  6 38  1  0
  7 39  1  0
  7 40  1  0
  8 41  1  0
  8 42  1  0
 13 43  1  0
 14 44  1  0
 14 45  1  0
 15 46  1  1
 16 47  1  0
 16 48  1  0
 17 49  1  0
 17 50  1  0
 18 51  1  0
 18 52  1  0
 19 53  1  0
 20 54  1  0
 20 55  1  0
 24 56  1  0
 24 57  1  0
 25 58  1  0
 25 59  1  0
 27 60  1  0
 28 61  1  0
 29 62  1  0
 30 63  1  0
 32 64  1  0
 32 65  1  0
 34 66  1  0
 34 67  1  0
M  END
>  <smiles>  (91) 
c1ccc2c(c1)CCN(c1nc(NCC3CCCNC3)nc(N3CCc4ccccc4C3)n1)C2

>  <score_type>  (91) 
oracle

>  <origin>  (91) 
autodockgpu

>  <m_score__min__energy>  (91) 
-10.529999999999999

>  <m_primary>  (91) 
energy

>  <rmsd>  (91) 
5.9993257245998795

>  <m_score__min__rmsd>  (91) 
5.9993257245998795

>  <meeko>  (91) 
{"free_energy": -9.81, "intermolecular_energy": -11.3, "internal_energy": -1.34, "cluster_size": 44, "cluster_id": 1, "rank_in_cluster": 17}

>  <energy>  (91) 
-9.38

>  <cluster_rmsd>  (91) 
0.84

>  <cluster>  (91) 
1

$$$$

     RDKit          3D

 67 72  0  0  0  0  0  0  0  0999 V2000
  139.8050   67.9950  226.8000 C   0  0  0  0  0  0  0  0  0  0  0  0
  140.5140   69.0360  227.3900 C   0  0  0  0  0  0  0  0  0  0  0  0
  140.7420   70.2370  226.7330 C   0  0  0  0  0  0  0  0  0  0  0  0
  140.2270   70.3620  225.4460 C   0  0  0  0  0  0  0  0  0  0  0  0
  139.5240   69.3310  224.8600 C   0  0  0  0  0  0  0  0  0  0  0  0
  139.3000   68.1360  225.5200 C   0  0  0  0  0  0  0  0  0  0  0  0
  138.9570   69.4620  223.4690 C   0  0  0  0  0  0  0  0  0  0  0  0
  138.5170   70.9350  223.3710 C   0  0  0  0  0  0  0  0  0  0  0  0
  139.7800   71.6700  223.4470 N   0  0  0  0  0  0  0  0  0  0  0  0
  140.2980   72.4120  222.3350 C   0  0  0  0  0  0  0  0  0  0  0  0
  140.8040   71.7570  221.2490 N   0  0  0  0  0  0  0  0  0  0  0  0
  141.3360   72.4470  220.1970 C   0  0  0  0  0  0  0  0  0  0  0  0
  141.8250   71.7090  219.0880 N   0  0  0  0  0  0  0  0  0  0  0  0
  143.1660   71.2000  218.9700 C   0  0  0  0  0  0  0  0  0  0  0  0
  144.1420   72.3200  219.3160 C   0  0  1  0  0  0  0  0  0  0  0  0
  144.2170   72.5730  220.7860 C   0  0  0  0  0  0  0  0  0  0  0  0
  145.6590   72.8300  221.1610 C   0  0  0  0  0  0  0  0  0  0  0  0
  146.3230   73.7740  220.1860 C   0  0  0  0  0  0  0  0  0  0  0  0
  146.2770   73.3070  218.8270 N   0  0  0  0  0  0  0  0  0  0  0  0
  145.5110   72.0880  218.7410 C   0  0  0  0  0  0  0  0  0  0  0  0
  141.3550   73.8030  220.2460 N   0  0  0  0  0  0  0  0  0  0  0  0
  140.8540   74.4670  221.3180 C   0  0  0  0  0  0  0  0  0  0  0  0
  140.9140   75.8750  221.3260 N   0  0  0  0  0  0  0  0  0  0  0  0
  140.8560   76.5630  220.0410 C   0  0  0  0  0  0  0  0  0  0  0  0
  142.0110   77.5760  220.0590 C   0  0  0  0  0  0  0  0  0  0  0  0
  141.5700   78.6070  221.0630 C   0  0  0  0  0  0  0  0  0  0  0  0
  141.6310   79.9570  220.8000 C   0  0  0  0  0  0  0  0  0  0  0  0
  141.2190   80.8650  221.7490 C   0  0  0  0  0  0  0  0  0  0  0  0
  140.7450   80.4020  222.9700 C   0  0  0  0  0  0  0  0  0  0  0  0
  140.6990   79.0500  223.1990 C   0  0  0  0  0  0  0  0  0  0  0  0
  141.1010   78.1010  222.2740 C   0  0  0  0  0  0  0  0  0  0  0  0
  141.0340   76.6390  222.5510 C   0  0  0  0  0  0  0  0  0  0  0  0
  140.3370   73.7530  222.3390 N   0  0  0  0  0  0  0  0  0  0  0  0
  140.4650   71.6310  224.7290 C   0  0  0  0  0  0  0  0  0  0  0  0
  139.6455   67.0574  227.3526 H   0  0  0  0  0  0  0  0  0  0  0  0
  140.9062   68.9033  228.4091 H   0  0  0  0  0  0  0  0  0  0  0  0
  141.3048   71.0539  227.2083 H   0  0  0  0  0  0  0  0  0  0  0  0
  138.7367   67.3217  225.0409 H   0  0  0  0  0  0  0  0  0  0  0  0
  139.7231   69.2336  222.7134 H   0  0  0  0  0  0  0  0  0  0  0  0
  138.1267   68.7637  223.2875 H   0  0  0  0  0  0  0  0  0  0  0  0
  138.0043   71.1304  222.4176 H   0  0  0  0  0  0  0  0  0  0  0  0
  137.8032   71.2239  224.1565 H   0  0  0  0  0  0  0  0  0  0  0  0
  141.1150   71.5450  218.3110 H   0  0  0  0  0  0  0  0  0  0  0  0
  143.3058   70.3585  219.6646 H   0  0  0  0  0  0  0  0  0  0  0  0
  143.3460   70.8475  217.9437 H   0  0  0  0  0  0  0  0  0  0  0  0
  143.7369   73.2269  218.8433 H   0  0  0  0  0  0  0  0  0  0  0  0
  143.6059   73.4510  221.0421 H   0  0  0  0  0  0  0  0  0  0  0  0
  143.8367   71.6998  221.3363 H   0  0  0  0  0  0  0  0  0  0  0  0
  145.6935   73.2726  222.1674 H   0  0  0  0  0  0  0  0  0  0  0  0
  146.1987   71.8718  221.1369 H   0  0  0  0  0  0  0  0  0  0  0  0
  145.8132   74.7473  220.2390 H   0  0  0  0  0  0  0  0  0  0  0  0
  147.3828   73.8475  220.4714 H   0  0  0  0  0  0  0  0  0  0  0  0
  145.7960   74.0080  218.2210 H   0  0  0  0  0  0  0  0  0  0  0  0
  145.4205   71.7844  217.6876 H   0  0  0  0  0  0  0  0  0  0  0  0
  146.0186   71.2931  219.3072 H   0  0  0  0  0  0  0  0  0  0  0  0
  140.9868   75.8469  219.2163 H   0  0  0  0  0  0  0  0  0  0  0  0
  139.8851   77.0571  219.8886 H   0  0  0  0  0  0  0  0  0  0  0  0
  142.9483   77.0958  220.3766 H   0  0  0  0  0  0  0  0  0  0  0  0
  142.2133   78.0075  219.0676 H   0  0  0  0  0  0  0  0  0  0  0  0
  142.0097   80.3107  219.8297 H   0  0  0  0  0  0  0  0  0  0  0  0
  141.2645   81.9446  221.5429 H   0  0  0  0  0  0  0  0  0  0  0  0
  140.4110   81.1099  223.7429 H   0  0  0  0  0  0  0  0  0  0  0  0
  140.3219   78.7004  224.1714 H   0  0  0  0  0  0  0  0  0  0  0  0
  141.9503   76.3317  223.0764 H   0  0  0  0  0  0  0  0  0  0  0  0
  140.1458   76.4437  223.1698 H   0  0  0  0  0  0  0  0  0  0  0  0
  141.5456   71.7447  224.5577 H   0  0  0  0  0  0  0  0  0  0  0  0
  140.0717   72.4501  225.3490 H   0  0  0  0  0  0  0  0  0  0  0  0
  1  2  2  0
  2  3  1  0
  3  4  2  0
  4  5  1  0
  5  6  2  0
  5  7  1  0
  7  8  1  0
  8  9  1  0
  9 10  1  0
 10 11  2  0
 11 12  1  0
 12 13  1  0
 13 14  1  0
 14 15  1  0
 15 16  1  0
 16 17  1  0
 17 18  1  0
 18 19  1  0
 19 20  1  0
 12 21  2  0
 21 22  1  0
 22 23  1  0
 23 24  1  0
 24 25  1  0
 25 26  1  0
 26 27  2  0
 27 28  1  0
 28 29  2  0
 29 30  1  0
 30 31  2  0
 31 32  1  0
 22 33  2  0
  9 34  1  0
  6  1  1  0
 33 10  1  0
 34  4  1  0
 20 15  1  0
 32 23  1  0
 31 26  1  0
  1 35  1  0
  2 36  1  0
  3 37  1  0
  6 38  1  0
  7 39  1  0
  7 40  1  0
  8 41  1  0
  8 42  1  0
 13 43  1  0
 14 44  1  0
 14 45  1  0
 15 46  1  6
 16 47  1  0
 16 48  1  0
 17 49  1  0
 17 50  1  0
 18 51  1  0
 18 52  1  0
 19 53  1  0
 20 54  1  0
 20 55  1  0
 24 56  1  0
 24 57  1  0
 25 58  1  0
 25 59  1  0
 27 60  1  0
 28 61  1  0
 29 62  1  0
 30 63  1  0
 32 64  1  0
 32 65  1  0
 34 66  1  0
 34 67  1  0
M  END
>  <smiles>  (92) 
c1ccc2c(c1)CCN(c1nc(NCC3CCCNC3)nc(N3CCc4ccccc4C3)n1)C2

>  <score_type>  (92) 
oracle

>  <origin>  (92) 
autodockgpu

>  <m_score__min__energy>  (92) 
-10.529999999999999

>  <m_primary>  (92) 
energy

>  <rmsd>  (92) 
6.474813329165059

>  <m_score__min__rmsd>  (92) 
6.474813329165059

>  <meeko>  (92) 
{"free_energy": -10.47, "intermolecular_energy": -11.96, "internal_energy": -1.03, "cluster_size": 44, "cluster_id": 1, "rank_in_cluster": 2}

>  <energy>  (92) 
-9.26

>  <cluster_rmsd>  (92) 
1.2

>  <cluster>  (92) 
1

$$$$

     RDKit          3D

 67 72  0  0  0  0  0  0  0  0999 V2000
  139.8540   68.0310  226.7880 C   0  0  0  0  0  0  0  0  0  0  0  0
  140.5250   69.0950  227.3810 C   0  0  0  0  0  0  0  0  0  0  0  0
  140.7240   70.2990  226.7220 C   0  0  0  0  0  0  0  0  0  0  0  0
  140.2190   70.4050  225.4290 C   0  0  0  0  0  0  0  0  0  0  0  0
  139.5530   69.3510  224.8400 C   0  0  0  0  0  0  0  0  0  0  0  0
  139.3580   68.1520  225.5020 C   0  0  0  0  0  0  0  0  0  0  0  0
  138.9980   69.4600  223.4440 C   0  0  0  0  0  0  0  0  0  0  0  0
  138.5150   70.9180  223.3340 C   0  0  0  0  0  0  0  0  0  0  0  0
  139.7540   71.6910  223.4210 N   0  0  0  0  0  0  0  0  0  0  0  0
  140.2610   72.4440  222.3110 C   0  0  0  0  0  0  0  0  0  0  0  0
  140.7140   71.8010  221.1950 N   0  0  0  0  0  0  0  0  0  0  0  0
  141.2350   72.5010  220.1440 C   0  0  0  0  0  0  0  0  0  0  0  0
  141.6680   71.7760  219.0030 N   0  0  0  0  0  0  0  0  0  0  0  0
  142.8980   71.0340  218.9230 C   0  0  0  0  0  0  0  0  0  0  0  0
  144.0400   71.9370  219.3790 C   0  0  1  0  0  0  0  0  0  0  0  0
  144.0110   73.2710  218.7100 C   0  0  0  0  0  0  0  0  0  0  0  0
  144.3650   74.3320  219.7280 C   0  0  0  0  0  0  0  0  0  0  0  0
  145.5540   73.9190  220.5640 C   0  0  0  0  0  0  0  0  0  0  0  0
  145.3560   72.6710  221.2500 N   0  0  0  0  0  0  0  0  0  0  0  0
  144.0930   72.0860  220.8730 C   0  0  0  0  0  0  0  0  0  0  0  0
  141.2970   73.8540  220.2250 N   0  0  0  0  0  0  0  0  0  0  0  0
  140.8500   74.5070  221.3270 C   0  0  0  0  0  0  0  0  0  0  0  0
  140.9540   75.9110  221.3670 N   0  0  0  0  0  0  0  0  0  0  0  0
  140.9570   76.6260  220.0950 C   0  0  0  0  0  0  0  0  0  0  0  0
  142.1410   77.6020  220.1690 C   0  0  0  0  0  0  0  0  0  0  0  0
  141.7020   78.6260  221.1810 C   0  0  0  0  0  0  0  0  0  0  0  0
  141.8130   79.9780  220.9490 C   0  0  0  0  0  0  0  0  0  0  0  0
  141.4010   80.8800  221.9040 C   0  0  0  0  0  0  0  0  0  0  0  0
  140.8760   80.4070  223.1000 C   0  0  0  0  0  0  0  0  0  0  0  0
  140.7800   79.0530  223.2980 C   0  0  0  0  0  0  0  0  0  0  0  0
  141.1800   78.1110  222.3670 C   0  0  0  0  0  0  0  0  0  0  0  0
  141.0590   76.6460  222.6100 C   0  0  0  0  0  0  0  0  0  0  0  0
  140.3420   73.7840  222.3460 N   0  0  0  0  0  0  0  0  0  0  0  0
  140.4260   71.6770  224.7100 C   0  0  0  0  0  0  0  0  0  0  0  0
  139.7173   67.0910  227.3426 H   0  0  0  0  0  0  0  0  0  0  0  0
  140.9099   68.9780  228.4048 H   0  0  0  0  0  0  0  0  0  0  0  0
  141.2576   71.1337  227.2001 H   0  0  0  0  0  0  0  0  0  0  0  0
  138.8244   67.3194  225.0202 H   0  0  0  0  0  0  0  0  0  0  0  0
  139.7789   69.2517  222.6978 H   0  0  0  0  0  0  0  0  0  0  0  0
  138.1906   68.7366  223.2571 H   0  0  0  0  0  0  0  0  0  0  0  0
  138.0077   71.0936  222.3739 H   0  0  0  0  0  0  0  0  0  0  0  0
  137.7836   71.1887  224.1098 H   0  0  0  0  0  0  0  0  0  0  0  0
  141.0040   71.8130  218.1710 H   0  0  0  0  0  0  0  0  0  0  0  0
  142.8410   70.1501  219.5753 H   0  0  0  0  0  0  0  0  0  0  0  0
  143.0707   70.7020  217.8886 H   0  0  0  0  0  0  0  0  0  0  0  0
  144.9652   71.4306  219.0666 H   0  0  0  0  0  0  0  0  0  0  0  0
  144.7415   73.2886  217.8877 H   0  0  0  0  0  0  0  0  0  0  0  0
  143.0080   73.4636  218.3014 H   0  0  0  0  0  0  0  0  0  0  0  0
  144.6054   75.2673  219.2013 H   0  0  0  0  0  0  0  0  0  0  0  0
  143.5030   74.4712  220.3970 H   0  0  0  0  0  0  0  0  0  0  0  0
  146.4285   73.8206  219.9041 H   0  0  0  0  0  0  0  0  0  0  0  0
  145.7009   74.6944  221.3303 H   0  0  0  0  0  0  0  0  0  0  0  0
  146.0970   71.9880  220.9750 H   0  0  0  0  0  0  0  0  0  0  0  0
  143.9908   71.0975  221.3445 H   0  0  0  0  0  0  0  0  0  0  0  0
  143.2715   72.7367  221.2074 H   0  0  0  0  0  0  0  0  0  0  0  0
  141.0915   75.9226  219.2601 H   0  0  0  0  0  0  0  0  0  0  0  0
  140.0068   77.1530  219.9235 H   0  0  0  0  0  0  0  0  0  0  0  0
  143.0531   77.0864  220.5041 H   0  0  0  0  0  0  0  0  0  0  0  0
  142.3860   78.0471  219.1934 H   0  0  0  0  0  0  0  0  0  0  0  0
  142.2320   80.3389  219.9981 H   0  0  0  0  0  0  0  0  0  0  0  0
  141.4864   81.9615  221.7223 H   0  0  0  0  0  0  0  0  0  0  0  0
  140.5417   81.1090  223.8781 H   0  0  0  0  0  0  0  0  0  0  0  0
  140.3614   78.6961  224.2506 H   0  0  0  0  0  0  0  0  0  0  0  0
  141.9483   76.2993  223.1567 H   0  0  0  0  0  0  0  0  0  0  0  0
  140.1457   76.4667  223.1963 H   0  0  0  0  0  0  0  0  0  0  0  0
  141.5045   71.8226  224.5496 H   0  0  0  0  0  0  0  0  0  0  0  0
  140.0014   72.4859  225.3227 H   0  0  0  0  0  0  0  0  0  0  0  0
  1  2  2  0
  2  3  1  0
  3  4  2  0
  4  5  1  0
  5  6  2  0
  5  7  1  0
  7  8  1  0
  8  9  1  0
  9 10  1  0
 10 11  2  0
 11 12  1  0
 12 13  1  0
 13 14  1  0
 14 15  1  0
 15 16  1  0
 16 17  1  0
 17 18  1  0
 18 19  1  0
 19 20  1  0
 12 21  2  0
 21 22  1  0
 22 23  1  0
 23 24  1  0
 24 25  1  0
 25 26  1  0
 26 27  2  0
 27 28  1  0
 28 29  2  0
 29 30  1  0
 30 31  2  0
 31 32  1  0
 22 33  2  0
  9 34  1  0
  6  1  1  0
 33 10  1  0
 34  4  1  0
 20 15  1  0
 32 23  1  0
 31 26  1  0
  1 35  1  0
  2 36  1  0
  3 37  1  0
  6 38  1  0
  7 39  1  0
  7 40  1  0
  8 41  1  0
  8 42  1  0
 13 43  1  0
 14 44  1  0
 14 45  1  0
 15 46  1  6
 16 47  1  0
 16 48  1  0
 17 49  1  0
 17 50  1  0
 18 51  1  0
 18 52  1  0
 19 53  1  0
 20 54  1  0
 20 55  1  0
 24 56  1  0
 24 57  1  0
 25 58  1  0
 25 59  1  0
 27 60  1  0
 28 61  1  0
 29 62  1  0
 30 63  1  0
 32 64  1  0
 32 65  1  0
 34 66  1  0
 34 67  1  0
M  END
>  <smiles>  (93) 
c1ccc2c(c1)CCN(c1nc(NCC3CCCNC3)nc(N3CCc4ccccc4C3)n1)C2

>  <score_type>  (93) 
oracle

>  <origin>  (93) 
autodockgpu

>  <m_score__min__energy>  (93) 
-10.529999999999999

>  <m_primary>  (93) 
energy

>  <rmsd>  (93) 
5.963001241903594

>  <m_score__min__rmsd>  (93) 
5.963001241903594

>  <meeko>  (93) 
{"free_energy": -9.8, "intermolecular_energy": -11.29, "internal_energy": -1.36, "cluster_size": 44, "cluster_id": 1, "rank_in_cluster": 18}

>  <energy>  (93) 
-9.17

>  <cluster_rmsd>  (93) 
1.21

>  <cluster>  (93) 
1

$$$$

     RDKit          3D

 67 72  0  0  0  0  0  0  0  0999 V2000
  146.3170   68.4720  218.8390 C   0  0  0  0  0  0  0  0  0  0  0  0
  145.1560   67.7140  218.9440 C   0  0  0  0  0  0  0  0  0  0  0  0
  143.9290   68.2850  219.2500 C   0  0  0  0  0  0  0  0  0  0  0  0
  143.9040   69.6620  219.4500 C   0  0  0  0  0  0  0  0  0  0  0  0
  145.0530   70.4150  219.3460 C   0  0  0  0  0  0  0  0  0  0  0  0
  146.2740   69.8410  219.0410 C   0  0  0  0  0  0  0  0  0  0  0  0
  145.0330   71.9080  219.5540 C   0  0  0  0  0  0  0  0  0  0  0  0
  143.6830   72.3590  218.9650 C   0  0  0  0  0  0  0  0  0  0  0  0
  142.7020   71.7360  219.8520 N   0  0  0  0  0  0  0  0  0  0  0  0
  141.8590   72.5080  220.7190 C   0  0  0  0  0  0  0  0  0  0  0  0
  140.9890   71.8830  221.5650 N   0  0  0  0  0  0  0  0  0  0  0  0
  140.1520   72.6030  222.3690 C   0  0  0  0  0  0  0  0  0  0  0  0
  139.2860   71.8960  223.2430 N   0  0  0  0  0  0  0  0  0  0  0  0
  139.5790   70.6110  223.8230 C   0  0  0  0  0  0  0  0  0  0  0  0
  139.7830   70.7910  225.3240 C   0  0  1  0  0  0  0  0  0  0  0  0
  139.6480   69.5070  226.0730 C   0  0  0  0  0  0  0  0  0  0  0  0
  140.7070   69.4600  227.1510 C   0  0  0  0  0  0  0  0  0  0  0  0
  140.7990   70.7740  227.8910 C   0  0  0  0  0  0  0  0  0  0  0  0
  141.0690   71.8920  227.0280 N   0  0  0  0  0  0  0  0  0  0  0  0
  141.0840   71.4690  225.6490 C   0  0  0  0  0  0  0  0  0  0  0  0
  140.1980   73.9580  222.3160 N   0  0  0  0  0  0  0  0  0  0  0  0
  141.0590   74.5930  221.4810 C   0  0  0  0  0  0  0  0  0  0  0  0
  141.0540   76.0020  221.4520 N   0  0  0  0  0  0  0  0  0  0  0  0
  141.0320   76.6520  220.1470 C   0  0  0  0  0  0  0  0  0  0  0  0
  142.1370   77.7190  220.1940 C   0  0  0  0  0  0  0  0  0  0  0  0
  141.5980   78.7530  221.1450 C   0  0  0  0  0  0  0  0  0  0  0  0
  141.6120   80.0970  220.8470 C   0  0  0  0  0  0  0  0  0  0  0  0
  141.1100   81.0100  221.7470 C   0  0  0  0  0  0  0  0  0  0  0  0
  140.5950   80.5570  222.9550 C   0  0  0  0  0  0  0  0  0  0  0  0
  140.5980   79.2110  223.2200 C   0  0  0  0  0  0  0  0  0  0  0  0
  141.0900   78.2580  222.3440 C   0  0  0  0  0  0  0  0  0  0  0  0
  141.0750   76.8020  222.6590 C   0  0  0  0  0  0  0  0  0  0  0  0
  141.8710   73.8500  220.7000 N   0  0  0  0  0  0  0  0  0  0  0  0
  142.6070   70.2870  219.7820 C   0  0  0  0  0  0  0  0  0  0  0  0
  147.2716   67.9829  218.5949 H   0  0  0  0  0  0  0  0  0  0  0  0
  145.2121   66.6278  218.7793 H   0  0  0  0  0  0  0  0  0  0  0  0
  143.0164   67.6762  219.3309 H   0  0  0  0  0  0  0  0  0  0  0  0
  147.1838   70.4541  218.9613 H   0  0  0  0  0  0  0  0  0  0  0  0
  145.0916   72.1526  220.6249 H   0  0  0  0  0  0  0  0  0  0  0  0
  145.8874   72.4094  219.0759 H   0  0  0  0  0  0  0  0  0  0  0  0
  143.5914   73.4550  218.9845 H   0  0  0  0  0  0  0  0  0  0  0  0
  143.5553   72.0688  217.9117 H   0  0  0  0  0  0  0  0  0  0  0  0
  138.3660   72.3870  223.4560 H   0  0  0  0  0  0  0  0  0  0  0  0
  138.7400   69.9228  223.6427 H   0  0  0  0  0  0  0  0  0  0  0  0
  140.4878   70.1909  223.3674 H   0  0  0  0  0  0  0  0  0  0  0  0
  138.9735   71.4559  225.6595 H   0  0  0  0  0  0  0  0  0  0  0  0
  138.6500   69.4496  226.5320 H   0  0  0  0  0  0  0  0  0  0  0  0
  139.7752   68.6575  225.3858 H   0  0  0  0  0  0  0  0  0  0  0  0
  140.4545   68.6634  227.8663 H   0  0  0  0  0  0  0  0  0  0  0  0
  141.6783   69.2627  226.6738 H   0  0  0  0  0  0  0  0  0  0  0  0
  139.8437   70.9527  228.4063 H   0  0  0  0  0  0  0  0  0  0  0  0
  141.6398   70.6943  228.5957 H   0  0  0  0  0  0  0  0  0  0  0  0
  140.3120   72.6050  227.1160 H   0  0  0  0  0  0  0  0  0  0  0  0
  141.2147   72.3453  224.9971 H   0  0  0  0  0  0  0  0  0  0  0  0
  141.9158   70.7676  225.4875 H   0  0  0  0  0  0  0  0  0  0  0  0
  141.2384   75.9212  219.3512 H   0  0  0  0  0  0  0  0  0  0  0  0
  140.0488   77.0956  219.9314 H   0  0  0  0  0  0  0  0  0  0  0  0
  143.0779   77.2922  220.5715 H   0  0  0  0  0  0  0  0  0  0  0  0
  142.3699   78.1339  219.2022 H   0  0  0  0  0  0  0  0  0  0  0  0
  142.0252   80.4422  219.8877 H   0  0  0  0  0  0  0  0  0  0  0  0
  141.1166   82.0847  221.5124 H   0  0  0  0  0  0  0  0  0  0  0  0
  140.1900   81.2685  223.6897 H   0  0  0  0  0  0  0  0  0  0  0  0
  140.1869   78.8698  224.1815 H   0  0  0  0  0  0  0  0  0  0  0  0
  141.9755   76.5517  223.2390 H   0  0  0  0  0  0  0  0  0  0  0  0
  140.1655   76.5815  223.2372 H   0  0  0  0  0  0  0  0  0  0  0  0
  142.2685   69.9059  220.7568 H   0  0  0  0  0  0  0  0  0  0  0  0
  141.8932   70.0317  218.9849 H   0  0  0  0  0  0  0  0  0  0  0  0
  1  2  2  0
  2  3  1  0
  3  4  2  0
  4  5  1  0
  5  6  2  0
  5  7  1  0
  7  8  1  0
  8  9  1  0
  9 10  1  0
 10 11  2  0
 11 12  1  0
 12 13  1  0
 13 14  1  0
 14 15  1  0
 15 16  1  0
 16 17  1  0
 17 18  1  0
 18 19  1  0
 19 20  1  0
 12 21  2  0
 21 22  1  0
 22 23  1  0
 23 24  1  0
 24 25  1  0
 25 26  1  0
 26 27  2  0
 27 28  1  0
 28 29  2  0
 29 30  1  0
 30 31  2  0
 31 32  1  0
 22 33  2  0
  9 34  1  0
  6  1  1  0
 33 10  1  0
 34  4  1  0
 20 15  1  0
 32 23  1  0
 31 26  1  0
  1 35  1  0
  2 36  1  0
  3 37  1  0
  6 38  1  0
  7 39  1  0
  7 40  1  0
  8 41  1  0
  8 42  1  0
 13 43  1  0
 14 44  1  0
 14 45  1  0
 15 46  1  1
 16 47  1  0
 16 48  1  0
 17 49  1  0
 17 50  1  0
 18 51  1  0
 18 52  1  0
 19 53  1  0
 20 54  1  0
 20 55  1  0
 24 56  1  0
 24 57  1  0
 25 58  1  0
 25 59  1  0
 27 60  1  0
 28 61  1  0
 29 62  1  0
 30 63  1  0
 32 64  1  0
 32 65  1  0
 34 66  1  0
 34 67  1  0
M  END
>  <smiles>  (94) 
c1ccc2c(c1)CCN(c1nc(NCC3CCCNC3)nc(N3CCc4ccccc4C3)n1)C2

>  <score_type>  (94) 
oracle

>  <origin>  (94) 
autodockgpu

>  <m_score__min__energy>  (94) 
-10.529999999999999

>  <m_primary>  (94) 
energy

>  <rmsd>  (94) 
8.86667599009733

>  <m_score__min__rmsd>  (94) 
8.86667599009733

>  <meeko>  (94) 
{"free_energy": -9.88, "intermolecular_energy": -11.37, "internal_energy": -0.91, "cluster_size": 4, "cluster_id": 2, "rank_in_cluster": 2}

>  <energy>  (94) 
-9.16

>  <cluster_rmsd>  (94) 
1.28

>  <cluster>  (94) 
1

$$$$

     RDKit          3D

 67 72  0  0  0  0  0  0  0  0999 V2000
  139.6420   80.1450  223.5530 C   0  0  0  0  0  0  0  0  0  0  0  0
  140.9320   80.0990  223.0350 C   0  0  0  0  0  0  0  0  0  0  0  0
  141.4300   78.9710  222.4000 C   0  0  0  0  0  0  0  0  0  0  0  0
  140.5790   77.8740  222.2980 C   0  0  0  0  0  0  0  0  0  0  0  0
  139.3000   77.9190  222.8100 C   0  0  0  0  0  0  0  0  0  0  0  0
  138.8090   79.0460  223.4430 C   0  0  0  0  0  0  0  0  0  0  0  0
  138.3710   76.7380  222.6970 C   0  0  0  0  0  0  0  0  0  0  0  0
  138.6990   76.1200  221.3250 C   0  0  0  0  0  0  0  0  0  0  0  0
  140.0710   75.6390  221.4920 N   0  0  0  0  0  0  0  0  0  0  0  0
  140.3930   74.2410  221.4880 C   0  0  0  0  0  0  0  0  0  0  0  0
  140.8120   73.6370  220.3370 N   0  0  0  0  0  0  0  0  0  0  0  0
  141.0880   72.2990  220.3060 C   0  0  0  0  0  0  0  0  0  0  0  0
  141.5410   71.7350  219.0860 N   0  0  0  0  0  0  0  0  0  0  0  0
  142.8810   71.8550  218.5760 C   0  0  0  0  0  0  0  0  0  0  0  0
  143.7280   72.5970  219.6060 C   0  0  1  0  0  0  0  0  0  0  0  0
  145.0550   71.9490  219.8220 C   0  0  0  0  0  0  0  0  0  0  0  0
  146.1060   73.0290  219.9530 C   0  0  0  0  0  0  0  0  0  0  0  0
  145.6400   74.1450  220.8590 C   0  0  0  0  0  0  0  0  0  0  0  0
  144.4100   74.7500  220.4250 N   0  0  0  0  0  0  0  0  0  0  0  0
  143.8880   74.0540  219.2740 C   0  0  0  0  0  0  0  0  0  0  0  0
  140.9390   71.5740  221.4430 N   0  0  0  0  0  0  0  0  0  0  0  0
  140.5240   72.1610  222.5940 C   0  0  0  0  0  0  0  0  0  0  0  0
  140.3690   71.3590  223.7420 N   0  0  0  0  0  0  0  0  0  0  0  0
  139.8630   70.0030  223.5580 C   0  0  0  0  0  0  0  0  0  0  0  0
  138.7390   69.8340  224.5910 C   0  0  0  0  0  0  0  0  0  0  0  0
  139.4640   69.7940  225.9090 C   0  0  0  0  0  0  0  0  0  0  0  0
  139.2040   68.8310  226.8570 C   0  0  0  0  0  0  0  0  0  0  0  0
  139.8900   68.8330  228.0510 C   0  0  0  0  0  0  0  0  0  0  0  0
  140.8410   69.8180  228.2840 C   0  0  0  0  0  0  0  0  0  0  0  0
  141.0740   70.7630  227.3170 C   0  0  0  0  0  0  0  0  0  0  0  0
  140.4100   70.7990  226.1030 C   0  0  0  0  0  0  0  0  0  0  0  0
  140.6880   71.8370  225.0720 C   0  0  0  0  0  0  0  0  0  0  0  0
  140.2610   73.4840  222.5880 N   0  0  0  0  0  0  0  0  0  0  0  0
  141.0940   76.6620  221.6300 C   0  0  0  0  0  0  0  0  0  0  0  0
  139.2832   81.0576  224.0514 H   0  0  0  0  0  0  0  0  0  0  0  0
  141.5772   80.9846  223.1320 H   0  0  0  0  0  0  0  0  0  0  0  0
  142.4523   78.9444  221.9948 H   0  0  0  0  0  0  0  0  0  0  0  0
  137.7862   79.0681  223.8472 H   0  0  0  0  0  0  0  0  0  0  0  0
  138.5606   76.0154  223.5044 H   0  0  0  0  0  0  0  0  0  0  0  0
  137.3134   77.0277  222.7835 H   0  0  0  0  0  0  0  0  0  0  0  0
  138.0157   75.2897  221.0933 H   0  0  0  0  0  0  0  0  0  0  0  0
  138.5909   76.8333  220.4946 H   0  0  0  0  0  0  0  0  0  0  0  0
  140.8020   71.1940  218.5410 H   0  0  0  0  0  0  0  0  0  0  0  0
  143.3023   70.8540  218.4013 H   0  0  0  0  0  0  0  0  0  0  0  0
  142.8737   72.4087  217.6256 H   0  0  0  0  0  0  0  0  0  0  0  0
  143.1723   72.5351  220.5533 H   0  0  0  0  0  0  0  0  0  0  0  0
  145.0272   71.3459  220.7415 H   0  0  0  0  0  0  0  0  0  0  0  0
  145.2950   71.2934  218.9720 H   0  0  0  0  0  0  0  0  0  0  0  0
  147.0226   72.5875  220.3714 H   0  0  0  0  0  0  0  0  0  0  0  0
  146.2959   73.4501  218.9547 H   0  0  0  0  0  0  0  0  0  0  0  0
  145.4912   73.7362  221.8693 H   0  0  0  0  0  0  0  0  0  0  0  0
  146.4137   74.9267  220.8396 H   0  0  0  0  0  0  0  0  0  0  0  0
  143.6880   74.6750  221.1740 H   0  0  0  0  0  0  0  0  0  0  0  0
  142.9107   74.4781  219.0000 H   0  0  0  0  0  0  0  0  0  0  0  0
  144.5833   74.1655  218.4289 H   0  0  0  0  0  0  0  0  0  0  0  0
  139.4693   69.8757  222.5388 H   0  0  0  0  0  0  0  0  0  0  0  0
  140.6555   69.2524  223.6944 H   0  0  0  0  0  0  0  0  0  0  0  0
  138.0415   70.6837  224.5533 H   0  0  0  0  0  0  0  0  0  0  0  0
  138.1304   68.9351  224.4134 H   0  0  0  0  0  0  0  0  0  0  0  0
  138.4465   68.0579  226.6606 H   0  0  0  0  0  0  0  0  0  0  0  0
  139.6873   68.0639  228.8109 H   0  0  0  0  0  0  0  0  0  0  0  0
  141.3999   69.8402  229.2312 H   0  0  0  0  0  0  0  0  0  0  0  0
  141.8310   71.5354  227.5177 H   0  0  0  0  0  0  0  0  0  0  0  0
  140.0798   72.7278  225.2877 H   0  0  0  0  0  0  0  0  0  0  0  0
  141.7604   72.0796  225.1050 H   0  0  0  0  0  0  0  0  0  0  0  0
  141.9251   76.2550  222.2246 H   0  0  0  0  0  0  0  0  0  0  0  0
  141.4278   76.9464  220.6212 H   0  0  0  0  0  0  0  0  0  0  0  0
  1  2  2  0
  2  3  1  0
  3  4  2  0
  4  5  1  0
  5  6  2  0
  5  7  1  0
  7  8  1  0
  8  9  1  0
  9 10  1  0
 10 11  2  0
 11 12  1  0
 12 13  1  0
 13 14  1  0
 14 15  1  0
 15 16  1  0
 16 17  1  0
 17 18  1  0
 18 19  1  0
 19 20  1  0
 12 21  2  0
 21 22  1  0
 22 23  1  0
 23 24  1  0
 24 25  1  0
 25 26  1  0
 26 27  2  0
 27 28  1  0
 28 29  2  0
 29 30  1  0
 30 31  2  0
 31 32  1  0
 22 33  2  0
  9 34  1  0
  6  1  1  0
 33 10  1  0
 34  4  1  0
 20 15  1  0
 32 23  1  0
 31 26  1  0
  1 35  1  0
  2 36  1  0
  3 37  1  0
  6 38  1  0
  7 39  1  0
  7 40  1  0
  8 41  1  0
  8 42  1  0
 13 43  1  0
 14 44  1  0
 14 45  1  0
 15 46  1  1
 16 47  1  0
 16 48  1  0
 17 49  1  0
 17 50  1  0
 18 51  1  0
 18 52  1  0
 19 53  1  0
 20 54  1  0
 20 55  1  0
 24 56  1  0
 24 57  1  0
 25 58  1  0
 25 59  1  0
 27 60  1  0
 28 61  1  0
 29 62  1  0
 30 63  1  0
 32 64  1  0
 32 65  1  0
 34 66  1  0
 34 67  1  0
M  END
>  <smiles>  (95) 
c1ccc2c(c1)CCN(c1nc(NCC3CCCNC3)nc(N3CCc4ccccc4C3)n1)C2

>  <score_type>  (95) 
oracle

>  <origin>  (95) 
autodockgpu

>  <m_score__min__energy>  (95) 
-10.529999999999999

>  <m_primary>  (95) 
energy

>  <rmsd>  (95) 
5.841012818029534

>  <m_score__min__rmsd>  (95) 
5.841012818029534

>  <meeko>  (95) 
{"free_energy": -9.57, "intermolecular_energy": -11.06, "internal_energy": -1.33, "cluster_size": 44, "cluster_id": 1, "rank_in_cluster": 30}

>  <energy>  (95) 
-9.89

>  <cluster_rmsd>  (95) 
0.0

>  <cluster>  (95) 
2

$$$$

     RDKit          3D

 67 72  0  0  0  0  0  0  0  0999 V2000
  139.9520   68.0390  227.0880 C   0  0  0  0  0  0  0  0  0  0  0  0
  140.6410   69.1270  227.6160 C   0  0  0  0  0  0  0  0  0  0  0  0
  140.8380   70.2940  226.8930 C   0  0  0  0  0  0  0  0  0  0  0  0
  140.3130   70.3380  225.6040 C   0  0  0  0  0  0  0  0  0  0  0  0
  139.6300   69.2610  225.0800 C   0  0  0  0  0  0  0  0  0  0  0  0
  139.4360   68.0990  225.8050 C   0  0  0  0  0  0  0  0  0  0  0  0
  139.0530   69.3030  223.6890 C   0  0  0  0  0  0  0  0  0  0  0  0
  138.5790   70.7580  223.5130 C   0  0  0  0  0  0  0  0  0  0  0  0
  139.8250   71.5240  223.5410 N   0  0  0  0  0  0  0  0  0  0  0  0
  140.3200   72.2160  222.3860 C   0  0  0  0  0  0  0  0  0  0  0  0
  140.7780   71.5130  221.3090 N   0  0  0  0  0  0  0  0  0  0  0  0
  141.2880   72.1550  220.2160 C   0  0  0  0  0  0  0  0  0  0  0  0
  141.7270   71.3690  219.1200 N   0  0  0  0  0  0  0  0  0  0  0  0
  143.0120   70.7270  219.0350 C   0  0  0  0  0  0  0  0  0  0  0  0
  144.0850   71.7330  219.4400 C   0  0  1  0  0  0  0  0  0  0  0  0
  143.9740   73.0170  218.6850 C   0  0  0  0  0  0  0  0  0  0  0  0
  144.2410   74.1630  219.6340 C   0  0  0  0  0  0  0  0  0  0  0  0
  145.4450   73.8880  220.5060 C   0  0  0  0  0  0  0  0  0  0  0  0
  145.3230   72.6760  221.2710 N   0  0  0  0  0  0  0  0  0  0  0  0
  144.1070   71.9830  220.9220 C   0  0  0  0  0  0  0  0  0  0  0  0
  141.3320   73.5110  220.2150 N   0  0  0  0  0  0  0  0  0  0  0  0
  140.8800   74.2220  221.2780 C   0  0  0  0  0  0  0  0  0  0  0  0
  140.9650   75.6280  221.2330 N   0  0  0  0  0  0  0  0  0  0  0  0
  141.0580   76.2600  219.9210 C   0  0  0  0  0  0  0  0  0  0  0  0
  142.2230   77.2560  220.0200 C   0  0  0  0  0  0  0  0  0  0  0  0
  141.6970   78.3360  220.9270 C   0  0  0  0  0  0  0  0  0  0  0  0
  141.8120   79.6720  220.6150 C   0  0  0  0  0  0  0  0  0  0  0  0
  141.3180   80.6270  221.4750 C   0  0  0  0  0  0  0  0  0  0  0  0
  140.7070   80.2250  222.6560 C   0  0  0  0  0  0  0  0  0  0  0  0
  140.6110   78.8850  222.9350 C   0  0  0  0  0  0  0  0  0  0  0  0
  141.0910   77.8910  222.1010 C   0  0  0  0  0  0  0  0  0  0  0  0
  140.9670   76.4440  222.4300 C   0  0  0  0  0  0  0  0  0  0  0  0
  140.3830   73.5560  222.3410 N   0  0  0  0  0  0  0  0  0  0  0  0
  140.5180   71.5700  224.8180 C   0  0  0  0  0  0  0  0  0  0  0  0
  139.8172   67.1294  227.6917 H   0  0  0  0  0  0  0  0  0  0  0  0
  141.0416   69.0592  228.6382 H   0  0  0  0  0  0  0  0  0  0  0  0
  141.3852   71.1477  227.3193 H   0  0  0  0  0  0  0  0  0  0  0  0
  138.8879   67.2479  225.3747 H   0  0  0  0  0  0  0  0  0  0  0  0
  139.8200   69.0507  222.9419 H   0  0  0  0  0  0  0  0  0  0  0  0
  138.2376   68.5775  223.5519 H   0  0  0  0  0  0  0  0  0  0  0  0
  138.0574   70.8891  222.5534 H   0  0  0  0  0  0  0  0  0  0  0  0
  137.8624   71.0736  224.2856 H   0  0  0  0  0  0  0  0  0  0  0  0
  141.0230   71.2740  218.3260 H   0  0  0  0  0  0  0  0  0  0  0  0
  143.0398   69.8618  219.7137 H   0  0  0  0  0  0  0  0  0  0  0  0
  143.1914   70.3787  218.0071 H   0  0  0  0  0  0  0  0  0  0  0  0
  145.0460   71.2714  219.1692 H   0  0  0  0  0  0  0  0  0  0  0  0
  144.7125   73.0319  217.8699 H   0  0  0  0  0  0  0  0  0  0  0  0
  142.9656   73.1132  218.2562 H   0  0  0  0  0  0  0  0  0  0  0  0
  144.4237   75.0767  219.0494 H   0  0  0  0  0  0  0  0  0  0  0  0
  143.3628   74.2852  220.2850 H   0  0  0  0  0  0  0  0  0  0  0  0
  146.3328   73.8073  219.8616 H   0  0  0  0  0  0  0  0  0  0  0  0
  145.5290   74.7199  221.2208 H   0  0  0  0  0  0  0  0  0  0  0  0
  146.1120   72.0300  221.0470 H   0  0  0  0  0  0  0  0  0  0  0  0
  144.0648   71.0229  221.4572 H   0  0  0  0  0  0  0  0  0  0  0  0
  143.2391   72.5968  221.2049 H   0  0  0  0  0  0  0  0  0  0  0  0
  141.2626   75.5065  219.1462 H   0  0  0  0  0  0  0  0  0  0  0  0
  140.1185   76.7609  219.6446 H   0  0  0  0  0  0  0  0  0  0  0  0
  143.1120   76.7769  220.4560 H   0  0  0  0  0  0  0  0  0  0  0  0
  142.5378   77.6409  219.0388 H   0  0  0  0  0  0  0  0  0  0  0  0
  142.2993   79.9769  219.6772 H   0  0  0  0  0  0  0  0  0  0  0  0
  141.4061   81.6957  221.2298 H   0  0  0  0  0  0  0  0  0  0  0  0
  140.3056   80.9708  223.3580 H   0  0  0  0  0  0  0  0  0  0  0  0
  140.1249   78.5841  223.8748 H   0  0  0  0  0  0  0  0  0  0  0  0
  141.8154   76.1472  223.0641 H   0  0  0  0  0  0  0  0  0  0  0  0
  140.0135   76.2891  222.9561 H   0  0  0  0  0  0  0  0  0  0  0  0
  141.5948   71.6980  224.6331 H   0  0  0  0  0  0  0  0  0  0  0  0
  140.1100   72.4127  225.3954 H   0  0  0  0  0  0  0  0  0  0  0  0
  1  2  2  0
  2  3  1  0
  3  4  2  0
  4  5  1  0
  5  6  2  0
  5  7  1  0
  7  8  1  0
  8  9  1  0
  9 10  1  0
 10 11  2  0
 11 12  1  0
 12 13  1  0
 13 14  1  0
 14 15  1  0
 15 16  1  0
 16 17  1  0
 17 18  1  0
 18 19  1  0
 19 20  1  0
 12 21  2  0
 21 22  1  0
 22 23  1  0
 23 24  1  0
 24 25  1  0
 25 26  1  0
 26 27  2  0
 27 28  1  0
 28 29  2  0
 29 30  1  0
 30 31  2  0
 31 32  1  0
 22 33  2  0
  9 34  1  0
  6  1  1  0
 33 10  1  0
 34  4  1  0
 20 15  1  0
 32 23  1  0
 31 26  1  0
  1 35  1  0
  2 36  1  0
  3 37  1  0
  6 38  1  0
  7 39  1  0
  7 40  1  0
  8 41  1  0
  8 42  1  0
 13 43  1  0
 14 44  1  0
 14 45  1  0
 15 46  1  6
 16 47  1  0
 16 48  1  0
 17 49  1  0
 17 50  1  0
 18 51  1  0
 18 52  1  0
 19 53  1  0
 20 54  1  0
 20 55  1  0
 24 56  1  0
 24 57  1  0
 25 58  1  0
 25 59  1  0
 27 60  1  0
 28 61  1  0
 29 62  1  0
 30 63  1  0
 32 64  1  0
 32 65  1  0
 34 66  1  0
 34 67  1  0
M  END
>  <smiles>  (96) 
c1ccc2c(c1)CCN(c1nc(NCC3CCCNC3)nc(N3CCc4ccccc4C3)n1)C2

>  <score_type>  (96) 
oracle

>  <origin>  (96) 
autodockgpu

>  <m_score__min__energy>  (96) 
-10.529999999999999

>  <m_primary>  (96) 
energy

>  <rmsd>  (96) 
6.102500215748645

>  <m_score__min__rmsd>  (96) 
6.102500215748645

>  <meeko>  (96) 
{"free_energy": -9.74, "intermolecular_energy": -11.23, "internal_energy": -1.32, "cluster_size": 44, "cluster_id": 1, "rank_in_cluster": 19}

>  <energy>  (96) 
-9.88

>  <cluster_rmsd>  (96) 
0.04

>  <cluster>  (96) 
2

$$$$

     RDKit          3D

 67 72  0  0  0  0  0  0  0  0999 V2000
  140.1220   68.1540  227.4460 C   0  0  0  0  0  0  0  0  0  0  0  0
  140.8090   69.2690  227.9140 C   0  0  0  0  0  0  0  0  0  0  0  0
  140.9980   70.3990  227.1320 C   0  0  0  0  0  0  0  0  0  0  0  0
  140.4660   70.3750  225.8450 C   0  0  0  0  0  0  0  0  0  0  0  0
  139.7840   69.2710  225.3810 C   0  0  0  0  0  0  0  0  0  0  0  0
  139.5990   68.1460  226.1650 C   0  0  0  0  0  0  0  0  0  0  0  0
  139.2000   69.2400  223.9920 C   0  0  0  0  0  0  0  0  0  0  0  0
  138.7200   70.6830  223.7450 C   0  0  0  0  0  0  0  0  0  0  0  0
  139.9640   71.4530  223.7270 N   0  0  0  0  0  0  0  0  0  0  0  0
  140.4500   72.0870  222.5360 C   0  0  0  0  0  0  0  0  0  0  0  0
  140.9310   71.3320  221.5050 N   0  0  0  0  0  0  0  0  0  0  0  0
  141.4340   71.9200  220.3780 C   0  0  0  0  0  0  0  0  0  0  0  0
  141.8970   71.0810  219.3330 N   0  0  0  0  0  0  0  0  0  0  0  0
  142.4050   69.7470  219.5180 C   0  0  0  0  0  0  0  0  0  0  0  0
  143.9150   69.8260  219.7240 C   0  0  1  0  0  0  0  0  0  0  0  0
  144.5980   68.5330  219.4240 C   0  0  0  0  0  0  0  0  0  0  0  0
  145.8910   68.8240  218.6980 C   0  0  0  0  0  0  0  0  0  0  0  0
  146.6480   69.9570  219.3510 C   0  0  0  0  0  0  0  0  0  0  0  0
  145.8840   71.1720  219.4350 N   0  0  0  0  0  0  0  0  0  0  0  0
  144.5410   70.9550  218.9550 C   0  0  0  0  0  0  0  0  0  0  0  0
  141.4470   73.2740  220.2980 N   0  0  0  0  0  0  0  0  0  0  0  0
  140.9720   74.0370  221.3140 C   0  0  0  0  0  0  0  0  0  0  0  0
  141.0250   75.4390  221.1860 N   0  0  0  0  0  0  0  0  0  0  0  0
  141.1280   75.9930  219.8410 C   0  0  0  0  0  0  0  0  0  0  0  0
  142.2680   77.0220  219.9000 C   0  0  0  0  0  0  0  0  0  0  0  0
  141.7000   78.1410  220.7310 C   0  0  0  0  0  0  0  0  0  0  0  0
  141.7890   79.4580  220.3420 C   0  0  0  0  0  0  0  0  0  0  0  0
  141.2580   80.4510  221.1340 C   0  0  0  0  0  0  0  0  0  0  0  0
  140.6340   80.1050  222.3260 C   0  0  0  0  0  0  0  0  0  0  0  0
  140.5630   78.7820  222.6840 C   0  0  0  0  0  0  0  0  0  0  0  0
  141.0820   77.7520  221.9190 C   0  0  0  0  0  0  0  0  0  0  0  0
  140.9860   76.3240  222.3320 C   0  0  0  0  0  0  0  0  0  0  0  0
  140.4830   73.4220  222.4110 N   0  0  0  0  0  0  0  0  0  0  0  0
  140.6630   71.5670  224.9960 C   0  0  0  0  0  0  0  0  0  0  0  0
  139.9940   67.2759  228.0961 H   0  0  0  0  0  0  0  0  0  0  0  0
  141.2152   69.2543  228.9362 H   0  0  0  0  0  0  0  0  0  0  0  0
  141.5439   71.2753  227.5115 H   0  0  0  0  0  0  0  0  0  0  0  0
  139.0527   67.2717  225.7815 H   0  0  0  0  0  0  0  0  0  0  0  0
  139.9642   68.9526  223.2549 H   0  0  0  0  0  0  0  0  0  0  0  0
  138.3867   68.5056  223.8957 H   0  0  0  0  0  0  0  0  0  0  0  0
  138.1927   70.7637  222.7830 H   0  0  0  0  0  0  0  0  0  0  0  0
  138.0066   71.0353  224.5045 H   0  0  0  0  0  0  0  0  0  0  0  0
  141.8490   71.5100  218.3590 H   0  0  0  0  0  0  0  0  0  0  0  0
  141.9338   69.2900  220.4007 H   0  0  0  0  0  0  0  0  0  0  0  0
  142.1776   69.1321  218.6347 H   0  0  0  0  0  0  0  0  0  0  0  0
  144.0606   70.0362  220.7939 H   0  0  0  0  0  0  0  0  0  0  0  0
  144.8124   68.0013  220.3628 H   0  0  0  0  0  0  0  0  0  0  0  0
  143.9497   67.9039  218.7964 H   0  0  0  0  0  0  0  0  0  0  0  0
  146.5188   67.9208  218.7095 H   0  0  0  0  0  0  0  0  0  0  0  0
  145.6494   69.1189  217.6662 H   0  0  0  0  0  0  0  0  0  0  0  0
  146.9290   69.6492  220.3690 H   0  0  0  0  0  0  0  0  0  0  0  0
  147.5285   70.1661  218.7257 H   0  0  0  0  0  0  0  0  0  0  0  0
  145.8010   71.4770  220.4310 H   0  0  0  0  0  0  0  0  0  0  0  0
  143.9475   71.8701  219.0975 H   0  0  0  0  0  0  0  0  0  0  0  0
  144.5687   70.7012  217.8850 H   0  0  0  0  0  0  0  0  0  0  0  0
  141.3648   75.1997  219.1168 H   0  0  0  0  0  0  0  0  0  0  0  0
  140.1825   76.4534  219.5185 H   0  0  0  0  0  0  0  0  0  0  0  0
  143.1597   76.5917  220.3793 H   0  0  0  0  0  0  0  0  0  0  0  0
  142.5920   77.3551  218.9030 H   0  0  0  0  0  0  0  0  0  0  0  0
  142.2858   79.7180  219.3956 H   0  0  0  0  0  0  0  0  0  0  0  0
  141.3269   81.5050  220.8269 H   0  0  0  0  0  0  0  0  0  0  0  0
  140.2023   80.8815  222.9746 H   0  0  0  0  0  0  0  0  0  0  0  0
  140.0661   78.5261  223.6314 H   0  0  0  0  0  0  0  0  0  0  0  0
  141.8295   76.0862  222.9968 H   0  0  0  0  0  0  0  0  0  0  0  0
  140.0271   76.1771  222.8505 H   0  0  0  0  0  0  0  0  0  0  0  0
  141.7384   71.6892  224.7994 H   0  0  0  0  0  0  0  0  0  0  0  0
  140.2551   72.4369  225.5317 H   0  0  0  0  0  0  0  0  0  0  0  0
  1  2  2  0
  2  3  1  0
  3  4  2  0
  4  5  1  0
  5  6  2  0
  5  7  1  0
  7  8  1  0
  8  9  1  0
  9 10  1  0
 10 11  2  0
 11 12  1  0
 12 13  1  0
 13 14  1  0
 14 15  1  0
 15 16  1  0
 16 17  1  0
 17 18  1  0
 18 19  1  0
 19 20  1  0
 12 21  2  0
 21 22  1  0
 22 23  1  0
 23 24  1  0
 24 25  1  0
 25 26  1  0
 26 27  2  0
 27 28  1  0
 28 29  2  0
 29 30  1  0
 30 31  2  0
 31 32  1  0
 22 33  2  0
  9 34  1  0
  6  1  1  0
 33 10  1  0
 34  4  1  0
 20 15  1  0
 32 23  1  0
 31 26  1  0
  1 35  1  0
  2 36  1  0
  3 37  1  0
  6 38  1  0
  7 39  1  0
  7 40  1  0
  8 41  1  0
  8 42  1  0
 13 43  1  0
 14 44  1  0
 14 45  1  0
 15 46  1  1
 16 47  1  0
 16 48  1  0
 17 49  1  0
 17 50  1  0
 18 51  1  0
 18 52  1  0
 19 53  1  0
 20 54  1  0
 20 55  1  0
 24 56  1  0
 24 57  1  0
 25 58  1  0
 25 59  1  0
 27 60  1  0
 28 61  1  0
 29 62  1  0
 30 63  1  0
 32 64  1  0
 32 65  1  0
 34 66  1  0
 34 67  1  0
M  END
>  <smiles>  (97) 
c1ccc2c(c1)CCN(c1nc(NCC3CCCNC3)nc(N3CCc4ccccc4C3)n1)C2

>  <score_type>  (97) 
oracle

>  <origin>  (97) 
autodockgpu

>  <m_score__min__energy>  (97) 
-10.529999999999999

>  <m_primary>  (97) 
energy

>  <rmsd>  (97) 
8.303593065056104

>  <m_score__min__rmsd>  (97) 
8.303593065056104

>  <meeko>  (97) 
{"free_energy": -9.6, "intermolecular_energy": -11.1, "internal_energy": -0.91, "cluster_size": 44, "cluster_id": 1, "rank_in_cluster": 26}

>  <energy>  (97) 
-9.76

>  <cluster_rmsd>  (97) 
0.18

>  <cluster>  (97) 
2

$$$$

     RDKit          3D

 67 72  0  0  0  0  0  0  0  0999 V2000
  139.4500   80.4270  223.8570 C   0  0  0  0  0  0  0  0  0  0  0  0
  140.7390   80.4820  223.3380 C   0  0  0  0  0  0  0  0  0  0  0  0
  141.2860   79.4360  222.6100 C   0  0  0  0  0  0  0  0  0  0  0  0
  140.4840   78.3140  222.4140 C   0  0  0  0  0  0  0  0  0  0  0  0
  139.2060   78.2580  222.9270 C   0  0  0  0  0  0  0  0  0  0  0  0
  138.6670   79.3040  223.6530 C   0  0  0  0  0  0  0  0  0  0  0  0
  138.3310   77.0500  222.7140 C   0  0  0  0  0  0  0  0  0  0  0  0
  138.6830   76.5660  221.2940 C   0  0  0  0  0  0  0  0  0  0  0  0
  140.0750   76.1350  221.4210 N   0  0  0  0  0  0  0  0  0  0  0  0
  140.4610   74.7590  221.2990 C   0  0  0  0  0  0  0  0  0  0  0  0
  141.0290   74.3060  220.1430 N   0  0  0  0  0  0  0  0  0  0  0  0
  141.3680   72.9900  219.9960 C   0  0  0  0  0  0  0  0  0  0  0  0
  141.9760   72.5860  218.7800 N   0  0  0  0  0  0  0  0  0  0  0  0
  142.7410   73.4500  217.9200 C   0  0  0  0  0  0  0  0  0  0  0  0
  144.0690   73.7630  218.6030 C   0  0  1  0  0  0  0  0  0  0  0  0
  143.8840   74.2960  219.9850 C   0  0  0  0  0  0  0  0  0  0  0  0
  144.9400   73.6920  220.8840 C   0  0  0  0  0  0  0  0  0  0  0  0
  146.3010   73.7150  220.2280 C   0  0  0  0  0  0  0  0  0  0  0  0
  146.3300   73.0350  218.9610 N   0  0  0  0  0  0  0  0  0  0  0  0
  145.0070   72.5890  218.6010 C   0  0  0  0  0  0  0  0  0  0  0  0
  141.1300   72.1340  221.0210 N   0  0  0  0  0  0  0  0  0  0  0  0
  140.5660   72.5710  222.1750 C   0  0  0  0  0  0  0  0  0  0  0  0
  140.3250   71.6370  223.2020 N   0  0  0  0  0  0  0  0  0  0  0  0
  139.6640   70.3880  222.8400 C   0  0  0  0  0  0  0  0  0  0  0  0
  138.5330   70.2030  223.8630 C   0  0  0  0  0  0  0  0  0  0  0  0
  139.2540   69.8940  225.1470 C   0  0  0  0  0  0  0  0  0  0  0  0
  138.8890   68.8420  225.9550 C   0  0  0  0  0  0  0  0  0  0  0  0
  139.5760   68.5960  227.1230 C   0  0  0  0  0  0  0  0  0  0  0  0
  140.6360   69.4230  227.4720 C   0  0  0  0  0  0  0  0  0  0  0  0
  140.9730   70.4640  226.6430 C   0  0  0  0  0  0  0  0  0  0  0  0
  140.3120   70.7470  225.4600 C   0  0  0  0  0  0  0  0  0  0  0  0
  140.7030   71.8820  224.5790 C   0  0  0  0  0  0  0  0  0  0  0  0
  140.2440   73.8760  222.2860 N   0  0  0  0  0  0  0  0  0  0  0  0
  141.0520   77.1880  221.6460 C   0  0  0  0  0  0  0  0  0  0  0  0
  139.0521   81.2772  224.4305 H   0  0  0  0  0  0  0  0  0  0  0  0
  141.3442   81.3842  223.5105 H   0  0  0  0  0  0  0  0  0  0  0  0
  142.3075   79.4899  222.2054 H   0  0  0  0  0  0  0  0  0  0  0  0
  137.6455   79.2454  224.0568 H   0  0  0  0  0  0  0  0  0  0  0  0
  138.5556   76.2710  223.4574 H   0  0  0  0  0  0  0  0  0  0  0  0
  137.2616   77.2828  222.8241 H   0  0  0  0  0  0  0  0  0  0  0  0
  138.0371   75.7284  220.9917 H   0  0  0  0  0  0  0  0  0  0  0  0
  138.5407   77.3417  220.5272 H   0  0  0  0  0  0  0  0  0  0  0  0
  141.8300   71.5630  218.5240 H   0  0  0  0  0  0  0  0  0  0  0  0
  142.9274   72.9468  216.9598 H   0  0  0  0  0  0  0  0  0  0  0  0
  142.1860   74.3809  217.7319 H   0  0  0  0  0  0  0  0  0  0  0  0
  144.5358   74.5569  218.0015 H   0  0  0  0  0  0  0  0  0  0  0  0
  143.9878   75.3911  219.9762 H   0  0  0  0  0  0  0  0  0  0  0  0
  142.8821   74.0345  220.3562 H   0  0  0  0  0  0  0  0  0  0  0  0
  144.9843   74.2672  221.8206 H   0  0  0  0  0  0  0  0  0  0  0  0
  144.6686   72.6445  221.0818 H   0  0  0  0  0  0  0  0  0  0  0  0
  146.5951   74.7630  220.0693 H   0  0  0  0  0  0  0  0  0  0  0  0
  146.9962   73.1881  220.8981 H   0  0  0  0  0  0  0  0  0  0  0  0
  146.6420   73.6890  218.2100 H   0  0  0  0  0  0  0  0  0  0  0  0
  145.0312   72.1398  217.5972 H   0  0  0  0  0  0  0  0  0  0  0  0
  144.6605   71.8395  219.3278 H   0  0  0  0  0  0  0  0  0  0  0  0
  139.2530   70.4530  221.8217 H   0  0  0  0  0  0  0  0  0  0  0  0
  140.3646   69.5401  222.8524 H   0  0  0  0  0  0  0  0  0  0  0  0
  137.9383   71.1233  223.9597 H   0  0  0  0  0  0  0  0  0  0  0  0
  137.8241   69.4132  223.5737 H   0  0  0  0  0  0  0  0  0  0  0  0
  138.0465   68.1959  225.6675 H   0  0  0  0  0  0  0  0  0  0  0  0
  139.2889   67.7551  227.7714 H   0  0  0  0  0  0  0  0  0  0  0  0
  141.1982   69.2460  228.4008 H   0  0  0  0  0  0  0  0  0  0  0  0
  141.8149   71.1090  226.9349 H   0  0  0  0  0  0  0  0  0  0  0  0
  140.2026   72.7965  224.9302 H   0  0  0  0  0  0  0  0  0  0  0  0
  141.7964   71.9937  224.6232 H   0  0  0  0  0  0  0  0  0  0  0  0
  141.9024   76.7701  222.2047 H   0  0  0  0  0  0  0  0  0  0  0  0
  141.3704   77.5716  220.6654 H   0  0  0  0  0  0  0  0  0  0  0  0
  1  2  2  0
  2  3  1  0
  3  4  2  0
  4  5  1  0
  5  6  2  0
  5  7  1  0
  7  8  1  0
  8  9  1  0
  9 10  1  0
 10 11  2  0
 11 12  1  0
 12 13  1  0
 13 14  1  0
 14 15  1  0
 15 16  1  0
 16 17  1  0
 17 18  1  0
 18 19  1  0
 19 20  1  0
 12 21  2  0
 21 22  1  0
 22 23  1  0
 23 24  1  0
 24 25  1  0
 25 26  1  0
 26 27  2  0
 27 28  1  0
 28 29  2  0
 29 30  1  0
 30 31  2  0
 31 32  1  0
 22 33  2  0
  9 34  1  0
  6  1  1  0
 33 10  1  0
 34  4  1  0
 20 15  1  0
 32 23  1  0
 31 26  1  0
  1 35  1  0
  2 36  1  0
  3 37  1  0
  6 38  1  0
  7 39  1  0
  7 40  1  0
  8 41  1  0
  8 42  1  0
 13 43  1  0
 14 44  1  0
 14 45  1  0
 15 46  1  6
 16 47  1  0
 16 48  1  0
 17 49  1  0
 17 50  1  0
 18 51  1  0
 18 52  1  0
 19 53  1  0
 20 54  1  0
 20 55  1  0
 24 56  1  0
 24 57  1  0
 25 58  1  0
 25 59  1  0
 27 60  1  0
 28 61  1  0
 29 62  1  0
 30 63  1  0
 32 64  1  0
 32 65  1  0
 34 66  1  0
 34 67  1  0
M  END
>  <smiles>  (98) 
c1ccc2c(c1)CCN(c1nc(NCC3CCCNC3)nc(N3CCc4ccccc4C3)n1)C2

>  <score_type>  (98) 
oracle

>  <origin>  (98) 
autodockgpu

>  <m_score__min__energy>  (98) 
-10.529999999999999

>  <m_primary>  (98) 
energy

>  <rmsd>  (98) 
5.666741456808037

>  <m_score__min__rmsd>  (98) 
5.666741456808037

>  <meeko>  (98) 
{"free_energy": -10.28, "intermolecular_energy": -11.77, "internal_energy": -0.86, "cluster_size": 44, "cluster_id": 1, "rank_in_cluster": 9}

>  <energy>  (98) 
-9.33

>  <cluster_rmsd>  (98) 
1.5

>  <cluster>  (98) 
2

$$$$

     RDKit          3D

 67 72  0  0  0  0  0  0  0  0999 V2000
  140.0790   67.5470  226.5240 C   0  0  0  0  0  0  0  0  0  0  0  0
  140.6490   68.6030  227.2260 C   0  0  0  0  0  0  0  0  0  0  0  0
  140.7150   69.8860  226.7010 C   0  0  0  0  0  0  0  0  0  0  0  0
  140.1810   70.0780  225.4300 C   0  0  0  0  0  0  0  0  0  0  0  0
  139.6160   69.0320  224.7330 C   0  0  0  0  0  0  0  0  0  0  0  0
  139.5530   67.7550  225.2610 C   0  0  0  0  0  0  0  0  0  0  0  0
  139.0300   69.2340  223.3590 C   0  0  0  0  0  0  0  0  0  0  0  0
  138.4010   70.6390  223.4120 C   0  0  0  0  0  0  0  0  0  0  0  0
  139.5570   71.5200  223.5770 N   0  0  0  0  0  0  0  0  0  0  0  0
  139.9690   72.4360  222.5530 C   0  0  0  0  0  0  0  0  0  0  0  0
  140.5780   71.9730  221.4220 N   0  0  0  0  0  0  0  0  0  0  0  0
  141.0110   72.8350  220.4540 C   0  0  0  0  0  0  0  0  0  0  0  0
  141.6160   72.2900  219.2930 N   0  0  0  0  0  0  0  0  0  0  0  0
  142.8580   71.5620  219.2810 C   0  0  0  0  0  0  0  0  0  0  0  0
  144.0010   72.5490  219.4930 C   0  0  1  0  0  0  0  0  0  0  0  0
  144.1430   72.9550  220.9230 C   0  0  0  0  0  0  0  0  0  0  0  0
  145.6150   73.0260  221.2630 C   0  0  0  0  0  0  0  0  0  0  0  0
  146.3970   73.7370  220.1830 C   0  0  0  0  0  0  0  0  0  0  0  0
  146.2530   73.1300  218.8880 N   0  0  0  0  0  0  0  0  0  0  0  0
  145.3060   72.0430  218.9460 C   0  0  0  0  0  0  0  0  0  0  0  0
  140.8240   74.1670  220.6330 N   0  0  0  0  0  0  0  0  0  0  0  0
  140.2190   74.6410  221.7500 C   0  0  0  0  0  0  0  0  0  0  0  0
  140.0650   76.0340  221.8940 N   0  0  0  0  0  0  0  0  0  0  0  0
  138.8290   76.6340  221.4060 C   0  0  0  0  0  0  0  0  0  0  0  0
  139.2570   77.8420  220.5590 C   0  0  0  0  0  0  0  0  0  0  0  0
  139.7820   78.8230  221.5720 C   0  0  0  0  0  0  0  0  0  0  0  0
  139.4010   80.1460  221.5740 C   0  0  0  0  0  0  0  0  0  0  0  0
  139.9090   81.0100  222.5180 C   0  0  0  0  0  0  0  0  0  0  0  0
  140.8070   80.5300  223.4620 C   0  0  0  0  0  0  0  0  0  0  0  0
  141.1650   79.2060  223.4310 C   0  0  0  0  0  0  0  0  0  0  0  0
  140.6800   78.3020  222.5020 C   0  0  0  0  0  0  0  0  0  0  0  0
  141.0850   76.8690  222.4970 C   0  0  0  0  0  0  0  0  0  0  0  0
  139.8050   73.7610  222.6860 N   0  0  0  0  0  0  0  0  0  0  0  0
  140.2480   71.4350  224.8530 C   0  0  0  0  0  0  0  0  0  0  0  0
  140.0460   66.5436  226.9736 H   0  0  0  0  0  0  0  0  0  0  0  0
  141.0605   68.4158  228.2288 H   0  0  0  0  0  0  0  0  0  0  0  0
  141.1692   70.7145  227.2644 H   0  0  0  0  0  0  0  0  0  0  0  0
  139.0983   66.9294  224.6938 H   0  0  0  0  0  0  0  0  0  0  0  0
  139.8156   69.1883  222.5904 H   0  0  0  0  0  0  0  0  0  0  0  0
  138.2969   68.4566  223.0980 H   0  0  0  0  0  0  0  0  0  0  0  0
  137.8632   70.8653  222.4795 H   0  0  0  0  0  0  0  0  0  0  0  0
  137.6588   70.7480  224.2165 H   0  0  0  0  0  0  0  0  0  0  0  0
  141.0800   72.4570  218.3870 H   0  0  0  0  0  0  0  0  0  0  0  0
  142.8581   70.8155  220.0889 H   0  0  0  0  0  0  0  0  0  0  0  0
  142.9815   71.0443  218.3183 H   0  0  0  0  0  0  0  0  0  0  0  0
  143.7309   73.4478  218.9192 H   0  0  0  0  0  0  0  0  0  0  0  0
  143.6799   73.9410  221.0756 H   0  0  0  0  0  0  0  0  0  0  0  0
  143.6433   72.2211  221.5724 H   0  0  0  0  0  0  0  0  0  0  0  0
  145.7375   73.5706  222.2109 H   0  0  0  0  0  0  0  0  0  0  0  0
  146.0000   71.9992  221.3500 H   0  0  0  0  0  0  0  0  0  0  0  0
  146.0442   74.7772  220.1229 H   0  0  0  0  0  0  0  0  0  0  0  0
  147.4609   73.6771  220.4560 H   0  0  0  0  0  0  0  0  0  0  0  0
  145.8730   73.8230  218.2060 H   0  0  0  0  0  0  0  0  0  0  0  0
  145.1485   71.6387  217.9352 H   0  0  0  0  0  0  0  0  0  0  0  0
  145.6963   71.2492  219.5998 H   0  0  0  0  0  0  0  0  0  0  0  0
  138.2701   75.9134  220.7909 H   0  0  0  0  0  0  0  0  0  0  0  0
  138.1693   76.9330  222.2339 H   0  0  0  0  0  0  0  0  0  0  0  0
  140.0429   77.5598  219.8430 H   0  0  0  0  0  0  0  0  0  0  0  0
  138.4331   78.2525  219.9567 H   0  0  0  0  0  0  0  0  0  0  0  0
  138.6894   80.5135  220.8200 H   0  0  0  0  0  0  0  0  0  0  0  0
  139.6071   82.0677  222.5243 H   0  0  0  0  0  0  0  0  0  0  0  0
  141.2260   81.2027  224.2249 H   0  0  0  0  0  0  0  0  0  0  0  0
  141.8771   78.8427  224.1865 H   0  0  0  0  0  0  0  0  0  0  0  0
  142.0187   76.7628  221.9253 H   0  0  0  0  0  0  0  0  0  0  0  0
  141.2267   76.5453  223.5387 H   0  0  0  0  0  0  0  0  0  0  0  0
  141.3037   71.7054  224.7036 H   0  0  0  0  0  0  0  0  0  0  0  0
  139.7548   72.1259  225.5526 H   0  0  0  0  0  0  0  0  0  0  0  0
  1  2  2  0
  2  3  1  0
  3  4  2  0
  4  5  1  0
  5  6  2  0
  5  7  1  0
  7  8  1  0
  8  9  1  0
  9 10  1  0
 10 11  2  0
 11 12  1  0
 12 13  1  0
 13 14  1  0
 14 15  1  0
 15 16  1  0
 16 17  1  0
 17 18  1  0
 18 19  1  0
 19 20  1  0
 12 21  2  0
 21 22  1  0
 22 23  1  0
 23 24  1  0
 24 25  1  0
 25 26  1  0
 26 27  2  0
 27 28  1  0
 28 29  2  0
 29 30  1  0
 30 31  2  0
 31 32  1  0
 22 33  2  0
  9 34  1  0
  6  1  1  0
 33 10  1  0
 34  4  1  0
 20 15  1  0
 32 23  1  0
 31 26  1  0
  1 35  1  0
  2 36  1  0
  3 37  1  0
  6 38  1  0
  7 39  1  0
  7 40  1  0
  8 41  1  0
  8 42  1  0
 13 43  1  0
 14 44  1  0
 14 45  1  0
 15 46  1  6
 16 47  1  0
 16 48  1  0
 17 49  1  0
 17 50  1  0
 18 51  1  0
 18 52  1  0
 19 53  1  0
 20 54  1  0
 20 55  1  0
 24 56  1  0
 24 57  1  0
 25 58  1  0
 25 59  1  0
 27 60  1  0
 28 61  1  0
 29 62  1  0
 30 63  1  0
 32 64  1  0
 32 65  1  0
 34 66  1  0
 34 67  1  0
M  END
>  <smiles>  (99) 
c1ccc2c(c1)CCN(c1nc(NCC3CCCNC3)nc(N3CCc4ccccc4C3)n1)C2

>  <score_type>  (99) 
oracle

>  <origin>  (99) 
autodockgpu

>  <m_score__min__energy>  (99) 
-10.529999999999999

>  <m_primary>  (99) 
energy

>  <rmsd>  (99) 
6.28811293074031

>  <m_score__min__rmsd>  (99) 
6.28811293074031

>  <meeko>  (99) 
{"free_energy": -10.05, "intermolecular_energy": -11.55, "internal_energy": -1.02, "cluster_size": 44, "cluster_id": 1, "rank_in_cluster": 12}

>  <energy>  (99) 
-8.8

>  <cluster_rmsd>  (99) 
0.0

>  <cluster>  (99) 
3

$$$$

     RDKit          3D

 67 72  0  0  0  0  0  0  0  0999 V2000
  139.9940   67.9850  227.1450 C   0  0  0  0  0  0  0  0  0  0  0  0
  140.7040   69.0650  227.6570 C   0  0  0  0  0  0  0  0  0  0  0  0
  140.9010   70.2290  226.9280 C   0  0  0  0  0  0  0  0  0  0  0  0
  140.3530   70.2750  225.6490 C   0  0  0  0  0  0  0  0  0  0  0  0
  139.6480   69.2050  225.1400 C   0  0  0  0  0  0  0  0  0  0  0  0
  139.4550   68.0470  225.8720 C   0  0  0  0  0  0  0  0  0  0  0  0
  139.0460   69.2510  223.7590 C   0  0  0  0  0  0  0  0  0  0  0  0
  138.5860   70.7110  223.5890 C   0  0  0  0  0  0  0  0  0  0  0  0
  139.8410   71.4620  223.5920 N   0  0  0  0  0  0  0  0  0  0  0  0
  140.3220   72.1450  222.4260 C   0  0  0  0  0  0  0  0  0  0  0  0
  140.7660   71.4340  221.3480 N   0  0  0  0  0  0  0  0  0  0  0  0
  141.2630   72.0680  220.2440 C   0  0  0  0  0  0  0  0  0  0  0  0
  141.6870   71.2740  219.1480 N   0  0  0  0  0  0  0  0  0  0  0  0
  142.9840   70.6610  219.0340 C   0  0  0  0  0  0  0  0  0  0  0  0
  144.0410   71.6840  219.4370 C   0  0  1  0  0  0  0  0  0  0  0  0
  143.8960   72.9720  218.6970 C   0  0  0  0  0  0  0  0  0  0  0  0
  144.1530   74.1140  219.6550 C   0  0  0  0  0  0  0  0  0  0  0  0
  145.3720   73.8520  220.5090 C   0  0  0  0  0  0  0  0  0  0  0  0
  145.2840   72.6310  221.2620 N   0  0  0  0  0  0  0  0  0  0  0  0
  144.0780   71.9170  220.9210 C   0  0  0  0  0  0  0  0  0  0  0  0
  141.3100   73.4240  220.2340 N   0  0  0  0  0  0  0  0  0  0  0  0
  140.8720   74.1440  221.2980 C   0  0  0  0  0  0  0  0  0  0  0  0
  140.9600   75.5490  221.2420 N   0  0  0  0  0  0  0  0  0  0  0  0
  141.0370   76.1710  219.9260 C   0  0  0  0  0  0  0  0  0  0  0  0
  142.2050   77.1670  220.0030 C   0  0  0  0  0  0  0  0  0  0  0  0
  141.6920   78.2540  220.9090 C   0  0  0  0  0  0  0  0  0  0  0  0
  141.8060   79.5870  220.5870 C   0  0  0  0  0  0  0  0  0  0  0  0
  141.3250   80.5490  221.4470 C   0  0  0  0  0  0  0  0  0  0  0  0
  140.7290   80.1560  222.6380 C   0  0  0  0  0  0  0  0  0  0  0  0
  140.6330   78.8180  222.9280 C   0  0  0  0  0  0  0  0  0  0  0  0
  141.1010   77.8170  222.0940 C   0  0  0  0  0  0  0  0  0  0  0  0
  140.9790   76.3720  222.4340 C   0  0  0  0  0  0  0  0  0  0  0  0
  140.3880   73.4850  222.3710 N   0  0  0  0  0  0  0  0  0  0  0  0
  140.5580   71.5040  224.8560 C   0  0  0  0  0  0  0  0  0  0  0  0
  139.8603   67.0785  227.7536 H   0  0  0  0  0  0  0  0  0  0  0  0
  141.1227   68.9946  228.6718 H   0  0  0  0  0  0  0  0  0  0  0  0
  141.4651   71.0777  227.3422 H   0  0  0  0  0  0  0  0  0  0  0  0
  138.8899   67.2007  225.4545 H   0  0  0  0  0  0  0  0  0  0  0  0
  139.7962   68.9884  222.9986 H   0  0  0  0  0  0  0  0  0  0  0  0
  138.2200   68.5348  223.6381 H   0  0  0  0  0  0  0  0  0  0  0  0
  138.0480   70.8465  222.6392 H   0  0  0  0  0  0  0  0  0  0  0  0
  137.8879   71.0364  224.3743 H   0  0  0  0  0  0  0  0  0  0  0  0
  140.9610   71.1500  218.3780 H   0  0  0  0  0  0  0  0  0  0  0  0
  143.0409   69.7871  219.6996 H   0  0  0  0  0  0  0  0  0  0  0  0
  143.1548   70.3311  217.9986 H   0  0  0  0  0  0  0  0  0  0  0  0
  145.0079   71.2453  219.1496 H   0  0  0  0  0  0  0  0  0  0  0  0
  144.6238   73.0093  217.8730 H   0  0  0  0  0  0  0  0  0  0  0  0
  142.8807   73.0530  218.2815 H   0  0  0  0  0  0  0  0  0  0  0  0
  144.3118   75.0368  219.0778 H   0  0  0  0  0  0  0  0  0  0  0  0
  143.2805   74.2139  220.3174 H   0  0  0  0  0  0  0  0  0  0  0  0
  146.2530   73.7953  219.8528 H   0  0  0  0  0  0  0  0  0  0  0  0
  145.4479   74.6773  221.2323 H   0  0  0  0  0  0  0  0  0  0  0  0
  146.0830   72.0020  221.0220 H   0  0  0  0  0  0  0  0  0  0  0  0
  144.0629   70.9500  221.4452 H   0  0  0  0  0  0  0  0  0  0  0  0
  143.2016   72.5093  221.2228 H   0  0  0  0  0  0  0  0  0  0  0  0
  141.2309   75.4118  219.1540 H   0  0  0  0  0  0  0  0  0  0  0  0
  140.0946   76.6711  219.6581 H   0  0  0  0  0  0  0  0  0  0  0  0
  143.0991   76.6899  220.4309 H   0  0  0  0  0  0  0  0  0  0  0  0
  142.5074   77.5446  219.0151 H   0  0  0  0  0  0  0  0  0  0  0  0
  142.2821   79.8846  219.6411 H   0  0  0  0  0  0  0  0  0  0  0  0
  141.4119   81.6159  221.1935 H   0  0  0  0  0  0  0  0  0  0  0  0
  140.3388   80.9075  223.3401 H   0  0  0  0  0  0  0  0  0  0  0  0
  140.1578   78.5247  223.8757 H   0  0  0  0  0  0  0  0  0  0  0  0
  141.8352   76.0777  223.0587 H   0  0  0  0  0  0  0  0  0  0  0  0
  140.0325   76.2218  222.9739 H   0  0  0  0  0  0  0  0  0  0  0  0
  141.6326   71.6195  224.6512 H   0  0  0  0  0  0  0  0  0  0  0  0
  140.1707   72.3530  225.4385 H   0  0  0  0  0  0  0  0  0  0  0  0
  1  2  2  0
  2  3  1  0
  3  4  2  0
  4  5  1  0
  5  6  2  0
  5  7  1  0
  7  8  1  0
  8  9  1  0
  9 10  1  0
 10 11  2  0
 11 12  1  0
 12 13  1  0
 13 14  1  0
 14 15  1  0
 15 16  1  0
 16 17  1  0
 17 18  1  0
 18 19  1  0
 19 20  1  0
 12 21  2  0
 21 22  1  0
 22 23  1  0
 23 24  1  0
 24 25  1  0
 25 26  1  0
 26 27  2  0
 27 28  1  0
 28 29  2  0
 29 30  1  0
 30 31  2  0
 31 32  1  0
 22 33  2  0
  9 34  1  0
  6  1  1  0
 33 10  1  0
 34  4  1  0
 20 15  1  0
 32 23  1  0
 31 26  1  0
  1 35  1  0
  2 36  1  0
  3 37  1  0
  6 38  1  0
  7 39  1  0
  7 40  1  0
  8 41  1  0
  8 42  1  0
 13 43  1  0
 14 44  1  0
 14 45  1  0
 15 46  1  6
 16 47  1  0
 16 48  1  0
 17 49  1  0
 17 50  1  0
 18 51  1  0
 18 52  1  0
 19 53  1  0
 20 54  1  0
 20 55  1  0
 24 56  1  0
 24 57  1  0
 25 58  1  0
 25 59  1  0
 27 60  1  0
 28 61  1  0
 29 62  1  0
 30 63  1  0
 32 64  1  0
 32 65  1  0
 34 66  1  0
 34 67  1  0
M  END
>  <smiles>  (100) 
c1ccc2c(c1)CCN(c1nc(NCC3CCCNC3)nc(N3CCc4ccccc4C3)n1)C2

>  <score_type>  (100) 
oracle

>  <origin>  (100) 
autodockgpu

>  <m_score__min__energy>  (100) 
-10.529999999999999

>  <m_primary>  (100) 
energy

>  <rmsd>  (100) 
6.113866218292284

>  <m_score__min__rmsd>  (100) 
6.113866218292284

>  <meeko>  (100) 
{"free_energy": -9.71, "intermolecular_energy": -11.2, "internal_energy": -1.29, "cluster_size": 44, "cluster_id": 1, "rank_in_cluster": 21}

>  <energy>  (100) 
-8.8

>  <cluster_rmsd>  (100) 
0.49

>  <cluster>  (100) 
3

$$$$
