
     RDKit          3D

 54 57  0  0  0  0  0  0  0  0999 V2000
  138.8110   72.2060  221.1440 O   0  0  0  0  0  0  0  0  0  0  0  0
  139.6400   72.3910  222.0810 C   0  0  0  0  0  0  0  0  0  0  0  0
  140.4810   73.5440  222.0180 N   0  0  0  0  0  0  0  0  0  0  0  0
  140.3070   74.4100  220.8670 C   0  0  0  0  0  0  0  0  0  0  0  0
  140.7410   75.7990  221.1600 C   0  0  0  0  0  0  0  0  0  0  0  0
  141.0010   76.1620  222.3260 O   0  0  0  0  0  0  0  0  0  0  0  0
  140.8750   76.7650  220.1290 N   0  0  0  0  0  0  0  0  0  0  0  0
  139.6390   77.2960  219.5920 C   0  0  0  0  0  0  0  0  0  0  0  0
  139.3710   78.7160  219.9360 C   0  0  0  0  0  0  0  0  0  0  0  0
  140.5270   79.5210  220.4120 C   0  0  0  0  0  0  0  0  0  0  0  0
  141.7070   79.6000  219.5270 C   0  0  0  0  0  0  0  0  0  0  0  0
  142.2200   78.3780  218.8910 C   0  0  0  0  0  0  0  0  0  0  0  0
  142.2280   77.1390  219.7040 C   0  0  2  0  0  0  0  0  0  0  0  0
  142.9530   75.9920  219.1350 C   0  0  0  0  0  0  0  0  0  0  0  0
  143.6300   75.1560  219.9980 C   0  0  0  0  0  0  0  0  0  0  0  0
  144.3310   74.0610  219.5070 C   0  0  0  0  0  0  0  0  0  0  0  0
  144.3840   73.7580  218.1610 C   0  0  0  0  0  0  0  0  0  0  0  0
  145.2770   72.3720  217.6010 Cl  0  0  0  0  0  0  0  0  0  0  0  0
  143.7110   74.5910  217.3050 C   0  0  0  0  0  0  0  0  0  0  0  0
  143.0120   75.6840  217.7950 C   0  0  0  0  0  0  0  0  0  0  0  0
  139.7540   71.4720  223.2080 C   0  0  0  0  0  0  0  0  0  0  0  0
  139.2910   70.1700  223.0390 C   0  0  0  0  0  0  0  0  0  0  0  0
  139.4000   69.2990  224.1090 C   0  0  0  0  0  0  0  0  0  0  0  0
  139.9610   69.7570  225.2890 C   0  0  0  0  0  0  0  0  0  0  0  0
  140.0510   68.8410  226.3420 C   0  0  0  0  0  0  0  0  0  0  0  0
  140.6090   69.2870  227.5220 C   0  0  0  0  0  0  0  0  0  0  0  0
  140.7160   68.1250  228.8380 Cl  0  0  0  0  0  0  0  0  0  0  0  0
  141.0680   70.5920  227.6750 C   0  0  0  0  0  0  0  0  0  0  0  0
  140.9690   71.4770  226.6210 C   0  0  0  0  0  0  0  0  0  0  0  0
  140.4140   71.0530  225.4300 C   0  0  0  0  0  0  0  0  0  0  0  0
  140.2960   71.8870  224.3700 N   0  0  0  0  0  0  0  0  0  0  0  0
  141.1750   73.7210  222.7790 H   0  0  0  0  0  0  0  0  0  0  0  0
  140.9047   74.0177  220.0311 H   0  0  0  0  0  0  0  0  0  0  0  0
  139.2379   74.4299  220.6089 H   0  0  0  0  0  0  0  0  0  0  0  0
  139.6772   77.2105  218.4960 H   0  0  0  0  0  0  0  0  0  0  0  0
  138.8265   76.7085  220.0445 H   0  0  0  0  0  0  0  0  0  0  0  0
  138.9721   79.2067  219.0360 H   0  0  0  0  0  0  0  0  0  0  0  0
  138.6761   78.6792  220.7879 H   0  0  0  0  0  0  0  0  0  0  0  0
  140.1689   80.5478  220.5778 H   0  0  0  0  0  0  0  0  0  0  0  0
  140.8833   78.9991  221.3123 H   0  0  0  0  0  0  0  0  0  0  0  0
  141.4527   80.2993  218.7169 H   0  0  0  0  0  0  0  0  0  0  0  0
  142.5193   79.8970  220.2067 H   0  0  0  0  0  0  0  0  0  0  0  0
  141.6029   78.1850  218.0011 H   0  0  0  0  0  0  0  0  0  0  0  0
  143.2805   78.5893  218.6891 H   0  0  0  0  0  0  0  0  0  0  0  0
  142.8238   77.4107  220.5878 H   0  0  0  0  0  0  0  0  0  0  0  0
  143.6151   75.3567  221.0794 H   0  0  0  0  0  0  0  0  0  0  0  0
  144.8635   73.4114  220.2173 H   0  0  0  0  0  0  0  0  0  0  0  0
  143.7255   74.3913  216.2234 H   0  0  0  0  0  0  0  0  0  0  0  0
  142.4820   76.3326  217.0820 H   0  0  0  0  0  0  0  0  0  0  0  0
  138.8521   69.8436  222.0846 H   0  0  0  0  0  0  0  0  0  0  0  0
  139.0470   68.2607  224.0234 H   0  0  0  0  0  0  0  0  0  0  0  0
  139.6915   67.8071  226.2336 H   0  0  0  0  0  0  0  0  0  0  0  0
  141.5069   70.9159  228.6302 H   0  0  0  0  0  0  0  0  0  0  0  0
  141.3289   72.5108  226.7287 H   0  0  0  0  0  0  0  0  0  0  0  0
  1  2  2  0
  2  3  1  0
  3  4  1  0
  4  5  1  0
  5  6  2  0
  5  7  1  0
  7  8  1  0
  8  9  1  0
  9 10  1  0
 10 11  1  0
 11 12  1  0
 12 13  1  0
 13 14  1  0
 14 15  2  0
 15 16  1  0
 16 17  2  0
 17 18  1  0
 17 19  1  0
 19 20  2  0
  2 21  1  0
 21 22  2  0
 22 23  1  0
 23 24  2  0
 24 25  1  0
 25 26  2  0
 26 27  1  0
 26 28  1  0
 28 29  2  0
 29 30  1  0
 30 31  2  0
 13  7  1  0
 20 14  1  0
 31 21  1  0
 30 24  1  0
  3 32  1  0
  4 33  1  0
  4 34  1  0
  8 35  1  0
  8 36  1  0
  9 37  1  0
  9 38  1  0
 10 39  1  0
 10 40  1  0
 11 41  1  0
 11 42  1  0
 12 43  1  0
 12 44  1  0
 13 45  1  1
 15 46  1  0
 16 47  1  0
 19 48  1  0
 20 49  1  0
 22 50  1  0
 23 51  1  0
 25 52  1  0
 28 53  1  0
 29 54  1  0
M  END
>  <smiles>  (1) 
O=C(NCC(=O)N1CCCCCC1c1ccc(Cl)cc1)c1ccc2cc(Cl)ccc2n1

>  <score_type>  (1) 
oracle

>  <origin>  (1) 
autodockgpu

>  <m_score__min__energy>  (1) 
-6.9299999999999997

>  <m_primary>  (1) 
energy

>  <rmsd>  (1) 
2.0669242088361903

>  <m_score__min__rmsd>  (1) 
2.0669242088361903

>  <meeko>  (1) 
{"free_energy": -5.39, "intermolecular_energy": -8.67, "internal_energy": -2.02, "cluster_size": 6, "cluster_id": 5, "rank_in_cluster": 4}

>  <energy>  (1) 
-6.93

>  <cluster_rmsd>  (1) 
0.0

>  <cluster>  (1) 
1

$$$$

     RDKit          3D

 54 57  0  0  0  0  0  0  0  0999 V2000
  137.4270   72.0490  221.0590 O   0  0  0  0  0  0  0  0  0  0  0  0
  138.2050   72.4270  221.9820 C   0  0  0  0  0  0  0  0  0  0  0  0
  138.6830   73.7730  221.9500 N   0  0  0  0  0  0  0  0  0  0  0  0
  138.2260   74.5960  220.8470 C   0  0  0  0  0  0  0  0  0  0  0  0
  139.1110   74.4610  219.6630 C   0  0  0  0  0  0  0  0  0  0  0  0
  138.7080   74.7570  218.5190 O   0  0  0  0  0  0  0  0  0  0  0  0
  140.4440   73.9900  219.7850 N   0  0  0  0  0  0  0  0  0  0  0  0
  140.5940   72.5980  220.1580 C   0  0  0  0  0  0  0  0  0  0  0  0
  141.4320   72.3630  221.3610 C   0  0  0  0  0  0  0  0  0  0  0  0
  142.9050   72.4400  221.1780 C   0  0  0  0  0  0  0  0  0  0  0  0
  143.4500   73.6810  220.5890 C   0  0  0  0  0  0  0  0  0  0  0  0
  142.8340   74.2330  219.3720 C   0  0  0  0  0  0  0  0  0  0  0  0
  141.5370   74.9320  219.5270 C   0  0  2  0  0  0  0  0  0  0  0  0
  141.5150   76.0600  220.4710 C   0  0  0  0  0  0  0  0  0  0  0  0
  141.1130   75.8170  221.7680 C   0  0  0  0  0  0  0  0  0  0  0  0
  141.0730   76.8520  222.6950 C   0  0  0  0  0  0  0  0  0  0  0  0
  141.4270   78.1480  222.3750 C   0  0  0  0  0  0  0  0  0  0  0  0
  141.3600   79.4050  223.5770 Cl  0  0  0  0  0  0  0  0  0  0  0  0
  141.8260   78.3870  221.0850 C   0  0  0  0  0  0  0  0  0  0  0  0
  141.8650   77.3550  220.1600 C   0  0  0  0  0  0  0  0  0  0  0  0
  138.6200   71.5360  223.0600 C   0  0  0  0  0  0  0  0  0  0  0  0
  138.0070   70.2890  223.1490 C   0  0  0  0  0  0  0  0  0  0  0  0
  138.4020   69.4450  224.1730 C   0  0  0  0  0  0  0  0  0  0  0  0
  139.3790   69.8740  225.0540 C   0  0  0  0  0  0  0  0  0  0  0  0
  139.7440   68.9880  226.0720 C   0  0  0  0  0  0  0  0  0  0  0  0
  140.7190   69.4060  226.9560 C   0  0  0  0  0  0  0  0  0  0  0  0
  141.1690   68.2810  228.2300 Cl  0  0  0  0  0  0  0  0  0  0  0  0
  141.3210   70.6560  226.8530 C   0  0  0  0  0  0  0  0  0  0  0  0
  140.9440   71.5130  225.8390 C   0  0  0  0  0  0  0  0  0  0  0  0
  139.9710   71.1170  224.9430 C   0  0  0  0  0  0  0  0  0  0  0  0
  139.5690   71.9250  223.9340 N   0  0  0  0  0  0  0  0  0  0  0  0
  139.3280   74.1110  222.7000 H   0  0  0  0  0  0  0  0  0  0  0  0
  137.2076   74.2871  220.5688 H   0  0  0  0  0  0  0  0  0  0  0  0
  138.2422   75.6470  221.1714 H   0  0  0  0  0  0  0  0  0  0  0  0
  139.5928   72.1860  220.3525 H   0  0  0  0  0  0  0  0  0  0  0  0
  141.1101   72.1066  219.3201 H   0  0  0  0  0  0  0  0  0  0  0  0
  141.1507   73.1137  222.1142 H   0  0  0  0  0  0  0  0  0  0  0  0
  141.2325   71.3209  221.6513 H   0  0  0  0  0  0  0  0  0  0  0  0
  143.3682   72.3126  222.1675 H   0  0  0  0  0  0  0  0  0  0  0  0
  143.1407   71.6527  220.4468 H   0  0  0  0  0  0  0  0  0  0  0  0
  143.3836   74.4595  221.3633 H   0  0  0  0  0  0  0  0  0  0  0  0
  144.4593   73.3916  220.2611 H   0  0  0  0  0  0  0  0  0  0  0  0
  143.5460   74.9494  218.9364 H   0  0  0  0  0  0  0  0  0  0  0  0
  142.6110   73.3573  218.7448 H   0  0  0  0  0  0  0  0  0  0  0  0
  141.3794   75.4091  218.5484 H   0  0  0  0  0  0  0  0  0  0  0  0
  140.8229   74.7998  222.0700 H   0  0  0  0  0  0  0  0  0  0  0  0
  140.7471   76.6305  223.7220 H   0  0  0  0  0  0  0  0  0  0  0  0
  142.1169   79.4037  220.7823 H   0  0  0  0  0  0  0  0  0  0  0  0
  142.1895   77.5804  219.1334 H   0  0  0  0  0  0  0  0  0  0  0  0
  137.2336   69.9841  222.4287 H   0  0  0  0  0  0  0  0  0  0  0  0
  137.9467   68.4499  224.2844 H   0  0  0  0  0  0  0  0  0  0  0  0
  139.2736   67.9980  226.1650 H   0  0  0  0  0  0  0  0  0  0  0  0
  142.0929   70.9595  227.5755 H   0  0  0  0  0  0  0  0  0  0  0  0
  141.4146   72.5029  225.7455 H   0  0  0  0  0  0  0  0  0  0  0  0
  1  2  2  0
  2  3  1  0
  3  4  1  0
  4  5  1  0
  5  6  2  0
  5  7  1  0
  7  8  1  0
  8  9  1  0
  9 10  1  0
 10 11  1  0
 11 12  1  0
 12 13  1  0
 13 14  1  0
 14 15  2  0
 15 16  1  0
 16 17  2  0
 17 18  1  0
 17 19  1  0
 19 20  2  0
  2 21  1  0
 21 22  2  0
 22 23  1  0
 23 24  2  0
 24 25  1  0
 25 26  2  0
 26 27  1  0
 26 28  1  0
 28 29  2  0
 29 30  1  0
 30 31  2  0
 13  7  1  0
 20 14  1  0
 31 21  1  0
 30 24  1  0
  3 32  1  0
  4 33  1  0
  4 34  1  0
  8 35  1  0
  8 36  1  0
  9 37  1  0
  9 38  1  0
 10 39  1  0
 10 40  1  0
 11 41  1  0
 11 42  1  0
 12 43  1  0
 12 44  1  0
 13 45  1  6
 15 46  1  0
 16 47  1  0
 19 48  1  0
 20 49  1  0
 22 50  1  0
 23 51  1  0
 25 52  1  0
 28 53  1  0
 29 54  1  0
M  END
>  <smiles>  (2) 
O=C(NCC(=O)N1CCCCCC1c1ccc(Cl)cc1)c1ccc2cc(Cl)ccc2n1

>  <score_type>  (2) 
oracle

>  <origin>  (2) 
autodockgpu

>  <m_score__min__energy>  (2) 
-6.9299999999999997

>  <m_primary>  (2) 
energy

>  <rmsd>  (2) 
2.558802222941426

>  <m_score__min__rmsd>  (2) 
2.558802222941426

>  <meeko>  (2) 
{"free_energy": -5.41, "intermolecular_energy": -8.69, "internal_energy": -2.4, "cluster_size": 11, "cluster_id": 2, "rank_in_cluster": 10}

>  <energy>  (2) 
-6.71

>  <cluster_rmsd>  (2) 
1.65

>  <cluster>  (2) 
1

$$$$

     RDKit          3D

 54 57  0  0  0  0  0  0  0  0999 V2000
  138.1910   74.6400  221.3290 O   0  0  0  0  0  0  0  0  0  0  0  0
  139.3990   74.8490  221.6410 C   0  0  0  0  0  0  0  0  0  0  0  0
  139.7000   75.9950  222.4380 N   0  0  0  0  0  0  0  0  0  0  0  0
  138.5780   76.8290  222.8220 C   0  0  0  0  0  0  0  0  0  0  0  0
  138.7370   78.2200  222.3270 C   0  0  0  0  0  0  0  0  0  0  0  0
  137.8800   78.7430  221.5860 O   0  0  0  0  0  0  0  0  0  0  0  0
  139.8670   79.0050  222.6770 N   0  0  0  0  0  0  0  0  0  0  0  0
  139.5860   80.3300  223.1890 C   0  0  0  0  0  0  0  0  0  0  0  0
  140.4190   81.4120  222.6060 C   0  0  0  0  0  0  0  0  0  0  0  0
  141.8010   81.5530  223.1340 C   0  0  0  0  0  0  0  0  0  0  0  0
  142.6940   80.3820  223.0120 C   0  0  0  0  0  0  0  0  0  0  0  0
  142.1980   79.0490  223.3890 C   0  0  0  0  0  0  0  0  0  0  0  0
  141.1990   78.4180  222.4960 C   0  0  2  0  0  0  0  0  0  0  0  0
  141.5630   78.3290  221.0730 C   0  0  0  0  0  0  0  0  0  0  0  0
  141.2570   79.3950  220.2530 C   0  0  0  0  0  0  0  0  0  0  0  0
  141.5790   79.3560  218.9020 C   0  0  0  0  0  0  0  0  0  0  0  0
  142.2100   78.2730  218.3220 C   0  0  0  0  0  0  0  0  0  0  0  0
  142.5910   78.2770  216.6230 Cl  0  0  0  0  0  0  0  0  0  0  0  0
  142.5130   77.2130  219.1390 C   0  0  0  0  0  0  0  0  0  0  0  0
  142.1910   77.2530  220.4870 C   0  0  0  0  0  0  0  0  0  0  0  0
  140.4740   73.9600  221.2140 C   0  0  0  0  0  0  0  0  0  0  0  0
  140.1670   72.6200  220.9950 C   0  0  0  0  0  0  0  0  0  0  0  0
  141.1890   71.7780  220.5910 C   0  0  0  0  0  0  0  0  0  0  0  0
  142.4590   72.3020  220.4220 C   0  0  0  0  0  0  0  0  0  0  0  0
  143.4580   71.4130  220.0130 C   0  0  0  0  0  0  0  0  0  0  0  0
  144.7280   71.9250  219.8410 C   0  0  0  0  0  0  0  0  0  0  0  0
  145.9750   70.7970  219.3260 Cl  0  0  0  0  0  0  0  0  0  0  0  0
  145.0190   73.2680  220.0640 C   0  0  0  0  0  0  0  0  0  0  0  0
  144.0160   74.1250  220.4680 C   0  0  0  0  0  0  0  0  0  0  0  0
  142.7370   73.6360  220.6460 C   0  0  0  0  0  0  0  0  0  0  0  0
  141.7220   74.4390  221.0410 N   0  0  0  0  0  0  0  0  0  0  0  0
  140.6900   76.1910  222.7100 H   0  0  0  0  0  0  0  0  0  0  0  0
  137.6557   76.4031  222.4002 H   0  0  0  0  0  0  0  0  0  0  0  0
  138.5305   76.8578  223.9206 H   0  0  0  0  0  0  0  0  0  0  0  0
  138.5308   80.5606  222.9809 H   0  0  0  0  0  0  0  0  0  0  0  0
  139.8205   80.3032  224.2634 H   0  0  0  0  0  0  0  0  0  0  0  0
  140.4934   81.2282  221.5240 H   0  0  0  0  0  0  0  0  0  0  0  0
  139.9093   82.3472  222.8811 H   0  0  0  0  0  0  0  0  0  0  0  0
  142.2760   82.3884  222.5987 H   0  0  0  0  0  0  0  0  0  0  0  0
  141.6766   81.7028  224.2166 H   0  0  0  0  0  0  0  0  0  0  0  0
  143.0009   80.3225  221.9574 H   0  0  0  0  0  0  0  0  0  0  0  0
  143.4837   80.5818  223.7512 H   0  0  0  0  0  0  0  0  0  0  0  0
  143.0665   78.3759  223.4410 H   0  0  0  0  0  0  0  0  0  0  0  0
  141.6682   79.2037  224.3405 H   0  0  0  0  0  0  0  0  0  0  0  0
  141.1801   77.3688  222.8258 H   0  0  0  0  0  0  0  0  0  0  0  0
  140.7555   80.2805  220.6707 H   0  0  0  0  0  0  0  0  0  0  0  0
  141.3218   80.2196  218.2710 H   0  0  0  0  0  0  0  0  0  0  0  0
  143.0140   76.3268  218.7223 H   0  0  0  0  0  0  0  0  0  0  0  0
  142.4484   76.3876  221.1154 H   0  0  0  0  0  0  0  0  0  0  0  0
  139.1441   72.2419  221.1385 H   0  0  0  0  0  0  0  0  0  0  0  0
  140.9951   70.7109  220.4075 H   0  0  0  0  0  0  0  0  0  0  0  0
  143.2405   70.3494  219.8357 H   0  0  0  0  0  0  0  0  0  0  0  0
  146.0426   73.6437  219.9189 H   0  0  0  0  0  0  0  0  0  0  0  0
  144.2333   75.1884  220.6467 H   0  0  0  0  0  0  0  0  0  0  0  0
  1  2  2  0
  2  3  1  0
  3  4  1  0
  4  5  1  0
  5  6  2  0
  5  7  1  0
  7  8  1  0
  8  9  1  0
  9 10  1  0
 10 11  1  0
 11 12  1  0
 12 13  1  0
 13 14  1  0
 14 15  2  0
 15 16  1  0
 16 17  2  0
 17 18  1  0
 17 19  1  0
 19 20  2  0
  2 21  1  0
 21 22  2  0
 22 23  1  0
 23 24  2  0
 24 25  1  0
 25 26  2  0
 26 27  1  0
 26 28  1  0
 28 29  2  0
 29 30  1  0
 30 31  2  0
 13  7  1  0
 20 14  1  0
 31 21  1  0
 30 24  1  0
  3 32  1  0
  4 33  1  0
  4 34  1  0
  8 35  1  0
  8 36  1  0
  9 37  1  0
  9 38  1  0
 10 39  1  0
 10 40  1  0
 11 41  1  0
 11 42  1  0
 12 43  1  0
 12 44  1  0
 13 45  1  1
 15 46  1  0
 16 47  1  0
 19 48  1  0
 20 49  1  0
 22 50  1  0
 23 51  1  0
 25 52  1  0
 28 53  1  0
 29 54  1  0
M  END
>  <smiles>  (3) 
O=C(NCC(=O)N1CCCCCC1c1ccc(Cl)cc1)c1ccc2cc(Cl)ccc2n1

>  <score_type>  (3) 
oracle

>  <origin>  (3) 
autodockgpu

>  <m_score__min__energy>  (3) 
-6.9299999999999997

>  <m_primary>  (3) 
energy

>  <rmsd>  (3) 
6.119515399148283

>  <m_score__min__rmsd>  (3) 
6.119515399148283

>  <meeko>  (3) 
{"free_energy": -5.23, "intermolecular_energy": -8.51, "internal_energy": -2.45, "cluster_size": 2, "cluster_id": 12, "rank_in_cluster": 1}

>  <energy>  (3) 
-6.48

>  <cluster_rmsd>  (3) 
0.72

>  <cluster>  (3) 
1

$$$$

     RDKit          3D

 54 57  0  0  0  0  0  0  0  0999 V2000
  138.0000   71.3500  220.8070 O   0  0  0  0  0  0  0  0  0  0  0  0
  138.3690   71.8770  221.8960 C   0  0  0  0  0  0  0  0  0  0  0  0
  138.3690   73.3020  221.9880 N   0  0  0  0  0  0  0  0  0  0  0  0
  137.9400   74.0270  220.8080 C   0  0  0  0  0  0  0  0  0  0  0  0
  139.0130   74.0800  219.7820 C   0  0  0  0  0  0  0  0  0  0  0  0
  138.9020   73.4640  218.7010 O   0  0  0  0  0  0  0  0  0  0  0  0
  140.2000   74.8290  219.9900 N   0  0  0  0  0  0  0  0  0  0  0  0
  140.4430   75.9070  219.0540 C   0  0  0  0  0  0  0  0  0  0  0  0
  140.6670   77.2350  219.6790 C   0  0  0  0  0  0  0  0  0  0  0  0
  139.9680   77.4980  220.9640 C   0  0  0  0  0  0  0  0  0  0  0  0
  140.3380   76.6560  222.1200 C   0  0  0  0  0  0  0  0  0  0  0  0
  141.3800   75.6270  221.9680 C   0  0  0  0  0  0  0  0  0  0  0  0
  141.0630   74.4580  221.1160 C   0  0  2  0  0  0  0  0  0  0  0  0
  142.2070   73.6430  220.6760 C   0  0  0  0  0  0  0  0  0  0  0  0
  142.0000   72.3000  220.4420 C   0  0  0  0  0  0  0  0  0  0  0  0
  143.0500   71.4910  220.0280 C   0  0  0  0  0  0  0  0  0  0  0  0
  144.3270   71.9770  219.8310 C   0  0  0  0  0  0  0  0  0  0  0  0
  145.6070   70.9180  219.3090 Cl  0  0  0  0  0  0  0  0  0  0  0  0
  144.5310   73.3130  220.0640 C   0  0  0  0  0  0  0  0  0  0  0  0
  143.4830   74.1210  220.4780 C   0  0  0  0  0  0  0  0  0  0  0  0
  138.7860   71.0770  223.0420 C   0  0  0  0  0  0  0  0  0  0  0  0
  138.4540   69.7250  223.0520 C   0  0  0  0  0  0  0  0  0  0  0  0
  138.8510   68.9670  224.1400 C   0  0  0  0  0  0  0  0  0  0  0  0
  139.5540   69.5810  225.1610 C   0  0  0  0  0  0  0  0  0  0  0  0
  139.9330   68.7760  226.2400 C   0  0  0  0  0  0  0  0  0  0  0  0
  140.6360   69.3780  227.2630 C   0  0  0  0  0  0  0  0  0  0  0  0
  141.1060   68.3540  228.6130 Cl  0  0  0  0  0  0  0  0  0  0  0  0
  140.9600   70.7310  227.2390 C   0  0  0  0  0  0  0  0  0  0  0  0
  140.5750   71.5050  226.1630 C   0  0  0  0  0  0  0  0  0  0  0  0
  139.8710   70.9250  225.1270 C   0  0  0  0  0  0  0  0  0  0  0  0
  139.4720   71.6450  224.0530 N   0  0  0  0  0  0  0  0  0  0  0  0
  138.6690   73.7630  222.8770 H   0  0  0  0  0  0  0  0  0  0  0  0
  137.0603   73.5243  220.3797 H   0  0  0  0  0  0  0  0  0  0  0  0
  137.6957   75.0574  221.1056 H   0  0  0  0  0  0  0  0  0  0  0  0
  141.3348   75.6522  218.4625 H   0  0  0  0  0  0  0  0  0  0  0  0
  139.5313   76.0006  218.4457 H   0  0  0  0  0  0  0  0  0  0  0  0
  141.7469   77.3394  219.8603 H   0  0  0  0  0  0  0  0  0  0  0  0
  140.2461   77.9618  218.9687 H   0  0  0  0  0  0  0  0  0  0  0  0
  140.1661   78.5442  221.2401 H   0  0  0  0  0  0  0  0  0  0  0  0
  138.9127   77.2589  220.7661 H   0  0  0  0  0  0  0  0  0  0  0  0
  140.6752   77.3366  222.9157 H   0  0  0  0  0  0  0  0  0  0  0  0
  139.4265   76.0715  222.3138 H   0  0  0  0  0  0  0  0  0  0  0  0
  142.2674   76.1164  221.5401 H   0  0  0  0  0  0  0  0  0  0  0  0
  141.5150   75.2115  222.9775 H   0  0  0  0  0  0  0  0  0  0  0  0
  140.5103   73.7874  221.7904 H   0  0  0  0  0  0  0  0  0  0  0  0
  140.9986   71.8675  220.5839 H   0  0  0  0  0  0  0  0  0  0  0  0
  142.8569   70.4227  219.8504 H   0  0  0  0  0  0  0  0  0  0  0  0
  145.5320   73.7462  219.9216 H   0  0  0  0  0  0  0  0  0  0  0  0
  143.6792   75.1887  220.6557 H   0  0  0  0  0  0  0  0  0  0  0  0
  137.8933   69.2729  222.2206 H   0  0  0  0  0  0  0  0  0  0  0  0
  138.6116   67.8946  224.1919 H   0  0  0  0  0  0  0  0  0  0  0  0
  139.6807   67.7058  226.2717 H   0  0  0  0  0  0  0  0  0  0  0  0
  141.5195   71.1810  228.0724 H   0  0  0  0  0  0  0  0  0  0  0  0
  140.8271   72.5752  226.1313 H   0  0  0  0  0  0  0  0  0  0  0  0
  1  2  2  0
  2  3  1  0
  3  4  1  0
  4  5  1  0
  5  6  2  0
  5  7  1  0
  7  8  1  0
  8  9  1  0
  9 10  1  0
 10 11  1  0
 11 12  1  0
 12 13  1  0
 13 14  1  0
 14 15  2  0
 15 16  1  0
 16 17  2  0
 17 18  1  0
 17 19  1  0
 19 20  2  0
  2 21  1  0
 21 22  2  0
 22 23  1  0
 23 24  2  0
 24 25  1  0
 25 26  2  0
 26 27  1  0
 26 28  1  0
 28 29  2  0
 29 30  1  0
 30 31  2  0
 13  7  1  0
 20 14  1  0
 31 21  1  0
 30 24  1  0
  3 32  1  0
  4 33  1  0
  4 34  1  0
  8 35  1  0
  8 36  1  0
  9 37  1  0
  9 38  1  0
 10 39  1  0
 10 40  1  0
 11 41  1  0
 11 42  1  0
 12 43  1  0
 12 44  1  0
 13 45  1  1
 15 46  1  0
 16 47  1  0
 19 48  1  0
 20 49  1  0
 22 50  1  0
 23 51  1  0
 25 52  1  0
 28 53  1  0
 29 54  1  0
M  END
>  <smiles>  (4) 
O=C(NCC(=O)N1CCCCCC1c1ccc(Cl)cc1)c1ccc2cc(Cl)ccc2n1

>  <score_type>  (4) 
oracle

>  <origin>  (4) 
autodockgpu

>  <m_score__min__energy>  (4) 
-6.9299999999999997

>  <m_primary>  (4) 
energy

>  <rmsd>  (4) 
2.22102699470332

>  <m_score__min__rmsd>  (4) 
2.22102699470332

>  <meeko>  (4) 
{"free_energy": -5.37, "intermolecular_energy": -8.65, "internal_energy": -2.41, "cluster_size": 6, "cluster_id": 5, "rank_in_cluster": 5}

>  <energy>  (4) 
-6.16

>  <cluster_rmsd>  (4) 
1.54

>  <cluster>  (4) 
1

$$$$

     RDKit          3D

 54 57  0  0  0  0  0  0  0  0999 V2000
  139.5860   73.9530  222.3200 O   0  0  0  0  0  0  0  0  0  0  0  0
  139.8730   72.7380  222.1150 C   0  0  0  0  0  0  0  0  0  0  0  0
  140.1260   72.3240  220.7720 N   0  0  0  0  0  0  0  0  0  0  0  0
  140.0310   73.3470  219.7490 C   0  0  0  0  0  0  0  0  0  0  0  0
  141.2880   73.4520  218.9650 C   0  0  0  0  0  0  0  0  0  0  0  0
  141.2650   73.6950  217.7400 O   0  0  0  0  0  0  0  0  0  0  0  0
  142.5580   73.2810  219.5750 N   0  0  0  0  0  0  0  0  0  0  0  0
  142.9030   71.9250  219.9500 C   0  0  0  0  0  0  0  0  0  0  0  0
  144.1410   71.4020  219.3190 C   0  0  0  0  0  0  0  0  0  0  0  0
  145.4330   71.8690  219.8880 C   0  0  0  0  0  0  0  0  0  0  0  0
  145.6360   73.3280  219.9990 C   0  0  0  0  0  0  0  0  0  0  0  0
  144.5850   74.1640  220.6010 C   0  0  0  0  0  0  0  0  0  0  0  0
  143.3970   74.4670  219.7690 C   0  0  2  0  0  0  0  0  0  0  0  0
  142.6000   75.6350  220.1740 C   0  0  0  0  0  0  0  0  0  0  0  0
  141.7880   75.5180  221.2830 C   0  0  0  0  0  0  0  0  0  0  0  0
  141.0150   76.5930  221.7020 C   0  0  0  0  0  0  0  0  0  0  0  0
  141.0190   77.8090  221.0480 C   0  0  0  0  0  0  0  0  0  0  0  0
  140.0310   79.1240  221.6180 Cl  0  0  0  0  0  0  0  0  0  0  0  0
  141.8270   77.9240  219.9460 C   0  0  0  0  0  0  0  0  0  0  0  0
  142.5980   76.8500  219.5270 C   0  0  0  0  0  0  0  0  0  0  0  0
  139.9490   71.7670  223.2000 C   0  0  0  0  0  0  0  0  0  0  0  0
  139.5070   70.4710  222.9500 C   0  0  0  0  0  0  0  0  0  0  0  0
  139.5800   69.5500  223.9810 C   0  0  0  0  0  0  0  0  0  0  0  0
  140.0860   69.9550  225.2040 C   0  0  0  0  0  0  0  0  0  0  0  0
  140.1400   68.9900  226.2150 C   0  0  0  0  0  0  0  0  0  0  0  0
  140.6440   69.3830  227.4380 C   0  0  0  0  0  0  0  0  0  0  0  0
  140.7060   68.1600  228.7000 Cl  0  0  0  0  0  0  0  0  0  0  0  0
  141.0820   70.6830  227.6720 C   0  0  0  0  0  0  0  0  0  0  0  0
  141.0180   71.6170  226.6590 C   0  0  0  0  0  0  0  0  0  0  0  0
  140.5190   71.2470  225.4260 C   0  0  0  0  0  0  0  0  0  0  0  0
  140.4370   72.1300  224.4030 N   0  0  0  0  0  0  0  0  0  0  0  0
  140.3650   71.3250  220.5750 H   0  0  0  0  0  0  0  0  0  0  0  0
  139.2049   73.0954  219.0677 H   0  0  0  0  0  0  0  0  0  0  0  0
  139.8510   74.3132  220.2431 H   0  0  0  0  0  0  0  0  0  0  0  0
  143.0358   71.8948  221.0415 H   0  0  0  0  0  0  0  0  0  0  0  0
  142.0805   71.2862  219.5959 H   0  0  0  0  0  0  0  0  0  0  0  0
  144.1184   70.3053  219.4010 H   0  0  0  0  0  0  0  0  0  0  0  0
  144.1241   71.7881  218.2891 H   0  0  0  0  0  0  0  0  0  0  0  0
  145.5212   71.4452  220.8992 H   0  0  0  0  0  0  0  0  0  0  0  0
  146.1960   71.5312  219.1712 H   0  0  0  0  0  0  0  0  0  0  0  0
  146.5466   73.4793  220.5973 H   0  0  0  0  0  0  0  0  0  0  0  0
  145.6644   73.6644  218.9521 H   0  0  0  0  0  0  0  0  0  0  0  0
  144.2315   73.6490  221.5064 H   0  0  0  0  0  0  0  0  0  0  0  0
  145.0644   75.1388  220.7738 H   0  0  0  0  0  0  0  0  0  0  0  0
  143.8260   74.7684  218.8020 H   0  0  0  0  0  0  0  0  0  0  0  0
  141.7526   74.5689  221.8380 H   0  0  0  0  0  0  0  0  0  0  0  0
  140.3753   76.4711  222.5885 H   0  0  0  0  0  0  0  0  0  0  0  0
  141.8638   78.8732  219.3914 H   0  0  0  0  0  0  0  0  0  0  0  0
  143.2355   76.9745  218.6392 H   0  0  0  0  0  0  0  0  0  0  0  0
  139.1118   70.1873  221.9634 H   0  0  0  0  0  0  0  0  0  0  0  0
  139.2417   68.5141  223.8308 H   0  0  0  0  0  0  0  0  0  0  0  0
  139.7948   67.9599  226.0423 H   0  0  0  0  0  0  0  0  0  0  0  0
  141.4771   70.9642  228.6593 H   0  0  0  0  0  0  0  0  0  0  0  0
  141.3615   72.6476  226.8320 H   0  0  0  0  0  0  0  0  0  0  0  0
  1  2  2  0
  2  3  1  0
  3  4  1  0
  4  5  1  0
  5  6  2  0
  5  7  1  0
  7  8  1  0
  8  9  1  0
  9 10  1  0
 10 11  1  0
 11 12  1  0
 12 13  1  0
 13 14  1  0
 14 15  2  0
 15 16  1  0
 16 17  2  0
 17 18  1  0
 17 19  1  0
 19 20  2  0
  2 21  1  0
 21 22  2  0
 22 23  1  0
 23 24  2  0
 24 25  1  0
 25 26  2  0
 26 27  1  0
 26 28  1  0
 28 29  2  0
 29 30  1  0
 30 31  2  0
 13  7  1  0
 20 14  1  0
 31 21  1  0
 30 24  1  0
  3 32  1  0
  4 33  1  0
  4 34  1  0
  8 35  1  0
  8 36  1  0
  9 37  1  0
  9 38  1  0
 10 39  1  0
 10 40  1  0
 11 41  1  0
 11 42  1  0
 12 43  1  0
 12 44  1  0
 13 45  1  6
 15 46  1  0
 16 47  1  0
 19 48  1  0
 20 49  1  0
 22 50  1  0
 23 51  1  0
 25 52  1  0
 28 53  1  0
 29 54  1  0
M  END
>  <smiles>  (5) 
O=C(NCC(=O)N1CCCCCC1c1ccc(Cl)cc1)c1ccc2cc(Cl)ccc2n1

>  <score_type>  (5) 
oracle

>  <origin>  (5) 
autodockgpu

>  <m_score__min__energy>  (5) 
-6.9299999999999997

>  <m_primary>  (5) 
energy

>  <rmsd>  (5) 
3.418771762162658

>  <m_score__min__rmsd>  (5) 
3.418771762162658

>  <meeko>  (5) 
{"free_energy": -6.58, "intermolecular_energy": -9.86, "internal_energy": -1.86, "cluster_size": 11, "cluster_id": 2, "rank_in_cluster": 1}

>  <energy>  (5) 
-6.11

>  <cluster_rmsd>  (5) 
1.74

>  <cluster>  (5) 
1

$$$$

     RDKit          3D

 54 57  0  0  0  0  0  0  0  0999 V2000
  142.5920   79.4020  217.9840 O   0  0  0  0  0  0  0  0  0  0  0  0
  141.9540   78.3810  218.3700 C   0  0  0  0  0  0  0  0  0  0  0  0
  140.6160   78.5610  218.8390 N   0  0  0  0  0  0  0  0  0  0  0  0
  140.1040   79.9180  218.8290 C   0  0  0  0  0  0  0  0  0  0  0  0
  140.1390   80.5230  220.1850 C   0  0  0  0  0  0  0  0  0  0  0  0
  139.5930   81.6220  220.4140 O   0  0  0  0  0  0  0  0  0  0  0  0
  140.7920   79.8770  221.2670 N   0  0  0  0  0  0  0  0  0  0  0  0
  142.2230   80.0820  221.3570 C   0  0  0  0  0  0  0  0  0  0  0  0
  142.6690   80.8350  222.5570 C   0  0  0  0  0  0  0  0  0  0  0  0
  142.7100   80.0880  223.8410 C   0  0  0  0  0  0  0  0  0  0  0  0
  141.6220   79.1210  224.0960 C   0  0  0  0  0  0  0  0  0  0  0  0
  140.2670   79.4080  223.6000 C   0  0  0  0  0  0  0  0  0  0  0  0
  139.9790   79.0750  222.1860 C   0  0  2  0  0  0  0  0  0  0  0  0
  140.0130   77.6470  221.8340 C   0  0  0  0  0  0  0  0  0  0  0  0
  138.8640   77.0710  221.3320 C   0  0  0  0  0  0  0  0  0  0  0  0
  138.8480   75.7260  220.9870 C   0  0  0  0  0  0  0  0  0  0  0  0
  139.9560   74.9120  221.1230 C   0  0  0  0  0  0  0  0  0  0  0  0
  139.8800   73.2320  220.6740 Cl  0  0  0  0  0  0  0  0  0  0  0  0
  141.0970   75.4860  221.6230 C   0  0  0  0  0  0  0  0  0  0  0  0
  141.1120   76.8290  221.9670 C   0  0  0  0  0  0  0  0  0  0  0  0
  142.5400   77.0460  218.3490 C   0  0  0  0  0  0  0  0  0  0  0  0
  142.3490   76.2660  217.2120 C   0  0  0  0  0  0  0  0  0  0  0  0
  142.9060   74.9980  217.1930 C   0  0  0  0  0  0  0  0  0  0  0  0
  143.6230   74.5680  218.2960 C   0  0  0  0  0  0  0  0  0  0  0  0
  144.1670   73.2810  218.2320 C   0  0  0  0  0  0  0  0  0  0  0  0
  144.8840   72.8410  219.3260 C   0  0  0  0  0  0  0  0  0  0  0  0
  145.5620   71.2220  219.2310 Cl  0  0  0  0  0  0  0  0  0  0  0  0
  145.0660   73.6340  220.4550 C   0  0  0  0  0  0  0  0  0  0  0  0
  144.5200   74.9000  220.4950 C   0  0  0  0  0  0  0  0  0  0  0  0
  143.7980   75.3620  219.4120 C   0  0  0  0  0  0  0  0  0  0  0  0
  143.2440   76.5970  219.4070 N   0  0  0  0  0  0  0  0  0  0  0  0
  140.0660   77.7340  219.1650 H   0  0  0  0  0  0  0  0  0  0  0  0
  140.7188   80.5270  218.1499 H   0  0  0  0  0  0  0  0  0  0  0  0
  139.0577   79.8896  218.4906 H   0  0  0  0  0  0  0  0  0  0  0  0
  142.7100   79.0958  221.3711 H   0  0  0  0  0  0  0  0  0  0  0  0
  142.5043   80.6919  220.4859 H   0  0  0  0  0  0  0  0  0  0  0  0
  143.6841   81.2085  222.3570 H   0  0  0  0  0  0  0  0  0  0  0  0
  141.9099   81.6174  222.7039 H   0  0  0  0  0  0  0  0  0  0  0  0
  143.6593   79.5331  223.8706 H   0  0  0  0  0  0  0  0  0  0  0  0
  142.5938   80.8565  224.6194 H   0  0  0  0  0  0  0  0  0  0  0  0
  141.9313   78.1656  223.6472 H   0  0  0  0  0  0  0  0  0  0  0  0
  141.5070   79.1438  225.1897 H   0  0  0  0  0  0  0  0  0  0  0  0
  139.5595   78.8421  224.2239 H   0  0  0  0  0  0  0  0  0  0  0  0
  140.1693   80.5021  223.6591 H   0  0  0  0  0  0  0  0  0  0  0  0
  138.9202   79.3474  222.0646 H   0  0  0  0  0  0  0  0  0  0  0  0
  137.9568   77.6799  221.2046 H   0  0  0  0  0  0  0  0  0  0  0  0
  137.9181   75.2923  220.5905 H   0  0  0  0  0  0  0  0  0  0  0  0
  142.0045   74.8779  221.7517 H   0  0  0  0  0  0  0  0  0  0  0  0
  142.0432   77.2598  222.3637 H   0  0  0  0  0  0  0  0  0  0  0  0
  141.7733   76.6451  216.3548 H   0  0  0  0  0  0  0  0  0  0  0  0
  142.7808   74.3445  216.3171 H   0  0  0  0  0  0  0  0  0  0  0  0
  144.0289   72.6450  217.3452 H   0  0  0  0  0  0  0  0  0  0  0  0
  145.6423   73.2532  221.3111 H   0  0  0  0  0  0  0  0  0  0  0  0
  144.6584   75.5361  221.3817 H   0  0  0  0  0  0  0  0  0  0  0  0
  1  2  2  0
  2  3  1  0
  3  4  1  0
  4  5  1  0
  5  6  2  0
  5  7  1  0
  7  8  1  0
  8  9  1  0
  9 10  1  0
 10 11  1  0
 11 12  1  0
 12 13  1  0
 13 14  1  0
 14 15  2  0
 15 16  1  0
 16 17  2  0
 17 18  1  0
 17 19  1  0
 19 20  2  0
  2 21  1  0
 21 22  2  0
 22 23  1  0
 23 24  2  0
 24 25  1  0
 25 26  2  0
 26 27  1  0
 26 28  1  0
 28 29  2  0
 29 30  1  0
 30 31  2  0
 13  7  1  0
 20 14  1  0
 31 21  1  0
 30 24  1  0
  3 32  1  0
  4 33  1  0
  4 34  1  0
  8 35  1  0
  8 36  1  0
  9 37  1  0
  9 38  1  0
 10 39  1  0
 10 40  1  0
 11 41  1  0
 11 42  1  0
 12 43  1  0
 12 44  1  0
 13 45  1  6
 15 46  1  0
 16 47  1  0
 19 48  1  0
 20 49  1  0
 22 50  1  0
 23 51  1  0
 25 52  1  0
 28 53  1  0
 29 54  1  0
M  END
>  <smiles>  (6) 
O=C(NCC(=O)N1CCCCCC1c1ccc(Cl)cc1)c1ccc2cc(Cl)ccc2n1

>  <score_type>  (6) 
oracle

>  <origin>  (6) 
autodockgpu

>  <m_score__min__energy>  (6) 
-6.9299999999999997

>  <m_primary>  (6) 
energy

>  <rmsd>  (6) 
8.01206915908912

>  <m_score__min__rmsd>  (6) 
8.01206915908912

>  <meeko>  (6) 
{"free_energy": -4.27, "intermolecular_energy": -7.55, "internal_energy": -3.14, "cluster_size": 3, "cluster_id": 13, "rank_in_cluster": 3}

>  <energy>  (6) 
-6.09

>  <cluster_rmsd>  (6) 
1.5

>  <cluster>  (6) 
1

$$$$

     RDKit          3D

 54 57  0  0  0  0  0  0  0  0999 V2000
  137.1770   77.5580  222.5970 O   0  0  0  0  0  0  0  0  0  0  0  0
  137.9360   77.6500  221.5900 C   0  0  0  0  0  0  0  0  0  0  0  0
  137.6080   78.6120  220.5850 N   0  0  0  0  0  0  0  0  0  0  0  0
  136.4160   79.4060  220.8140 C   0  0  0  0  0  0  0  0  0  0  0  0
  136.7560   80.7970  221.2070 C   0  0  0  0  0  0  0  0  0  0  0  0
  137.1940   81.6150  220.3710 O   0  0  0  0  0  0  0  0  0  0  0  0
  136.5970   81.2490  222.5430 N   0  0  0  0  0  0  0  0  0  0  0  0
  135.7850   82.4360  222.7190 C   0  0  0  0  0  0  0  0  0  0  0  0
  136.4440   83.5340  223.4700 C   0  0  0  0  0  0  0  0  0  0  0  0
  136.4980   83.3970  224.9490 C   0  0  0  0  0  0  0  0  0  0  0  0
  137.1120   82.1680  225.4920 C   0  0  0  0  0  0  0  0  0  0  0  0
  136.7200   80.8560  224.9450 C   0  0  0  0  0  0  0  0  0  0  0  0
  137.2520   80.4900  223.6120 C   0  0  2  0  0  0  0  0  0  0  0  0
  138.7160   80.5050  223.4680 C   0  0  0  0  0  0  0  0  0  0  0  0
  139.4310   79.4280  223.9500 C   0  0  0  0  0  0  0  0  0  0  0  0
  140.8150   79.3990  223.8380 C   0  0  0  0  0  0  0  0  0  0  0  0
  141.5330   80.4230  223.2520 C   0  0  0  0  0  0  0  0  0  0  0  0
  143.2680   80.3340  223.1380 Cl  0  0  0  0  0  0  0  0  0  0  0  0
  140.8210   81.4930  222.7740 C   0  0  0  0  0  0  0  0  0  0  0  0
  139.4390   81.5220  222.8860 C   0  0  0  0  0  0  0  0  0  0  0  0
  139.1200   76.8130  221.4320 C   0  0  0  0  0  0  0  0  0  0  0  0
  139.0890   75.5290  221.9690 C   0  0  0  0  0  0  0  0  0  0  0  0
  140.2140   74.7360  221.8180 C   0  0  0  0  0  0  0  0  0  0  0  0
  141.3080   75.2500  221.1450 C   0  0  0  0  0  0  0  0  0  0  0  0
  142.4210   74.4120  221.0180 C   0  0  0  0  0  0  0  0  0  0  0  0
  143.5180   74.9140  220.3490 C   0  0  0  0  0  0  0  0  0  0  0  0
  144.9100   73.8500  220.1960 Cl  0  0  0  0  0  0  0  0  0  0  0  0
  143.5330   76.2000  219.8170 C   0  0  0  0  0  0  0  0  0  0  0  0
  142.4230   77.0080  219.9560 C   0  0  0  0  0  0  0  0  0  0  0  0
  141.3130   76.5270  220.6210 C   0  0  0  0  0  0  0  0  0  0  0  0
  140.2020   77.2840  220.7820 N   0  0  0  0  0  0  0  0  0  0  0  0
  138.2180   78.7090  219.7420 H   0  0  0  0  0  0  0  0  0  0  0  0
  135.8203   79.4312  219.8896 H   0  0  0  0  0  0  0  0  0  0  0  0
  135.8465   78.9449  221.6344 H   0  0  0  0  0  0  0  0  0  0  0  0
  135.5145   82.8166  221.7230 H   0  0  0  0  0  0  0  0  0  0  0  0
  134.9141   82.1301  223.3173 H   0  0  0  0  0  0  0  0  0  0  0  0
  137.4788   83.6122  223.1052 H   0  0  0  0  0  0  0  0  0  0  0  0
  135.8216   84.4221  223.2861 H   0  0  0  0  0  0  0  0  0  0  0  0
  137.0687   84.2523  225.3398 H   0  0  0  0  0  0  0  0  0  0  0  0
  135.4462   83.3527  225.2679 H   0  0  0  0  0  0  0  0  0  0  0  0
  138.1984   82.2628  225.3477 H   0  0  0  0  0  0  0  0  0  0  0  0
  136.7469   82.1342  226.5291 H   0  0  0  0  0  0  0  0  0  0  0  0
  137.0552   80.0875  225.6571 H   0  0  0  0  0  0  0  0  0  0  0  0
  135.6307   80.9216  224.8064 H   0  0  0  0  0  0  0  0  0  0  0  0
  136.9925   79.4257  223.5122 H   0  0  0  0  0  0  0  0  0  0  0  0
  138.9025   78.5884  224.4252 H   0  0  0  0  0  0  0  0  0  0  0  0
  141.3598   78.5278  224.2307 H   0  0  0  0  0  0  0  0  0  0  0  0
  141.3490   82.3330  222.2991 H   0  0  0  0  0  0  0  0  0  0  0  0
  138.8972   82.3949  222.4930 H   0  0  0  0  0  0  0  0  0  0  0  0
  138.1988   75.1561  222.4967 H   0  0  0  0  0  0  0  0  0  0  0  0
  140.2375   73.7148  222.2262 H   0  0  0  0  0  0  0  0  0  0  0  0
  142.4214   73.3940  221.4347 H   0  0  0  0  0  0  0  0  0  0  0  0
  144.4242   76.5700  219.2890 H   0  0  0  0  0  0  0  0  0  0  0  0
  142.4227   78.0265  219.5405 H   0  0  0  0  0  0  0  0  0  0  0  0
  1  2  2  0
  2  3  1  0
  3  4  1  0
  4  5  1  0
  5  6  2  0
  5  7  1  0
  7  8  1  0
  8  9  1  0
  9 10  1  0
 10 11  1  0
 11 12  1  0
 12 13  1  0
 13 14  1  0
 14 15  2  0
 15 16  1  0
 16 17  2  0
 17 18  1  0
 17 19  1  0
 19 20  2  0
  2 21  1  0
 21 22  2  0
 22 23  1  0
 23 24  2  0
 24 25  1  0
 25 26  2  0
 26 27  1  0
 26 28  1  0
 28 29  2  0
 29 30  1  0
 30 31  2  0
 13  7  1  0
 20 14  1  0
 31 21  1  0
 30 24  1  0
  3 32  1  0
  4 33  1  0
  4 34  1  0
  8 35  1  0
  8 36  1  0
  9 37  1  0
  9 38  1  0
 10 39  1  0
 10 40  1  0
 11 41  1  0
 11 42  1  0
 12 43  1  0
 12 44  1  0
 13 45  1  6
 15 46  1  0
 16 47  1  0
 19 48  1  0
 20 49  1  0
 22 50  1  0
 23 51  1  0
 25 52  1  0
 28 53  1  0
 29 54  1  0
M  END
>  <smiles>  (7) 
O=C(NCC(=O)N1CCCCCC1c1ccc(Cl)cc1)c1ccc2cc(Cl)ccc2n1

>  <score_type>  (7) 
oracle

>  <origin>  (7) 
autodockgpu

>  <m_score__min__energy>  (7) 
-6.9299999999999997

>  <m_primary>  (7) 
energy

>  <rmsd>  (7) 
8.121474420972655

>  <m_score__min__rmsd>  (7) 
8.121474420972655

>  <meeko>  (7) 
{"free_energy": -4.11, "intermolecular_energy": -7.39, "internal_energy": -2.93, "cluster_size": 1, "cluster_id": 16, "rank_in_cluster": 1}

>  <energy>  (7) 
-5.97

>  <cluster_rmsd>  (7) 
1.94

>  <cluster>  (7) 
1

$$$$

     RDKit          3D

 54 57  0  0  0  0  0  0  0  0999 V2000
  138.7950   73.1940  221.5490 O   0  0  0  0  0  0  0  0  0  0  0  0
  139.8970   72.8430  222.0610 C   0  0  0  0  0  0  0  0  0  0  0  0
  141.0960   73.4170  221.5370 N   0  0  0  0  0  0  0  0  0  0  0  0
  140.9390   74.3640  220.4500 C   0  0  0  0  0  0  0  0  0  0  0  0
  142.1740   75.1600  220.2380 C   0  0  0  0  0  0  0  0  0  0  0  0
  143.2360   74.8730  220.8290 O   0  0  0  0  0  0  0  0  0  0  0  0
  142.1950   76.2740  219.3580 N   0  0  0  0  0  0  0  0  0  0  0  0
  143.2890   76.3130  218.4100 C   0  0  0  0  0  0  0  0  0  0  0  0
  142.9560   75.8040  217.0550 C   0  0  0  0  0  0  0  0  0  0  0  0
  141.9270   76.5570  216.2900 C   0  0  0  0  0  0  0  0  0  0  0  0
  140.7020   76.9550  217.0140 C   0  0  0  0  0  0  0  0  0  0  0  0
  140.7860   77.8660  218.1660 C   0  0  0  0  0  0  0  0  0  0  0  0
  141.1260   77.2700  219.4790 C   0  0  2  0  0  0  0  0  0  0  0  0
  141.3890   78.2160  220.5750 C   0  0  0  0  0  0  0  0  0  0  0  0
  141.8700   79.4680  220.2550 C   0  0  0  0  0  0  0  0  0  0  0  0
  142.1340   80.3940  221.2560 C   0  0  0  0  0  0  0  0  0  0  0  0
  141.9340   80.1170  222.5940 C   0  0  0  0  0  0  0  0  0  0  0  0
  142.2820   81.3160  223.8070 Cl  0  0  0  0  0  0  0  0  0  0  0  0
  141.4560   78.8710  222.9110 C   0  0  0  0  0  0  0  0  0  0  0  0
  141.1920   77.9470  221.9110 C   0  0  0  0  0  0  0  0  0  0  0  0
  139.9720   71.8820  223.1560 C   0  0  0  0  0  0  0  0  0  0  0  0
  139.5300   70.5840  222.9170 C   0  0  0  0  0  0  0  0  0  0  0  0
  139.6020   69.6730  223.9570 C   0  0  0  0  0  0  0  0  0  0  0  0
  140.1060   70.0900  225.1770 C   0  0  0  0  0  0  0  0  0  0  0  0
  140.1590   69.1350  226.1980 C   0  0  0  0  0  0  0  0  0  0  0  0
  140.6610   69.5400  227.4180 C   0  0  0  0  0  0  0  0  0  0  0  0
  140.7220   68.3300  228.6920 Cl  0  0  0  0  0  0  0  0  0  0  0  0
  141.0980   70.8430  227.6400 C   0  0  0  0  0  0  0  0  0  0  0  0
  141.0360   71.7660  226.6170 C   0  0  0  0  0  0  0  0  0  0  0  0
  140.5380   71.3840  225.3870 C   0  0  0  0  0  0  0  0  0  0  0  0
  140.4580   72.2570  224.3550 N   0  0  0  0  0  0  0  0  0  0  0  0
  142.0200   73.1440  221.9420 H   0  0  0  0  0  0  0  0  0  0  0  0
  140.7063   73.8129  219.5269 H   0  0  0  0  0  0  0  0  0  0  0  0
  140.1238   75.0552  220.7101 H   0  0  0  0  0  0  0  0  0  0  0  0
  143.6198   77.3575  218.3117 H   0  0  0  0  0  0  0  0  0  0  0  0
  144.0686   75.6471  218.8085 H   0  0  0  0  0  0  0  0  0  0  0  0
  143.8818   75.8086  216.4610 H   0  0  0  0  0  0  0  0  0  0  0  0
  142.5196   74.8080  217.2209 H   0  0  0  0  0  0  0  0  0  0  0  0
  142.4013   77.4751  215.9131 H   0  0  0  0  0  0  0  0  0  0  0  0
  141.5824   75.8569  215.5147 H   0  0  0  0  0  0  0  0  0  0  0  0
  140.0413   77.4359  216.2777 H   0  0  0  0  0  0  0  0  0  0  0  0
  140.3599   76.0118  217.4649 H   0  0  0  0  0  0  0  0  0  0  0  0
  141.5537   78.6196  217.9363 H   0  0  0  0  0  0  0  0  0  0  0  0
  139.7665   78.2602  218.2898 H   0  0  0  0  0  0  0  0  0  0  0  0
  140.1963   76.7686  219.7860 H   0  0  0  0  0  0  0  0  0  0  0  0
  142.0454   79.7346  219.2023 H   0  0  0  0  0  0  0  0  0  0  0  0
  142.5168   81.3854  220.9722 H   0  0  0  0  0  0  0  0  0  0  0  0
  141.2812   78.6033  223.9635 H   0  0  0  0  0  0  0  0  0  0  0  0
  140.8087   76.9565  222.1975 H   0  0  0  0  0  0  0  0  0  0  0  0
  139.1358   70.2912  221.9327 H   0  0  0  0  0  0  0  0  0  0  0  0
  139.2645   68.6356  223.8163 H   0  0  0  0  0  0  0  0  0  0  0  0
  139.8145   68.1031  226.0349 H   0  0  0  0  0  0  0  0  0  0  0  0
  141.4904   71.1347  228.6254 H   0  0  0  0  0  0  0  0  0  0  0  0
  141.3804   72.7980  226.7796 H   0  0  0  0  0  0  0  0  0  0  0  0
  1  2  2  0
  2  3  1  0
  3  4  1  0
  4  5  1  0
  5  6  2  0
  5  7  1  0
  7  8  1  0
  8  9  1  0
  9 10  1  0
 10 11  1  0
 11 12  1  0
 12 13  1  0
 13 14  1  0
 14 15  2  0
 15 16  1  0
 16 17  2  0
 17 18  1  0
 17 19  1  0
 19 20  2  0
  2 21  1  0
 21 22  2  0
 22 23  1  0
 23 24  2  0
 24 25  1  0
 25 26  2  0
 26 27  1  0
 26 28  1  0
 28 29  2  0
 29 30  1  0
 30 31  2  0
 13  7  1  0
 20 14  1  0
 31 21  1  0
 30 24  1  0
  3 32  1  0
  4 33  1  0
  4 34  1  0
  8 35  1  0
  8 36  1  0
  9 37  1  0
  9 38  1  0
 10 39  1  0
 10 40  1  0
 11 41  1  0
 11 42  1  0
 12 43  1  0
 12 44  1  0
 13 45  1  1
 15 46  1  0
 16 47  1  0
 19 48  1  0
 20 49  1  0
 22 50  1  0
 23 51  1  0
 25 52  1  0
 28 53  1  0
 29 54  1  0
M  END
>  <smiles>  (8) 
O=C(NCC(=O)N1CCCCCC1c1ccc(Cl)cc1)c1ccc2cc(Cl)ccc2n1

>  <score_type>  (8) 
oracle

>  <origin>  (8) 
autodockgpu

>  <m_score__min__energy>  (8) 
-6.9299999999999997

>  <m_primary>  (8) 
energy

>  <rmsd>  (8) 
2.395333186422967

>  <m_score__min__rmsd>  (8) 
2.395333186422967

>  <meeko>  (8) 
{"free_energy": -5.51, "intermolecular_energy": -8.79, "internal_energy": -1.91, "cluster_size": 3, "cluster_id": 3, "rank_in_cluster": 3}

>  <energy>  (8) 
-5.9

>  <cluster_rmsd>  (8) 
1.78

>  <cluster>  (8) 
1

$$$$

     RDKit          3D

 54 57  0  0  0  0  0  0  0  0999 V2000
  137.4310   71.8100  220.8590 O   0  0  0  0  0  0  0  0  0  0  0  0
  138.1520   72.2140  221.8160 C   0  0  0  0  0  0  0  0  0  0  0  0
  138.5590   73.5830  221.8210 N   0  0  0  0  0  0  0  0  0  0  0  0
  138.1040   74.3980  220.7110 C   0  0  0  0  0  0  0  0  0  0  0  0
  139.0070   74.2760  219.5390 C   0  0  0  0  0  0  0  0  0  0  0  0
  138.5840   74.4540  218.3780 O   0  0  0  0  0  0  0  0  0  0  0  0
  140.3810   73.9540  219.6940 N   0  0  0  0  0  0  0  0  0  0  0  0
  140.6710   72.5960  220.1070 C   0  0  0  0  0  0  0  0  0  0  0  0
  141.6490   72.4800  221.2180 C   0  0  0  0  0  0  0  0  0  0  0  0
  143.0860   72.6330  220.8660 C   0  0  0  0  0  0  0  0  0  0  0  0
  143.4940   73.8980  220.2210 C   0  0  0  0  0  0  0  0  0  0  0  0
  142.6980   74.4270  219.1030 C   0  0  0  0  0  0  0  0  0  0  0  0
  141.3710   75.0010  219.4260 C   0  0  2  0  0  0  0  0  0  0  0  0
  141.3480   76.0460  220.4620 C   0  0  0  0  0  0  0  0  0  0  0  0
  141.6300   77.3430  220.0860 C   0  0  0  0  0  0  0  0  0  0  0  0
  141.6220   78.3630  221.0300 C   0  0  0  0  0  0  0  0  0  0  0  0
  141.3380   78.1380  222.3620 C   0  0  0  0  0  0  0  0  0  0  0  0
  141.3410   79.4540  223.5020 Cl  0  0  0  0  0  0  0  0  0  0  0  0
  141.0590   76.8480  222.7340 C   0  0  0  0  0  0  0  0  0  0  0  0
  141.0660   75.8300  221.7920 C   0  0  0  0  0  0  0  0  0  0  0  0
  138.5690   71.3300  222.8990 C   0  0  0  0  0  0  0  0  0  0  0  0
  138.0180   70.0530  222.9490 C   0  0  0  0  0  0  0  0  0  0  0  0
  138.4160   69.2150  223.9780 C   0  0  0  0  0  0  0  0  0  0  0  0
  139.3350   69.6810  224.9010 C   0  0  0  0  0  0  0  0  0  0  0  0
  139.7060   68.7990  225.9220 C   0  0  0  0  0  0  0  0  0  0  0  0
  140.6230   69.2530  226.8470 C   0  0  0  0  0  0  0  0  0  0  0  0
  141.0810   68.1350  228.1250 Cl  0  0  0  0  0  0  0  0  0  0  0  0
  141.1650   70.5330  226.7830 C   0  0  0  0  0  0  0  0  0  0  0  0
  140.7840   71.3850  225.7660 C   0  0  0  0  0  0  0  0  0  0  0  0
  139.8670   70.9530  224.8280 C   0  0  0  0  0  0  0  0  0  0  0  0
  139.4630   71.7540  223.8140 N   0  0  0  0  0  0  0  0  0  0  0  0
  139.1560   73.9430  222.6000 H   0  0  0  0  0  0  0  0  0  0  0  0
  137.0944   74.0729  220.4194 H   0  0  0  0  0  0  0  0  0  0  0  0
  138.0993   75.4493  221.0345 H   0  0  0  0  0  0  0  0  0  0  0  0
  139.7294   72.1276  220.4293 H   0  0  0  0  0  0  0  0  0  0  0  0
  141.1274   72.0984  219.2386 H   0  0  0  0  0  0  0  0  0  0  0  0
  141.4038   73.2548  221.9593 H   0  0  0  0  0  0  0  0  0  0  0  0
  141.5504   71.4464  221.5812 H   0  0  0  0  0  0  0  0  0  0  0  0
  143.6663   72.5335  221.7951 H   0  0  0  0  0  0  0  0  0  0  0  0
  143.2763   71.8563  220.1106 H   0  0  0  0  0  0  0  0  0  0  0  0
  143.4993   74.6702  221.0044 H   0  0  0  0  0  0  0  0  0  0  0  0
  144.4615   73.6534  219.7582 H   0  0  0  0  0  0  0  0  0  0  0  0
  143.2912   75.2173  218.6198 H   0  0  0  0  0  0  0  0  0  0  0  0
  142.4816   73.5526  218.4716 H   0  0  0  0  0  0  0  0  0  0  0  0
  141.0902   75.5385  218.5083 H   0  0  0  0  0  0  0  0  0  0  0  0
  141.8621   77.5707  219.0351 H   0  0  0  0  0  0  0  0  0  0  0  0
  141.8506   79.3882  220.7034 H   0  0  0  0  0  0  0  0  0  0  0  0
  140.8285   76.6193  223.7850 H   0  0  0  0  0  0  0  0  0  0  0  0
  140.8363   74.8061  222.1218 H   0  0  0  0  0  0  0  0  0  0  0  0
  137.2895   69.7195  222.1953 H   0  0  0  0  0  0  0  0  0  0  0  0
  138.0082   68.1966  224.0596 H   0  0  0  0  0  0  0  0  0  0  0  0
  139.2837   67.7852  225.9844 H   0  0  0  0  0  0  0  0  0  0  0  0
  141.8928   70.8640  227.5385 H   0  0  0  0  0  0  0  0  0  0  0  0
  141.2068   72.3986  225.7033 H   0  0  0  0  0  0  0  0  0  0  0  0
  1  2  2  0
  2  3  1  0
  3  4  1  0
  4  5  1  0
  5  6  2  0
  5  7  1  0
  7  8  1  0
  8  9  1  0
  9 10  1  0
 10 11  1  0
 11 12  1  0
 12 13  1  0
 13 14  1  0
 14 15  2  0
 15 16  1  0
 16 17  2  0
 17 18  1  0
 17 19  1  0
 19 20  2  0
  2 21  1  0
 21 22  2  0
 22 23  1  0
 23 24  2  0
 24 25  1  0
 25 26  2  0
 26 27  1  0
 26 28  1  0
 28 29  2  0
 29 30  1  0
 30 31  2  0
 13  7  1  0
 20 14  1  0
 31 21  1  0
 30 24  1  0
  3 32  1  0
  4 33  1  0
  4 34  1  0
  8 35  1  0
  8 36  1  0
  9 37  1  0
  9 38  1  0
 10 39  1  0
 10 40  1  0
 11 41  1  0
 11 42  1  0
 12 43  1  0
 12 44  1  0
 13 45  1  6
 15 46  1  0
 16 47  1  0
 19 48  1  0
 20 49  1  0
 22 50  1  0
 23 51  1  0
 25 52  1  0
 28 53  1  0
 29 54  1  0
M  END
>  <smiles>  (9) 
O=C(NCC(=O)N1CCCCCC1c1ccc(Cl)cc1)c1ccc2cc(Cl)ccc2n1

>  <score_type>  (9) 
oracle

>  <origin>  (9) 
autodockgpu

>  <m_score__min__energy>  (9) 
-6.9299999999999997

>  <m_primary>  (9) 
energy

>  <rmsd>  (9) 
2.47295736197773

>  <m_score__min__rmsd>  (9) 
2.47295736197773

>  <meeko>  (9) 
{"free_energy": -5.56, "intermolecular_energy": -8.84, "internal_energy": -2.45, "cluster_size": 11, "cluster_id": 2, "rank_in_cluster": 9}

>  <energy>  (9) 
-5.88

>  <cluster_rmsd>  (9) 
1.85

>  <cluster>  (9) 
1

$$$$

     RDKit          3D

 54 57  0  0  0  0  0  0  0  0999 V2000
  141.8860   78.7060  216.6190 O   0  0  0  0  0  0  0  0  0  0  0  0
  142.3720   78.2700  217.7020 C   0  0  0  0  0  0  0  0  0  0  0  0
  142.3330   79.1210  218.8490 N   0  0  0  0  0  0  0  0  0  0  0  0
  141.7310   80.4270  218.6650 C   0  0  0  0  0  0  0  0  0  0  0  0
  141.6790   81.1880  219.9400 C   0  0  0  0  0  0  0  0  0  0  0  0
  141.7910   82.4310  219.9540 O   0  0  0  0  0  0  0  0  0  0  0  0
  141.5020   80.5320  221.1860 N   0  0  0  0  0  0  0  0  0  0  0  0
  142.6070   80.6310  222.1170 C   0  0  0  0  0  0  0  0  0  0  0  0
  142.7310   79.4890  223.0580 C   0  0  0  0  0  0  0  0  0  0  0  0
  141.7750   79.4500  224.1970 C   0  0  0  0  0  0  0  0  0  0  0  0
  140.3460   79.2630  223.8740 C   0  0  0  0  0  0  0  0  0  0  0  0
  139.7360   80.0530  222.7960 C   0  0  0  0  0  0  0  0  0  0  0  0
  140.2390   79.8250  221.4210 C   0  0  2  0  0  0  0  0  0  0  0  0
  140.3120   78.4230  220.9790 C   0  0  0  0  0  0  0  0  0  0  0  0
  139.5700   78.0470  219.8790 C   0  0  0  0  0  0  0  0  0  0  0  0
  139.6060   76.7350  219.4250 C   0  0  0  0  0  0  0  0  0  0  0  0
  140.3690   75.7590  220.0360 C   0  0  0  0  0  0  0  0  0  0  0  0
  140.3770   74.1300  219.4240 Cl  0  0  0  0  0  0  0  0  0  0  0  0
  141.1060   76.1350  221.1300 C   0  0  0  0  0  0  0  0  0  0  0  0
  141.0700   77.4460  221.5830 C   0  0  0  0  0  0  0  0  0  0  0  0
  142.9620   76.9400  217.8060 C   0  0  0  0  0  0  0  0  0  0  0  0
  143.1440   76.2120  216.6340 C   0  0  0  0  0  0  0  0  0  0  0  0
  143.7040   74.9490  216.7350 C   0  0  0  0  0  0  0  0  0  0  0  0
  144.0550   74.4720  217.9860 C   0  0  0  0  0  0  0  0  0  0  0  0
  144.6170   73.1930  218.0380 C   0  0  0  0  0  0  0  0  0  0  0  0
  144.9720   72.7080  219.2810 C   0  0  0  0  0  0  0  0  0  0  0  0
  145.6770   71.0980  219.3320 Cl  0  0  0  0  0  0  0  0  0  0  0  0
  144.7830   73.4490  220.4430 C   0  0  0  0  0  0  0  0  0  0  0  0
  144.2270   74.7100  220.3660 C   0  0  0  0  0  0  0  0  0  0  0  0
  143.8650   75.2160  219.1340 C   0  0  0  0  0  0  0  0  0  0  0  0
  143.3150   76.4470  219.0100 N   0  0  0  0  0  0  0  0  0  0  0  0
  142.7280   78.7850  219.7560 H   0  0  0  0  0  0  0  0  0  0  0  0
  142.3255   80.9947  217.9341 H   0  0  0  0  0  0  0  0  0  0  0  0
  140.7009   80.2844  218.3063 H   0  0  0  0  0  0  0  0  0  0  0  0
  143.5388   80.6991  221.5365 H   0  0  0  0  0  0  0  0  0  0  0  0
  142.4144   81.5214  222.7335 H   0  0  0  0  0  0  0  0  0  0  0  0
  142.5953   78.5641  222.4782 H   0  0  0  0  0  0  0  0  0  0  0  0
  143.7230   79.6034  223.5194 H   0  0  0  0  0  0  0  0  0  0  0  0
  142.0768   78.6209  224.8539 H   0  0  0  0  0  0  0  0  0  0  0  0
  141.8341   80.4504  224.6506 H   0  0  0  0  0  0  0  0  0  0  0  0
  140.2147   78.2039  223.6074 H   0  0  0  0  0  0  0  0  0  0  0  0
  139.8295   79.6190  224.7776 H   0  0  0  0  0  0  0  0  0  0  0  0
  138.6580   79.8339  222.7945 H   0  0  0  0  0  0  0  0  0  0  0  0
  139.9998   81.0961  223.0249 H   0  0  0  0  0  0  0  0  0  0  0  0
  139.4564   80.2585  220.7809 H   0  0  0  0  0  0  0  0  0  0  0  0
  138.9470   78.7895  219.3589 H   0  0  0  0  0  0  0  0  0  0  0  0
  139.0041   76.4627  218.5455 H   0  0  0  0  0  0  0  0  0  0  0  0
  141.7290   75.3931  221.6511 H   0  0  0  0  0  0  0  0  0  0  0  0
  141.6731   77.7159  222.4624 H   0  0  0  0  0  0  0  0  0  0  0  0
  142.8522   76.6266  215.6578 H   0  0  0  0  0  0  0  0  0  0  0  0
  143.8669   74.3357  215.8365 H   0  0  0  0  0  0  0  0  0  0  0  0
  144.7701   72.5974  217.1259 H   0  0  0  0  0  0  0  0  0  0  0  0
  145.0751   73.0322  221.4182 H   0  0  0  0  0  0  0  0  0  0  0  0
  144.0739   75.3059  221.2778 H   0  0  0  0  0  0  0  0  0  0  0  0
  1  2  2  0
  2  3  1  0
  3  4  1  0
  4  5  1  0
  5  6  2  0
  5  7  1  0
  7  8  1  0
  8  9  1  0
  9 10  1  0
 10 11  1  0
 11 12  1  0
 12 13  1  0
 13 14  1  0
 14 15  2  0
 15 16  1  0
 16 17  2  0
 17 18  1  0
 17 19  1  0
 19 20  2  0
  2 21  1  0
 21 22  2  0
 22 23  1  0
 23 24  2  0
 24 25  1  0
 25 26  2  0
 26 27  1  0
 26 28  1  0
 28 29  2  0
 29 30  1  0
 30 31  2  0
 13  7  1  0
 20 14  1  0
 31 21  1  0
 30 24  1  0
  3 32  1  0
  4 33  1  0
  4 34  1  0
  8 35  1  0
  8 36  1  0
  9 37  1  0
  9 38  1  0
 10 39  1  0
 10 40  1  0
 11 41  1  0
 11 42  1  0
 12 43  1  0
 12 44  1  0
 13 45  1  6
 15 46  1  0
 16 47  1  0
 19 48  1  0
 20 49  1  0
 22 50  1  0
 23 51  1  0
 25 52  1  0
 28 53  1  0
 29 54  1  0
M  END
>  <smiles>  (10) 
O=C(NCC(=O)N1CCCCCC1c1ccc(Cl)cc1)c1ccc2cc(Cl)ccc2n1

>  <score_type>  (10) 
oracle

>  <origin>  (10) 
autodockgpu

>  <m_score__min__energy>  (10) 
-6.9299999999999997

>  <m_primary>  (10) 
energy

>  <rmsd>  (10) 
8.367047579339495

>  <m_score__min__rmsd>  (10) 
8.367047579339495

>  <meeko>  (10) 
{"free_energy": -4.34, "intermolecular_energy": -7.62, "internal_energy": -3.19, "cluster_size": 3, "cluster_id": 13, "rank_in_cluster": 2}

>  <energy>  (10) 
-5.86

>  <cluster_rmsd>  (10) 
1.73

>  <cluster>  (10) 
1

$$$$

     RDKit          3D

 54 57  0  0  0  0  0  0  0  0999 V2000
  139.7430   74.0050  222.0270 O   0  0  0  0  0  0  0  0  0  0  0  0
  140.2760   72.8610  221.9570 C   0  0  0  0  0  0  0  0  0  0  0  0
  140.9580   72.5080  220.7520 N   0  0  0  0  0  0  0  0  0  0  0  0
  140.9770   73.5080  219.7030 C   0  0  0  0  0  0  0  0  0  0  0  0
  141.8440   74.6590  220.0620 C   0  0  0  0  0  0  0  0  0  0  0  0
  142.9200   74.4900  220.6710 O   0  0  0  0  0  0  0  0  0  0  0  0
  141.4810   75.9900  219.7290 N   0  0  0  0  0  0  0  0  0  0  0  0
  142.1490   76.5590  218.5760 C   0  0  0  0  0  0  0  0  0  0  0  0
  141.4020   76.4300  217.2990 C   0  0  0  0  0  0  0  0  0  0  0  0
  139.9490   76.7410  217.3370 C   0  0  0  0  0  0  0  0  0  0  0  0
  139.4690   77.5970  218.4410 C   0  0  0  0  0  0  0  0  0  0  0  0
  139.2730   77.0200  219.7800 C   0  0  0  0  0  0  0  0  0  0  0  0
  140.4800   76.6630  220.5610 C   0  0  2  0  0  0  0  0  0  0  0  0
  141.0780   77.7420  221.3630 C   0  0  0  0  0  0  0  0  0  0  0  0
  141.1010   77.5990  222.7350 C   0  0  0  0  0  0  0  0  0  0  0  0
  141.6540   78.5920  223.5340 C   0  0  0  0  0  0  0  0  0  0  0  0
  142.2000   79.7480  223.0090 C   0  0  0  0  0  0  0  0  0  0  0  0
  142.8810   80.9600  224.0570 Cl  0  0  0  0  0  0  0  0  0  0  0  0
  142.1760   79.8880  221.6450 C   0  0  0  0  0  0  0  0  0  0  0  0
  141.6230   78.8960  220.8480 C   0  0  0  0  0  0  0  0  0  0  0  0
  140.2140   71.9080  223.0600 C   0  0  0  0  0  0  0  0  0  0  0  0
  139.6130   70.6740  222.8240 C   0  0  0  0  0  0  0  0  0  0  0  0
  139.5550   69.7700  223.8720 C   0  0  0  0  0  0  0  0  0  0  0  0
  140.0910   70.1310  225.0960 C   0  0  0  0  0  0  0  0  0  0  0  0
  140.0090   69.1860  226.1240 C   0  0  0  0  0  0  0  0  0  0  0  0
  140.5420   69.5350  227.3480 C   0  0  0  0  0  0  0  0  0  0  0  0
  140.4310   68.3380  228.6320 Cl  0  0  0  0  0  0  0  0  0  0  0  0
  141.1390   70.7730  227.5670 C   0  0  0  0  0  0  0  0  0  0  0  0
  141.2080   71.6880  226.5370 C   0  0  0  0  0  0  0  0  0  0  0  0
  140.6820   71.3620  225.3030 C   0  0  0  0  0  0  0  0  0  0  0  0
  140.7270   72.2280  224.2640 N   0  0  0  0  0  0  0  0  0  0  0  0
  141.4070   71.5680  220.6680 H   0  0  0  0  0  0  0  0  0  0  0  0
  141.3575   73.0488  218.7787 H   0  0  0  0  0  0  0  0  0  0  0  0
  139.9513   73.8799  219.5629 H   0  0  0  0  0  0  0  0  0  0  0  0
  142.3144   77.6291  218.7695 H   0  0  0  0  0  0  0  0  0  0  0  0
  143.0832   75.9926  218.4477 H   0  0  0  0  0  0  0  0  0  0  0  0
  141.8686   77.1095  216.5706 H   0  0  0  0  0  0  0  0  0  0  0  0
  141.4608   75.3630  217.0382 H   0  0  0  0  0  0  0  0  0  0  0  0
  139.6940   77.2449  216.3931 H   0  0  0  0  0  0  0  0  0  0  0  0
  139.4562   75.7706  217.4967 H   0  0  0  0  0  0  0  0  0  0  0  0
  140.1966   78.4148  218.5497 H   0  0  0  0  0  0  0  0  0  0  0  0
  138.4501   77.8696  218.1286 H   0  0  0  0  0  0  0  0  0  0  0  0
  138.7032   77.7511  220.3723 H   0  0  0  0  0  0  0  0  0  0  0  0
  138.7672   76.0604  219.5971 H   0  0  0  0  0  0  0  0  0  0  0  0
  140.1032   75.9566  221.3153 H   0  0  0  0  0  0  0  0  0  0  0  0
  140.6796   76.6947  223.1984 H   0  0  0  0  0  0  0  0  0  0  0  0
  141.6574   78.4529  224.6252 H   0  0  0  0  0  0  0  0  0  0  0  0
  142.5974   80.7916  221.1803 H   0  0  0  0  0  0  0  0  0  0  0  0
  141.6201   79.0381  219.7572 H   0  0  0  0  0  0  0  0  0  0  0  0
  139.1974   70.4250  221.8364 H   0  0  0  0  0  0  0  0  0  0  0  0
  139.0910   68.7823  223.7338 H   0  0  0  0  0  0  0  0  0  0  0  0
  139.5388   68.2046  225.9632 H   0  0  0  0  0  0  0  0  0  0  0  0
  141.5534   71.0203  228.5555 H   0  0  0  0  0  0  0  0  0  0  0  0
  141.6783   72.6694  226.6976 H   0  0  0  0  0  0  0  0  0  0  0  0
  1  2  2  0
  2  3  1  0
  3  4  1  0
  4  5  1  0
  5  6  2  0
  5  7  1  0
  7  8  1  0
  8  9  1  0
  9 10  1  0
 10 11  1  0
 11 12  1  0
 12 13  1  0
 13 14  1  0
 14 15  2  0
 15 16  1  0
 16 17  2  0
 17 18  1  0
 17 19  1  0
 19 20  2  0
  2 21  1  0
 21 22  2  0
 22 23  1  0
 23 24  2  0
 24 25  1  0
 25 26  2  0
 26 27  1  0
 26 28  1  0
 28 29  2  0
 29 30  1  0
 30 31  2  0
 13  7  1  0
 20 14  1  0
 31 21  1  0
 30 24  1  0
  3 32  1  0
  4 33  1  0
  4 34  1  0
  8 35  1  0
  8 36  1  0
  9 37  1  0
  9 38  1  0
 10 39  1  0
 10 40  1  0
 11 41  1  0
 11 42  1  0
 12 43  1  0
 12 44  1  0
 13 45  1  1
 15 46  1  0
 16 47  1  0
 19 48  1  0
 20 49  1  0
 22 50  1  0
 23 51  1  0
 25 52  1  0
 28 53  1  0
 29 54  1  0
M  END
>  <smiles>  (11) 
O=C(NCC(=O)N1CCCCCC1c1ccc(Cl)cc1)c1ccc2cc(Cl)ccc2n1

>  <score_type>  (11) 
oracle

>  <origin>  (11) 
autodockgpu

>  <m_score__min__energy>  (11) 
-6.9299999999999997

>  <m_primary>  (11) 
energy

>  <rmsd>  (11) 
2.3352299426652627

>  <m_score__min__rmsd>  (11) 
2.3352299426652627

>  <meeko>  (11) 
{"free_energy": -5.96, "intermolecular_energy": -9.24, "internal_energy": -1.8, "cluster_size": 3, "cluster_id": 3, "rank_in_cluster": 2}

>  <energy>  (11) 
-5.77

>  <cluster_rmsd>  (11) 
1.42

>  <cluster>  (11) 
1

$$$$

     RDKit          3D

 54 57  0  0  0  0  0  0  0  0999 V2000
  138.1090   71.5070  221.0080 O   0  0  0  0  0  0  0  0  0  0  0  0
  138.7070   71.9610  222.0260 C   0  0  0  0  0  0  0  0  0  0  0  0
  139.0490   73.3480  222.0440 N   0  0  0  0  0  0  0  0  0  0  0  0
  138.6750   74.1220  220.8760 C   0  0  0  0  0  0  0  0  0  0  0  0
  139.8160   74.2820  219.9390 C   0  0  0  0  0  0  0  0  0  0  0  0
  139.6450   74.7200  218.7830 O   0  0  0  0  0  0  0  0  0  0  0  0
  141.1400   73.9440  220.3230 N   0  0  0  0  0  0  0  0  0  0  0  0
  141.3360   72.5910  220.8020 C   0  0  0  0  0  0  0  0  0  0  0  0
  142.1750   71.7370  219.9240 C   0  0  0  0  0  0  0  0  0  0  0  0
  143.6400   71.9900  219.9430 C   0  0  0  0  0  0  0  0  0  0  0  0
  144.0880   73.3850  219.7560 C   0  0  0  0  0  0  0  0  0  0  0  0
  143.5100   74.4500  220.5910 C   0  0  0  0  0  0  0  0  0  0  0  0
  142.1790   74.9720  220.2020 C   0  0  2  0  0  0  0  0  0  0  0  0
  141.7660   76.2360  220.8310 C   0  0  0  0  0  0  0  0  0  0  0  0
  141.0980   76.1770  222.0370 C   0  0  0  0  0  0  0  0  0  0  0  0
  140.6870   77.3450  222.6680 C   0  0  0  0  0  0  0  0  0  0  0  0
  140.9200   78.5970  222.1340 C   0  0  0  0  0  0  0  0  0  0  0  0
  140.3830   80.0280  222.9690 Cl  0  0  0  0  0  0  0  0  0  0  0  0
  141.5830   78.6540  220.9360 C   0  0  0  0  0  0  0  0  0  0  0  0
  141.9940   77.4880  220.3060 C   0  0  0  0  0  0  0  0  0  0  0  0
  139.0500   71.1160  223.1650 C   0  0  0  0  0  0  0  0  0  0  0  0
  138.6180   69.7920  223.1500 C   0  0  0  0  0  0  0  0  0  0  0  0
  138.9440   68.9920  224.2310 C   0  0  0  0  0  0  0  0  0  0  0  0
  139.6780   69.5380  225.2690 C   0  0  0  0  0  0  0  0  0  0  0  0
  139.9830   68.6910  226.3400 C   0  0  0  0  0  0  0  0  0  0  0  0
  140.7160   69.2250  227.3800 C   0  0  0  0  0  0  0  0  0  0  0  0
  141.0920   68.1500  228.7200 Cl  0  0  0  0  0  0  0  0  0  0  0  0
  141.1390   70.5510  227.3800 C   0  0  0  0  0  0  0  0  0  0  0  0
  140.8260   71.3660  226.3120 C   0  0  0  0  0  0  0  0  0  0  0  0
  140.0950   70.8540  225.2590 C   0  0  0  0  0  0  0  0  0  0  0  0
  139.7630   71.6180  224.1910 N   0  0  0  0  0  0  0  0  0  0  0  0
  139.5440   73.7490  222.8730 H   0  0  0  0  0  0  0  0  0  0  0  0
  137.8541   73.6078  220.3547 H   0  0  0  0  0  0  0  0  0  0  0  0
  138.3617   75.1218  221.2112 H   0  0  0  0  0  0  0  0  0  0  0  0
  141.8172   72.6437  221.7898 H   0  0  0  0  0  0  0  0  0  0  0  0
  140.3404   72.1242  220.8296 H   0  0  0  0  0  0  0  0  0  0  0  0
  142.0141   70.6913  220.2250 H   0  0  0  0  0  0  0  0  0  0  0  0
  141.8552   71.9767  218.8992 H   0  0  0  0  0  0  0  0  0  0  0  0
  144.0220   71.6477  220.9161 H   0  0  0  0  0  0  0  0  0  0  0  0
  144.0321   71.4476  219.0700 H   0  0  0  0  0  0  0  0  0  0  0  0
  145.1744   73.3979  219.9278 H   0  0  0  0  0  0  0  0  0  0  0  0
  143.7405   73.6342  218.7425 H   0  0  0  0  0  0  0  0  0  0  0  0
  143.4245   74.0572  221.6149 H   0  0  0  0  0  0  0  0  0  0  0  0
  144.1936   75.3037  220.4728 H   0  0  0  0  0  0  0  0  0  0  0  0
  142.3037   75.2381  219.1420 H   0  0  0  0  0  0  0  0  0  0  0  0
  140.8900   75.2015  222.5008 H   0  0  0  0  0  0  0  0  0  0  0  0
  140.1563   77.2694  223.6286 H   0  0  0  0  0  0  0  0  0  0  0  0
  141.7904   79.6292  220.4714 H   0  0  0  0  0  0  0  0  0  0  0  0
  142.5248   77.5675  219.3458 H   0  0  0  0  0  0  0  0  0  0  0  0
  138.0359   69.3947  222.3054 H   0  0  0  0  0  0  0  0  0  0  0  0
  138.6250   67.9398  224.2645 H   0  0  0  0  0  0  0  0  0  0  0  0
  139.6519   67.6421  226.3525 H   0  0  0  0  0  0  0  0  0  0  0  0
  141.7194   70.9467  228.2265 H   0  0  0  0  0  0  0  0  0  0  0  0
  141.1562   72.4152  226.2996 H   0  0  0  0  0  0  0  0  0  0  0  0
  1  2  2  0
  2  3  1  0
  3  4  1  0
  4  5  1  0
  5  6  2  0
  5  7  1  0
  7  8  1  0
  8  9  1  0
  9 10  1  0
 10 11  1  0
 11 12  1  0
 12 13  1  0
 13 14  1  0
 14 15  2  0
 15 16  1  0
 16 17  2  0
 17 18  1  0
 17 19  1  0
 19 20  2  0
  2 21  1  0
 21 22  2  0
 22 23  1  0
 23 24  2  0
 24 25  1  0
 25 26  2  0
 26 27  1  0
 26 28  1  0
 28 29  2  0
 29 30  1  0
 30 31  2  0
 13  7  1  0
 20 14  1  0
 31 21  1  0
 30 24  1  0
  3 32  1  0
  4 33  1  0
  4 34  1  0
  8 35  1  0
  8 36  1  0
  9 37  1  0
  9 38  1  0
 10 39  1  0
 10 40  1  0
 11 41  1  0
 11 42  1  0
 12 43  1  0
 12 44  1  0
 13 45  1  6
 15 46  1  0
 16 47  1  0
 19 48  1  0
 20 49  1  0
 22 50  1  0
 23 51  1  0
 25 52  1  0
 28 53  1  0
 29 54  1  0
M  END
>  <smiles>  (12) 
O=C(NCC(=O)N1CCCCCC1c1ccc(Cl)cc1)c1ccc2cc(Cl)ccc2n1

>  <score_type>  (12) 
oracle

>  <origin>  (12) 
autodockgpu

>  <m_score__min__energy>  (12) 
-6.9299999999999997

>  <m_primary>  (12) 
energy

>  <rmsd>  (12) 
2.6254909387375718

>  <m_score__min__rmsd>  (12) 
2.6254909387375718

>  <meeko>  (12) 
{"free_energy": -6.45, "intermolecular_energy": -9.74, "internal_energy": -1.85, "cluster_size": 11, "cluster_id": 2, "rank_in_cluster": 2}

>  <energy>  (12) 
-5.51

>  <cluster_rmsd>  (12) 
1.91

>  <cluster>  (12) 
1

$$$$

     RDKit          3D

 54 57  0  0  0  0  0  0  0  0999 V2000
  139.3830   71.8780  220.6860 O   0  0  0  0  0  0  0  0  0  0  0  0
  139.0280   72.2220  221.8500 C   0  0  0  0  0  0  0  0  0  0  0  0
  138.3190   73.4530  222.0020 N   0  0  0  0  0  0  0  0  0  0  0  0
  138.0670   74.2080  220.7900 C   0  0  0  0  0  0  0  0  0  0  0  0
  138.8490   75.4700  220.7620 C   0  0  0  0  0  0  0  0  0  0  0  0
  139.2600   75.9500  219.6850 O   0  0  0  0  0  0  0  0  0  0  0  0
  139.1570   76.1760  221.9540 N   0  0  0  0  0  0  0  0  0  0  0  0
  138.0280   76.7240  222.6760 C   0  0  0  0  0  0  0  0  0  0  0  0
  137.7250   78.1450  222.3710 C   0  0  0  0  0  0  0  0  0  0  0  0
  138.8380   79.1180  222.5320 C   0  0  0  0  0  0  0  0  0  0  0  0
  140.1500   78.7440  221.9650 C   0  0  0  0  0  0  0  0  0  0  0  0
  140.9470   77.6920  222.6160 C   0  0  0  0  0  0  0  0  0  0  0  0
  140.5650   76.2870  222.3470 C   0  0  2  0  0  0  0  0  0  0  0  0
  141.4430   75.5370  221.4350 C   0  0  0  0  0  0  0  0  0  0  0  0
  141.5250   74.1690  221.5850 C   0  0  0  0  0  0  0  0  0  0  0  0
  142.3420   73.4190  220.7490 C   0  0  0  0  0  0  0  0  0  0  0  0
  143.0970   73.9910  219.7430 C   0  0  0  0  0  0  0  0  0  0  0  0
  144.1040   73.0030  218.7220 Cl  0  0  0  0  0  0  0  0  0  0  0  0
  143.0150   75.3510  219.5950 C   0  0  0  0  0  0  0  0  0  0  0  0
  142.1990   76.0990  220.4310 C   0  0  0  0  0  0  0  0  0  0  0  0
  139.3210   71.4040  223.0230 C   0  0  0  0  0  0  0  0  0  0  0  0
  138.9400   70.0660  222.9980 C   0  0  0  0  0  0  0  0  0  0  0  0
  139.2180   69.2910  224.1120 C   0  0  0  0  0  0  0  0  0  0  0  0
  139.8570   69.8780  225.1900 C   0  0  0  0  0  0  0  0  0  0  0  0
  140.1160   69.0570  226.2920 C   0  0  0  0  0  0  0  0  0  0  0  0
  140.7540   69.6310  227.3730 C   0  0  0  0  0  0  0  0  0  0  0  0
  141.0750   68.5880  228.7520 Cl  0  0  0  0  0  0  0  0  0  0  0  0
  141.1290   70.9710  227.3820 C   0  0  0  0  0  0  0  0  0  0  0  0
  140.8620   71.7610  226.2820 C   0  0  0  0  0  0  0  0  0  0  0  0
  140.2250   71.2090  225.1890 C   0  0  0  0  0  0  0  0  0  0  0  0
  139.9420   71.9450  224.0890 N   0  0  0  0  0  0  0  0  0  0  0  0
  138.0150   73.7600  222.9530 H   0  0  0  0  0  0  0  0  0  0  0  0
  138.3481   73.5941  219.9216 H   0  0  0  0  0  0  0  0  0  0  0  0
  136.9977   74.4641  220.7592 H   0  0  0  0  0  0  0  0  0  0  0  0
  137.1398   76.1240  222.4290 H   0  0  0  0  0  0  0  0  0  0  0  0
  138.2942   76.6859  223.7426 H   0  0  0  0  0  0  0  0  0  0  0  0
  137.3871   78.1961  221.3254 H   0  0  0  0  0  0  0  0  0  0  0  0
  136.9716   78.4443  223.1145 H   0  0  0  0  0  0  0  0  0  0  0  0
  138.5269   80.0585  222.0537 H   0  0  0  0  0  0  0  0  0  0  0  0
  139.0057   79.1794  223.6174 H   0  0  0  0  0  0  0  0  0  0  0  0
  139.9697   78.4152  220.9309 H   0  0  0  0  0  0  0  0  0  0  0  0
  140.7582   79.6505  222.1008 H   0  0  0  0  0  0  0  0  0  0  0  0
  141.9902   77.8189  222.2911 H   0  0  0  0  0  0  0  0  0  0  0  0
  140.7727   77.8311  223.6932 H   0  0  0  0  0  0  0  0  0  0  0  0
  140.7102   75.7880  223.3165 H   0  0  0  0  0  0  0  0  0  0  0  0
  140.9402   73.6688  222.3710 H   0  0  0  0  0  0  0  0  0  0  0  0
  142.3898   72.3295  220.8930 H   0  0  0  0  0  0  0  0  0  0  0  0
  143.5993   75.8521  218.8092 H   0  0  0  0  0  0  0  0  0  0  0  0
  142.1540   77.1884  220.2854 H   0  0  0  0  0  0  0  0  0  0  0  0
  138.4337   69.6369  222.1208 H   0  0  0  0  0  0  0  0  0  0  0  0
  138.9359   68.2281  224.1392 H   0  0  0  0  0  0  0  0  0  0  0  0
  139.8231   67.9967  226.2971 H   0  0  0  0  0  0  0  0  0  0  0  0
  141.6351   71.3981  228.2603 H   0  0  0  0  0  0  0  0  0  0  0  0
  141.1544   72.8214  226.2765 H   0  0  0  0  0  0  0  0  0  0  0  0
  1  2  2  0
  2  3  1  0
  3  4  1  0
  4  5  1  0
  5  6  2  0
  5  7  1  0
  7  8  1  0
  8  9  1  0
  9 10  1  0
 10 11  1  0
 11 12  1  0
 12 13  1  0
 13 14  1  0
 14 15  2  0
 15 16  1  0
 16 17  2  0
 17 18  1  0
 17 19  1  0
 19 20  2  0
  2 21  1  0
 21 22  2  0
 22 23  1  0
 23 24  2  0
 24 25  1  0
 25 26  2  0
 26 27  1  0
 26 28  1  0
 28 29  2  0
 29 30  1  0
 30 31  2  0
 13  7  1  0
 20 14  1  0
 31 21  1  0
 30 24  1  0
  3 32  1  0
  4 33  1  0
  4 34  1  0
  8 35  1  0
  8 36  1  0
  9 37  1  0
  9 38  1  0
 10 39  1  0
 10 40  1  0
 11 41  1  0
 11 42  1  0
 12 43  1  0
 12 44  1  0
 13 45  1  1
 15 46  1  0
 16 47  1  0
 19 48  1  0
 20 49  1  0
 22 50  1  0
 23 51  1  0
 25 52  1  0
 28 53  1  0
 29 54  1  0
M  END
>  <smiles>  (13) 
O=C(NCC(=O)N1CCCCCC1c1ccc(Cl)cc1)c1ccc2cc(Cl)ccc2n1

>  <score_type>  (13) 
oracle

>  <origin>  (13) 
autodockgpu

>  <m_score__min__energy>  (13) 
-6.9299999999999997

>  <m_primary>  (13) 
energy

>  <rmsd>  (13) 
2.938223794294431

>  <m_score__min__rmsd>  (13) 
2.938223794294431

>  <meeko>  (13) 
{"free_energy": -6.16, "intermolecular_energy": -9.44, "internal_energy": -2.2, "cluster_size": 13, "cluster_id": 1, "rank_in_cluster": 4}

>  <energy>  (13) 
-5.01

>  <cluster_rmsd>  (13) 
1.96

>  <cluster>  (13) 
1

$$$$

     RDKit          3D

 54 57  0  0  0  0  0  0  0  0999 V2000
  139.4540   73.9210  220.4180 O   0  0  0  0  0  0  0  0  0  0  0  0
  139.3920   73.9350  221.6810 C   0  0  0  0  0  0  0  0  0  0  0  0
  139.2650   75.1990  222.3350 N   0  0  0  0  0  0  0  0  0  0  0  0
  139.2180   76.3680  221.4790 C   0  0  0  0  0  0  0  0  0  0  0  0
  139.0070   77.6100  222.2650 C   0  0  0  0  0  0  0  0  0  0  0  0
  137.9380   77.8120  222.8790 O   0  0  0  0  0  0  0  0  0  0  0  0
  140.0080   78.6130  222.3480 N   0  0  0  0  0  0  0  0  0  0  0  0
  141.3310   78.1580  222.7250 C   0  0  0  0  0  0  0  0  0  0  0  0
  141.8770   78.7880  223.9540 C   0  0  0  0  0  0  0  0  0  0  0  0
  142.4040   80.1720  223.8220 C   0  0  0  0  0  0  0  0  0  0  0  0
  141.5080   81.1820  223.2240 C   0  0  0  0  0  0  0  0  0  0  0  0
  140.8140   80.8810  221.9600 C   0  0  0  0  0  0  0  0  0  0  0  0
  139.6280   79.9970  222.0470 C   0  0  2  0  0  0  0  0  0  0  0  0
  138.5340   80.4580  222.9150 C   0  0  0  0  0  0  0  0  0  0  0  0
  138.7420   80.4660  224.2790 C   0  0  0  0  0  0  0  0  0  0  0  0
  137.7370   80.8920  225.1380 C   0  0  0  0  0  0  0  0  0  0  0  0
  136.5050   81.3220  224.6840 C   0  0  0  0  0  0  0  0  0  0  0  0
  135.2820   81.8460  225.8070 Cl  0  0  0  0  0  0  0  0  0  0  0  0
  136.3010   81.3130  223.3280 C   0  0  0  0  0  0  0  0  0  0  0  0
  137.3040   80.8870  222.4710 C   0  0  0  0  0  0  0  0  0  0  0  0
  139.4460   72.7110  222.4730 C   0  0  0  0  0  0  0  0  0  0  0  0
  138.7040   71.6170  222.0370 C   0  0  0  0  0  0  0  0  0  0  0  0
  138.7560   70.4560  222.7900 C   0  0  0  0  0  0  0  0  0  0  0  0
  139.5370   70.4360  223.9330 C   0  0  0  0  0  0  0  0  0  0  0  0
  139.5570   69.2420  224.6610 C   0  0  0  0  0  0  0  0  0  0  0  0
  140.3330   69.2110  225.8020 C   0  0  0  0  0  0  0  0  0  0  0  0
  140.3510   67.7040  226.7080 Cl  0  0  0  0  0  0  0  0  0  0  0  0
  141.0690   70.3140  226.2250 C   0  0  0  0  0  0  0  0  0  0  0  0
  141.0320   71.4800  225.4890 C   0  0  0  0  0  0  0  0  0  0  0  0
  140.2630   71.5360  224.3440 C   0  0  0  0  0  0  0  0  0  0  0  0
  140.1970   72.6590  223.5910 N   0  0  0  0  0  0  0  0  0  0  0  0
  139.2120   75.2390  223.3780 H   0  0  0  0  0  0  0  0  0  0  0  0
  140.1687   76.4486  220.9316 H   0  0  0  0  0  0  0  0  0  0  0  0
  138.3740   76.2524  220.7831 H   0  0  0  0  0  0  0  0  0  0  0  0
  141.2860   77.0711  222.8881 H   0  0  0  0  0  0  0  0  0  0  0  0
  142.0040   78.4448  221.9035 H   0  0  0  0  0  0  0  0  0  0  0  0
  141.0716   78.8089  224.7029 H   0  0  0  0  0  0  0  0  0  0  0  0
  142.7474   78.1742  224.2290 H   0  0  0  0  0  0  0  0  0  0  0  0
  142.6707   80.5219  224.8302 H   0  0  0  0  0  0  0  0  0  0  0  0
  143.2459   80.0886  223.1189 H   0  0  0  0  0  0  0  0  0  0  0  0
  140.7308   81.4019  223.9708 H   0  0  0  0  0  0  0  0  0  0  0  0
  142.1888   82.0030  222.9547 H   0  0  0  0  0  0  0  0  0  0  0  0
  140.4866   81.8362  221.5237 H   0  0  0  0  0  0  0  0  0  0  0  0
  141.5449   80.3259  221.3536 H   0  0  0  0  0  0  0  0  0  0  0  0
  139.1952   80.0432  221.0368 H   0  0  0  0  0  0  0  0  0  0  0  0
  139.7076   80.1337  224.6878 H   0  0  0  0  0  0  0  0  0  0  0  0
  137.9293   80.8868  226.2210 H   0  0  0  0  0  0  0  0  0  0  0  0
  135.3360   81.6457  222.9179 H   0  0  0  0  0  0  0  0  0  0  0  0
  137.1081   80.8921  221.3886 H   0  0  0  0  0  0  0  0  0  0  0  0
  138.0951   71.6730  221.1226 H   0  0  0  0  0  0  0  0  0  0  0  0
  138.1868   69.5654  222.4854 H   0  0  0  0  0  0  0  0  0  0  0  0
  138.9784   68.3641  224.3377 H   0  0  0  0  0  0  0  0  0  0  0  0
  141.6763   70.2562  227.1404 H   0  0  0  0  0  0  0  0  0  0  0  0
  141.6106   72.3581  225.8118 H   0  0  0  0  0  0  0  0  0  0  0  0
  1  2  2  0
  2  3  1  0
  3  4  1  0
  4  5  1  0
  5  6  2  0
  5  7  1  0
  7  8  1  0
  8  9  1  0
  9 10  1  0
 10 11  1  0
 11 12  1  0
 12 13  1  0
 13 14  1  0
 14 15  2  0
 15 16  1  0
 16 17  2  0
 17 18  1  0
 17 19  1  0
 19 20  2  0
  2 21  1  0
 21 22  2  0
 22 23  1  0
 23 24  2  0
 24 25  1  0
 25 26  2  0
 26 27  1  0
 26 28  1  0
 28 29  2  0
 29 30  1  0
 30 31  2  0
 13  7  1  0
 20 14  1  0
 31 21  1  0
 30 24  1  0
  3 32  1  0
  4 33  1  0
  4 34  1  0
  8 35  1  0
  8 36  1  0
  9 37  1  0
  9 38  1  0
 10 39  1  0
 10 40  1  0
 11 41  1  0
 11 42  1  0
 12 43  1  0
 12 44  1  0
 13 45  1  6
 15 46  1  0
 16 47  1  0
 19 48  1  0
 20 49  1  0
 22 50  1  0
 23 51  1  0
 25 52  1  0
 28 53  1  0
 29 54  1  0
M  END
>  <smiles>  (14) 
O=C(NCC(=O)N1CCCCCC1c1ccc(Cl)cc1)c1ccc2cc(Cl)ccc2n1

>  <score_type>  (14) 
oracle

>  <origin>  (14) 
autodockgpu

>  <m_score__min__energy>  (14) 
-6.9299999999999997

>  <m_primary>  (14) 
energy

>  <rmsd>  (14) 
4.007753690539852

>  <m_score__min__rmsd>  (14) 
4.007753690539852

>  <meeko>  (14) 
{"free_energy": -5.84, "intermolecular_energy": -9.12, "internal_energy": -1.52, "cluster_size": 1, "cluster_id": 6, "rank_in_cluster": 1}

>  <energy>  (14) 
-6.58

>  <cluster_rmsd>  (14) 
0.0

>  <cluster>  (14) 
2

$$$$

     RDKit          3D

 54 57  0  0  0  0  0  0  0  0999 V2000
  141.8910   72.4290  221.5300 O   0  0  0  0  0  0  0  0  0  0  0  0
  140.9750   73.2650  221.7760 C   0  0  0  0  0  0  0  0  0  0  0  0
  139.8120   72.8050  222.4680 N   0  0  0  0  0  0  0  0  0  0  0  0
  139.7880   71.4010  222.8300 C   0  0  0  0  0  0  0  0  0  0  0  0
  139.0300   71.1760  224.0870 C   0  0  0  0  0  0  0  0  0  0  0  0
  137.9160   71.7080  224.2730 O   0  0  0  0  0  0  0  0  0  0  0  0
  139.5420   70.3500  225.1220 N   0  0  0  0  0  0  0  0  0  0  0  0
  140.6300   70.9080  225.8990 C   0  0  0  0  0  0  0  0  0  0  0  0
  140.5680   70.6170  227.3540 C   0  0  0  0  0  0  0  0  0  0  0  0
  141.0070   69.2650  227.7870 C   0  0  0  0  0  0  0  0  0  0  0  0
  140.2540   68.1080  227.2610 C   0  0  0  0  0  0  0  0  0  0  0  0
  139.9220   68.0480  225.8270 C   0  0  0  0  0  0  0  0  0  0  0  0
  138.9370   69.0290  225.3160 C   0  0  2  0  0  0  0  0  0  0  0  0
  138.1550   68.6140  224.1400 C   0  0  0  0  0  0  0  0  0  0  0  0
  138.7840   67.8610  223.1700 C   0  0  0  0  0  0  0  0  0  0  0  0
  138.0860   67.4480  222.0420 C   0  0  0  0  0  0  0  0  0  0  0  0
  136.7570   67.7600  221.8370 C   0  0  0  0  0  0  0  0  0  0  0  0
  135.9310   67.2150  220.4050 Cl  0  0  0  0  0  0  0  0  0  0  0  0
  136.1330   68.5080  222.8020 C   0  0  0  0  0  0  0  0  0  0  0  0
  136.8300   68.9210  223.9280 C   0  0  0  0  0  0  0  0  0  0  0  0
  141.0740   74.6640  221.3780 C   0  0  0  0  0  0  0  0  0  0  0  0
  141.3300   74.9460  220.0390 C   0  0  0  0  0  0  0  0  0  0  0  0
  141.4240   76.2750  219.6630 C   0  0  0  0  0  0  0  0  0  0  0  0
  141.2620   77.2560  220.6260 C   0  0  0  0  0  0  0  0  0  0  0  0
  141.3660   78.5830  220.1990 C   0  0  0  0  0  0  0  0  0  0  0  0
  141.2050   79.5690  221.1510 C   0  0  0  0  0  0  0  0  0  0  0  0
  141.3390   81.2340  220.6010 Cl  0  0  0  0  0  0  0  0  0  0  0  0
  140.9500   79.2700  222.4860 C   0  0  0  0  0  0  0  0  0  0  0  0
  140.8510   77.9520  222.8830 C   0  0  0  0  0  0  0  0  0  0  0  0
  141.0090   76.9490  221.9480 C   0  0  0  0  0  0  0  0  0  0  0  0
  140.9210   75.6420  222.2920 N   0  0  0  0  0  0  0  0  0  0  0  0
  139.0400   73.4750  222.6840 H   0  0  0  0  0  0  0  0  0  0  0  0
  139.3120   70.8308  222.0186 H   0  0  0  0  0  0  0  0  0  0  0  0
  140.8243   71.0674  222.9874 H   0  0  0  0  0  0  0  0  0  0  0  0
  141.5740   70.5004  225.5082 H   0  0  0  0  0  0  0  0  0  0  0  0
  140.5548   72.0007  225.7978 H   0  0  0  0  0  0  0  0  0  0  0  0
  141.2033   71.3534  227.8679 H   0  0  0  0  0  0  0  0  0  0  0  0
  139.5000   70.6688  227.6123 H   0  0  0  0  0  0  0  0  0  0  0  0
  142.0562   69.1439  227.4796 H   0  0  0  0  0  0  0  0  0  0  0  0
  140.8328   69.2456  228.8730 H   0  0  0  0  0  0  0  0  0  0  0  0
  140.8468   67.2101  227.4897 H   0  0  0  0  0  0  0  0  0  0  0  0
  139.2722   68.1960  227.7493 H   0  0  0  0  0  0  0  0  0  0  0  0
  140.8563   68.1946  225.2652 H   0  0  0  0  0  0  0  0  0  0  0  0
  139.4419   67.0679  225.6891 H   0  0  0  0  0  0  0  0  0  0  0  0
  138.1880   69.0881  226.1194 H   0  0  0  0  0  0  0  0  0  0  0  0
  139.8424   67.5865  223.2902 H   0  0  0  0  0  0  0  0  0  0  0  0
  138.6122   66.8498  221.2836 H   0  0  0  0  0  0  0  0  0  0  0  0
  135.0744   68.7820  222.6827 H   0  0  0  0  0  0  0  0  0  0  0  0
  136.3010   69.5197  224.6841 H   0  0  0  0  0  0  0  0  0  0  0  0
  141.4537   74.1381  219.3028 H   0  0  0  0  0  0  0  0  0  0  0  0
  141.6241   76.5470  218.6161 H   0  0  0  0  0  0  0  0  0  0  0  0
  141.5680   78.8313  219.1466 H   0  0  0  0  0  0  0  0  0  0  0  0
  140.8280   80.0796  223.2206 H   0  0  0  0  0  0  0  0  0  0  0  0
  140.6480   77.7030  223.9350 H   0  0  0  0  0  0  0  0  0  0  0  0
  1  2  2  0
  2  3  1  0
  3  4  1  0
  4  5  1  0
  5  6  2  0
  5  7  1  0
  7  8  1  0
  8  9  1  0
  9 10  1  0
 10 11  1  0
 11 12  1  0
 12 13  1  0
 13 14  1  0
 14 15  2  0
 15 16  1  0
 16 17  2  0
 17 18  1  0
 17 19  1  0
 19 20  2  0
  2 21  1  0
 21 22  2  0
 22 23  1  0
 23 24  2  0
 24 25  1  0
 25 26  2  0
 26 27  1  0
 26 28  1  0
 28 29  2  0
 29 30  1  0
 30 31  2  0
 13  7  1  0
 20 14  1  0
 31 21  1  0
 30 24  1  0
  3 32  1  0
  4 33  1  0
  4 34  1  0
  8 35  1  0
  8 36  1  0
  9 37  1  0
  9 38  1  0
 10 39  1  0
 10 40  1  0
 11 41  1  0
 11 42  1  0
 12 43  1  0
 12 44  1  0
 13 45  1  1
 15 46  1  0
 16 47  1  0
 19 48  1  0
 20 49  1  0
 22 50  1  0
 23 51  1  0
 25 52  1  0
 28 53  1  0
 29 54  1  0
M  END
>  <smiles>  (15) 
O=C(NCC(=O)N1CCCCCC1c1ccc(Cl)cc1)c1ccc2cc(Cl)ccc2n1

>  <score_type>  (15) 
oracle

>  <origin>  (15) 
autodockgpu

>  <m_score__min__energy>  (15) 
-6.9299999999999997

>  <m_primary>  (15) 
energy

>  <rmsd>  (15) 
8.73116299862788

>  <m_score__min__rmsd>  (15) 
8.73116299862788

>  <meeko>  (15) 
{"free_energy": -6.02, "intermolecular_energy": -9.3, "internal_energy": -1.7, "cluster_size": 1, "cluster_id": 4, "rank_in_cluster": 1}

>  <energy>  (15) 
-6.45

>  <cluster_rmsd>  (15) 
1.39

>  <cluster>  (15) 
2

$$$$

     RDKit          3D

 54 57  0  0  0  0  0  0  0  0999 V2000
  137.8260   71.2360  220.9610 O   0  0  0  0  0  0  0  0  0  0  0  0
  138.2570   71.7680  222.0250 C   0  0  0  0  0  0  0  0  0  0  0  0
  138.2820   73.1940  222.1020 N   0  0  0  0  0  0  0  0  0  0  0  0
  137.8030   73.9140  220.9380 C   0  0  0  0  0  0  0  0  0  0  0  0
  138.8450   74.8200  220.3910 C   0  0  0  0  0  0  0  0  0  0  0  0
  139.4000   74.5800  219.2990 O   0  0  0  0  0  0  0  0  0  0  0  0
  139.2490   75.9890  221.0880 N   0  0  0  0  0  0  0  0  0  0  0  0
  138.3260   77.1040  221.0430 C   0  0  0  0  0  0  0  0  0  0  0  0
  138.1040   77.7810  222.3450 C   0  0  0  0  0  0  0  0  0  0  0  0
  139.1560   78.7310  222.7960 C   0  0  0  0  0  0  0  0  0  0  0  0
  140.5220   78.1950  222.9690 C   0  0  0  0  0  0  0  0  0  0  0  0
  141.1020   77.3310  221.9270 C   0  0  0  0  0  0  0  0  0  0  0  0
  140.5390   75.9680  221.7840 C   0  0  2  0  0  0  0  0  0  0  0  0
  141.4390   74.9470  221.2260 C   0  0  0  0  0  0  0  0  0  0  0  0
  141.2810   73.6410  221.6410 C   0  0  0  0  0  0  0  0  0  0  0  0
  142.1080   72.6430  221.1430 C   0  0  0  0  0  0  0  0  0  0  0  0
  143.1100   72.8980  220.2270 C   0  0  0  0  0  0  0  0  0  0  0  0
  144.1180   71.6070  219.6350 Cl  0  0  0  0  0  0  0  0  0  0  0  0
  143.2660   74.1970  219.8160 C   0  0  0  0  0  0  0  0  0  0  0  0
  142.4400   75.1930  220.3130 C   0  0  0  0  0  0  0  0  0  0  0  0
  138.7220   70.9730  223.1560 C   0  0  0  0  0  0  0  0  0  0  0  0
  138.4620   69.6060  223.1450 C   0  0  0  0  0  0  0  0  0  0  0  0
  138.9030   68.8520  224.2200 C   0  0  0  0  0  0  0  0  0  0  0  0
  139.5780   69.4870  225.2480 C   0  0  0  0  0  0  0  0  0  0  0  0
  140.0040   68.6860  226.3120 C   0  0  0  0  0  0  0  0  0  0  0  0
  140.6780   69.3090  227.3420 C   0  0  0  0  0  0  0  0  0  0  0  0
  141.2090   68.2890  228.6740 Cl  0  0  0  0  0  0  0  0  0  0  0  0
  140.9300   70.6770  227.3390 C   0  0  0  0  0  0  0  0  0  0  0  0
  140.5000   71.4470  226.2770 C   0  0  0  0  0  0  0  0  0  0  0  0
  139.8230   70.8460  225.2340 C   0  0  0  0  0  0  0  0  0  0  0  0
  139.3820   71.5610  224.1730 N   0  0  0  0  0  0  0  0  0  0  0  0
  138.6330   73.6600  222.9700 H   0  0  0  0  0  0  0  0  0  0  0  0
  137.5168   73.1888  220.1620 H   0  0  0  0  0  0  0  0  0  0  0  0
  136.9397   74.5245  221.2412 H   0  0  0  0  0  0  0  0  0  0  0  0
  138.7208   77.8467  220.3340 H   0  0  0  0  0  0  0  0  0  0  0  0
  137.3534   76.6889  220.7400 H   0  0  0  0  0  0  0  0  0  0  0  0
  137.1597   78.3405  222.2722 H   0  0  0  0  0  0  0  0  0  0  0  0
  138.1059   76.9740  223.0925 H   0  0  0  0  0  0  0  0  0  0  0  0
  139.2102   79.5412  222.0539 H   0  0  0  0  0  0  0  0  0  0  0  0
  138.8439   79.0413  223.8041 H   0  0  0  0  0  0  0  0  0  0  0  0
  141.1932   79.0598  223.0769 H   0  0  0  0  0  0  0  0  0  0  0  0
  140.4272   77.5243  223.8357 H   0  0  0  0  0  0  0  0  0  0  0  0
  140.9736   77.8445  220.9627 H   0  0  0  0  0  0  0  0  0  0  0  0
  142.1454   77.1745  222.2382 H   0  0  0  0  0  0  0  0  0  0  0  0
  140.3857   75.6388  222.8223 H   0  0  0  0  0  0  0  0  0  0  0  0
  140.4964   73.3891  222.3697 H   0  0  0  0  0  0  0  0  0  0  0  0
  141.9596   71.6101  221.4911 H   0  0  0  0  0  0  0  0  0  0  0  0
  144.0509   74.4499  219.0880 H   0  0  0  0  0  0  0  0  0  0  0  0
  142.5907   76.2248  219.9628 H   0  0  0  0  0  0  0  0  0  0  0  0
  137.9227   69.1384  222.3081 H   0  0  0  0  0  0  0  0  0  0  0  0
  138.7200   67.7679  224.2560 H   0  0  0  0  0  0  0  0  0  0  0  0
  139.8097   67.6034  226.3272 H   0  0  0  0  0  0  0  0  0  0  0  0
  141.4686   71.1423  228.1777 H   0  0  0  0  0  0  0  0  0  0  0  0
  140.6948   72.5295  226.2616 H   0  0  0  0  0  0  0  0  0  0  0  0
  1  2  2  0
  2  3  1  0
  3  4  1  0
  4  5  1  0
  5  6  2  0
  5  7  1  0
  7  8  1  0
  8  9  1  0
  9 10  1  0
 10 11  1  0
 11 12  1  0
 12 13  1  0
 13 14  1  0
 14 15  2  0
 15 16  1  0
 16 17  2  0
 17 18  1  0
 17 19  1  0
 19 20  2  0
  2 21  1  0
 21 22  2  0
 22 23  1  0
 23 24  2  0
 24 25  1  0
 25 26  2  0
 26 27  1  0
 26 28  1  0
 28 29  2  0
 29 30  1  0
 30 31  2  0
 13  7  1  0
 20 14  1  0
 31 21  1  0
 30 24  1  0
  3 32  1  0
  4 33  1  0
  4 34  1  0
  8 35  1  0
  8 36  1  0
  9 37  1  0
  9 38  1  0
 10 39  1  0
 10 40  1  0
 11 41  1  0
 11 42  1  0
 12 43  1  0
 12 44  1  0
 13 45  1  1
 15 46  1  0
 16 47  1  0
 19 48  1  0
 20 49  1  0
 22 50  1  0
 23 51  1  0
 25 52  1  0
 28 53  1  0
 29 54  1  0
M  END
>  <smiles>  (16) 
O=C(NCC(=O)N1CCCCCC1c1ccc(Cl)cc1)c1ccc2cc(Cl)ccc2n1

>  <score_type>  (16) 
oracle

>  <origin>  (16) 
autodockgpu

>  <m_score__min__energy>  (16) 
-6.9299999999999997

>  <m_primary>  (16) 
energy

>  <rmsd>  (16) 
2.576758796872314

>  <m_score__min__rmsd>  (16) 
2.576758796872314

>  <meeko>  (16) 
{"free_energy": -5.97, "intermolecular_energy": -9.25, "internal_energy": -2.14, "cluster_size": 13, "cluster_id": 1, "rank_in_cluster": 7}

>  <energy>  (16) 
-6.34

>  <cluster_rmsd>  (16) 
1.31

>  <cluster>  (16) 
2

$$$$

     RDKit          3D

 54 57  0  0  0  0  0  0  0  0999 V2000
  138.6770   71.3640  220.7550 O   0  0  0  0  0  0  0  0  0  0  0  0
  138.7360   71.8440  221.9240 C   0  0  0  0  0  0  0  0  0  0  0  0
  138.4200   73.2260  222.1000 N   0  0  0  0  0  0  0  0  0  0  0  0
  138.0570   73.9650  220.9070 C   0  0  0  0  0  0  0  0  0  0  0  0
  138.8700   75.1990  220.7610 C   0  0  0  0  0  0  0  0  0  0  0  0
  139.2380   75.6000  219.6380 O   0  0  0  0  0  0  0  0  0  0  0  0
  139.2570   75.9670  221.8910 N   0  0  0  0  0  0  0  0  0  0  0  0
  138.1780   76.4880  222.7040 C   0  0  0  0  0  0  0  0  0  0  0  0
  137.7700   77.8790  222.3790 C   0  0  0  0  0  0  0  0  0  0  0  0
  138.8550   78.8270  222.0120 C   0  0  0  0  0  0  0  0  0  0  0  0
  140.1890   78.5890  222.5990 C   0  0  0  0  0  0  0  0  0  0  0  0
  141.0780   77.5840  221.9970 C   0  0  0  0  0  0  0  0  0  0  0  0
  140.6900   76.1610  222.1360 C   0  0  2  0  0  0  0  0  0  0  0  0
  141.5040   75.1880  221.3910 C   0  0  0  0  0  0  0  0  0  0  0  0
  142.3660   75.6620  220.4250 C   0  0  0  0  0  0  0  0  0  0  0  0
  143.1540   74.7810  219.6950 C   0  0  0  0  0  0  0  0  0  0  0  0
  143.1170   73.4150  219.8940 C   0  0  0  0  0  0  0  0  0  0  0  0
  144.1270   72.3560  218.9500 Cl  0  0  0  0  0  0  0  0  0  0  0  0
  142.2590   72.9450  220.8550 C   0  0  0  0  0  0  0  0  0  0  0  0
  141.4730   73.8250  221.5830 C   0  0  0  0  0  0  0  0  0  0  0  0
  139.1100   71.0330  223.0770 C   0  0  0  0  0  0  0  0  0  0  0  0
  138.8270   69.6700  223.0370 C   0  0  0  0  0  0  0  0  0  0  0  0
  139.1830   68.9020  224.1330 C   0  0  0  0  0  0  0  0  0  0  0  0
  139.8000   69.5170  225.2080 C   0  0  0  0  0  0  0  0  0  0  0  0
  140.1400   68.7010  226.2920 C   0  0  0  0  0  0  0  0  0  0  0  0
  140.7560   69.3040  227.3690 C   0  0  0  0  0  0  0  0  0  0  0  0
  141.1790   68.2670  228.7240 Cl  0  0  0  0  0  0  0  0  0  0  0  0
  141.0320   70.6680  227.3930 C   0  0  0  0  0  0  0  0  0  0  0  0
  140.6860   71.4530  226.3120 C   0  0  0  0  0  0  0  0  0  0  0  0
  140.0690   70.8720  225.2220 C   0  0  0  0  0  0  0  0  0  0  0  0
  139.7120   71.6020  224.1400 N   0  0  0  0  0  0  0  0  0  0  0  0
  138.4610   73.6480  223.0560 H   0  0  0  0  0  0  0  0  0  0  0  0
  138.2186   73.3247  220.0273 H   0  0  0  0  0  0  0  0  0  0  0  0
  136.9998   74.2569  220.9910 H   0  0  0  0  0  0  0  0  0  0  0  0
  137.3030   75.8347  222.5712 H   0  0  0  0  0  0  0  0  0  0  0  0
  138.5511   76.5080  223.7386 H   0  0  0  0  0  0  0  0  0  0  0  0
  137.0693   77.8312  221.5324 H   0  0  0  0  0  0  0  0  0  0  0  0
  137.3413   78.2784  223.3100 H   0  0  0  0  0  0  0  0  0  0  0  0
  138.9650   78.7959  220.9179 H   0  0  0  0  0  0  0  0  0  0  0  0
  138.5345   79.7960  222.4223 H   0  0  0  0  0  0  0  0  0  0  0  0
  140.7262   79.5485  222.5713 H   0  0  0  0  0  0  0  0  0  0  0  0
  139.9630   78.1715  223.5913 H   0  0  0  0  0  0  0  0  0  0  0  0
  141.1448   77.8044  220.9214 H   0  0  0  0  0  0  0  0  0  0  0  0
  142.0226   77.6740  222.5535 H   0  0  0  0  0  0  0  0  0  0  0  0
  140.9121   75.9320  223.1887 H   0  0  0  0  0  0  0  0  0  0  0  0
  142.4301   76.7429  220.2314 H   0  0  0  0  0  0  0  0  0  0  0  0
  143.8326   75.1866  218.9301 H   0  0  0  0  0  0  0  0  0  0  0  0
  142.1941   71.8642  221.0492 H   0  0  0  0  0  0  0  0  0  0  0  0
  140.7953   73.4165  222.3471 H   0  0  0  0  0  0  0  0  0  0  0  0
  138.3362   69.2178  222.1626 H   0  0  0  0  0  0  0  0  0  0  0  0
  138.9787   67.8213  224.1487 H   0  0  0  0  0  0  0  0  0  0  0  0
  139.9249   67.6222  226.2859 H   0  0  0  0  0  0  0  0  0  0  0  0
  141.5231   71.1177  228.2686 H   0  0  0  0  0  0  0  0  0  0  0  0
  140.8999   72.5320  226.3187 H   0  0  0  0  0  0  0  0  0  0  0  0
  1  2  2  0
  2  3  1  0
  3  4  1  0
  4  5  1  0
  5  6  2  0
  5  7  1  0
  7  8  1  0
  8  9  1  0
  9 10  1  0
 10 11  1  0
 11 12  1  0
 12 13  1  0
 13 14  1  0
 14 15  2  0
 15 16  1  0
 16 17  2  0
 17 18  1  0
 17 19  1  0
 19 20  2  0
  2 21  1  0
 21 22  2  0
 22 23  1  0
 23 24  2  0
 24 25  1  0
 25 26  2  0
 26 27  1  0
 26 28  1  0
 28 29  2  0
 29 30  1  0
 30 31  2  0
 13  7  1  0
 20 14  1  0
 31 21  1  0
 30 24  1  0
  3 32  1  0
  4 33  1  0
  4 34  1  0
  8 35  1  0
  8 36  1  0
  9 37  1  0
  9 38  1  0
 10 39  1  0
 10 40  1  0
 11 41  1  0
 11 42  1  0
 12 43  1  0
 12 44  1  0
 13 45  1  1
 15 46  1  0
 16 47  1  0
 19 48  1  0
 20 49  1  0
 22 50  1  0
 23 51  1  0
 25 52  1  0
 28 53  1  0
 29 54  1  0
M  END
>  <smiles>  (17) 
O=C(NCC(=O)N1CCCCCC1c1ccc(Cl)cc1)c1ccc2cc(Cl)ccc2n1

>  <score_type>  (17) 
oracle

>  <origin>  (17) 
autodockgpu

>  <m_score__min__energy>  (17) 
-6.9299999999999997

>  <m_primary>  (17) 
energy

>  <rmsd>  (17) 
2.7073773386057716

>  <m_score__min__rmsd>  (17) 
2.7073773386057716

>  <meeko>  (17) 
{"free_energy": -6.11, "intermolecular_energy": -9.4, "internal_energy": -2.25, "cluster_size": 13, "cluster_id": 1, "rank_in_cluster": 5}

>  <energy>  (17) 
-6.3

>  <cluster_rmsd>  (17) 
1.51

>  <cluster>  (17) 
2

$$$$

     RDKit          3D

 54 57  0  0  0  0  0  0  0  0999 V2000
  138.8180   72.0930  221.0960 O   0  0  0  0  0  0  0  0  0  0  0  0
  139.6230   72.3160  222.0460 C   0  0  0  0  0  0  0  0  0  0  0  0
  140.4390   73.4870  221.9760 N   0  0  0  0  0  0  0  0  0  0  0  0
  140.2690   74.3250  220.8040 C   0  0  0  0  0  0  0  0  0  0  0  0
  141.0270   75.5960  220.9290 C   0  0  0  0  0  0  0  0  0  0  0  0
  141.4060   76.0140  222.0430 O   0  0  0  0  0  0  0  0  0  0  0  0
  141.3470   76.3800  219.7910 N   0  0  0  0  0  0  0  0  0  0  0  0
  140.2260   76.9770  219.0950 C   0  0  0  0  0  0  0  0  0  0  0  0
  139.9920   76.4510  217.7270 C   0  0  0  0  0  0  0  0  0  0  0  0
  140.9300   76.9000  216.6650 C   0  0  0  0  0  0  0  0  0  0  0  0
  142.3760   76.7750  216.9430 C   0  0  0  0  0  0  0  0  0  0  0  0
  142.9250   77.3280  218.1920 C   0  0  0  0  0  0  0  0  0  0  0  0
  142.7600   76.5210  219.4230 C   0  0  2  0  0  0  0  0  0  0  0  0
  143.4580   75.2260  219.4510 C   0  0  0  0  0  0  0  0  0  0  0  0
  143.1010   74.2720  218.5200 C   0  0  0  0  0  0  0  0  0  0  0  0
  143.7310   73.0340  218.5080 C   0  0  0  0  0  0  0  0  0  0  0  0
  144.7260   72.7000  219.4060 C   0  0  0  0  0  0  0  0  0  0  0  0
  145.4830   71.1340  219.3450 Cl  0  0  0  0  0  0  0  0  0  0  0  0
  145.0790   73.6490  220.3310 C   0  0  0  0  0  0  0  0  0  0  0  0
  144.4500   74.8850  220.3420 C   0  0  0  0  0  0  0  0  0  0  0  0
  139.7350   71.4230  223.1930 C   0  0  0  0  0  0  0  0  0  0  0  0
  139.2580   70.1220  223.0580 C   0  0  0  0  0  0  0  0  0  0  0  0
  139.3650   69.2750  224.1480 C   0  0  0  0  0  0  0  0  0  0  0  0
  139.9370   69.7550  225.3130 C   0  0  0  0  0  0  0  0  0  0  0  0
  140.0230   68.8630  226.3870 C   0  0  0  0  0  0  0  0  0  0  0  0
  140.5930   69.3310  227.5540 C   0  0  0  0  0  0  0  0  0  0  0  0
  140.6950   68.2000  228.8960 Cl  0  0  0  0  0  0  0  0  0  0  0  0
  141.0650   70.6350  227.6730 C   0  0  0  0  0  0  0  0  0  0  0  0
  140.9690   71.4960  226.5990 C   0  0  0  0  0  0  0  0  0  0  0  0
  140.4030   71.0500  225.4210 C   0  0  0  0  0  0  0  0  0  0  0  0
  140.2870   71.8590  224.3420 N   0  0  0  0  0  0  0  0  0  0  0  0
  141.1130   73.6950  222.7470 H   0  0  0  0  0  0  0  0  0  0  0  0
  140.6292   73.7795  219.9193 H   0  0  0  0  0  0  0  0  0  0  0  0
  139.2008   74.5685  220.7059 H   0  0  0  0  0  0  0  0  0  0  0  0
  139.3186   76.7979  219.6905 H   0  0  0  0  0  0  0  0  0  0  0  0
  140.4655   78.0444  218.9799 H   0  0  0  0  0  0  0  0  0  0  0  0
  140.0488   75.3537  217.7785 H   0  0  0  0  0  0  0  0  0  0  0  0
  139.0105   76.8493  217.4303 H   0  0  0  0  0  0  0  0  0  0  0  0
  140.7145   76.3097  215.7622 H   0  0  0  0  0  0  0  0  0  0  0  0
  140.7525   77.9813  216.5691 H   0  0  0  0  0  0  0  0  0  0  0  0
  142.6108   75.7004  216.9386 H   0  0  0  0  0  0  0  0  0  0  0  0
  142.8434   77.3910  216.1606 H   0  0  0  0  0  0  0  0  0  0  0  0
  144.0036   77.4811  218.0395 H   0  0  0  0  0  0  0  0  0  0  0  0
  142.3435   78.2437  218.3748 H   0  0  0  0  0  0  0  0  0  0  0  0
  143.2776   77.1125  220.1925 H   0  0  0  0  0  0  0  0  0  0  0  0
  142.3139   74.4929  217.7840 H   0  0  0  0  0  0  0  0  0  0  0  0
  143.4262   72.2920  217.7553 H   0  0  0  0  0  0  0  0  0  0  0  0
  145.8652   73.4287  221.0681 H   0  0  0  0  0  0  0  0  0  0  0  0
  144.7573   75.6250  221.0956 H   0  0  0  0  0  0  0  0  0  0  0  0
  138.8099   69.7776  222.1143 H   0  0  0  0  0  0  0  0  0  0  0  0
  139.0016   68.2384  224.0889 H   0  0  0  0  0  0  0  0  0  0  0  0
  139.6516   67.8308  226.3051 H   0  0  0  0  0  0  0  0  0  0  0  0
  141.5121   70.9773  228.6180 H   0  0  0  0  0  0  0  0  0  0  0  0
  141.3400   72.5283  226.6804 H   0  0  0  0  0  0  0  0  0  0  0  0
  1  2  2  0
  2  3  1  0
  3  4  1  0
  4  5  1  0
  5  6  2  0
  5  7  1  0
  7  8  1  0
  8  9  1  0
  9 10  1  0
 10 11  1  0
 11 12  1  0
 12 13  1  0
 13 14  1  0
 14 15  2  0
 15 16  1  0
 16 17  2  0
 17 18  1  0
 17 19  1  0
 19 20  2  0
  2 21  1  0
 21 22  2  0
 22 23  1  0
 23 24  2  0
 24 25  1  0
 25 26  2  0
 26 27  1  0
 26 28  1  0
 28 29  2  0
 29 30  1  0
 30 31  2  0
 13  7  1  0
 20 14  1  0
 31 21  1  0
 30 24  1  0
  3 32  1  0
  4 33  1  0
  4 34  1  0
  8 35  1  0
  8 36  1  0
  9 37  1  0
  9 38  1  0
 10 39  1  0
 10 40  1  0
 11 41  1  0
 11 42  1  0
 12 43  1  0
 12 44  1  0
 13 45  1  1
 15 46  1  0
 16 47  1  0
 19 48  1  0
 20 49  1  0
 22 50  1  0
 23 51  1  0
 25 52  1  0
 28 53  1  0
 29 54  1  0
M  END
>  <smiles>  (18) 
O=C(NCC(=O)N1CCCCCC1c1ccc(Cl)cc1)c1ccc2cc(Cl)ccc2n1

>  <score_type>  (18) 
oracle

>  <origin>  (18) 
autodockgpu

>  <m_score__min__energy>  (18) 
-6.9299999999999997

>  <m_primary>  (18) 
energy

>  <rmsd>  (18) 
1.817064795324946

>  <m_score__min__rmsd>  (18) 
1.817064795324946

>  <meeko>  (18) 
{"free_energy": -5.8, "intermolecular_energy": -9.09, "internal_energy": -2.19, "cluster_size": 6, "cluster_id": 5, "rank_in_cluster": 2}

>  <energy>  (18) 
-6.15

>  <cluster_rmsd>  (18) 
0.19

>  <cluster>  (18) 
2

$$$$

     RDKit          3D

 54 57  0  0  0  0  0  0  0  0999 V2000
  138.4300   73.8930  220.2960 O   0  0  0  0  0  0  0  0  0  0  0  0
  138.3630   74.5000  221.4040 C   0  0  0  0  0  0  0  0  0  0  0  0
  137.4190   74.0340  222.3700 N   0  0  0  0  0  0  0  0  0  0  0  0
  136.6110   72.8920  221.9870 C   0  0  0  0  0  0  0  0  0  0  0  0
  137.1870   71.6220  222.4980 C   0  0  0  0  0  0  0  0  0  0  0  0
  136.4820   70.7970  223.1150 O   0  0  0  0  0  0  0  0  0  0  0  0
  138.5550   71.3000  222.3040 N   0  0  0  0  0  0  0  0  0  0  0  0
  138.8410   70.3630  221.2370 C   0  0  0  0  0  0  0  0  0  0  0  0
  139.5940   70.9360  220.0920 C   0  0  0  0  0  0  0  0  0  0  0  0
  141.0530   71.1470  220.2870 C   0  0  0  0  0  0  0  0  0  0  0  0
  141.5020   71.5690  221.6300 C   0  0  0  0  0  0  0  0  0  0  0  0
  140.6720   72.5040  222.4090 C   0  0  0  0  0  0  0  0  0  0  0  0
  139.5450   71.9310  223.1810 C   0  0  2  0  0  0  0  0  0  0  0  0
  139.9070   71.0570  224.3080 C   0  0  0  0  0  0  0  0  0  0  0  0
  139.3860   69.7800  224.3360 C   0  0  0  0  0  0  0  0  0  0  0  0
  139.6970   68.9190  225.3810 C   0  0  0  0  0  0  0  0  0  0  0  0
  140.5260   69.2860  226.4230 C   0  0  0  0  0  0  0  0  0  0  0  0
  140.8840   68.1660  227.7060 Cl  0  0  0  0  0  0  0  0  0  0  0  0
  141.0430   70.5560  226.3930 C   0  0  0  0  0  0  0  0  0  0  0  0
  140.7320   71.4160  225.3500 C   0  0  0  0  0  0  0  0  0  0  0  0
  139.2120   75.6440  221.7140 C   0  0  0  0  0  0  0  0  0  0  0  0
  140.5190   75.6370  221.2340 C   0  0  0  0  0  0  0  0  0  0  0  0
  141.3240   76.7240  221.5290 C   0  0  0  0  0  0  0  0  0  0  0  0
  140.7990   77.7600  222.2830 C   0  0  0  0  0  0  0  0  0  0  0  0
  141.6490   78.8350  222.5560 C   0  0  0  0  0  0  0  0  0  0  0  0
  141.1350   79.8740  223.3060 C   0  0  0  0  0  0  0  0  0  0  0  0
  142.2150   81.2200  223.6420 Cl  0  0  0  0  0  0  0  0  0  0  0  0
  139.8270   79.8650  223.7790 C   0  0  0  0  0  0  0  0  0  0  0  0
  139.0060   78.7920  223.4950 C   0  0  0  0  0  0  0  0  0  0  0  0
  139.4980   77.7410  222.7470 C   0  0  0  0  0  0  0  0  0  0  0  0
  138.7310   76.6680  222.4450 N   0  0  0  0  0  0  0  0  0  0  0  0
  137.3420   74.5170  223.2930 H   0  0  0  0  0  0  0  0  0  0  0  0
  135.5985   73.0164  222.3985 H   0  0  0  0  0  0  0  0  0  0  0  0
  136.5837   72.8413  220.8885 H   0  0  0  0  0  0  0  0  0  0  0  0
  139.4328   69.5362  221.6567 H   0  0  0  0  0  0  0  0  0  0  0  0
  137.8679   70.0404  220.8382 H   0  0  0  0  0  0  0  0  0  0  0  0
  139.4675   70.2558  219.2368 H   0  0  0  0  0  0  0  0  0  0  0  0
  139.1746   71.9425  219.9466 H   0  0  0  0  0  0  0  0  0  0  0  0
  141.5585   70.1987  220.0522 H   0  0  0  0  0  0  0  0  0  0  0  0
  141.3080   71.9885  219.6260 H   0  0  0  0  0  0  0  0  0  0  0  0
  141.6088   70.6558  222.2339 H   0  0  0  0  0  0  0  0  0  0  0  0
  142.4193   72.1419  221.4289 H   0  0  0  0  0  0  0  0  0  0  0  0
  141.3336   73.0177  223.1221 H   0  0  0  0  0  0  0  0  0  0  0  0
  140.1985   73.1538  221.6583 H   0  0  0  0  0  0  0  0  0  0  0  0
  139.0901   72.8069  223.6667 H   0  0  0  0  0  0  0  0  0  0  0  0
  138.7214   69.4419  223.5273 H   0  0  0  0  0  0  0  0  0  0  0  0
  139.2667   67.9066  225.3784 H   0  0  0  0  0  0  0  0  0  0  0  0
  141.7083   70.8946  227.2009 H   0  0  0  0  0  0  0  0  0  0  0  0
  141.1630   72.4280  225.3557 H   0  0  0  0  0  0  0  0  0  0  0  0
  140.9001   74.7940  220.6389 H   0  0  0  0  0  0  0  0  0  0  0  0
  142.3632   76.7640  221.1705 H   0  0  0  0  0  0  0  0  0  0  0  0
  142.6856   78.8527  222.1883 H   0  0  0  0  0  0  0  0  0  0  0  0
  139.4489   80.7080  224.3760 H   0  0  0  0  0  0  0  0  0  0  0  0
  137.9690   78.7746  223.8614 H   0  0  0  0  0  0  0  0  0  0  0  0
  1  2  2  0
  2  3  1  0
  3  4  1  0
  4  5  1  0
  5  6  2  0
  5  7  1  0
  7  8  1  0
  8  9  1  0
  9 10  1  0
 10 11  1  0
 11 12  1  0
 12 13  1  0
 13 14  1  0
 14 15  2  0
 15 16  1  0
 16 17  2  0
 17 18  1  0
 17 19  1  0
 19 20  2  0
  2 21  1  0
 21 22  2  0
 22 23  1  0
 23 24  2  0
 24 25  1  0
 25 26  2  0
 26 27  1  0
 26 28  1  0
 28 29  2  0
 29 30  1  0
 30 31  2  0
 13  7  1  0
 20 14  1  0
 31 21  1  0
 30 24  1  0
  3 32  1  0
  4 33  1  0
  4 34  1  0
  8 35  1  0
  8 36  1  0
  9 37  1  0
  9 38  1  0
 10 39  1  0
 10 40  1  0
 11 41  1  0
 11 42  1  0
 12 43  1  0
 12 44  1  0
 13 45  1  1
 15 46  1  0
 16 47  1  0
 19 48  1  0
 20 49  1  0
 22 50  1  0
 23 51  1  0
 25 52  1  0
 28 53  1  0
 29 54  1  0
M  END
>  <smiles>  (19) 
O=C(NCC(=O)N1CCCCCC1c1ccc(Cl)cc1)c1ccc2cc(Cl)ccc2n1

>  <score_type>  (19) 
oracle

>  <origin>  (19) 
autodockgpu

>  <m_score__min__energy>  (19) 
-6.9299999999999997

>  <m_primary>  (19) 
energy

>  <rmsd>  (19) 
6.983386544791502

>  <m_score__min__rmsd>  (19) 
6.983386544791502

>  <meeko>  (19) 
{"free_energy": -5.72, "intermolecular_energy": -9.0, "internal_energy": -2.4, "cluster_size": 1, "cluster_id": 9, "rank_in_cluster": 1}

>  <energy>  (19) 
-6.15

>  <cluster_rmsd>  (19) 
1.35

>  <cluster>  (19) 
2

$$$$

     RDKit          3D

 54 57  0  0  0  0  0  0  0  0999 V2000
  138.4020   71.0780  221.6480 O   0  0  0  0  0  0  0  0  0  0  0  0
  139.0030   71.7880  222.5040 C   0  0  0  0  0  0  0  0  0  0  0  0
  139.1320   73.1880  222.2470 N   0  0  0  0  0  0  0  0  0  0  0  0
  138.5530   73.6750  221.0100 C   0  0  0  0  0  0  0  0  0  0  0  0
  138.8090   75.1250  220.8220 C   0  0  0  0  0  0  0  0  0  0  0  0
  138.7240   75.6550  219.6950 O   0  0  0  0  0  0  0  0  0  0  0  0
  139.1600   75.9620  221.9140 N   0  0  0  0  0  0  0  0  0  0  0  0
  138.0550   76.5500  222.6430 C   0  0  0  0  0  0  0  0  0  0  0  0
  137.7300   77.9460  222.2580 C   0  0  0  0  0  0  0  0  0  0  0  0
  138.7780   78.9720  222.5020 C   0  0  0  0  0  0  0  0  0  0  0  0
  140.1590   78.6370  222.0970 C   0  0  0  0  0  0  0  0  0  0  0  0
  140.8510   77.5100  222.7420 C   0  0  0  0  0  0  0  0  0  0  0  0
  140.5830   76.1540  222.2090 C   0  0  2  0  0  0  0  0  0  0  0  0
  141.4320   75.7150  221.0900 C   0  0  0  0  0  0  0  0  0  0  0  0
  141.8750   74.4090  221.0800 C   0  0  0  0  0  0  0  0  0  0  0  0
  142.6800   73.9500  220.0450 C   0  0  0  0  0  0  0  0  0  0  0  0
  143.0700   74.7570  218.9950 C   0  0  0  0  0  0  0  0  0  0  0  0
  144.0790   74.1290  217.7230 Cl  0  0  0  0  0  0  0  0  0  0  0  0
  142.6290   76.0560  219.0060 C   0  0  0  0  0  0  0  0  0  0  0  0
  141.8250   76.5140  220.0400 C   0  0  0  0  0  0  0  0  0  0  0  0
  139.5590   71.2220  223.7280 C   0  0  0  0  0  0  0  0  0  0  0  0
  140.5290   71.9550  224.4060 C   0  0  0  0  0  0  0  0  0  0  0  0
  141.0550   71.4170  225.5680 C   0  0  0  0  0  0  0  0  0  0  0  0
  140.5970   70.1840  226.0000 C   0  0  0  0  0  0  0  0  0  0  0  0
  141.1580   69.6800  227.1780 C   0  0  0  0  0  0  0  0  0  0  0  0
  140.7080   68.4520  227.6180 C   0  0  0  0  0  0  0  0  0  0  0  0
  141.4220   67.8310  229.1000 Cl  0  0  0  0  0  0  0  0  0  0  0  0
  139.7380   67.7320  226.9290 C   0  0  0  0  0  0  0  0  0  0  0  0
  139.1990   68.2500  225.7690 C   0  0  0  0  0  0  0  0  0  0  0  0
  139.6330   69.4770  225.3090 C   0  0  0  0  0  0  0  0  0  0  0  0
  139.1340   70.0240  224.1760 N   0  0  0  0  0  0  0  0  0  0  0  0
  139.6240   73.7970  222.9390 H   0  0  0  0  0  0  0  0  0  0  0  0
  138.9938   73.1222  220.1673 H   0  0  0  0  0  0  0  0  0  0  0  0
  137.4649   73.5201  221.0544 H   0  0  0  0  0  0  0  0  0  0  0  0
  137.1625   75.9305  222.4705 H   0  0  0  0  0  0  0  0  0  0  0  0
  138.3621   76.5827  223.6988 H   0  0  0  0  0  0  0  0  0  0  0  0
  137.5052   77.9501  221.1812 H   0  0  0  0  0  0  0  0  0  0  0  0
  136.8897   78.2343  222.9066 H   0  0  0  0  0  0  0  0  0  0  0  0
  138.4845   79.8809  221.9564 H   0  0  0  0  0  0  0  0  0  0  0  0
  138.8214   79.0780  223.5960 H   0  0  0  0  0  0  0  0  0  0  0  0
  140.1325   78.4211  221.0187 H   0  0  0  0  0  0  0  0  0  0  0  0
  140.7413   79.5139  222.4163 H   0  0  0  0  0  0  0  0  0  0  0  0
  141.9323   77.6920  222.6540 H   0  0  0  0  0  0  0  0  0  0  0  0
  140.4623   77.4912  223.7709 H   0  0  0  0  0  0  0  0  0  0  0  0
  140.8749   75.4877  223.0341 H   0  0  0  0  0  0  0  0  0  0  0  0
  141.5897   73.7277  221.8952 H   0  0  0  0  0  0  0  0  0  0  0  0
  143.0195   72.9039  220.0628 H   0  0  0  0  0  0  0  0  0  0  0  0
  142.9141   76.7378  218.1912 H   0  0  0  0  0  0  0  0  0  0  0  0
  141.4871   77.5606  220.0199 H   0  0  0  0  0  0  0  0  0  0  0  0
  140.8672   72.9318  224.0299 H   0  0  0  0  0  0  0  0  0  0  0  0
  141.8234   71.9597  226.1381 H   0  0  0  0  0  0  0  0  0  0  0  0
  141.9266   70.2397  227.7311 H   0  0  0  0  0  0  0  0  0  0  0  0
  139.4022   66.7549  227.3066 H   0  0  0  0  0  0  0  0  0  0  0  0
  138.4305   67.6902  225.2159 H   0  0  0  0  0  0  0  0  0  0  0  0
  1  2  2  0
  2  3  1  0
  3  4  1  0
  4  5  1  0
  5  6  2  0
  5  7  1  0
  7  8  1  0
  8  9  1  0
  9 10  1  0
 10 11  1  0
 11 12  1  0
 12 13  1  0
 13 14  1  0
 14 15  2  0
 15 16  1  0
 16 17  2  0
 17 18  1  0
 17 19  1  0
 19 20  2  0
  2 21  1  0
 21 22  2  0
 22 23  1  0
 23 24  2  0
 24 25  1  0
 25 26  2  0
 26 27  1  0
 26 28  1  0
 28 29  2  0
 29 30  1  0
 30 31  2  0
 13  7  1  0
 20 14  1  0
 31 21  1  0
 30 24  1  0
  3 32  1  0
  4 33  1  0
  4 34  1  0
  8 35  1  0
  8 36  1  0
  9 37  1  0
  9 38  1  0
 10 39  1  0
 10 40  1  0
 11 41  1  0
 11 42  1  0
 12 43  1  0
 12 44  1  0
 13 45  1  1
 15 46  1  0
 16 47  1  0
 19 48  1  0
 20 49  1  0
 22 50  1  0
 23 51  1  0
 25 52  1  0
 28 53  1  0
 29 54  1  0
M  END
>  <smiles>  (20) 
O=C(NCC(=O)N1CCCCCC1c1ccc(Cl)cc1)c1ccc2cc(Cl)ccc2n1

>  <score_type>  (20) 
oracle

>  <origin>  (20) 
autodockgpu

>  <m_score__min__energy>  (20) 
-6.9299999999999997

>  <m_primary>  (20) 
energy

>  <rmsd>  (20) 
3.6105049670510696

>  <m_score__min__rmsd>  (20) 
3.6105049670510696

>  <meeko>  (20) 
{"free_energy": -6.09, "intermolecular_energy": -9.37, "internal_energy": -1.89, "cluster_size": 13, "cluster_id": 1, "rank_in_cluster": 6}

>  <energy>  (20) 
-5.84

>  <cluster_rmsd>  (20) 
1.28

>  <cluster>  (20) 
2

$$$$

     RDKit          3D

 54 57  0  0  0  0  0  0  0  0999 V2000
  137.2280   72.2650  221.0940 O   0  0  0  0  0  0  0  0  0  0  0  0
  138.0680   72.5580  221.9940 C   0  0  0  0  0  0  0  0  0  0  0  0
  138.6320   73.8710  221.9860 N   0  0  0  0  0  0  0  0  0  0  0  0
  138.1850   74.7610  220.9330 C   0  0  0  0  0  0  0  0  0  0  0  0
  138.9490   74.5470  219.6770 C   0  0  0  0  0  0  0  0  0  0  0  0
  138.4720   74.8700  218.5690 O   0  0  0  0  0  0  0  0  0  0  0  0
  140.2440   73.9680  219.6890 N   0  0  0  0  0  0  0  0  0  0  0  0
  140.2950   72.5300  219.8610 C   0  0  0  0  0  0  0  0  0  0  0  0
  140.9740   72.0760  221.1010 C   0  0  0  0  0  0  0  0  0  0  0  0
  142.4600   72.1390  221.1140 C   0  0  0  0  0  0  0  0  0  0  0  0
  143.0860   73.4220  220.7360 C   0  0  0  0  0  0  0  0  0  0  0  0
  142.6710   74.0950  219.4940 C   0  0  0  0  0  0  0  0  0  0  0  0
  141.4000   74.8550  219.5270 C   0  0  2  0  0  0  0  0  0  0  0  0
  141.3450   75.9920  220.4600 C   0  0  0  0  0  0  0  0  0  0  0  0
  141.0740   75.7340  221.7880 C   0  0  0  0  0  0  0  0  0  0  0  0
  141.0100   76.7750  222.7050 C   0  0  0  0  0  0  0  0  0  0  0  0
  141.2110   78.0930  222.3460 C   0  0  0  0  0  0  0  0  0  0  0  0
  141.1210   79.3590  223.5380 Cl  0  0  0  0  0  0  0  0  0  0  0  0
  141.4800   78.3480  221.0250 C   0  0  0  0  0  0  0  0  0  0  0  0
  141.5440   77.3080  220.1100 C   0  0  0  0  0  0  0  0  0  0  0  0
  138.4670   71.6040  223.0220 C   0  0  0  0  0  0  0  0  0  0  0  0
  137.7700   70.4020  223.1050 C   0  0  0  0  0  0  0  0  0  0  0  0
  138.1500   69.4980  224.0820 C   0  0  0  0  0  0  0  0  0  0  0  0
  139.1970   69.8260  224.9250 C   0  0  0  0  0  0  0  0  0  0  0  0
  139.5450   68.8810  225.8960 C   0  0  0  0  0  0  0  0  0  0  0  0
  140.5890   69.1980  226.7410 C   0  0  0  0  0  0  0  0  0  0  0  0
  141.0160   68.0010  227.9580 Cl  0  0  0  0  0  0  0  0  0  0  0  0
  141.2760   70.4040  226.6460 C   0  0  0  0  0  0  0  0  0  0  0  0
  140.9140   71.3200  225.6790 C   0  0  0  0  0  0  0  0  0  0  0  0
  139.8730   71.0250  224.8210 C   0  0  0  0  0  0  0  0  0  0  0  0
  139.4830   71.8940  223.8590 N   0  0  0  0  0  0  0  0  0  0  0  0
  139.3290   74.1390  222.7180 H   0  0  0  0  0  0  0  0  0  0  0  0
  137.1183   74.5764  220.7381 H   0  0  0  0  0  0  0  0  0  0  0  0
  138.3496   75.7969  221.2643 H   0  0  0  0  0  0  0  0  0  0  0  0
  139.2627   72.1503  219.8772 H   0  0  0  0  0  0  0  0  0  0  0  0
  140.8879   72.1380  219.0214 H   0  0  0  0  0  0  0  0  0  0  0  0
  140.6073   72.7006  221.9289 H   0  0  0  0  0  0  0  0  0  0  0  0
  140.7307   71.0067  221.1871 H   0  0  0  0  0  0  0  0  0  0  0  0
  142.7922   71.8970  222.1343 H   0  0  0  0  0  0  0  0  0  0  0  0
  142.7800   71.4286  220.3375 H   0  0  0  0  0  0  0  0  0  0  0  0
  142.8953   74.1256  221.5598 H   0  0  0  0  0  0  0  0  0  0  0  0
  144.1344   73.1502  220.5436 H   0  0  0  0  0  0  0  0  0  0  0  0
  143.4698   74.7984  219.2162 H   0  0  0  0  0  0  0  0  0  0  0  0
  142.4953   73.2806  218.7758 H   0  0  0  0  0  0  0  0  0  0  0  0
  141.3558   75.3295  218.5356 H   0  0  0  0  0  0  0  0  0  0  0  0
  140.9079   74.6992  222.1219 H   0  0  0  0  0  0  0  0  0  0  0  0
  140.7909   76.5407  223.7572 H   0  0  0  0  0  0  0  0  0  0  0  0
  141.6457   79.3826  220.6901 H   0  0  0  0  0  0  0  0  0  0  0  0
  141.7634   77.5452  219.0585 H   0  0  0  0  0  0  0  0  0  0  0  0
  136.9428   70.1774  222.4155 H   0  0  0  0  0  0  0  0  0  0  0  0
  137.6284   68.5352  224.1864 H   0  0  0  0  0  0  0  0  0  0  0  0
  139.0085   67.9246  225.9824 H   0  0  0  0  0  0  0  0  0  0  0  0
  142.1024   70.6262  227.3371 H   0  0  0  0  0  0  0  0  0  0  0  0
  141.4501   72.2766  225.5926 H   0  0  0  0  0  0  0  0  0  0  0  0
  1  2  2  0
  2  3  1  0
  3  4  1  0
  4  5  1  0
  5  6  2  0
  5  7  1  0
  7  8  1  0
  8  9  1  0
  9 10  1  0
 10 11  1  0
 11 12  1  0
 12 13  1  0
 13 14  1  0
 14 15  2  0
 15 16  1  0
 16 17  2  0
 17 18  1  0
 17 19  1  0
 19 20  2  0
  2 21  1  0
 21 22  2  0
 22 23  1  0
 23 24  2  0
 24 25  1  0
 25 26  2  0
 26 27  1  0
 26 28  1  0
 28 29  2  0
 29 30  1  0
 30 31  2  0
 13  7  1  0
 20 14  1  0
 31 21  1  0
 30 24  1  0
  3 32  1  0
  4 33  1  0
  4 34  1  0
  8 35  1  0
  8 36  1  0
  9 37  1  0
  9 38  1  0
 10 39  1  0
 10 40  1  0
 11 41  1  0
 11 42  1  0
 12 43  1  0
 12 44  1  0
 13 45  1  6
 15 46  1  0
 16 47  1  0
 19 48  1  0
 20 49  1  0
 22 50  1  0
 23 51  1  0
 25 52  1  0
 28 53  1  0
 29 54  1  0
M  END
>  <smiles>  (21) 
O=C(NCC(=O)N1CCCCCC1c1ccc(Cl)cc1)c1ccc2cc(Cl)ccc2n1

>  <score_type>  (21) 
oracle

>  <origin>  (21) 
autodockgpu

>  <m_score__min__energy>  (21) 
-6.9299999999999997

>  <m_primary>  (21) 
energy

>  <rmsd>  (21) 
2.5984507311465674

>  <m_score__min__rmsd>  (21) 
2.5984507311465674

>  <meeko>  (21) 
{"free_energy": -5.4, "intermolecular_energy": -8.68, "internal_energy": -2.42, "cluster_size": 11, "cluster_id": 2, "rank_in_cluster": 11}

>  <energy>  (21) 
-5.76

>  <cluster_rmsd>  (21) 
1.32

>  <cluster>  (21) 
2

$$$$

     RDKit          3D

 54 57  0  0  0  0  0  0  0  0999 V2000
  140.7050   72.2680  221.0570 O   0  0  0  0  0  0  0  0  0  0  0  0
  140.0140   72.4390  222.1030 C   0  0  0  0  0  0  0  0  0  0  0  0
  139.1570   73.5810  222.1630 N   0  0  0  0  0  0  0  0  0  0  0  0
  139.1570   74.4530  221.0040 C   0  0  0  0  0  0  0  0  0  0  0  0
  140.3840   75.2880  220.9510 C   0  0  0  0  0  0  0  0  0  0  0  0
  141.0010   75.5960  221.9910 O   0  0  0  0  0  0  0  0  0  0  0  0
  140.9000   75.7650  219.7180 N   0  0  0  0  0  0  0  0  0  0  0  0
  141.0800   74.7730  218.6780 C   0  0  0  0  0  0  0  0  0  0  0  0
  142.4490   74.2040  218.5920 C   0  0  0  0  0  0  0  0  0  0  0  0
  143.5810   75.1640  218.6750 C   0  0  0  0  0  0  0  0  0  0  0  0
  143.2960   76.5750  218.3460 C   0  0  0  0  0  0  0  0  0  0  0  0
  142.6380   77.4320  219.3430 C   0  0  0  0  0  0  0  0  0  0  0  0
  141.1990   77.1960  219.6010 C   0  0  2  0  0  0  0  0  0  0  0  0
  140.6000   77.9660  220.7020 C   0  0  0  0  0  0  0  0  0  0  0  0
  139.2430   78.2090  220.6650 C   0  0  0  0  0  0  0  0  0  0  0  0
  138.6330   78.9330  221.6820 C   0  0  0  0  0  0  0  0  0  0  0  0
  139.3360   79.4360  222.7590 C   0  0  0  0  0  0  0  0  0  0  0  0
  138.5200   80.3360  224.0060 Cl  0  0  0  0  0  0  0  0  0  0  0  0
  140.6850   79.1930  222.7940 C   0  0  0  0  0  0  0  0  0  0  0  0
  141.2940   78.4710  221.7790 C   0  0  0  0  0  0  0  0  0  0  0  0
  140.0700   71.5140  223.2290 C   0  0  0  0  0  0  0  0  0  0  0  0
  139.6170   70.2130  223.0290 C   0  0  0  0  0  0  0  0  0  0  0  0
  139.6700   69.3360  224.1000 C   0  0  0  0  0  0  0  0  0  0  0  0
  140.1670   69.7890  225.3100 C   0  0  0  0  0  0  0  0  0  0  0  0
  140.2010   68.8680  226.3610 C   0  0  0  0  0  0  0  0  0  0  0  0
  140.6960   69.3080  227.5720 C   0  0  0  0  0  0  0  0  0  0  0  0
  140.7330   68.1400  228.8860 Cl  0  0  0  0  0  0  0  0  0  0  0  0
  141.1450   70.6120  227.7550 C   0  0  0  0  0  0  0  0  0  0  0  0
  141.1010   71.5020  226.7020 C   0  0  0  0  0  0  0  0  0  0  0  0
  140.6110   71.0850  225.4810 C   0  0  0  0  0  0  0  0  0  0  0  0
  140.5480   71.9240  224.4200 N   0  0  0  0  0  0  0  0  0  0  0  0
  138.5760   73.7470  223.0160 H   0  0  0  0  0  0  0  0  0  0  0  0
  139.1038   73.8377  220.0938 H   0  0  0  0  0  0  0  0  0  0  0  0
  138.2870   75.1223  221.0757 H   0  0  0  0  0  0  0  0  0  0  0  0
  140.3774   73.9479  218.8665 H   0  0  0  0  0  0  0  0  0  0  0  0
  140.8975   75.2879  217.7232 H   0  0  0  0  0  0  0  0  0  0  0  0
  142.5623   73.4840  219.4159 H   0  0  0  0  0  0  0  0  0  0  0  0
  142.5160   73.7669  217.5848 H   0  0  0  0  0  0  0  0  0  0  0  0
  143.9638   75.1356  219.7059 H   0  0  0  0  0  0  0  0  0  0  0  0
  144.2913   74.8314  217.9038 H   0  0  0  0  0  0  0  0  0  0  0  0
  144.2591   77.0478  218.1034 H   0  0  0  0  0  0  0  0  0  0  0  0
  142.5559   76.5068  217.5351 H   0  0  0  0  0  0  0  0  0  0  0  0
  143.1704   77.2979  220.2962 H   0  0  0  0  0  0  0  0  0  0  0  0
  142.6851   78.4454  218.9178 H   0  0  0  0  0  0  0  0  0  0  0  0
  140.7045   77.5976  218.7042 H   0  0  0  0  0  0  0  0  0  0  0  0
  138.6410   77.8281  219.8268 H   0  0  0  0  0  0  0  0  0  0  0  0
  137.5491   79.1123  221.6272 H   0  0  0  0  0  0  0  0  0  0  0  0
  141.2875   79.5731  223.6322 H   0  0  0  0  0  0  0  0  0  0  0  0
  142.3781   78.2939  221.8365 H   0  0  0  0  0  0  0  0  0  0  0  0
  139.2291   69.8914  222.0512 H   0  0  0  0  0  0  0  0  0  0  0  0
  139.3232   68.2978  223.9909 H   0  0  0  0  0  0  0  0  0  0  0  0
  139.8477   67.8348  226.2284 H   0  0  0  0  0  0  0  0  0  0  0  0
  141.5328   70.9314  228.7336 H   0  0  0  0  0  0  0  0  0  0  0  0
  141.4535   72.5355  226.8344 H   0  0  0  0  0  0  0  0  0  0  0  0
  1  2  2  0
  2  3  1  0
  3  4  1  0
  4  5  1  0
  5  6  2  0
  5  7  1  0
  7  8  1  0
  8  9  1  0
  9 10  1  0
 10 11  1  0
 11 12  1  0
 12 13  1  0
 13 14  1  0
 14 15  2  0
 15 16  1  0
 16 17  2  0
 17 18  1  0
 17 19  1  0
 19 20  2  0
  2 21  1  0
 21 22  2  0
 22 23  1  0
 23 24  2  0
 24 25  1  0
 25 26  2  0
 26 27  1  0
 26 28  1  0
 28 29  2  0
 29 30  1  0
 30 31  2  0
 13  7  1  0
 20 14  1  0
 31 21  1  0
 30 24  1  0
  3 32  1  0
  4 33  1  0
  4 34  1  0
  8 35  1  0
  8 36  1  0
  9 37  1  0
  9 38  1  0
 10 39  1  0
 10 40  1  0
 11 41  1  0
 11 42  1  0
 12 43  1  0
 12 44  1  0
 13 45  1  6
 15 46  1  0
 16 47  1  0
 19 48  1  0
 20 49  1  0
 22 50  1  0
 23 51  1  0
 25 52  1  0
 28 53  1  0
 29 54  1  0
M  END
>  <smiles>  (22) 
O=C(NCC(=O)N1CCCCCC1c1ccc(Cl)cc1)c1ccc2cc(Cl)ccc2n1

>  <score_type>  (22) 
oracle

>  <origin>  (22) 
autodockgpu

>  <m_score__min__energy>  (22) 
-6.9299999999999997

>  <m_primary>  (22) 
energy

>  <rmsd>  (22) 
1.6647179396362568

>  <m_score__min__rmsd>  (22) 
1.6647179396362568

>  <meeko>  (22) 
{"free_energy": -6.18, "intermolecular_energy": -9.47, "internal_energy": -1.65, "cluster_size": 3, "cluster_id": 3, "rank_in_cluster": 1}

>  <energy>  (22) 
-5.56

>  <cluster_rmsd>  (22) 
1.69

>  <cluster>  (22) 
2

$$$$

     RDKit          3D

 54 57  0  0  0  0  0  0  0  0999 V2000
  139.4510   74.4860  222.0960 O   0  0  0  0  0  0  0  0  0  0  0  0
  140.6480   74.7290  221.7710 C   0  0  0  0  0  0  0  0  0  0  0  0
  141.1460   76.0530  221.9760 N   0  0  0  0  0  0  0  0  0  0  0  0
  140.2190   77.0120  222.5450 C   0  0  0  0  0  0  0  0  0  0  0  0
  140.1460   78.2500  221.7290 C   0  0  0  0  0  0  0  0  0  0  0  0
  139.1130   78.5430  221.0920 O   0  0  0  0  0  0  0  0  0  0  0  0
  141.2450   79.1440  221.6430 N   0  0  0  0  0  0  0  0  0  0  0  0
  141.6500   79.7730  222.8830 C   0  0  0  0  0  0  0  0  0  0  0  0
  141.5480   81.2540  222.8920 C   0  0  0  0  0  0  0  0  0  0  0  0
  140.7880   81.8810  221.7800 C   0  0  0  0  0  0  0  0  0  0  0  0
  141.3910   81.8240  220.4320 C   0  0  0  0  0  0  0  0  0  0  0  0
  141.3470   80.5690  219.6680 C   0  0  0  0  0  0  0  0  0  0  0  0
  141.8670   79.3510  220.3310 C   0  0  2  0  0  0  0  0  0  0  0  0
  141.8590   78.1180  219.5280 C   0  0  0  0  0  0  0  0  0  0  0  0
  140.7910   77.8960  218.6830 C   0  0  0  0  0  0  0  0  0  0  0  0
  140.7400   76.7460  217.9070 C   0  0  0  0  0  0  0  0  0  0  0  0
  141.7320   75.7850  217.9370 C   0  0  0  0  0  0  0  0  0  0  0  0
  141.6160   74.3620  216.9410 Cl  0  0  0  0  0  0  0  0  0  0  0  0
  142.7920   76.0070  218.7780 C   0  0  0  0  0  0  0  0  0  0  0  0
  142.8440   77.1560  219.5530 C   0  0  0  0  0  0  0  0  0  0  0  0
  141.5210   73.7080  221.2020 C   0  0  0  0  0  0  0  0  0  0  0  0
  140.9650   72.4670  220.9010 C   0  0  0  0  0  0  0  0  0  0  0  0
  141.7940   71.4990  220.3620 C   0  0  0  0  0  0  0  0  0  0  0  0
  143.1270   71.8040  220.1480 C   0  0  0  0  0  0  0  0  0  0  0  0
  143.9260   70.7940  219.6020 C   0  0  0  0  0  0  0  0  0  0  0  0
  145.2560   71.0880  219.3830 C   0  0  0  0  0  0  0  0  0  0  0  0
  146.2490   69.8100  218.6960 Cl  0  0  0  0  0  0  0  0  0  0  0  0
  145.7960   72.3340  219.6900 C   0  0  0  0  0  0  0  0  0  0  0  0
  144.9880   73.3140  220.2280 C   0  0  0  0  0  0  0  0  0  0  0  0
  143.6530   73.0430  220.4550 C   0  0  0  0  0  0  0  0  0  0  0  0
  142.8230   73.9740  220.9820 N   0  0  0  0  0  0  0  0  0  0  0  0
  142.1320   76.2810  221.7160 H   0  0  0  0  0  0  0  0  0  0  0  0
  139.2189   76.5566  222.5935 H   0  0  0  0  0  0  0  0  0  0  0  0
  140.5761   77.2821  223.5498 H   0  0  0  0  0  0  0  0  0  0  0  0
  141.0128   79.3812  223.6895 H   0  0  0  0  0  0  0  0  0  0  0  0
  142.7155   79.5351  223.0173 H   0  0  0  0  0  0  0  0  0  0  0  0
  141.0623   81.5482  223.8341 H   0  0  0  0  0  0  0  0  0  0  0  0
  142.5806   81.6138  222.7730 H   0  0  0  0  0  0  0  0  0  0  0  0
  139.8092   81.3820  221.7258 H   0  0  0  0  0  0  0  0  0  0  0  0
  140.7531   82.9518  222.0294 H   0  0  0  0  0  0  0  0  0  0  0  0
  140.8835   82.5865  219.8228 H   0  0  0  0  0  0  0  0  0  0  0  0
  142.4642   81.9696  220.6246 H   0  0  0  0  0  0  0  0  0  0  0  0
  140.2959   80.3789  219.4053 H   0  0  0  0  0  0  0  0  0  0  0  0
  142.0203   80.7347  218.8141 H   0  0  0  0  0  0  0  0  0  0  0  0
  142.9373   79.5658  220.4665 H   0  0  0  0  0  0  0  0  0  0  0  0
  139.9767   78.6332  218.6240 H   0  0  0  0  0  0  0  0  0  0  0  0
  139.8765   76.5941  217.2427 H   0  0  0  0  0  0  0  0  0  0  0  0
  143.6059   75.2695  218.8383 H   0  0  0  0  0  0  0  0  0  0  0  0
  143.7090   77.3052  220.2159 H   0  0  0  0  0  0  0  0  0  0  0  0
  139.9001   72.2627  221.0860 H   0  0  0  0  0  0  0  0  0  0  0  0
  141.4002   70.5038  220.1079 H   0  0  0  0  0  0  0  0  0  0  0  0
  143.5107   69.8053  219.3572 H   0  0  0  0  0  0  0  0  0  0  0  0
  146.8613   72.5359  219.5045 H   0  0  0  0  0  0  0  0  0  0  0  0
  145.4033   74.3025  220.4740 H   0  0  0  0  0  0  0  0  0  0  0  0
  1  2  2  0
  2  3  1  0
  3  4  1  0
  4  5  1  0
  5  6  2  0
  5  7  1  0
  7  8  1  0
  8  9  1  0
  9 10  1  0
 10 11  1  0
 11 12  1  0
 12 13  1  0
 13 14  1  0
 14 15  2  0
 15 16  1  0
 16 17  2  0
 17 18  1  0
 17 19  1  0
 19 20  2  0
  2 21  1  0
 21 22  2  0
 22 23  1  0
 23 24  2  0
 24 25  1  0
 25 26  2  0
 26 27  1  0
 26 28  1  0
 28 29  2  0
 29 30  1  0
 30 31  2  0
 13  7  1  0
 20 14  1  0
 31 21  1  0
 30 24  1  0
  3 32  1  0
  4 33  1  0
  4 34  1  0
  8 35  1  0
  8 36  1  0
  9 37  1  0
  9 38  1  0
 10 39  1  0
 10 40  1  0
 11 41  1  0
 11 42  1  0
 12 43  1  0
 12 44  1  0
 13 45  1  1
 15 46  1  0
 16 47  1  0
 19 48  1  0
 20 49  1  0
 22 50  1  0
 23 51  1  0
 25 52  1  0
 28 53  1  0
 29 54  1  0
M  END
>  <smiles>  (23) 
O=C(NCC(=O)N1CCCCCC1c1ccc(Cl)cc1)c1ccc2cc(Cl)ccc2n1

>  <score_type>  (23) 
oracle

>  <origin>  (23) 
autodockgpu

>  <m_score__min__energy>  (23) 
-6.9299999999999997

>  <m_primary>  (23) 
energy

>  <rmsd>  (23) 
6.208933674851866

>  <m_score__min__rmsd>  (23) 
6.208933674851866

>  <meeko>  (23) 
{"free_energy": -4.68, "intermolecular_energy": -7.96, "internal_energy": -3.06, "cluster_size": 2, "cluster_id": 12, "rank_in_cluster": 2}

>  <energy>  (23) 
-5.41

>  <cluster_rmsd>  (23) 
1.66

>  <cluster>  (23) 
2

$$$$

     RDKit          3D

 54 57  0  0  0  0  0  0  0  0999 V2000
  138.8460   71.6940  220.9140 O   0  0  0  0  0  0  0  0  0  0  0  0
  139.1310   72.1440  222.0620 C   0  0  0  0  0  0  0  0  0  0  0  0
  139.2470   73.5590  222.2200 N   0  0  0  0  0  0  0  0  0  0  0  0
  139.0250   74.3630  221.0350 C   0  0  0  0  0  0  0  0  0  0  0  0
  139.9550   73.9880  219.9390 C   0  0  0  0  0  0  0  0  0  0  0  0
  139.5340   73.7570  218.7870 O   0  0  0  0  0  0  0  0  0  0  0  0
  141.3520   73.8780  220.1610 N   0  0  0  0  0  0  0  0  0  0  0  0
  141.8380   72.5580  220.5040 C   0  0  0  0  0  0  0  0  0  0  0  0
  142.8120   71.9840  219.5410 C   0  0  0  0  0  0  0  0  0  0  0  0
  144.2030   72.5050  219.6010 C   0  0  0  0  0  0  0  0  0  0  0  0
  144.3790   73.9710  219.5350 C   0  0  0  0  0  0  0  0  0  0  0  0
  143.5790   74.8380  220.4120 C   0  0  0  0  0  0  0  0  0  0  0  0
  142.1710   75.0870  220.0240 C   0  0  2  0  0  0  0  0  0  0  0  0
  141.5220   76.2540  220.6420 C   0  0  0  0  0  0  0  0  0  0  0  0
  141.1920   76.1840  221.9790 C   0  0  0  0  0  0  0  0  0  0  0  0
  140.5770   77.2610  222.6050 C   0  0  0  0  0  0  0  0  0  0  0  0
  140.2700   78.4310  221.9390 C   0  0  0  0  0  0  0  0  0  0  0  0
  139.4990   79.7490  222.7740 Cl  0  0  0  0  0  0  0  0  0  0  0  0
  140.5990   78.4980  220.6090 C   0  0  0  0  0  0  0  0  0  0  0  0
  141.2140   77.4230  219.9840 C   0  0  0  0  0  0  0  0  0  0  0  0
  139.3400   71.2660  223.2080 C   0  0  0  0  0  0  0  0  0  0  0  0
  138.8880   69.9530  223.1170 C   0  0  0  0  0  0  0  0  0  0  0  0
  139.0870   69.1220  224.2070 C   0  0  0  0  0  0  0  0  0  0  0  0
  139.7210   69.6290  225.3270 C   0  0  0  0  0  0  0  0  0  0  0  0
  139.8990   68.7530  226.4020 C   0  0  0  0  0  0  0  0  0  0  0  0
  140.5310   69.2480  227.5250 C   0  0  0  0  0  0  0  0  0  0  0  0
  140.7480   68.1350  228.8690 Cl  0  0  0  0  0  0  0  0  0  0  0  0
  140.9770   70.5640  227.6000 C   0  0  0  0  0  0  0  0  0  0  0  0
  140.7890   71.4100  226.5260 C   0  0  0  0  0  0  0  0  0  0  0  0
  140.1600   70.9370  225.3910 C   0  0  0  0  0  0  0  0  0  0  0  0
  139.9540   71.7300  224.3140 N   0  0  0  0  0  0  0  0  0  0  0  0
  139.4820   73.9570  223.1580 H   0  0  0  0  0  0  0  0  0  0  0  0
  137.9904   74.2153  220.6918 H   0  0  0  0  0  0  0  0  0  0  0  0
  139.2055   75.4166  221.2947 H   0  0  0  0  0  0  0  0  0  0  0  0
  142.3247   72.6176  221.4887 H   0  0  0  0  0  0  0  0  0  0  0  0
  140.9621   71.8926  220.4927 H   0  0  0  0  0  0  0  0  0  0  0  0
  142.8553   70.8993  219.7187 H   0  0  0  0  0  0  0  0  0  0  0  0
  142.4391   72.2749  218.5479 H   0  0  0  0  0  0  0  0  0  0  0  0
  144.6446   72.1611  220.5480 H   0  0  0  0  0  0  0  0  0  0  0  0
  144.6892   72.1200  218.6925 H   0  0  0  0  0  0  0  0  0  0  0  0
  145.4359   74.1765  219.7603 H   0  0  0  0  0  0  0  0  0  0  0  0
  144.0242   74.2278  218.5259 H   0  0  0  0  0  0  0  0  0  0  0  0
  143.5695   74.3780  221.4112 H   0  0  0  0  0  0  0  0  0  0  0  0
  144.0653   75.8229  220.3536 H   0  0  0  0  0  0  0  0  0  0  0  0
  142.2384   75.3603  218.9606 H   0  0  0  0  0  0  0  0  0  0  0  0
  141.4165   75.2722  222.5519 H   0  0  0  0  0  0  0  0  0  0  0  0
  140.3248   77.1785  223.6725 H   0  0  0  0  0  0  0  0  0  0  0  0
  140.3740   79.4090  220.0350 H   0  0  0  0  0  0  0  0  0  0  0  0
  141.4663   77.5085  218.9167 H   0  0  0  0  0  0  0  0  0  0  0  0
  138.3884   69.5867  222.2080 H   0  0  0  0  0  0  0  0  0  0  0  0
  138.7466   68.0763  224.1825 H   0  0  0  0  0  0  0  0  0  0  0  0
  139.5494   67.7111  226.3548 H   0  0  0  0  0  0  0  0  0  0  0  0
  141.4765   70.9278  228.5100 H   0  0  0  0  0  0  0  0  0  0  0  0
  141.1372   72.4524  226.5735 H   0  0  0  0  0  0  0  0  0  0  0  0
  1  2  2  0
  2  3  1  0
  3  4  1  0
  4  5  1  0
  5  6  2  0
  5  7  1  0
  7  8  1  0
  8  9  1  0
  9 10  1  0
 10 11  1  0
 11 12  1  0
 12 13  1  0
 13 14  1  0
 14 15  2  0
 15 16  1  0
 16 17  2  0
 17 18  1  0
 17 19  1  0
 19 20  2  0
  2 21  1  0
 21 22  2  0
 22 23  1  0
 23 24  2  0
 24 25  1  0
 25 26  2  0
 26 27  1  0
 26 28  1  0
 28 29  2  0
 29 30  1  0
 30 31  2  0
 13  7  1  0
 20 14  1  0
 31 21  1  0
 30 24  1  0
  3 32  1  0
  4 33  1  0
  4 34  1  0
  8 35  1  0
  8 36  1  0
  9 37  1  0
  9 38  1  0
 10 39  1  0
 10 40  1  0
 11 41  1  0
 11 42  1  0
 12 43  1  0
 12 44  1  0
 13 45  1  6
 15 46  1  0
 16 47  1  0
 19 48  1  0
 20 49  1  0
 22 50  1  0
 23 51  1  0
 25 52  1  0
 28 53  1  0
 29 54  1  0
M  END
>  <smiles>  (24) 
O=C(NCC(=O)N1CCCCCC1c1ccc(Cl)cc1)c1ccc2cc(Cl)ccc2n1

>  <score_type>  (24) 
oracle

>  <origin>  (24) 
autodockgpu

>  <m_score__min__energy>  (24) 
-6.9299999999999997

>  <m_primary>  (24) 
energy

>  <rmsd>  (24) 
2.6225106216010357

>  <m_score__min__rmsd>  (24) 
2.6225106216010357

>  <meeko>  (24) 
{"free_energy": -5.76, "intermolecular_energy": -9.04, "internal_energy": -1.86, "cluster_size": 11, "cluster_id": 2, "rank_in_cluster": 8}

>  <energy>  (24) 
-5.4

>  <cluster_rmsd>  (24) 
1.74

>  <cluster>  (24) 
2

$$$$

     RDKit          3D

 54 57  0  0  0  0  0  0  0  0999 V2000
  138.2780   71.1530  220.6130 O   0  0  0  0  0  0  0  0  0  0  0  0
  138.5020   71.7080  221.7270 C   0  0  0  0  0  0  0  0  0  0  0  0
  138.3460   73.1250  221.8170 N   0  0  0  0  0  0  0  0  0  0  0  0
  137.9390   73.8100  220.6050 C   0  0  0  0  0  0  0  0  0  0  0  0
  138.3800   75.2280  220.6060 C   0  0  0  0  0  0  0  0  0  0  0  0
  137.5580   76.1590  220.7310 O   0  0  0  0  0  0  0  0  0  0  0  0
  139.7490   75.5770  220.4640 N   0  0  0  0  0  0  0  0  0  0  0  0
  140.1010   76.2800  219.2480 C   0  0  0  0  0  0  0  0  0  0  0  0
  140.2830   77.7450  219.4080 C   0  0  0  0  0  0  0  0  0  0  0  0
  141.0410   78.2000  220.6040 C   0  0  0  0  0  0  0  0  0  0  0  0
  140.5910   77.7030  221.9200 C   0  0  0  0  0  0  0  0  0  0  0  0
  141.0290   76.3720  222.3790 C   0  0  0  0  0  0  0  0  0  0  0  0
  140.6720   75.2050  221.5400 C   0  0  2  0  0  0  0  0  0  0  0  0
  141.7950   74.3980  221.0360 C   0  0  0  0  0  0  0  0  0  0  0  0
  141.7380   73.0290  221.1950 C   0  0  0  0  0  0  0  0  0  0  0  0
  142.7750   72.2270  220.7360 C   0  0  0  0  0  0  0  0  0  0  0  0
  143.8920   72.7450  220.1110 C   0  0  0  0  0  0  0  0  0  0  0  0
  145.1620   71.6920  219.5550 Cl  0  0  0  0  0  0  0  0  0  0  0  0
  143.9470   74.1060  219.9540 C   0  0  0  0  0  0  0  0  0  0  0  0
  142.9120   74.9070  220.4120 C   0  0  0  0  0  0  0  0  0  0  0  0
  138.9080   70.9480  222.9040 C   0  0  0  0  0  0  0  0  0  0  0  0
  138.5880   69.5940  222.9500 C   0  0  0  0  0  0  0  0  0  0  0  0
  138.9750   68.8740  224.0680 C   0  0  0  0  0  0  0  0  0  0  0  0
  139.6560   69.5270  225.0810 C   0  0  0  0  0  0  0  0  0  0  0  0
  140.0250   68.7590  226.1900 C   0  0  0  0  0  0  0  0  0  0  0  0
  140.7060   69.4000  227.2050 C   0  0  0  0  0  0  0  0  0  0  0  0
  141.1640   68.4220  228.5930 Cl  0  0  0  0  0  0  0  0  0  0  0  0
  141.0170   70.7540  227.1430 C   0  0  0  0  0  0  0  0  0  0  0  0
  140.6430   71.4910  226.0380 C   0  0  0  0  0  0  0  0  0  0  0  0
  139.9610   70.8710  225.0100 C   0  0  0  0  0  0  0  0  0  0  0  0
  139.5730   71.5540  223.9070 N   0  0  0  0  0  0  0  0  0  0  0  0
  138.5240   73.6090  222.7260 H   0  0  0  0  0  0  0  0  0  0  0  0
  138.3837   73.2982  219.7388 H   0  0  0  0  0  0  0  0  0  0  0  0
  136.8405   73.7906  220.5503 H   0  0  0  0  0  0  0  0  0  0  0  0
  141.0429   75.8573  218.8684 H   0  0  0  0  0  0  0  0  0  0  0  0
  139.2562   76.1459  218.5563 H   0  0  0  0  0  0  0  0  0  0  0  0
  140.8136   78.1136  218.5177 H   0  0  0  0  0  0  0  0  0  0  0  0
  139.2682   78.1484  219.5399 H   0  0  0  0  0  0  0  0  0  0  0  0
  142.0868   77.8855  220.4719 H   0  0  0  0  0  0  0  0  0  0  0  0
  140.8812   79.2876  220.6429 H   0  0  0  0  0  0  0  0  0  0  0  0
  140.9334   78.4298  222.6713 H   0  0  0  0  0  0  0  0  0  0  0  0
  139.5037   77.5904  221.7970 H   0  0  0  0  0  0  0  0  0  0  0  0
  142.1258   76.3962  222.4593 H   0  0  0  0  0  0  0  0  0  0  0  0
  140.4899   76.2114  223.3243 H   0  0  0  0  0  0  0  0  0  0  0  0
  140.1589   74.5284  222.2392 H   0  0  0  0  0  0  0  0  0  0  0  0
  140.8677   72.5705  221.6874 H   0  0  0  0  0  0  0  0  0  0  0  0
  142.7037   71.1382  220.8756 H   0  0  0  0  0  0  0  0  0  0  0  0
  144.8171   74.5650  219.4619 H   0  0  0  0  0  0  0  0  0  0  0  0
  142.9864   75.9954  220.2709 H   0  0  0  0  0  0  0  0  0  0  0  0
  138.0448   69.1111  222.1243 H   0  0  0  0  0  0  0  0  0  0  0  0
  138.7451   67.8014  224.1496 H   0  0  0  0  0  0  0  0  0  0  0  0
  139.7824   67.6878  226.2508 H   0  0  0  0  0  0  0  0  0  0  0  0
  141.5585   71.2352  227.9708 H   0  0  0  0  0  0  0  0  0  0  0  0
  140.8859   72.5621  225.9767 H   0  0  0  0  0  0  0  0  0  0  0  0
  1  2  2  0
  2  3  1  0
  3  4  1  0
  4  5  1  0
  5  6  2  0
  5  7  1  0
  7  8  1  0
  8  9  1  0
  9 10  1  0
 10 11  1  0
 11 12  1  0
 12 13  1  0
 13 14  1  0
 14 15  2  0
 15 16  1  0
 16 17  2  0
 17 18  1  0
 17 19  1  0
 19 20  2  0
  2 21  1  0
 21 22  2  0
 22 23  1  0
 23 24  2  0
 24 25  1  0
 25 26  2  0
 26 27  1  0
 26 28  1  0
 28 29  2  0
 29 30  1  0
 30 31  2  0
 13  7  1  0
 20 14  1  0
 31 21  1  0
 30 24  1  0
  3 32  1  0
  4 33  1  0
  4 34  1  0
  8 35  1  0
  8 36  1  0
  9 37  1  0
  9 38  1  0
 10 39  1  0
 10 40  1  0
 11 41  1  0
 11 42  1  0
 12 43  1  0
 12 44  1  0
 13 45  1  1
 15 46  1  0
 16 47  1  0
 19 48  1  0
 20 49  1  0
 22 50  1  0
 23 51  1  0
 25 52  1  0
 28 53  1  0
 29 54  1  0
M  END
>  <smiles>  (25) 
O=C(NCC(=O)N1CCCCCC1c1ccc(Cl)cc1)c1ccc2cc(Cl)ccc2n1

>  <score_type>  (25) 
oracle

>  <origin>  (25) 
autodockgpu

>  <m_score__min__energy>  (25) 
-6.9299999999999997

>  <m_primary>  (25) 
energy

>  <rmsd>  (25) 
2.127428394907326

>  <m_score__min__rmsd>  (25) 
2.127428394907326

>  <meeko>  (25) 
{"free_energy": -5.48, "intermolecular_energy": -8.76, "internal_energy": -2.37, "cluster_size": 6, "cluster_id": 5, "rank_in_cluster": 3}

>  <energy>  (25) 
-6.18

>  <cluster_rmsd>  (25) 
0.0

>  <cluster>  (25) 
3

$$$$

     RDKit          3D

 54 57  0  0  0  0  0  0  0  0999 V2000
  137.9910   71.2520  221.3380 O   0  0  0  0  0  0  0  0  0  0  0  0
  138.6580   71.7280  222.3020 C   0  0  0  0  0  0  0  0  0  0  0  0
  138.9890   73.1170  222.2710 N   0  0  0  0  0  0  0  0  0  0  0  0
  138.5250   73.8680  221.1210 C   0  0  0  0  0  0  0  0  0  0  0  0
  139.6280   74.1340  220.1630 C   0  0  0  0  0  0  0  0  0  0  0  0
  139.3910   74.4410  218.9760 O   0  0  0  0  0  0  0  0  0  0  0  0
  140.9880   74.0480  220.5580 N   0  0  0  0  0  0  0  0  0  0  0  0
  141.3650   72.8490  221.2770 C   0  0  0  0  0  0  0  0  0  0  0  0
  142.1010   71.8440  220.4670 C   0  0  0  0  0  0  0  0  0  0  0  0
  143.4760   72.2070  220.0350 C   0  0  0  0  0  0  0  0  0  0  0  0
  143.6680   73.5490  219.4470 C   0  0  0  0  0  0  0  0  0  0  0  0
  143.3020   74.7420  220.2310 C   0  0  0  0  0  0  0  0  0  0  0  0
  141.8800   75.1580  220.2110 C   0  0  2  0  0  0  0  0  0  0  0  0
  141.5480   76.3770  220.9650 C   0  0  0  0  0  0  0  0  0  0  0  0
  142.0200   77.5850  220.4950 C   0  0  0  0  0  0  0  0  0  0  0  0
  141.7340   78.7620  221.1750 C   0  0  0  0  0  0  0  0  0  0  0  0
  140.9770   78.7850  222.3300 C   0  0  0  0  0  0  0  0  0  0  0  0
  140.6470   80.2900  223.1410 Cl  0  0  0  0  0  0  0  0  0  0  0  0
  140.5080   77.5840  222.7960 C   0  0  0  0  0  0  0  0  0  0  0  0
  140.7950   76.4090  222.1170 C   0  0  0  0  0  0  0  0  0  0  0  0
  139.0890   70.9050  223.4270 C   0  0  0  0  0  0  0  0  0  0  0  0
  138.8310   69.5380  223.3730 C   0  0  0  0  0  0  0  0  0  0  0  0
  139.2400   68.7580  224.4420 C   0  0  0  0  0  0  0  0  0  0  0  0
  139.8830   69.3670  225.5050 C   0  0  0  0  0  0  0  0  0  0  0  0
  140.2780   68.5390  226.5610 C   0  0  0  0  0  0  0  0  0  0  0  0
  140.9210   69.1360  227.6270 C   0  0  0  0  0  0  0  0  0  0  0  0
  141.4120   68.0840  228.9470 Cl  0  0  0  0  0  0  0  0  0  0  0  0
  141.1710   70.5040  227.6650 C   0  0  0  0  0  0  0  0  0  0  0  0
  140.7720   71.3000  226.6100 C   0  0  0  0  0  0  0  0  0  0  0  0
  140.1280   70.7260  225.5330 C   0  0  0  0  0  0  0  0  0  0  0  0
  139.7170   71.4670  224.4770 N   0  0  0  0  0  0  0  0  0  0  0  0
  139.5390   73.5350  223.0550 H   0  0  0  0  0  0  0  0  0  0  0  0
  137.7397   73.2911  220.6106 H   0  0  0  0  0  0  0  0  0  0  0  0
  138.1346   74.8338  221.4744 H   0  0  0  0  0  0  0  0  0  0  0  0
  142.0051   73.1432  222.1218 H   0  0  0  0  0  0  0  0  0  0  0  0
  140.4271   72.3677  221.5912 H   0  0  0  0  0  0  0  0  0  0  0  0
  142.1723   70.9231  221.0643 H   0  0  0  0  0  0  0  0  0  0  0  0
  141.5235   71.7466  219.5359 H   0  0  0  0  0  0  0  0  0  0  0  0
  144.1294   72.1358  220.9171 H   0  0  0  0  0  0  0  0  0  0  0  0
  143.7117   71.5051  219.2215 H   0  0  0  0  0  0  0  0  0  0  0  0
  144.7365   73.6417  219.2026 H   0  0  0  0  0  0  0  0  0  0  0  0
  142.9615   73.5661  218.6040 H   0  0  0  0  0  0  0  0  0  0  0  0
  143.5741   74.5453  221.2785 H   0  0  0  0  0  0  0  0  0  0  0  0
  143.8456   75.5710  219.7544 H   0  0  0  0  0  0  0  0  0  0  0  0
  141.7077   75.4458  219.1634 H   0  0  0  0  0  0  0  0  0  0  0  0
  142.6258   77.6164  219.5773 H   0  0  0  0  0  0  0  0  0  0  0  0
  142.1249   79.7109  220.7789 H   0  0  0  0  0  0  0  0  0  0  0  0
  139.9011   77.5520  223.7129 H   0  0  0  0  0  0  0  0  0  0  0  0
  140.4039   75.4616  222.5164 H   0  0  0  0  0  0  0  0  0  0  0  0
  138.3183   69.0913  222.5084 H   0  0  0  0  0  0  0  0  0  0  0  0
  139.0568   67.6734  224.4458 H   0  0  0  0  0  0  0  0  0  0  0  0
  140.0842   67.4564  226.5428 H   0  0  0  0  0  0  0  0  0  0  0  0
  141.6836   70.9488  228.5306 H   0  0  0  0  0  0  0  0  0  0  0  0
  140.9658   72.3827  226.6278 H   0  0  0  0  0  0  0  0  0  0  0  0
  1  2  2  0
  2  3  1  0
  3  4  1  0
  4  5  1  0
  5  6  2  0
  5  7  1  0
  7  8  1  0
  8  9  1  0
  9 10  1  0
 10 11  1  0
 11 12  1  0
 12 13  1  0
 13 14  1  0
 14 15  2  0
 15 16  1  0
 16 17  2  0
 17 18  1  0
 17 19  1  0
 19 20  2  0
  2 21  1  0
 21 22  2  0
 22 23  1  0
 23 24  2  0
 24 25  1  0
 25 26  2  0
 26 27  1  0
 26 28  1  0
 28 29  2  0
 29 30  1  0
 30 31  2  0
 13  7  1  0
 20 14  1  0
 31 21  1  0
 30 24  1  0
  3 32  1  0
  4 33  1  0
  4 34  1  0
  8 35  1  0
  8 36  1  0
  9 37  1  0
  9 38  1  0
 10 39  1  0
 10 40  1  0
 11 41  1  0
 11 42  1  0
 12 43  1  0
 12 44  1  0
 13 45  1  6
 15 46  1  0
 16 47  1  0
 19 48  1  0
 20 49  1  0
 22 50  1  0
 23 51  1  0
 25 52  1  0
 28 53  1  0
 29 54  1  0
M  END
>  <smiles>  (26) 
O=C(NCC(=O)N1CCCCCC1c1ccc(Cl)cc1)c1ccc2cc(Cl)ccc2n1

>  <score_type>  (26) 
oracle

>  <origin>  (26) 
autodockgpu

>  <m_score__min__energy>  (26) 
-6.9299999999999997

>  <m_primary>  (26) 
energy

>  <rmsd>  (26) 
2.574246736229735

>  <m_score__min__rmsd>  (26) 
2.574246736229735

>  <meeko>  (26) 
{"free_energy": -6.3, "intermolecular_energy": -9.58, "internal_energy": -1.67, "cluster_size": 11, "cluster_id": 2, "rank_in_cluster": 4}

>  <energy>  (26) 
-5.96

>  <cluster_rmsd>  (26) 
1.99

>  <cluster>  (26) 
3

$$$$

     RDKit          3D

 54 57  0  0  0  0  0  0  0  0999 V2000
  142.9030   80.2610  218.3220 O   0  0  0  0  0  0  0  0  0  0  0  0
  142.1370   79.2540  218.3230 C   0  0  0  0  0  0  0  0  0  0  0  0
  140.7350   79.4750  218.4910 N   0  0  0  0  0  0  0  0  0  0  0  0
  140.3110   80.8530  218.6480 C   0  0  0  0  0  0  0  0  0  0  0  0
  140.2480   81.2440  220.0790 C   0  0  0  0  0  0  0  0  0  0  0  0
  139.7490   82.3340  220.4290 O   0  0  0  0  0  0  0  0  0  0  0  0
  140.7510   80.3970  221.1010 N   0  0  0  0  0  0  0  0  0  0  0  0
  142.1820   80.4480  221.3190 C   0  0  0  0  0  0  0  0  0  0  0  0
  142.6560   79.6960  222.5090 C   0  0  0  0  0  0  0  0  0  0  0  0
  142.1180   80.1190  223.8280 C   0  0  0  0  0  0  0  0  0  0  0  0
  140.7730   80.7310  223.8450 C   0  0  0  0  0  0  0  0  0  0  0  0
  139.6410   80.0150  223.2370 C   0  0  0  0  0  0  0  0  0  0  0  0
  139.7990   79.5600  221.8360 C   0  0  2  0  0  0  0  0  0  0  0  0
  140.0760   78.1270  221.6450 C   0  0  0  0  0  0  0  0  0  0  0  0
  139.6450   77.5290  220.4790 C   0  0  0  0  0  0  0  0  0  0  0  0
  139.8830   76.1790  220.2550 C   0  0  0  0  0  0  0  0  0  0  0  0
  140.5490   75.3820  221.1660 C   0  0  0  0  0  0  0  0  0  0  0  0
  140.8210   73.6950  220.8330 Cl  0  0  0  0  0  0  0  0  0  0  0  0
  140.9770   75.9790  222.3240 C   0  0  0  0  0  0  0  0  0  0  0  0
  140.7390   77.3270  222.5480 C   0  0  0  0  0  0  0  0  0  0  0  0
  142.6420   77.8960  218.1590 C   0  0  0  0  0  0  0  0  0  0  0  0
  142.7300   77.3830  216.8680 C   0  0  0  0  0  0  0  0  0  0  0  0
  143.2100   76.0930  216.7130 C   0  0  0  0  0  0  0  0  0  0  0  0
  143.5760   75.3780  217.8400 C   0  0  0  0  0  0  0  0  0  0  0  0
  144.0540   74.0800  217.6350 C   0  0  0  0  0  0  0  0  0  0  0  0
  144.4240   73.3580  218.7510 C   0  0  0  0  0  0  0  0  0  0  0  0
  145.0230   71.7270  218.4790 Cl  0  0  0  0  0  0  0  0  0  0  0  0
  144.3290   73.8850  220.0360 C   0  0  0  0  0  0  0  0  0  0  0  0
  143.8540   75.1680  220.2120 C   0  0  0  0  0  0  0  0  0  0  0  0
  143.4790   75.9100  219.1100 C   0  0  0  0  0  0  0  0  0  0  0  0
  143.0070   77.1730  219.2360 N   0  0  0  0  0  0  0  0  0  0  0  0
  140.0800   78.6610  218.4970 H   0  0  0  0  0  0  0  0  0  0  0  0
  141.0266   81.5083  218.1297 H   0  0  0  0  0  0  0  0  0  0  0  0
  139.3037   80.9549  218.2180 H   0  0  0  0  0  0  0  0  0  0  0  0
  142.6790   80.0317  220.4304 H   0  0  0  0  0  0  0  0  0  0  0  0
  142.4312   81.5041  221.4995 H   0  0  0  0  0  0  0  0  0  0  0  0
  142.3871   78.6393  222.3635 H   0  0  0  0  0  0  0  0  0  0  0  0
  143.7367   79.8941  222.5625 H   0  0  0  0  0  0  0  0  0  0  0  0
  142.0842   79.2282  224.4725 H   0  0  0  0  0  0  0  0  0  0  0  0
  142.7959   80.9158  224.1679 H   0  0  0  0  0  0  0  0  0  0  0  0
  140.5132   80.9020  224.9001 H   0  0  0  0  0  0  0  0  0  0  0  0
  140.8870   81.6202  223.2076 H   0  0  0  0  0  0  0  0  0  0  0  0
  139.4433   79.1254  223.8531 H   0  0  0  0  0  0  0  0  0  0  0  0
  138.8251   80.7520  223.2045 H   0  0  0  0  0  0  0  0  0  0  0  0
  138.7956   79.6906  221.4047 H   0  0  0  0  0  0  0  0  0  0  0  0
  139.1106   78.1237  219.7235 H   0  0  0  0  0  0  0  0  0  0  0  0
  139.5278   75.7275  219.3169 H   0  0  0  0  0  0  0  0  0  0  0  0
  141.5122   75.3853  223.0797 H   0  0  0  0  0  0  0  0  0  0  0  0
  141.0951   77.7758  223.4870 H   0  0  0  0  0  0  0  0  0  0  0  0
  142.4276   77.9837  215.9975 H   0  0  0  0  0  0  0  0  0  0  0  0
  143.2987   75.6450  215.7123 H   0  0  0  0  0  0  0  0  0  0  0  0
  144.1319   73.6518  216.6248 H   0  0  0  0  0  0  0  0  0  0  0  0
  144.6307   73.2822  220.9053 H   0  0  0  0  0  0  0  0  0  0  0  0
  143.7747   75.5963  221.2221 H   0  0  0  0  0  0  0  0  0  0  0  0
  1  2  2  0
  2  3  1  0
  3  4  1  0
  4  5  1  0
  5  6  2  0
  5  7  1  0
  7  8  1  0
  8  9  1  0
  9 10  1  0
 10 11  1  0
 11 12  1  0
 12 13  1  0
 13 14  1  0
 14 15  2  0
 15 16  1  0
 16 17  2  0
 17 18  1  0
 17 19  1  0
 19 20  2  0
  2 21  1  0
 21 22  2  0
 22 23  1  0
 23 24  2  0
 24 25  1  0
 25 26  2  0
 26 27  1  0
 26 28  1  0
 28 29  2  0
 29 30  1  0
 30 31  2  0
 13  7  1  0
 20 14  1  0
 31 21  1  0
 30 24  1  0
  3 32  1  0
  4 33  1  0
  4 34  1  0
  8 35  1  0
  8 36  1  0
  9 37  1  0
  9 38  1  0
 10 39  1  0
 10 40  1  0
 11 41  1  0
 11 42  1  0
 12 43  1  0
 12 44  1  0
 13 45  1  6
 15 46  1  0
 16 47  1  0
 19 48  1  0
 20 49  1  0
 22 50  1  0
 23 51  1  0
 25 52  1  0
 28 53  1  0
 29 54  1  0
M  END
>  <smiles>  (27) 
O=C(NCC(=O)N1CCCCCC1c1ccc(Cl)cc1)c1ccc2cc(Cl)ccc2n1

>  <score_type>  (27) 
oracle

>  <origin>  (27) 
autodockgpu

>  <m_score__min__energy>  (27) 
-6.9299999999999997

>  <m_primary>  (27) 
energy

>  <rmsd>  (27) 
8.545669847031082

>  <m_score__min__rmsd>  (27) 
8.545669847031082

>  <meeko>  (27) 
{"free_energy": -4.47, "intermolecular_energy": -7.75, "internal_energy": -3.18, "cluster_size": 3, "cluster_id": 13, "rank_in_cluster": 1}

>  <energy>  (27) 
-5.51

>  <cluster_rmsd>  (27) 
1.78

>  <cluster>  (27) 
3

$$$$

     RDKit          3D

 54 57  0  0  0  0  0  0  0  0999 V2000
  137.9210   71.0830  220.9830 O   0  0  0  0  0  0  0  0  0  0  0  0
  138.3170   71.6480  222.0430 C   0  0  0  0  0  0  0  0  0  0  0  0
  138.2930   73.0750  222.0960 N   0  0  0  0  0  0  0  0  0  0  0  0
  137.8090   73.7580  220.9120 C   0  0  0  0  0  0  0  0  0  0  0  0
  138.3760   75.1270  220.8030 C   0  0  0  0  0  0  0  0  0  0  0  0
  138.3230   75.7630  219.7300 O   0  0  0  0  0  0  0  0  0  0  0  0
  138.9980   75.7600  221.9100 N   0  0  0  0  0  0  0  0  0  0  0  0
  138.1120   76.4490  222.8260 C   0  0  0  0  0  0  0  0  0  0  0  0
  137.9610   77.9040  222.5700 C   0  0  0  0  0  0  0  0  0  0  0  0
  139.1680   78.6300  222.0930 C   0  0  0  0  0  0  0  0  0  0  0  0
  140.4810   78.1320  222.5510 C   0  0  0  0  0  0  0  0  0  0  0  0
  141.1050   76.9850  221.8660 C   0  0  0  0  0  0  0  0  0  0  0  0
  140.4550   75.6640  222.0330 C   0  0  2  0  0  0  0  0  0  0  0  0
  140.9960   74.5660  221.2170 C   0  0  0  0  0  0  0  0  0  0  0  0
  141.3560   74.8370  219.9130 C   0  0  0  0  0  0  0  0  0  0  0  0
  141.8690   73.8310  219.1040 C   0  0  0  0  0  0  0  0  0  0  0  0
  142.0440   72.5360  219.5510 C   0  0  0  0  0  0  0  0  0  0  0  0
  142.6930   71.3150  218.4940 Cl  0  0  0  0  0  0  0  0  0  0  0  0
  141.6860   72.2680  220.8470 C   0  0  0  0  0  0  0  0  0  0  0  0
  141.1730   73.2730  221.6550 C   0  0  0  0  0  0  0  0  0  0  0  0
  138.7900   70.8880  223.1950 C   0  0  0  0  0  0  0  0  0  0  0  0
  138.5390   69.5190  223.2230 C   0  0  0  0  0  0  0  0  0  0  0  0
  138.9890   68.7990  224.3180 C   0  0  0  0  0  0  0  0  0  0  0  0
  139.6630   69.4670  225.3250 C   0  0  0  0  0  0  0  0  0  0  0  0
  140.0970   68.6990  226.4100 C   0  0  0  0  0  0  0  0  0  0  0  0
  140.7710   69.3550  227.4200 C   0  0  0  0  0  0  0  0  0  0  0  0
  141.3120   68.3770  228.7780 Cl  0  0  0  0  0  0  0  0  0  0  0  0
  141.0140   70.7250  227.3770 C   0  0  0  0  0  0  0  0  0  0  0  0
  140.5750   71.4610  226.2960 C   0  0  0  0  0  0  0  0  0  0  0  0
  139.8990   70.8270  225.2720 C   0  0  0  0  0  0  0  0  0  0  0  0
  139.4500   71.5090  224.1930 N   0  0  0  0  0  0  0  0  0  0  0  0
  138.6150   73.5660  222.9610 H   0  0  0  0  0  0  0  0  0  0  0  0
  138.0983   73.1794  220.0223 H   0  0  0  0  0  0  0  0  0  0  0  0
  136.7147   73.8425  220.9855 H   0  0  0  0  0  0  0  0  0  0  0  0
  137.1176   75.9840  222.7552 H   0  0  0  0  0  0  0  0  0  0  0  0
  138.5647   76.3554  223.8242 H   0  0  0  0  0  0  0  0  0  0  0  0
  137.1758   78.0283  221.8097 H   0  0  0  0  0  0  0  0  0  0  0  0
  137.7281   78.3459  223.5500 H   0  0  0  0  0  0  0  0  0  0  0  0
  139.1645   78.5910  220.9937 H   0  0  0  0  0  0  0  0  0  0  0  0
  139.0812   79.6381  222.5246 H   0  0  0  0  0  0  0  0  0  0  0  0
  141.1862   78.9726  222.4732 H   0  0  0  0  0  0  0  0  0  0  0  0
  140.2718   77.7461  223.5596 H   0  0  0  0  0  0  0  0  0  0  0  0
  141.1232   77.2117  220.7898 H   0  0  0  0  0  0  0  0  0  0  0  0
  142.0940   76.8769  222.3353 H   0  0  0  0  0  0  0  0  0  0  0  0
  140.7125   75.3753  223.0627 H   0  0  0  0  0  0  0  0  0  0  0  0
  141.2363   75.8543  219.5121 H   0  0  0  0  0  0  0  0  0  0  0  0
  142.1464   74.0751  218.0679 H   0  0  0  0  0  0  0  0  0  0  0  0
  141.8060   71.2510  221.2486 H   0  0  0  0  0  0  0  0  0  0  0  0
  140.8958   73.0256  222.6904 H   0  0  0  0  0  0  0  0  0  0  0  0
  138.0002   69.0243  222.4015 H   0  0  0  0  0  0  0  0  0  0  0  0
  138.8135   67.7152  224.3856 H   0  0  0  0  0  0  0  0  0  0  0  0
  139.9089   67.6162  226.4566 H   0  0  0  0  0  0  0  0  0  0  0  0
  141.5527   71.2176  228.1999 H   0  0  0  0  0  0  0  0  0  0  0  0
  140.7618   72.5440  226.2500 H   0  0  0  0  0  0  0  0  0  0  0  0
  1  2  2  0
  2  3  1  0
  3  4  1  0
  4  5  1  0
  5  6  2  0
  5  7  1  0
  7  8  1  0
  8  9  1  0
  9 10  1  0
 10 11  1  0
 11 12  1  0
 12 13  1  0
 13 14  1  0
 14 15  2  0
 15 16  1  0
 16 17  2  0
 17 18  1  0
 17 19  1  0
 19 20  2  0
  2 21  1  0
 21 22  2  0
 22 23  1  0
 23 24  2  0
 24 25  1  0
 25 26  2  0
 26 27  1  0
 26 28  1  0
 28 29  2  0
 29 30  1  0
 30 31  2  0
 13  7  1  0
 20 14  1  0
 31 21  1  0
 30 24  1  0
  3 32  1  0
  4 33  1  0
  4 34  1  0
  8 35  1  0
  8 36  1  0
  9 37  1  0
  9 38  1  0
 10 39  1  0
 10 40  1  0
 11 41  1  0
 11 42  1  0
 12 43  1  0
 12 44  1  0
 13 45  1  1
 15 46  1  0
 16 47  1  0
 19 48  1  0
 20 49  1  0
 22 50  1  0
 23 51  1  0
 25 52  1  0
 28 53  1  0
 29 54  1  0
M  END
>  <smiles>  (28) 
O=C(NCC(=O)N1CCCCCC1c1ccc(Cl)cc1)c1ccc2cc(Cl)ccc2n1

>  <score_type>  (28) 
oracle

>  <origin>  (28) 
autodockgpu

>  <m_score__min__energy>  (28) 
-6.9299999999999997

>  <m_primary>  (28) 
energy

>  <rmsd>  (28) 
2.762775610188855

>  <m_score__min__rmsd>  (28) 
2.762775610188855

>  <meeko>  (28) 
{"free_energy": -5.01, "intermolecular_energy": -8.29, "internal_energy": -2.47, "cluster_size": 13, "cluster_id": 1, "rank_in_cluster": 13}

>  <energy>  (28) 
-6.02

>  <cluster_rmsd>  (28) 
0.0

>  <cluster>  (28) 
4

$$$$

     RDKit          3D

 54 57  0  0  0  0  0  0  0  0999 V2000
  136.7700   75.0100  220.7960 O   0  0  0  0  0  0  0  0  0  0  0  0
  137.6570   74.7820  221.6690 C   0  0  0  0  0  0  0  0  0  0  0  0
  137.6490   73.5110  222.3210 N   0  0  0  0  0  0  0  0  0  0  0  0
  136.6100   72.5830  221.9170 C   0  0  0  0  0  0  0  0  0  0  0  0
  137.1670   71.2400  221.6140 C   0  0  0  0  0  0  0  0  0  0  0  0
  137.6330   70.9750  220.4860 O   0  0  0  0  0  0  0  0  0  0  0  0
  137.1900   70.2110  222.5900 N   0  0  0  0  0  0  0  0  0  0  0  0
  135.9210   69.9040  223.2180 C   0  0  0  0  0  0  0  0  0  0  0  0
  135.4710   68.4980  223.0560 C   0  0  0  0  0  0  0  0  0  0  0  0
  136.0160   67.7490  221.8940 C   0  0  0  0  0  0  0  0  0  0  0  0
  137.4650   67.4600  221.8950 C   0  0  0  0  0  0  0  0  0  0  0  0
  138.3310   68.0810  222.9100 C   0  0  0  0  0  0  0  0  0  0  0  0
  138.4700   69.5550  222.8740 C   0  0  2  0  0  0  0  0  0  0  0  0
  139.1520   70.1730  224.0230 C   0  0  0  0  0  0  0  0  0  0  0  0
  138.9620   69.6170  225.2710 C   0  0  0  0  0  0  0  0  0  0  0  0
  139.5840   70.1660  226.3850 C   0  0  0  0  0  0  0  0  0  0  0  0
  140.4070   71.2730  226.3040 C   0  0  0  0  0  0  0  0  0  0  0  0
  141.1610   71.9200  227.7330 Cl  0  0  0  0  0  0  0  0  0  0  0  0
  140.5940   71.8240  225.0630 C   0  0  0  0  0  0  0  0  0  0  0  0
  139.9730   71.2760  223.9510 C   0  0  0  0  0  0  0  0  0  0  0  0
  138.6710   75.7700  222.0200 C   0  0  0  0  0  0  0  0  0  0  0  0
  140.0090   75.4050  221.8990 C   0  0  0  0  0  0  0  0  0  0  0  0
  140.9700   76.3440  222.2330 C   0  0  0  0  0  0  0  0  0  0  0  0
  140.5620   77.5930  222.6670 C   0  0  0  0  0  0  0  0  0  0  0  0
  141.5680   78.5080  222.9920 C   0  0  0  0  0  0  0  0  0  0  0  0
  141.1720   79.7570  223.4250 C   0  0  0  0  0  0  0  0  0  0  0  0
  142.4480   80.8970  223.8310 Cl  0  0  0  0  0  0  0  0  0  0  0  0
  139.8300   80.1060  223.5400 C   0  0  0  0  0  0  0  0  0  0  0  0
  138.8550   79.1860  223.2130 C   0  0  0  0  0  0  0  0  0  0  0  0
  139.2270   77.9300  222.7770 C   0  0  0  0  0  0  0  0  0  0  0  0
  138.3060   76.9950  222.4450 N   0  0  0  0  0  0  0  0  0  0  0  0
  138.3700   73.2970  223.0460 H   0  0  0  0  0  0  0  0  0  0  0  0
  135.8770   72.4903  222.7319 H   0  0  0  0  0  0  0  0  0  0  0  0
  136.1346   72.9731  221.0050 H   0  0  0  0  0  0  0  0  0  0  0  0
  136.0123   70.1124  224.2942 H   0  0  0  0  0  0  0  0  0  0  0  0
  135.1678   70.5303  222.7175 H   0  0  0  0  0  0  0  0  0  0  0  0
  135.7547   67.9509  223.9671 H   0  0  0  0  0  0  0  0  0  0  0  0
  134.3879   68.5619  222.8745 H   0  0  0  0  0  0  0  0  0  0  0  0
  135.4868   66.7860  221.8436 H   0  0  0  0  0  0  0  0  0  0  0  0
  135.8605   68.4131  221.0310 H   0  0  0  0  0  0  0  0  0  0  0  0
  137.5731   66.3710  222.0063 H   0  0  0  0  0  0  0  0  0  0  0  0
  137.8158   67.9045  220.9519 H   0  0  0  0  0  0  0  0  0  0  0  0
  137.9287   67.8110  223.8976 H   0  0  0  0  0  0  0  0  0  0  0  0
  139.3390   67.6968  222.6947 H   0  0  0  0  0  0  0  0  0  0  0  0
  139.1607   69.7306  222.0360 H   0  0  0  0  0  0  0  0  0  0  0  0
  138.3149   68.7347  225.3845 H   0  0  0  0  0  0  0  0  0  0  0  0
  139.4152   69.7024  227.3681 H   0  0  0  0  0  0  0  0  0  0  0  0
  141.2407   72.7064  224.9485 H   0  0  0  0  0  0  0  0  0  0  0  0
  140.1435   71.7423  222.9694 H   0  0  0  0  0  0  0  0  0  0  0  0
  140.2938   74.4018  221.5489 H   0  0  0  0  0  0  0  0  0  0  0  0
  142.0400   76.1012  222.1547 H   0  0  0  0  0  0  0  0  0  0  0  0
  142.6321   78.2430  222.9060 H   0  0  0  0  0  0  0  0  0  0  0  0
  139.5478   81.1100  223.8897 H   0  0  0  0  0  0  0  0  0  0  0  0
  137.7908   79.4509  223.2989 H   0  0  0  0  0  0  0  0  0  0  0  0
  1  2  2  0
  2  3  1  0
  3  4  1  0
  4  5  1  0
  5  6  2  0
  5  7  1  0
  7  8  1  0
  8  9  1  0
  9 10  1  0
 10 11  1  0
 11 12  1  0
 12 13  1  0
 13 14  1  0
 14 15  2  0
 15 16  1  0
 16 17  2  0
 17 18  1  0
 17 19  1  0
 19 20  2  0
  2 21  1  0
 21 22  2  0
 22 23  1  0
 23 24  2  0
 24 25  1  0
 25 26  2  0
 26 27  1  0
 26 28  1  0
 28 29  2  0
 29 30  1  0
 30 31  2  0
 13  7  1  0
 20 14  1  0
 31 21  1  0
 30 24  1  0
  3 32  1  0
  4 33  1  0
  4 34  1  0
  8 35  1  0
  8 36  1  0
  9 37  1  0
  9 38  1  0
 10 39  1  0
 10 40  1  0
 11 41  1  0
 11 42  1  0
 12 43  1  0
 12 44  1  0
 13 45  1  6
 15 46  1  0
 16 47  1  0
 19 48  1  0
 20 49  1  0
 22 50  1  0
 23 51  1  0
 25 52  1  0
 28 53  1  0
 29 54  1  0
M  END
>  <smiles>  (29) 
O=C(NCC(=O)N1CCCCCC1c1ccc(Cl)cc1)c1ccc2cc(Cl)ccc2n1

>  <score_type>  (29) 
oracle

>  <origin>  (29) 
autodockgpu

>  <m_score__min__energy>  (29) 
-6.9299999999999997

>  <m_primary>  (29) 
energy

>  <rmsd>  (29) 
8.10263687470836

>  <m_score__min__rmsd>  (29) 
8.10263687470836

>  <meeko>  (29) 
{"free_energy": -5.82, "intermolecular_energy": -9.1, "internal_energy": -1.77, "cluster_size": 3, "cluster_id": 7, "rank_in_cluster": 2}

>  <energy>  (29) 
-5.94

>  <cluster_rmsd>  (29) 
0.0

>  <cluster>  (29) 
5

$$$$

     RDKit          3D

 54 57  0  0  0  0  0  0  0  0999 V2000
  138.9470   71.4120  220.5160 O   0  0  0  0  0  0  0  0  0  0  0  0
  138.8750   71.8950  221.6830 C   0  0  0  0  0  0  0  0  0  0  0  0
  138.4650   73.2560  221.8240 N   0  0  0  0  0  0  0  0  0  0  0  0
  138.1650   73.9720  220.5990 C   0  0  0  0  0  0  0  0  0  0  0  0
  138.9260   75.2440  220.5110 C   0  0  0  0  0  0  0  0  0  0  0  0
  139.3160   75.6870  219.4110 O   0  0  0  0  0  0  0  0  0  0  0  0
  139.2390   76.0010  221.6700 N   0  0  0  0  0  0  0  0  0  0  0  0
  138.1110   76.5610  222.3850 C   0  0  0  0  0  0  0  0  0  0  0  0
  138.2610   77.9900  222.7610 C   0  0  0  0  0  0  0  0  0  0  0  0
  138.8980   78.8840  221.7590 C   0  0  0  0  0  0  0  0  0  0  0  0
  140.2530   78.5230  221.2950 C   0  0  0  0  0  0  0  0  0  0  0  0
  141.0600   77.5690  222.0760 C   0  0  0  0  0  0  0  0  0  0  0  0
  140.6500   76.1460  222.0410 C   0  0  2  0  0  0  0  0  0  0  0  0
  141.5100   75.2390  221.2650 C   0  0  0  0  0  0  0  0  0  0  0  0
  141.4560   73.8900  221.5450 C   0  0  0  0  0  0  0  0  0  0  0  0
  142.2510   72.9960  220.8400 C   0  0  0  0  0  0  0  0  0  0  0  0
  143.1180   73.4000  219.8430 C   0  0  0  0  0  0  0  0  0  0  0  0
  144.0910   72.2360  218.9900 Cl  0  0  0  0  0  0  0  0  0  0  0  0
  143.1710   74.7420  219.5670 C   0  0  0  0  0  0  0  0  0  0  0  0
  142.3770   75.6350  220.2710 C   0  0  0  0  0  0  0  0  0  0  0  0
  139.1940   71.1070  222.8680 C   0  0  0  0  0  0  0  0  0  0  0  0
  138.8360   69.7620  222.8760 C   0  0  0  0  0  0  0  0  0  0  0  0
  139.1400   69.0160  224.0020 C   0  0  0  0  0  0  0  0  0  0  0  0
  139.7800   69.6360  225.0610 C   0  0  0  0  0  0  0  0  0  0  0  0
  140.0660   68.8420  226.1760 C   0  0  0  0  0  0  0  0  0  0  0  0
  140.7060   69.4500  227.2380 C   0  0  0  0  0  0  0  0  0  0  0  0
  141.0590   68.4410  228.6340 Cl  0  0  0  0  0  0  0  0  0  0  0  0
  141.0570   70.7960  227.2150 C   0  0  0  0  0  0  0  0  0  0  0  0
  140.7650   71.5580  226.1020 C   0  0  0  0  0  0  0  0  0  0  0  0
  140.1250   70.9720  225.0280 C   0  0  0  0  0  0  0  0  0  0  0  0
  139.8180   71.6810  223.9160 N   0  0  0  0  0  0  0  0  0  0  0  0
  138.3980   73.6800  222.7770 H   0  0  0  0  0  0  0  0  0  0  0  0
  138.4293   73.3374  219.7403 H   0  0  0  0  0  0  0  0  0  0  0  0
  137.0914   74.2114  220.5936 H   0  0  0  0  0  0  0  0  0  0  0  0
  137.2199   76.4665  221.7470 H   0  0  0  0  0  0  0  0  0  0  0  0
  138.0308   75.9990  223.3272 H   0  0  0  0  0  0  0  0  0  0  0  0
  137.2563   78.3864  222.9693 H   0  0  0  0  0  0  0  0  0  0  0  0
  138.9449   77.9903  223.6225 H   0  0  0  0  0  0  0  0  0  0  0  0
  138.2425   78.9112  220.8761 H   0  0  0  0  0  0  0  0  0  0  0  0
  139.0235   79.8460  222.2775 H   0  0  0  0  0  0  0  0  0  0  0  0
  140.1425   78.0974  220.2867 H   0  0  0  0  0  0  0  0  0  0  0  0
  140.8139   79.4653  221.3815 H   0  0  0  0  0  0  0  0  0  0  0  0
  142.0926   77.6249  221.7011 H   0  0  0  0  0  0  0  0  0  0  0  0
  140.9261   77.8764  223.1237 H   0  0  0  0  0  0  0  0  0  0  0  0
  140.7886   75.8097  223.0791 H   0  0  0  0  0  0  0  0  0  0  0  0
  140.7802   73.5203  222.3303 H   0  0  0  0  0  0  0  0  0  0  0  0
  142.1881   71.9254  221.0846 H   0  0  0  0  0  0  0  0  0  0  0  0
  143.8473   75.1126  218.7826 H   0  0  0  0  0  0  0  0  0  0  0  0
  142.4426   76.7051  220.0249 H   0  0  0  0  0  0  0  0  0  0  0  0
  138.3271   69.3057  222.0141 H   0  0  0  0  0  0  0  0  0  0  0  0
  138.8774   67.9491  224.0540 H   0  0  0  0  0  0  0  0  0  0  0  0
  139.7924   67.7770  226.2059 H   0  0  0  0  0  0  0  0  0  0  0  0
  141.5643   71.2503  228.0789 H   0  0  0  0  0  0  0  0  0  0  0  0
  141.0397   72.6227  226.0708 H   0  0  0  0  0  0  0  0  0  0  0  0
  1  2  2  0
  2  3  1  0
  3  4  1  0
  4  5  1  0
  5  6  2  0
  5  7  1  0
  7  8  1  0
  8  9  1  0
  9 10  1  0
 10 11  1  0
 11 12  1  0
 12 13  1  0
 13 14  1  0
 14 15  2  0
 15 16  1  0
 16 17  2  0
 17 18  1  0
 17 19  1  0
 19 20  2  0
  2 21  1  0
 21 22  2  0
 22 23  1  0
 23 24  2  0
 24 25  1  0
 25 26  2  0
 26 27  1  0
 26 28  1  0
 28 29  2  0
 29 30  1  0
 30 31  2  0
 13  7  1  0
 20 14  1  0
 31 21  1  0
 30 24  1  0
  3 32  1  0
  4 33  1  0
  4 34  1  0
  8 35  1  0
  8 36  1  0
  9 37  1  0
  9 38  1  0
 10 39  1  0
 10 40  1  0
 11 41  1  0
 11 42  1  0
 12 43  1  0
 12 44  1  0
 13 45  1  1
 15 46  1  0
 16 47  1  0
 19 48  1  0
 20 49  1  0
 22 50  1  0
 23 51  1  0
 25 52  1  0
 28 53  1  0
 29 54  1  0
M  END
>  <smiles>  (30) 
O=C(NCC(=O)N1CCCCCC1c1ccc(Cl)cc1)c1ccc2cc(Cl)ccc2n1

>  <score_type>  (30) 
oracle

>  <origin>  (30) 
autodockgpu

>  <m_score__min__energy>  (30) 
-6.9299999999999997

>  <m_primary>  (30) 
energy

>  <rmsd>  (30) 
2.8246136610219748

>  <m_score__min__rmsd>  (30) 
2.8246136610219748

>  <meeko>  (30) 
{"free_energy": -5.9, "intermolecular_energy": -9.18, "internal_energy": -2.27, "cluster_size": 13, "cluster_id": 1, "rank_in_cluster": 8}

>  <energy>  (30) 
-5.8

>  <cluster_rmsd>  (30) 
0.96

>  <cluster>  (30) 
5

$$$$

     RDKit          3D

 54 57  0  0  0  0  0  0  0  0999 V2000
  138.6750   71.5420  220.6390 O   0  0  0  0  0  0  0  0  0  0  0  0
  138.7800   72.0570  221.7900 C   0  0  0  0  0  0  0  0  0  0  0  0
  138.5260   73.4570  221.9260 N   0  0  0  0  0  0  0  0  0  0  0  0
  138.1660   74.1700  220.7170 C   0  0  0  0  0  0  0  0  0  0  0  0
  138.9160   75.4460  220.5920 C   0  0  0  0  0  0  0  0  0  0  0  0
  139.2610   75.8850  219.4750 O   0  0  0  0  0  0  0  0  0  0  0  0
  139.2700   76.2100  221.7340 N   0  0  0  0  0  0  0  0  0  0  0  0
  138.2170   77.0280  222.3010 C   0  0  0  0  0  0  0  0  0  0  0  0
  138.4410   78.4920  222.1940 C   0  0  0  0  0  0  0  0  0  0  0  0
  139.6300   78.9340  221.4200 C   0  0  0  0  0  0  0  0  0  0  0  0
  140.9590   78.5960  221.9700 C   0  0  0  0  0  0  0  0  0  0  0  0
  141.1110   77.3930  222.8070 C   0  0  0  0  0  0  0  0  0  0  0  0
  140.6430   76.1080  222.2370 C   0  0  2  0  0  0  0  0  0  0  0  0
  141.5330   75.4690  221.2550 C   0  0  0  0  0  0  0  0  0  0  0  0
  142.1900   76.2750  220.3480 C   0  0  0  0  0  0  0  0  0  0  0  0
  143.0390   75.7160  219.4010 C   0  0  0  0  0  0  0  0  0  0  0  0
  143.2670   74.3570  219.3190 C   0  0  0  0  0  0  0  0  0  0  0  0
  144.3420   73.7110  218.1120 Cl  0  0  0  0  0  0  0  0  0  0  0  0
  142.6130   73.5570  220.2210 C   0  0  0  0  0  0  0  0  0  0  0  0
  141.7650   74.1150  221.1670 C   0  0  0  0  0  0  0  0  0  0  0  0
  139.1480   71.2700  222.9610 C   0  0  0  0  0  0  0  0  0  0  0  0
  138.8520   69.9100  222.9530 C   0  0  0  0  0  0  0  0  0  0  0  0
  139.2020   69.1640  224.0660 C   0  0  0  0  0  0  0  0  0  0  0  0
  139.8240   69.7980  225.1270 C   0  0  0  0  0  0  0  0  0  0  0  0
  140.1580   69.0040  226.2290 C   0  0  0  0  0  0  0  0  0  0  0  0
  140.7800   69.6270  227.2920 C   0  0  0  0  0  0  0  0  0  0  0  0
  141.1940   68.6170  228.6710 Cl  0  0  0  0  0  0  0  0  0  0  0  0
  141.0680   70.9880  227.2850 C   0  0  0  0  0  0  0  0  0  0  0  0
  140.7290   71.7500  226.1860 C   0  0  0  0  0  0  0  0  0  0  0  0
  140.1060   71.1500  225.1090 C   0  0  0  0  0  0  0  0  0  0  0  0
  139.7550   71.8580  224.0110 N   0  0  0  0  0  0  0  0  0  0  0  0
  138.6060   73.9080  222.8660 H   0  0  0  0  0  0  0  0  0  0  0  0
  138.3928   73.5357  219.8474 H   0  0  0  0  0  0  0  0  0  0  0  0
  137.0922   74.4045  220.7622 H   0  0  0  0  0  0  0  0  0  0  0  0
  137.2782   76.7864  221.7810 H   0  0  0  0  0  0  0  0  0  0  0  0
  138.1892   76.7963  223.3760 H   0  0  0  0  0  0  0  0  0  0  0  0
  137.5520   78.9305  221.7172 H   0  0  0  0  0  0  0  0  0  0  0  0
  138.6266   78.8304  223.2241 H   0  0  0  0  0  0  0  0  0  0  0  0
  139.5609   78.4807  220.4201 H   0  0  0  0  0  0  0  0  0  0  0  0
  139.5872   80.0330  221.4386 H   0  0  0  0  0  0  0  0  0  0  0  0
  141.6397   78.4787  221.1139 H   0  0  0  0  0  0  0  0  0  0  0  0
  141.1705   79.4230  222.6638 H   0  0  0  0  0  0  0  0  0  0  0  0
  142.1810   77.2829  223.0369 H   0  0  0  0  0  0  0  0  0  0  0  0
  140.4626   77.5697  223.6779 H   0  0  0  0  0  0  0  0  0  0  0  0
  140.6648   75.4194  223.0945 H   0  0  0  0  0  0  0  0  0  0  0  0
  142.0409   77.3645  220.3749 H   0  0  0  0  0  0  0  0  0  0  0  0
  143.5491   76.3818  218.6893 H   0  0  0  0  0  0  0  0  0  0  0  0
  142.7615   72.4674  220.1943 H   0  0  0  0  0  0  0  0  0  0  0  0
  141.2562   73.4466  221.8772 H   0  0  0  0  0  0  0  0  0  0  0  0
  138.3557   69.4425  222.0898 H   0  0  0  0  0  0  0  0  0  0  0  0
  138.9891   68.0855  224.1059 H   0  0  0  0  0  0  0  0  0  0  0  0
  139.9341   67.9272  226.2477 H   0  0  0  0  0  0  0  0  0  0  0  0
  141.5628   71.4536  228.1501 H   0  0  0  0  0  0  0  0  0  0  0  0
  140.9531   72.8268  226.1676 H   0  0  0  0  0  0  0  0  0  0  0  0
  1  2  2  0
  2  3  1  0
  3  4  1  0
  4  5  1  0
  5  6  2  0
  5  7  1  0
  7  8  1  0
  8  9  1  0
  9 10  1  0
 10 11  1  0
 11 12  1  0
 12 13  1  0
 13 14  1  0
 14 15  2  0
 15 16  1  0
 16 17  2  0
 17 18  1  0
 17 19  1  0
 19 20  2  0
  2 21  1  0
 21 22  2  0
 22 23  1  0
 23 24  2  0
 24 25  1  0
 25 26  2  0
 26 27  1  0
 26 28  1  0
 28 29  2  0
 29 30  1  0
 30 31  2  0
 13  7  1  0
 20 14  1  0
 31 21  1  0
 30 24  1  0
  3 32  1  0
  4 33  1  0
  4 34  1  0
  8 35  1  0
  8 36  1  0
  9 37  1  0
  9 38  1  0
 10 39  1  0
 10 40  1  0
 11 41  1  0
 11 42  1  0
 12 43  1  0
 12 44  1  0
 13 45  1  1
 15 46  1  0
 16 47  1  0
 19 48  1  0
 20 49  1  0
 22 50  1  0
 23 51  1  0
 25 52  1  0
 28 53  1  0
 29 54  1  0
M  END
>  <smiles>  (31) 
O=C(NCC(=O)N1CCCCCC1c1ccc(Cl)cc1)c1ccc2cc(Cl)ccc2n1

>  <score_type>  (31) 
oracle

>  <origin>  (31) 
autodockgpu

>  <m_score__min__energy>  (31) 
-6.9299999999999997

>  <m_primary>  (31) 
energy

>  <rmsd>  (31) 
2.874121560820273

>  <m_score__min__rmsd>  (31) 
2.874121560820273

>  <meeko>  (31) 
{"free_energy": -5.77, "intermolecular_energy": -9.05, "internal_energy": -2.24, "cluster_size": 13, "cluster_id": 1, "rank_in_cluster": 11}

>  <energy>  (31) 
-5.48

>  <cluster_rmsd>  (31) 
1.94

>  <cluster>  (31) 
5

$$$$

     RDKit          3D

 54 57  0  0  0  0  0  0  0  0999 V2000
  140.3460   73.4280  222.5520 O   0  0  0  0  0  0  0  0  0  0  0  0
  140.1830   74.1240  221.5090 C   0  0  0  0  0  0  0  0  0  0  0  0
  139.6150   73.4920  220.3600 N   0  0  0  0  0  0  0  0  0  0  0  0
  139.2700   72.0900  220.4970 C   0  0  0  0  0  0  0  0  0  0  0  0
  138.1440   71.8950  221.4450 C   0  0  0  0  0  0  0  0  0  0  0  0
  137.2500   72.7580  221.5710 O   0  0  0  0  0  0  0  0  0  0  0  0
  138.0430   70.7260  222.2420 N   0  0  0  0  0  0  0  0  0  0  0  0
  136.7040   70.3400  222.6360 C   0  0  0  0  0  0  0  0  0  0  0  0
  136.1300   69.2090  221.8650 C   0  0  0  0  0  0  0  0  0  0  0  0
  136.7490   67.8740  222.0710 C   0  0  0  0  0  0  0  0  0  0  0  0
  138.0380   67.8300  222.7910 C   0  0  0  0  0  0  0  0  0  0  0  0
  139.1920   68.5760  222.2620 C   0  0  0  0  0  0  0  0  0  0  0  0
  139.2790   70.0170  222.5910 C   0  0  2  0  0  0  0  0  0  0  0  0
  139.7270   70.3480  223.9530 C   0  0  0  0  0  0  0  0  0  0  0  0
  139.1440   69.6820  225.0110 C   0  0  0  0  0  0  0  0  0  0  0  0
  139.5330   69.9630  226.3150 C   0  0  0  0  0  0  0  0  0  0  0  0
  140.5030   70.9000  226.6140 C   0  0  0  0  0  0  0  0  0  0  0  0
  140.9530   71.2100  228.2670 Cl  0  0  0  0  0  0  0  0  0  0  0  0
  141.0810   71.5600  225.5610 C   0  0  0  0  0  0  0  0  0  0  0  0
  140.6920   71.2810  224.2590 C   0  0  0  0  0  0  0  0  0  0  0  0
  140.5560   75.5330  221.4500 C   0  0  0  0  0  0  0  0  0  0  0  0
  141.4950   75.9220  220.4990 C   0  0  0  0  0  0  0  0  0  0  0  0
  141.8480   77.2600  220.4450 C   0  0  0  0  0  0  0  0  0  0  0  0
  141.2560   78.1430  221.3310 C   0  0  0  0  0  0  0  0  0  0  0  0
  141.6430   79.4840  221.2400 C   0  0  0  0  0  0  0  0  0  0  0  0
  141.0580   80.3730  222.1180 C   0  0  0  0  0  0  0  0  0  0  0  0
  141.5540   82.0550  221.9910 Cl  0  0  0  0  0  0  0  0  0  0  0  0
  140.1210   79.9680  223.0630 C   0  0  0  0  0  0  0  0  0  0  0  0
  139.7540   78.6390  223.1340 C   0  0  0  0  0  0  0  0  0  0  0  0
  140.3260   77.7310  222.2650 C   0  0  0  0  0  0  0  0  0  0  0  0
  139.9970   76.4180  222.2990 N   0  0  0  0  0  0  0  0  0  0  0  0
  139.4700   74.0440  219.4850 H   0  0  0  0  0  0  0  0  0  0  0  0
  138.9798   71.6957  219.5119 H   0  0  0  0  0  0  0  0  0  0  0  0
  140.1477   71.5562  220.8904 H   0  0  0  0  0  0  0  0  0  0  0  0
  136.7291   70.0527  223.6975 H   0  0  0  0  0  0  0  0  0  0  0  0
  136.0599   71.2091  222.4367 H   0  0  0  0  0  0  0  0  0  0  0  0
  135.0668   69.1279  222.1352 H   0  0  0  0  0  0  0  0  0  0  0  0
  136.3206   69.4544  220.8098 H   0  0  0  0  0  0  0  0  0  0  0  0
  136.0326   67.2613  222.6378 H   0  0  0  0  0  0  0  0  0  0  0  0
  136.9777   67.5090  221.0588 H   0  0  0  0  0  0  0  0  0  0  0  0
  137.8501   68.2098  223.8061 H   0  0  0  0  0  0  0  0  0  0  0  0
  138.3478   66.7784  222.7002 H   0  0  0  0  0  0  0  0  0  0  0  0
  140.1021   68.0936  222.6480 H   0  0  0  0  0  0  0  0  0  0  0  0
  139.0720   68.5431  221.1691 H   0  0  0  0  0  0  0  0  0  0  0  0
  140.0977   70.3805  221.9525 H   0  0  0  0  0  0  0  0  0  0  0  0
  138.3682   68.9256  224.8216 H   0  0  0  0  0  0  0  0  0  0  0  0
  139.0504   69.4189  227.1403 H   0  0  0  0  0  0  0  0  0  0  0  0
  141.8580   72.3155  225.7494 H   0  0  0  0  0  0  0  0  0  0  0  0
  141.1750   71.8284  223.4362 H   0  0  0  0  0  0  0  0  0  0  0  0
  141.9428   75.1893  219.8116 H   0  0  0  0  0  0  0  0  0  0  0  0
  142.5862   77.6148  219.7106 H   0  0  0  0  0  0  0  0  0  0  0  0
  142.3841   79.8165  220.4982 H   0  0  0  0  0  0  0  0  0  0  0  0
  139.6750   80.7025  223.7498 H   0  0  0  0  0  0  0  0  0  0  0  0
  139.0129   78.3065  223.8758 H   0  0  0  0  0  0  0  0  0  0  0  0
  1  2  2  0
  2  3  1  0
  3  4  1  0
  4  5  1  0
  5  6  2  0
  5  7  1  0
  7  8  1  0
  8  9  1  0
  9 10  1  0
 10 11  1  0
 11 12  1  0
 12 13  1  0
 13 14  1  0
 14 15  2  0
 15 16  1  0
 16 17  2  0
 17 18  1  0
 17 19  1  0
 19 20  2  0
  2 21  1  0
 21 22  2  0
 22 23  1  0
 23 24  2  0
 24 25  1  0
 25 26  2  0
 26 27  1  0
 26 28  1  0
 28 29  2  0
 29 30  1  0
 30 31  2  0
 13  7  1  0
 20 14  1  0
 31 21  1  0
 30 24  1  0
  3 32  1  0
  4 33  1  0
  4 34  1  0
  8 35  1  0
  8 36  1  0
  9 37  1  0
  9 38  1  0
 10 39  1  0
 10 40  1  0
 11 41  1  0
 11 42  1  0
 12 43  1  0
 12 44  1  0
 13 45  1  6
 15 46  1  0
 16 47  1  0
 19 48  1  0
 20 49  1  0
 22 50  1  0
 23 51  1  0
 25 52  1  0
 28 53  1  0
 29 54  1  0
M  END
>  <smiles>  (32) 
O=C(NCC(=O)N1CCCCCC1c1ccc(Cl)cc1)c1ccc2cc(Cl)ccc2n1

>  <score_type>  (32) 
oracle

>  <origin>  (32) 
autodockgpu

>  <m_score__min__energy>  (32) 
-6.9299999999999997

>  <m_primary>  (32) 
energy

>  <rmsd>  (32) 
8.076626322673244

>  <m_score__min__rmsd>  (32) 
8.076626322673244

>  <meeko>  (32) 
{"free_energy": -5.84, "intermolecular_energy": -9.12, "internal_energy": -1.68, "cluster_size": 3, "cluster_id": 7, "rank_in_cluster": 1}

>  <energy>  (32) 
-5.39

>  <cluster_rmsd>  (32) 
1.73

>  <cluster>  (32) 
5

$$$$

     RDKit          3D

 54 57  0  0  0  0  0  0  0  0999 V2000
  140.4140   73.9420  221.9890 O   0  0  0  0  0  0  0  0  0  0  0  0
  140.0890   72.7260  221.8590 C   0  0  0  0  0  0  0  0  0  0  0  0
  139.7090   72.2660  220.5610 N   0  0  0  0  0  0  0  0  0  0  0  0
  139.7290   73.2480  219.4940 C   0  0  0  0  0  0  0  0  0  0  0  0
  140.7320   72.9040  218.4560 C   0  0  0  0  0  0  0  0  0  0  0  0
  140.3820   72.4800  217.3350 O   0  0  0  0  0  0  0  0  0  0  0  0
  142.1240   73.0430  218.6970 N   0  0  0  0  0  0  0  0  0  0  0  0
  142.8780   73.7440  217.6780 C   0  0  0  0  0  0  0  0  0  0  0  0
  143.0960   75.1880  217.9490 C   0  0  0  0  0  0  0  0  0  0  0  0
  143.7120   75.5400  219.2560 C   0  0  0  0  0  0  0  0  0  0  0  0
  144.2600   74.4320  220.0650 C   0  0  0  0  0  0  0  0  0  0  0  0
  143.3400   73.5140  220.7570 C   0  0  0  0  0  0  0  0  0  0  0  0
  142.6710   72.4790  219.9350 C   0  0  2  0  0  0  0  0  0  0  0  0
  143.4440   71.2540  219.6760 C   0  0  0  0  0  0  0  0  0  0  0  0
  144.7980   71.3730  219.4430 C   0  0  0  0  0  0  0  0  0  0  0  0
  145.5680   70.2450  219.1920 C   0  0  0  0  0  0  0  0  0  0  0  0
  145.0320   68.9720  219.1650 C   0  0  0  0  0  0  0  0  0  0  0  0
  146.0450   67.5920  218.8470 Cl  0  0  0  0  0  0  0  0  0  0  0  0
  143.6860   68.8550  219.3970 C   0  0  0  0  0  0  0  0  0  0  0  0
  142.9170   69.9820  219.6470 C   0  0  0  0  0  0  0  0  0  0  0  0
  140.0950   71.7980  222.9840 C   0  0  0  0  0  0  0  0  0  0  0  0
  139.5760   70.5220  222.7820 C   0  0  0  0  0  0  0  0  0  0  0  0
  139.5820   69.6420  223.8510 C   0  0  0  0  0  0  0  0  0  0  0  0
  140.1000   70.0660  225.0620 C   0  0  0  0  0  0  0  0  0  0  0  0
  140.0840   69.1430  226.1120 C   0  0  0  0  0  0  0  0  0  0  0  0
  140.5990   69.5560  227.3250 C   0  0  0  0  0  0  0  0  0  0  0  0
  140.5740   68.3850  228.6370 Cl  0  0  0  0  0  0  0  0  0  0  0  0
  141.1150   70.8350  227.5110 C   0  0  0  0  0  0  0  0  0  0  0  0
  141.1190   71.7280  226.4590 C   0  0  0  0  0  0  0  0  0  0  0  0
  140.6100   71.3380  225.2360 C   0  0  0  0  0  0  0  0  0  0  0  0
  140.5920   72.1800  224.1760 N   0  0  0  0  0  0  0  0  0  0  0  0
  139.4350   71.2660  220.4260 H   0  0  0  0  0  0  0  0  0  0  0  0
  138.7332   73.2902  219.0286 H   0  0  0  0  0  0  0  0  0  0  0  0
  140.0010   74.2220  219.9269 H   0  0  0  0  0  0  0  0  0  0  0  0
  143.8618   73.2604  217.5865 H   0  0  0  0  0  0  0  0  0  0  0  0
  142.2803   73.6881  216.7563 H   0  0  0  0  0  0  0  0  0  0  0  0
  143.7503   75.5801  217.1565 H   0  0  0  0  0  0  0  0  0  0  0  0
  142.0893   75.6305  217.9771 H   0  0  0  0  0  0  0  0  0  0  0  0
  144.5351   76.2417  219.0555 H   0  0  0  0  0  0  0  0  0  0  0  0
  142.8865   75.9485  219.8574 H   0  0  0  0  0  0  0  0  0  0  0  0
  144.8767   73.8189  219.3914 H   0  0  0  0  0  0  0  0  0  0  0  0
  144.7788   74.9457  220.8878 H   0  0  0  0  0  0  0  0  0  0  0  0
  143.9153   72.9954  221.5381 H   0  0  0  0  0  0  0  0  0  0  0  0
  142.5248   74.1540  221.1256 H   0  0  0  0  0  0  0  0  0  0  0  0
  141.8434   72.1352  220.5729 H   0  0  0  0  0  0  0  0  0  0  0  0
  145.2704   72.3663  219.4560 H   0  0  0  0  0  0  0  0  0  0  0  0
  146.6453   70.3698  219.0077 H   0  0  0  0  0  0  0  0  0  0  0  0
  143.2132   67.8619  219.3848 H   0  0  0  0  0  0  0  0  0  0  0  0
  141.8399   69.8542  219.8300 H   0  0  0  0  0  0  0  0  0  0  0  0
  139.1735   70.2221  221.8032 H   0  0  0  0  0  0  0  0  0  0  0  0
  139.1819   68.6234  223.7395 H   0  0  0  0  0  0  0  0  0  0  0  0
  139.6779   68.1296  225.9775 H   0  0  0  0  0  0  0  0  0  0  0  0
  141.5173   71.1323  228.4907 H   0  0  0  0  0  0  0  0  0  0  0  0
  141.5242   72.7418  226.5935 H   0  0  0  0  0  0  0  0  0  0  0  0
  1  2  2  0
  2  3  1  0
  3  4  1  0
  4  5  1  0
  5  6  2  0
  5  7  1  0
  7  8  1  0
  8  9  1  0
  9 10  1  0
 10 11  1  0
 11 12  1  0
 12 13  1  0
 13 14  1  0
 14 15  2  0
 15 16  1  0
 16 17  2  0
 17 18  1  0
 17 19  1  0
 19 20  2  0
  2 21  1  0
 21 22  2  0
 22 23  1  0
 23 24  2  0
 24 25  1  0
 25 26  2  0
 26 27  1  0
 26 28  1  0
 28 29  2  0
 29 30  1  0
 30 31  2  0
 13  7  1  0
 20 14  1  0
 31 21  1  0
 30 24  1  0
  3 32  1  0
  4 33  1  0
  4 34  1  0
  8 35  1  0
  8 36  1  0
  9 37  1  0
  9 38  1  0
 10 39  1  0
 10 40  1  0
 11 41  1  0
 11 42  1  0
 12 43  1  0
 12 44  1  0
 13 45  1  1
 15 46  1  0
 16 47  1  0
 19 48  1  0
 20 49  1  0
 22 50  1  0
 23 51  1  0
 25 52  1  0
 28 53  1  0
 29 54  1  0
M  END
>  <smiles>  (33) 
O=C(NCC(=O)N1CCCCCC1c1ccc(Cl)cc1)c1ccc2cc(Cl)ccc2n1

>  <score_type>  (33) 
oracle

>  <origin>  (33) 
autodockgpu

>  <m_score__min__energy>  (33) 
-6.9299999999999997

>  <m_primary>  (33) 
energy

>  <rmsd>  (33) 
3.221359207809948

>  <m_score__min__rmsd>  (33) 
3.221359207809948

>  <meeko>  (33) 
{"free_energy": -5.67, "intermolecular_energy": -8.95, "internal_energy": -2.06, "cluster_size": 1, "cluster_id": 10, "rank_in_cluster": 1}

>  <energy>  (33) 
-5.37

>  <cluster_rmsd>  (33) 
1.81

>  <cluster>  (33) 
5

$$$$

     RDKit          3D

 54 57  0  0  0  0  0  0  0  0999 V2000
  136.6500   75.6840  220.9620 O   0  0  0  0  0  0  0  0  0  0  0  0
  137.5550   75.3400  221.7760 C   0  0  0  0  0  0  0  0  0  0  0  0
  137.4760   74.0400  222.3610 N   0  0  0  0  0  0  0  0  0  0  0  0
  136.3490   73.2180  221.9640 C   0  0  0  0  0  0  0  0  0  0  0  0
  136.6820   71.7720  222.0210 C   0  0  0  0  0  0  0  0  0  0  0  0
  135.7980   70.9010  221.8810 O   0  0  0  0  0  0  0  0  0  0  0  0
  138.0120   71.3270  222.2350 N   0  0  0  0  0  0  0  0  0  0  0  0
  138.4690   71.3310  223.6100 C   0  0  0  0  0  0  0  0  0  0  0  0
  138.3800   70.0190  224.2980 C   0  0  0  0  0  0  0  0  0  0  0  0
  138.8890   68.8360  223.5560 C   0  0  0  0  0  0  0  0  0  0  0  0
  138.4310   68.6640  222.1620 C   0  0  0  0  0  0  0  0  0  0  0  0
  139.0610   69.4490  221.0890 C   0  0  0  0  0  0  0  0  0  0  0  0
  138.7970   70.9060  221.0700 C   0  0  2  0  0  0  0  0  0  0  0  0
  139.9640   71.7760  220.8600 C   0  0  0  0  0  0  0  0  0  0  0  0
  139.8500   72.8150  219.9600 C   0  0  0  0  0  0  0  0  0  0  0  0
  140.9270   73.6620  219.7270 C   0  0  0  0  0  0  0  0  0  0  0  0
  142.1400   73.5140  220.3710 C   0  0  0  0  0  0  0  0  0  0  0  0
  143.4550   74.6050  220.0420 Cl  0  0  0  0  0  0  0  0  0  0  0  0
  142.2510   72.4800  221.2660 C   0  0  0  0  0  0  0  0  0  0  0  0
  141.1760   71.6350  221.4970 C   0  0  0  0  0  0  0  0  0  0  0  0
  138.6600   76.2260  222.1250 C   0  0  0  0  0  0  0  0  0  0  0  0
  139.9580   75.7460  221.9680 C   0  0  0  0  0  0  0  0  0  0  0  0
  141.0060   76.5880  222.3000 C   0  0  0  0  0  0  0  0  0  0  0  0
  140.7190   77.8580  222.7680 C   0  0  0  0  0  0  0  0  0  0  0  0
  141.8090   78.6720  223.0910 C   0  0  0  0  0  0  0  0  0  0  0  0
  141.5350   79.9420  223.5580 C   0  0  0  0  0  0  0  0  0  0  0  0
  142.9150   80.9550  223.9600 Cl  0  0  0  0  0  0  0  0  0  0  0  0
  140.2320   80.4070  223.7090 C   0  0  0  0  0  0  0  0  0  0  0  0
  139.1730   79.5840  223.3840 C   0  0  0  0  0  0  0  0  0  0  0  0
  139.4220   78.3100  222.9140 C   0  0  0  0  0  0  0  0  0  0  0  0
  138.4150   77.4690  222.5840 N   0  0  0  0  0  0  0  0  0  0  0  0
  138.2110   73.7310  223.0370 H   0  0  0  0  0  0  0  0  0  0  0  0
  135.5054   73.4173  222.6412 H   0  0  0  0  0  0  0  0  0  0  0  0
  136.0868   73.4707  220.9260 H   0  0  0  0  0  0  0  0  0  0  0  0
  139.5209   71.6524  223.6203 H   0  0  0  0  0  0  0  0  0  0  0  0
  137.8019   72.0138  224.1566 H   0  0  0  0  0  0  0  0  0  0  0  0
  138.9517   70.0953  225.2347 H   0  0  0  0  0  0  0  0  0  0  0  0
  137.3033   69.8352  224.4279 H   0  0  0  0  0  0  0  0  0  0  0  0
  139.9867   68.9044  223.5374 H   0  0  0  0  0  0  0  0  0  0  0  0
  138.4844   67.9674  224.0962 H   0  0  0  0  0  0  0  0  0  0  0  0
  138.5728   67.6033  221.9075 H   0  0  0  0  0  0  0  0  0  0  0  0
  137.3970   69.0388  222.1824 H   0  0  0  0  0  0  0  0  0  0  0  0
  140.1490   69.3112  221.1737 H   0  0  0  0  0  0  0  0  0  0  0  0
  138.6128   69.0682  220.1594 H   0  0  0  0  0  0  0  0  0  0  0  0
  138.1982   71.0504  220.1586 H   0  0  0  0  0  0  0  0  0  0  0  0
  138.9025   72.9739  219.4243 H   0  0  0  0  0  0  0  0  0  0  0  0
  140.8090   74.4812  219.0024 H   0  0  0  0  0  0  0  0  0  0  0  0
  143.1976   72.3205  221.8031 H   0  0  0  0  0  0  0  0  0  0  0  0
  141.2972   70.8160  222.2212 H   0  0  0  0  0  0  0  0  0  0  0  0
  140.1449   74.7293  221.5919 H   0  0  0  0  0  0  0  0  0  0  0  0
  142.0483   76.2531  222.1935 H   0  0  0  0  0  0  0  0  0  0  0  0
  142.8432   78.3149  222.9776 H   0  0  0  0  0  0  0  0  0  0  0  0
  140.0474   81.4241  224.0850 H   0  0  0  0  0  0  0  0  0  0  0  0
  138.1386   79.9403  223.4985 H   0  0  0  0  0  0  0  0  0  0  0  0
  1  2  2  0
  2  3  1  0
  3  4  1  0
  4  5  1  0
  5  6  2  0
  5  7  1  0
  7  8  1  0
  8  9  1  0
  9 10  1  0
 10 11  1  0
 11 12  1  0
 12 13  1  0
 13 14  1  0
 14 15  2  0
 15 16  1  0
 16 17  2  0
 17 18  1  0
 17 19  1  0
 19 20  2  0
  2 21  1  0
 21 22  2  0
 22 23  1  0
 23 24  2  0
 24 25  1  0
 25 26  2  0
 26 27  1  0
 26 28  1  0
 28 29  2  0
 29 30  1  0
 30 31  2  0
 13  7  1  0
 20 14  1  0
 31 21  1  0
 30 24  1  0
  3 32  1  0
  4 33  1  0
  4 34  1  0
  8 35  1  0
  8 36  1  0
  9 37  1  0
  9 38  1  0
 10 39  1  0
 10 40  1  0
 11 41  1  0
 11 42  1  0
 12 43  1  0
 12 44  1  0
 13 45  1  6
 15 46  1  0
 16 47  1  0
 19 48  1  0
 20 49  1  0
 22 50  1  0
 23 51  1  0
 25 52  1  0
 28 53  1  0
 29 54  1  0
M  END
>  <smiles>  (34) 
O=C(NCC(=O)N1CCCCCC1c1ccc(Cl)cc1)c1ccc2cc(Cl)ccc2n1

>  <score_type>  (34) 
oracle

>  <origin>  (34) 
autodockgpu

>  <m_score__min__energy>  (34) 
-6.9299999999999997

>  <m_primary>  (34) 
energy

>  <rmsd>  (34) 
7.6488082724908395

>  <m_score__min__rmsd>  (34) 
7.6488082724908395

>  <meeko>  (34) 
{"free_energy": -4.47, "intermolecular_energy": -7.75, "internal_energy": -2.43, "cluster_size": 1, "cluster_id": 15, "rank_in_cluster": 1}

>  <energy>  (34) 
-5.06

>  <cluster_rmsd>  (34) 
0.84

>  <cluster>  (34) 
5

$$$$

     RDKit          3D

 54 57  0  0  0  0  0  0  0  0999 V2000
  139.7900   72.5090  220.8010 O   0  0  0  0  0  0  0  0  0  0  0  0
  139.7500   72.8430  222.0210 C   0  0  0  0  0  0  0  0  0  0  0  0
  139.5500   74.2220  222.3340 N   0  0  0  0  0  0  0  0  0  0  0  0
  139.4100   75.1280  221.2110 C   0  0  0  0  0  0  0  0  0  0  0  0
  138.7460   76.3950  221.6110 C   0  0  0  0  0  0  0  0  0  0  0  0
  137.5300   76.5800  221.3990 O   0  0  0  0  0  0  0  0  0  0  0  0
  139.4670   77.4390  222.2460 N   0  0  0  0  0  0  0  0  0  0  0  0
  138.6680   78.4970  222.8300 C   0  0  0  0  0  0  0  0  0  0  0  0
  138.9510   79.8550  222.2990 C   0  0  0  0  0  0  0  0  0  0  0  0
  140.1770   80.5300  222.8010 C   0  0  0  0  0  0  0  0  0  0  0  0
  141.4510   79.7910  222.6840 C   0  0  0  0  0  0  0  0  0  0  0  0
  141.5240   78.3930  223.1400 C   0  0  0  0  0  0  0  0  0  0  0  0
  140.9310   77.3600  222.2600 C   0  0  2  0  0  0  0  0  0  0  0  0
  141.4820   77.2700  220.8990 C   0  0  0  0  0  0  0  0  0  0  0  0
  141.2030   78.2900  220.0130 C   0  0  0  0  0  0  0  0  0  0  0  0
  141.6990   78.2470  218.7160 C   0  0  0  0  0  0  0  0  0  0  0  0
  142.4810   77.2060  218.2550 C   0  0  0  0  0  0  0  0  0  0  0  0
  143.0780   77.2050  216.6200 Cl  0  0  0  0  0  0  0  0  0  0  0  0
  142.7580   76.1930  219.1370 C   0  0  0  0  0  0  0  0  0  0  0  0
  142.2620   76.2360  220.4320 C   0  0  0  0  0  0  0  0  0  0  0  0
  139.8980   71.8690  223.0970 C   0  0  0  0  0  0  0  0  0  0  0  0
  139.5190   70.5540  222.8450 C   0  0  0  0  0  0  0  0  0  0  0  0
  139.6600   69.6310  223.8670 C   0  0  0  0  0  0  0  0  0  0  0  0
  140.1690   70.0540  225.0830 C   0  0  0  0  0  0  0  0  0  0  0  0
  140.2940   69.0860  226.0850 C   0  0  0  0  0  0  0  0  0  0  0  0
  140.8010   69.4970  227.3010 C   0  0  0  0  0  0  0  0  0  0  0  0
  140.9530   68.2710  228.5530 Cl  0  0  0  0  0  0  0  0  0  0  0  0
  141.1760   70.8160  227.5370 C   0  0  0  0  0  0  0  0  0  0  0  0
  141.0440   71.7520  226.5320 C   0  0  0  0  0  0  0  0  0  0  0  0
  140.5390   71.3650  225.3060 C   0  0  0  0  0  0  0  0  0  0  0  0
  140.3910   72.2490  224.2920 N   0  0  0  0  0  0  0  0  0  0  0  0
  139.5130   74.5260  223.3340 H   0  0  0  0  0  0  0  0  0  0  0  0
  140.4087   75.3588  220.8117 H   0  0  0  0  0  0  0  0  0  0  0  0
  138.7862   74.6380  220.4489 H   0  0  0  0  0  0  0  0  0  0  0  0
  137.6084   78.2696  222.6417 H   0  0  0  0  0  0  0  0  0  0  0  0
  138.9221   78.5231  223.8999 H   0  0  0  0  0  0  0  0  0  0  0  0
  139.0406   79.7726  221.2058 H   0  0  0  0  0  0  0  0  0  0  0  0
  138.1156   80.4799  222.6478 H   0  0  0  0  0  0  0  0  0  0  0  0
  140.2882   81.4715  222.2432 H   0  0  0  0  0  0  0  0  0  0  0  0
  140.0144   80.6450  223.8828 H   0  0  0  0  0  0  0  0  0  0  0  0
  141.7261   79.7947  221.6190 H   0  0  0  0  0  0  0  0  0  0  0  0
  142.1219   80.3228  223.3748 H   0  0  0  0  0  0  0  0  0  0  0  0
  142.5872   78.1437  223.2724 H   0  0  0  0  0  0  0  0  0  0  0  0
  140.9188   78.3633  224.0581 H   0  0  0  0  0  0  0  0  0  0  0  0
  141.2378   76.4126  222.7273 H   0  0  0  0  0  0  0  0  0  0  0  0
  140.5850   79.1412  220.3349 H   0  0  0  0  0  0  0  0  0  0  0  0
  141.4599   79.0732  218.0303 H   0  0  0  0  0  0  0  0  0  0  0  0
  143.3766   75.3420  218.8160 H   0  0  0  0  0  0  0  0  0  0  0  0
  142.5023   75.4081  221.1153 H   0  0  0  0  0  0  0  0  0  0  0  0
  139.1197   70.2571  221.8640 H   0  0  0  0  0  0  0  0  0  0  0  0
  139.3727   68.5800  223.7156 H   0  0  0  0  0  0  0  0  0  0  0  0
  140.0003   68.0403  225.9109 H   0  0  0  0  0  0  0  0  0  0  0  0
  141.5752   71.1107  228.5187 H   0  0  0  0  0  0  0  0  0  0  0  0
  141.3384   72.7975  226.7056 H   0  0  0  0  0  0  0  0  0  0  0  0
  1  2  2  0
  2  3  1  0
  3  4  1  0
  4  5  1  0
  5  6  2  0
  5  7  1  0
  7  8  1  0
  8  9  1  0
  9 10  1  0
 10 11  1  0
 11 12  1  0
 12 13  1  0
 13 14  1  0
 14 15  2  0
 15 16  1  0
 16 17  2  0
 17 18  1  0
 17 19  1  0
 19 20  2  0
  2 21  1  0
 21 22  2  0
 22 23  1  0
 23 24  2  0
 24 25  1  0
 25 26  2  0
 26 27  1  0
 26 28  1  0
 28 29  2  0
 29 30  1  0
 30 31  2  0
 13  7  1  0
 20 14  1  0
 31 21  1  0
 30 24  1  0
  3 32  1  0
  4 33  1  0
  4 34  1  0
  8 35  1  0
  8 36  1  0
  9 37  1  0
  9 38  1  0
 10 39  1  0
 10 40  1  0
 11 41  1  0
 11 42  1  0
 12 43  1  0
 12 44  1  0
 13 45  1  1
 15 46  1  0
 16 47  1  0
 19 48  1  0
 20 49  1  0
 22 50  1  0
 23 51  1  0
 25 52  1  0
 28 53  1  0
 29 54  1  0
M  END
>  <smiles>  (35) 
O=C(NCC(=O)N1CCCCCC1c1ccc(Cl)cc1)c1ccc2cc(Cl)ccc2n1

>  <score_type>  (35) 
oracle

>  <origin>  (35) 
autodockgpu

>  <m_score__min__energy>  (35) 
-6.9299999999999997

>  <m_primary>  (35) 
energy

>  <rmsd>  (35) 
3.4078540914856803

>  <m_score__min__rmsd>  (35) 
3.4078540914856803

>  <meeko>  (35) 
{"free_energy": -6.93, "intermolecular_energy": -10.21, "internal_energy": -1.68, "cluster_size": 13, "cluster_id": 1, "rank_in_cluster": 1}

>  <energy>  (35) 
-5.84

>  <cluster_rmsd>  (35) 
0.0

>  <cluster>  (35) 
6

$$$$

     RDKit          3D

 54 57  0  0  0  0  0  0  0  0999 V2000
  138.7760   72.2980  220.5330 O   0  0  0  0  0  0  0  0  0  0  0  0
  139.4130   72.6410  221.5700 C   0  0  0  0  0  0  0  0  0  0  0  0
  140.0130   73.9380  221.5930 N   0  0  0  0  0  0  0  0  0  0  0  0
  139.8350   74.7550  220.4090 C   0  0  0  0  0  0  0  0  0  0  0  0
  140.8790   74.4730  219.3900 C   0  0  0  0  0  0  0  0  0  0  0  0
  140.6300   74.5620  218.1700 O   0  0  0  0  0  0  0  0  0  0  0  0
  142.1940   74.0940  219.7650 N   0  0  0  0  0  0  0  0  0  0  0  0
  142.3260   72.7940  220.3880 C   0  0  0  0  0  0  0  0  0  0  0  0
  143.4710   71.9840  219.9000 C   0  0  0  0  0  0  0  0  0  0  0  0
  144.8140   72.3270  220.4390 C   0  0  0  0  0  0  0  0  0  0  0  0
  145.3090   73.6970  220.1980 C   0  0  0  0  0  0  0  0  0  0  0  0
  144.4140   74.8440  220.4360 C   0  0  0  0  0  0  0  0  0  0  0  0
  143.2880   75.0320  219.4920 C   0  0  2  0  0  0  0  0  0  0  0  0
  142.7940   76.4090  219.3340 C   0  0  0  0  0  0  0  0  0  0  0  0
  142.1820   77.0110  220.4140 C   0  0  0  0  0  0  0  0  0  0  0  0
  141.6990   78.3090  220.3120 C   0  0  0  0  0  0  0  0  0  0  0  0
  141.8030   79.0500  219.1510 C   0  0  0  0  0  0  0  0  0  0  0  0
  141.1800   80.6740  219.0780 Cl  0  0  0  0  0  0  0  0  0  0  0  0
  142.4120   78.4500  218.0780 C   0  0  0  0  0  0  0  0  0  0  0  0
  142.8940   77.1540  218.1810 C   0  0  0  0  0  0  0  0  0  0  0  0
  139.5480   71.7600  222.7250 C   0  0  0  0  0  0  0  0  0  0  0  0
  139.0240   70.4740  222.6300 C   0  0  0  0  0  0  0  0  0  0  0  0
  139.1520   69.6390  223.7270 C   0  0  0  0  0  0  0  0  0  0  0  0
  139.7910   70.1160  224.8580 C   0  0  0  0  0  0  0  0  0  0  0  0
  139.8970   69.2360  225.9410 C   0  0  0  0  0  0  0  0  0  0  0  0
  140.5330   69.7010  227.0740 C   0  0  0  0  0  0  0  0  0  0  0  0
  140.6590   68.5860  228.4270 Cl  0  0  0  0  0  0  0  0  0  0  0  0
  141.0520   70.9900  227.1530 C   0  0  0  0  0  0  0  0  0  0  0  0
  140.9350   71.8390  226.0710 C   0  0  0  0  0  0  0  0  0  0  0  0
  140.3030   71.3960  224.9260 C   0  0  0  0  0  0  0  0  0  0  0  0
  140.1650   72.1940  223.8410 N   0  0  0  0  0  0  0  0  0  0  0  0
  140.5460   74.2460  222.4380 H   0  0  0  0  0  0  0  0  0  0  0  0
  138.8463   74.5448  219.9752 H   0  0  0  0  0  0  0  0  0  0  0  0
  139.9172   75.8116  220.7036 H   0  0  0  0  0  0  0  0  0  0  0  0
  142.4496   72.9441  221.4707 H   0  0  0  0  0  0  0  0  0  0  0  0
  141.4163   72.2324  220.1293 H   0  0  0  0  0  0  0  0  0  0  0  0
  143.2683   70.9335  220.1558 H   0  0  0  0  0  0  0  0  0  0  0  0
  143.5320   72.1929  218.8217 H   0  0  0  0  0  0  0  0  0  0  0  0
  144.7825   72.1735  221.5278 H   0  0  0  0  0  0  0  0  0  0  0  0
  145.5125   71.6739  219.8954 H   0  0  0  0  0  0  0  0  0  0  0  0
  146.1883   73.8378  220.8437 H   0  0  0  0  0  0  0  0  0  0  0  0
  145.4794   73.7230  219.1116 H   0  0  0  0  0  0  0  0  0  0  0  0
  143.9858   74.7263  221.4424 H   0  0  0  0  0  0  0  0  0  0  0  0
  145.0490   75.7318  220.2999 H   0  0  0  0  0  0  0  0  0  0  0  0
  143.7284   74.8000  218.5111 H   0  0  0  0  0  0  0  0  0  0  0  0
  142.0761   76.4603  221.3603 H   0  0  0  0  0  0  0  0  0  0  0  0
  141.2154   78.7642  221.1889 H   0  0  0  0  0  0  0  0  0  0  0  0
  142.5184   78.9998  217.1312 H   0  0  0  0  0  0  0  0  0  0  0  0
  143.3775   76.7014  217.3027 H   0  0  0  0  0  0  0  0  0  0  0  0
  138.5238   70.1318  221.7120 H   0  0  0  0  0  0  0  0  0  0  0  0
  138.7527   68.6144  223.7000 H   0  0  0  0  0  0  0  0  0  0  0  0
  139.4900   68.2153  225.8912 H   0  0  0  0  0  0  0  0  0  0  0  0
  141.5522   71.3300  228.0718 H   0  0  0  0  0  0  0  0  0  0  0  0
  141.3418   72.8598  226.1204 H   0  0  0  0  0  0  0  0  0  0  0  0
  1  2  2  0
  2  3  1  0
  3  4  1  0
  4  5  1  0
  5  6  2  0
  5  7  1  0
  7  8  1  0
  8  9  1  0
  9 10  1  0
 10 11  1  0
 11 12  1  0
 12 13  1  0
 13 14  1  0
 14 15  2  0
 15 16  1  0
 16 17  2  0
 17 18  1  0
 17 19  1  0
 19 20  2  0
  2 21  1  0
 21 22  2  0
 22 23  1  0
 23 24  2  0
 24 25  1  0
 25 26  2  0
 26 27  1  0
 26 28  1  0
 28 29  2  0
 29 30  1  0
 30 31  2  0
 13  7  1  0
 20 14  1  0
 31 21  1  0
 30 24  1  0
  3 32  1  0
  4 33  1  0
  4 34  1  0
  8 35  1  0
  8 36  1  0
  9 37  1  0
  9 38  1  0
 10 39  1  0
 10 40  1  0
 11 41  1  0
 11 42  1  0
 12 43  1  0
 12 44  1  0
 13 45  1  6
 15 46  1  0
 16 47  1  0
 19 48  1  0
 20 49  1  0
 22 50  1  0
 23 51  1  0
 25 52  1  0
 28 53  1  0
 29 54  1  0
M  END
>  <smiles>  (36) 
O=C(NCC(=O)N1CCCCCC1c1ccc(Cl)cc1)c1ccc2cc(Cl)ccc2n1

>  <score_type>  (36) 
oracle

>  <origin>  (36) 
autodockgpu

>  <m_score__min__energy>  (36) 
-6.9299999999999997

>  <m_primary>  (36) 
energy

>  <rmsd>  (36) 
3.046148402750872

>  <m_score__min__rmsd>  (36) 
3.046148402750872

>  <meeko>  (36) 
{"free_energy": -5.84, "intermolecular_energy": -9.13, "internal_energy": -1.93, "cluster_size": 11, "cluster_id": 2, "rank_in_cluster": 7}

>  <energy>  (36) 
-5.84

>  <cluster_rmsd>  (36) 
0.0

>  <cluster>  (36) 
7

$$$$

     RDKit          3D

 54 57  0  0  0  0  0  0  0  0999 V2000
  140.3440   72.0570  220.9190 O   0  0  0  0  0  0  0  0  0  0  0  0
  139.6790   72.2730  221.9730 C   0  0  0  0  0  0  0  0  0  0  0  0
  138.8180   73.4120  222.0060 N   0  0  0  0  0  0  0  0  0  0  0  0
  138.7840   74.2320  220.8100 C   0  0  0  0  0  0  0  0  0  0  0  0
  139.7070   75.3900  220.9160 C   0  0  0  0  0  0  0  0  0  0  0  0
  139.6010   76.2160  221.8450 O   0  0  0  0  0  0  0  0  0  0  0  0
  140.7410   75.6000  219.9660 N   0  0  0  0  0  0  0  0  0  0  0  0
  140.3450   75.5470  218.5740 C   0  0  0  0  0  0  0  0  0  0  0  0
  141.4710   75.5340  217.6070 C   0  0  0  0  0  0  0  0  0  0  0  0
  142.3440   76.7370  217.5760 C   0  0  0  0  0  0  0  0  0  0  0  0
  142.2560   77.6660  218.7210 C   0  0  0  0  0  0  0  0  0  0  0  0
  142.5810   77.1960  220.0730 C   0  0  0  0  0  0  0  0  0  0  0  0
  142.0970   75.8520  220.4650 C   0  0  2  0  0  0  0  0  0  0  0  0
  142.9980   74.7250  220.1750 C   0  0  0  0  0  0  0  0  0  0  0  0
  142.4380   73.5170  219.8150 C   0  0  0  0  0  0  0  0  0  0  0  0
  143.2480   72.4250  219.5330 C   0  0  0  0  0  0  0  0  0  0  0  0
  144.6260   72.4880  219.5970 C   0  0  0  0  0  0  0  0  0  0  0  0
  145.5940   71.0880  219.2330 Cl  0  0  0  0  0  0  0  0  0  0  0  0
  145.1820   73.6900  219.9560 C   0  0  0  0  0  0  0  0  0  0  0  0
  144.3720   74.7800  220.2370 C   0  0  0  0  0  0  0  0  0  0  0  0
  139.7680   71.3990  223.1380 C   0  0  0  0  0  0  0  0  0  0  0  0
  139.2220   70.1220  223.0410 C   0  0  0  0  0  0  0  0  0  0  0  0
  139.3080   69.2940  224.1470 C   0  0  0  0  0  0  0  0  0  0  0  0
  139.9270   69.7680  225.2900 C   0  0  0  0  0  0  0  0  0  0  0  0
  139.9890   68.8960  226.3820 C   0  0  0  0  0  0  0  0  0  0  0  0
  140.6060   69.3590  227.5260 C   0  0  0  0  0  0  0  0  0  0  0  0
  140.6770   68.2530  228.8910 Cl  0  0  0  0  0  0  0  0  0  0  0  0
  141.1470   70.6380  227.6080 C   0  0  0  0  0  0  0  0  0  0  0  0
  141.0740   71.4800  226.5170 C   0  0  0  0  0  0  0  0  0  0  0  0
  140.4620   71.0400  225.3600 C   0  0  0  0  0  0  0  0  0  0  0  0
  140.3660   71.8310  224.2660 N   0  0  0  0  0  0  0  0  0  0  0  0
  138.2580   73.6140  222.8650 H   0  0  0  0  0  0  0  0  0  0  0  0
  139.0798   73.6174  219.9470 H   0  0  0  0  0  0  0  0  0  0  0  0
  137.7612   74.6171  220.6853 H   0  0  0  0  0  0  0  0  0  0  0  0
  139.7522   74.6331  218.4214 H   0  0  0  0  0  0  0  0  0  0  0  0
  139.7786   76.4693  218.3777 H   0  0  0  0  0  0  0  0  0  0  0  0
  142.1059   74.6686  217.8477 H   0  0  0  0  0  0  0  0  0  0  0  0
  140.9971   75.4976  216.6150 H   0  0  0  0  0  0  0  0  0  0  0  0
  143.3853   76.3883  217.5123 H   0  0  0  0  0  0  0  0  0  0  0  0
  141.9927   77.3194  216.7114 H   0  0  0  0  0  0  0  0  0  0  0  0
  142.9355   78.5033  218.5038 H   0  0  0  0  0  0  0  0  0  0  0  0
  141.1810   77.8909  218.7826 H   0  0  0  0  0  0  0  0  0  0  0  0
  143.6771   77.1913  220.1655 H   0  0  0  0  0  0  0  0  0  0  0  0
  142.0548   77.8901  220.7448 H   0  0  0  0  0  0  0  0  0  0  0  0
  142.0772   75.8935  221.5640 H   0  0  0  0  0  0  0  0  0  0  0  0
  141.3443   73.4182  219.7510 H   0  0  0  0  0  0  0  0  0  0  0  0
  142.7742   71.4741  219.2479 H   0  0  0  0  0  0  0  0  0  0  0  0
  146.2756   73.7895  220.0212 H   0  0  0  0  0  0  0  0  0  0  0  0
  144.8482   75.7298  220.5218 H   0  0  0  0  0  0  0  0  0  0  0  0
  138.7372   69.7815  222.1141 H   0  0  0  0  0  0  0  0  0  0  0  0
  138.8913   68.2764  224.1176 H   0  0  0  0  0  0  0  0  0  0  0  0
  139.5634   67.8830  226.3308 H   0  0  0  0  0  0  0  0  0  0  0  0
  141.6300   70.9761  228.5367 H   0  0  0  0  0  0  0  0  0  0  0  0
  141.4997   72.4930  226.5686 H   0  0  0  0  0  0  0  0  0  0  0  0
  1  2  2  0
  2  3  1  0
  3  4  1  0
  4  5  1  0
  5  6  2  0
  5  7  1  0
  7  8  1  0
  8  9  1  0
  9 10  1  0
 10 11  1  0
 11 12  1  0
 12 13  1  0
 13 14  1  0
 14 15  2  0
 15 16  1  0
 16 17  2  0
 17 18  1  0
 17 19  1  0
 19 20  2  0
  2 21  1  0
 21 22  2  0
 22 23  1  0
 23 24  2  0
 24 25  1  0
 25 26  2  0
 26 27  1  0
 26 28  1  0
 28 29  2  0
 29 30  1  0
 30 31  2  0
 13  7  1  0
 20 14  1  0
 31 21  1  0
 30 24  1  0
  3 32  1  0
  4 33  1  0
  4 34  1  0
  8 35  1  0
  8 36  1  0
  9 37  1  0
  9 38  1  0
 10 39  1  0
 10 40  1  0
 11 41  1  0
 11 42  1  0
 12 43  1  0
 12 44  1  0
 13 45  1  1
 15 46  1  0
 16 47  1  0
 19 48  1  0
 20 49  1  0
 22 50  1  0
 23 51  1  0
 25 52  1  0
 28 53  1  0
 29 54  1  0
M  END
>  <smiles>  (37) 
O=C(NCC(=O)N1CCCCCC1c1ccc(Cl)cc1)c1ccc2cc(Cl)ccc2n1

>  <score_type>  (37) 
oracle

>  <origin>  (37) 
autodockgpu

>  <m_score__min__energy>  (37) 
-6.9299999999999997

>  <m_primary>  (37) 
energy

>  <rmsd>  (37) 
1.5522701448357057

>  <m_score__min__rmsd>  (37) 
1.5522701448357057

>  <meeko>  (37) 
{"free_energy": -5.06, "intermolecular_energy": -8.34, "internal_energy": -1.84, "cluster_size": 6, "cluster_id": 5, "rank_in_cluster": 6}

>  <energy>  (37) 
-5.82

>  <cluster_rmsd>  (37) 
1.5

>  <cluster>  (37) 
7

$$$$

     RDKit          3D

 54 57  0  0  0  0  0  0  0  0999 V2000
  139.8970   72.0910  220.8600 O   0  0  0  0  0  0  0  0  0  0  0  0
  139.8060   72.4650  222.0650 C   0  0  0  0  0  0  0  0  0  0  0  0
  139.5690   73.8500  222.3240 N   0  0  0  0  0  0  0  0  0  0  0  0
  139.4520   74.7140  221.1660 C   0  0  0  0  0  0  0  0  0  0  0  0
  140.5410   75.7240  221.1270 C   0  0  0  0  0  0  0  0  0  0  0  0
  140.8180   76.4120  222.1310 O   0  0  0  0  0  0  0  0  0  0  0  0
  141.3040   75.9440  219.9510 N   0  0  0  0  0  0  0  0  0  0  0  0
  140.5510   76.2820  218.7600 C   0  0  0  0  0  0  0  0  0  0  0  0
  141.0660   75.6760  217.5060 C   0  0  0  0  0  0  0  0  0  0  0  0
  142.2550   76.3200  216.8890 C   0  0  0  0  0  0  0  0  0  0  0  0
  143.5000   76.3450  217.6840 C   0  0  0  0  0  0  0  0  0  0  0  0
  143.4470   76.7370  219.1020 C   0  0  0  0  0  0  0  0  0  0  0  0
  142.7620   75.8160  220.0380 C   0  0  2  0  0  0  0  0  0  0  0  0
  143.1850   74.4070  219.9920 C   0  0  0  0  0  0  0  0  0  0  0  0
  142.2920   73.4730  219.5120 C   0  0  0  0  0  0  0  0  0  0  0  0
  142.6460   72.1310  219.4510 C   0  0  0  0  0  0  0  0  0  0  0  0
  143.8840   71.6720  219.8570 C   0  0  0  0  0  0  0  0  0  0  0  0
  144.2760   69.9780  219.7580 Cl  0  0  0  0  0  0  0  0  0  0  0  0
  144.7710   72.6020  220.3350 C   0  0  0  0  0  0  0  0  0  0  0  0
  144.4160   73.9420  220.3950 C   0  0  0  0  0  0  0  0  0  0  0  0
  139.9350   71.5320  223.1780 C   0  0  0  0  0  0  0  0  0  0  0  0
  139.5070   70.2210  222.9850 C   0  0  0  0  0  0  0  0  0  0  0  0
  139.6300   69.3360  224.0430 C   0  0  0  0  0  0  0  0  0  0  0  0
  140.1690   69.7900  225.2340 C   0  0  0  0  0  0  0  0  0  0  0  0
  140.2730   68.8600  226.2740 C   0  0  0  0  0  0  0  0  0  0  0  0
  140.8090   69.3020  227.4660 C   0  0  0  0  0  0  0  0  0  0  0  0
  140.9340   68.1230  228.7650 Cl  0  0  0  0  0  0  0  0  0  0  0  0
  141.2320   70.6160  227.6430 C   0  0  0  0  0  0  0  0  0  0  0  0
  141.1200   71.5140  226.6020 C   0  0  0  0  0  0  0  0  0  0  0  0
  140.5860   71.0960  225.3990 C   0  0  0  0  0  0  0  0  0  0  0  0
  140.4560   71.9420  224.3510 N   0  0  0  0  0  0  0  0  0  0  0  0
  139.4900   74.1860  223.3110 H   0  0  0  0  0  0  0  0  0  0  0  0
  139.5020   74.0993  220.2551 H   0  0  0  0  0  0  0  0  0  0  0  0
  138.4909   75.2454  221.2280 H   0  0  0  0  0  0  0  0  0  0  0  0
  139.5141   75.9438  218.9030 H   0  0  0  0  0  0  0  0  0  0  0  0
  140.6385   77.3715  218.6366 H   0  0  0  0  0  0  0  0  0  0  0  0
  141.3300   74.6310  217.7255 H   0  0  0  0  0  0  0  0  0  0  0  0
  140.2568   75.8028  216.7718 H   0  0  0  0  0  0  0  0  0  0  0  0
  142.4716   75.7856  215.9523 H   0  0  0  0  0  0  0  0  0  0  0  0
  141.9743   77.3769  216.7699 H   0  0  0  0  0  0  0  0  0  0  0  0
  143.9229   75.3302  217.6482 H   0  0  0  0  0  0  0  0  0  0  0  0
  144.0892   77.1475  217.2161 H   0  0  0  0  0  0  0  0  0  0  0  0
  144.4836   76.8521  219.4516 H   0  0  0  0  0  0  0  0  0  0  0  0
  142.8422   77.6557  219.1178 H   0  0  0  0  0  0  0  0  0  0  0  0
  143.0973   76.1563  221.0288 H   0  0  0  0  0  0  0  0  0  0  0  0
  141.2944   73.7918  219.1756 H   0  0  0  0  0  0  0  0  0  0  0  0
  141.9132   71.4070  219.0651 H   0  0  0  0  0  0  0  0  0  0  0  0
  145.7686   72.2843  220.6725 H   0  0  0  0  0  0  0  0  0  0  0  0
  145.1504   74.6640  220.7815 H   0  0  0  0  0  0  0  0  0  0  0  0
  139.0843   69.8984  222.0220 H   0  0  0  0  0  0  0  0  0  0  0  0
  139.3049   68.2903  223.9385 H   0  0  0  0  0  0  0  0  0  0  0  0
  139.9410   67.8191  226.1466 H   0  0  0  0  0  0  0  0  0  0  0  0
  141.6531   70.9365  228.6073 H   0  0  0  0  0  0  0  0  0  0  0  0
  141.4533   72.5546  226.7290 H   0  0  0  0  0  0  0  0  0  0  0  0
  1  2  2  0
  2  3  1  0
  3  4  1  0
  4  5  1  0
  5  6  2  0
  5  7  1  0
  7  8  1  0
  8  9  1  0
  9 10  1  0
 10 11  1  0
 11 12  1  0
 12 13  1  0
 13 14  1  0
 14 15  2  0
 15 16  1  0
 16 17  2  0
 17 18  1  0
 17 19  1  0
 19 20  2  0
  2 21  1  0
 21 22  2  0
 22 23  1  0
 23 24  2  0
 24 25  1  0
 25 26  2  0
 26 27  1  0
 26 28  1  0
 28 29  2  0
 29 30  1  0
 30 31  2  0
 13  7  1  0
 20 14  1  0
 31 21  1  0
 30 24  1  0
  3 32  1  0
  4 33  1  0
  4 34  1  0
  8 35  1  0
  8 36  1  0
  9 37  1  0
  9 38  1  0
 10 39  1  0
 10 40  1  0
 11 41  1  0
 11 42  1  0
 12 43  1  0
 12 44  1  0
 13 45  1  1
 15 46  1  0
 16 47  1  0
 19 48  1  0
 20 49  1  0
 22 50  1  0
 23 51  1  0
 25 52  1  0
 28 53  1  0
 29 54  1  0
M  END
>  <smiles>  (38) 
O=C(NCC(=O)N1CCCCCC1c1ccc(Cl)cc1)c1ccc2cc(Cl)ccc2n1

>  <score_type>  (38) 
oracle

>  <origin>  (38) 
autodockgpu

>  <m_score__min__energy>  (38) 
-6.9299999999999997

>  <m_primary>  (38) 
energy

>  <rmsd>  (38) 
1.7761710023752302

>  <m_score__min__rmsd>  (38) 
1.7761710023752302

>  <meeko>  (38) 
{"free_energy": -5.94, "intermolecular_energy": -9.22, "internal_energy": -2.35, "cluster_size": 6, "cluster_id": 5, "rank_in_cluster": 1}

>  <energy>  (38) 
-5.74

>  <cluster_rmsd>  (38) 
1.39

>  <cluster>  (38) 
7

$$$$

     RDKit          3D

 54 57  0  0  0  0  0  0  0  0999 V2000
  138.8570   70.9760  221.3370 O   0  0  0  0  0  0  0  0  0  0  0  0
  139.1390   71.7260  222.3150 C   0  0  0  0  0  0  0  0  0  0  0  0
  138.9400   73.1320  222.1650 N   0  0  0  0  0  0  0  0  0  0  0  0
  138.4250   73.5800  220.8850 C   0  0  0  0  0  0  0  0  0  0  0  0
  138.4740   75.0590  220.7650 C   0  0  0  0  0  0  0  0  0  0  0  0
  138.3520   75.6210  219.6570 O   0  0  0  0  0  0  0  0  0  0  0  0
  138.6620   75.8880  221.9030 N   0  0  0  0  0  0  0  0  0  0  0  0
  137.4770   76.1610  222.6900 C   0  0  0  0  0  0  0  0  0  0  0  0
  136.8240   77.4620  222.3990 C   0  0  0  0  0  0  0  0  0  0  0  0
  137.6500   78.6840  222.5830 C   0  0  0  0  0  0  0  0  0  0  0  0
  139.0180   78.5030  223.1130 C   0  0  0  0  0  0  0  0  0  0  0  0
  140.0410   77.8630  222.2740 C   0  0  0  0  0  0  0  0  0  0  0  0
  140.0130   76.3850  222.1810 C   0  0  2  0  0  0  0  0  0  0  0  0
  141.0100   75.7690  221.2910 C   0  0  0  0  0  0  0  0  0  0  0  0
  141.4620   74.5020  221.5960 C   0  0  0  0  0  0  0  0  0  0  0  0
  142.4050   73.8810  220.7860 C   0  0  0  0  0  0  0  0  0  0  0  0
  142.9270   74.4850  219.6590 C   0  0  0  0  0  0  0  0  0  0  0  0
  144.1060   73.6600  218.6800 Cl  0  0  0  0  0  0  0  0  0  0  0  0
  142.4770   75.7450  219.3580 C   0  0  0  0  0  0  0  0  0  0  0  0
  141.5350   76.3640  220.1670 C   0  0  0  0  0  0  0  0  0  0  0  0
  139.6530   71.1970  223.5740 C   0  0  0  0  0  0  0  0  0  0  0  0
  140.5790   71.9650  224.2750 C   0  0  0  0  0  0  0  0  0  0  0  0
  141.0660   71.4620  225.4700 C   0  0  0  0  0  0  0  0  0  0  0  0
  140.6150   70.2290  225.9090 C   0  0  0  0  0  0  0  0  0  0  0  0
  141.1360   69.7620  227.1200 C   0  0  0  0  0  0  0  0  0  0  0  0
  140.6920   68.5350  227.5680 C   0  0  0  0  0  0  0  0  0  0  0  0
  141.3550   67.9600  229.0920 Cl  0  0  0  0  0  0  0  0  0  0  0  0
  139.7660   67.7800  226.8550 C   0  0  0  0  0  0  0  0  0  0  0  0
  139.2670   68.2620  225.6630 C   0  0  0  0  0  0  0  0  0  0  0  0
  139.6950   69.4880  225.1940 C   0  0  0  0  0  0  0  0  0  0  0  0
  139.2340   70.0000  224.0290 N   0  0  0  0  0  0  0  0  0  0  0  0
  139.1650   73.7750  222.9580 H   0  0  0  0  0  0  0  0  0  0  0  0
  139.0306   73.1361  220.0811 H   0  0  0  0  0  0  0  0  0  0  0  0
  137.3748   73.2624  220.8058 H   0  0  0  0  0  0  0  0  0  0  0  0
  136.7468   75.3609  222.4984 H   0  0  0  0  0  0  0  0  0  0  0  0
  137.8049   76.2063  223.7390 H   0  0  0  0  0  0  0  0  0  0  0  0
  136.4916   77.4401  221.3506 H   0  0  0  0  0  0  0  0  0  0  0  0
  136.0143   77.5487  223.1385 H   0  0  0  0  0  0  0  0  0  0  0  0
  137.7376   79.1746  221.6024 H   0  0  0  0  0  0  0  0  0  0  0  0
  137.1236   79.2680  223.3523 H   0  0  0  0  0  0  0  0  0  0  0  0
  139.3960   79.5033  223.3711 H   0  0  0  0  0  0  0  0  0  0  0  0
  138.8819   77.7921  223.9413 H   0  0  0  0  0  0  0  0  0  0  0  0
  139.9291   78.2608  221.2546 H   0  0  0  0  0  0  0  0  0  0  0  0
  140.9973   78.0980  222.7642 H   0  0  0  0  0  0  0  0  0  0  0  0
  140.3216   76.0556  223.1841 H   0  0  0  0  0  0  0  0  0  0  0  0
  141.0745   73.9811  222.4840 H   0  0  0  0  0  0  0  0  0  0  0  0
  142.7486   72.8706  221.0524 H   0  0  0  0  0  0  0  0  0  0  0  0
  142.8647   76.2674  218.4710 H   0  0  0  0  0  0  0  0  0  0  0  0
  141.1931   77.3743  219.8981 H   0  0  0  0  0  0  0  0  0  0  0  0
  140.9132   72.9404  223.8918 H   0  0  0  0  0  0  0  0  0  0  0  0
  141.7985   72.0324  226.0601 H   0  0  0  0  0  0  0  0  0  0  0  0
  141.8698   70.3490  227.6919 H   0  0  0  0  0  0  0  0  0  0  0  0
  139.4339   66.8045  227.2397 H   0  0  0  0  0  0  0  0  0  0  0  0
  138.5340   67.6745  225.0907 H   0  0  0  0  0  0  0  0  0  0  0  0
  1  2  2  0
  2  3  1  0
  3  4  1  0
  4  5  1  0
  5  6  2  0
  5  7  1  0
  7  8  1  0
  8  9  1  0
  9 10  1  0
 10 11  1  0
 11 12  1  0
 12 13  1  0
 13 14  1  0
 14 15  2  0
 15 16  1  0
 16 17  2  0
 17 18  1  0
 17 19  1  0
 19 20  2  0
  2 21  1  0
 21 22  2  0
 22 23  1  0
 23 24  2  0
 24 25  1  0
 25 26  2  0
 26 27  1  0
 26 28  1  0
 28 29  2  0
 29 30  1  0
 30 31  2  0
 13  7  1  0
 20 14  1  0
 31 21  1  0
 30 24  1  0
  3 32  1  0
  4 33  1  0
  4 34  1  0
  8 35  1  0
  8 36  1  0
  9 37  1  0
  9 38  1  0
 10 39  1  0
 10 40  1  0
 11 41  1  0
 11 42  1  0
 12 43  1  0
 12 44  1  0
 13 45  1  1
 15 46  1  0
 16 47  1  0
 19 48  1  0
 20 49  1  0
 22 50  1  0
 23 51  1  0
 25 52  1  0
 28 53  1  0
 29 54  1  0
M  END
>  <smiles>  (39) 
O=C(NCC(=O)N1CCCCCC1c1ccc(Cl)cc1)c1ccc2cc(Cl)ccc2n1

>  <score_type>  (39) 
oracle

>  <origin>  (39) 
autodockgpu

>  <m_score__min__energy>  (39) 
-6.9299999999999997

>  <m_primary>  (39) 
energy

>  <rmsd>  (39) 
3.584067651118467

>  <m_score__min__rmsd>  (39) 
3.584067651118467

>  <meeko>  (39) 
{"free_energy": -5.86, "intermolecular_energy": -9.14, "internal_energy": -1.9, "cluster_size": 13, "cluster_id": 1, "rank_in_cluster": 10}

>  <energy>  (39) 
-5.82

>  <cluster_rmsd>  (39) 
0.0

>  <cluster>  (39) 
8

$$$$

     RDKit          3D

 54 57  0  0  0  0  0  0  0  0999 V2000
  139.5740   73.9080  222.2290 O   0  0  0  0  0  0  0  0  0  0  0  0
  139.8590   72.6930  222.0230 C   0  0  0  0  0  0  0  0  0  0  0  0
  140.1030   72.2780  220.6780 N   0  0  0  0  0  0  0  0  0  0  0  0
  140.0020   73.3020  219.6560 C   0  0  0  0  0  0  0  0  0  0  0  0
  141.2470   73.3950  218.8520 C   0  0  0  0  0  0  0  0  0  0  0  0
  141.2080   73.6230  217.6250 O   0  0  0  0  0  0  0  0  0  0  0  0
  142.5250   73.2280  219.4460 N   0  0  0  0  0  0  0  0  0  0  0  0
  142.8790   71.8750  219.8220 C   0  0  0  0  0  0  0  0  0  0  0  0
  144.1130   71.3540  219.1800 C   0  0  0  0  0  0  0  0  0  0  0  0
  145.4080   71.8270  219.7350 C   0  0  0  0  0  0  0  0  0  0  0  0
  145.6090   73.2870  219.8310 C   0  0  0  0  0  0  0  0  0  0  0  0
  144.5620   74.1200  220.4450 C   0  0  0  0  0  0  0  0  0  0  0  0
  143.3650   74.4170  219.6250 C   0  0  2  0  0  0  0  0  0  0  0  0
  142.5700   75.5860  220.0330 C   0  0  0  0  0  0  0  0  0  0  0  0
  142.7110   76.7540  219.3130 C   0  0  0  0  0  0  0  0  0  0  0  0
  141.9820   77.8840  219.6620 C   0  0  0  0  0  0  0  0  0  0  0  0
  141.0980   77.8980  220.7220 C   0  0  0  0  0  0  0  0  0  0  0  0
  140.2100   79.3420  221.1150 Cl  0  0  0  0  0  0  0  0  0  0  0  0
  140.9590   76.7350  221.4370 C   0  0  0  0  0  0  0  0  0  0  0  0
  141.6870   75.6070  221.0880 C   0  0  0  0  0  0  0  0  0  0  0  0
  139.9420   71.7210  223.1070 C   0  0  0  0  0  0  0  0  0  0  0  0
  139.5150   70.4210  222.8540 C   0  0  0  0  0  0  0  0  0  0  0  0
  139.5950   69.4990  223.8840 C   0  0  0  0  0  0  0  0  0  0  0  0
  140.0920   69.9090  225.1100 C   0  0  0  0  0  0  0  0  0  0  0  0
  140.1530   68.9440  226.1200 C   0  0  0  0  0  0  0  0  0  0  0  0
  140.6480   69.3410  227.3450 C   0  0  0  0  0  0  0  0  0  0  0  0
  140.7190   68.1180  228.6070 Cl  0  0  0  0  0  0  0  0  0  0  0  0
  141.0700   70.6460  227.5820 C   0  0  0  0  0  0  0  0  0  0  0  0
  141.0000   71.5800  226.5690 C   0  0  0  0  0  0  0  0  0  0  0  0
  140.5090   71.2060  225.3340 C   0  0  0  0  0  0  0  0  0  0  0  0
  140.4210   72.0880  224.3120 N   0  0  0  0  0  0  0  0  0  0  0  0
  140.3400   71.2800  220.4790 H   0  0  0  0  0  0  0  0  0  0  0  0
  139.1628   73.0584  218.9880 H   0  0  0  0  0  0  0  0  0  0  0  0
  139.8396   74.2699  220.1529 H   0  0  0  0  0  0  0  0  0  0  0  0
  143.0231   71.8491  220.9122 H   0  0  0  0  0  0  0  0  0  0  0  0
  142.0553   71.2320  219.4784 H   0  0  0  0  0  0  0  0  0  0  0  0
  144.0950   70.2575  219.2653 H   0  0  0  0  0  0  0  0  0  0  0  0
  144.0847   71.7366  218.1491 H   0  0  0  0  0  0  0  0  0  0  0  0
  145.5043   71.4125  220.7493 H   0  0  0  0  0  0  0  0  0  0  0  0
  146.1666   71.4834  219.0163 H   0  0  0  0  0  0  0  0  0  0  0  0
  146.5285   73.4466  220.4132 H   0  0  0  0  0  0  0  0  0  0  0  0
  145.6225   73.6174  218.7819 H   0  0  0  0  0  0  0  0  0  0  0  0
  144.2202   73.6045  221.3547 H   0  0  0  0  0  0  0  0  0  0  0  0
  145.0394   75.0966  220.6134 H   0  0  0  0  0  0  0  0  0  0  0  0
  143.7833   74.7144  218.6521 H   0  0  0  0  0  0  0  0  0  0  0  0
  143.4034   76.7909  218.4591 H   0  0  0  0  0  0  0  0  0  0  0  0
  142.1143   78.8024  219.0712 H   0  0  0  0  0  0  0  0  0  0  0  0
  140.2669   76.6971  222.2911 H   0  0  0  0  0  0  0  0  0  0  0  0
  141.5526   74.6898  221.6802 H   0  0  0  0  0  0  0  0  0  0  0  0
  139.1258   70.1345  221.8659 H   0  0  0  0  0  0  0  0  0  0  0  0
  139.2696   68.4594  223.7312 H   0  0  0  0  0  0  0  0  0  0  0  0
  139.8199   67.9104  225.9450 H   0  0  0  0  0  0  0  0  0  0  0  0
  141.4572   70.9311  228.5714 H   0  0  0  0  0  0  0  0  0  0  0  0
  141.3325   72.6139  226.7438 H   0  0  0  0  0  0  0  0  0  0  0  0
  1  2  2  0
  2  3  1  0
  3  4  1  0
  4  5  1  0
  5  6  2  0
  5  7  1  0
  7  8  1  0
  8  9  1  0
  9 10  1  0
 10 11  1  0
 11 12  1  0
 12 13  1  0
 13 14  1  0
 14 15  2  0
 15 16  1  0
 16 17  2  0
 17 18  1  0
 17 19  1  0
 19 20  2  0
  2 21  1  0
 21 22  2  0
 22 23  1  0
 23 24  2  0
 24 25  1  0
 25 26  2  0
 26 27  1  0
 26 28  1  0
 28 29  2  0
 29 30  1  0
 30 31  2  0
 13  7  1  0
 20 14  1  0
 31 21  1  0
 30 24  1  0
  3 32  1  0
  4 33  1  0
  4 34  1  0
  8 35  1  0
  8 36  1  0
  9 37  1  0
  9 38  1  0
 10 39  1  0
 10 40  1  0
 11 41  1  0
 11 42  1  0
 12 43  1  0
 12 44  1  0
 13 45  1  6
 15 46  1  0
 16 47  1  0
 19 48  1  0
 20 49  1  0
 22 50  1  0
 23 51  1  0
 25 52  1  0
 28 53  1  0
 29 54  1  0
M  END
>  <smiles>  (40) 
O=C(NCC(=O)N1CCCCCC1c1ccc(Cl)cc1)c1ccc2cc(Cl)ccc2n1

>  <score_type>  (40) 
oracle

>  <origin>  (40) 
autodockgpu

>  <m_score__min__energy>  (40) 
-6.9299999999999997

>  <m_primary>  (40) 
energy

>  <rmsd>  (40) 
3.4127590585183443

>  <m_score__min__rmsd>  (40) 
3.4127590585183443

>  <meeko>  (40) 
{"free_energy": -6.15, "intermolecular_energy": -9.44, "internal_energy": -1.86, "cluster_size": 11, "cluster_id": 2, "rank_in_cluster": 5}

>  <energy>  (40) 
-5.72

>  <cluster_rmsd>  (40) 
0.0

>  <cluster>  (40) 
9

$$$$

     RDKit          3D

 54 57  0  0  0  0  0  0  0  0999 V2000
  138.7080   73.4390  220.5160 O   0  0  0  0  0  0  0  0  0  0  0  0
  138.4580   74.2400  221.4630 C   0  0  0  0  0  0  0  0  0  0  0  0
  137.3270   73.9690  222.2930 N   0  0  0  0  0  0  0  0  0  0  0  0
  136.5570   72.7840  221.9700 C   0  0  0  0  0  0  0  0  0  0  0  0
  136.9920   71.6150  222.7770 C   0  0  0  0  0  0  0  0  0  0  0  0
  136.9450   71.6380  224.0240 O   0  0  0  0  0  0  0  0  0  0  0  0
  137.4760   70.4310  222.1610 N   0  0  0  0  0  0  0  0  0  0  0  0
  136.4970   69.6470  221.4350 C   0  0  0  0  0  0  0  0  0  0  0  0
  136.1350   68.3580  222.0760 C   0  0  0  0  0  0  0  0  0  0  0  0
  137.1500   67.2730  222.0220 C   0  0  0  0  0  0  0  0  0  0  0  0
  138.5290   67.6170  222.4230 C   0  0  0  0  0  0  0  0  0  0  0  0
  139.2070   68.7570  221.7840 C   0  0  0  0  0  0  0  0  0  0  0  0
  138.8990   70.1080  222.3070 C   0  0  2  0  0  0  0  0  0  0  0  0
  139.3860   70.4090  223.6620 C   0  0  0  0  0  0  0  0  0  0  0  0
  140.1900   71.5170  223.8350 C   0  0  0  0  0  0  0  0  0  0  0  0
  140.6760   71.8400  225.0960 C   0  0  0  0  0  0  0  0  0  0  0  0
  140.3860   71.0880  226.2170 C   0  0  0  0  0  0  0  0  0  0  0  0
  141.0220   71.5400  227.7740 Cl  0  0  0  0  0  0  0  0  0  0  0  0
  139.5870   69.9870  226.0430 C   0  0  0  0  0  0  0  0  0  0  0  0
  139.1020   69.6650  224.7840 C   0  0  0  0  0  0  0  0  0  0  0  0
  139.2830   75.4140  221.7240 C   0  0  0  0  0  0  0  0  0  0  0  0
  140.6040   75.3950  221.2830 C   0  0  0  0  0  0  0  0  0  0  0  0
  141.3860   76.5100  221.5320 C   0  0  0  0  0  0  0  0  0  0  0  0
  140.8250   77.5840  222.2010 C   0  0  0  0  0  0  0  0  0  0  0  0
  141.6540   78.6880  222.4290 C   0  0  0  0  0  0  0  0  0  0  0  0
  141.1040   79.7640  223.0950 C   0  0  0  0  0  0  0  0  0  0  0  0
  142.1570   81.1450  223.3750 Cl  0  0  0  0  0  0  0  0  0  0  0  0
  139.7820   79.7670  223.5290 C   0  0  0  0  0  0  0  0  0  0  0  0
  138.9840   78.6660  223.2910 C   0  0  0  0  0  0  0  0  0  0  0  0
  139.5120   77.5770  222.6270 C   0  0  0  0  0  0  0  0  0  0  0  0
  138.7670   76.4760  222.3730 N   0  0  0  0  0  0  0  0  0  0  0  0
  137.0980   74.6150  223.0820 H   0  0  0  0  0  0  0  0  0  0  0  0
  135.4941   72.9823  222.1723 H   0  0  0  0  0  0  0  0  0  0  0  0
  136.7162   72.5481  220.9074 H   0  0  0  0  0  0  0  0  0  0  0  0
  135.5817   70.2490  221.3354 H   0  0  0  0  0  0  0  0  0  0  0  0
  136.9566   69.3946  220.4680 H   0  0  0  0  0  0  0  0  0  0  0  0
  135.9221   68.5618  223.1358 H   0  0  0  0  0  0  0  0  0  0  0  0
  135.2791   67.9799  221.4977 H   0  0  0  0  0  0  0  0  0  0  0  0
  136.8052   66.4644  222.6833 H   0  0  0  0  0  0  0  0  0  0  0  0
  137.2230   67.0064  220.9573 H   0  0  0  0  0  0  0  0  0  0  0  0
  138.5061   67.8230  223.5033 H   0  0  0  0  0  0  0  0  0  0  0  0
  139.1180   66.7484  222.0934 H   0  0  0  0  0  0  0  0  0  0  0  0
  140.2905   68.5999  221.8910 H   0  0  0  0  0  0  0  0  0  0  0  0
  138.8364   68.7628  220.7483 H   0  0  0  0  0  0  0  0  0  0  0  0
  139.4907   70.7765  221.6644 H   0  0  0  0  0  0  0  0  0  0  0  0
  140.4473   72.1473  222.9710 H   0  0  0  0  0  0  0  0  0  0  0  0
  141.3158   72.7281  225.2053 H   0  0  0  0  0  0  0  0  0  0  0  0
  139.3294   69.3560  226.9064 H   0  0  0  0  0  0  0  0  0  0  0  0
  138.4626   68.7762  224.6780 H   0  0  0  0  0  0  0  0  0  0  0  0
  141.0130   74.5218  220.7537 H   0  0  0  0  0  0  0  0  0  0  0  0
  142.4354   76.5418  221.2037 H   0  0  0  0  0  0  0  0  0  0  0  0
  142.7008   78.6977  222.0913 H   0  0  0  0  0  0  0  0  0  0  0  0
  139.3753   80.6412  224.0585 H   0  0  0  0  0  0  0  0  0  0  0  0
  137.9368   78.6565  223.6274 H   0  0  0  0  0  0  0  0  0  0  0  0
  1  2  2  0
  2  3  1  0
  3  4  1  0
  4  5  1  0
  5  6  2  0
  5  7  1  0
  7  8  1  0
  8  9  1  0
  9 10  1  0
 10 11  1  0
 11 12  1  0
 12 13  1  0
 13 14  1  0
 14 15  2  0
 15 16  1  0
 16 17  2  0
 17 18  1  0
 17 19  1  0
 19 20  2  0
  2 21  1  0
 21 22  2  0
 22 23  1  0
 23 24  2  0
 24 25  1  0
 25 26  2  0
 26 27  1  0
 26 28  1  0
 28 29  2  0
 29 30  1  0
 30 31  2  0
 13  7  1  0
 20 14  1  0
 31 21  1  0
 30 24  1  0
  3 32  1  0
  4 33  1  0
  4 34  1  0
  8 35  1  0
  8 36  1  0
  9 37  1  0
  9 38  1  0
 10 39  1  0
 10 40  1  0
 11 41  1  0
 11 42  1  0
 12 43  1  0
 12 44  1  0
 13 45  1  6
 15 46  1  0
 16 47  1  0
 19 48  1  0
 20 49  1  0
 22 50  1  0
 23 51  1  0
 25 52  1  0
 28 53  1  0
 29 54  1  0
M  END
>  <smiles>  (41) 
O=C(NCC(=O)N1CCCCCC1c1ccc(Cl)cc1)c1ccc2cc(Cl)ccc2n1

>  <score_type>  (41) 
oracle

>  <origin>  (41) 
autodockgpu

>  <m_score__min__energy>  (41) 
-6.9299999999999997

>  <m_primary>  (41) 
energy

>  <rmsd>  (41) 
7.724422609250525

>  <m_score__min__rmsd>  (41) 
7.724422609250525

>  <meeko>  (41) 
{"free_energy": -5.74, "intermolecular_energy": -9.02, "internal_energy": -2.14, "cluster_size": 3, "cluster_id": 7, "rank_in_cluster": 3}

>  <energy>  (41) 
-5.67

>  <cluster_rmsd>  (41) 
0.0

>  <cluster>  (41) 
10

$$$$

     RDKit          3D

 54 57  0  0  0  0  0  0  0  0999 V2000
  138.5950   71.5720  220.9500 O   0  0  0  0  0  0  0  0  0  0  0  0
  139.0090   72.0390  222.0510 C   0  0  0  0  0  0  0  0  0  0  0  0
  139.2120   73.4490  222.1490 N   0  0  0  0  0  0  0  0  0  0  0  0
  138.9220   74.2300  220.9620 C   0  0  0  0  0  0  0  0  0  0  0  0
  139.9820   74.0720  219.9340 C   0  0  0  0  0  0  0  0  0  0  0  0
  139.7040   74.0560  218.7170 O   0  0  0  0  0  0  0  0  0  0  0  0
  141.3480   73.9330  220.2950 N   0  0  0  0  0  0  0  0  0  0  0  0
  141.7390   72.6380  220.8130 C   0  0  0  0  0  0  0  0  0  0  0  0
  142.6390   71.8590  219.9240 C   0  0  0  0  0  0  0  0  0  0  0  0
  144.0540   72.3070  219.8440 C   0  0  0  0  0  0  0  0  0  0  0  0
  144.2960   73.7410  219.5840 C   0  0  0  0  0  0  0  0  0  0  0  0
  143.6400   74.7520  220.4270 C   0  0  0  0  0  0  0  0  0  0  0  0
  142.2320   75.0890  220.1160 C   0  0  2  0  0  0  0  0  0  0  0  0
  141.6900   76.2910  220.7690 C   0  0  0  0  0  0  0  0  0  0  0  0
  141.8830   77.5110  220.1530 C   0  0  0  0  0  0  0  0  0  0  0  0
  141.3910   78.6740  220.7330 C   0  0  0  0  0  0  0  0  0  0  0  0
  140.6990   78.6710  221.9280 C   0  0  0  0  0  0  0  0  0  0  0  0
  140.1040   80.1580  222.6090 Cl  0  0  0  0  0  0  0  0  0  0  0  0
  140.5090   77.4580  222.5390 C   0  0  0  0  0  0  0  0  0  0  0  0
  141.0000   76.2970  221.9600 C   0  0  0  0  0  0  0  0  0  0  0  0
  139.2770   71.1860  223.2030 C   0  0  0  0  0  0  0  0  0  0  0  0
  138.8920   69.8500  223.1310 C   0  0  0  0  0  0  0  0  0  0  0  0
  139.1480   69.0410  224.2260 C   0  0  0  0  0  0  0  0  0  0  0  0
  139.7700   69.5920  225.3330 C   0  0  0  0  0  0  0  0  0  0  0  0
  140.0080   68.7380  226.4140 C   0  0  0  0  0  0  0  0  0  0  0  0
  140.6290   69.2770  227.5220 C   0  0  0  0  0  0  0  0  0  0  0  0
  140.9210   68.1910  228.8740 Cl  0  0  0  0  0  0  0  0  0  0  0  0
  141.0080   70.6150  227.5780 C   0  0  0  0  0  0  0  0  0  0  0  0
  140.7630   71.4380  226.4980 C   0  0  0  0  0  0  0  0  0  0  0  0
  140.1430   70.9210  225.3770 C   0  0  0  0  0  0  0  0  0  0  0  0
  139.8820   71.6920  224.2960 N   0  0  0  0  0  0  0  0  0  0  0  0
  139.5530   73.8610  223.0470 H   0  0  0  0  0  0  0  0  0  0  0  0
  137.9625   73.8963  220.5402 H   0  0  0  0  0  0  0  0  0  0  0  0
  138.8756   75.2907  221.2497 H   0  0  0  0  0  0  0  0  0  0  0  0
  142.2556   72.7943  221.7715 H   0  0  0  0  0  0  0  0  0  0  0  0
  140.8141   72.0505  220.9102 H   0  0  0  0  0  0  0  0  0  0  0  0
  142.6391   70.8182  220.2800 H   0  0  0  0  0  0  0  0  0  0  0  0
  142.2348   71.9996  218.9106 H   0  0  0  0  0  0  0  0  0  0  0  0
  144.5340   72.0591  220.8022 H   0  0  0  0  0  0  0  0  0  0  0  0
  144.4662   71.7870  218.9667 H   0  0  0  0  0  0  0  0  0  0  0  0
  145.3801   73.9038  219.6747 H   0  0  0  0  0  0  0  0  0  0  0  0
  143.8480   73.9023  218.5924 H   0  0  0  0  0  0  0  0  0  0  0  0
  143.6705   74.3870  221.4642 H   0  0  0  0  0  0  0  0  0  0  0  0
  144.1994   75.6804  220.2397 H   0  0  0  0  0  0  0  0  0  0  0  0
  142.2600   75.3623  219.0509 H   0  0  0  0  0  0  0  0  0  0  0  0
  142.4284   77.5629  219.1992 H   0  0  0  0  0  0  0  0  0  0  0  0
  141.5591   79.6330  220.2210 H   0  0  0  0  0  0  0  0  0  0  0  0
  139.9644   77.4054  223.4933 H   0  0  0  0  0  0  0  0  0  0  0  0
  140.8306   75.3398  222.4749 H   0  0  0  0  0  0  0  0  0  0  0  0
  138.3998   69.4493  222.2326 H   0  0  0  0  0  0  0  0  0  0  0  0
  138.8619   67.9789  224.2159 H   0  0  0  0  0  0  0  0  0  0  0  0
  139.7121   67.6790  226.3825 H   0  0  0  0  0  0  0  0  0  0  0  0
  141.4997   71.0138  228.4775 H   0  0  0  0  0  0  0  0  0  0  0  0
  141.0589   72.4970  226.5294 H   0  0  0  0  0  0  0  0  0  0  0  0
  1  2  2  0
  2  3  1  0
  3  4  1  0
  4  5  1  0
  5  6  2  0
  5  7  1  0
  7  8  1  0
  8  9  1  0
  9 10  1  0
 10 11  1  0
 11 12  1  0
 12 13  1  0
 13 14  1  0
 14 15  2  0
 15 16  1  0
 16 17  2  0
 17 18  1  0
 17 19  1  0
 19 20  2  0
  2 21  1  0
 21 22  2  0
 22 23  1  0
 23 24  2  0
 24 25  1  0
 25 26  2  0
 26 27  1  0
 26 28  1  0
 28 29  2  0
 29 30  1  0
 30 31  2  0
 13  7  1  0
 20 14  1  0
 31 21  1  0
 30 24  1  0
  3 32  1  0
  4 33  1  0
  4 34  1  0
  8 35  1  0
  8 36  1  0
  9 37  1  0
  9 38  1  0
 10 39  1  0
 10 40  1  0
 11 41  1  0
 11 42  1  0
 12 43  1  0
 12 44  1  0
 13 45  1  6
 15 46  1  0
 16 47  1  0
 19 48  1  0
 20 49  1  0
 22 50  1  0
 23 51  1  0
 25 52  1  0
 28 53  1  0
 29 54  1  0
M  END
>  <smiles>  (42) 
O=C(NCC(=O)N1CCCCCC1c1ccc(Cl)cc1)c1ccc2cc(Cl)ccc2n1

>  <score_type>  (42) 
oracle

>  <origin>  (42) 
autodockgpu

>  <m_score__min__energy>  (42) 
-6.9299999999999997

>  <m_primary>  (42) 
energy

>  <rmsd>  (42) 
2.656769694444409

>  <m_score__min__rmsd>  (42) 
2.656769694444409

>  <meeko>  (42) 
{"free_energy": -6.34, "intermolecular_energy": -9.62, "internal_energy": -2.02, "cluster_size": 11, "cluster_id": 2, "rank_in_cluster": 3}

>  <energy>  (42) 
-5.54

>  <cluster_rmsd>  (42) 
0.0

>  <cluster>  (42) 
11

$$$$

     RDKit          3D

 54 57  0  0  0  0  0  0  0  0999 V2000
  140.0240   72.1350  220.5340 O   0  0  0  0  0  0  0  0  0  0  0  0
  139.6970   72.5370  221.6880 C   0  0  0  0  0  0  0  0  0  0  0  0
  139.2180   73.8760  221.8240 N   0  0  0  0  0  0  0  0  0  0  0  0
  139.1480   74.6650  220.6100 C   0  0  0  0  0  0  0  0  0  0  0  0
  138.8420   76.0890  220.9020 C   0  0  0  0  0  0  0  0  0  0  0  0
  138.1290   76.7660  220.1330 O   0  0  0  0  0  0  0  0  0  0  0  0
  139.3470   76.7310  222.0630 N   0  0  0  0  0  0  0  0  0  0  0  0
  138.3580   77.3170  222.9440 C   0  0  0  0  0  0  0  0  0  0  0  0
  138.3750   78.8010  222.9970 C   0  0  0  0  0  0  0  0  0  0  0  0
  139.4020   79.4900  222.1740 C   0  0  0  0  0  0  0  0  0  0  0  0
  140.8180   79.2530  222.5220 C   0  0  0  0  0  0  0  0  0  0  0  0
  141.2290   77.9360  223.0360 C   0  0  0  0  0  0  0  0  0  0  0  0
  140.7980   76.7430  222.2700 C   0  0  2  0  0  0  0  0  0  0  0  0
  141.5260   76.4750  221.0200 C   0  0  0  0  0  0  0  0  0  0  0  0
  141.5600   77.4650  220.0600 C   0  0  0  0  0  0  0  0  0  0  0  0
  142.2330   77.2570  218.8630 C   0  0  0  0  0  0  0  0  0  0  0  0
  142.8900   76.0760  218.5770 C   0  0  0  0  0  0  0  0  0  0  0  0
  143.7200   75.8700  217.0600 Cl  0  0  0  0  0  0  0  0  0  0  0  0
  142.8550   75.0930  219.5330 C   0  0  0  0  0  0  0  0  0  0  0  0
  142.1830   75.3010  220.7280 C   0  0  0  0  0  0  0  0  0  0  0  0
  139.7950   71.6790  222.8640 C   0  0  0  0  0  0  0  0  0  0  0  0
  139.3050   70.3800  222.7680 C   0  0  0  0  0  0  0  0  0  0  0  0
  139.3990   69.5670  223.8850 C   0  0  0  0  0  0  0  0  0  0  0  0
  139.9720   70.0780  225.0360 C   0  0  0  0  0  0  0  0  0  0  0  0
  140.0450   69.2200  226.1380 C   0  0  0  0  0  0  0  0  0  0  0  0
  140.6160   69.7190  227.2920 C   0  0  0  0  0  0  0  0  0  0  0  0
  140.7010   68.6300  228.6700 Cl  0  0  0  0  0  0  0  0  0  0  0  0
  141.1020   71.0210  227.3710 C   0  0  0  0  0  0  0  0  0  0  0  0
  141.0190   71.8480  226.2700 C   0  0  0  0  0  0  0  0  0  0  0  0
  140.4520   71.3710  225.1040 C   0  0  0  0  0  0  0  0  0  0  0  0
  140.3480   72.1460  224.0000 N   0  0  0  0  0  0  0  0  0  0  0  0
  138.9410   74.2330  222.7670 H   0  0  0  0  0  0  0  0  0  0  0  0
  140.1155   74.6069  220.0899 H   0  0  0  0  0  0  0  0  0  0  0  0
  138.3404   74.2606  219.9821 H   0  0  0  0  0  0  0  0  0  0  0  0
  137.3625   76.9978  222.6018 H   0  0  0  0  0  0  0  0  0  0  0  0
  138.5999   76.9673  223.9585 H   0  0  0  0  0  0  0  0  0  0  0  0
  137.3887   79.1570  222.6645 H   0  0  0  0  0  0  0  0  0  0  0  0
  138.6281   79.0484  224.0385 H   0  0  0  0  0  0  0  0  0  0  0  0
  139.2596   79.1697  221.1313 H   0  0  0  0  0  0  0  0  0  0  0  0
  139.2406   80.5622  222.3594 H   0  0  0  0  0  0  0  0  0  0  0  0
  141.4064   79.4385  221.6113 H   0  0  0  0  0  0  0  0  0  0  0  0
  140.9903   79.9273  223.3739 H   0  0  0  0  0  0  0  0  0  0  0  0
  142.3283   77.9246  223.0744 H   0  0  0  0  0  0  0  0  0  0  0  0
  140.7260   77.8433  224.0098 H   0  0  0  0  0  0  0  0  0  0  0  0
  141.0779   75.9005  222.9195 H   0  0  0  0  0  0  0  0  0  0  0  0
  141.0519   78.4233  220.2433 H   0  0  0  0  0  0  0  0  0  0  0  0
  142.2432   78.0631  218.1146 H   0  0  0  0  0  0  0  0  0  0  0  0
  143.3628   74.1344  219.3507 H   0  0  0  0  0  0  0  0  0  0  0  0
  142.1745   74.4933  221.4747 H   0  0  0  0  0  0  0  0  0  0  0  0
  138.8569   70.0105  221.8338 H   0  0  0  0  0  0  0  0  0  0  0  0
  139.0247   68.5330  223.8577 H   0  0  0  0  0  0  0  0  0  0  0  0
  139.6631   68.1897  226.0875 H   0  0  0  0  0  0  0  0  0  0  0  0
  141.5498   71.3884  228.3062 H   0  0  0  0  0  0  0  0  0  0  0  0
  141.4010   72.8783  226.3200 H   0  0  0  0  0  0  0  0  0  0  0  0
  1  2  2  0
  2  3  1  0
  3  4  1  0
  4  5  1  0
  5  6  2  0
  5  7  1  0
  7  8  1  0
  8  9  1  0
  9 10  1  0
 10 11  1  0
 11 12  1  0
 12 13  1  0
 13 14  1  0
 14 15  2  0
 15 16  1  0
 16 17  2  0
 17 18  1  0
 17 19  1  0
 19 20  2  0
  2 21  1  0
 21 22  2  0
 22 23  1  0
 23 24  2  0
 24 25  1  0
 25 26  2  0
 26 27  1  0
 26 28  1  0
 28 29  2  0
 29 30  1  0
 30 31  2  0
 13  7  1  0
 20 14  1  0
 31 21  1  0
 30 24  1  0
  3 32  1  0
  4 33  1  0
  4 34  1  0
  8 35  1  0
  8 36  1  0
  9 37  1  0
  9 38  1  0
 10 39  1  0
 10 40  1  0
 11 41  1  0
 11 42  1  0
 12 43  1  0
 12 44  1  0
 13 45  1  1
 15 46  1  0
 16 47  1  0
 19 48  1  0
 20 49  1  0
 22 50  1  0
 23 51  1  0
 25 52  1  0
 28 53  1  0
 29 54  1  0
M  END
>  <smiles>  (43) 
O=C(NCC(=O)N1CCCCCC1c1ccc(Cl)cc1)c1ccc2cc(Cl)ccc2n1

>  <score_type>  (43) 
oracle

>  <origin>  (43) 
autodockgpu

>  <m_score__min__energy>  (43) 
-6.9299999999999997

>  <m_primary>  (43) 
energy

>  <rmsd>  (43) 
3.2474966411034405

>  <m_score__min__rmsd>  (43) 
3.2474966411034405

>  <meeko>  (43) 
{"free_energy": -6.48, "intermolecular_energy": -9.76, "internal_energy": -1.84, "cluster_size": 13, "cluster_id": 1, "rank_in_cluster": 3}

>  <energy>  (43) 
-5.23

>  <cluster_rmsd>  (43) 
0.0

>  <cluster>  (43) 
12

$$$$

     RDKit          3D

 54 57  0  0  0  0  0  0  0  0999 V2000
  133.9440   70.2980  226.0380 O   0  0  0  0  0  0  0  0  0  0  0  0
  134.2320   71.4930  225.7420 C   0  0  0  0  0  0  0  0  0  0  0  0
  135.3020   71.7200  224.8230 N   0  0  0  0  0  0  0  0  0  0  0  0
  135.9720   70.5430  224.3060 C   0  0  0  0  0  0  0  0  0  0  0  0
  136.6460   70.8230  223.0120 C   0  0  0  0  0  0  0  0  0  0  0  0
  136.6810   71.9780  222.5400 O   0  0  0  0  0  0  0  0  0  0  0  0
  137.2730   69.7910  222.2670 N   0  0  0  0  0  0  0  0  0  0  0  0
  136.3980   68.9820  221.4430 C   0  0  0  0  0  0  0  0  0  0  0  0
  136.1420   67.6150  221.9640 C   0  0  0  0  0  0  0  0  0  0  0  0
  137.2740   66.6520  221.9050 C   0  0  0  0  0  0  0  0  0  0  0  0
  138.5850   67.1180  222.4020 C   0  0  0  0  0  0  0  0  0  0  0  0
  139.1820   68.3380  221.8370 C   0  0  0  0  0  0  0  0  0  0  0  0
  138.7260   69.6350  222.3880 C   0  0  2  0  0  0  0  0  0  0  0  0
  139.1950   69.9690  223.7410 C   0  0  0  0  0  0  0  0  0  0  0  0
  139.8800   71.1520  223.9210 C   0  0  0  0  0  0  0  0  0  0  0  0
  140.3450   71.5090  225.1810 C   0  0  0  0  0  0  0  0  0  0  0  0
  140.1490   70.7170  226.2950 C   0  0  0  0  0  0  0  0  0  0  0  0
  140.7520   71.2140  227.8510 Cl  0  0  0  0  0  0  0  0  0  0  0  0
  139.4670   69.5400  226.1140 C   0  0  0  0  0  0  0  0  0  0  0  0
  139.0040   69.1850  224.8570 C   0  0  0  0  0  0  0  0  0  0  0  0
  133.5090   72.6280  226.3060 C   0  0  0  0  0  0  0  0  0  0  0  0
  132.3240   72.3720  226.9910 C   0  0  0  0  0  0  0  0  0  0  0  0
  131.6380   73.4500  227.5250 C   0  0  0  0  0  0  0  0  0  0  0  0
  132.1570   74.7220  227.3570 C   0  0  0  0  0  0  0  0  0  0  0  0
  131.4300   75.7780  227.9140 C   0  0  0  0  0  0  0  0  0  0  0  0
  131.9390   77.0510  227.7530 C   0  0  0  0  0  0  0  0  0  0  0  0
  131.0150   78.3700  228.4580 Cl  0  0  0  0  0  0  0  0  0  0  0  0
  133.1260   77.2900  227.0650 C   0  0  0  0  0  0  0  0  0  0  0  0
  133.8250   76.2300  226.5250 C   0  0  0  0  0  0  0  0  0  0  0  0
  133.3360   74.9480  226.6730 C   0  0  0  0  0  0  0  0  0  0  0  0
  133.9880   73.8780  226.1590 N   0  0  0  0  0  0  0  0  0  0  0  0
  135.5600   72.6980  224.5610 H   0  0  0  0  0  0  0  0  0  0  0  0
  136.7246   70.2107  225.0362 H   0  0  0  0  0  0  0  0  0  0  0  0
  135.2160   69.7617  224.1388 H   0  0  0  0  0  0  0  0  0  0  0  0
  135.4324   69.5017  221.3560 H   0  0  0  0  0  0  0  0  0  0  0  0
  136.9104   68.8552  220.4779 H   0  0  0  0  0  0  0  0  0  0  0  0
  135.8416   67.7113  223.0178 H   0  0  0  0  0  0  0  0  0  0  0  0
  135.3712   67.1941  221.3016 H   0  0  0  0  0  0  0  0  0  0  0  0
  136.9896   65.7706  222.4985 H   0  0  0  0  0  0  0  0  0  0  0  0
  137.4289   66.4627  220.8325 H   0  0  0  0  0  0  0  0  0  0  0  0
  138.4756   67.2866  223.4835 H   0  0  0  0  0  0  0  0  0  0  0  0
  139.2775   66.3227  222.0889 H   0  0  0  0  0  0  0  0  0  0  0  0
  140.2692   68.2766  221.9928 H   0  0  0  0  0  0  0  0  0  0  0  0
  138.8602   68.3490  220.7852 H   0  0  0  0  0  0  0  0  0  0  0  0
  139.2253   70.3786  221.7494 H   0  0  0  0  0  0  0  0  0  0  0  0
  140.0593   71.8165  223.0630 H   0  0  0  0  0  0  0  0  0  0  0  0
  140.8895   72.4579  225.2952 H   0  0  0  0  0  0  0  0  0  0  0  0
  139.2869   68.8747  226.9713 H   0  0  0  0  0  0  0  0  0  0  0  0
  138.4601   68.2354  224.7457 H   0  0  0  0  0  0  0  0  0  0  0  0
  131.9447   71.3457  227.1044 H   0  0  0  0  0  0  0  0  0  0  0  0
  130.6966   73.2979  228.0733 H   0  0  0  0  0  0  0  0  0  0  0  0
  130.4906   75.6018  228.4584 H   0  0  0  0  0  0  0  0  0  0  0  0
  133.5038   78.3170  226.9528 H   0  0  0  0  0  0  0  0  0  0  0  0
  134.7647   76.4054  225.9808 H   0  0  0  0  0  0  0  0  0  0  0  0
  1  2  2  0
  2  3  1  0
  3  4  1  0
  4  5  1  0
  5  6  2  0
  5  7  1  0
  7  8  1  0
  8  9  1  0
  9 10  1  0
 10 11  1  0
 11 12  1  0
 12 13  1  0
 13 14  1  0
 14 15  2  0
 15 16  1  0
 16 17  2  0
 17 18  1  0
 17 19  1  0
 19 20  2  0
  2 21  1  0
 21 22  2  0
 22 23  1  0
 23 24  2  0
 24 25  1  0
 25 26  2  0
 26 27  1  0
 26 28  1  0
 28 29  2  0
 29 30  1  0
 30 31  2  0
 13  7  1  0
 20 14  1  0
 31 21  1  0
 30 24  1  0
  3 32  1  0
  4 33  1  0
  4 34  1  0
  8 35  1  0
  8 36  1  0
  9 37  1  0
  9 38  1  0
 10 39  1  0
 10 40  1  0
 11 41  1  0
 11 42  1  0
 12 43  1  0
 12 44  1  0
 13 45  1  6
 15 46  1  0
 16 47  1  0
 19 48  1  0
 20 49  1  0
 22 50  1  0
 23 51  1  0
 25 52  1  0
 28 53  1  0
 29 54  1  0
M  END
>  <smiles>  (44) 
O=C(NCC(=O)N1CCCCCC1c1ccc(Cl)cc1)c1ccc2cc(Cl)ccc2n1

>  <score_type>  (44) 
oracle

>  <origin>  (44) 
autodockgpu

>  <m_score__min__energy>  (44) 
-6.9299999999999997

>  <m_primary>  (44) 
energy

>  <rmsd>  (44) 
8.411602755834979

>  <m_score__min__rmsd>  (44) 
8.411602755834979

>  <meeko>  (44) 
{"free_energy": -5.82, "intermolecular_energy": -9.1, "internal_energy": -2.23, "cluster_size": 1, "cluster_id": 8, "rank_in_cluster": 1}

>  <energy>  (44) 
-4.68

>  <cluster_rmsd>  (44) 
1.84

>  <cluster>  (44) 
12

$$$$

     RDKit          3D

 54 57  0  0  0  0  0  0  0  0999 V2000
  139.9020   73.3900  220.3040 O   0  0  0  0  0  0  0  0  0  0  0  0
  139.6390   73.4930  221.5370 C   0  0  0  0  0  0  0  0  0  0  0  0
  139.3070   74.7850  222.0490 N   0  0  0  0  0  0  0  0  0  0  0  0
  139.3020   75.8770  221.0950 C   0  0  0  0  0  0  0  0  0  0  0  0
  140.5290   76.7060  221.2080 C   0  0  0  0  0  0  0  0  0  0  0  0
  141.5920   76.3640  220.6510 O   0  0  0  0  0  0  0  0  0  0  0  0
  140.5390   77.9140  221.9530 N   0  0  0  0  0  0  0  0  0  0  0  0
  139.3710   78.1640  222.7730 C   0  0  0  0  0  0  0  0  0  0  0  0
  138.8690   79.5600  222.7310 C   0  0  0  0  0  0  0  0  0  0  0  0
  139.6010   80.5620  223.5500 C   0  0  0  0  0  0  0  0  0  0  0  0
  141.0320   80.7670  223.2470 C   0  0  0  0  0  0  0  0  0  0  0  0
  141.9100   79.6000  223.0580 C   0  0  0  0  0  0  0  0  0  0  0  0
  141.7080   78.7900  221.8340 C   0  0  2  0  0  0  0  0  0  0  0  0
  141.7070   79.5260  220.5590 C   0  0  0  0  0  0  0  0  0  0  0  0
  142.0300   78.8380  219.4080 C   0  0  0  0  0  0  0  0  0  0  0  0
  142.0440   79.4910  218.1820 C   0  0  0  0  0  0  0  0  0  0  0  0
  141.7400   80.8320  218.0530 C   0  0  0  0  0  0  0  0  0  0  0  0
  141.7710   81.6000  216.4910 Cl  0  0  0  0  0  0  0  0  0  0  0  0
  141.4180   81.5140  219.1990 C   0  0  0  0  0  0  0  0  0  0  0  0
  141.4050   80.8620  220.4230 C   0  0  0  0  0  0  0  0  0  0  0  0
  139.6660   72.3430  222.4340 C   0  0  0  0  0  0  0  0  0  0  0  0
  139.0040   71.1860  222.0330 C   0  0  0  0  0  0  0  0  0  0  0  0
  139.0300   70.0950  222.8860 C   0  0  0  0  0  0  0  0  0  0  0  0
  139.7080   70.2030  224.0880 C   0  0  0  0  0  0  0  0  0  0  0  0
  139.7070   69.0760  224.9160 C   0  0  0  0  0  0  0  0  0  0  0  0
  140.3810   69.1730  226.1170 C   0  0  0  0  0  0  0  0  0  0  0  0
  140.3710   67.7490  227.1480 Cl  0  0  0  0  0  0  0  0  0  0  0  0
  141.0380   70.3370  226.5020 C   0  0  0  0  0  0  0  0  0  0  0  0
  141.0250   71.4360  225.6680 C   0  0  0  0  0  0  0  0  0  0  0  0
  140.3580   71.3630  224.4610 C   0  0  0  0  0  0  0  0  0  0  0  0
  140.3180   72.4160  223.6110 N   0  0  0  0  0  0  0  0  0  0  0  0
  139.0870   74.8980  223.0640 H   0  0  0  0  0  0  0  0  0  0  0  0
  139.2435   75.4624  220.0778 H   0  0  0  0  0  0  0  0  0  0  0  0
  138.4331   76.5169  221.3084 H   0  0  0  0  0  0  0  0  0  0  0  0
  138.5639   77.4996  222.4308 H   0  0  0  0  0  0  0  0  0  0  0  0
  139.6763   77.9756  223.8129 H   0  0  0  0  0  0  0  0  0  0  0  0
  138.9061   79.8953  221.6840 H   0  0  0  0  0  0  0  0  0  0  0  0
  137.8597   79.5155  223.1662 H   0  0  0  0  0  0  0  0  0  0  0  0
  139.0936   81.5293  223.4205 H   0  0  0  0  0  0  0  0  0  0  0  0
  139.5832   80.1588  224.5733 H   0  0  0  0  0  0  0  0  0  0  0  0
  141.0809   81.3570  222.3199 H   0  0  0  0  0  0  0  0  0  0  0  0
  141.4234   81.2381  224.1607 H   0  0  0  0  0  0  0  0  0  0  0  0
  142.9474   79.9654  223.0451 H   0  0  0  0  0  0  0  0  0  0  0  0
  141.6634   78.9229  223.8891 H   0  0  0  0  0  0  0  0  0  0  0  0
  142.6171   78.1734  221.7773 H   0  0  0  0  0  0  0  0  0  0  0  0
  142.2776   77.7675  219.4611 H   0  0  0  0  0  0  0  0  0  0  0  0
  142.3071   78.9186  217.2802 H   0  0  0  0  0  0  0  0  0  0  0  0
  141.1687   82.5841  219.1468 H   0  0  0  0  0  0  0  0  0  0  0  0
  141.1422   81.4369  221.3232 H   0  0  0  0  0  0  0  0  0  0  0  0
  138.4767   71.1396  221.0688 H   0  0  0  0  0  0  0  0  0  0  0  0
  138.5207   69.1590  222.6130 H   0  0  0  0  0  0  0  0  0  0  0  0
  139.1904   68.1503  224.6224 H   0  0  0  0  0  0  0  0  0  0  0  0
  141.5652   70.3811  227.4664 H   0  0  0  0  0  0  0  0  0  0  0  0
  141.5412   72.3619  225.9618 H   0  0  0  0  0  0  0  0  0  0  0  0
  1  2  2  0
  2  3  1  0
  3  4  1  0
  4  5  1  0
  5  6  2  0
  5  7  1  0
  7  8  1  0
  8  9  1  0
  9 10  1  0
 10 11  1  0
 11 12  1  0
 12 13  1  0
 13 14  1  0
 14 15  2  0
 15 16  1  0
 16 17  2  0
 17 18  1  0
 17 19  1  0
 19 20  2  0
  2 21  1  0
 21 22  2  0
 22 23  1  0
 23 24  2  0
 24 25  1  0
 25 26  2  0
 26 27  1  0
 26 28  1  0
 28 29  2  0
 29 30  1  0
 30 31  2  0
 13  7  1  0
 20 14  1  0
 31 21  1  0
 30 24  1  0
  3 32  1  0
  4 33  1  0
  4 34  1  0
  8 35  1  0
  8 36  1  0
  9 37  1  0
  9 38  1  0
 10 39  1  0
 10 40  1  0
 11 41  1  0
 11 42  1  0
 12 43  1  0
 12 44  1  0
 13 45  1  6
 15 46  1  0
 16 47  1  0
 19 48  1  0
 20 49  1  0
 22 50  1  0
 23 51  1  0
 25 52  1  0
 28 53  1  0
 29 54  1  0
M  END
>  <smiles>  (45) 
O=C(NCC(=O)N1CCCCCC1c1ccc(Cl)cc1)c1ccc2cc(Cl)ccc2n1

>  <score_type>  (45) 
oracle

>  <origin>  (45) 
autodockgpu

>  <m_score__min__energy>  (45) 
-6.9299999999999997

>  <m_primary>  (45) 
energy

>  <rmsd>  (45) 
3.6344947241780066

>  <m_score__min__rmsd>  (45) 
3.6344947241780066

>  <meeko>  (45) 
{"free_energy": -6.71, "intermolecular_energy": -10.0, "internal_energy": -1.26, "cluster_size": 13, "cluster_id": 1, "rank_in_cluster": 2}

>  <energy>  (45) 
-4.47

>  <cluster_rmsd>  (45) 
0.0

>  <cluster>  (45) 
13

$$$$

     RDKit          3D

 54 57  0  0  0  0  0  0  0  0999 V2000
  135.1250   68.5680  225.1490 O   0  0  0  0  0  0  0  0  0  0  0  0
  135.1050   69.7010  224.5870 C   0  0  0  0  0  0  0  0  0  0  0  0
  135.6960   69.8220  223.2920 N   0  0  0  0  0  0  0  0  0  0  0  0
  136.2740   68.6170  222.7300 C   0  0  0  0  0  0  0  0  0  0  0  0
  137.7580   68.6700  222.7380 C   0  0  0  0  0  0  0  0  0  0  0  0
  138.4370   67.6850  223.0980 O   0  0  0  0  0  0  0  0  0  0  0  0
  138.4590   69.8380  222.3400 N   0  0  0  0  0  0  0  0  0  0  0  0
  138.8780   69.8840  220.9540 C   0  0  0  0  0  0  0  0  0  0  0  0
  140.3460   69.9720  220.7500 C   0  0  0  0  0  0  0  0  0  0  0  0
  140.9770   71.2990  220.9790 C   0  0  0  0  0  0  0  0  0  0  0  0
  140.7030   71.9650  222.2690 C   0  0  0  0  0  0  0  0  0  0  0  0
  139.3140   72.0840  222.7440 C   0  0  0  0  0  0  0  0  0  0  0  0
  138.6930   70.8800  223.3440 C   0  0  2  0  0  0  0  0  0  0  0  0
  139.3500   70.3390  224.5440 C   0  0  0  0  0  0  0  0  0  0  0  0
  138.5820   69.6300  225.4440 C   0  0  0  0  0  0  0  0  0  0  0  0
  139.1580   69.1010  226.5920 C   0  0  0  0  0  0  0  0  0  0  0  0
  140.4990   69.2520  226.8870 C   0  0  0  0  0  0  0  0  0  0  0  0
  141.1680   68.5670  228.3400 Cl  0  0  0  0  0  0  0  0  0  0  0  0
  141.2600   69.9570  225.9910 C   0  0  0  0  0  0  0  0  0  0  0  0
  140.6850   70.4850  224.8440 C   0  0  0  0  0  0  0  0  0  0  0  0
  134.5010   70.8690  225.2200 C   0  0  0  0  0  0  0  0  0  0  0  0
  133.5680   70.6550  226.2300 C   0  0  0  0  0  0  0  0  0  0  0  0
  132.9960   71.7650  226.8300 C   0  0  0  0  0  0  0  0  0  0  0  0
  133.3750   73.0250  226.4020 C   0  0  0  0  0  0  0  0  0  0  0  0
  132.7700   74.1150  227.0370 C   0  0  0  0  0  0  0  0  0  0  0  0
  133.1420   75.3760  226.6180 C   0  0  0  0  0  0  0  0  0  0  0  0
  132.3740   76.7380  227.4250 Cl  0  0  0  0  0  0  0  0  0  0  0  0
  134.0770   75.5730  225.6070 C   0  0  0  0  0  0  0  0  0  0  0  0
  134.6600   74.4810  224.9960 C   0  0  0  0  0  0  0  0  0  0  0  0
  134.3050   73.2090  225.3980 C   0  0  0  0  0  0  0  0  0  0  0  0
  134.8500   72.1090  224.8260 N   0  0  0  0  0  0  0  0  0  0  0  0
  135.6930   70.7470  222.8060 H   0  0  0  0  0  0  0  0  0  0  0  0
  135.9441   67.7518  223.3238 H   0  0  0  0  0  0  0  0  0  0  0  0
  135.9376   68.5272  221.6866 H   0  0  0  0  0  0  0  0  0  0  0  0
  138.5176   68.9712  220.4570 H   0  0  0  0  0  0  0  0  0  0  0  0
  138.4509   70.8056  220.5318 H   0  0  0  0  0  0  0  0  0  0  0  0
  140.8207   69.2551  221.4360 H   0  0  0  0  0  0  0  0  0  0  0  0
  140.5011   69.7604  219.6818 H   0  0  0  0  0  0  0  0  0  0  0  0
  142.0660   71.1652  220.9008 H   0  0  0  0  0  0  0  0  0  0  0  0
  140.5316   71.9588  220.2199 H   0  0  0  0  0  0  0  0  0  0  0  0
  141.2581   71.4100  223.0396 H   0  0  0  0  0  0  0  0  0  0  0  0
  141.0047   73.0076  222.0902 H   0  0  0  0  0  0  0  0  0  0  0  0
  139.2920   72.8797  223.5032 H   0  0  0  0  0  0  0  0  0  0  0  0
  138.7230   72.2834  221.8379 H   0  0  0  0  0  0  0  0  0  0  0  0
  137.7255   71.2445  223.7197 H   0  0  0  0  0  0  0  0  0  0  0  0
  137.5090   69.4829  225.2519 H   0  0  0  0  0  0  0  0  0  0  0  0
  138.5220   68.5405  227.2929 H   0  0  0  0  0  0  0  0  0  0  0  0
  142.3330   70.1050  226.1825 H   0  0  0  0  0  0  0  0  0  0  0  0
  141.3237   71.0443  224.1445 H   0  0  0  0  0  0  0  0  0  0  0  0
  133.2933   69.6366  226.5421 H   0  0  0  0  0  0  0  0  0  0  0  0
  132.2534   71.6467  227.6328 H   0  0  0  0  0  0  0  0  0  0  0  0
  132.0286   73.9727  227.8370 H   0  0  0  0  0  0  0  0  0  0  0  0
  134.3500   76.5923  225.2964 H   0  0  0  0  0  0  0  0  0  0  0  0
  135.4011   74.6232  224.1957 H   0  0  0  0  0  0  0  0  0  0  0  0
  1  2  2  0
  2  3  1  0
  3  4  1  0
  4  5  1  0
  5  6  2  0
  5  7  1  0
  7  8  1  0
  8  9  1  0
  9 10  1  0
 10 11  1  0
 11 12  1  0
 12 13  1  0
 13 14  1  0
 14 15  2  0
 15 16  1  0
 16 17  2  0
 17 18  1  0
 17 19  1  0
 19 20  2  0
  2 21  1  0
 21 22  2  0
 22 23  1  0
 23 24  2  0
 24 25  1  0
 25 26  2  0
 26 27  1  0
 26 28  1  0
 28 29  2  0
 29 30  1  0
 30 31  2  0
 13  7  1  0
 20 14  1  0
 31 21  1  0
 30 24  1  0
  3 32  1  0
  4 33  1  0
  4 34  1  0
  8 35  1  0
  8 36  1  0
  9 37  1  0
  9 38  1  0
 10 39  1  0
 10 40  1  0
 11 41  1  0
 11 42  1  0
 12 43  1  0
 12 44  1  0
 13 45  1  1
 15 46  1  0
 16 47  1  0
 19 48  1  0
 20 49  1  0
 22 50  1  0
 23 51  1  0
 25 52  1  0
 28 53  1  0
 29 54  1  0
M  END
>  <smiles>  (46) 
O=C(NCC(=O)N1CCCCCC1c1ccc(Cl)cc1)c1ccc2cc(Cl)ccc2n1

>  <score_type>  (46) 
oracle

>  <origin>  (46) 
autodockgpu

>  <m_score__min__energy>  (46) 
-6.9299999999999997

>  <m_primary>  (46) 
energy

>  <rmsd>  (46) 
6.955197122945175

>  <m_score__min__rmsd>  (46) 
6.955197122945175

>  <meeko>  (46) 
{"free_energy": -5.54, "intermolecular_energy": -8.83, "internal_energy": -2.1, "cluster_size": 1, "cluster_id": 11, "rank_in_cluster": 1}

>  <energy>  (46) 
-4.34

>  <cluster_rmsd>  (46) 
1.2

>  <cluster>  (46) 
13

$$$$

     RDKit          3D

 54 57  0  0  0  0  0  0  0  0999 V2000
  137.8820   71.2330  220.9050 O   0  0  0  0  0  0  0  0  0  0  0  0
  138.2810   71.7850  221.9700 C   0  0  0  0  0  0  0  0  0  0  0  0
  138.2810   73.2130  222.0300 N   0  0  0  0  0  0  0  0  0  0  0  0
  137.8180   73.9100  220.8450 C   0  0  0  0  0  0  0  0  0  0  0  0
  138.6480   75.1070  220.5590 C   0  0  0  0  0  0  0  0  0  0  0  0
  139.0200   75.3710  219.3970 O   0  0  0  0  0  0  0  0  0  0  0  0
  139.0480   75.9940  221.5920 N   0  0  0  0  0  0  0  0  0  0  0  0
  138.0260   76.8920  222.0890 C   0  0  0  0  0  0  0  0  0  0  0  0
  138.2940   78.3330  221.8500 C   0  0  0  0  0  0  0  0  0  0  0  0
  139.2790   78.9900  222.7480 C   0  0  0  0  0  0  0  0  0  0  0  0
  140.4940   78.2250  223.0950 C   0  0  0  0  0  0  0  0  0  0  0  0
  141.0560   77.2710  222.1240 C   0  0  0  0  0  0  0  0  0  0  0  0
  140.4350   75.9270  222.0620 C   0  0  2  0  0  0  0  0  0  0  0  0
  141.1990   74.8900  221.3510 C   0  0  0  0  0  0  0  0  0  0  0  0
  141.1330   73.5940  221.8190 C   0  0  0  0  0  0  0  0  0  0  0  0
  141.8380   72.5820  221.1810 C   0  0  0  0  0  0  0  0  0  0  0  0
  142.6240   72.8130  220.0690 C   0  0  0  0  0  0  0  0  0  0  0  0
  143.4850   71.5060  219.3070 Cl  0  0  0  0  0  0  0  0  0  0  0  0
  142.6890   74.1020  219.6050 C   0  0  0  0  0  0  0  0  0  0  0  0
  141.9850   75.1120  220.2420 C   0  0  0  0  0  0  0  0  0  0  0  0
  138.7320   71.0120  223.1220 C   0  0  0  0  0  0  0  0  0  0  0  0
  138.3810   69.6660  223.1840 C   0  0  0  0  0  0  0  0  0  0  0  0
  138.8100   68.9340  224.2780 C   0  0  0  0  0  0  0  0  0  0  0  0
  139.5620   69.5670  225.2530 C   0  0  0  0  0  0  0  0  0  0  0  0
  139.9720   68.7870  226.3390 C   0  0  0  0  0  0  0  0  0  0  0  0
  140.7230   69.4080  227.3160 C   0  0  0  0  0  0  0  0  0  0  0  0
  141.2320   68.4160  228.6750 Cl  0  0  0  0  0  0  0  0  0  0  0  0
  141.0650   70.7550  227.2390 C   0  0  0  0  0  0  0  0  0  0  0  0
  140.6490   71.5030  226.1570 C   0  0  0  0  0  0  0  0  0  0  0  0
  139.8960   70.9040  225.1670 C   0  0  0  0  0  0  0  0  0  0  0  0
  139.4650   71.5990  224.0880 N   0  0  0  0  0  0  0  0  0  0  0  0
  138.6060   73.6940  222.8990 H   0  0  0  0  0  0  0  0  0  0  0  0
  137.8689   73.2259  219.9851 H   0  0  0  0  0  0  0  0  0  0  0  0
  136.7839   74.2410  221.0212 H   0  0  0  0  0  0  0  0  0  0  0  0
  137.0759   76.6345  221.5981 H   0  0  0  0  0  0  0  0  0  0  0  0
  138.0003   76.7585  223.1806 H   0  0  0  0  0  0  0  0  0  0  0  0
  138.6633   78.4361  220.8190 H   0  0  0  0  0  0  0  0  0  0  0  0
  137.3388   78.8402  222.0509 H   0  0  0  0  0  0  0  0  0  0  0  0
  139.6028   79.9206  222.2590 H   0  0  0  0  0  0  0  0  0  0  0  0
  138.7471   79.1235  223.7015 H   0  0  0  0  0  0  0  0  0  0  0  0
  141.2826   78.9601  223.3135 H   0  0  0  0  0  0  0  0  0  0  0  0
  140.1647   77.5826  223.9250 H   0  0  0  0  0  0  0  0  0  0  0  0
  140.9673   77.7235  221.1253 H   0  0  0  0  0  0  0  0  0  0  0  0
  142.0870   77.0930  222.4637 H   0  0  0  0  0  0  0  0  0  0  0  0
  140.4456   75.5868  223.1080 H   0  0  0  0  0  0  0  0  0  0  0  0
  140.5191   73.3612  222.7016 H   0  0  0  0  0  0  0  0  0  0  0  0
  141.7679   71.5578  221.5761 H   0  0  0  0  0  0  0  0  0  0  0  0
  143.3030   74.3356  218.7227 H   0  0  0  0  0  0  0  0  0  0  0  0
  142.0572   76.1351  219.8446 H   0  0  0  0  0  0  0  0  0  0  0  0
  137.7816   69.1989  222.3887 H   0  0  0  0  0  0  0  0  0  0  0  0
  138.5576   67.8674  224.3710 H   0  0  0  0  0  0  0  0  0  0  0  0
  139.7066   67.7219  226.4114 H   0  0  0  0  0  0  0  0  0  0  0  0
  141.6634   71.2203  228.0361 H   0  0  0  0  0  0  0  0  0  0  0  0
  140.9151   72.5678  226.0837 H   0  0  0  0  0  0  0  0  0  0  0  0
  1  2  2  0
  2  3  1  0
  3  4  1  0
  4  5  1  0
  5  6  2  0
  5  7  1  0
  7  8  1  0
  8  9  1  0
  9 10  1  0
 10 11  1  0
 11 12  1  0
 12 13  1  0
 13 14  1  0
 14 15  2  0
 15 16  1  0
 16 17  2  0
 17 18  1  0
 17 19  1  0
 19 20  2  0
  2 21  1  0
 21 22  2  0
 22 23  1  0
 23 24  2  0
 24 25  1  0
 25 26  2  0
 26 27  1  0
 26 28  1  0
 28 29  2  0
 29 30  1  0
 30 31  2  0
 13  7  1  0
 20 14  1  0
 31 21  1  0
 30 24  1  0
  3 32  1  0
  4 33  1  0
  4 34  1  0
  8 35  1  0
  8 36  1  0
  9 37  1  0
  9 38  1  0
 10 39  1  0
 10 40  1  0
 11 41  1  0
 11 42  1  0
 12 43  1  0
 12 44  1  0
 13 45  1  1
 15 46  1  0
 16 47  1  0
 19 48  1  0
 20 49  1  0
 22 50  1  0
 23 51  1  0
 25 52  1  0
 28 53  1  0
 29 54  1  0
M  END
>  <smiles>  (47) 
O=C(NCC(=O)N1CCCCCC1c1ccc(Cl)cc1)c1ccc2cc(Cl)ccc2n1

>  <score_type>  (47) 
oracle

>  <origin>  (47) 
autodockgpu

>  <m_score__min__energy>  (47) 
-6.9299999999999997

>  <m_primary>  (47) 
energy

>  <rmsd>  (47) 
2.659232741800661

>  <m_score__min__rmsd>  (47) 
2.659232741800661

>  <meeko>  (47) 
{"free_energy": -5.51, "intermolecular_energy": -8.79, "internal_energy": -2.32, "cluster_size": 13, "cluster_id": 1, "rank_in_cluster": 12}

>  <energy>  (47) 
-4.27

>  <cluster_rmsd>  (47) 
0.97

>  <cluster>  (47) 
13

$$$$

     RDKit          3D

 54 57  0  0  0  0  0  0  0  0999 V2000
  138.7140   71.4500  221.0250 O   0  0  0  0  0  0  0  0  0  0  0  0
  139.0890   71.9240  222.1350 C   0  0  0  0  0  0  0  0  0  0  0  0
  139.2470   73.3400  222.2450 N   0  0  0  0  0  0  0  0  0  0  0  0
  138.9590   74.1170  221.0550 C   0  0  0  0  0  0  0  0  0  0  0  0
  140.0500   74.0040  220.0530 C   0  0  0  0  0  0  0  0  0  0  0  0
  139.8000   73.9430  218.8310 O   0  0  0  0  0  0  0  0  0  0  0  0
  141.4130   73.9600  220.4450 N   0  0  0  0  0  0  0  0  0  0  0  0
  141.8520   72.7330  221.0780 C   0  0  0  0  0  0  0  0  0  0  0  0
  142.7020   71.8640  220.2260 C   0  0  0  0  0  0  0  0  0  0  0  0
  144.0810   72.3430  219.9440 C   0  0  0  0  0  0  0  0  0  0  0  0
  144.2340   73.7450  219.5060 C   0  0  0  0  0  0  0  0  0  0  0  0
  143.6880   74.8280  220.3360 C   0  0  0  0  0  0  0  0  0  0  0  0
  142.2470   75.1360  220.1800 C   0  0  2  0  0  0  0  0  0  0  0  0
  141.7540   76.3230  220.8960 C   0  0  0  0  0  0  0  0  0  0  0  0
  141.9860   77.5640  220.3400 C   0  0  0  0  0  0  0  0  0  0  0  0
  141.5410   78.7130  220.9810 C   0  0  0  0  0  0  0  0  0  0  0  0
  140.8560   78.6750  222.1800 C   0  0  0  0  0  0  0  0  0  0  0  0
  140.3190   80.1470  222.9380 Cl  0  0  0  0  0  0  0  0  0  0  0  0
  140.6260   77.4410  222.7310 C   0  0  0  0  0  0  0  0  0  0  0  0
  141.0710   76.2940  222.0910 C   0  0  0  0  0  0  0  0  0  0  0  0
  139.3600   71.0740  223.2900 C   0  0  0  0  0  0  0  0  0  0  0  0
  138.9870   69.7350  223.2160 C   0  0  0  0  0  0  0  0  0  0  0  0
  139.2440   68.9290  224.3130 C   0  0  0  0  0  0  0  0  0  0  0  0
  139.8550   69.4860  225.4220 C   0  0  0  0  0  0  0  0  0  0  0  0
  140.0940   68.6340  226.5050 C   0  0  0  0  0  0  0  0  0  0  0  0
  140.7040   69.1790  227.6170 C   0  0  0  0  0  0  0  0  0  0  0  0
  140.9990   68.0960  228.9710 Cl  0  0  0  0  0  0  0  0  0  0  0  0
  141.0710   70.5200  227.6740 C   0  0  0  0  0  0  0  0  0  0  0  0
  140.8250   71.3410  226.5920 C   0  0  0  0  0  0  0  0  0  0  0  0
  140.2160   70.8180  225.4690 C   0  0  0  0  0  0  0  0  0  0  0  0
  139.9540   71.5860  224.3850 N   0  0  0  0  0  0  0  0  0  0  0  0
  139.5570   73.7580  223.1510 H   0  0  0  0  0  0  0  0  0  0  0  0
  138.0233   73.7512  220.6072 H   0  0  0  0  0  0  0  0  0  0  0  0
  138.8669   75.1736  221.3469 H   0  0  0  0  0  0  0  0  0  0  0  0
  142.4269   72.9984  221.9775 H   0  0  0  0  0  0  0  0  0  0  0  0
  140.9423   72.1557  221.2998 H   0  0  0  0  0  0  0  0  0  0  0  0
  142.7847   70.8873  220.7252 H   0  0  0  0  0  0  0  0  0  0  0  0
  142.1999   71.8411  219.2475 H   0  0  0  0  0  0  0  0  0  0  0  0
  144.6690   72.2185  220.8652 H   0  0  0  0  0  0  0  0  0  0  0  0
  144.4199   71.7409  219.0881 H   0  0  0  0  0  0  0  0  0  0  0  0
  145.3132   73.9324  219.4055 H   0  0  0  0  0  0  0  0  0  0  0  0
  143.6305   73.7952  218.5877 H   0  0  0  0  0  0  0  0  0  0  0  0
  143.8569   74.5564  221.3885 H   0  0  0  0  0  0  0  0  0  0  0  0
  144.2113   75.7356  220.0006 H   0  0  0  0  0  0  0  0  0  0  0  0
  142.1531   75.4149  219.1201 H   0  0  0  0  0  0  0  0  0  0  0  0
  142.5257   77.6439  219.3849 H   0  0  0  0  0  0  0  0  0  0  0  0
  141.7415   79.6898  220.5165 H   0  0  0  0  0  0  0  0  0  0  0  0
  140.0857   77.3602  223.6857 H   0  0  0  0  0  0  0  0  0  0  0  0
  140.8695   75.3188  222.5584 H   0  0  0  0  0  0  0  0  0  0  0  0
  138.5035   69.3297  222.3150 H   0  0  0  0  0  0  0  0  0  0  0  0
  138.9670   67.8645  224.3024 H   0  0  0  0  0  0  0  0  0  0  0  0
  139.8075   67.5725  226.4721 H   0  0  0  0  0  0  0  0  0  0  0  0
  141.5543   70.9234  228.5760 H   0  0  0  0  0  0  0  0  0  0  0  0
  141.1117   72.4025  226.6243 H   0  0  0  0  0  0  0  0  0  0  0  0
  1  2  2  0
  2  3  1  0
  3  4  1  0
  4  5  1  0
  5  6  2  0
  5  7  1  0
  7  8  1  0
  8  9  1  0
  9 10  1  0
 10 11  1  0
 11 12  1  0
 12 13  1  0
 13 14  1  0
 14 15  2  0
 15 16  1  0
 16 17  2  0
 17 18  1  0
 17 19  1  0
 19 20  2  0
  2 21  1  0
 21 22  2  0
 22 23  1  0
 23 24  2  0
 24 25  1  0
 25 26  2  0
 26 27  1  0
 26 28  1  0
 28 29  2  0
 29 30  1  0
 30 31  2  0
 13  7  1  0
 20 14  1  0
 31 21  1  0
 30 24  1  0
  3 32  1  0
  4 33  1  0
  4 34  1  0
  8 35  1  0
  8 36  1  0
  9 37  1  0
  9 38  1  0
 10 39  1  0
 10 40  1  0
 11 41  1  0
 11 42  1  0
 12 43  1  0
 12 44  1  0
 13 45  1  6
 15 46  1  0
 16 47  1  0
 19 48  1  0
 20 49  1  0
 22 50  1  0
 23 51  1  0
 25 52  1  0
 28 53  1  0
 29 54  1  0
M  END
>  <smiles>  (48) 
O=C(NCC(=O)N1CCCCCC1c1ccc(Cl)cc1)c1ccc2cc(Cl)ccc2n1

>  <score_type>  (48) 
oracle

>  <origin>  (48) 
autodockgpu

>  <m_score__min__energy>  (48) 
-6.9299999999999997

>  <m_primary>  (48) 
energy

>  <rmsd>  (48) 
2.6896263678648746

>  <m_score__min__rmsd>  (48) 
2.6896263678648746

>  <meeko>  (48) 
{"free_energy": -6.15, "intermolecular_energy": -9.43, "internal_energy": -2.04, "cluster_size": 11, "cluster_id": 2, "rank_in_cluster": 6}

>  <energy>  (48) 
-4.47

>  <cluster_rmsd>  (48) 
0.0

>  <cluster>  (48) 
14

$$$$

     RDKit          3D

 54 57  0  0  0  0  0  0  0  0999 V2000
  139.3740   71.0420  221.1330 O   0  0  0  0  0  0  0  0  0  0  0  0
  139.2570   71.6950  222.2100 C   0  0  0  0  0  0  0  0  0  0  0  0
  138.6300   72.9770  222.1560 N   0  0  0  0  0  0  0  0  0  0  0  0
  138.1770   73.4210  220.8520 C   0  0  0  0  0  0  0  0  0  0  0  0
  138.7740   74.7300  220.4830 C   0  0  0  0  0  0  0  0  0  0  0  0
  139.1740   74.9520  219.3220 O   0  0  0  0  0  0  0  0  0  0  0  0
  138.9130   75.7730  221.4350 N   0  0  0  0  0  0  0  0  0  0  0  0
  137.6810   76.3750  221.9010 C   0  0  0  0  0  0  0  0  0  0  0  0
  137.5900   77.8430  221.6980 C   0  0  0  0  0  0  0  0  0  0  0  0
  138.3500   78.7000  222.6470 C   0  0  0  0  0  0  0  0  0  0  0  0
  139.7990   78.4440  222.7770 C   0  0  0  0  0  0  0  0  0  0  0  0
  140.4800   77.6090  221.7770 C   0  0  0  0  0  0  0  0  0  0  0  0
  140.2660   76.1450  221.8610 C   0  0  2  0  0  0  0  0  0  0  0  0
  141.2870   75.3010  221.2210 C   0  0  0  0  0  0  0  0  0  0  0  0
  142.1110   75.8750  220.2760 C   0  0  0  0  0  0  0  0  0  0  0  0
  143.0880   75.1170  219.6440 C   0  0  0  0  0  0  0  0  0  0  0  0
  143.2830   73.7780  219.9220 C   0  0  0  0  0  0  0  0  0  0  0  0
  144.5240   72.8750  219.1000 Cl  0  0  0  0  0  0  0  0  0  0  0  0
  142.4630   73.2080  220.8620 C   0  0  0  0  0  0  0  0  0  0  0  0
  141.4870   73.9660  221.4930 C   0  0  0  0  0  0  0  0  0  0  0  0
  139.7400   71.1780  223.4860 C   0  0  0  0  0  0  0  0  0  0  0  0
  140.6120   71.9730  224.2250 C   0  0  0  0  0  0  0  0  0  0  0  0
  141.0690   71.4810  225.4370 C   0  0  0  0  0  0  0  0  0  0  0  0
  140.6410   70.2320  225.8550 C   0  0  0  0  0  0  0  0  0  0  0  0
  141.1300   69.7770  227.0830 C   0  0  0  0  0  0  0  0  0  0  0  0
  140.7090   68.5340  227.5100 C   0  0  0  0  0  0  0  0  0  0  0  0
  141.3300   67.9740  229.0570 Cl  0  0  0  0  0  0  0  0  0  0  0  0
  139.8360   67.7520  226.7590 C   0  0  0  0  0  0  0  0  0  0  0  0
  139.3680   68.2240  225.5500 C   0  0  0  0  0  0  0  0  0  0  0  0
  139.7750   69.4650  225.1020 C   0  0  0  0  0  0  0  0  0  0  0  0
  139.3420   69.9670  223.9210 N   0  0  0  0  0  0  0  0  0  0  0  0
  138.5200   73.5380  223.0310 H   0  0  0  0  0  0  0  0  0  0  0  0
  138.4655   72.6721  220.0997 H   0  0  0  0  0  0  0  0  0  0  0  0
  137.0840   73.5392  220.8891 H   0  0  0  0  0  0  0  0  0  0  0  0
  136.8449   75.9028  221.3643 H   0  0  0  0  0  0  0  0  0  0  0  0
  137.6473   76.2099  222.9880 H   0  0  0  0  0  0  0  0  0  0  0  0
  137.9572   78.0621  220.6845 H   0  0  0  0  0  0  0  0  0  0  0  0
  136.5323   78.0921  221.8692 H   0  0  0  0  0  0  0  0  0  0  0  0
  138.2263   79.7436  222.3221 H   0  0  0  0  0  0  0  0  0  0  0  0
  137.9313   78.4666  223.6370 H   0  0  0  0  0  0  0  0  0  0  0  0
  140.2988   79.4239  222.7692 H   0  0  0  0  0  0  0  0  0  0  0  0
  139.8745   77.8526  223.7014 H   0  0  0  0  0  0  0  0  0  0  0  0
  140.1393   77.9372  220.7839 H   0  0  0  0  0  0  0  0  0  0  0  0
  141.5534   77.7512  221.9711 H   0  0  0  0  0  0  0  0  0  0  0  0
  140.3814   75.9251  222.9326 H   0  0  0  0  0  0  0  0  0  0  0  0
  141.9938   76.9387  220.0215 H   0  0  0  0  0  0  0  0  0  0  0  0
  143.7307   75.6010  218.8939 H   0  0  0  0  0  0  0  0  0  0  0  0
  142.5796   72.1444  221.1170 H   0  0  0  0  0  0  0  0  0  0  0  0
  140.8455   73.4796  222.2426 H   0  0  0  0  0  0  0  0  0  0  0  0
  140.9282   72.9607  223.8582 H   0  0  0  0  0  0  0  0  0  0  0  0
  141.7597   72.0721  226.0563 H   0  0  0  0  0  0  0  0  0  0  0  0
  141.8220   70.3848  227.6843 H   0  0  0  0  0  0  0  0  0  0  0  0
  139.5214   66.7643  227.1270 H   0  0  0  0  0  0  0  0  0  0  0  0
  138.6762   67.6166  224.9479 H   0  0  0  0  0  0  0  0  0  0  0  0
  1  2  2  0
  2  3  1  0
  3  4  1  0
  4  5  1  0
  5  6  2  0
  5  7  1  0
  7  8  1  0
  8  9  1  0
  9 10  1  0
 10 11  1  0
 11 12  1  0
 12 13  1  0
 13 14  1  0
 14 15  2  0
 15 16  1  0
 16 17  2  0
 17 18  1  0
 17 19  1  0
 19 20  2  0
  2 21  1  0
 21 22  2  0
 22 23  1  0
 23 24  2  0
 24 25  1  0
 25 26  2  0
 26 27  1  0
 26 28  1  0
 28 29  2  0
 29 30  1  0
 30 31  2  0
 13  7  1  0
 20 14  1  0
 31 21  1  0
 30 24  1  0
  3 32  1  0
  4 33  1  0
  4 34  1  0
  8 35  1  0
  8 36  1  0
  9 37  1  0
  9 38  1  0
 10 39  1  0
 10 40  1  0
 11 41  1  0
 11 42  1  0
 12 43  1  0
 12 44  1  0
 13 45  1  1
 15 46  1  0
 16 47  1  0
 19 48  1  0
 20 49  1  0
 22 50  1  0
 23 51  1  0
 25 52  1  0
 28 53  1  0
 29 54  1  0
M  END
>  <smiles>  (49) 
O=C(NCC(=O)N1CCCCCC1c1ccc(Cl)cc1)c1ccc2cc(Cl)ccc2n1

>  <score_type>  (49) 
oracle

>  <origin>  (49) 
autodockgpu

>  <m_score__min__energy>  (49) 
-6.9299999999999997

>  <m_primary>  (49) 
energy

>  <rmsd>  (49) 
3.334129895260899

>  <m_score__min__rmsd>  (49) 
3.334129895260899

>  <meeko>  (49) 
{"free_energy": -5.88, "intermolecular_energy": -9.16, "internal_energy": -1.9, "cluster_size": 13, "cluster_id": 1, "rank_in_cluster": 9}

>  <energy>  (49) 
-4.47

>  <cluster_rmsd>  (49) 
0.0

>  <cluster>  (49) 
15

$$$$

     RDKit          3D

 54 57  0  0  0  0  0  0  0  0999 V2000
  136.8010   75.1270  220.3360 O   0  0  0  0  0  0  0  0  0  0  0  0
  136.9850   74.9520  221.5750 C   0  0  0  0  0  0  0  0  0  0  0  0
  138.0320   74.0690  221.9830 N   0  0  0  0  0  0  0  0  0  0  0  0
  138.8000   73.4430  220.9240 C   0  0  0  0  0  0  0  0  0  0  0  0
  140.2580   73.5190  221.1910 C   0  0  0  0  0  0  0  0  0  0  0  0
  140.7100   73.3910  222.3470 O   0  0  0  0  0  0  0  0  0  0  0  0
  141.1910   73.7390  220.1440 N   0  0  0  0  0  0  0  0  0  0  0  0
  141.7420   72.5510  219.5250 C   0  0  0  0  0  0  0  0  0  0  0  0
  143.0530   72.1160  220.0720 C   0  0  0  0  0  0  0  0  0  0  0  0
  144.1590   73.1080  220.0310 C   0  0  0  0  0  0  0  0  0  0  0  0
  143.8500   74.4840  220.4700 C   0  0  0  0  0  0  0  0  0  0  0  0
  142.9710   75.3280  219.6450 C   0  0  0  0  0  0  0  0  0  0  0  0
  141.5100   75.1230  219.7810 C   0  0  2  0  0  0  0  0  0  0  0  0
  140.7950   76.0850  220.6350 C   0  0  0  0  0  0  0  0  0  0  0  0
  139.6930   76.7280  220.1120 C   0  0  0  0  0  0  0  0  0  0  0  0
  138.9870   77.6460  220.8800 C   0  0  0  0  0  0  0  0  0  0  0  0
  139.3420   77.9550  222.1780 C   0  0  0  0  0  0  0  0  0  0  0  0
  138.4210   79.1130  223.0960 Cl  0  0  0  0  0  0  0  0  0  0  0  0
  140.4380   77.3150  222.6970 C   0  0  0  0  0  0  0  0  0  0  0  0
  141.1430   76.3990  221.9300 C   0  0  0  0  0  0  0  0  0  0  0  0
  136.1680   75.6210  222.5820 C   0  0  0  0  0  0  0  0  0  0  0  0
  135.7490   76.9230  222.3240 C   0  0  0  0  0  0  0  0  0  0  0  0
  134.9740   77.5560  223.2800 C   0  0  0  0  0  0  0  0  0  0  0  0
  134.6520   76.8720  224.4400 C   0  0  0  0  0  0  0  0  0  0  0  0
  133.8670   77.5520  225.3760 C   0  0  0  0  0  0  0  0  0  0  0  0
  133.5400   76.8780  226.5360 C   0  0  0  0  0  0  0  0  0  0  0  0
  132.5530   77.7450  227.7050 Cl  0  0  0  0  0  0  0  0  0  0  0  0
  133.9670   75.5760  226.7780 C   0  0  0  0  0  0  0  0  0  0  0  0
  134.7400   74.9260  225.8380 C   0  0  0  0  0  0  0  0  0  0  0  0
  135.0800   75.5800  224.6700 C   0  0  0  0  0  0  0  0  0  0  0  0
  135.8380   74.9820  223.7210 N   0  0  0  0  0  0  0  0  0  0  0  0
  138.2050   73.9070  223.0010 H   0  0  0  0  0  0  0  0  0  0  0  0
  138.5056   72.3860  220.8459 H   0  0  0  0  0  0  0  0  0  0  0  0
  138.5929   73.9778  219.9853 H   0  0  0  0  0  0  0  0  0  0  0  0
  141.0240   71.7290  219.6621 H   0  0  0  0  0  0  0  0  0  0  0  0
  141.9151   72.8035  218.4684 H   0  0  0  0  0  0  0  0  0  0  0  0
  142.8976   71.8342  221.1239 H   0  0  0  0  0  0  0  0  0  0  0  0
  143.3793   71.2941  219.4178 H   0  0  0  0  0  0  0  0  0  0  0  0
  144.9669   72.7293  220.6744 H   0  0  0  0  0  0  0  0  0  0  0  0
  144.4154   73.2019  218.9654 H   0  0  0  0  0  0  0  0  0  0  0  0
  143.3797   74.4055  221.4613 H   0  0  0  0  0  0  0  0  0  0  0  0
  144.8223   74.9959  220.4183 H   0  0  0  0  0  0  0  0  0  0  0  0
  143.1830   76.3763  219.9020 H   0  0  0  0  0  0  0  0  0  0  0  0
  143.2007   75.0455  218.6070 H   0  0  0  0  0  0  0  0  0  0  0  0
  141.1228   75.3313  218.7727 H   0  0  0  0  0  0  0  0  0  0  0  0
  139.3713   76.5133  219.0822 H   0  0  0  0  0  0  0  0  0  0  0  0
  138.1125   78.1452  220.4372 H   0  0  0  0  0  0  0  0  0  0  0  0
  140.7599   77.5290  223.7269 H   0  0  0  0  0  0  0  0  0  0  0  0
  142.0176   75.9021  222.3752 H   0  0  0  0  0  0  0  0  0  0  0  0
  136.0253   77.4330  221.3893 H   0  0  0  0  0  0  0  0  0  0  0  0
  134.6198   78.5852  223.1210 H   0  0  0  0  0  0  0  0  0  0  0  0
  133.5240   78.5815  225.1958 H   0  0  0  0  0  0  0  0  0  0  0  0
  133.6899   75.0678  227.7134 H   0  0  0  0  0  0  0  0  0  0  0  0
  135.0824   73.8961  226.0172 H   0  0  0  0  0  0  0  0  0  0  0  0
  1  2  2  0
  2  3  1  0
  3  4  1  0
  4  5  1  0
  5  6  2  0
  5  7  1  0
  7  8  1  0
  8  9  1  0
  9 10  1  0
 10 11  1  0
 11 12  1  0
 12 13  1  0
 13 14  1  0
 14 15  2  0
 15 16  1  0
 16 17  2  0
 17 18  1  0
 17 19  1  0
 19 20  2  0
  2 21  1  0
 21 22  2  0
 22 23  1  0
 23 24  2  0
 24 25  1  0
 25 26  2  0
 26 27  1  0
 26 28  1  0
 28 29  2  0
 29 30  1  0
 30 31  2  0
 13  7  1  0
 20 14  1  0
 31 21  1  0
 30 24  1  0
  3 32  1  0
  4 33  1  0
  4 34  1  0
  8 35  1  0
  8 36  1  0
  9 37  1  0
  9 38  1  0
 10 39  1  0
 10 40  1  0
 11 41  1  0
 11 42  1  0
 12 43  1  0
 12 44  1  0
 13 45  1  6
 15 46  1  0
 16 47  1  0
 19 48  1  0
 20 49  1  0
 22 50  1  0
 23 51  1  0
 25 52  1  0
 28 53  1  0
 29 54  1  0
M  END
>  <smiles>  (50) 
O=C(NCC(=O)N1CCCCCC1c1ccc(Cl)cc1)c1ccc2cc(Cl)ccc2n1

>  <score_type>  (50) 
oracle

>  <origin>  (50) 
autodockgpu

>  <m_score__min__energy>  (50) 
-6.9299999999999997

>  <m_primary>  (50) 
energy

>  <rmsd>  (50) 
6.280434766955179

>  <m_score__min__rmsd>  (50) 
6.280434766955179

>  <meeko>  (50) 
{"free_energy": -4.47, "intermolecular_energy": -7.75, "internal_energy": -2.81, "cluster_size": 1, "cluster_id": 14, "rank_in_cluster": 1}

>  <energy>  (50) 
-4.11

>  <cluster_rmsd>  (50) 
0.0

>  <cluster>  (50) 
16

$$$$

     RDKit          3D

 54 57  0  0  0  0  0  0  0  0999 V2000
  140.7100   73.0050  220.5300 O   0  0  0  0  0  0  0  0  0  0  0  0
  140.2800   73.2770  221.6910 C   0  0  0  0  0  0  0  0  0  0  0  0
  139.9240   74.5950  222.0900 N   0  0  0  0  0  0  0  0  0  0  0  0
  140.0590   75.6810  221.1170 C   0  0  0  0  0  0  0  0  0  0  0  0
  140.8130   76.7860  221.7450 C   0  0  0  0  0  0  0  0  0  0  0  0
  141.0190   76.7910  222.9850 O   0  0  0  0  0  0  0  0  0  0  0  0
  141.3470   77.9040  220.9870 N   0  0  0  0  0  0  0  0  0  0  0  0
  141.6100   77.5290  219.6290 C   0  0  0  0  0  0  0  0  0  0  0  0
  141.2390   78.4540  218.5520 C   0  0  0  0  0  0  0  0  0  0  0  0
  141.7140   79.8620  218.6310 C   0  0  0  0  0  0  0  0  0  0  0  0
  141.1830   80.5730  219.8480 C   0  0  0  0  0  0  0  0  0  0  0  0
  142.1390   80.2200  220.9830 C   0  0  0  0  0  0  0  0  0  0  0  0
  141.4740   79.0850  221.7760 C   0  0  1  0  0  0  0  0  0  0  0  0
  140.2270   79.5780  222.4040 C   0  0  0  0  0  0  0  0  0  0  0  0
  138.9800   79.2770  221.8380 C   0  0  0  0  0  0  0  0  0  0  0  0
  137.8000   79.7050  222.3940 C   0  0  0  0  0  0  0  0  0  0  0  0
  137.7780   80.4600  223.5470 C   0  0  0  0  0  0  0  0  0  0  0  0
  136.2560   80.9770  224.2110 Cl  0  0  0  0  0  0  0  0  0  0  0  0
  138.9910   80.7690  224.1230 C   0  0  0  0  0  0  0  0  0  0  0  0
  140.1830   80.3310  223.5540 C   0  0  0  0  0  0  0  0  0  0  0  0
  140.1390   72.1940  222.6840 C   0  0  0  0  0  0  0  0  0  0  0  0
  139.4500   71.0380  222.3390 C   0  0  0  0  0  0  0  0  0  0  0  0
  139.3100   70.0080  223.2700 C   0  0  0  0  0  0  0  0  0  0  0  0
  139.8540   70.1380  224.5290 C   0  0  0  0  0  0  0  0  0  0  0  0
  139.7450   69.1440  225.4950 C   0  0  0  0  0  0  0  0  0  0  0  0
  140.3270   69.3730  226.7290 C   0  0  0  0  0  0  0  0  0  0  0  0
  140.2260   68.1620  227.9890 Cl  0  0  0  0  0  0  0  0  0  0  0  0
  141.0000   70.5380  227.0210 C   0  0  0  0  0  0  0  0  0  0  0  0
  141.1150   71.5370  226.0600 C   0  0  0  0  0  0  0  0  0  0  0  0
  140.5320   71.3000  224.8350 C   0  0  0  0  0  0  0  0  0  0  0  0
  140.6560   72.2910  223.9140 N   0  0  0  0  0  0  0  0  0  0  0  0
  139.5740   74.7640  223.0600 H   0  0  0  0  0  0  0  0  0  0  0  0
  140.6010   75.3193  220.2308 H   0  0  0  0  0  0  0  0  0  0  0  0
  139.0642   76.0335  220.8071 H   0  0  0  0  0  0  0  0  0  0  0  0
  142.6931   77.3554  219.5463 H   0  0  0  0  0  0  0  0  0  0  0  0
  140.9592   76.6575  219.4647 H   0  0  0  0  0  0  0  0  0  0  0  0
  141.6276   78.0323  217.6133 H   0  0  0  0  0  0  0  0  0  0  0  0
  140.1447   78.5339  218.6304 H   0  0  0  0  0  0  0  0  0  0  0  0
  142.8133   79.8635  218.6711 H   0  0  0  0  0  0  0  0  0  0  0  0
  141.3457   80.3936  217.7412 H   0  0  0  0  0  0  0  0  0  0  0  0
  141.1701   81.6603  219.6817 H   0  0  0  0  0  0  0  0  0  0  0  0
  140.1510   80.2691  220.0774 H   0  0  0  0  0  0  0  0  0  0  0  0
  143.1044   79.8845  220.5763 H   0  0  0  0  0  0  0  0  0  0  0  0
  142.3344   81.0921  221.6244 H   0  0  0  0  0  0  0  0  0  0  0  0
  142.1180   78.7700  222.6103 H   0  0  0  0  0  0  0  0  0  0  0  0
  138.9460   78.6772  220.9166 H   0  0  0  0  0  0  0  0  0  0  0  0
  136.8497   79.4392  221.9079 H   0  0  0  0  0  0  0  0  0  0  0  0
  139.0174   81.3695  225.0443 H   0  0  0  0  0  0  0  0  0  0  0  0
  141.1304   80.5984  224.0449 H   0  0  0  0  0  0  0  0  0  0  0  0
  139.0156   70.9348  221.3337 H   0  0  0  0  0  0  0  0  0  0  0  0
  138.7650   69.0919  222.9985 H   0  0  0  0  0  0  0  0  0  0  0  0
  139.2126   68.2047  225.2846 H   0  0  0  0  0  0  0  0  0  0  0  0
  141.4475   70.6790  228.0159 H   0  0  0  0  0  0  0  0  0  0  0  0
  141.6486   72.4758  226.2694 H   0  0  0  0  0  0  0  0  0  0  0  0
  1  2  2  0
  2  3  1  0
  3  4  1  0
  4  5  1  0
  5  6  2  0
  5  7  1  0
  7  8  1  0
  8  9  1  0
  9 10  1  0
 10 11  1  0
 11 12  1  0
 12 13  1  0
 13 14  1  0
 14 15  2  0
 15 16  1  0
 16 17  2  0
 17 18  1  0
 17 19  1  0
 19 20  2  0
  2 21  1  0
 21 22  2  0
 22 23  1  0
 23 24  2  0
 24 25  1  0
 25 26  2  0
 26 27  1  0
 26 28  1  0
 28 29  2  0
 29 30  1  0
 30 31  2  0
 13  7  1  0
 20 14  1  0
 31 21  1  0
 30 24  1  0
  3 32  1  0
  4 33  1  0
  4 34  1  0
  8 35  1  0
  8 36  1  0
  9 37  1  0
  9 38  1  0
 10 39  1  0
 10 40  1  0
 11 41  1  0
 11 42  1  0
 12 43  1  0
 12 44  1  0
 13 45  1  1
 15 46  1  0
 16 47  1  0
 19 48  1  0
 20 49  1  0
 22 50  1  0
 23 51  1  0
 25 52  1  0
 28 53  1  0
 29 54  1  0
M  END
>  <smiles>  (51) 
O=C(NCC(=O)N1CCCCCC1c1ccc(Cl)cc1)c1ccc2cc(Cl)ccc2n1

>  <score_type>  (51) 
oracle

>  <origin>  (51) 
autodockgpu

>  <m_score__min__energy>  (51) 
-7.21

>  <m_primary>  (51) 
energy

>  <rmsd>  (51) 
2.762835738234421

>  <m_score__min__rmsd>  (51) 
2.762835738234421

>  <meeko>  (51) 
{"free_energy": -6.29, "intermolecular_energy": -9.57, "internal_energy": -1.84, "cluster_size": 9, "cluster_id": 2, "rank_in_cluster": 7}

>  <energy>  (51) 
-7.21

>  <cluster_rmsd>  (51) 
0.0

>  <cluster>  (51) 
1

$$$$

     RDKit          3D

 54 57  0  0  0  0  0  0  0  0999 V2000
  137.4320   71.5980  221.0650 O   0  0  0  0  0  0  0  0  0  0  0  0
  138.1760   71.9940  222.0120 C   0  0  0  0  0  0  0  0  0  0  0  0
  137.7890   71.9170  223.3780 N   0  0  0  0  0  0  0  0  0  0  0  0
  136.4750   71.3560  223.7030 C   0  0  0  0  0  0  0  0  0  0  0  0
  136.6550   69.9580  224.1470 C   0  0  0  0  0  0  0  0  0  0  0  0
  136.3450   69.6180  225.3170 O   0  0  0  0  0  0  0  0  0  0  0  0
  137.1890   68.9210  223.2830 N   0  0  0  0  0  0  0  0  0  0  0  0
  136.1590   68.3480  222.4670 C   0  0  0  0  0  0  0  0  0  0  0  0
  136.4880   67.9220  221.1020 C   0  0  0  0  0  0  0  0  0  0  0  0
  137.7260   68.4570  220.4710 C   0  0  0  0  0  0  0  0  0  0  0  0
  138.9720   67.9570  221.1530 C   0  0  0  0  0  0  0  0  0  0  0  0
  139.3650   69.0370  222.1660 C   0  0  0  0  0  0  0  0  0  0  0  0
  138.5920   68.7340  223.4580 C   0  0  1  0  0  0  0  0  0  0  0  0
  139.2030   69.4690  224.5890 C   0  0  0  0  0  0  0  0  0  0  0  0
  139.0190   69.0240  225.9060 C   0  0  0  0  0  0  0  0  0  0  0  0
  139.5770   69.6690  226.9820 C   0  0  0  0  0  0  0  0  0  0  0  0
  140.3530   70.7980  226.8240 C   0  0  0  0  0  0  0  0  0  0  0  0
  141.0360   71.5780  228.2200 Cl  0  0  0  0  0  0  0  0  0  0  0  0
  140.5490   71.2550  225.5400 C   0  0  0  0  0  0  0  0  0  0  0  0
  139.9810   70.5950  224.4530 C   0  0  0  0  0  0  0  0  0  0  0  0
  139.5030   72.5620  221.7020 C   0  0  0  0  0  0  0  0  0  0  0  0
  139.6740   73.9400  221.7130 C   0  0  0  0  0  0  0  0  0  0  0  0
  140.9240   74.4880  221.4210 C   0  0  0  0  0  0  0  0  0  0  0  0
  141.9860   73.6630  221.1220 C   0  0  0  0  0  0  0  0  0  0  0  0
  143.2510   74.1540  220.8240 C   0  0  0  0  0  0  0  0  0  0  0  0
  144.2500   73.2410  220.5380 C   0  0  0  0  0  0  0  0  0  0  0  0
  145.8660   73.7940  220.1550 Cl  0  0  0  0  0  0  0  0  0  0  0  0
  144.0280   71.8820  220.5400 C   0  0  0  0  0  0  0  0  0  0  0  0
  142.7650   71.3820  220.8370 C   0  0  0  0  0  0  0  0  0  0  0  0
  141.7780   72.2990  221.1210 C   0  0  0  0  0  0  0  0  0  0  0  0
  140.5520   71.7860  221.4080 N   0  0  0  0  0  0  0  0  0  0  0  0
  138.4410   72.2580  224.1200 H   0  0  0  0  0  0  0  0  0  0  0  0
  136.0103   71.9436  224.5085 H   0  0  0  0  0  0  0  0  0  0  0  0
  135.8237   71.3877  222.8171 H   0  0  0  0  0  0  0  0  0  0  0  0
  135.7815   67.4623  222.9990 H   0  0  0  0  0  0  0  0  0  0  0  0
  135.4473   69.1740  222.3215 H   0  0  0  0  0  0  0  0  0  0  0  0
  136.5783   66.8258  221.1166 H   0  0  0  0  0  0  0  0  0  0  0  0
  135.6730   68.3321  220.4875 H   0  0  0  0  0  0  0  0  0  0  0  0
  137.7496   68.1452  219.4164 H   0  0  0  0  0  0  0  0  0  0  0  0
  137.7064   69.5530  220.5632 H   0  0  0  0  0  0  0  0  0  0  0  0
  138.7699   67.0062  221.6679 H   0  0  0  0  0  0  0  0  0  0  0  0
  139.7795   67.7723  220.4292 H   0  0  0  0  0  0  0  0  0  0  0  0
  140.4480   69.0026  222.3555 H   0  0  0  0  0  0  0  0  0  0  0  0
  139.1233   70.0410  221.7871 H   0  0  0  0  0  0  0  0  0  0  0  0
  138.6796   67.6684  223.7166 H   0  0  0  0  0  0  0  0  0  0  0  0
  138.4067   68.1275  226.0831 H   0  0  0  0  0  0  0  0  0  0  0  0
  139.4009   69.2759  227.9941 H   0  0  0  0  0  0  0  0  0  0  0  0
  141.1619   72.1526  225.3706 H   0  0  0  0  0  0  0  0  0  0  0  0
  140.1623   70.9911  223.4429 H   0  0  0  0  0  0  0  0  0  0  0  0
  138.8258   74.5986  221.9514 H   0  0  0  0  0  0  0  0  0  0  0  0
  141.0613   75.5794  221.4296 H   0  0  0  0  0  0  0  0  0  0  0  0
  143.4520   75.2355  220.8158 H   0  0  0  0  0  0  0  0  0  0  0  0
  144.8512   71.1908  220.3062 H   0  0  0  0  0  0  0  0  0  0  0  0
  142.5631   70.3007  220.8447 H   0  0  0  0  0  0  0  0  0  0  0  0
  1  2  2  0
  2  3  1  0
  3  4  1  0
  4  5  1  0
  5  6  2  0
  5  7  1  0
  7  8  1  0
  8  9  1  0
  9 10  1  0
 10 11  1  0
 11 12  1  0
 12 13  1  0
 13 14  1  0
 14 15  2  0
 15 16  1  0
 16 17  2  0
 17 18  1  0
 17 19  1  0
 19 20  2  0
  2 21  1  0
 21 22  2  0
 22 23  1  0
 23 24  2  0
 24 25  1  0
 25 26  2  0
 26 27  1  0
 26 28  1  0
 28 29  2  0
 29 30  1  0
 30 31  2  0
 13  7  1  0
 20 14  1  0
 31 21  1  0
 30 24  1  0
  3 32  1  0
  4 33  1  0
  4 34  1  0
  8 35  1  0
  8 36  1  0
  9 37  1  0
  9 38  1  0
 10 39  1  0
 10 40  1  0
 11 41  1  0
 11 42  1  0
 12 43  1  0
 12 44  1  0
 13 45  1  1
 15 46  1  0
 16 47  1  0
 19 48  1  0
 20 49  1  0
 22 50  1  0
 23 51  1  0
 25 52  1  0
 28 53  1  0
 29 54  1  0
M  END
>  <smiles>  (52) 
O=C(NCC(=O)N1CCCCCC1c1ccc(Cl)cc1)c1ccc2cc(Cl)ccc2n1

>  <score_type>  (52) 
oracle

>  <origin>  (52) 
autodockgpu

>  <m_score__min__energy>  (52) 
-7.21

>  <m_primary>  (52) 
energy

>  <rmsd>  (52) 
7.285574244773908

>  <m_score__min__rmsd>  (52) 
7.285574244773908

>  <meeko>  (52) 
{"free_energy": -4.29, "intermolecular_energy": -7.57, "internal_energy": -2.53, "cluster_size": 1, "cluster_id": 11, "rank_in_cluster": 1}

>  <energy>  (52) 
-6.93

>  <cluster_rmsd>  (52) 
0.23

>  <cluster>  (52) 
1

$$$$

     RDKit          3D

 54 57  0  0  0  0  0  0  0  0999 V2000
  135.8570   77.1340  223.6280 O   0  0  0  0  0  0  0  0  0  0  0  0
  136.6310   77.7260  222.8170 C   0  0  0  0  0  0  0  0  0  0  0  0
  136.3640   79.0290  222.3120 N   0  0  0  0  0  0  0  0  0  0  0  0
  135.1450   79.7130  222.7490 C   0  0  0  0  0  0  0  0  0  0  0  0
  135.3400   80.1850  224.1360 C   0  0  0  0  0  0  0  0  0  0  0  0
  134.5730   79.7970  225.0530 O   0  0  0  0  0  0  0  0  0  0  0  0
  136.4000   81.1030  224.5120 N   0  0  0  0  0  0  0  0  0  0  0  0
  136.4710   81.2540  225.9360 C   0  0  0  0  0  0  0  0  0  0  0  0
  136.4140   82.6030  226.5110 C   0  0  0  0  0  0  0  0  0  0  0  0
  136.5670   83.7690  225.6000 C   0  0  0  0  0  0  0  0  0  0  0  0
  135.8820   83.5500  224.2770 C   0  0  0  0  0  0  0  0  0  0  0  0
  136.9770   83.1470  223.2960 C   0  0  0  0  0  0  0  0  0  0  0  0
  137.1000   81.6190  223.3830 C   0  0  1  0  0  0  0  0  0  0  0  0
  138.5240   81.2250  223.2720 C   0  0  0  0  0  0  0  0  0  0  0  0
  139.0180   80.1360  224.0050 C   0  0  0  0  0  0  0  0  0  0  0  0
  140.3280   79.7320  223.9240 C   0  0  0  0  0  0  0  0  0  0  0  0
  141.2340   80.3800  223.1110 C   0  0  0  0  0  0  0  0  0  0  0  0
  142.8820   79.8280  223.0450 Cl  0  0  0  0  0  0  0  0  0  0  0  0
  140.7730   81.4520  222.3810 C   0  0  0  0  0  0  0  0  0  0  0  0
  139.4430   81.8570  222.4670 C   0  0  0  0  0  0  0  0  0  0  0  0
  137.8630   77.0510  222.3660 C   0  0  0  0  0  0  0  0  0  0  0  0
  138.0140   75.6880  222.5860 C   0  0  0  0  0  0  0  0  0  0  0  0
  139.1750   75.0390  222.1650 C   0  0  0  0  0  0  0  0  0  0  0  0
  140.1710   75.7510  221.5310 C   0  0  0  0  0  0  0  0  0  0  0  0
  141.3480   75.1550  221.0910 C   0  0  0  0  0  0  0  0  0  0  0  0
  142.2850   75.9590  220.4670 C   0  0  0  0  0  0  0  0  0  0  0  0
  143.7880   75.2720  219.8880 Cl  0  0  0  0  0  0  0  0  0  0  0  0
  142.0880   77.3070  220.2720 C   0  0  0  0  0  0  0  0  0  0  0  0
  140.9130   77.9100  220.7090 C   0  0  0  0  0  0  0  0  0  0  0  0
  139.9860   77.1020  221.3300 C   0  0  0  0  0  0  0  0  0  0  0  0
  138.8480   77.7150  221.7490 N   0  0  0  0  0  0  0  0  0  0  0  0
  137.0360   79.4720  221.6450 H   0  0  0  0  0  0  0  0  0  0  0  0
  134.9452   80.5710  222.0903 H   0  0  0  0  0  0  0  0  0  0  0  0
  134.2901   79.0223  222.7040 H   0  0  0  0  0  0  0  0  0  0  0  0
  135.6315   80.6857  226.3629 H   0  0  0  0  0  0  0  0  0  0  0  0
  137.4817   80.9012  226.1892 H   0  0  0  0  0  0  0  0  0  0  0  0
  135.4372   82.7039  227.0066 H   0  0  0  0  0  0  0  0  0  0  0  0
  137.2965   82.6546  227.1656 H   0  0  0  0  0  0  0  0  0  0  0  0
  136.1302   84.6556  226.0828 H   0  0  0  0  0  0  0  0  0  0  0  0
  137.6408   83.9076  225.4058 H   0  0  0  0  0  0  0  0  0  0  0  0
  135.1327   82.7493  224.3629 H   0  0  0  0  0  0  0  0  0  0  0  0
  135.3556   84.4559  223.9420 H   0  0  0  0  0  0  0  0  0  0  0  0
  136.7018   83.4485  222.2746 H   0  0  0  0  0  0  0  0  0  0  0  0
  137.9307   83.6373  223.5412 H   0  0  0  0  0  0  0  0  0  0  0  0
  136.5958   81.1441  222.5284 H   0  0  0  0  0  0  0  0  0  0  0  0
  138.3327   79.5868  224.6674 H   0  0  0  0  0  0  0  0  0  0  0  0
  140.6625   78.8713  224.5217 H   0  0  0  0  0  0  0  0  0  0  0  0
  141.4643   81.9963  221.7207 H   0  0  0  0  0  0  0  0  0  0  0  0
  139.1140   82.7178  221.8663 H   0  0  0  0  0  0  0  0  0  0  0  0
  137.2188   75.1207  223.0918 H   0  0  0  0  0  0  0  0  0  0  0  0
  139.2957   73.9596  222.3388 H   0  0  0  0  0  0  0  0  0  0  0  0
  141.5280   74.0794  221.2345 H   0  0  0  0  0  0  0  0  0  0  0  0
  142.8604   77.9082  219.7701 H   0  0  0  0  0  0  0  0  0  0  0  0
  140.7319   78.9854  220.5649 H   0  0  0  0  0  0  0  0  0  0  0  0
  1  2  2  0
  2  3  1  0
  3  4  1  0
  4  5  1  0
  5  6  2  0
  5  7  1  0
  7  8  1  0
  8  9  1  0
  9 10  1  0
 10 11  1  0
 11 12  1  0
 12 13  1  0
 13 14  1  0
 14 15  2  0
 15 16  1  0
 16 17  2  0
 17 18  1  0
 17 19  1  0
 19 20  2  0
  2 21  1  0
 21 22  2  0
 22 23  1  0
 23 24  2  0
 24 25  1  0
 25 26  2  0
 26 27  1  0
 26 28  1  0
 28 29  2  0
 29 30  1  0
 30 31  2  0
 13  7  1  0
 20 14  1  0
 31 21  1  0
 30 24  1  0
  3 32  1  0
  4 33  1  0
  4 34  1  0
  8 35  1  0
  8 36  1  0
  9 37  1  0
  9 38  1  0
 10 39  1  0
 10 40  1  0
 11 41  1  0
 11 42  1  0
 12 43  1  0
 12 44  1  0
 13 45  1  6
 15 46  1  0
 16 47  1  0
 19 48  1  0
 20 49  1  0
 22 50  1  0
 23 51  1  0
 25 52  1  0
 28 53  1  0
 29 54  1  0
M  END
>  <smiles>  (53) 
O=C(NCC(=O)N1CCCCCC1c1ccc(Cl)cc1)c1ccc2cc(Cl)ccc2n1

>  <score_type>  (53) 
oracle

>  <origin>  (53) 
autodockgpu

>  <m_score__min__energy>  (53) 
-7.21

>  <m_primary>  (53) 
energy

>  <rmsd>  (53) 
8.58933757539222

>  <m_score__min__rmsd>  (53) 
8.58933757539222

>  <meeko>  (53) 
{"free_energy": -4.07, "intermolecular_energy": -7.36, "internal_energy": -3.16, "cluster_size": 1, "cluster_id": 12, "rank_in_cluster": 1}

>  <energy>  (53) 
-6.51

>  <cluster_rmsd>  (53) 
1.86

>  <cluster>  (53) 
1

$$$$

     RDKit          3D

 54 57  0  0  0  0  0  0  0  0999 V2000
  138.2510   71.6680  220.7880 O   0  0  0  0  0  0  0  0  0  0  0  0
  138.7150   72.1670  221.8570 C   0  0  0  0  0  0  0  0  0  0  0  0
  138.9530   73.5610  222.0150 N   0  0  0  0  0  0  0  0  0  0  0  0
  138.6470   74.4540  220.8950 C   0  0  0  0  0  0  0  0  0  0  0  0
  139.6830   74.2800  219.8550 C   0  0  0  0  0  0  0  0  0  0  0  0
  139.7880   73.1880  219.2400 O   0  0  0  0  0  0  0  0  0  0  0  0
  140.6170   75.3300  219.4920 N   0  0  0  0  0  0  0  0  0  0  0  0
  140.3510   75.8250  218.1740 C   0  0  0  0  0  0  0  0  0  0  0  0
  141.4800   76.1700  217.3020 C   0  0  0  0  0  0  0  0  0  0  0  0
  142.8410   75.7080  217.6880 C   0  0  0  0  0  0  0  0  0  0  0  0
  143.3100   76.3350  218.9750 C   0  0  0  0  0  0  0  0  0  0  0  0
  142.9960   75.3220  220.0700 C   0  0  0  0  0  0  0  0  0  0  0  0
  141.5570   75.6040  220.5280 C   0  0  1  0  0  0  0  0  0  0  0  0
  141.4800   76.9570  221.1270 C   0  0  0  0  0  0  0  0  0  0  0  0
  141.2220   77.1130  222.4960 C   0  0  0  0  0  0  0  0  0  0  0  0
  141.1520   78.3470  223.0930 C   0  0  0  0  0  0  0  0  0  0  0  0
  141.3330   79.5090  222.3720 C   0  0  0  0  0  0  0  0  0  0  0  0
  141.2350   81.0480  223.1760 Cl  0  0  0  0  0  0  0  0  0  0  0  0
  141.5890   79.3820  221.0240 C   0  0  0  0  0  0  0  0  0  0  0  0
  141.6580   78.1270  220.4260 C   0  0  0  0  0  0  0  0  0  0  0  0
  139.0290   71.2800  222.9940 C   0  0  0  0  0  0  0  0  0  0  0  0
  138.5730   69.9690  222.9830 C   0  0  0  0  0  0  0  0  0  0  0  0
  138.8640   69.1220  224.0530 C   0  0  0  0  0  0  0  0  0  0  0  0
  139.6030   69.5870  225.1190 C   0  0  0  0  0  0  0  0  0  0  0  0
  139.9210   68.7870  226.2100 C   0  0  0  0  0  0  0  0  0  0  0  0
  140.6680   69.3500  227.2300 C   0  0  0  0  0  0  0  0  0  0  0  0
  141.1040   68.3980  228.6320 Cl  0  0  0  0  0  0  0  0  0  0  0  0
  141.0970   70.6580  227.1930 C   0  0  0  0  0  0  0  0  0  0  0  0
  140.7830   71.4640  226.1040 C   0  0  0  0  0  0  0  0  0  0  0  0
  140.0390   70.8950  225.0950 C   0  0  0  0  0  0  0  0  0  0  0  0
  139.7450   71.7030  224.0430 N   0  0  0  0  0  0  0  0  0  0  0  0
  139.3370   73.9200  222.9180 H   0  0  0  0  0  0  0  0  0  0  0  0
  137.6597   74.2028  220.4800 H   0  0  0  0  0  0  0  0  0  0  0  0
  138.6336   75.4983  221.2404 H   0  0  0  0  0  0  0  0  0  0  0  0
  139.7648   75.0541  217.6524 H   0  0  0  0  0  0  0  0  0  0  0  0
  139.8500   76.7883  218.3502 H   0  0  0  0  0  0  0  0  0  0  0  0
  141.2637   75.7497  216.3087 H   0  0  0  0  0  0  0  0  0  0  0  0
  141.5407   77.2668  217.3605 H   0  0  0  0  0  0  0  0  0  0  0  0
  142.8224   74.6152  217.8123 H   0  0  0  0  0  0  0  0  0  0  0  0
  143.5383   76.0080  216.8919 H   0  0  0  0  0  0  0  0  0  0  0  0
  144.3916   76.5311  218.9335 H   0  0  0  0  0  0  0  0  0  0  0  0
  142.8126   77.2984  219.1605 H   0  0  0  0  0  0  0  0  0  0  0  0
  143.0749   74.2986  219.6745 H   0  0  0  0  0  0  0  0  0  0  0  0
  143.7037   75.4103  220.9074 H   0  0  0  0  0  0  0  0  0  0  0  0
  141.2659   74.9096  221.3299 H   0  0  0  0  0  0  0  0  0  0  0  0
  141.0704   76.2153  223.1133 H   0  0  0  0  0  0  0  0  0  0  0  0
  140.9467   78.4108  224.1718 H   0  0  0  0  0  0  0  0  0  0  0  0
  141.7408   80.2839  220.4128 H   0  0  0  0  0  0  0  0  0  0  0  0
  141.8636   78.0684  219.3470 H   0  0  0  0  0  0  0  0  0  0  0  0
  137.9830   69.5983  222.1319 H   0  0  0  0  0  0  0  0  0  0  0  0
  138.5034   68.0828  224.0455 H   0  0  0  0  0  0  0  0  0  0  0  0
  139.5895   67.7394  226.2612 H   0  0  0  0  0  0  0  0  0  0  0  0
  141.6888   71.0658  228.0258 H   0  0  0  0  0  0  0  0  0  0  0  0
  141.1149   72.5114  226.0511 H   0  0  0  0  0  0  0  0  0  0  0  0
  1  2  2  0
  2  3  1  0
  3  4  1  0
  4  5  1  0
  5  6  2  0
  5  7  1  0
  7  8  1  0
  8  9  1  0
  9 10  1  0
 10 11  1  0
 11 12  1  0
 12 13  1  0
 13 14  1  0
 14 15  2  0
 15 16  1  0
 16 17  2  0
 17 18  1  0
 17 19  1  0
 19 20  2  0
  2 21  1  0
 21 22  2  0
 22 23  1  0
 23 24  2  0
 24 25  1  0
 25 26  2  0
 26 27  1  0
 26 28  1  0
 28 29  2  0
 29 30  1  0
 30 31  2  0
 13  7  1  0
 20 14  1  0
 31 21  1  0
 30 24  1  0
  3 32  1  0
  4 33  1  0
  4 34  1  0
  8 35  1  0
  8 36  1  0
  9 37  1  0
  9 38  1  0
 10 39  1  0
 10 40  1  0
 11 41  1  0
 11 42  1  0
 12 43  1  0
 12 44  1  0
 13 45  1  1
 15 46  1  0
 16 47  1  0
 19 48  1  0
 20 49  1  0
 22 50  1  0
 23 51  1  0
 25 52  1  0
 28 53  1  0
 29 54  1  0
M  END
>  <smiles>  (54) 
O=C(NCC(=O)N1CCCCCC1c1ccc(Cl)cc1)c1ccc2cc(Cl)ccc2n1

>  <score_type>  (54) 
oracle

>  <origin>  (54) 
autodockgpu

>  <m_score__min__energy>  (54) 
-7.21

>  <m_primary>  (54) 
energy

>  <rmsd>  (54) 
1.6633605010651267

>  <m_score__min__rmsd>  (54) 
1.6633605010651267

>  <meeko>  (54) 
{"free_energy": -6.37, "intermolecular_energy": -9.65, "internal_energy": -1.59, "cluster_size": 9, "cluster_id": 2, "rank_in_cluster": 6}

>  <energy>  (54) 
-6.51

>  <cluster_rmsd>  (54) 
1.63

>  <cluster>  (54) 
1

$$$$

     RDKit          3D

 54 57  0  0  0  0  0  0  0  0999 V2000
  140.9660   72.7700  220.9610 O   0  0  0  0  0  0  0  0  0  0  0  0
  140.2990   73.0280  222.0080 C   0  0  0  0  0  0  0  0  0  0  0  0
  139.6190   74.2620  222.2010 N   0  0  0  0  0  0  0  0  0  0  0  0
  139.6920   75.2750  221.1460 C   0  0  0  0  0  0  0  0  0  0  0  0
  140.8280   76.1760  221.4350 C   0  0  0  0  0  0  0  0  0  0  0  0
  141.1430   76.4400  222.6230 O   0  0  0  0  0  0  0  0  0  0  0  0
  141.6250   76.7950  220.3920 N   0  0  0  0  0  0  0  0  0  0  0  0
  142.0700   75.8230  219.4370 C   0  0  0  0  0  0  0  0  0  0  0  0
  141.7450   76.0190  218.0190 C   0  0  0  0  0  0  0  0  0  0  0  0
  141.9590   77.3660  217.4220 C   0  0  0  0  0  0  0  0  0  0  0  0
  142.7500   78.2700  218.3310 C   0  0  0  0  0  0  0  0  0  0  0  0
  141.7260   78.9490  219.2340 C   0  0  0  0  0  0  0  0  0  0  0  0
  141.7650   78.2010  220.5750 C   0  0  1  0  0  0  0  0  0  0  0  0
  140.8140   78.8250  221.5230 C   0  0  0  0  0  0  0  0  0  0  0  0
  141.2680   79.3530  222.7400 C   0  0  0  0  0  0  0  0  0  0  0  0
  140.4210   79.9490  223.6420 C   0  0  0  0  0  0  0  0  0  0  0  0
  139.0690   80.0610  223.3970 C   0  0  0  0  0  0  0  0  0  0  0  0
  138.0400   80.8250  224.5730 Cl  0  0  0  0  0  0  0  0  0  0  0  0
  138.5980   79.5510  222.2080 C   0  0  0  0  0  0  0  0  0  0  0  0
  139.4620   78.9480  221.2980 C   0  0  0  0  0  0  0  0  0  0  0  0
  140.2160   72.0180  223.0810 C   0  0  0  0  0  0  0  0  0  0  0  0
  139.6500   70.7790  222.8090 C   0  0  0  0  0  0  0  0  0  0  0  0
  139.5650   69.8170  223.8160 C   0  0  0  0  0  0  0  0  0  0  0  0
  140.0430   70.0960  225.0790 C   0  0  0  0  0  0  0  0  0  0  0  0
  139.9840   69.1760  226.1180 C   0  0  0  0  0  0  0  0  0  0  0  0
  140.4910   69.5550  227.3480 C   0  0  0  0  0  0  0  0  0  0  0  0
  140.4490   68.4430  228.7000 Cl  0  0  0  0  0  0  0  0  0  0  0  0
  141.0430   70.7980  227.5670 C   0  0  0  0  0  0  0  0  0  0  0  0
  141.1050   71.7240  226.5310 C   0  0  0  0  0  0  0  0  0  0  0  0
  140.5980   71.3370  225.3110 C   0  0  0  0  0  0  0  0  0  0  0  0
  140.6700   72.2600  224.3160 N   0  0  0  0  0  0  0  0  0  0  0  0
  139.0830   74.4230  223.0840 H   0  0  0  0  0  0  0  0  0  0  0  0
  139.8452   74.7860  220.1727 H   0  0  0  0  0  0  0  0  0  0  0  0
  138.7551   75.8505  221.1121 H   0  0  0  0  0  0  0  0  0  0  0  0
  143.1663   75.7747  219.5129 H   0  0  0  0  0  0  0  0  0  0  0  0
  141.5183   74.9117  219.7109 H   0  0  0  0  0  0  0  0  0  0  0  0
  142.3564   75.3079  217.4441 H   0  0  0  0  0  0  0  0  0  0  0  0
  140.6561   75.8715  217.9688 H   0  0  0  0  0  0  0  0  0  0  0  0
  142.5047   77.2510  216.4738 H   0  0  0  0  0  0  0  0  0  0  0  0
  140.9727   77.8259  217.2619 H   0  0  0  0  0  0  0  0  0  0  0  0
  143.4607   77.6830  218.9313 H   0  0  0  0  0  0  0  0  0  0  0  0
  143.3375   79.0046  217.7607 H   0  0  0  0  0  0  0  0  0  0  0  0
  141.9905   80.0066  219.3807 H   0  0  0  0  0  0  0  0  0  0  0  0
  140.7203   78.9177  218.7896 H   0  0  0  0  0  0  0  0  0  0  0  0
  142.7556   78.3024  221.0422 H   0  0  0  0  0  0  0  0  0  0  0  0
  142.3394   79.2876  222.9806 H   0  0  0  0  0  0  0  0  0  0  0  0
  140.8311   80.3464  224.5822 H   0  0  0  0  0  0  0  0  0  0  0  0
  137.5254   79.6209  221.9741 H   0  0  0  0  0  0  0  0  0  0  0  0
  139.0463   78.5531  220.3593 H   0  0  0  0  0  0  0  0  0  0  0  0
  139.2693   70.5566  221.8012 H   0  0  0  0  0  0  0  0  0  0  0  0
  139.1165   68.8356  223.6023 H   0  0  0  0  0  0  0  0  0  0  0  0
  139.5478   68.1775  225.9675 H   0  0  0  0  0  0  0  0  0  0  0  0
  141.4348   71.0582  228.5614 H   0  0  0  0  0  0  0  0  0  0  0  0
  141.5406   72.7230  226.6802 H   0  0  0  0  0  0  0  0  0  0  0  0
  1  2  2  0
  2  3  1  0
  3  4  1  0
  4  5  1  0
  5  6  2  0
  5  7  1  0
  7  8  1  0
  8  9  1  0
  9 10  1  0
 10 11  1  0
 11 12  1  0
 12 13  1  0
 13 14  1  0
 14 15  2  0
 15 16  1  0
 16 17  2  0
 17 18  1  0
 17 19  1  0
 19 20  2  0
  2 21  1  0
 21 22  2  0
 22 23  1  0
 23 24  2  0
 24 25  1  0
 25 26  2  0
 26 27  1  0
 26 28  1  0
 28 29  2  0
 29 30  1  0
 30 31  2  0
 13  7  1  0
 20 14  1  0
 31 21  1  0
 30 24  1  0
  3 32  1  0
  4 33  1  0
  4 34  1  0
  8 35  1  0
  8 36  1  0
  9 37  1  0
  9 38  1  0
 10 39  1  0
 10 40  1  0
 11 41  1  0
 11 42  1  0
 12 43  1  0
 12 44  1  0
 13 45  1  1
 15 46  1  0
 16 47  1  0
 19 48  1  0
 20 49  1  0
 22 50  1  0
 23 51  1  0
 25 52  1  0
 28 53  1  0
 29 54  1  0
M  END
>  <smiles>  (55) 
O=C(NCC(=O)N1CCCCCC1c1ccc(Cl)cc1)c1ccc2cc(Cl)ccc2n1

>  <score_type>  (55) 
oracle

>  <origin>  (55) 
autodockgpu

>  <m_score__min__energy>  (55) 
-7.21

>  <m_primary>  (55) 
energy

>  <rmsd>  (55) 
2.019305759718502

>  <m_score__min__rmsd>  (55) 
2.019305759718502

>  <meeko>  (55) 
{"free_energy": -7.04, "intermolecular_energy": -10.32, "internal_energy": -1.5, "cluster_size": 9, "cluster_id": 2, "rank_in_cluster": 1}

>  <energy>  (55) 
-6.33

>  <cluster_rmsd>  (55) 
0.42

>  <cluster>  (55) 
1

$$$$

     RDKit          3D

 54 57  0  0  0  0  0  0  0  0999 V2000
  138.8590   71.8070  220.7600 O   0  0  0  0  0  0  0  0  0  0  0  0
  139.1630   72.2590  221.9050 C   0  0  0  0  0  0  0  0  0  0  0  0
  139.2980   73.6500  222.1710 N   0  0  0  0  0  0  0  0  0  0  0  0
  139.0760   74.5970  221.0760 C   0  0  0  0  0  0  0  0  0  0  0  0
  140.0290   75.7170  221.2210 C   0  0  0  0  0  0  0  0  0  0  0  0
  140.5050   76.0050  222.3490 O   0  0  0  0  0  0  0  0  0  0  0  0
  140.4610   76.5330  220.1000 N   0  0  0  0  0  0  0  0  0  0  0  0
  140.2410   77.9250  220.3590 C   0  0  0  0  0  0  0  0  0  0  0  0
  141.2170   78.9030  219.8630 C   0  0  0  0  0  0  0  0  0  0  0  0
  141.5830   78.8710  218.4210 C   0  0  0  0  0  0  0  0  0  0  0  0
  142.2740   77.5880  218.0390 C   0  0  0  0  0  0  0  0  0  0  0  0
  141.1590   76.5880  217.7540 C   0  0  0  0  0  0  0  0  0  0  0  0
  140.9930   75.7520  219.0320 C   0  0  1  0  0  0  0  0  0  0  0  0
  142.2530   75.0310  219.3260 C   0  0  0  0  0  0  0  0  0  0  0  0
  142.4560   73.7310  218.8410 C   0  0  0  0  0  0  0  0  0  0  0  0
  143.6120   73.0320  219.0810 C   0  0  0  0  0  0  0  0  0  0  0  0
  144.6440   73.5750  219.8170 C   0  0  0  0  0  0  0  0  0  0  0  0
  146.0890   72.6470  220.0920 Cl  0  0  0  0  0  0  0  0  0  0  0  0
  144.4690   74.8510  220.3040 C   0  0  0  0  0  0  0  0  0  0  0  0
  143.2940   75.5550  220.0560 C   0  0  0  0  0  0  0  0  0  0  0  0
  139.3890   71.3180  223.0180 C   0  0  0  0  0  0  0  0  0  0  0  0
  138.9770   69.9980  222.8910 C   0  0  0  0  0  0  0  0  0  0  0  0
  139.1860   69.1000  223.9380 C   0  0  0  0  0  0  0  0  0  0  0  0
  139.8020   69.5230  225.0970 C   0  0  0  0  0  0  0  0  0  0  0  0
  140.0350   68.6710  226.1700 C   0  0  0  0  0  0  0  0  0  0  0  0
  140.6590   69.1950  227.2880 C   0  0  0  0  0  0  0  0  0  0  0  0
  140.9830   68.1760  228.6750 Cl  0  0  0  0  0  0  0  0  0  0  0  0
  141.0490   70.5130  227.3650 C   0  0  0  0  0  0  0  0  0  0  0  0
  140.8200   71.3710  226.2950 C   0  0  0  0  0  0  0  0  0  0  0  0
  140.1970   70.8410  225.1870 C   0  0  0  0  0  0  0  0  0  0  0  0
  139.9840   71.6990  224.1550 N   0  0  0  0  0  0  0  0  0  0  0  0
  139.5500   73.9690  223.1340 H   0  0  0  0  0  0  0  0  0  0  0  0
  139.2397   74.0936  220.1118 H   0  0  0  0  0  0  0  0  0  0  0  0
  138.0436   74.9752  221.1097 H   0  0  0  0  0  0  0  0  0  0  0  0
  139.2689   78.1860  219.9153 H   0  0  0  0  0  0  0  0  0  0  0  0
  140.3186   78.0058  221.4533 H   0  0  0  0  0  0  0  0  0  0  0  0
  140.8100   79.9032  220.0728 H   0  0  0  0  0  0  0  0  0  0  0  0
  142.1498   78.6410  220.3838 H   0  0  0  0  0  0  0  0  0  0  0  0
  140.6670   78.9727  217.8204 H   0  0  0  0  0  0  0  0  0  0  0  0
  142.2800   79.7004  218.2304 H   0  0  0  0  0  0  0  0  0  0  0  0
  142.8931   77.7381  217.1422 H   0  0  0  0  0  0  0  0  0  0  0  0
  142.9428   77.2338  218.8373 H   0  0  0  0  0  0  0  0  0  0  0  0
  140.2232   77.1171  217.5207 H   0  0  0  0  0  0  0  0  0  0  0  0
  141.4027   75.9529  216.8895 H   0  0  0  0  0  0  0  0  0  0  0  0
  140.2351   74.9689  218.8826 H   0  0  0  0  0  0  0  0  0  0  0  0
  141.6611   73.2553  218.2478 H   0  0  0  0  0  0  0  0  0  0  0  0
  143.7181   72.0145  218.6768 H   0  0  0  0  0  0  0  0  0  0  0  0
  145.2681   75.3202  220.8967 H   0  0  0  0  0  0  0  0  0  0  0  0
  143.1940   76.5729  220.4608 H   0  0  0  0  0  0  0  0  0  0  0  0
  138.4864   69.6608  221.9660 H   0  0  0  0  0  0  0  0  0  0  0  0
  138.8594   68.0543  223.8390 H   0  0  0  0  0  0  0  0  0  0  0  0
  139.7330   67.6140  226.1315 H   0  0  0  0  0  0  0  0  0  0  0  0
  141.5423   70.8878  228.2740 H   0  0  0  0  0  0  0  0  0  0  0  0
  141.1234   72.4277  226.3319 H   0  0  0  0  0  0  0  0  0  0  0  0
  1  2  2  0
  2  3  1  0
  3  4  1  0
  4  5  1  0
  5  6  2  0
  5  7  1  0
  7  8  1  0
  8  9  1  0
  9 10  1  0
 10 11  1  0
 11 12  1  0
 12 13  1  0
 13 14  1  0
 14 15  2  0
 15 16  1  0
 16 17  2  0
 17 18  1  0
 17 19  1  0
 19 20  2  0
  2 21  1  0
 21 22  2  0
 22 23  1  0
 23 24  2  0
 24 25  1  0
 25 26  2  0
 26 27  1  0
 26 28  1  0
 28 29  2  0
 29 30  1  0
 30 31  2  0
 13  7  1  0
 20 14  1  0
 31 21  1  0
 30 24  1  0
  3 32  1  0
  4 33  1  0
  4 34  1  0
  8 35  1  0
  8 36  1  0
  9 37  1  0
  9 38  1  0
 10 39  1  0
 10 40  1  0
 11 41  1  0
 11 42  1  0
 12 43  1  0
 12 44  1  0
 13 45  1  6
 15 46  1  0
 16 47  1  0
 19 48  1  0
 20 49  1  0
 22 50  1  0
 23 51  1  0
 25 52  1  0
 28 53  1  0
 29 54  1  0
M  END
>  <smiles>  (56) 
O=C(NCC(=O)N1CCCCCC1c1ccc(Cl)cc1)c1ccc2cc(Cl)ccc2n1

>  <score_type>  (56) 
oracle

>  <origin>  (56) 
autodockgpu

>  <m_score__min__energy>  (56) 
-7.21

>  <m_primary>  (56) 
energy

>  <rmsd>  (56) 
2.05210320326628

>  <m_score__min__rmsd>  (56) 
2.05210320326628

>  <meeko>  (56) 
{"free_energy": -6.07, "intermolecular_energy": -9.35, "internal_energy": -2.31, "cluster_size": 2, "cluster_id": 6, "rank_in_cluster": 1}

>  <energy>  (56) 
-6.32

>  <cluster_rmsd>  (56) 
1.46

>  <cluster>  (56) 
1

$$$$

     RDKit          3D

 54 57  0  0  0  0  0  0  0  0999 V2000
  139.6720   72.6400  220.6760 O   0  0  0  0  0  0  0  0  0  0  0  0
  139.5520   72.9680  221.8950 C   0  0  0  0  0  0  0  0  0  0  0  0
  139.2830   74.3020  222.3090 N   0  0  0  0  0  0  0  0  0  0  0  0
  139.1400   75.3380  221.2840 C   0  0  0  0  0  0  0  0  0  0  0  0
  140.4780   75.8830  220.9730 C   0  0  0  0  0  0  0  0  0  0  0  0
  141.3480   75.1580  220.4270 O   0  0  0  0  0  0  0  0  0  0  0  0
  140.8580   77.2520  221.2720 N   0  0  0  0  0  0  0  0  0  0  0  0
  141.0710   77.4340  222.6770 C   0  0  0  0  0  0  0  0  0  0  0  0
  140.5840   78.6620  223.3170 C   0  0  0  0  0  0  0  0  0  0  0  0
  140.9780   79.9710  222.7290 C   0  0  0  0  0  0  0  0  0  0  0  0
  140.4620   80.1410  221.3250 C   0  0  0  0  0  0  0  0  0  0  0  0
  141.4860   79.4600  220.4210 C   0  0  0  0  0  0  0  0  0  0  0  0
  140.9260   78.0660  220.1030 C   0  0  1  0  0  0  0  0  0  0  0  0
  141.6580   77.4840  218.9540 C   0  0  0  0  0  0  0  0  0  0  0  0
  142.9520   76.9720  219.1230 C   0  0  0  0  0  0  0  0  0  0  0  0
  143.6610   76.4160  218.0870 C   0  0  0  0  0  0  0  0  0  0  0  0
  143.1340   76.3300  216.8160 C   0  0  0  0  0  0  0  0  0  0  0  0
  144.0730   75.6160  215.5390 Cl  0  0  0  0  0  0  0  0  0  0  0  0
  141.8630   76.8260  216.6240 C   0  0  0  0  0  0  0  0  0  0  0  0
  141.1500   77.3890  217.6800 C   0  0  0  0  0  0  0  0  0  0  0  0
  139.6940   71.9360  222.9400 C   0  0  0  0  0  0  0  0  0  0  0  0
  139.3050   70.6310  222.6690 C   0  0  0  0  0  0  0  0  0  0  0  0
  139.4350   69.6480  223.6500 C   0  0  0  0  0  0  0  0  0  0  0  0
  139.9490   69.9720  224.8870 C   0  0  0  0  0  0  0  0  0  0  0  0
  140.1000   69.0330  225.9000 C   0  0  0  0  0  0  0  0  0  0  0  0
  140.6260   69.4600  227.1060 C   0  0  0  0  0  0  0  0  0  0  0  0
  140.8440   68.3280  228.4240 Cl  0  0  0  0  0  0  0  0  0  0  0  0
  140.9980   70.7680  227.3260 C   0  0  0  0  0  0  0  0  0  0  0  0
  140.8500   71.7130  226.3160 C   0  0  0  0  0  0  0  0  0  0  0  0
  140.3250   71.2780  225.1200 C   0  0  0  0  0  0  0  0  0  0  0  0
  140.1900   72.2200  224.1510 N   0  0  0  0  0  0  0  0  0  0  0  0
  139.1940   74.5180  223.3280 H   0  0  0  0  0  0  0  0  0  0  0  0
  138.6974   74.9022  220.3761 H   0  0  0  0  0  0  0  0  0  0  0  0
  138.4837   76.1409  221.6509 H   0  0  0  0  0  0  0  0  0  0  0  0
  140.5860   76.5896  223.1887 H   0  0  0  0  0  0  0  0  0  0  0  0
  142.1648   77.5030  222.7714 H   0  0  0  0  0  0  0  0  0  0  0  0
  139.4849   78.6193  223.3083 H   0  0  0  0  0  0  0  0  0  0  0  0
  141.0600   78.6570  224.3087 H   0  0  0  0  0  0  0  0  0  0  0  0
  140.5714   80.7780  223.3562 H   0  0  0  0  0  0  0  0  0  0  0  0
  142.0768   80.0082  222.6922 H   0  0  0  0  0  0  0  0  0  0  0  0
  139.4777   79.6618  221.2179 H   0  0  0  0  0  0  0  0  0  0  0  0
  140.3352   81.2025  221.0657 H   0  0  0  0  0  0  0  0  0  0  0  0
  141.6183   80.0372  219.4940 H   0  0  0  0  0  0  0  0  0  0  0  0
  142.4681   79.3923  220.9119 H   0  0  0  0  0  0  0  0  0  0  0  0
  139.8775   78.1382  219.7782 H   0  0  0  0  0  0  0  0  0  0  0  0
  143.4152   77.0172  220.1197 H   0  0  0  0  0  0  0  0  0  0  0  0
  144.6736   76.0300  218.2756 H   0  0  0  0  0  0  0  0  0  0  0  0
  141.4058   76.7768  215.6247 H   0  0  0  0  0  0  0  0  0  0  0  0
  140.1378   77.7738  217.4864 H   0  0  0  0  0  0  0  0  0  0  0  0
  138.8947   70.3726  221.6817 H   0  0  0  0  0  0  0  0  0  0  0  0
  139.1272   68.6138  223.4362 H   0  0  0  0  0  0  0  0  0  0  0  0
  139.8103   67.9828  225.7477 H   0  0  0  0  0  0  0  0  0  0  0  0
  141.4122   71.0653  228.3007 H   0  0  0  0  0  0  0  0  0  0  0  0
  141.1402   72.7633  226.4666 H   0  0  0  0  0  0  0  0  0  0  0  0
  1  2  2  0
  2  3  1  0
  3  4  1  0
  4  5  1  0
  5  6  2  0
  5  7  1  0
  7  8  1  0
  8  9  1  0
  9 10  1  0
 10 11  1  0
 11 12  1  0
 12 13  1  0
 13 14  1  0
 14 15  2  0
 15 16  1  0
 16 17  2  0
 17 18  1  0
 17 19  1  0
 19 20  2  0
  2 21  1  0
 21 22  2  0
 22 23  1  0
 23 24  2  0
 24 25  1  0
 25 26  2  0
 26 27  1  0
 26 28  1  0
 28 29  2  0
 29 30  1  0
 30 31  2  0
 13  7  1  0
 20 14  1  0
 31 21  1  0
 30 24  1  0
  3 32  1  0
  4 33  1  0
  4 34  1  0
  8 35  1  0
  8 36  1  0
  9 37  1  0
  9 38  1  0
 10 39  1  0
 10 40  1  0
 11 41  1  0
 11 42  1  0
 12 43  1  0
 12 44  1  0
 13 45  1  6
 15 46  1  0
 16 47  1  0
 19 48  1  0
 20 49  1  0
 22 50  1  0
 23 51  1  0
 25 52  1  0
 28 53  1  0
 29 54  1  0
M  END
>  <smiles>  (57) 
O=C(NCC(=O)N1CCCCCC1c1ccc(Cl)cc1)c1ccc2cc(Cl)ccc2n1

>  <score_type>  (57) 
oracle

>  <origin>  (57) 
autodockgpu

>  <m_score__min__energy>  (57) 
-7.21

>  <m_primary>  (57) 
energy

>  <rmsd>  (57) 
3.0473323596831174

>  <m_score__min__rmsd>  (57) 
3.0473323596831174

>  <meeko>  (57) 
{"free_energy": -6.02, "intermolecular_energy": -9.3, "internal_energy": -1.54, "cluster_size": 12, "cluster_id": 1, "rank_in_cluster": 11}

>  <energy>  (57) 
-6.28

>  <cluster_rmsd>  (57) 
1.8

>  <cluster>  (57) 
1

$$$$

     RDKit          3D

 54 57  0  0  0  0  0  0  0  0999 V2000
  140.2690   72.3750  220.8830 O   0  0  0  0  0  0  0  0  0  0  0  0
  139.6240   72.5600  221.9590 C   0  0  0  0  0  0  0  0  0  0  0  0
  138.7640   73.6760  222.1580 N   0  0  0  0  0  0  0  0  0  0  0  0
  138.6180   74.6500  221.0730 C   0  0  0  0  0  0  0  0  0  0  0  0
  138.9450   75.9920  221.5970 C   0  0  0  0  0  0  0  0  0  0  0  0
  138.1100   76.6230  222.2940 O   0  0  0  0  0  0  0  0  0  0  0  0
  140.2160   76.6470  221.3450 N   0  0  0  0  0  0  0  0  0  0  0  0
  140.6440   77.4020  222.4860 C   0  0  0  0  0  0  0  0  0  0  0  0
  140.9270   78.8330  222.3260 C   0  0  0  0  0  0  0  0  0  0  0  0
  141.0220   79.3870  220.9480 C   0  0  0  0  0  0  0  0  0  0  0  0
  141.8830   78.5360  220.0520 C   0  0  0  0  0  0  0  0  0  0  0  0
  140.9250   77.6710  219.2380 C   0  0  0  0  0  0  0  0  0  0  0  0
  140.7180   76.3770  220.0380 C   0  0  1  0  0  0  0  0  0  0  0  0
  141.9440   75.5500  219.9770 C   0  0  0  0  0  0  0  0  0  0  0  0
  142.8500   75.7010  218.9170 C   0  0  0  0  0  0  0  0  0  0  0  0
  144.0040   74.9620  218.8280 C   0  0  0  0  0  0  0  0  0  0  0  0
  144.3360   74.0240  219.7820 C   0  0  0  0  0  0  0  0  0  0  0  0
  145.8090   73.1140  219.6220 Cl  0  0  0  0  0  0  0  0  0  0  0  0
  143.4620   73.8570  220.8330 C   0  0  0  0  0  0  0  0  0  0  0  0
  142.2940   74.6100  220.9180 C   0  0  0  0  0  0  0  0  0  0  0  0
  139.7610   71.5890  223.0620 C   0  0  0  0  0  0  0  0  0  0  0  0
  139.3820   70.2690  222.8590 C   0  0  0  0  0  0  0  0  0  0  0  0
  139.5050   69.3420  223.8950 C   0  0  0  0  0  0  0  0  0  0  0  0
  140.0050   69.7370  225.1170 C   0  0  0  0  0  0  0  0  0  0  0  0
  140.1500   68.8570  226.1830 C   0  0  0  0  0  0  0  0  0  0  0  0
  140.6600   69.3540  227.3680 C   0  0  0  0  0  0  0  0  0  0  0  0
  140.8700   68.2980  228.7490 Cl  0  0  0  0  0  0  0  0  0  0  0  0
  141.0220   70.6740  227.5190 C   0  0  0  0  0  0  0  0  0  0  0  0
  140.8810   71.5610  226.4570 C   0  0  0  0  0  0  0  0  0  0  0  0
  140.3710   71.0570  225.2810 C   0  0  0  0  0  0  0  0  0  0  0  0
  140.2420   71.9430  224.2590 N   0  0  0  0  0  0  0  0  0  0  0  0
  138.2560   73.7810  223.0650 H   0  0  0  0  0  0  0  0  0  0  0  0
  139.3042   74.3955  220.2518 H   0  0  0  0  0  0  0  0  0  0  0  0
  137.5861   74.6365  220.6923 H   0  0  0  0  0  0  0  0  0  0  0  0
  139.8544   77.3125  223.2466 H   0  0  0  0  0  0  0  0  0  0  0  0
  141.6216   76.9662  222.7395 H   0  0  0  0  0  0  0  0  0  0  0  0
  140.1262   79.3824  222.8427 H   0  0  0  0  0  0  0  0  0  0  0  0
  141.9402   78.9553  222.7365 H   0  0  0  0  0  0  0  0  0  0  0  0
  140.0110   79.4438  220.5183 H   0  0  0  0  0  0  0  0  0  0  0  0
  141.4844   80.3828  221.0150 H   0  0  0  0  0  0  0  0  0  0  0  0
  142.4837   79.1714  219.3847 H   0  0  0  0  0  0  0  0  0  0  0  0
  142.5825   77.9195  220.6357 H   0  0  0  0  0  0  0  0  0  0  0  0
  139.9654   78.1913  219.1023 H   0  0  0  0  0  0  0  0  0  0  0  0
  141.3323   77.4594  218.2383 H   0  0  0  0  0  0  0  0  0  0  0  0
  139.9275   75.7646  219.5796 H   0  0  0  0  0  0  0  0  0  0  0  0
  142.6285   76.4367  218.1298 H   0  0  0  0  0  0  0  0  0  0  0  0
  144.6797   75.1224  217.9749 H   0  0  0  0  0  0  0  0  0  0  0  0
  143.6897   73.1187  221.6160 H   0  0  0  0  0  0  0  0  0  0  0  0
  141.6228   74.4462  221.7739 H   0  0  0  0  0  0  0  0  0  0  0  0
  138.9852   69.9540  221.8826 H   0  0  0  0  0  0  0  0  0  0  0  0
  139.2029   68.2963  223.7362 H   0  0  0  0  0  0  0  0  0  0  0  0
  139.8678   67.7982  226.0868 H   0  0  0  0  0  0  0  0  0  0  0  0
  141.4231   71.0273  228.4804 H   0  0  0  0  0  0  0  0  0  0  0  0
  141.1646   72.6195  226.5522 H   0  0  0  0  0  0  0  0  0  0  0  0
  1  2  2  0
  2  3  1  0
  3  4  1  0
  4  5  1  0
  5  6  2  0
  5  7  1  0
  7  8  1  0
  8  9  1  0
  9 10  1  0
 10 11  1  0
 11 12  1  0
 12 13  1  0
 13 14  1  0
 14 15  2  0
 15 16  1  0
 16 17  2  0
 17 18  1  0
 17 19  1  0
 19 20  2  0
  2 21  1  0
 21 22  2  0
 22 23  1  0
 23 24  2  0
 24 25  1  0
 25 26  2  0
 26 27  1  0
 26 28  1  0
 28 29  2  0
 29 30  1  0
 30 31  2  0
 13  7  1  0
 20 14  1  0
 31 21  1  0
 30 24  1  0
  3 32  1  0
  4 33  1  0
  4 34  1  0
  8 35  1  0
  8 36  1  0
  9 37  1  0
  9 38  1  0
 10 39  1  0
 10 40  1  0
 11 41  1  0
 11 42  1  0
 12 43  1  0
 12 44  1  0
 13 45  1  6
 15 46  1  0
 16 47  1  0
 19 48  1  0
 20 49  1  0
 22 50  1  0
 23 51  1  0
 25 52  1  0
 28 53  1  0
 29 54  1  0
M  END
>  <smiles>  (58) 
O=C(NCC(=O)N1CCCCCC1c1ccc(Cl)cc1)c1ccc2cc(Cl)ccc2n1

>  <score_type>  (58) 
oracle

>  <origin>  (58) 
autodockgpu

>  <m_score__min__energy>  (58) 
-7.21

>  <m_primary>  (58) 
energy

>  <rmsd>  (58) 
2.6101565060725314

>  <m_score__min__rmsd>  (58) 
2.6101565060725314

>  <meeko>  (58) 
{"free_energy": -6.32, "intermolecular_energy": -9.6, "internal_energy": -2.04, "cluster_size": 12, "cluster_id": 1, "rank_in_cluster": 6}

>  <energy>  (58) 
-6.23

>  <cluster_rmsd>  (58) 
1.53

>  <cluster>  (58) 
1

$$$$

     RDKit          3D

 54 57  0  0  0  0  0  0  0  0999 V2000
  139.5740   75.4010  222.3420 O   0  0  0  0  0  0  0  0  0  0  0  0
  140.7600   75.5630  221.9260 C   0  0  0  0  0  0  0  0  0  0  0  0
  141.4040   76.8310  221.9130 N   0  0  0  0  0  0  0  0  0  0  0  0
  140.6650   77.9970  222.4020 C   0  0  0  0  0  0  0  0  0  0  0  0
  141.3840   79.2200  221.9880 C   0  0  0  0  0  0  0  0  0  0  0  0
  142.6300   79.3040  222.1320 O   0  0  0  0  0  0  0  0  0  0  0  0
  140.7130   80.3680  221.4050 N   0  0  0  0  0  0  0  0  0  0  0  0
  140.3770   81.3340  222.4090 C   0  0  0  0  0  0  0  0  0  0  0  0
  139.9250   82.6660  221.9910 C   0  0  0  0  0  0  0  0  0  0  0  0
  140.5490   83.2810  220.7880 C   0  0  0  0  0  0  0  0  0  0  0  0
  140.1040   82.6130  219.5130 C   0  0  0  0  0  0  0  0  0  0  0  0
  141.1010   81.4870  219.2630 C   0  0  0  0  0  0  0  0  0  0  0  0
  140.5580   80.2500  219.9930 C   0  0  1  0  0  0  0  0  0  0  0  0
  141.1210   79.0230  219.3830 C   0  0  0  0  0  0  0  0  0  0  0  0
  140.3170   77.8900  219.1970 C   0  0  0  0  0  0  0  0  0  0  0  0
  140.7960   76.7370  218.6260 C   0  0  0  0  0  0  0  0  0  0  0  0
  142.1040   76.6300  218.2040 C   0  0  0  0  0  0  0  0  0  0  0  0
  142.6610   75.1470  217.4870 Cl  0  0  0  0  0  0  0  0  0  0  0  0
  142.9150   77.7300  218.3750 C   0  0  0  0  0  0  0  0  0  0  0  0
  142.4220   78.8970  218.9540 C   0  0  0  0  0  0  0  0  0  0  0  0
  141.5190   74.3980  221.4300 C   0  0  0  0  0  0  0  0  0  0  0  0
  140.9340   73.1390  221.4590 C   0  0  0  0  0  0  0  0  0  0  0  0
  141.6430   72.0310  220.9940 C   0  0  0  0  0  0  0  0  0  0  0  0
  142.9220   72.1870  220.5050 C   0  0  0  0  0  0  0  0  0  0  0  0
  143.6730   71.1190  220.0290 C   0  0  0  0  0  0  0  0  0  0  0  0
  144.9470   71.3810  219.5600 C   0  0  0  0  0  0  0  0  0  0  0  0
  145.9450   70.0810  218.9450 Cl  0  0  0  0  0  0  0  0  0  0  0  0
  145.4830   72.6500  219.5520 C   0  0  0  0  0  0  0  0  0  0  0  0
  144.7370   73.7240  220.0260 C   0  0  0  0  0  0  0  0  0  0  0  0
  143.4700   73.4520  220.4910 C   0  0  0  0  0  0  0  0  0  0  0  0
  142.7630   74.5180  220.9500 N   0  0  0  0  0  0  0  0  0  0  0  0
  142.3850   76.9090  221.5600 H   0  0  0  0  0  0  0  0  0  0  0  0
  139.6520   77.9999  221.9733 H   0  0  0  0  0  0  0  0  0  0  0  0
  140.5883   77.9598  223.4987 H   0  0  0  0  0  0  0  0  0  0  0  0
  139.5730   80.8977  223.0200 H   0  0  0  0  0  0  0  0  0  0  0  0
  141.3320   81.5274  222.9194 H   0  0  0  0  0  0  0  0  0  0  0  0
  138.8445   82.5965  221.7971 H   0  0  0  0  0  0  0  0  0  0  0  0
  140.2265   83.3253  222.8183 H   0  0  0  0  0  0  0  0  0  0  0  0
  140.2689   84.3440  220.7477 H   0  0  0  0  0  0  0  0  0  0  0  0
  141.6388   83.1576  220.8719 H   0  0  0  0  0  0  0  0  0  0  0  0
  139.0883   82.2066  219.6280 H   0  0  0  0  0  0  0  0  0  0  0  0
  140.0763   83.3226  218.6730 H   0  0  0  0  0  0  0  0  0  0  0  0
  141.1835   81.2856  218.1847 H   0  0  0  0  0  0  0  0  0  0  0  0
  142.1029   81.7557  219.6292 H   0  0  0  0  0  0  0  0  0  0  0  0
  139.4689   80.1723  219.8593 H   0  0  0  0  0  0  0  0  0  0  0  0
  139.2660   77.9259  219.5197 H   0  0  0  0  0  0  0  0  0  0  0  0
  140.1200   75.8781  218.5023 H   0  0  0  0  0  0  0  0  0  0  0  0
  143.9651   77.6864  218.0503 H   0  0  0  0  0  0  0  0  0  0  0  0
  143.1015   79.7538  219.0732 H   0  0  0  0  0  0  0  0  0  0  0  0
  139.9126   73.0153  221.8482 H   0  0  0  0  0  0  0  0  0  0  0  0
  141.1811   71.0329  221.0177 H   0  0  0  0  0  0  0  0  0  0  0  0
  143.2665   70.0969  220.0255 H   0  0  0  0  0  0  0  0  0  0  0  0
  146.5016   72.8140  219.1705 H   0  0  0  0  0  0  0  0  0  0  0  0
  145.1419   74.7467  220.0292 H   0  0  0  0  0  0  0  0  0  0  0  0
  1  2  2  0
  2  3  1  0
  3  4  1  0
  4  5  1  0
  5  6  2  0
  5  7  1  0
  7  8  1  0
  8  9  1  0
  9 10  1  0
 10 11  1  0
 11 12  1  0
 12 13  1  0
 13 14  1  0
 14 15  2  0
 15 16  1  0
 16 17  2  0
 17 18  1  0
 17 19  1  0
 19 20  2  0
  2 21  1  0
 21 22  2  0
 22 23  1  0
 23 24  2  0
 24 25  1  0
 25 26  2  0
 26 27  1  0
 26 28  1  0
 28 29  2  0
 29 30  1  0
 30 31  2  0
 13  7  1  0
 20 14  1  0
 31 21  1  0
 30 24  1  0
  3 32  1  0
  4 33  1  0
  4 34  1  0
  8 35  1  0
  8 36  1  0
  9 37  1  0
  9 38  1  0
 10 39  1  0
 10 40  1  0
 11 41  1  0
 11 42  1  0
 12 43  1  0
 12 44  1  0
 13 45  1  1
 15 46  1  0
 16 47  1  0
 19 48  1  0
 20 49  1  0
 22 50  1  0
 23 51  1  0
 25 52  1  0
 28 53  1  0
 29 54  1  0
M  END
>  <smiles>  (59) 
O=C(NCC(=O)N1CCCCCC1c1ccc(Cl)cc1)c1ccc2cc(Cl)ccc2n1

>  <score_type>  (59) 
oracle

>  <origin>  (59) 
autodockgpu

>  <m_score__min__energy>  (59) 
-7.21

>  <m_primary>  (59) 
energy

>  <rmsd>  (59) 
6.527183263551232

>  <m_score__min__rmsd>  (59) 
6.527183263551232

>  <meeko>  (59) 
{"free_energy": -4.43, "intermolecular_energy": -7.71, "internal_energy": -3.15, "cluster_size": 3, "cluster_id": 8, "rank_in_cluster": 3}

>  <energy>  (59) 
-6.23

>  <cluster_rmsd>  (59) 
1.94

>  <cluster>  (59) 
1

$$$$

     RDKit          3D

 54 57  0  0  0  0  0  0  0  0999 V2000
  138.1210   71.8650  220.7020 O   0  0  0  0  0  0  0  0  0  0  0  0
  138.5670   72.3560  221.7820 C   0  0  0  0  0  0  0  0  0  0  0  0
  138.7910   73.7500  221.9580 N   0  0  0  0  0  0  0  0  0  0  0  0
  138.4930   74.6530  220.8440 C   0  0  0  0  0  0  0  0  0  0  0  0
  139.5580   74.5170  219.8280 C   0  0  0  0  0  0  0  0  0  0  0  0
  139.6650   73.4590  219.1580 O   0  0  0  0  0  0  0  0  0  0  0  0
  140.5200   75.5680  219.5520 N   0  0  0  0  0  0  0  0  0  0  0  0
  140.2630   76.1830  218.2830 C   0  0  0  0  0  0  0  0  0  0  0  0
  141.3730   76.8160  217.5620 C   0  0  0  0  0  0  0  0  0  0  0  0
  142.7610   76.3680  217.8620 C   0  0  0  0  0  0  0  0  0  0  0  0
  142.7850   75.0760  218.6360 C   0  0  0  0  0  0  0  0  0  0  0  0
  142.9030   75.4730  220.1070 C   0  0  0  0  0  0  0  0  0  0  0  0
  141.4710   75.7260  220.6020 C   0  0  1  0  0  0  0  0  0  0  0  0
  141.4160   77.0130  221.3330 C   0  0  0  0  0  0  0  0  0  0  0  0
  141.8170   78.2020  220.7070 C   0  0  0  0  0  0  0  0  0  0  0  0
  141.7720   79.4170  221.3450 C   0  0  0  0  0  0  0  0  0  0  0  0
  141.3280   79.5340  222.6450 C   0  0  0  0  0  0  0  0  0  0  0  0
  141.2910   81.0960  223.4080 Cl  0  0  0  0  0  0  0  0  0  0  0  0
  140.9290   78.3800  223.2820 C   0  0  0  0  0  0  0  0  0  0  0  0
  140.9760   77.1510  222.6290 C   0  0  0  0  0  0  0  0  0  0  0  0
  138.8730   71.4600  222.9140 C   0  0  0  0  0  0  0  0  0  0  0  0
  138.3230   70.1850  222.9430 C   0  0  0  0  0  0  0  0  0  0  0  0
  138.6050   69.3300  224.0090 C   0  0  0  0  0  0  0  0  0  0  0  0
  139.4290   69.7500  225.0310 C   0  0  0  0  0  0  0  0  0  0  0  0
  139.7430   68.9390  226.1150 C   0  0  0  0  0  0  0  0  0  0  0  0
  140.5800   69.4560  227.0880 C   0  0  0  0  0  0  0  0  0  0  0  0
  141.0160   68.4880  228.4800 Cl  0  0  0  0  0  0  0  0  0  0  0  0
  141.1010   70.7290  227.0130 C   0  0  0  0  0  0  0  0  0  0  0  0
  140.7910   71.5450  225.9300 C   0  0  0  0  0  0  0  0  0  0  0  0
  139.9580   71.0220  224.9670 C   0  0  0  0  0  0  0  0  0  0  0  0
  139.6700   71.8390  223.9200 N   0  0  0  0  0  0  0  0  0  0  0  0
  139.1600   74.1020  222.8700 H   0  0  0  0  0  0  0  0  0  0  0  0
  137.5221   74.3868  220.4008 H   0  0  0  0  0  0  0  0  0  0  0  0
  138.4479   75.6914  221.2041 H   0  0  0  0  0  0  0  0  0  0  0  0
  139.8533   75.4034  217.6239 H   0  0  0  0  0  0  0  0  0  0  0  0
  139.5941   77.0216  218.5267 H   0  0  0  0  0  0  0  0  0  0  0  0
  141.2018   76.6468  216.4887 H   0  0  0  0  0  0  0  0  0  0  0  0
  141.3494   77.8637  217.8965 H   0  0  0  0  0  0  0  0  0  0  0  0
  143.2997   76.2234  216.9139 H   0  0  0  0  0  0  0  0  0  0  0  0
  143.2404   77.1417  218.4797 H   0  0  0  0  0  0  0  0  0  0  0  0
  141.8573   74.5101  218.4654 H   0  0  0  0  0  0  0  0  0  0  0  0
  143.6200   74.4321  218.3226 H   0  0  0  0  0  0  0  0  0  0  0  0
  143.3676   74.6603  220.6847 H   0  0  0  0  0  0  0  0  0  0  0  0
  143.5322   76.3668  220.2304 H   0  0  0  0  0  0  0  0  0  0  0  0
  141.1763   74.9587  221.3330 H   0  0  0  0  0  0  0  0  0  0  0  0
  142.1800   78.1599  219.6695 H   0  0  0  0  0  0  0  0  0  0  0  0
  142.0980   80.3187  220.8059 H   0  0  0  0  0  0  0  0  0  0  0  0
  140.5685   78.4298  224.3201 H   0  0  0  0  0  0  0  0  0  0  0  0
  140.6475   76.2528  223.1723 H   0  0  0  0  0  0  0  0  0  0  0  0
  137.6661   69.8497  222.1268 H   0  0  0  0  0  0  0  0  0  0  0  0
  138.1695   68.3202  224.0338 H   0  0  0  0  0  0  0  0  0  0  0  0
  139.3392   67.9191  226.1969 H   0  0  0  0  0  0  0  0  0  0  0  0
  141.7623   71.1003  227.8097 H   0  0  0  0  0  0  0  0  0  0  0  0
  141.1944   72.5650  225.8466 H   0  0  0  0  0  0  0  0  0  0  0  0
  1  2  2  0
  2  3  1  0
  3  4  1  0
  4  5  1  0
  5  6  2  0
  5  7  1  0
  7  8  1  0
  8  9  1  0
  9 10  1  0
 10 11  1  0
 11 12  1  0
 12 13  1  0
 13 14  1  0
 14 15  2  0
 15 16  1  0
 16 17  2  0
 17 18  1  0
 17 19  1  0
 19 20  2  0
  2 21  1  0
 21 22  2  0
 22 23  1  0
 23 24  2  0
 24 25  1  0
 25 26  2  0
 26 27  1  0
 26 28  1  0
 28 29  2  0
 29 30  1  0
 30 31  2  0
 13  7  1  0
 20 14  1  0
 31 21  1  0
 30 24  1  0
  3 32  1  0
  4 33  1  0
  4 34  1  0
  8 35  1  0
  8 36  1  0
  9 37  1  0
  9 38  1  0
 10 39  1  0
 10 40  1  0
 11 41  1  0
 11 42  1  0
 12 43  1  0
 12 44  1  0
 13 45  1  1
 15 46  1  0
 16 47  1  0
 19 48  1  0
 20 49  1  0
 22 50  1  0
 23 51  1  0
 25 52  1  0
 28 53  1  0
 29 54  1  0
M  END
>  <smiles>  (60) 
O=C(NCC(=O)N1CCCCCC1c1ccc(Cl)cc1)c1ccc2cc(Cl)ccc2n1

>  <score_type>  (60) 
oracle

>  <origin>  (60) 
autodockgpu

>  <m_score__min__energy>  (60) 
-7.21

>  <m_primary>  (60) 
energy

>  <rmsd>  (60) 
1.714844469439342

>  <m_score__min__rmsd>  (60) 
1.714844469439342

>  <meeko>  (60) 
{"free_energy": -6.04, "intermolecular_energy": -9.32, "internal_energy": -1.93, "cluster_size": 9, "cluster_id": 2, "rank_in_cluster": 9}

>  <energy>  (60) 
-6.1

>  <cluster_rmsd>  (60) 
1.59

>  <cluster>  (60) 
1

$$$$

     RDKit          3D

 54 57  0  0  0  0  0  0  0  0999 V2000
  139.9490   74.0540  222.2250 O   0  0  0  0  0  0  0  0  0  0  0  0
  139.9630   72.8220  221.9270 C   0  0  0  0  0  0  0  0  0  0  0  0
  139.9700   72.3570  220.5820 N   0  0  0  0  0  0  0  0  0  0  0  0
  139.9580   73.3440  219.5000 C   0  0  0  0  0  0  0  0  0  0  0  0
  141.3320   73.4810  218.9720 C   0  0  0  0  0  0  0  0  0  0  0  0
  141.5360   74.0590  217.8740 O   0  0  0  0  0  0  0  0  0  0  0  0
  142.4970   72.9680  219.6690 N   0  0  0  0  0  0  0  0  0  0  0  0
  142.6020   71.5450  219.5240 C   0  0  0  0  0  0  0  0  0  0  0  0
  143.8190   70.8710  219.9890 C   0  0  0  0  0  0  0  0  0  0  0  0
  145.1280   71.5490  219.7850 C   0  0  0  0  0  0  0  0  0  0  0  0
  145.3050   72.7310  220.7020 C   0  0  0  0  0  0  0  0  0  0  0  0
  144.7310   73.9280  219.9540 C   0  0  0  0  0  0  0  0  0  0  0  0
  143.2400   73.9970  220.3180 C   0  0  1  0  0  0  0  0  0  0  0  0
  142.7400   75.3760  220.1190 C   0  0  0  0  0  0  0  0  0  0  0  0
  143.2640   76.1800  219.0960 C   0  0  0  0  0  0  0  0  0  0  0  0
  142.8220   77.4600  218.8700 C   0  0  0  0  0  0  0  0  0  0  0  0
  141.8320   78.0280  219.6430 C   0  0  0  0  0  0  0  0  0  0  0  0
  141.3080   79.6540  219.3150 Cl  0  0  0  0  0  0  0  0  0  0  0  0
  141.3000   77.2590  220.6540 C   0  0  0  0  0  0  0  0  0  0  0  0
  141.7530   75.9610  220.8770 C   0  0  0  0  0  0  0  0  0  0  0  0
  139.9740   71.8150  223.0050 C   0  0  0  0  0  0  0  0  0  0  0  0
  139.4850   70.5400  222.7530 C   0  0  0  0  0  0  0  0  0  0  0  0
  139.4900   69.5800  223.7660 C   0  0  0  0  0  0  0  0  0  0  0  0
  139.9810   69.8970  225.0140 C   0  0  0  0  0  0  0  0  0  0  0  0
  140.0100   68.9800  226.0580 C   0  0  0  0  0  0  0  0  0  0  0  0
  140.5230   69.3990  227.2730 C   0  0  0  0  0  0  0  0  0  0  0  0
  140.5890   68.2940  228.6290 Cl  0  0  0  0  0  0  0  0  0  0  0  0
  140.9970   70.6760  227.4720 C   0  0  0  0  0  0  0  0  0  0  0  0
  140.9710   71.5990  226.4320 C   0  0  0  0  0  0  0  0  0  0  0  0
  140.4590   71.1730  225.2270 C   0  0  0  0  0  0  0  0  0  0  0  0
  140.4440   72.0930  224.2270 N   0  0  0  0  0  0  0  0  0  0  0  0
  139.9820   71.3300  220.3910 H   0  0  0  0  0  0  0  0  0  0  0  0
  139.2847   73.0068  218.6982 H   0  0  0  0  0  0  0  0  0  0  0  0
  139.6025   74.3134  219.8793 H   0  0  0  0  0  0  0  0  0  0  0  0
  141.7582   71.1018  220.0731 H   0  0  0  0  0  0  0  0  0  0  0  0
  142.6147   71.3909  218.4349 H   0  0  0  0  0  0  0  0  0  0  0  0
  143.7048   70.7039  221.0702 H   0  0  0  0  0  0  0  0  0  0  0  0
  143.8828   69.9684  219.3635 H   0  0  0  0  0  0  0  0  0  0  0  0
  145.9350   70.8268  219.9780 H   0  0  0  0  0  0  0  0  0  0  0  0
  145.1600   71.9173  218.7490 H   0  0  0  0  0  0  0  0  0  0  0  0
  144.7592   72.5703  221.6434 H   0  0  0  0  0  0  0  0  0  0  0  0
  146.3624   72.8860  220.9623 H   0  0  0  0  0  0  0  0  0  0  0  0
  145.2413   74.8512  220.2660 H   0  0  0  0  0  0  0  0  0  0  0  0
  144.8705   73.8221  218.8680 H   0  0  0  0  0  0  0  0  0  0  0  0
  143.0958   73.7838  221.3874 H   0  0  0  0  0  0  0  0  0  0  0  0
  144.0567   75.7707  218.4524 H   0  0  0  0  0  0  0  0  0  0  0  0
  143.2683   78.0460  218.0530 H   0  0  0  0  0  0  0  0  0  0  0  0
  140.5075   77.6751  221.2934 H   0  0  0  0  0  0  0  0  0  0  0  0
  141.3021   75.3790  221.6943 H   0  0  0  0  0  0  0  0  0  0  0  0
  139.0942   70.2870  221.7564 H   0  0  0  0  0  0  0  0  0  0  0  0
  139.1019   68.5699  223.5682 H   0  0  0  0  0  0  0  0  0  0  0  0
  139.6371   67.9540  225.9228 H   0  0  0  0  0  0  0  0  0  0  0  0
  141.3968   70.9667  228.4547 H   0  0  0  0  0  0  0  0  0  0  0  0
  141.3435   72.6253  226.5664 H   0  0  0  0  0  0  0  0  0  0  0  0
  1  2  2  0
  2  3  1  0
  3  4  1  0
  4  5  1  0
  5  6  2  0
  5  7  1  0
  7  8  1  0
  8  9  1  0
  9 10  1  0
 10 11  1  0
 11 12  1  0
 12 13  1  0
 13 14  1  0
 14 15  2  0
 15 16  1  0
 16 17  2  0
 17 18  1  0
 17 19  1  0
 19 20  2  0
  2 21  1  0
 21 22  2  0
 22 23  1  0
 23 24  2  0
 24 25  1  0
 25 26  2  0
 26 27  1  0
 26 28  1  0
 28 29  2  0
 29 30  1  0
 30 31  2  0
 13  7  1  0
 20 14  1  0
 31 21  1  0
 30 24  1  0
  3 32  1  0
  4 33  1  0
  4 34  1  0
  8 35  1  0
  8 36  1  0
  9 37  1  0
  9 38  1  0
 10 39  1  0
 10 40  1  0
 11 41  1  0
 11 42  1  0
 12 43  1  0
 12 44  1  0
 13 45  1  1
 15 46  1  0
 16 47  1  0
 19 48  1  0
 20 49  1  0
 22 50  1  0
 23 51  1  0
 25 52  1  0
 28 53  1  0
 29 54  1  0
M  END
>  <smiles>  (61) 
O=C(NCC(=O)N1CCCCCC1c1ccc(Cl)cc1)c1ccc2cc(Cl)ccc2n1

>  <score_type>  (61) 
oracle

>  <origin>  (61) 
autodockgpu

>  <m_score__min__energy>  (61) 
-7.21

>  <m_primary>  (61) 
energy

>  <rmsd>  (61) 
3.439332862491398

>  <m_score__min__rmsd>  (61) 
3.439332862491398

>  <meeko>  (61) 
{"free_energy": -6.53, "intermolecular_energy": -9.81, "internal_energy": -1.98, "cluster_size": 9, "cluster_id": 3, "rank_in_cluster": 1}

>  <energy>  (61) 
-6.02

>  <cluster_rmsd>  (61) 
0.82

>  <cluster>  (61) 
1

$$$$

     RDKit          3D

 54 57  0  0  0  0  0  0  0  0999 V2000
  138.8910   71.8810  220.6040 O   0  0  0  0  0  0  0  0  0  0  0  0
  139.3410   72.3440  221.6950 C   0  0  0  0  0  0  0  0  0  0  0  0
  139.7380   73.7010  221.8480 N   0  0  0  0  0  0  0  0  0  0  0  0
  139.6210   74.5990  220.6970 C   0  0  0  0  0  0  0  0  0  0  0  0
  140.7410   74.3290  219.7720 C   0  0  0  0  0  0  0  0  0  0  0  0
  140.6080   74.5250  218.5380 O   0  0  0  0  0  0  0  0  0  0  0  0
  142.0290   73.8320  220.2220 N   0  0  0  0  0  0  0  0  0  0  0  0
  142.0540   72.3990  220.2360 C   0  0  0  0  0  0  0  0  0  0  0  0
  143.2520   71.7140  220.7350 C   0  0  0  0  0  0  0  0  0  0  0  0
  144.5860   72.1990  220.2870 C   0  0  0  0  0  0  0  0  0  0  0  0
  144.9460   73.5230  220.9070 C   0  0  0  0  0  0  0  0  0  0  0  0
  144.3470   74.5870  219.9930 C   0  0  0  0  0  0  0  0  0  0  0  0
  142.9400   74.8840  220.5330 C   0  0  1  0  0  0  0  0  0  0  0  0
  142.5220   76.2420  220.1170 C   0  0  0  0  0  0  0  0  0  0  0  0
  142.9300   76.7630  218.8800 C   0  0  0  0  0  0  0  0  0  0  0  0
  142.5560   78.0120  218.4520 C   0  0  0  0  0  0  0  0  0  0  0  0
  141.7550   78.8290  219.2220 C   0  0  0  0  0  0  0  0  0  0  0  0
  141.3110   80.4050  218.6330 Cl  0  0  0  0  0  0  0  0  0  0  0  0
  141.3420   78.3410  220.4410 C   0  0  0  0  0  0  0  0  0  0  0  0
  141.7230   77.0720  220.8690 C   0  0  0  0  0  0  0  0  0  0  0  0
  139.4650   71.4520  222.8640 C   0  0  0  0  0  0  0  0  0  0  0  0
  138.9580   70.1610  222.7950 C   0  0  0  0  0  0  0  0  0  0  0  0
  139.0690   69.3100  223.8950 C   0  0  0  0  0  0  0  0  0  0  0  0
  139.6830   69.7500  225.0480 C   0  0  0  0  0  0  0  0  0  0  0  0
  139.8220   68.9440  226.1720 C   0  0  0  0  0  0  0  0  0  0  0  0
  140.4530   69.4820  227.2790 C   0  0  0  0  0  0  0  0  0  0  0  0
  140.6620   68.5200  228.7280 Cl  0  0  0  0  0  0  0  0  0  0  0  0
  140.9400   70.7700  227.2970 C   0  0  0  0  0  0  0  0  0  0  0  0
  140.8050   71.5810  226.1760 C   0  0  0  0  0  0  0  0  0  0  0  0
  140.1750   71.0380  225.0790 C   0  0  0  0  0  0  0  0  0  0  0  0
  140.0550   71.8510  223.9970 N   0  0  0  0  0  0  0  0  0  0  0  0
  140.1020   74.0310  222.7700 H   0  0  0  0  0  0  0  0  0  0  0  0
  138.6649   74.4202  220.1833 H   0  0  0  0  0  0  0  0  0  0  0  0
  139.6551   75.6460  221.0326 H   0  0  0  0  0  0  0  0  0  0  0  0
  141.2101   72.0678  220.8590 H   0  0  0  0  0  0  0  0  0  0  0  0
  142.0163   72.1237  219.1717 H   0  0  0  0  0  0  0  0  0  0  0  0
  143.2327   71.7843  221.8326 H   0  0  0  0  0  0  0  0  0  0  0  0
  143.1782   70.7008  220.3130 H   0  0  0  0  0  0  0  0  0  0  0  0
  145.3466   71.4565  220.5702 H   0  0  0  0  0  0  0  0  0  0  0  0
  144.5474   72.3356  219.1962 H   0  0  0  0  0  0  0  0  0  0  0  0
  144.5186   73.6015  221.9175 H   0  0  0  0  0  0  0  0  0  0  0  0
  146.0352   73.6408  221.0056 H   0  0  0  0  0  0  0  0  0  0  0  0
  144.9629   75.4981  220.0158 H   0  0  0  0  0  0  0  0  0  0  0  0
  144.3076   74.2392  218.9502 H   0  0  0  0  0  0  0  0  0  0  0  0
  142.9468   74.9019  221.6328 H   0  0  0  0  0  0  0  0  0  0  0  0
  143.5718   76.1492  218.2308 H   0  0  0  0  0  0  0  0  0  0  0  0
  142.9033   78.3700  217.4716 H   0  0  0  0  0  0  0  0  0  0  0  0
  140.7024   78.9618  221.0856 H   0  0  0  0  0  0  0  0  0  0  0  0
  141.3705   76.7184  221.8492 H   0  0  0  0  0  0  0  0  0  0  0  0
  138.4694   69.8098  221.8742 H   0  0  0  0  0  0  0  0  0  0  0  0
  138.6664   68.2877  223.8421 H   0  0  0  0  0  0  0  0  0  0  0  0
  139.4424   67.9116  226.1808 H   0  0  0  0  0  0  0  0  0  0  0  0
  141.4362   71.1574  228.1991 H   0  0  0  0  0  0  0  0  0  0  0  0
  141.1855   72.6130  226.1660 H   0  0  0  0  0  0  0  0  0  0  0  0
  1  2  2  0
  2  3  1  0
  3  4  1  0
  4  5  1  0
  5  6  2  0
  5  7  1  0
  7  8  1  0
  8  9  1  0
  9 10  1  0
 10 11  1  0
 11 12  1  0
 12 13  1  0
 13 14  1  0
 14 15  2  0
 15 16  1  0
 16 17  2  0
 17 18  1  0
 17 19  1  0
 19 20  2  0
  2 21  1  0
 21 22  2  0
 22 23  1  0
 23 24  2  0
 24 25  1  0
 25 26  2  0
 26 27  1  0
 26 28  1  0
 28 29  2  0
 29 30  1  0
 30 31  2  0
 13  7  1  0
 20 14  1  0
 31 21  1  0
 30 24  1  0
  3 32  1  0
  4 33  1  0
  4 34  1  0
  8 35  1  0
  8 36  1  0
  9 37  1  0
  9 38  1  0
 10 39  1  0
 10 40  1  0
 11 41  1  0
 11 42  1  0
 12 43  1  0
 12 44  1  0
 13 45  1  1
 15 46  1  0
 16 47  1  0
 19 48  1  0
 20 49  1  0
 22 50  1  0
 23 51  1  0
 25 52  1  0
 28 53  1  0
 29 54  1  0
M  END
>  <smiles>  (62) 
O=C(NCC(=O)N1CCCCCC1c1ccc(Cl)cc1)c1ccc2cc(Cl)ccc2n1

>  <score_type>  (62) 
oracle

>  <origin>  (62) 
autodockgpu

>  <m_score__min__energy>  (62) 
-7.21

>  <m_primary>  (62) 
energy

>  <rmsd>  (62) 
2.9173506836385146

>  <m_score__min__rmsd>  (62) 
2.9173506836385146

>  <meeko>  (62) 
{"free_energy": -5.98, "intermolecular_energy": -9.26, "internal_energy": -2.14, "cluster_size": 9, "cluster_id": 3, "rank_in_cluster": 6}

>  <energy>  (62) 
-5.56

>  <cluster_rmsd>  (62) 
1.06

>  <cluster>  (62) 
1

$$$$

     RDKit          3D

 54 57  0  0  0  0  0  0  0  0999 V2000
  140.0690   74.1020  222.1680 O   0  0  0  0  0  0  0  0  0  0  0  0
  140.0740   72.8650  221.8880 C   0  0  0  0  0  0  0  0  0  0  0  0
  140.0980   72.3800  220.5510 N   0  0  0  0  0  0  0  0  0  0  0  0
  140.1190   73.3510  219.4540 C   0  0  0  0  0  0  0  0  0  0  0  0
  141.5100   73.4940  218.9760 C   0  0  0  0  0  0  0  0  0  0  0  0
  141.7460   73.9950  217.8480 O   0  0  0  0  0  0  0  0  0  0  0  0
  142.6570   73.0750  219.7610 N   0  0  0  0  0  0  0  0  0  0  0  0
  142.8850   71.6660  219.6320 C   0  0  0  0  0  0  0  0  0  0  0  0
  144.1770   71.1130  220.0560 C   0  0  0  0  0  0  0  0  0  0  0  0
  145.4170   71.8580  219.7060 C   0  0  0  0  0  0  0  0  0  0  0  0
  145.1200   73.2270  219.1530 C   0  0  0  0  0  0  0  0  0  0  0  0
  144.7980   74.1060  220.3520 C   0  0  0  0  0  0  0  0  0  0  0  0
  143.2660   74.1600  220.4570 C   0  0  1  0  0  0  0  0  0  0  0  0
  142.7880   75.5120  220.0880 C   0  0  0  0  0  0  0  0  0  0  0  0
  143.3630   76.1990  219.0090 C   0  0  0  0  0  0  0  0  0  0  0  0
  142.9430   77.4490  218.6280 C   0  0  0  0  0  0  0  0  0  0  0  0
  141.9250   78.1010  219.2900 C   0  0  0  0  0  0  0  0  0  0  0  0
  141.4300   79.6840  218.7660 Cl  0  0  0  0  0  0  0  0  0  0  0  0
  141.3430   77.4480  220.3530 C   0  0  0  0  0  0  0  0  0  0  0  0
  141.7740   76.1800  220.7350 C   0  0  0  0  0  0  0  0  0  0  0  0
  140.0530   71.8740  222.9810 C   0  0  0  0  0  0  0  0  0  0  0  0
  139.5110   70.6170  222.7520 C   0  0  0  0  0  0  0  0  0  0  0  0
  139.4850   69.6720  223.7790 C   0  0  0  0  0  0  0  0  0  0  0  0
  139.9990   69.9870  225.0180 C   0  0  0  0  0  0  0  0  0  0  0  0
  140.0000   69.0860  226.0760 C   0  0  0  0  0  0  0  0  0  0  0  0
  140.5390   69.5010  227.2800 C   0  0  0  0  0  0  0  0  0  0  0  0
  140.5720   68.4140  228.6520 Cl  0  0  0  0  0  0  0  0  0  0  0  0
  141.0660   70.7610  227.4570 C   0  0  0  0  0  0  0  0  0  0  0  0
  141.0690   71.6680  226.4030 C   0  0  0  0  0  0  0  0  0  0  0  0
  140.5300   71.2460  225.2080 C   0  0  0  0  0  0  0  0  0  0  0  0
  140.5440   72.1510  224.1950 N   0  0  0  0  0  0  0  0  0  0  0  0
  140.1020   71.3500  220.3750 H   0  0  0  0  0  0  0  0  0  0  0  0
  139.4798   72.9955  218.6324 H   0  0  0  0  0  0  0  0  0  0  0  0
  139.7412   74.3225  219.8054 H   0  0  0  0  0  0  0  0  0  0  0  0
  142.1077   71.1582  220.2219 H   0  0  0  0  0  0  0  0  0  0  0  0
  142.8679   71.4941  218.5457 H   0  0  0  0  0  0  0  0  0  0  0  0
  144.1490   71.0257  221.1522 H   0  0  0  0  0  0  0  0  0  0  0  0
  144.2627   70.1694  219.4972 H   0  0  0  0  0  0  0  0  0  0  0  0
  146.0323   71.9672  220.6112 H   0  0  0  0  0  0  0  0  0  0  0  0
  145.9466   71.2871  218.9291 H   0  0  0  0  0  0  0  0  0  0  0  0
  145.9958   73.6200  218.6159 H   0  0  0  0  0  0  0  0  0  0  0  0
  144.2835   73.1991  218.4392 H   0  0  0  0  0  0  0  0  0  0  0  0
  145.2262   73.6714  221.2673 H   0  0  0  0  0  0  0  0  0  0  0  0
  145.2234   75.1132  220.2315 H   0  0  0  0  0  0  0  0  0  0  0  0
  142.9466   74.0089  221.4987 H   0  0  0  0  0  0  0  0  0  0  0  0
  144.1790   75.7194  218.4485 H   0  0  0  0  0  0  0  0  0  0  0  0
  143.4304   77.9421  217.7740 H   0  0  0  0  0  0  0  0  0  0  0  0
  140.5270   77.9340  220.9078 H   0  0  0  0  0  0  0  0  0  0  0  0
  141.2831   75.6920  221.5899 H   0  0  0  0  0  0  0  0  0  0  0  0
  139.1023   70.3657  221.7621 H   0  0  0  0  0  0  0  0  0  0  0  0
  139.0542   68.6759  223.5992 H   0  0  0  0  0  0  0  0  0  0  0  0
  139.5849   68.0740  225.9594 H   0  0  0  0  0  0  0  0  0  0  0  0
  141.4846   71.0500  228.4323 H   0  0  0  0  0  0  0  0  0  0  0  0
  141.4844   72.6799  226.5188 H   0  0  0  0  0  0  0  0  0  0  0  0
  1  2  2  0
  2  3  1  0
  3  4  1  0
  4  5  1  0
  5  6  2  0
  5  7  1  0
  7  8  1  0
  8  9  1  0
  9 10  1  0
 10 11  1  0
 11 12  1  0
 12 13  1  0
 13 14  1  0
 14 15  2  0
 15 16  1  0
 16 17  2  0
 17 18  1  0
 17 19  1  0
 19 20  2  0
  2 21  1  0
 21 22  2  0
 22 23  1  0
 23 24  2  0
 24 25  1  0
 25 26  2  0
 26 27  1  0
 26 28  1  0
 28 29  2  0
 29 30  1  0
 30 31  2  0
 13  7  1  0
 20 14  1  0
 31 21  1  0
 30 24  1  0
  3 32  1  0
  4 33  1  0
  4 34  1  0
  8 35  1  0
  8 36  1  0
  9 37  1  0
  9 38  1  0
 10 39  1  0
 10 40  1  0
 11 41  1  0
 11 42  1  0
 12 43  1  0
 12 44  1  0
 13 45  1  1
 15 46  1  0
 16 47  1  0
 19 48  1  0
 20 49  1  0
 22 50  1  0
 23 51  1  0
 25 52  1  0
 28 53  1  0
 29 54  1  0
M  END
>  <smiles>  (63) 
O=C(NCC(=O)N1CCCCCC1c1ccc(Cl)cc1)c1ccc2cc(Cl)ccc2n1

>  <score_type>  (63) 
oracle

>  <origin>  (63) 
autodockgpu

>  <m_score__min__energy>  (63) 
-7.21

>  <m_primary>  (63) 
energy

>  <rmsd>  (63) 
3.5348465420406034

>  <m_score__min__rmsd>  (63) 
3.5348465420406034

>  <meeko>  (63) 
{"free_energy": -6.14, "intermolecular_energy": -9.42, "internal_energy": -2.04, "cluster_size": 9, "cluster_id": 3, "rank_in_cluster": 4}

>  <energy>  (63) 
-7.04

>  <cluster_rmsd>  (63) 
0.0

>  <cluster>  (63) 
2

$$$$

     RDKit          3D

 54 57  0  0  0  0  0  0  0  0999 V2000
  139.8580   72.6960  220.4850 O   0  0  0  0  0  0  0  0  0  0  0  0
  139.5430   72.9710  221.6820 C   0  0  0  0  0  0  0  0  0  0  0  0
  138.9970   74.2270  222.0640 N   0  0  0  0  0  0  0  0  0  0  0  0
  138.7890   75.2440  221.0310 C   0  0  0  0  0  0  0  0  0  0  0  0
  139.4340   76.5000  221.4690 C   0  0  0  0  0  0  0  0  0  0  0  0
  138.8890   77.2240  222.3400 O   0  0  0  0  0  0  0  0  0  0  0  0
  140.7010   76.9620  220.9320 N   0  0  0  0  0  0  0  0  0  0  0  0
  141.3200   77.9100  221.8110 C   0  0  0  0  0  0  0  0  0  0  0  0
  141.8080   79.1790  221.2580 C   0  0  0  0  0  0  0  0  0  0  0  0
  141.6450   79.4270  219.8000 C   0  0  0  0  0  0  0  0  0  0  0  0
  142.2720   78.3410  218.9650 C   0  0  0  0  0  0  0  0  0  0  0  0
  141.1300   77.4160  218.5640 C   0  0  0  0  0  0  0  0  0  0  0  0
  141.0120   76.3620  219.6760 C   0  0  1  0  0  0  0  0  0  0  0  0
  142.2020   75.4820  219.6590 C   0  0  0  0  0  0  0  0  0  0  0  0
  142.5930   74.7940  220.8170 C   0  0  0  0  0  0  0  0  0  0  0  0
  143.6840   73.9610  220.8420 C   0  0  0  0  0  0  0  0  0  0  0  0
  144.4590   73.7540  219.7210 C   0  0  0  0  0  0  0  0  0  0  0  0
  145.8310   72.6880  219.8050 Cl  0  0  0  0  0  0  0  0  0  0  0  0
  144.0960   74.4180  218.5700 C   0  0  0  0  0  0  0  0  0  0  0  0
  142.9890   75.2610  218.5520 C   0  0  0  0  0  0  0  0  0  0  0  0
  139.7460   71.9570  222.7360 C   0  0  0  0  0  0  0  0  0  0  0  0
  139.6210   70.6110  222.4210 C   0  0  0  0  0  0  0  0  0  0  0  0
  139.8100   69.6440  223.4090 C   0  0  0  0  0  0  0  0  0  0  0  0
  140.1210   70.0260  224.6960 C   0  0  0  0  0  0  0  0  0  0  0  0
  140.3200   69.1060  225.7190 C   0  0  0  0  0  0  0  0  0  0  0  0
  140.6280   69.5930  226.9770 C   0  0  0  0  0  0  0  0  0  0  0  0
  140.8920   68.4880  228.3090 Cl  0  0  0  0  0  0  0  0  0  0  0  0
  140.7420   70.9400  227.2380 C   0  0  0  0  0  0  0  0  0  0  0  0
  140.5440   71.8670  226.2200 C   0  0  0  0  0  0  0  0  0  0  0  0
  140.2380   71.3720  224.9720 C   0  0  0  0  0  0  0  0  0  0  0  0
  140.0490   72.2980  223.9940 N   0  0  0  0  0  0  0  0  0  0  0  0
  138.7540   74.4020  223.0660 H   0  0  0  0  0  0  0  0  0  0  0  0
  139.2372   74.9078  220.0844 H   0  0  0  0  0  0  0  0  0  0  0  0
  137.7123   75.4084  220.8769 H   0  0  0  0  0  0  0  0  0  0  0  0
  140.5820   78.1593  222.5877 H   0  0  0  0  0  0  0  0  0  0  0  0
  142.2344   77.3998  222.1481 H   0  0  0  0  0  0  0  0  0  0  0  0
  141.2809   79.9874  221.7859 H   0  0  0  0  0  0  0  0  0  0  0  0
  142.8974   79.1352  221.4037 H   0  0  0  0  0  0  0  0  0  0  0  0
  140.5711   79.4777  219.5671 H   0  0  0  0  0  0  0  0  0  0  0  0
  142.1517   80.3733  219.5595 H   0  0  0  0  0  0  0  0  0  0  0  0
  142.7485   78.7712  218.0717 H   0  0  0  0  0  0  0  0  0  0  0  0
  143.0537   77.8025  219.5209 H   0  0  0  0  0  0  0  0  0  0  0  0
  140.1924   77.9848  218.4783 H   0  0  0  0  0  0  0  0  0  0  0  0
  141.3227   76.9456  217.5885 H   0  0  0  0  0  0  0  0  0  0  0  0
  140.1544   75.6994  219.4877 H   0  0  0  0  0  0  0  0  0  0  0  0
  142.0050   74.9265  221.7372 H   0  0  0  0  0  0  0  0  0  0  0  0
  143.9458   73.4467  221.7785 H   0  0  0  0  0  0  0  0  0  0  0  0
  144.6886   74.2801  217.6536 H   0  0  0  0  0  0  0  0  0  0  0  0
  142.7320   75.7726  217.6127 H   0  0  0  0  0  0  0  0  0  0  0  0
  139.3732   70.3069  221.3933 H   0  0  0  0  0  0  0  0  0  0  0  0
  139.7108   68.5770  223.1606 H   0  0  0  0  0  0  0  0  0  0  0  0
  140.2353   68.0249  225.5342 H   0  0  0  0  0  0  0  0  0  0  0  0
  140.9900   71.2836  228.2531 H   0  0  0  0  0  0  0  0  0  0  0  0
  140.6282   72.9482  226.4039 H   0  0  0  0  0  0  0  0  0  0  0  0
  1  2  2  0
  2  3  1  0
  3  4  1  0
  4  5  1  0
  5  6  2  0
  5  7  1  0
  7  8  1  0
  8  9  1  0
  9 10  1  0
 10 11  1  0
 11 12  1  0
 12 13  1  0
 13 14  1  0
 14 15  2  0
 15 16  1  0
 16 17  2  0
 17 18  1  0
 17 19  1  0
 19 20  2  0
  2 21  1  0
 21 22  2  0
 22 23  1  0
 23 24  2  0
 24 25  1  0
 25 26  2  0
 26 27  1  0
 26 28  1  0
 28 29  2  0
 29 30  1  0
 30 31  2  0
 13  7  1  0
 20 14  1  0
 31 21  1  0
 30 24  1  0
  3 32  1  0
  4 33  1  0
  4 34  1  0
  8 35  1  0
  8 36  1  0
  9 37  1  0
  9 38  1  0
 10 39  1  0
 10 40  1  0
 11 41  1  0
 11 42  1  0
 12 43  1  0
 12 44  1  0
 13 45  1  6
 15 46  1  0
 16 47  1  0
 19 48  1  0
 20 49  1  0
 22 50  1  0
 23 51  1  0
 25 52  1  0
 28 53  1  0
 29 54  1  0
M  END
>  <smiles>  (64) 
O=C(NCC(=O)N1CCCCCC1c1ccc(Cl)cc1)c1ccc2cc(Cl)ccc2n1

>  <score_type>  (64) 
oracle

>  <origin>  (64) 
autodockgpu

>  <m_score__min__energy>  (64) 
-7.21

>  <m_primary>  (64) 
energy

>  <rmsd>  (64) 
2.6635474706120803

>  <m_score__min__rmsd>  (64) 
2.6635474706120803

>  <meeko>  (64) 
{"free_energy": -6.1, "intermolecular_energy": -9.38, "internal_energy": -2.25, "cluster_size": 12, "cluster_id": 1, "rank_in_cluster": 10}

>  <energy>  (64) 
-6.81

>  <cluster_rmsd>  (64) 
1.81

>  <cluster>  (64) 
2

$$$$

     RDKit          3D

 54 57  0  0  0  0  0  0  0  0999 V2000
  140.2370   72.8220  220.6740 O   0  0  0  0  0  0  0  0  0  0  0  0
  139.9940   73.1520  221.8740 C   0  0  0  0  0  0  0  0  0  0  0  0
  139.7820   74.5010  222.2720 N   0  0  0  0  0  0  0  0  0  0  0  0
  139.8480   75.5510  221.2530 C   0  0  0  0  0  0  0  0  0  0  0  0
  140.7630   76.6110  221.7250 C   0  0  0  0  0  0  0  0  0  0  0  0
  140.9640   76.7750  222.9550 O   0  0  0  0  0  0  0  0  0  0  0  0
  141.4670   77.5020  220.8210 N   0  0  0  0  0  0  0  0  0  0  0  0
  141.7620   78.7530  221.4540 C   0  0  0  0  0  0  0  0  0  0  0  0
  141.4430   80.0000  220.7490 C   0  0  0  0  0  0  0  0  0  0  0  0
  141.9120   80.1610  219.3460 C   0  0  0  0  0  0  0  0  0  0  0  0
  141.3740   79.0860  218.4400 C   0  0  0  0  0  0  0  0  0  0  0  0
  142.3400   77.9130  218.5710 C   0  0  0  0  0  0  0  0  0  0  0  0
  141.6880   76.9160  219.5400 C   0  0  1  0  0  0  0  0  0  0  0  0
  142.4480   75.6450  219.5360 C   0  0  0  0  0  0  0  0  0  0  0  0
  143.7320   75.5840  220.0970 C   0  0  0  0  0  0  0  0  0  0  0  0
  144.4660   74.4240  220.1230 C   0  0  0  0  0  0  0  0  0  0  0  0
  143.9770   73.2490  219.5940 C   0  0  0  0  0  0  0  0  0  0  0  0
  144.9480   71.8070  219.6520 Cl  0  0  0  0  0  0  0  0  0  0  0  0
  142.7180   73.2820  219.0370 C   0  0  0  0  0  0  0  0  0  0  0  0
  141.9790   74.4620  219.0140 C   0  0  0  0  0  0  0  0  0  0  0  0
  139.9240   72.1070  222.9130 C   0  0  0  0  0  0  0  0  0  0  0  0
  139.2210   70.9370  222.6590 C   0  0  0  0  0  0  0  0  0  0  0  0
  139.1480   69.9420  223.6340 C   0  0  0  0  0  0  0  0  0  0  0  0
  139.7750   70.1210  224.8490 C   0  0  0  0  0  0  0  0  0  0  0  0
  139.7350   69.1640  225.8560 C   0  0  0  0  0  0  0  0  0  0  0  0
  140.3960   69.4410  227.0390 C   0  0  0  0  0  0  0  0  0  0  0  0
  140.3860   68.2770  228.3470 Cl  0  0  0  0  0  0  0  0  0  0  0  0
  141.0810   70.6180  227.2430 C   0  0  0  0  0  0  0  0  0  0  0  0
  141.1250   71.5800  226.2400 C   0  0  0  0  0  0  0  0  0  0  0  0
  140.4640   71.2960  225.0660 C   0  0  0  0  0  0  0  0  0  0  0  0
  140.5220   72.2520  224.1020 N   0  0  0  0  0  0  0  0  0  0  0  0
  139.5840   74.7190  223.2750 H   0  0  0  0  0  0  0  0  0  0  0  0
  140.2255   75.1287  220.3100 H   0  0  0  0  0  0  0  0  0  0  0  0
  138.8457   75.9700  221.0805 H   0  0  0  0  0  0  0  0  0  0  0  0
  141.2105   78.7706  222.4056 H   0  0  0  0  0  0  0  0  0  0  0  0
  142.8599   78.7618  221.5218 H   0  0  0  0  0  0  0  0  0  0  0  0
  140.3473   80.0962  220.7384 H   0  0  0  0  0  0  0  0  0  0  0  0
  141.9911   80.7733  221.3072 H   0  0  0  0  0  0  0  0  0  0  0  0
  141.5786   81.1399  218.9711 H   0  0  0  0  0  0  0  0  0  0  0  0
  143.0094   80.0850  219.3458 H   0  0  0  0  0  0  0  0  0  0  0  0
  140.3637   78.7878  218.7568 H   0  0  0  0  0  0  0  0  0  0  0  0
  141.2969   79.4337  217.3993 H   0  0  0  0  0  0  0  0  0  0  0  0
  142.4993   77.4408  217.5904 H   0  0  0  0  0  0  0  0  0  0  0  0
  143.3205   78.2453  218.9429 H   0  0  0  0  0  0  0  0  0  0  0  0
  140.6757   76.6548  219.1978 H   0  0  0  0  0  0  0  0  0  0  0  0
  144.1659   76.4969  220.5311 H   0  0  0  0  0  0  0  0  0  0  0  0
  145.4680   74.4326  220.5768 H   0  0  0  0  0  0  0  0  0  0  0  0
  142.2909   72.3650  218.6050 H   0  0  0  0  0  0  0  0  0  0  0  0
  140.9776   74.4474  218.5591 H   0  0  0  0  0  0  0  0  0  0  0  0
  138.7217   70.7947  221.6892 H   0  0  0  0  0  0  0  0  0  0  0  0
  138.5906   69.0151  223.4337 H   0  0  0  0  0  0  0  0  0  0  0  0
  139.1947   68.2161  225.7166 H   0  0  0  0  0  0  0  0  0  0  0  0
  141.5935   70.7972  228.1997 H   0  0  0  0  0  0  0  0  0  0  0  0
  141.6652   72.5281  226.3786 H   0  0  0  0  0  0  0  0  0  0  0  0
  1  2  2  0
  2  3  1  0
  3  4  1  0
  4  5  1  0
  5  6  2  0
  5  7  1  0
  7  8  1  0
  8  9  1  0
  9 10  1  0
 10 11  1  0
 11 12  1  0
 12 13  1  0
 13 14  1  0
 14 15  2  0
 15 16  1  0
 16 17  2  0
 17 18  1  0
 17 19  1  0
 19 20  2  0
  2 21  1  0
 21 22  2  0
 22 23  1  0
 23 24  2  0
 24 25  1  0
 25 26  2  0
 26 27  1  0
 26 28  1  0
 28 29  2  0
 29 30  1  0
 30 31  2  0
 13  7  1  0
 20 14  1  0
 31 21  1  0
 30 24  1  0
  3 32  1  0
  4 33  1  0
  4 34  1  0
  8 35  1  0
  8 36  1  0
  9 37  1  0
  9 38  1  0
 10 39  1  0
 10 40  1  0
 11 41  1  0
 11 42  1  0
 12 43  1  0
 12 44  1  0
 13 45  1  6
 15 46  1  0
 16 47  1  0
 19 48  1  0
 20 49  1  0
 22 50  1  0
 23 51  1  0
 25 52  1  0
 28 53  1  0
 29 54  1  0
M  END
>  <smiles>  (65) 
O=C(NCC(=O)N1CCCCCC1c1ccc(Cl)cc1)c1ccc2cc(Cl)ccc2n1

>  <score_type>  (65) 
oracle

>  <origin>  (65) 
autodockgpu

>  <m_score__min__energy>  (65) 
-7.21

>  <m_primary>  (65) 
energy

>  <rmsd>  (65) 
2.9027549989016057

>  <m_score__min__rmsd>  (65) 
2.9027549989016057

>  <meeko>  (65) 
{"free_energy": -6.51, "intermolecular_energy": -9.79, "internal_energy": -2.23, "cluster_size": 12, "cluster_id": 1, "rank_in_cluster": 4}

>  <energy>  (65) 
-6.62

>  <cluster_rmsd>  (65) 
0.49

>  <cluster>  (65) 
2

$$$$

     RDKit          3D

 54 57  0  0  0  0  0  0  0  0999 V2000
  140.3620   72.7300  220.5680 O   0  0  0  0  0  0  0  0  0  0  0  0
  140.1100   73.0900  221.7580 C   0  0  0  0  0  0  0  0  0  0  0  0
  139.8500   74.4430  222.1130 N   0  0  0  0  0  0  0  0  0  0  0  0
  139.8750   75.4610  221.0590 C   0  0  0  0  0  0  0  0  0  0  0  0
  139.7270   76.7910  221.6850 C   0  0  0  0  0  0  0  0  0  0  0  0
  138.6130   77.1620  222.1330 O   0  0  0  0  0  0  0  0  0  0  0  0
  140.8310   77.7250  221.8160 N   0  0  0  0  0  0  0  0  0  0  0  0
  141.3270   77.7530  223.1610 C   0  0  0  0  0  0  0  0  0  0  0  0
  141.3250   79.0240  223.8940 C   0  0  0  0  0  0  0  0  0  0  0  0
  141.7670   80.2540  223.1820 C   0  0  0  0  0  0  0  0  0  0  0  0
  141.0290   80.4560  221.8840 C   0  0  0  0  0  0  0  0  0  0  0  0
  141.8430   79.7210  220.8250 C   0  0  0  0  0  0  0  0  0  0  0  0
  141.1430   78.3750  220.5870 C   0  0  1  0  0  0  0  0  0  0  0  0
  141.9190   77.5740  219.6130 C   0  0  0  0  0  0  0  0  0  0  0  0
  141.9340   77.9260  218.2550 C   0  0  0  0  0  0  0  0  0  0  0  0
  142.6480   77.2160  217.3220 C   0  0  0  0  0  0  0  0  0  0  0  0
  143.3950   76.1120  217.6720 C   0  0  0  0  0  0  0  0  0  0  0  0
  144.2830   75.2480  216.4510 Cl  0  0  0  0  0  0  0  0  0  0  0  0
  143.3980   75.7460  219.0000 C   0  0  0  0  0  0  0  0  0  0  0  0
  142.6720   76.4700  219.9410 C   0  0  0  0  0  0  0  0  0  0  0  0
  140.0810   72.0770  222.8310 C   0  0  0  0  0  0  0  0  0  0  0  0
  139.5740   70.8130  222.5620 C   0  0  0  0  0  0  0  0  0  0  0  0
  139.5410   69.8480  223.5700 C   0  0  0  0  0  0  0  0  0  0  0  0
  140.0140   70.1500  224.8290 C   0  0  0  0  0  0  0  0  0  0  0  0
  140.0050   69.2270  225.8680 C   0  0  0  0  0  0  0  0  0  0  0  0
  140.5020   69.6300  227.0950 C   0  0  0  0  0  0  0  0  0  0  0  0
  140.5220   68.5170  228.4460 Cl  0  0  0  0  0  0  0  0  0  0  0  0
  140.9960   70.8970  227.3100 C   0  0  0  0  0  0  0  0  0  0  0  0
  141.0070   71.8260  226.2750 C   0  0  0  0  0  0  0  0  0  0  0  0
  140.5110   71.4150  225.0580 C   0  0  0  0  0  0  0  0  0  0  0  0
  140.5320   72.3410  224.0630 N   0  0  0  0  0  0  0  0  0  0  0  0
  139.6470   74.6850  223.1090 H   0  0  0  0  0  0  0  0  0  0  0  0
  140.8312   75.4105  220.5176 H   0  0  0  0  0  0  0  0  0  0  0  0
  139.0537   75.2865  220.3484 H   0  0  0  0  0  0  0  0  0  0  0  0
  140.7198   77.0443  223.7432 H   0  0  0  0  0  0  0  0  0  0  0  0
  142.3950   77.5126  223.0532 H   0  0  0  0  0  0  0  0  0  0  0  0
  140.2947   79.1996  224.2370 H   0  0  0  0  0  0  0  0  0  0  0  0
  142.0797   78.8823  224.6816 H   0  0  0  0  0  0  0  0  0  0  0  0
  141.5865   81.1234  223.8312 H   0  0  0  0  0  0  0  0  0  0  0  0
  142.8364   80.1437  222.9491 H   0  0  0  0  0  0  0  0  0  0  0  0
  140.0155   80.0335  221.9498 H   0  0  0  0  0  0  0  0  0  0  0  0
  140.9198   81.5235  221.6421 H   0  0  0  0  0  0  0  0  0  0  0  0
  141.8686   80.3051  219.8933 H   0  0  0  0  0  0  0  0  0  0  0  0
  142.8819   79.5741  221.1554 H   0  0  0  0  0  0  0  0  0  0  0  0
  140.1586   78.5311  220.1217 H   0  0  0  0  0  0  0  0  0  0  0  0
  141.3537   78.8009  217.9266 H   0  0  0  0  0  0  0  0  0  0  0  0
  142.6233   77.5359  216.2698 H   0  0  0  0  0  0  0  0  0  0  0  0
  143.9816   74.8705  219.3207 H   0  0  0  0  0  0  0  0  0  0  0  0
  142.7014   76.1459  220.9918 H   0  0  0  0  0  0  0  0  0  0  0  0
  139.1990   70.5723  221.5563 H   0  0  0  0  0  0  0  0  0  0  0  0
  139.1375   68.8465  223.3597 H   0  0  0  0  0  0  0  0  0  0  0  0
  139.6154   68.2090  225.7198 H   0  0  0  0  0  0  0  0  0  0  0  0
  141.3825   71.1749  228.3017 H   0  0  0  0  0  0  0  0  0  0  0  0
  141.3950   72.8447  226.4222 H   0  0  0  0  0  0  0  0  0  0  0  0
  1  2  2  0
  2  3  1  0
  3  4  1  0
  4  5  1  0
  5  6  2  0
  5  7  1  0
  7  8  1  0
  8  9  1  0
  9 10  1  0
 10 11  1  0
 11 12  1  0
 12 13  1  0
 13 14  1  0
 14 15  2  0
 15 16  1  0
 16 17  2  0
 17 18  1  0
 17 19  1  0
 19 20  2  0
  2 21  1  0
 21 22  2  0
 22 23  1  0
 23 24  2  0
 24 25  1  0
 25 26  2  0
 26 27  1  0
 26 28  1  0
 28 29  2  0
 29 30  1  0
 30 31  2  0
 13  7  1  0
 20 14  1  0
 31 21  1  0
 30 24  1  0
  3 32  1  0
  4 33  1  0
  4 34  1  0
  8 35  1  0
  8 36  1  0
  9 37  1  0
  9 38  1  0
 10 39  1  0
 10 40  1  0
 11 41  1  0
 11 42  1  0
 12 43  1  0
 12 44  1  0
 13 45  1  6
 15 46  1  0
 16 47  1  0
 19 48  1  0
 20 49  1  0
 22 50  1  0
 23 51  1  0
 25 52  1  0
 28 53  1  0
 29 54  1  0
M  END
>  <smiles>  (66) 
O=C(NCC(=O)N1CCCCCC1c1ccc(Cl)cc1)c1ccc2cc(Cl)ccc2n1

>  <score_type>  (66) 
oracle

>  <origin>  (66) 
autodockgpu

>  <m_score__min__energy>  (66) 
-7.21

>  <m_primary>  (66) 
energy

>  <rmsd>  (66) 
3.455000839807314

>  <m_score__min__rmsd>  (66) 
3.455000839807314

>  <meeko>  (66) 
{"free_energy": -6.93, "intermolecular_energy": -10.21, "internal_energy": -1.77, "cluster_size": 12, "cluster_id": 1, "rank_in_cluster": 2}

>  <energy>  (66) 
-6.49

>  <cluster_rmsd>  (66) 
1.92

>  <cluster>  (66) 
2

$$$$

     RDKit          3D

 54 57  0  0  0  0  0  0  0  0999 V2000
  133.1020   69.8690  226.5650 O   0  0  0  0  0  0  0  0  0  0  0  0
  133.6680   70.9520  226.2270 C   0  0  0  0  0  0  0  0  0  0  0  0
  134.8710   70.9870  225.4690 N   0  0  0  0  0  0  0  0  0  0  0  0
  135.4790   69.7180  225.0620 C   0  0  0  0  0  0  0  0  0  0  0  0
  136.4600   69.9870  223.9900 C   0  0  0  0  0  0  0  0  0  0  0  0
  136.8850   71.1540  223.7970 O   0  0  0  0  0  0  0  0  0  0  0  0
  136.9770   68.9480  223.1180 N   0  0  0  0  0  0  0  0  0  0  0  0
  136.0210   68.5950  222.1110 C   0  0  0  0  0  0  0  0  0  0  0  0
  136.3900   68.7390  220.6980 C   0  0  0  0  0  0  0  0  0  0  0  0
  137.7700   68.3660  220.2840 C   0  0  0  0  0  0  0  0  0  0  0  0
  138.4370   67.4580  221.2850 C   0  0  0  0  0  0  0  0  0  0  0  0
  139.1910   68.3800  222.2400 C   0  0  0  0  0  0  0  0  0  0  0  0
  138.2960   68.5420  223.4780 C   0  0  1  0  0  0  0  0  0  0  0  0
  138.9800   69.3890  224.4810 C   0  0  0  0  0  0  0  0  0  0  0  0
  138.9460   69.0460  225.8410 C   0  0  0  0  0  0  0  0  0  0  0  0
  139.5750   69.7980  226.8020 C   0  0  0  0  0  0  0  0  0  0  0  0
  140.2790   70.9380  226.4800 C   0  0  0  0  0  0  0  0  0  0  0  0
  141.0590   71.8550  227.7360 Cl  0  0  0  0  0  0  0  0  0  0  0  0
  140.3280   71.2960  225.1510 C   0  0  0  0  0  0  0  0  0  0  0  0
  139.6880   70.5290  224.1810 C   0  0  0  0  0  0  0  0  0  0  0  0
  133.0680   72.2390  226.6290 C   0  0  0  0  0  0  0  0  0  0  0  0
  131.8110   72.2510  227.2190 C   0  0  0  0  0  0  0  0  0  0  0  0
  131.2340   73.4630  227.6020 C   0  0  0  0  0  0  0  0  0  0  0  0
  131.9120   74.6450  227.3970 C   0  0  0  0  0  0  0  0  0  0  0  0
  131.3850   75.8790  227.7600 C   0  0  0  0  0  0  0  0  0  0  0  0
  132.1460   77.0060  227.5100 C   0  0  0  0  0  0  0  0  0  0  0  0
  131.5420   78.5910  227.9430 Cl  0  0  0  0  0  0  0  0  0  0  0  0
  133.3900   76.9410  226.9220 C   0  0  0  0  0  0  0  0  0  0  0  0
  133.9240   75.7100  226.5570 C   0  0  0  0  0  0  0  0  0  0  0  0
  133.1590   74.5930  226.8100 C   0  0  0  0  0  0  0  0  0  0  0  0
  133.7020   73.4030  226.4430 N   0  0  0  0  0  0  0  0  0  0  0  0
  135.2960   71.9080  225.2170 H   0  0  0  0  0  0  0  0  0  0  0  0
  135.9871   69.2579  225.9223 H   0  0  0  0  0  0  0  0  0  0  0  0
  134.7026   69.0297  224.6966 H   0  0  0  0  0  0  0  0  0  0  0  0
  135.7606   67.5382  222.2701 H   0  0  0  0  0  0  0  0  0  0  0  0
  135.2112   69.3267  222.2480 H   0  0  0  0  0  0  0  0  0  0  0  0
  135.6962   68.1148  220.1157 H   0  0  0  0  0  0  0  0  0  0  0  0
  136.3367   69.8222  220.5143 H   0  0  0  0  0  0  0  0  0  0  0  0
  137.7218   67.8496  219.3139 H   0  0  0  0  0  0  0  0  0  0  0  0
  138.3641   69.2892  220.2160 H   0  0  0  0  0  0  0  0  0  0  0  0
  137.6842   66.8716  221.8322 H   0  0  0  0  0  0  0  0  0  0  0  0
  139.1119   66.7402  220.7958 H   0  0  0  0  0  0  0  0  0  0  0  0
  140.1544   67.9305  222.5225 H   0  0  0  0  0  0  0  0  0  0  0  0
  139.4060   69.3518  221.7717 H   0  0  0  0  0  0  0  0  0  0  0  0
  138.1410   67.5706  223.9702 H   0  0  0  0  0  0  0  0  0  0  0  0
  138.3966   68.1437  226.1477 H   0  0  0  0  0  0  0  0  0  0  0  0
  139.5156   69.4830  227.8543 H   0  0  0  0  0  0  0  0  0  0  0  0
  140.8798   72.1994  224.8520 H   0  0  0  0  0  0  0  0  0  0  0  0
  139.7515   70.8485  223.1303 H   0  0  0  0  0  0  0  0  0  0  0  0
  131.2709   71.3071  227.3843 H   0  0  0  0  0  0  0  0  0  0  0  0
  130.2375   73.4745  228.0677 H   0  0  0  0  0  0  0  0  0  0  0  0
  130.3940   75.9564  228.2312 H   0  0  0  0  0  0  0  0  0  0  0  0
  133.9613   77.8634  226.7411 H   0  0  0  0  0  0  0  0  0  0  0  0
  134.9151   75.6317  226.0863 H   0  0  0  0  0  0  0  0  0  0  0  0
  1  2  2  0
  2  3  1  0
  3  4  1  0
  4  5  1  0
  5  6  2  0
  5  7  1  0
  7  8  1  0
  8  9  1  0
  9 10  1  0
 10 11  1  0
 11 12  1  0
 12 13  1  0
 13 14  1  0
 14 15  2  0
 15 16  1  0
 16 17  2  0
 17 18  1  0
 17 19  1  0
 19 20  2  0
  2 21  1  0
 21 22  2  0
 22 23  1  0
 23 24  2  0
 24 25  1  0
 25 26  2  0
 26 27  1  0
 26 28  1  0
 28 29  2  0
 29 30  1  0
 30 31  2  0
 13  7  1  0
 20 14  1  0
 31 21  1  0
 30 24  1  0
  3 32  1  0
  4 33  1  0
  4 34  1  0
  8 35  1  0
  8 36  1  0
  9 37  1  0
  9 38  1  0
 10 39  1  0
 10 40  1  0
 11 41  1  0
 11 42  1  0
 12 43  1  0
 12 44  1  0
 13 45  1  1
 15 46  1  0
 16 47  1  0
 19 48  1  0
 20 49  1  0
 22 50  1  0
 23 51  1  0
 25 52  1  0
 28 53  1  0
 29 54  1  0
M  END
>  <smiles>  (67) 
O=C(NCC(=O)N1CCCCCC1c1ccc(Cl)cc1)c1ccc2cc(Cl)ccc2n1

>  <score_type>  (67) 
oracle

>  <origin>  (67) 
autodockgpu

>  <m_score__min__energy>  (67) 
-7.21

>  <m_primary>  (67) 
energy

>  <rmsd>  (67) 
8.698238637863255

>  <m_score__min__rmsd>  (67) 
8.698238637863255

>  <meeko>  (67) 
{"free_energy": -5.92, "intermolecular_energy": -9.2, "internal_energy": -2.25, "cluster_size": 6, "cluster_id": 4, "rank_in_cluster": 5}

>  <energy>  (67) 
-6.39

>  <cluster_rmsd>  (67) 
0.91

>  <cluster>  (67) 
2

$$$$

     RDKit          3D

 54 57  0  0  0  0  0  0  0  0999 V2000
  133.2460   69.6650  226.5360 O   0  0  0  0  0  0  0  0  0  0  0  0
  133.8200   70.7580  226.2470 C   0  0  0  0  0  0  0  0  0  0  0  0
  135.0500   70.8160  225.5340 N   0  0  0  0  0  0  0  0  0  0  0  0
  135.6770   69.5590  225.1170 C   0  0  0  0  0  0  0  0  0  0  0  0
  136.6170   69.8450  224.0130 C   0  0  0  0  0  0  0  0  0  0  0  0
  136.9600   71.0270  223.7610 O   0  0  0  0  0  0  0  0  0  0  0  0
  137.1850   68.8040  223.1760 N   0  0  0  0  0  0  0  0  0  0  0  0
  136.1870   68.2180  222.3300 C   0  0  0  0  0  0  0  0  0  0  0  0
  136.5110   67.9560  220.9230 C   0  0  0  0  0  0  0  0  0  0  0  0
  137.7940   68.4810  220.3820 C   0  0  0  0  0  0  0  0  0  0  0  0
  138.9900   67.9010  221.0900 C   0  0  0  0  0  0  0  0  0  0  0  0
  139.3980   68.9350  222.1360 C   0  0  0  0  0  0  0  0  0  0  0  0
  138.5820   68.6260  223.4000 C   0  0  1  0  0  0  0  0  0  0  0  0
  139.1480   69.3620  224.5530 C   0  0  0  0  0  0  0  0  0  0  0  0
  139.8140   70.5820  224.3580 C   0  0  0  0  0  0  0  0  0  0  0  0
  140.3440   71.3010  225.4000 C   0  0  0  0  0  0  0  0  0  0  0  0
  140.2510   70.8610  226.7030 C   0  0  0  0  0  0  0  0  0  0  0  0
  140.9400   71.8110  227.9870 Cl  0  0  0  0  0  0  0  0  0  0  0  0
  139.6020   69.6660  226.9210 C   0  0  0  0  0  0  0  0  0  0  0  0
  139.0660   68.9410  225.8600 C   0  0  0  0  0  0  0  0  0  0  0  0
  133.2020   72.0330  226.6600 C   0  0  0  0  0  0  0  0  0  0  0  0
  131.9630   72.0190  227.2880 C   0  0  0  0  0  0  0  0  0  0  0  0
  131.3690   73.2180  227.6820 C   0  0  0  0  0  0  0  0  0  0  0  0
  132.0110   74.4150  227.4480 C   0  0  0  0  0  0  0  0  0  0  0  0
  131.4650   75.6380  227.8190 C   0  0  0  0  0  0  0  0  0  0  0  0
  132.1900   76.7830  227.5380 C   0  0  0  0  0  0  0  0  0  0  0  0
  131.5610   78.3550  227.9800 Cl  0  0  0  0  0  0  0  0  0  0  0  0
  133.4160   76.7430  226.9120 C   0  0  0  0  0  0  0  0  0  0  0  0
  133.9690   75.5230  226.5380 C   0  0  0  0  0  0  0  0  0  0  0  0
  133.2390   74.3900  226.8220 C   0  0  0  0  0  0  0  0  0  0  0  0
  133.8000   73.2110  226.4460 N   0  0  0  0  0  0  0  0  0  0  0  0
  135.4800   71.7440  225.3210 H   0  0  0  0  0  0  0  0  0  0  0  0
  136.2232   69.1183  225.9641 H   0  0  0  0  0  0  0  0  0  0  0  0
  134.9075   68.8483  224.7811 H   0  0  0  0  0  0  0  0  0  0  0  0
  135.9075   67.2545  222.7811 H   0  0  0  0  0  0  0  0  0  0  0  0
  135.3998   68.9848  222.2808 H   0  0  0  0  0  0  0  0  0  0  0  0
  136.5249   66.8641  220.7905 H   0  0  0  0  0  0  0  0  0  0  0  0
  135.7379   68.5013  220.3617 H   0  0  0  0  0  0  0  0  0  0  0  0
  137.8578   68.2279  219.3134 H   0  0  0  0  0  0  0  0  0  0  0  0
  137.8053   69.5700  220.5370 H   0  0  0  0  0  0  0  0  0  0  0  0
  138.7238   66.9503  221.5751 H   0  0  0  0  0  0  0  0  0  0  0  0
  139.8111   67.6892  220.3893 H   0  0  0  0  0  0  0  0  0  0  0  0
  140.4740   68.8545  222.3498 H   0  0  0  0  0  0  0  0  0  0  0  0
  139.2050   69.9575  221.7794 H   0  0  0  0  0  0  0  0  0  0  0  0
  138.6675   67.5607  223.6603 H   0  0  0  0  0  0  0  0  0  0  0  0
  139.9146   70.9751  223.3356 H   0  0  0  0  0  0  0  0  0  0  0  0
  140.8556   72.2519  225.1901 H   0  0  0  0  0  0  0  0  0  0  0  0
  139.5059   69.2794  227.9463 H   0  0  0  0  0  0  0  0  0  0  0  0
  138.5552   67.9911  226.0762 H   0  0  0  0  0  0  0  0  0  0  0  0
  131.4509   71.0635  227.4743 H   0  0  0  0  0  0  0  0  0  0  0  0
  130.3880   73.2082  228.1796 H   0  0  0  0  0  0  0  0  0  0  0  0
  130.4874   75.6942  228.3202 H   0  0  0  0  0  0  0  0  0  0  0  0
  133.9588   77.6776  226.7075 H   0  0  0  0  0  0  0  0  0  0  0  0
  134.9467   75.4654  226.0372 H   0  0  0  0  0  0  0  0  0  0  0  0
  1  2  2  0
  2  3  1  0
  3  4  1  0
  4  5  1  0
  5  6  2  0
  5  7  1  0
  7  8  1  0
  8  9  1  0
  9 10  1  0
 10 11  1  0
 11 12  1  0
 12 13  1  0
 13 14  1  0
 14 15  2  0
 15 16  1  0
 16 17  2  0
 17 18  1  0
 17 19  1  0
 19 20  2  0
  2 21  1  0
 21 22  2  0
 22 23  1  0
 23 24  2  0
 24 25  1  0
 25 26  2  0
 26 27  1  0
 26 28  1  0
 28 29  2  0
 29 30  1  0
 30 31  2  0
 13  7  1  0
 20 14  1  0
 31 21  1  0
 30 24  1  0
  3 32  1  0
  4 33  1  0
  4 34  1  0
  8 35  1  0
  8 36  1  0
  9 37  1  0
  9 38  1  0
 10 39  1  0
 10 40  1  0
 11 41  1  0
 11 42  1  0
 12 43  1  0
 12 44  1  0
 13 45  1  1
 15 46  1  0
 16 47  1  0
 19 48  1  0
 20 49  1  0
 22 50  1  0
 23 51  1  0
 25 52  1  0
 28 53  1  0
 29 54  1  0
M  END
>  <smiles>  (68) 
O=C(NCC(=O)N1CCCCCC1c1ccc(Cl)cc1)c1ccc2cc(Cl)ccc2n1

>  <score_type>  (68) 
oracle

>  <origin>  (68) 
autodockgpu

>  <m_score__min__energy>  (68) 
-7.21

>  <m_primary>  (68) 
energy

>  <rmsd>  (68) 
8.625720522789686

>  <m_score__min__rmsd>  (68) 
8.625720522789686

>  <meeko>  (68) 
{"free_energy": -6.33, "intermolecular_energy": -9.61, "internal_energy": -2.29, "cluster_size": 6, "cluster_id": 4, "rank_in_cluster": 2}

>  <energy>  (68) 
-6.37

>  <cluster_rmsd>  (68) 
1.68

>  <cluster>  (68) 
2

$$$$

     RDKit          3D

 54 57  0  0  0  0  0  0  0  0999 V2000
  140.0940   72.8230  220.7090 O   0  0  0  0  0  0  0  0  0  0  0  0
  139.7980   73.1050  221.9090 C   0  0  0  0  0  0  0  0  0  0  0  0
  139.4190   74.4130  222.3200 N   0  0  0  0  0  0  0  0  0  0  0  0
  139.3690   75.4760  221.3140 C   0  0  0  0  0  0  0  0  0  0  0  0
  140.5100   76.3890  221.5340 C   0  0  0  0  0  0  0  0  0  0  0  0
  140.8100   76.7620  222.6960 O   0  0  0  0  0  0  0  0  0  0  0  0
  141.3320   76.8960  220.4500 N   0  0  0  0  0  0  0  0  0  0  0  0
  141.8770   78.1820  220.7720 C   0  0  0  0  0  0  0  0  0  0  0  0
  141.6520   79.3010  219.8510 C   0  0  0  0  0  0  0  0  0  0  0  0
  141.9200   79.0920  218.4020 C   0  0  0  0  0  0  0  0  0  0  0  0
  142.5860   77.7680  218.1330 C   0  0  0  0  0  0  0  0  0  0  0  0
  141.4580   76.7520  218.0090 C   0  0  0  0  0  0  0  0  0  0  0  0
  141.3910   75.9970  219.3450 C   0  0  1  0  0  0  0  0  0  0  0  0
  142.4680   74.9810  219.3980 C   0  0  0  0  0  0  0  0  0  0  0  0
  143.6270   75.2140  220.1520 C   0  0  0  0  0  0  0  0  0  0  0  0
  144.6430   74.2950  220.2360 C   0  0  0  0  0  0  0  0  0  0  0  0
  144.5780   73.0850  219.5790 C   0  0  0  0  0  0  0  0  0  0  0  0
  145.8930   71.9550  219.7190 Cl  0  0  0  0  0  0  0  0  0  0  0  0
  143.4490   72.8320  218.8320 C   0  0  0  0  0  0  0  0  0  0  0  0
  142.4220   73.7680  218.7510 C   0  0  0  0  0  0  0  0  0  0  0  0
  139.8440   72.0460  222.9360 C   0  0  0  0  0  0  0  0  0  0  0  0
  139.3200   70.7930  222.6470 C   0  0  0  0  0  0  0  0  0  0  0  0
  139.3580   69.7840  223.6100 C   0  0  0  0  0  0  0  0  0  0  0  0
  139.9150   70.0310  224.8460 C   0  0  0  0  0  0  0  0  0  0  0  0
  139.9790   69.0640  225.8420 C   0  0  0  0  0  0  0  0  0  0  0  0
  140.5580   69.4140  227.0490 C   0  0  0  0  0  0  0  0  0  0  0  0
  140.6710   68.2420  228.3450 Cl  0  0  0  0  0  0  0  0  0  0  0  0
  141.0640   70.6730  227.2860 C   0  0  0  0  0  0  0  0  0  0  0  0
  141.0040   71.6460  226.2940 C   0  0  0  0  0  0  0  0  0  0  0  0
  140.4250   71.2880  225.0970 C   0  0  0  0  0  0  0  0  0  0  0  0
  140.3780   72.2560  224.1450 N   0  0  0  0  0  0  0  0  0  0  0  0
  139.1850   74.5920  223.3230 H   0  0  0  0  0  0  0  0  0  0  0  0
  139.4348   75.0369  220.3076 H   0  0  0  0  0  0  0  0  0  0  0  0
  138.4228   76.0303  221.4004 H   0  0  0  0  0  0  0  0  0  0  0  0
  141.4562   78.4758  221.7449 H   0  0  0  0  0  0  0  0  0  0  0  0
  142.9650   78.0242  220.7341 H   0  0  0  0  0  0  0  0  0  0  0  0
  140.5960   79.5936  219.9472 H   0  0  0  0  0  0  0  0  0  0  0  0
  142.3928   80.0547  220.1563 H   0  0  0  0  0  0  0  0  0  0  0  0
  140.9654   79.1260  217.8564 H   0  0  0  0  0  0  0  0  0  0  0  0
  142.6010   79.8877  218.0658 H   0  0  0  0  0  0  0  0  0  0  0  0
  143.1647   77.8134  217.1986 H   0  0  0  0  0  0  0  0  0  0  0  0
  143.2872   77.4976  218.9363 H   0  0  0  0  0  0  0  0  0  0  0  0
  140.5048   77.2662  217.8165 H   0  0  0  0  0  0  0  0  0  0  0  0
  141.6405   76.0600  217.1736 H   0  0  0  0  0  0  0  0  0  0  0  0
  140.4494   75.4335  219.4211 H   0  0  0  0  0  0  0  0  0  0  0  0
  143.7253   76.1657  220.6947 H   0  0  0  0  0  0  0  0  0  0  0  0
  145.5304   74.5297  220.8421 H   0  0  0  0  0  0  0  0  0  0  0  0
  143.3577   71.8778  218.2924 H   0  0  0  0  0  0  0  0  0  0  0  0
  141.5365   73.5276  218.1442 H   0  0  0  0  0  0  0  0  0  0  0  0
  138.8756   70.5961  221.6602 H   0  0  0  0  0  0  0  0  0  0  0  0
  138.9432   68.7910  223.3825 H   0  0  0  0  0  0  0  0  0  0  0  0
  139.5817   68.0518  225.6760 H   0  0  0  0  0  0  0  0  0  0  0  0
  141.5159   70.9091  228.2607 H   0  0  0  0  0  0  0  0  0  0  0  0
  141.4020   72.6582  226.4586 H   0  0  0  0  0  0  0  0  0  0  0  0
  1  2  2  0
  2  3  1  0
  3  4  1  0
  4  5  1  0
  5  6  2  0
  5  7  1  0
  7  8  1  0
  8  9  1  0
  9 10  1  0
 10 11  1  0
 11 12  1  0
 12 13  1  0
 13 14  1  0
 14 15  2  0
 15 16  1  0
 16 17  2  0
 17 18  1  0
 17 19  1  0
 19 20  2  0
  2 21  1  0
 21 22  2  0
 22 23  1  0
 23 24  2  0
 24 25  1  0
 25 26  2  0
 26 27  1  0
 26 28  1  0
 28 29  2  0
 29 30  1  0
 30 31  2  0
 13  7  1  0
 20 14  1  0
 31 21  1  0
 30 24  1  0
  3 32  1  0
  4 33  1  0
  4 34  1  0
  8 35  1  0
  8 36  1  0
  9 37  1  0
  9 38  1  0
 10 39  1  0
 10 40  1  0
 11 41  1  0
 11 42  1  0
 12 43  1  0
 12 44  1  0
 13 45  1  6
 15 46  1  0
 16 47  1  0
 19 48  1  0
 20 49  1  0
 22 50  1  0
 23 51  1  0
 25 52  1  0
 28 53  1  0
 29 54  1  0
M  END
>  <smiles>  (69) 
O=C(NCC(=O)N1CCCCCC1c1ccc(Cl)cc1)c1ccc2cc(Cl)ccc2n1

>  <score_type>  (69) 
oracle

>  <origin>  (69) 
autodockgpu

>  <m_score__min__energy>  (69) 
-7.21

>  <m_primary>  (69) 
energy

>  <rmsd>  (69) 
2.522562945656738

>  <m_score__min__rmsd>  (69) 
2.522562945656738

>  <meeko>  (69) 
{"free_energy": -6.23, "intermolecular_energy": -9.51, "internal_energy": -2.22, "cluster_size": 12, "cluster_id": 1, "rank_in_cluster": 9}

>  <energy>  (69) 
-6.29

>  <cluster_rmsd>  (69) 
1.16

>  <cluster>  (69) 
2

$$$$

     RDKit          3D

 54 57  0  0  0  0  0  0  0  0999 V2000
  140.0460   72.6650  220.7290 O   0  0  0  0  0  0  0  0  0  0  0  0
  139.8650   72.9990  221.9390 C   0  0  0  0  0  0  0  0  0  0  0  0
  139.5720   74.3350  222.3320 N   0  0  0  0  0  0  0  0  0  0  0  0
  139.4770   75.3650  221.2950 C   0  0  0  0  0  0  0  0  0  0  0  0
  138.5920   76.4440  221.7820 C   0  0  0  0  0  0  0  0  0  0  0  0
  138.6120   76.7850  222.9920 O   0  0  0  0  0  0  0  0  0  0  0  0
  137.6710   77.1570  220.9150 N   0  0  0  0  0  0  0  0  0  0  0  0
  136.5710   76.3210  220.5310 C   0  0  0  0  0  0  0  0  0  0  0  0
  135.3510   76.9470  220.0080 C   0  0  0  0  0  0  0  0  0  0  0  0
  134.9020   78.2330  220.6060 C   0  0  0  0  0  0  0  0  0  0  0  0
  135.8570   78.7360  221.6560 C   0  0  0  0  0  0  0  0  0  0  0  0
  136.9400   79.4930  220.9040 C   0  0  0  0  0  0  0  0  0  0  0  0
  138.0850   78.4980  220.6650 C   0  0  1  0  0  0  0  0  0  0  0  0
  139.2950   78.9450  221.3920 C   0  0  0  0  0  0  0  0  0  0  0  0
  139.1780   79.6690  222.5870 C   0  0  0  0  0  0  0  0  0  0  0  0
  140.2730   80.0930  223.2970 C   0  0  0  0  0  0  0  0  0  0  0  0
  141.5570   79.8280  222.8700 C   0  0  0  0  0  0  0  0  0  0  0  0
  142.9110   80.3880  223.8070 Cl  0  0  0  0  0  0  0  0  0  0  0  0
  141.6990   79.1180  221.6990 C   0  0  0  0  0  0  0  0  0  0  0  0
  140.5840   78.6900  220.9840 C   0  0  0  0  0  0  0  0  0  0  0  0
  139.9580   71.9740  222.9960 C   0  0  0  0  0  0  0  0  0  0  0  0
  139.5490   70.6750  222.7240 C   0  0  0  0  0  0  0  0  0  0  0  0
  139.6310   69.6970  223.7160 C   0  0  0  0  0  0  0  0  0  0  0  0
  140.1190   70.0210  224.9640 C   0  0  0  0  0  0  0  0  0  0  0  0
  140.2240   69.0870  225.9880 C   0  0  0  0  0  0  0  0  0  0  0  0
  140.7260   69.5140  227.2040 C   0  0  0  0  0  0  0  0  0  0  0  0
  140.8850   68.3890  228.5360 Cl  0  0  0  0  0  0  0  0  0  0  0  0
  141.1180   70.8150  227.4240 C   0  0  0  0  0  0  0  0  0  0  0  0
  141.0170   71.7550  226.4030 C   0  0  0  0  0  0  0  0  0  0  0  0
  140.5160   71.3210  225.1970 C   0  0  0  0  0  0  0  0  0  0  0  0
  140.4260   72.2580  224.2170 N   0  0  0  0  0  0  0  0  0  0  0  0
  139.4310   74.5560  223.3430 H   0  0  0  0  0  0  0  0  0  0  0  0
  140.4769   75.7724  221.0846 H   0  0  0  0  0  0  0  0  0  0  0  0
  139.0674   74.9313  220.3708 H   0  0  0  0  0  0  0  0  0  0  0  0
  136.9417   75.6375  219.7529 H   0  0  0  0  0  0  0  0  0  0  0  0
  136.2471   75.8602  221.4759 H   0  0  0  0  0  0  0  0  0  0  0  0
  135.5123   77.1265  218.9348 H   0  0  0  0  0  0  0  0  0  0  0  0
  134.5516   76.2363  220.2649 H   0  0  0  0  0  0  0  0  0  0  0  0
  134.8236   78.9864  219.8083 H   0  0  0  0  0  0  0  0  0  0  0  0
  133.9293   78.0593  221.0895 H   0  0  0  0  0  0  0  0  0  0  0  0
  135.3374   79.4063  222.3565 H   0  0  0  0  0  0  0  0  0  0  0  0
  136.2779   77.9104  222.2487 H   0  0  0  0  0  0  0  0  0  0  0  0
  136.5494   79.8600  219.9434 H   0  0  0  0  0  0  0  0  0  0  0  0
  137.2857   80.3654  221.4779 H   0  0  0  0  0  0  0  0  0  0  0  0
  138.3680   78.4862  219.6021 H   0  0  0  0  0  0  0  0  0  0  0  0
  138.1737   79.9053  222.9686 H   0  0  0  0  0  0  0  0  0  0  0  0
  140.1229   80.6577  224.2290 H   0  0  0  0  0  0  0  0  0  0  0  0
  142.7066   78.8859  221.3236 H   0  0  0  0  0  0  0  0  0  0  0  0
  140.7400   78.1241  220.0537 H   0  0  0  0  0  0  0  0  0  0  0  0
  139.1608   70.4173  221.7276 H   0  0  0  0  0  0  0  0  0  0  0  0
  139.3064   68.6679  223.5023 H   0  0  0  0  0  0  0  0  0  0  0  0
  139.9176   68.0415  225.8361 H   0  0  0  0  0  0  0  0  0  0  0  0
  141.5113   71.1118  228.4075 H   0  0  0  0  0  0  0  0  0  0  0  0
  141.3245   72.8004  226.5535 H   0  0  0  0  0  0  0  0  0  0  0  0
  1  2  2  0
  2  3  1  0
  3  4  1  0
  4  5  1  0
  5  6  2  0
  5  7  1  0
  7  8  1  0
  8  9  1  0
  9 10  1  0
 10 11  1  0
 11 12  1  0
 12 13  1  0
 13 14  1  0
 14 15  2  0
 15 16  1  0
 16 17  2  0
 17 18  1  0
 17 19  1  0
 19 20  2  0
  2 21  1  0
 21 22  2  0
 22 23  1  0
 23 24  2  0
 24 25  1  0
 25 26  2  0
 26 27  1  0
 26 28  1  0
 28 29  2  0
 29 30  1  0
 30 31  2  0
 13  7  1  0
 20 14  1  0
 31 21  1  0
 30 24  1  0
  3 32  1  0
  4 33  1  0
  4 34  1  0
  8 35  1  0
  8 36  1  0
  9 37  1  0
  9 38  1  0
 10 39  1  0
 10 40  1  0
 11 41  1  0
 11 42  1  0
 12 43  1  0
 12 44  1  0
 13 45  1  6
 15 46  1  0
 16 47  1  0
 19 48  1  0
 20 49  1  0
 22 50  1  0
 23 51  1  0
 25 52  1  0
 28 53  1  0
 29 54  1  0
M  END
>  <smiles>  (70) 
O=C(NCC(=O)N1CCCCCC1c1ccc(Cl)cc1)c1ccc2cc(Cl)ccc2n1

>  <score_type>  (70) 
oracle

>  <origin>  (70) 
autodockgpu

>  <m_score__min__energy>  (70) 
-7.21

>  <m_primary>  (70) 
energy

>  <rmsd>  (70) 
3.0978519057708733

>  <m_score__min__rmsd>  (70) 
3.0978519057708733

>  <meeko>  (70) 
{"free_energy": -5.53, "intermolecular_energy": -8.81, "internal_energy": -1.94, "cluster_size": 2, "cluster_id": 7, "rank_in_cluster": 2}

>  <energy>  (70) 
-6.2

>  <cluster_rmsd>  (70) 
1.07

>  <cluster>  (70) 
2

$$$$

     RDKit          3D

 54 57  0  0  0  0  0  0  0  0999 V2000
  140.9270   72.6650  220.6000 O   0  0  0  0  0  0  0  0  0  0  0  0
  140.4240   73.0370  221.7020 C   0  0  0  0  0  0  0  0  0  0  0  0
  140.0570   74.3870  221.9630 N   0  0  0  0  0  0  0  0  0  0  0  0
  140.2690   75.3860  220.9130 C   0  0  0  0  0  0  0  0  0  0  0  0
  139.8080   76.6980  221.4100 C   0  0  0  0  0  0  0  0  0  0  0  0
  138.5820   76.9160  221.5850 O   0  0  0  0  0  0  0  0  0  0  0  0
  140.7180   77.7870  221.7170 N   0  0  0  0  0  0  0  0  0  0  0  0
  141.0710   77.7900  223.1060 C   0  0  0  0  0  0  0  0  0  0  0  0
  140.9770   79.0440  223.8610 C   0  0  0  0  0  0  0  0  0  0  0  0
  141.6220   80.2610  223.2980 C   0  0  0  0  0  0  0  0  0  0  0  0
  141.0800   80.6140  221.9380 C   0  0  0  0  0  0  0  0  0  0  0  0
  141.8930   79.7910  220.9420 C   0  0  0  0  0  0  0  0  0  0  0  0
  141.0310   78.5740  220.5700 C   0  0  1  0  0  0  0  0  0  0  0  0
  141.6550   77.8480  219.4400 C   0  0  0  0  0  0  0  0  0  0  0  0
  142.7320   76.9790  219.6640 C   0  0  0  0  0  0  0  0  0  0  0  0
  143.3320   76.2780  218.6470 C   0  0  0  0  0  0  0  0  0  0  0  0
  142.9040   76.3940  217.3410 C   0  0  0  0  0  0  0  0  0  0  0  0
  143.6990   75.4840  216.0890 Cl  0  0  0  0  0  0  0  0  0  0  0  0
  141.8470   77.2410  217.0950 C   0  0  0  0  0  0  0  0  0  0  0  0
  141.2430   77.9480  218.1320 C   0  0  0  0  0  0  0  0  0  0  0  0
  140.2040   72.0440  222.7710 C   0  0  0  0  0  0  0  0  0  0  0  0
  139.4300   70.9210  222.5100 C   0  0  0  0  0  0  0  0  0  0  0  0
  139.2150   69.9750  223.5130 C   0  0  0  0  0  0  0  0  0  0  0  0
  139.7710   70.1560  224.7610 C   0  0  0  0  0  0  0  0  0  0  0  0
  139.5900   69.2460  225.7970 C   0  0  0  0  0  0  0  0  0  0  0  0
  140.1910   69.5210  227.0120 C   0  0  0  0  0  0  0  0  0  0  0  0
  140.0030   68.4160  228.3570 Cl  0  0  0  0  0  0  0  0  0  0  0  0
  140.9500   70.6500  227.2210 C   0  0  0  0  0  0  0  0  0  0  0  0
  141.1370   71.5640  226.1890 C   0  0  0  0  0  0  0  0  0  0  0  0
  140.5340   71.2830  224.9840 C   0  0  0  0  0  0  0  0  0  0  0  0
  140.7310   72.1920  223.9930 N   0  0  0  0  0  0  0  0  0  0  0  0
  139.6460   74.6400  222.8900 H   0  0  0  0  0  0  0  0  0  0  0  0
  141.3389   75.4396  220.6632 H   0  0  0  0  0  0  0  0  0  0  0  0
  139.7056   75.1073  220.0103 H   0  0  0  0  0  0  0  0  0  0  0  0
  140.4154   77.0624  223.6067 H   0  0  0  0  0  0  0  0  0  0  0  0
  142.1473   77.5627  223.1051 H   0  0  0  0  0  0  0  0  0  0  0  0
  139.9075   79.2702  223.9832 H   0  0  0  0  0  0  0  0  0  0  0  0
  141.5384   78.8446  224.7857 H   0  0  0  0  0  0  0  0  0  0  0  0
  141.4432   81.1048  223.9807 H   0  0  0  0  0  0  0  0  0  0  0  0
  142.6970   80.0545  223.1902 H   0  0  0  0  0  0  0  0  0  0  0  0
  140.0135   80.3530  221.8707 H   0  0  0  0  0  0  0  0  0  0  0  0
  141.1622   81.6921  221.7359 H   0  0  0  0  0  0  0  0  0  0  0  0
  142.1122   80.3891  220.0452 H   0  0  0  0  0  0  0  0  0  0  0  0
  142.8537   79.4783  221.3770 H   0  0  0  0  0  0  0  0  0  0  0  0
  140.0455   78.8976  220.2037 H   0  0  0  0  0  0  0  0  0  0  0  0
  143.1094   76.8544  220.6897 H   0  0  0  0  0  0  0  0  0  0  0  0
  144.1734   75.6085  218.8793 H   0  0  0  0  0  0  0  0  0  0  0  0
  141.4748   77.3609  216.0668 H   0  0  0  0  0  0  0  0  0  0  0  0
  140.4008   78.6145  217.8945 H   0  0  0  0  0  0  0  0  0  0  0  0
  138.9868   70.7773  221.5135 H   0  0  0  0  0  0  0  0  0  0  0  0
  138.6019   69.0851  223.3076 H   0  0  0  0  0  0  0  0  0  0  0  0
  138.9880   68.3364  225.6547 H   0  0  0  0  0  0  0  0  0  0  0  0
  141.4089   70.8297  228.2044 H   0  0  0  0  0  0  0  0  0  0  0  0
  141.7410   72.4725  226.3300 H   0  0  0  0  0  0  0  0  0  0  0  0
  1  2  2  0
  2  3  1  0
  3  4  1  0
  4  5  1  0
  5  6  2  0
  5  7  1  0
  7  8  1  0
  8  9  1  0
  9 10  1  0
 10 11  1  0
 11 12  1  0
 12 13  1  0
 13 14  1  0
 14 15  2  0
 15 16  1  0
 16 17  2  0
 17 18  1  0
 17 19  1  0
 19 20  2  0
  2 21  1  0
 21 22  2  0
 22 23  1  0
 23 24  2  0
 24 25  1  0
 25 26  2  0
 26 27  1  0
 26 28  1  0
 28 29  2  0
 29 30  1  0
 30 31  2  0
 13  7  1  0
 20 14  1  0
 31 21  1  0
 30 24  1  0
  3 32  1  0
  4 33  1  0
  4 34  1  0
  8 35  1  0
  8 36  1  0
  9 37  1  0
  9 38  1  0
 10 39  1  0
 10 40  1  0
 11 41  1  0
 11 42  1  0
 12 43  1  0
 12 44  1  0
 13 45  1  6
 15 46  1  0
 16 47  1  0
 19 48  1  0
 20 49  1  0
 22 50  1  0
 23 51  1  0
 25 52  1  0
 28 53  1  0
 29 54  1  0
M  END
>  <smiles>  (71) 
O=C(NCC(=O)N1CCCCCC1c1ccc(Cl)cc1)c1ccc2cc(Cl)ccc2n1

>  <score_type>  (71) 
oracle

>  <origin>  (71) 
autodockgpu

>  <m_score__min__energy>  (71) 
-7.21

>  <m_primary>  (71) 
energy

>  <rmsd>  (71) 
3.4957187237320606

>  <m_score__min__rmsd>  (71) 
3.4957187237320606

>  <meeko>  (71) 
{"free_energy": -6.33, "intermolecular_energy": -9.62, "internal_energy": -1.64, "cluster_size": 12, "cluster_id": 1, "rank_in_cluster": 5}

>  <energy>  (71) 
-6.04

>  <cluster_rmsd>  (71) 
1.78

>  <cluster>  (71) 
2

$$$$

     RDKit          3D

 54 57  0  0  0  0  0  0  0  0999 V2000
  139.2490   71.9160  220.6880 O   0  0  0  0  0  0  0  0  0  0  0  0
  139.5210   72.3930  221.8300 C   0  0  0  0  0  0  0  0  0  0  0  0
  139.7210   73.7830  222.0550 N   0  0  0  0  0  0  0  0  0  0  0  0
  139.6080   74.7000  220.9190 C   0  0  0  0  0  0  0  0  0  0  0  0
  140.5450   74.2610  219.8630 C   0  0  0  0  0  0  0  0  0  0  0  0
  140.1770   74.2260  218.6620 O   0  0  0  0  0  0  0  0  0  0  0  0
  141.9100   73.8530  220.1440 N   0  0  0  0  0  0  0  0  0  0  0  0
  142.0750   72.4410  219.9630 C   0  0  0  0  0  0  0  0  0  0  0  0
  143.3460   71.8180  220.3500 C   0  0  0  0  0  0  0  0  0  0  0  0
  144.5990   72.3150  219.7180 C   0  0  0  0  0  0  0  0  0  0  0  0
  144.4900   73.7560  219.2950 C   0  0  0  0  0  0  0  0  0  0  0  0
  144.2190   74.5450  220.5710 C   0  0  0  0  0  0  0  0  0  0  0  0
  142.7380   74.9490  220.5240 C   0  0  1  0  0  0  0  0  0  0  0  0
  142.5830   76.1840  219.7210 C   0  0  0  0  0  0  0  0  0  0  0  0
  142.0290   77.3380  220.2940 C   0  0  0  0  0  0  0  0  0  0  0  0
  141.8770   78.5060  219.5890 C   0  0  0  0  0  0  0  0  0  0  0  0
  142.2630   78.6070  218.2690 C   0  0  0  0  0  0  0  0  0  0  0  0
  142.0480   80.1100  217.4200 Cl  0  0  0  0  0  0  0  0  0  0  0  0
  142.8100   77.4870  217.6830 C   0  0  0  0  0  0  0  0  0  0  0  0
  142.9620   76.3060  218.4050 C   0  0  0  0  0  0  0  0  0  0  0  0
  139.6390   71.4830  222.9860 C   0  0  0  0  0  0  0  0  0  0  0  0
  139.1360   70.1920  222.8930 C   0  0  0  0  0  0  0  0  0  0  0  0
  139.2410   69.3230  223.9790 C   0  0  0  0  0  0  0  0  0  0  0  0
  139.8450   69.7460  225.1440 C   0  0  0  0  0  0  0  0  0  0  0  0
  139.9780   68.9230  226.2560 C   0  0  0  0  0  0  0  0  0  0  0  0
  140.6000   69.4450  227.3770 C   0  0  0  0  0  0  0  0  0  0  0  0
  140.8000   68.4610  228.8110 Cl  0  0  0  0  0  0  0  0  0  0  0  0
  141.0830   70.7330  227.4190 C   0  0  0  0  0  0  0  0  0  0  0  0
  140.9540   71.5630  226.3100 C   0  0  0  0  0  0  0  0  0  0  0  0
  140.3340   71.0350  225.2000 C   0  0  0  0  0  0  0  0  0  0  0  0
  140.2200   71.8650  224.1300 N   0  0  0  0  0  0  0  0  0  0  0  0
  139.9430   74.1240  223.0180 H   0  0  0  0  0  0  0  0  0  0  0  0
  138.5788   74.6843  220.5311 H   0  0  0  0  0  0  0  0  0  0  0  0
  139.8534   75.7240  221.2370 H   0  0  0  0  0  0  0  0  0  0  0  0
  141.2833   71.9467  220.5451 H   0  0  0  0  0  0  0  0  0  0  0  0
  142.0379   72.3088  218.8716 H   0  0  0  0  0  0  0  0  0  0  0  0
  143.4553   71.9498  221.4366 H   0  0  0  0  0  0  0  0  0  0  0  0
  143.2575   70.7803  219.9960 H   0  0  0  0  0  0  0  0  0  0  0  0
  145.4225   72.2194  220.4410 H   0  0  0  0  0  0  0  0  0  0  0  0
  144.7850   71.7118  218.8171 H   0  0  0  0  0  0  0  0  0  0  0  0
  145.4291   74.0906  218.8301 H   0  0  0  0  0  0  0  0  0  0  0  0
  143.6911   73.9004  218.5528 H   0  0  0  0  0  0  0  0  0  0  0  0
  144.4149   73.9192  221.4542 H   0  0  0  0  0  0  0  0  0  0  0  0
  144.8714   75.4279  220.6404 H   0  0  0  0  0  0  0  0  0  0  0  0
  142.3774   75.2056  221.5310 H   0  0  0  0  0  0  0  0  0  0  0  0
  141.7051   77.3060  221.3447 H   0  0  0  0  0  0  0  0  0  0  0  0
  141.4371   79.3817  220.0886 H   0  0  0  0  0  0  0  0  0  0  0  0
  143.1308   77.5259  216.6315 H   0  0  0  0  0  0  0  0  0  0  0  0
  143.4040   75.4338  217.9011 H   0  0  0  0  0  0  0  0  0  0  0  0
  138.6548   69.8547  221.9631 H   0  0  0  0  0  0  0  0  0  0  0  0
  138.8420   68.3005  223.9060 H   0  0  0  0  0  0  0  0  0  0  0  0
  139.6010   67.8897  226.2456 H   0  0  0  0  0  0  0  0  0  0  0  0
  141.5718   71.1068  228.3308 H   0  0  0  0  0  0  0  0  0  0  0  0
  141.3310   72.5963  226.3196 H   0  0  0  0  0  0  0  0  0  0  0  0
  1  2  2  0
  2  3  1  0
  3  4  1  0
  4  5  1  0
  5  6  2  0
  5  7  1  0
  7  8  1  0
  8  9  1  0
  9 10  1  0
 10 11  1  0
 11 12  1  0
 12 13  1  0
 13 14  1  0
 14 15  2  0
 15 16  1  0
 16 17  2  0
 17 18  1  0
 17 19  1  0
 19 20  2  0
  2 21  1  0
 21 22  2  0
 22 23  1  0
 23 24  2  0
 24 25  1  0
 25 26  2  0
 26 27  1  0
 26 28  1  0
 28 29  2  0
 29 30  1  0
 30 31  2  0
 13  7  1  0
 20 14  1  0
 31 21  1  0
 30 24  1  0
  3 32  1  0
  4 33  1  0
  4 34  1  0
  8 35  1  0
  8 36  1  0
  9 37  1  0
  9 38  1  0
 10 39  1  0
 10 40  1  0
 11 41  1  0
 11 42  1  0
 12 43  1  0
 12 44  1  0
 13 45  1  1
 15 46  1  0
 16 47  1  0
 19 48  1  0
 20 49  1  0
 22 50  1  0
 23 51  1  0
 25 52  1  0
 28 53  1  0
 29 54  1  0
M  END
>  <smiles>  (72) 
O=C(NCC(=O)N1CCCCCC1c1ccc(Cl)cc1)c1ccc2cc(Cl)ccc2n1

>  <score_type>  (72) 
oracle

>  <origin>  (72) 
autodockgpu

>  <m_score__min__energy>  (72) 
-7.21

>  <m_primary>  (72) 
energy

>  <rmsd>  (72) 
2.9212554192077813

>  <m_score__min__rmsd>  (72) 
2.9212554192077813

>  <meeko>  (72) 
{"free_energy": -5.93, "intermolecular_energy": -9.22, "internal_energy": -2.09, "cluster_size": 9, "cluster_id": 3, "rank_in_cluster": 7}

>  <energy>  (72) 
-6.53

>  <cluster_rmsd>  (72) 
0.0

>  <cluster>  (72) 
3

$$$$

     RDKit          3D

 54 57  0  0  0  0  0  0  0  0999 V2000
  138.5850   72.2690  220.9410 O   0  0  0  0  0  0  0  0  0  0  0  0
  139.3950   72.5400  221.8780 C   0  0  0  0  0  0  0  0  0  0  0  0
  140.1750   73.7290  221.9010 N   0  0  0  0  0  0  0  0  0  0  0  0
  140.0360   74.6790  220.7950 C   0  0  0  0  0  0  0  0  0  0  0  0
  140.8130   74.1780  219.6420 C   0  0  0  0  0  0  0  0  0  0  0  0
  140.2750   74.0720  218.5110 O   0  0  0  0  0  0  0  0  0  0  0  0
  142.2080   73.7870  219.7440 N   0  0  0  0  0  0  0  0  0  0  0  0
  142.3870   72.4120  219.3830 C   0  0  0  0  0  0  0  0  0  0  0  0
  143.3580   71.6020  220.1270 C   0  0  0  0  0  0  0  0  0  0  0  0
  144.7510   72.1090  220.2590 C   0  0  0  0  0  0  0  0  0  0  0  0
  144.8140   73.3980  221.0360 C   0  0  0  0  0  0  0  0  0  0  0  0
  144.5310   74.5050  220.0270 C   0  0  0  0  0  0  0  0  0  0  0  0
  143.0430   74.8590  220.1740 C   0  0  1  0  0  0  0  0  0  0  0  0
  142.7790   76.1740  219.5470 C   0  0  0  0  0  0  0  0  0  0  0  0
  143.1570   76.4160  218.2180 C   0  0  0  0  0  0  0  0  0  0  0  0
  142.9220   77.6160  217.5950 C   0  0  0  0  0  0  0  0  0  0  0  0
  142.2950   78.6570  218.2480 C   0  0  0  0  0  0  0  0  0  0  0  0
  142.0200   80.1580  217.4140 Cl  0  0  0  0  0  0  0  0  0  0  0  0
  141.9130   78.4450  219.5540 C   0  0  0  0  0  0  0  0  0  0  0  0
  142.1550   77.2240  220.1790 C   0  0  0  0  0  0  0  0  0  0  0  0
  139.5470   71.5930  223.0000 C   0  0  0  0  0  0  0  0  0  0  0  0
  139.0830   70.2910  222.8620 C   0  0  0  0  0  0  0  0  0  0  0  0
  139.2210   69.3880  223.9170 C   0  0  0  0  0  0  0  0  0  0  0  0
  139.8180   69.7870  225.0930 C   0  0  0  0  0  0  0  0  0  0  0  0
  139.9820   68.9300  226.1740 C   0  0  0  0  0  0  0  0  0  0  0  0
  140.5940   69.4290  227.3100 C   0  0  0  0  0  0  0  0  0  0  0  0
  140.8320   68.4010  228.7070 Cl  0  0  0  0  0  0  0  0  0  0  0  0
  141.0380   70.7300  227.3960 C   0  0  0  0  0  0  0  0  0  0  0  0
  140.8780   71.5940  226.3180 C   0  0  0  0  0  0  0  0  0  0  0  0
  140.2670   71.0870  225.1930 C   0  0  0  0  0  0  0  0  0  0  0  0
  140.1220   71.9510  224.1540 N   0  0  0  0  0  0  0  0  0  0  0  0
  140.8270   73.9030  222.6990 H   0  0  0  0  0  0  0  0  0  0  0  0
  138.9759   74.7701  220.5159 H   0  0  0  0  0  0  0  0  0  0  0  0
  140.4107   75.6674  221.0995 H   0  0  0  0  0  0  0  0  0  0  0  0
  141.4086   71.9208  219.4895 H   0  0  0  0  0  0  0  0  0  0  0  0
  142.8056   72.4584  218.3668 H   0  0  0  0  0  0  0  0  0  0  0  0
  142.9614   71.4728  221.1448 H   0  0  0  0  0  0  0  0  0  0  0  0
  143.4602   70.6853  219.5277 H   0  0  0  0  0  0  0  0  0  0  0  0
  145.3563   71.3517  220.7788 H   0  0  0  0  0  0  0  0  0  0  0  0
  145.1376   72.3040  219.2478 H   0  0  0  0  0  0  0  0  0  0  0  0
  144.0554   73.4026  221.8326 H   0  0  0  0  0  0  0  0  0  0  0  0
  145.7927   73.5317  221.5200 H   0  0  0  0  0  0  0  0  0  0  0  0
  145.1543   75.3851  220.2436 H   0  0  0  0  0  0  0  0  0  0  0  0
  144.7630   74.1784  219.0025 H   0  0  0  0  0  0  0  0  0  0  0  0
  142.7791   74.9809  221.2349 H   0  0  0  0  0  0  0  0  0  0  0  0
  143.6596   75.6156  217.6552 H   0  0  0  0  0  0  0  0  0  0  0  0
  143.2409   77.7509  216.5509 H   0  0  0  0  0  0  0  0  0  0  0  0
  141.4105   79.2499  220.1105 H   0  0  0  0  0  0  0  0  0  0  0  0
  141.8332   77.0940  221.2228 H   0  0  0  0  0  0  0  0  0  0  0  0
  138.6076   69.9723  221.9227 H   0  0  0  0  0  0  0  0  0  0  0  0
  138.8529   68.3570  223.8097 H   0  0  0  0  0  0  0  0  0  0  0  0
  139.6359   67.8869  226.1281 H   0  0  0  0  0  0  0  0  0  0  0  0
  141.5198   71.0861  228.3185 H   0  0  0  0  0  0  0  0  0  0  0  0
  141.2245   72.6371  226.3622 H   0  0  0  0  0  0  0  0  0  0  0  0
  1  2  2  0
  2  3  1  0
  3  4  1  0
  4  5  1  0
  5  6  2  0
  5  7  1  0
  7  8  1  0
  8  9  1  0
  9 10  1  0
 10 11  1  0
 11 12  1  0
 12 13  1  0
 13 14  1  0
 14 15  2  0
 15 16  1  0
 16 17  2  0
 17 18  1  0
 17 19  1  0
 19 20  2  0
  2 21  1  0
 21 22  2  0
 22 23  1  0
 23 24  2  0
 24 25  1  0
 25 26  2  0
 26 27  1  0
 26 28  1  0
 28 29  2  0
 29 30  1  0
 30 31  2  0
 13  7  1  0
 20 14  1  0
 31 21  1  0
 30 24  1  0
  3 32  1  0
  4 33  1  0
  4 34  1  0
  8 35  1  0
  8 36  1  0
  9 37  1  0
  9 38  1  0
 10 39  1  0
 10 40  1  0
 11 41  1  0
 11 42  1  0
 12 43  1  0
 12 44  1  0
 13 45  1  1
 15 46  1  0
 16 47  1  0
 19 48  1  0
 20 49  1  0
 22 50  1  0
 23 51  1  0
 25 52  1  0
 28 53  1  0
 29 54  1  0
M  END
>  <smiles>  (73) 
O=C(NCC(=O)N1CCCCCC1c1ccc(Cl)cc1)c1ccc2cc(Cl)ccc2n1

>  <score_type>  (73) 
oracle

>  <origin>  (73) 
autodockgpu

>  <m_score__min__energy>  (73) 
-7.21

>  <m_primary>  (73) 
energy

>  <rmsd>  (73) 
2.999155847076706

>  <m_score__min__rmsd>  (73) 
2.999155847076706

>  <meeko>  (73) 
{"free_energy": -6.04, "intermolecular_energy": -9.33, "internal_energy": -2.16, "cluster_size": 9, "cluster_id": 3, "rank_in_cluster": 5}

>  <energy>  (73) 
-6.4

>  <cluster_rmsd>  (73) 
1.95

>  <cluster>  (73) 
3

$$$$

     RDKit          3D

 54 57  0  0  0  0  0  0  0  0999 V2000
  140.8950   73.4970  220.5950 O   0  0  0  0  0  0  0  0  0  0  0  0
  140.1660   73.6090  221.6270 C   0  0  0  0  0  0  0  0  0  0  0  0
  139.5470   74.8340  222.0020 N   0  0  0  0  0  0  0  0  0  0  0  0
  139.7610   76.0130  221.1590 C   0  0  0  0  0  0  0  0  0  0  0  0
  140.8320   76.8340  221.7600 C   0  0  0  0  0  0  0  0  0  0  0  0
  141.0760   76.7590  222.9910 O   0  0  0  0  0  0  0  0  0  0  0  0
  141.6460   77.7530  220.9850 N   0  0  0  0  0  0  0  0  0  0  0  0
  142.2500   77.0910  219.8660 C   0  0  0  0  0  0  0  0  0  0  0  0
  141.9740   77.5870  218.5130 C   0  0  0  0  0  0  0  0  0  0  0  0
  141.9920   79.0570  218.2790 C   0  0  0  0  0  0  0  0  0  0  0  0
  141.1020   79.7960  219.2430 C   0  0  0  0  0  0  0  0  0  0  0  0
  141.9730   80.1200  220.4500 C   0  0  0  0  0  0  0  0  0  0  0  0
  141.6410   79.0730  221.5240 C   0  0  1  0  0  0  0  0  0  0  0  0
  140.4100   79.4690  222.2450 C   0  0  0  0  0  0  0  0  0  0  0  0
  139.1750   79.4900  221.5820 C   0  0  0  0  0  0  0  0  0  0  0  0
  138.0090   79.8410  222.2160 C   0  0  0  0  0  0  0  0  0  0  0  0
  137.9900   80.1960  223.5480 C   0  0  0  0  0  0  0  0  0  0  0  0
  136.4850   80.6330  224.3030 Cl  0  0  0  0  0  0  0  0  0  0  0  0
  139.1910   80.1840  224.2220 C   0  0  0  0  0  0  0  0  0  0  0  0
  140.3700   79.8260  223.5730 C   0  0  0  0  0  0  0  0  0  0  0  0
  139.9420   72.4310  222.4870 C   0  0  0  0  0  0  0  0  0  0  0  0
  138.9690   71.5050  222.1350 C   0  0  0  0  0  0  0  0  0  0  0  0
  138.7470   70.3880  222.9400 C   0  0  0  0  0  0  0  0  0  0  0  0
  139.4940   70.2040  224.0840 C   0  0  0  0  0  0  0  0  0  0  0  0
  139.3150   69.1090  224.9230 C   0  0  0  0  0  0  0  0  0  0  0  0
  140.1170   69.0180  226.0470 C   0  0  0  0  0  0  0  0  0  0  0  0
  139.9440   67.6650  227.1440 Cl  0  0  0  0  0  0  0  0  0  0  0  0
  141.0690   69.9640  226.3520 C   0  0  0  0  0  0  0  0  0  0  0  0
  141.2530   71.0620  225.5180 C   0  0  0  0  0  0  0  0  0  0  0  0
  140.4510   71.1440  224.4020 C   0  0  0  0  0  0  0  0  0  0  0  0
  140.6500   72.2250  223.6030 N   0  0  0  0  0  0  0  0  0  0  0  0
  138.9560   74.8710  222.8620 H   0  0  0  0  0  0  0  0  0  0  0  0
  140.0593   75.6968  220.1485 H   0  0  0  0  0  0  0  0  0  0  0  0
  138.8326   76.5988  221.0895 H   0  0  0  0  0  0  0  0  0  0  0  0
  143.3392   77.1404  220.0116 H   0  0  0  0  0  0  0  0  0  0  0  0
  141.7980   76.0882  219.8770 H   0  0  0  0  0  0  0  0  0  0  0  0
  142.7257   77.1423  217.8443 H   0  0  0  0  0  0  0  0  0  0  0  0
  140.9293   77.2971  218.3273 H   0  0  0  0  0  0  0  0  0  0  0  0
  143.0229   79.4222  218.3971 H   0  0  0  0  0  0  0  0  0  0  0  0
  141.6164   79.2423  217.2618 H   0  0  0  0  0  0  0  0  0  0  0  0
  140.7252   80.7216  218.7834 H   0  0  0  0  0  0  0  0  0  0  0  0
  140.2260   79.1943  219.5267 H   0  0  0  0  0  0  0  0  0  0  0  0
  143.0370   80.0600  220.1774 H   0  0  0  0  0  0  0  0  0  0  0  0
  141.7803   81.1392  220.8163 H   0  0  0  0  0  0  0  0  0  0  0  0
  142.4324   79.0429  222.2874 H   0  0  0  0  0  0  0  0  0  0  0  0
  139.1390   79.2158  220.5173 H   0  0  0  0  0  0  0  0  0  0  0  0
  137.0673   79.8389  221.6475 H   0  0  0  0  0  0  0  0  0  0  0  0
  139.2193   80.4607  225.2863 H   0  0  0  0  0  0  0  0  0  0  0  0
  141.3088   79.8288  224.1463 H   0  0  0  0  0  0  0  0  0  0  0  0
  138.3737   71.6524  221.2218 H   0  0  0  0  0  0  0  0  0  0  0  0
  137.9761   69.6541  222.6623 H   0  0  0  0  0  0  0  0  0  0  0  0
  138.5604   68.3403  224.7002 H   0  0  0  0  0  0  0  0  0  0  0  0
  141.6851   69.8517  227.2563 H   0  0  0  0  0  0  0  0  0  0  0  0
  142.0068   71.8316  225.7406 H   0  0  0  0  0  0  0  0  0  0  0  0
  1  2  2  0
  2  3  1  0
  3  4  1  0
  4  5  1  0
  5  6  2  0
  5  7  1  0
  7  8  1  0
  8  9  1  0
  9 10  1  0
 10 11  1  0
 11 12  1  0
 12 13  1  0
 13 14  1  0
 14 15  2  0
 15 16  1  0
 16 17  2  0
 17 18  1  0
 17 19  1  0
 19 20  2  0
  2 21  1  0
 21 22  2  0
 22 23  1  0
 23 24  2  0
 24 25  1  0
 25 26  2  0
 26 27  1  0
 26 28  1  0
 28 29  2  0
 29 30  1  0
 30 31  2  0
 13  7  1  0
 20 14  1  0
 31 21  1  0
 30 24  1  0
  3 32  1  0
  4 33  1  0
  4 34  1  0
  8 35  1  0
  8 36  1  0
  9 37  1  0
  9 38  1  0
 10 39  1  0
 10 40  1  0
 11 41  1  0
 11 42  1  0
 12 43  1  0
 12 44  1  0
 13 45  1  1
 15 46  1  0
 16 47  1  0
 19 48  1  0
 20 49  1  0
 22 50  1  0
 23 51  1  0
 25 52  1  0
 28 53  1  0
 29 54  1  0
M  END
>  <smiles>  (74) 
O=C(NCC(=O)N1CCCCCC1c1ccc(Cl)cc1)c1ccc2cc(Cl)ccc2n1

>  <score_type>  (74) 
oracle

>  <origin>  (74) 
autodockgpu

>  <m_score__min__energy>  (74) 
-7.21

>  <m_primary>  (74) 
energy

>  <rmsd>  (74) 
2.8926579990442916

>  <m_score__min__rmsd>  (74) 
2.8926579990442916

>  <meeko>  (74) 
{"free_energy": -6.2, "intermolecular_energy": -9.48, "internal_energy": -1.63, "cluster_size": 9, "cluster_id": 2, "rank_in_cluster": 8}

>  <energy>  (74) 
-6.39

>  <cluster_rmsd>  (74) 
0.2

>  <cluster>  (74) 
3

$$$$

     RDKit          3D

 54 57  0  0  0  0  0  0  0  0999 V2000
  137.7050   71.1820  220.7020 O   0  0  0  0  0  0  0  0  0  0  0  0
  138.1350   71.7960  221.7240 C   0  0  0  0  0  0  0  0  0  0  0  0
  138.1850   73.2150  221.8040 N   0  0  0  0  0  0  0  0  0  0  0  0
  137.7200   73.9980  220.6560 C   0  0  0  0  0  0  0  0  0  0  0  0
  138.7660   74.9790  220.2990 C   0  0  0  0  0  0  0  0  0  0  0  0
  138.4860   76.2010  220.2080 O   0  0  0  0  0  0  0  0  0  0  0  0
  140.1430   74.6000  220.0370 N   0  0  0  0  0  0  0  0  0  0  0  0
  140.2690   73.9590  218.7620 C   0  0  0  0  0  0  0  0  0  0  0  0
  141.4590   74.2270  217.9460 C   0  0  0  0  0  0  0  0  0  0  0  0
  142.7990   74.0330  218.5620 C   0  0  0  0  0  0  0  0  0  0  0  0
  143.0380   74.9770  219.7110 C   0  0  0  0  0  0  0  0  0  0  0  0
  142.4040   74.3190  220.9320 C   0  0  0  0  0  0  0  0  0  0  0  0
  141.0180   74.9580  221.1040 C   0  0  1  0  0  0  0  0  0  0  0  0
  141.1660   76.4100  221.3570 C   0  0  0  0  0  0  0  0  0  0  0  0
  141.0430   76.9200  222.6580 C   0  0  0  0  0  0  0  0  0  0  0  0
  141.1830   78.2560  222.9370 C   0  0  0  0  0  0  0  0  0  0  0  0
  141.4540   79.1760  221.9470 C   0  0  0  0  0  0  0  0  0  0  0  0
  141.6220   80.8590  222.3540 Cl  0  0  0  0  0  0  0  0  0  0  0  0
  141.5800   78.7000  220.6610 C   0  0  0  0  0  0  0  0  0  0  0  0
  141.4370   77.3430  220.3840 C   0  0  0  0  0  0  0  0  0  0  0  0
  138.6080   71.0220  222.8880 C   0  0  0  0  0  0  0  0  0  0  0  0
  138.3410   69.6610  222.9580 C   0  0  0  0  0  0  0  0  0  0  0  0
  138.7820   68.9200  224.0540 C   0  0  0  0  0  0  0  0  0  0  0  0
  139.4840   69.5390  225.0660 C   0  0  0  0  0  0  0  0  0  0  0  0
  139.9480   68.8490  226.1810 C   0  0  0  0  0  0  0  0  0  0  0  0
  140.6420   69.5630  227.1410 C   0  0  0  0  0  0  0  0  0  0  0  0
  141.2540   68.7550  228.5680 Cl  0  0  0  0  0  0  0  0  0  0  0  0
  140.8820   70.9140  227.0250 C   0  0  0  0  0  0  0  0  0  0  0  0
  140.4220   71.6110  225.9130 C   0  0  0  0  0  0  0  0  0  0  0  0
  139.7320   70.8910  224.9630 C   0  0  0  0  0  0  0  0  0  0  0  0
  139.2920   71.5950  223.8860 N   0  0  0  0  0  0  0  0  0  0  0  0
  138.5490   73.6710  222.6710 H   0  0  0  0  0  0  0  0  0  0  0  0
  137.5325   73.3293  219.8029 H   0  0  0  0  0  0  0  0  0  0  0  0
  136.7863   74.5206  220.9112 H   0  0  0  0  0  0  0  0  0  0  0  0
  140.2391   72.8743  218.9421 H   0  0  0  0  0  0  0  0  0  0  0  0
  139.4430   74.3817  218.1712 H   0  0  0  0  0  0  0  0  0  0  0  0
  141.4063   73.5666  217.0679 H   0  0  0  0  0  0  0  0  0  0  0  0
  141.4092   75.3069  217.7428 H   0  0  0  0  0  0  0  0  0  0  0  0
  142.8731   72.9994  218.9311 H   0  0  0  0  0  0  0  0  0  0  0  0
  143.5578   74.2381  217.7925 H   0  0  0  0  0  0  0  0  0  0  0  0
  144.1169   75.1200  219.8705 H   0  0  0  0  0  0  0  0  0  0  0  0
  142.6038   75.9686  219.5157 H   0  0  0  0  0  0  0  0  0  0  0  0
  142.3051   73.2354  220.7709 H   0  0  0  0  0  0  0  0  0  0  0  0
  143.0233   74.4668  221.8290 H   0  0  0  0  0  0  0  0  0  0  0  0
  140.5159   74.5535  221.9952 H   0  0  0  0  0  0  0  0  0  0  0  0
  140.8269   76.2249  223.4828 H   0  0  0  0  0  0  0  0  0  0  0  0
  141.0764   78.6013  223.9759 H   0  0  0  0  0  0  0  0  0  0  0  0
  141.7965   79.4012  219.8416 H   0  0  0  0  0  0  0  0  0  0  0  0
  141.5453   77.0032  219.3434 H   0  0  0  0  0  0  0  0  0  0  0  0
  137.7819   69.1677  222.1493 H   0  0  0  0  0  0  0  0  0  0  0  0
  138.5698   67.8422  224.1109 H   0  0  0  0  0  0  0  0  0  0  0  0
  139.7687   67.7698  226.2957 H   0  0  0  0  0  0  0  0  0  0  0  0
  141.4384   71.4426  227.8130 H   0  0  0  0  0  0  0  0  0  0  0  0
  140.6014   72.6901  225.7972 H   0  0  0  0  0  0  0  0  0  0  0  0
  1  2  2  0
  2  3  1  0
  3  4  1  0
  4  5  1  0
  5  6  2  0
  5  7  1  0
  7  8  1  0
  8  9  1  0
  9 10  1  0
 10 11  1  0
 11 12  1  0
 12 13  1  0
 13 14  1  0
 14 15  2  0
 15 16  1  0
 16 17  2  0
 17 18  1  0
 17 19  1  0
 19 20  2  0
  2 21  1  0
 21 22  2  0
 22 23  1  0
 23 24  2  0
 24 25  1  0
 25 26  2  0
 26 27  1  0
 26 28  1  0
 28 29  2  0
 29 30  1  0
 30 31  2  0
 13  7  1  0
 20 14  1  0
 31 21  1  0
 30 24  1  0
  3 32  1  0
  4 33  1  0
  4 34  1  0
  8 35  1  0
  8 36  1  0
  9 37  1  0
  9 38  1  0
 10 39  1  0
 10 40  1  0
 11 41  1  0
 11 42  1  0
 12 43  1  0
 12 44  1  0
 13 45  1  1
 15 46  1  0
 16 47  1  0
 19 48  1  0
 20 49  1  0
 22 50  1  0
 23 51  1  0
 25 52  1  0
 28 53  1  0
 29 54  1  0
M  END
>  <smiles>  (75) 
O=C(NCC(=O)N1CCCCCC1c1ccc(Cl)cc1)c1ccc2cc(Cl)ccc2n1

>  <score_type>  (75) 
oracle

>  <origin>  (75) 
autodockgpu

>  <m_score__min__energy>  (75) 
-7.21

>  <m_primary>  (75) 
energy

>  <rmsd>  (75) 
1.92070858127947

>  <m_score__min__rmsd>  (75) 
1.92070858127947

>  <meeko>  (75) 
{"free_energy": -5.5, "intermolecular_energy": -8.78, "internal_energy": -1.96, "cluster_size": 9, "cluster_id": 3, "rank_in_cluster": 9}

>  <energy>  (75) 
-6.14

>  <cluster_rmsd>  (75) 
0.37

>  <cluster>  (75) 
3

$$$$

     RDKit          3D

 54 57  0  0  0  0  0  0  0  0999 V2000
  133.3890   69.7490  226.4730 O   0  0  0  0  0  0  0  0  0  0  0  0
  133.8780   70.8660  226.1260 C   0  0  0  0  0  0  0  0  0  0  0  0
  135.0490   70.9780  225.3260 N   0  0  0  0  0  0  0  0  0  0  0  0
  135.7160   69.7500  224.8860 C   0  0  0  0  0  0  0  0  0  0  0  0
  136.6570   70.0890  223.7980 C   0  0  0  0  0  0  0  0  0  0  0  0
  137.0180   71.2790  223.6170 O   0  0  0  0  0  0  0  0  0  0  0  0
  137.2060   69.0930  222.8950 N   0  0  0  0  0  0  0  0  0  0  0  0
  136.2460   68.7090  221.9040 C   0  0  0  0  0  0  0  0  0  0  0  0
  136.5770   68.8890  220.4850 C   0  0  0  0  0  0  0  0  0  0  0  0
  138.0060   69.0590  220.1070 C   0  0  0  0  0  0  0  0  0  0  0  0
  138.9100   68.1280  220.8720 C   0  0  0  0  0  0  0  0  0  0  0  0
  139.4870   68.9560  222.0150 C   0  0  0  0  0  0  0  0  0  0  0  0
  138.5520   68.7500  223.2170 C   0  0  1  0  0  0  0  0  0  0  0  0
  139.1200   69.4180  224.4110 C   0  0  0  0  0  0  0  0  0  0  0  0
  139.8290   70.6210  224.2810 C   0  0  0  0  0  0  0  0  0  0  0  0
  140.3620   71.2780  225.3620 C   0  0  0  0  0  0  0  0  0  0  0  0
  140.2290   70.7850  226.6430 C   0  0  0  0  0  0  0  0  0  0  0  0
  140.9230   71.6560  227.9790 Cl  0  0  0  0  0  0  0  0  0  0  0  0
  139.5360   69.6050  226.7970 C   0  0  0  0  0  0  0  0  0  0  0  0
  138.9980   68.9440  225.6960 C   0  0  0  0  0  0  0  0  0  0  0  0
  133.2180   72.1120  226.5620 C   0  0  0  0  0  0  0  0  0  0  0  0
  131.9890   72.0450  227.2040 C   0  0  0  0  0  0  0  0  0  0  0  0
  131.3560   73.2170  227.6190 C   0  0  0  0  0  0  0  0  0  0  0  0
  131.9520   74.4400  227.3940 C   0  0  0  0  0  0  0  0  0  0  0  0
  131.3660   75.6380  227.7860 C   0  0  0  0  0  0  0  0  0  0  0  0
  132.0460   76.8110  227.5120 C   0  0  0  0  0  0  0  0  0  0  0  0
  131.3650   78.3540  227.9810 Cl  0  0  0  0  0  0  0  0  0  0  0  0
  133.2650   76.8240  226.8720 C   0  0  0  0  0  0  0  0  0  0  0  0
  133.8570   75.6290  226.4760 C   0  0  0  0  0  0  0  0  0  0  0  0
  133.1730   74.4670  226.7540 C   0  0  0  0  0  0  0  0  0  0  0  0
  133.7720   73.3140  226.3560 N   0  0  0  0  0  0  0  0  0  0  0  0
  135.4100   71.9240  225.0680 H   0  0  0  0  0  0  0  0  0  0  0  0
  136.2673   69.3056  225.7278 H   0  0  0  0  0  0  0  0  0  0  0  0
  134.9706   69.0254  224.5263 H   0  0  0  0  0  0  0  0  0  0  0  0
  136.0388   67.6391  222.0535 H   0  0  0  0  0  0  0  0  0  0  0  0
  135.4061   69.4000  222.0687 H   0  0  0  0  0  0  0  0  0  0  0  0
  136.2020   68.0046  219.9490 H   0  0  0  0  0  0  0  0  0  0  0  0
  136.1112   69.8493  220.2188 H   0  0  0  0  0  0  0  0  0  0  0  0
  138.1150   68.8548  219.0316 H   0  0  0  0  0  0  0  0  0  0  0  0
  138.2997   70.0909  220.3495 H   0  0  0  0  0  0  0  0  0  0  0  0
  138.3369   67.2763  221.2672 H   0  0  0  0  0  0  0  0  0  0  0  0
  139.7026   67.7152  220.2306 H   0  0  0  0  0  0  0  0  0  0  0  0
  140.5024   68.6108  222.2596 H   0  0  0  0  0  0  0  0  0  0  0  0
  139.5554   70.0192  221.7414 H   0  0  0  0  0  0  0  0  0  0  0  0
  138.4901   67.6832  223.4780 H   0  0  0  0  0  0  0  0  0  0  0  0
  139.9626   71.0530  223.2782 H   0  0  0  0  0  0  0  0  0  0  0  0
  140.9079   72.2196  225.2027 H   0  0  0  0  0  0  0  0  0  0  0  0
  139.4058   69.1792  227.8028 H   0  0  0  0  0  0  0  0  0  0  0  0
  138.4525   68.0032  225.8610 H   0  0  0  0  0  0  0  0  0  0  0  0
  131.5148   71.0691  227.3853 H   0  0  0  0  0  0  0  0  0  0  0  0
  130.3811   73.1654  228.1259 H   0  0  0  0  0  0  0  0  0  0  0  0
  130.3924   75.6528  228.2978 H   0  0  0  0  0  0  0  0  0  0  0  0
  133.7713   77.7802  226.6736 H   0  0  0  0  0  0  0  0  0  0  0  0
  134.8298   75.6132  225.9628 H   0  0  0  0  0  0  0  0  0  0  0  0
  1  2  2  0
  2  3  1  0
  3  4  1  0
  4  5  1  0
  5  6  2  0
  5  7  1  0
  7  8  1  0
  8  9  1  0
  9 10  1  0
 10 11  1  0
 11 12  1  0
 12 13  1  0
 13 14  1  0
 14 15  2  0
 15 16  1  0
 16 17  2  0
 17 18  1  0
 17 19  1  0
 19 20  2  0
  2 21  1  0
 21 22  2  0
 22 23  1  0
 23 24  2  0
 24 25  1  0
 25 26  2  0
 26 27  1  0
 26 28  1  0
 28 29  2  0
 29 30  1  0
 30 31  2  0
 13  7  1  0
 20 14  1  0
 31 21  1  0
 30 24  1  0
  3 32  1  0
  4 33  1  0
  4 34  1  0
  8 35  1  0
  8 36  1  0
  9 37  1  0
  9 38  1  0
 10 39  1  0
 10 40  1  0
 11 41  1  0
 11 42  1  0
 12 43  1  0
 12 44  1  0
 13 45  1  1
 15 46  1  0
 16 47  1  0
 19 48  1  0
 20 49  1  0
 22 50  1  0
 23 51  1  0
 25 52  1  0
 28 53  1  0
 29 54  1  0
M  END
>  <smiles>  (76) 
O=C(NCC(=O)N1CCCCCC1c1ccc(Cl)cc1)c1ccc2cc(Cl)ccc2n1

>  <score_type>  (76) 
oracle

>  <origin>  (76) 
autodockgpu

>  <m_score__min__energy>  (76) 
-7.21

>  <m_primary>  (76) 
energy

>  <rmsd>  (76) 
8.464109809552896

>  <m_score__min__rmsd>  (76) 
8.464109809552896

>  <meeko>  (76) 
{"free_energy": -6.41, "intermolecular_energy": -9.69, "internal_energy": -2.32, "cluster_size": 6, "cluster_id": 4, "rank_in_cluster": 1}

>  <energy>  (76) 
-6.04

>  <cluster_rmsd>  (76) 
1.19

>  <cluster>  (76) 
3

$$$$

     RDKit          3D

 54 57  0  0  0  0  0  0  0  0999 V2000
  139.9630   72.7190  220.5770 O   0  0  0  0  0  0  0  0  0  0  0  0
  139.7660   73.0340  221.7890 C   0  0  0  0  0  0  0  0  0  0  0  0
  139.4390   74.3580  222.1950 N   0  0  0  0  0  0  0  0  0  0  0  0
  139.3260   75.3980  221.1690 C   0  0  0  0  0  0  0  0  0  0  0  0
  140.2490   76.5000  221.5120 C   0  0  0  0  0  0  0  0  0  0  0  0
  140.2030   77.0380  222.6470 O   0  0  0  0  0  0  0  0  0  0  0  0
  141.2370   77.0160  220.5810 N   0  0  0  0  0  0  0  0  0  0  0  0
  141.8000   78.2460  221.0550 C   0  0  0  0  0  0  0  0  0  0  0  0
  141.6990   79.4450  220.2150 C   0  0  0  0  0  0  0  0  0  0  0  0
  141.9350   79.3080  218.7520 C   0  0  0  0  0  0  0  0  0  0  0  0
  142.6430   78.0240  218.4090 C   0  0  0  0  0  0  0  0  0  0  0  0
  141.5400   77.0050  218.1520 C   0  0  0  0  0  0  0  0  0  0  0  0
  141.3990   76.1790  219.4390 C   0  0  1  0  0  0  0  0  0  0  0  0
  142.4950   75.1860  219.5180 C   0  0  0  0  0  0  0  0  0  0  0  0
  143.2550   74.8760  218.3810 C   0  0  0  0  0  0  0  0  0  0  0  0
  144.2860   73.9700  218.4130 C   0  0  0  0  0  0  0  0  0  0  0  0
  144.6330   73.3120  219.5740 C   0  0  0  0  0  0  0  0  0  0  0  0
  145.9470   72.1740  219.5610 Cl  0  0  0  0  0  0  0  0  0  0  0  0
  143.9020   73.6000  220.7050 C   0  0  0  0  0  0  0  0  0  0  0  0
  142.8580   74.5200  220.6660 C   0  0  0  0  0  0  0  0  0  0  0  0
  139.8760   71.9990  222.8350 C   0  0  0  0  0  0  0  0  0  0  0  0
  139.4420   70.7080  222.5650 C   0  0  0  0  0  0  0  0  0  0  0  0
  139.5410   69.7210  223.5470 C   0  0  0  0  0  0  0  0  0  0  0  0
  140.0700   70.0280  224.7820 C   0  0  0  0  0  0  0  0  0  0  0  0
  140.1920   69.0850  225.7950 C   0  0  0  0  0  0  0  0  0  0  0  0
  140.7360   69.4950  226.9990 C   0  0  0  0  0  0  0  0  0  0  0  0
  140.9200   68.3570  228.3170 Cl  0  0  0  0  0  0  0  0  0  0  0  0
  141.1530   70.7900  227.2170 C   0  0  0  0  0  0  0  0  0  0  0  0
  141.0340   71.7390  226.2070 C   0  0  0  0  0  0  0  0  0  0  0  0
  140.4910   71.3210  225.0130 C   0  0  0  0  0  0  0  0  0  0  0  0
  140.3850   72.2670  224.0430 N   0  0  0  0  0  0  0  0  0  0  0  0
  139.2870   74.5640  223.2080 H   0  0  0  0  0  0  0  0  0  0  0  0
  139.5951   74.9810  220.1873 H   0  0  0  0  0  0  0  0  0  0  0  0
  138.2927   75.7727  221.1255 H   0  0  0  0  0  0  0  0  0  0  0  0
  141.3069   78.4792  222.0102 H   0  0  0  0  0  0  0  0  0  0  0  0
  142.8803   78.0430  221.0962 H   0  0  0  0  0  0  0  0  0  0  0  0
  140.6834   79.8475  220.3440 H   0  0  0  0  0  0  0  0  0  0  0  0
  142.5218   80.0874  220.5619 H   0  0  0  0  0  0  0  0  0  0  0  0
  140.9652   79.3276  218.2332 H   0  0  0  0  0  0  0  0  0  0  0  0
  142.5759   80.1432  218.4331 H   0  0  0  0  0  0  0  0  0  0  0  0
  143.2620   78.1552  217.5092 H   0  0  0  0  0  0  0  0  0  0  0  0
  143.3156   77.7012  219.2173 H   0  0  0  0  0  0  0  0  0  0  0  0
  140.5941   77.5184  217.9247 H   0  0  0  0  0  0  0  0  0  0  0  0
  141.7845   76.3631  217.2928 H   0  0  0  0  0  0  0  0  0  0  0  0
  140.4698   75.5907  219.4174 H   0  0  0  0  0  0  0  0  0  0  0  0
  143.0169   75.3760  217.4306 H   0  0  0  0  0  0  0  0  0  0  0  0
  144.8486   73.7641  217.4905 H   0  0  0  0  0  0  0  0  0  0  0  0
  144.1463   73.0963  221.6519 H   0  0  0  0  0  0  0  0  0  0  0  0
  142.2998   74.7231  221.5918 H   0  0  0  0  0  0  0  0  0  0  0  0
  139.0208   70.4634  221.5787 H   0  0  0  0  0  0  0  0  0  0  0  0
  139.1967   68.6980  223.3351 H   0  0  0  0  0  0  0  0  0  0  0  0
  139.8663   68.0452  225.6444 H   0  0  0  0  0  0  0  0  0  0  0  0
  141.5802   71.0735  228.1902 H   0  0  0  0  0  0  0  0  0  0  0  0
  141.3598   72.7790  226.3560 H   0  0  0  0  0  0  0  0  0  0  0  0
  1  2  2  0
  2  3  1  0
  3  4  1  0
  4  5  1  0
  5  6  2  0
  5  7  1  0
  7  8  1  0
  8  9  1  0
  9 10  1  0
 10 11  1  0
 11 12  1  0
 12 13  1  0
 13 14  1  0
 14 15  2  0
 15 16  1  0
 16 17  2  0
 17 18  1  0
 17 19  1  0
 19 20  2  0
  2 21  1  0
 21 22  2  0
 22 23  1  0
 23 24  2  0
 24 25  1  0
 25 26  2  0
 26 27  1  0
 26 28  1  0
 28 29  2  0
 29 30  1  0
 30 31  2  0
 13  7  1  0
 20 14  1  0
 31 21  1  0
 30 24  1  0
  3 32  1  0
  4 33  1  0
  4 34  1  0
  8 35  1  0
  8 36  1  0
  9 37  1  0
  9 38  1  0
 10 39  1  0
 10 40  1  0
 11 41  1  0
 11 42  1  0
 12 43  1  0
 12 44  1  0
 13 45  1  6
 15 46  1  0
 16 47  1  0
 19 48  1  0
 20 49  1  0
 22 50  1  0
 23 51  1  0
 25 52  1  0
 28 53  1  0
 29 54  1  0
M  END
>  <smiles>  (77) 
O=C(NCC(=O)N1CCCCCC1c1ccc(Cl)cc1)c1ccc2cc(Cl)ccc2n1

>  <score_type>  (77) 
oracle

>  <origin>  (77) 
autodockgpu

>  <m_score__min__energy>  (77) 
-7.21

>  <m_primary>  (77) 
energy

>  <rmsd>  (77) 
2.580182487028813

>  <m_score__min__rmsd>  (77) 
2.580182487028813

>  <meeko>  (77) 
{"free_energy": -6.28, "intermolecular_energy": -9.56, "internal_energy": -2.23, "cluster_size": 12, "cluster_id": 1, "rank_in_cluster": 7}

>  <energy>  (77) 
-5.98

>  <cluster_rmsd>  (77) 
1.18

>  <cluster>  (77) 
3

$$$$

     RDKit          3D

 54 57  0  0  0  0  0  0  0  0999 V2000
  139.2520   74.1550  222.2140 O   0  0  0  0  0  0  0  0  0  0  0  0
  140.4260   74.4960  221.8800 C   0  0  0  0  0  0  0  0  0  0  0  0
  140.9230   75.8170  222.0550 N   0  0  0  0  0  0  0  0  0  0  0  0
  140.0390   76.8250  222.6470 C   0  0  0  0  0  0  0  0  0  0  0  0
  139.9830   77.9920  221.7430 C   0  0  0  0  0  0  0  0  0  0  0  0
  138.8960   78.3340  221.2120 O   0  0  0  0  0  0  0  0  0  0  0  0
  141.1500   78.7940  221.4210 N   0  0  0  0  0  0  0  0  0  0  0  0
  141.9600   79.0160  222.5820 C   0  0  0  0  0  0  0  0  0  0  0  0
  142.1730   80.3920  223.0470 C   0  0  0  0  0  0  0  0  0  0  0  0
  142.2260   81.4820  222.0350 C   0  0  0  0  0  0  0  0  0  0  0  0
  141.0990   81.3880  221.0400 C   0  0  0  0  0  0  0  0  0  0  0  0
  141.6570   80.6100  219.8590 C   0  0  0  0  0  0  0  0  0  0  0  0
  141.1990   79.1550  220.0420 C   0  0  1  0  0  0  0  0  0  0  0  0
  142.0010   78.2660  219.1710 C   0  0  0  0  0  0  0  0  0  0  0  0
  142.2070   78.5910  217.8220 C   0  0  0  0  0  0  0  0  0  0  0  0
  142.9510   77.8000  216.9830 C   0  0  0  0  0  0  0  0  0  0  0  0
  143.5410   76.6350  217.4250 C   0  0  0  0  0  0  0  0  0  0  0  0
  144.4750   75.6680  216.3210 Cl  0  0  0  0  0  0  0  0  0  0  0  0
  143.3550   76.2930  218.7460 C   0  0  0  0  0  0  0  0  0  0  0  0
  142.5990   77.1010  219.5910 C   0  0  0  0  0  0  0  0  0  0  0  0
  141.3290   73.4930  221.2820 C   0  0  0  0  0  0  0  0  0  0  0  0
  140.8590   72.2090  221.0420 C   0  0  0  0  0  0  0  0  0  0  0  0
  141.7050   71.2520  220.4780 C   0  0  0  0  0  0  0  0  0  0  0  0
  143.0040   71.5830  220.1590 C   0  0  0  0  0  0  0  0  0  0  0  0
  143.8880   70.6710  219.5950 C   0  0  0  0  0  0  0  0  0  0  0  0
  145.1720   71.1030  219.3130 C   0  0  0  0  0  0  0  0  0  0  0  0
  146.3350   70.0050  218.6010 Cl  0  0  0  0  0  0  0  0  0  0  0  0
  145.5890   72.3900  219.5710 C   0  0  0  0  0  0  0  0  0  0  0  0
  144.7100   73.3080  220.1340 C   0  0  0  0  0  0  0  0  0  0  0  0
  143.4350   72.8690  220.4120 C   0  0  0  0  0  0  0  0  0  0  0  0
  142.5960   73.7840  220.9620 N   0  0  0  0  0  0  0  0  0  0  0  0
  141.9000   76.0450  221.7620 H   0  0  0  0  0  0  0  0  0  0  0  0
  139.0301   76.4051  222.7730 H   0  0  0  0  0  0  0  0  0  0  0  0
  140.4233   77.1303  223.6314 H   0  0  0  0  0  0  0  0  0  0  0  0
  141.4936   78.4638  223.4112 H   0  0  0  0  0  0  0  0  0  0  0  0
  142.9619   78.6832  222.2730 H   0  0  0  0  0  0  0  0  0  0  0  0
  141.3530   80.6315  223.7399 H   0  0  0  0  0  0  0  0  0  0  0  0
  143.1838   80.3769  223.4806 H   0  0  0  0  0  0  0  0  0  0  0  0
  142.1616   82.4502  222.5531 H   0  0  0  0  0  0  0  0  0  0  0  0
  143.1730   81.3860  221.4836 H   0  0  0  0  0  0  0  0  0  0  0  0
  140.2425   80.8559  221.4797 H   0  0  0  0  0  0  0  0  0  0  0  0
  140.7401   82.3829  220.7378 H   0  0  0  0  0  0  0  0  0  0  0  0
  141.2637   81.0167  218.9156 H   0  0  0  0  0  0  0  0  0  0  0  0
  142.7540   80.6804  219.8179 H   0  0  0  0  0  0  0  0  0  0  0  0
  140.1583   79.0341  219.7068 H   0  0  0  0  0  0  0  0  0  0  0  0
  141.7566   79.5118  217.4229 H   0  0  0  0  0  0  0  0  0  0  0  0
  143.0796   78.1025  215.9333 H   0  0  0  0  0  0  0  0  0  0  0  0
  143.8089   75.3709  219.1380 H   0  0  0  0  0  0  0  0  0  0  0  0
  142.4746   76.7942  220.6400 H   0  0  0  0  0  0  0  0  0  0  0  0
  139.8215   71.9459  221.2958 H   0  0  0  0  0  0  0  0  0  0  0  0
  141.3345   70.2338  220.2883 H   0  0  0  0  0  0  0  0  0  0  0  0
  143.5768   69.6382  219.3795 H   0  0  0  0  0  0  0  0  0  0  0  0
  146.6192   72.6919  219.3312 H   0  0  0  0  0  0  0  0  0  0  0  0
  145.0200   74.3414  220.3483 H   0  0  0  0  0  0  0  0  0  0  0  0
  1  2  2  0
  2  3  1  0
  3  4  1  0
  4  5  1  0
  5  6  2  0
  5  7  1  0
  7  8  1  0
  8  9  1  0
  9 10  1  0
 10 11  1  0
 11 12  1  0
 12 13  1  0
 13 14  1  0
 14 15  2  0
 15 16  1  0
 16 17  2  0
 17 18  1  0
 17 19  1  0
 19 20  2  0
  2 21  1  0
 21 22  2  0
 22 23  1  0
 23 24  2  0
 24 25  1  0
 25 26  2  0
 26 27  1  0
 26 28  1  0
 28 29  2  0
 29 30  1  0
 30 31  2  0
 13  7  1  0
 20 14  1  0
 31 21  1  0
 30 24  1  0
  3 32  1  0
  4 33  1  0
  4 34  1  0
  8 35  1  0
  8 36  1  0
  9 37  1  0
  9 38  1  0
 10 39  1  0
 10 40  1  0
 11 41  1  0
 11 42  1  0
 12 43  1  0
 12 44  1  0
 13 45  1  6
 15 46  1  0
 16 47  1  0
 19 48  1  0
 20 49  1  0
 22 50  1  0
 23 51  1  0
 25 52  1  0
 28 53  1  0
 29 54  1  0
M  END
>  <smiles>  (78) 
O=C(NCC(=O)N1CCCCCC1c1ccc(Cl)cc1)c1ccc2cc(Cl)ccc2n1

>  <score_type>  (78) 
oracle

>  <origin>  (78) 
autodockgpu

>  <m_score__min__energy>  (78) 
-7.21

>  <m_primary>  (78) 
energy

>  <rmsd>  (78) 
6.0267440956975316

>  <m_score__min__rmsd>  (78) 
6.0267440956975316

>  <meeko>  (78) 
{"free_energy": -4.93, "intermolecular_energy": -8.21, "internal_energy": -2.63, "cluster_size": 3, "cluster_id": 8, "rank_in_cluster": 1}

>  <energy>  (78) 
-5.93

>  <cluster_rmsd>  (78) 
1.27

>  <cluster>  (78) 
3

$$$$

     RDKit          3D

 54 57  0  0  0  0  0  0  0  0999 V2000
  133.1640   69.8450  226.5670 O   0  0  0  0  0  0  0  0  0  0  0  0
  133.7420   70.9250  226.2380 C   0  0  0  0  0  0  0  0  0  0  0  0
  134.9370   70.9520  225.4670 N   0  0  0  0  0  0  0  0  0  0  0  0
  135.5220   69.6800  225.0360 C   0  0  0  0  0  0  0  0  0  0  0  0
  136.5470   69.9560  224.0080 C   0  0  0  0  0  0  0  0  0  0  0  0
  137.0260   71.1120  223.8830 O   0  0  0  0  0  0  0  0  0  0  0  0
  137.0490   68.9370  223.1040 N   0  0  0  0  0  0  0  0  0  0  0  0
  136.0770   68.6110  222.1020 C   0  0  0  0  0  0  0  0  0  0  0  0
  136.4110   68.8290  220.6900 C   0  0  0  0  0  0  0  0  0  0  0  0
  137.8450   68.8150  220.2900 C   0  0  0  0  0  0  0  0  0  0  0  0
  138.7100   69.5870  221.2520 C   0  0  0  0  0  0  0  0  0  0  0  0
  139.2940   68.5500  222.2070 C   0  0  0  0  0  0  0  0  0  0  0  0
  138.3710   68.5190  223.4340 C   0  0  1  0  0  0  0  0  0  0  0  0
  139.0120   69.2380  224.5590 C   0  0  0  0  0  0  0  0  0  0  0  0
  139.7670   70.3960  224.3220 C   0  0  0  0  0  0  0  0  0  0  0  0
  140.3690   71.0990  225.3370 C   0  0  0  0  0  0  0  0  0  0  0  0
  140.2640   70.6990  226.6520 C   0  0  0  0  0  0  0  0  0  0  0  0
  141.0460   71.6250  227.9000 Cl  0  0  0  0  0  0  0  0  0  0  0  0
  139.5280   69.5650  226.9110 C   0  0  0  0  0  0  0  0  0  0  0  0
  138.9190   68.8580  225.8770 C   0  0  0  0  0  0  0  0  0  0  0  0
  133.1660   72.2150  226.6650 C   0  0  0  0  0  0  0  0  0  0  0  0
  131.9470   72.2310  227.3290 C   0  0  0  0  0  0  0  0  0  0  0  0
  131.3930   73.4450  227.7360 C   0  0  0  0  0  0  0  0  0  0  0  0
  132.0560   74.6260  227.4800 C   0  0  0  0  0  0  0  0  0  0  0  0
  131.5500   75.8630  227.8630 C   0  0  0  0  0  0  0  0  0  0  0  0
  132.2940   76.9890  227.5570 C   0  0  0  0  0  0  0  0  0  0  0  0
  131.7150   78.5770  228.0130 Cl  0  0  0  0  0  0  0  0  0  0  0  0
  133.5000   76.9190  226.8960 C   0  0  0  0  0  0  0  0  0  0  0  0
  134.0120   75.6850  226.5100 C   0  0  0  0  0  0  0  0  0  0  0  0
  133.2650   74.5700  226.8180 C   0  0  0  0  0  0  0  0  0  0  0  0
  133.7860   73.3770  226.4300 N   0  0  0  0  0  0  0  0  0  0  0  0
  135.3730   71.8700  225.2230 H   0  0  0  0  0  0  0  0  0  0  0  0
  135.9864   69.1755  225.8961 H   0  0  0  0  0  0  0  0  0  0  0  0
  134.7393   69.0284  224.6204 H   0  0  0  0  0  0  0  0  0  0  0  0
  135.8418   67.5425  222.2165 H   0  0  0  0  0  0  0  0  0  0  0  0
  135.2556   69.3178  222.2912 H   0  0  0  0  0  0  0  0  0  0  0  0
  135.9045   68.0427  220.1111 H   0  0  0  0  0  0  0  0  0  0  0  0
  136.0858   69.8610  220.4921 H   0  0  0  0  0  0  0  0  0  0  0  0
  138.1939   67.7723  220.2577 H   0  0  0  0  0  0  0  0  0  0  0  0
  137.9257   69.2940  219.3031 H   0  0  0  0  0  0  0  0  0  0  0  0
  139.5149   70.1067  220.7116 H   0  0  0  0  0  0  0  0  0  0  0  0
  138.1338   70.3544  221.7896 H   0  0  0  0  0  0  0  0  0  0  0  0
  139.3193   67.5614  221.7253 H   0  0  0  0  0  0  0  0  0  0  0  0
  140.3252   68.8069  222.4911 H   0  0  0  0  0  0  0  0  0  0  0  0
  138.2335   67.4854  223.7845 H   0  0  0  0  0  0  0  0  0  0  0  0
  139.8809   70.7535  223.2880 H   0  0  0  0  0  0  0  0  0  0  0  0
  140.9484   72.0022  225.0949 H   0  0  0  0  0  0  0  0  0  0  0  0
  139.4195   69.2128  227.9474 H   0  0  0  0  0  0  0  0  0  0  0  0
  138.3388   67.9571  226.1255 H   0  0  0  0  0  0  0  0  0  0  0  0
  131.4188   71.2881  227.5339 H   0  0  0  0  0  0  0  0  0  0  0  0
  130.4267   73.4597  228.2614 H   0  0  0  0  0  0  0  0  0  0  0  0
  130.5891   75.9441  228.3923 H   0  0  0  0  0  0  0  0  0  0  0  0
  134.0588   77.8399  226.6731 H   0  0  0  0  0  0  0  0  0  0  0  0
  134.9730   75.6031  225.9810 H   0  0  0  0  0  0  0  0  0  0  0  0
  1  2  2  0
  2  3  1  0
  3  4  1  0
  4  5  1  0
  5  6  2  0
  5  7  1  0
  7  8  1  0
  8  9  1  0
  9 10  1  0
 10 11  1  0
 11 12  1  0
 12 13  1  0
 13 14  1  0
 14 15  2  0
 15 16  1  0
 16 17  2  0
 17 18  1  0
 17 19  1  0
 19 20  2  0
  2 21  1  0
 21 22  2  0
 22 23  1  0
 23 24  2  0
 24 25  1  0
 25 26  2  0
 26 27  1  0
 26 28  1  0
 28 29  2  0
 29 30  1  0
 30 31  2  0
 13  7  1  0
 20 14  1  0
 31 21  1  0
 30 24  1  0
  3 32  1  0
  4 33  1  0
  4 34  1  0
  8 35  1  0
  8 36  1  0
  9 37  1  0
  9 38  1  0
 10 39  1  0
 10 40  1  0
 11 41  1  0
 11 42  1  0
 12 43  1  0
 12 44  1  0
 13 45  1  1
 15 46  1  0
 16 47  1  0
 19 48  1  0
 20 49  1  0
 22 50  1  0
 23 51  1  0
 25 52  1  0
 28 53  1  0
 29 54  1  0
M  END
>  <smiles>  (79) 
O=C(NCC(=O)N1CCCCCC1c1ccc(Cl)cc1)c1ccc2cc(Cl)ccc2n1

>  <score_type>  (79) 
oracle

>  <origin>  (79) 
autodockgpu

>  <m_score__min__energy>  (79) 
-7.21

>  <m_primary>  (79) 
energy

>  <rmsd>  (79) 
8.655705725287355

>  <m_score__min__rmsd>  (79) 
8.655705725287355

>  <meeko>  (79) 
{"free_energy": -6.2, "intermolecular_energy": -9.48, "internal_energy": -2.28, "cluster_size": 6, "cluster_id": 4, "rank_in_cluster": 3}

>  <energy>  (79) 
-5.71

>  <cluster_rmsd>  (79) 
1.2

>  <cluster>  (79) 
3

$$$$

     RDKit          3D

 54 57  0  0  0  0  0  0  0  0999 V2000
  139.6200   74.7210  222.0220 O   0  0  0  0  0  0  0  0  0  0  0  0
  140.8280   74.9270  221.6980 C   0  0  0  0  0  0  0  0  0  0  0  0
  141.4440   76.2060  221.8010 N   0  0  0  0  0  0  0  0  0  0  0  0
  140.6480   77.3280  222.3040 C   0  0  0  0  0  0  0  0  0  0  0  0
  141.2460   78.5870  221.8140 C   0  0  0  0  0  0  0  0  0  0  0  0
  142.4940   78.7260  221.7790 O   0  0  0  0  0  0  0  0  0  0  0  0
  140.4480   79.7100  221.3560 N   0  0  0  0  0  0  0  0  0  0  0  0
  140.1180   80.5860  222.4410 C   0  0  0  0  0  0  0  0  0  0  0  0
  140.5930   81.9740  222.4040 C   0  0  0  0  0  0  0  0  0  0  0  0
  140.7630   82.6310  221.0790 C   0  0  0  0  0  0  0  0  0  0  0  0
  141.4810   81.7450  220.0950 C   0  0  0  0  0  0  0  0  0  0  0  0
  140.3880   81.0390  219.3000 C   0  0  0  0  0  0  0  0  0  0  0  0
  140.1940   79.6620  219.9540 C   0  0  1  0  0  0  0  0  0  0  0  0
  140.9520   78.6400  219.1960 C   0  0  0  0  0  0  0  0  0  0  0  0
  142.2140   78.9410  218.6650 C   0  0  0  0  0  0  0  0  0  0  0  0
  142.9540   78.0190  217.9660 C   0  0  0  0  0  0  0  0  0  0  0  0
  142.4910   76.7390  217.7470 C   0  0  0  0  0  0  0  0  0  0  0  0
  143.4670   75.6090  216.8550 Cl  0  0  0  0  0  0  0  0  0  0  0  0
  141.2540   76.4180  218.2600 C   0  0  0  0  0  0  0  0  0  0  0  0
  140.5090   77.3580  218.9680 C   0  0  0  0  0  0  0  0  0  0  0  0
  141.6430   73.8080  221.1890 C   0  0  0  0  0  0  0  0  0  0  0  0
  141.0660   72.5530  221.0470 C   0  0  0  0  0  0  0  0  0  0  0  0
  141.8280   71.4860  220.5680 C   0  0  0  0  0  0  0  0  0  0  0  0
  143.1520   71.6800  220.2350 C   0  0  0  0  0  0  0  0  0  0  0  0
  143.9570   70.6540  219.7530 C   0  0  0  0  0  0  0  0  0  0  0  0
  145.2730   70.9520  219.4490 C   0  0  0  0  0  0  0  0  0  0  0  0
  146.3400   69.7060  218.8370 Cl  0  0  0  0  0  0  0  0  0  0  0  0
  145.7980   72.2150  219.6080 C   0  0  0  0  0  0  0  0  0  0  0  0
  144.9990   73.2470  220.0890 C   0  0  0  0  0  0  0  0  0  0  0  0
  143.6900   72.9400  220.3890 C   0  0  0  0  0  0  0  0  0  0  0  0
  142.9310   73.9640  220.8580 N   0  0  0  0  0  0  0  0  0  0  0  0
  142.4440   76.3210  221.5210 H   0  0  0  0  0  0  0  0  0  0  0  0
  139.6140   77.2420  221.9387 H   0  0  0  0  0  0  0  0  0  0  0  0
  140.6390   77.3193  223.4039 H   0  0  0  0  0  0  0  0  0  0  0  0
  139.0204   80.6224  222.5036 H   0  0  0  0  0  0  0  0  0  0  0  0
  140.6450   80.1495  223.3023 H   0  0  0  0  0  0  0  0  0  0  0  0
  139.8743   82.5787  222.9766 H   0  0  0  0  0  0  0  0  0  0  0  0
  141.6134   81.9206  222.8112 H   0  0  0  0  0  0  0  0  0  0  0  0
  139.7699   82.8774  220.6753 H   0  0  0  0  0  0  0  0  0  0  0  0
  141.3704   83.5364  221.2254 H   0  0  0  0  0  0  0  0  0  0  0  0
  142.1128   82.3480  219.4262 H   0  0  0  0  0  0  0  0  0  0  0  0
  142.1414   81.0267  220.6028 H   0  0  0  0  0  0  0  0  0  0  0  0
  139.4526   81.6161  219.3444 H   0  0  0  0  0  0  0  0  0  0  0  0
  140.6668   80.9407  218.2405 H   0  0  0  0  0  0  0  0  0  0  0  0
  139.1401   79.3525  219.8945 H   0  0  0  0  0  0  0  0  0  0  0  0
  142.6257   79.9502  218.8132 H   0  0  0  0  0  0  0  0  0  0  0  0
  143.9392   78.3086  217.5717 H   0  0  0  0  0  0  0  0  0  0  0  0
  140.8492   75.4065  218.1087 H   0  0  0  0  0  0  0  0  0  0  0  0
  139.5251   77.0627  219.3613 H   0  0  0  0  0  0  0  0  0  0  0  0
  140.0094   72.3998  221.3117 H   0  0  0  0  0  0  0  0  0  0  0  0
  141.3726   70.4910  220.4562 H   0  0  0  0  0  0  0  0  0  0  0  0
  143.5598   69.6372  219.6177 H   0  0  0  0  0  0  0  0  0  0  0  0
  146.8508   72.4081  219.3543 H   0  0  0  0  0  0  0  0  0  0  0  0
  145.3952   74.2642  220.2240 H   0  0  0  0  0  0  0  0  0  0  0  0
  1  2  2  0
  2  3  1  0
  3  4  1  0
  4  5  1  0
  5  6  2  0
  5  7  1  0
  7  8  1  0
  8  9  1  0
  9 10  1  0
 10 11  1  0
 11 12  1  0
 12 13  1  0
 13 14  1  0
 14 15  2  0
 15 16  1  0
 16 17  2  0
 17 18  1  0
 17 19  1  0
 19 20  2  0
  2 21  1  0
 21 22  2  0
 22 23  1  0
 23 24  2  0
 24 25  1  0
 25 26  2  0
 26 27  1  0
 26 28  1  0
 28 29  2  0
 29 30  1  0
 30 31  2  0
 13  7  1  0
 20 14  1  0
 31 21  1  0
 30 24  1  0
  3 32  1  0
  4 33  1  0
  4 34  1  0
  8 35  1  0
  8 36  1  0
  9 37  1  0
  9 38  1  0
 10 39  1  0
 10 40  1  0
 11 41  1  0
 11 42  1  0
 12 43  1  0
 12 44  1  0
 13 45  1  1
 15 46  1  0
 16 47  1  0
 19 48  1  0
 20 49  1  0
 22 50  1  0
 23 51  1  0
 25 52  1  0
 28 53  1  0
 29 54  1  0
M  END
>  <smiles>  (80) 
O=C(NCC(=O)N1CCCCCC1c1ccc(Cl)cc1)c1ccc2cc(Cl)ccc2n1

>  <score_type>  (80) 
oracle

>  <origin>  (80) 
autodockgpu

>  <m_score__min__energy>  (80) 
-7.21

>  <m_primary>  (80) 
energy

>  <rmsd>  (80) 
6.3086249553727605

>  <m_score__min__rmsd>  (80) 
6.3086249553727605

>  <meeko>  (80) 
{"free_energy": -4.45, "intermolecular_energy": -7.73, "internal_energy": -2.98, "cluster_size": 3, "cluster_id": 8, "rank_in_cluster": 2}

>  <energy>  (80) 
-5.5

>  <cluster_rmsd>  (80) 
2.0

>  <cluster>  (80) 
3

$$$$

     RDKit          3D

 54 57  0  0  0  0  0  0  0  0999 V2000
  133.5840   69.8240  226.6270 O   0  0  0  0  0  0  0  0  0  0  0  0
  133.9920   70.9330  226.1710 C   0  0  0  0  0  0  0  0  0  0  0  0
  135.0680   71.0350  225.2450 N   0  0  0  0  0  0  0  0  0  0  0  0
  135.7300   69.8050  224.8030 C   0  0  0  0  0  0  0  0  0  0  0  0
  136.6750   70.1420  223.7180 C   0  0  0  0  0  0  0  0  0  0  0  0
  137.0450   71.3300  223.5440 O   0  0  0  0  0  0  0  0  0  0  0  0
  137.2170   69.1460  222.8110 N   0  0  0  0  0  0  0  0  0  0  0  0
  136.3220   68.8990  221.7190 C   0  0  0  0  0  0  0  0  0  0  0  0
  136.8350   68.2360  220.5150 C   0  0  0  0  0  0  0  0  0  0  0  0
  138.2050   68.5790  220.0460 C   0  0  0  0  0  0  0  0  0  0  0  0
  138.8990   69.5400  220.9750 C   0  0  0  0  0  0  0  0  0  0  0  0
  139.5050   68.6850  222.0730 C   0  0  0  0  0  0  0  0  0  0  0  0
  138.4930   68.6670  223.2280 C   0  0  1  0  0  0  0  0  0  0  0  0
  139.0770   69.3370  224.4130 C   0  0  0  0  0  0  0  0  0  0  0  0
  139.8290   70.5120  224.2660 C   0  0  0  0  0  0  0  0  0  0  0  0
  140.3780   71.1690  225.3380 C   0  0  0  0  0  0  0  0  0  0  0  0
  140.2200   70.7060  226.6270 C   0  0  0  0  0  0  0  0  0  0  0  0
  140.9380   71.5770  227.9510 Cl  0  0  0  0  0  0  0  0  0  0  0  0
  139.4860   69.5540  226.7980 C   0  0  0  0  0  0  0  0  0  0  0  0
  138.9310   68.8920  225.7060 C   0  0  0  0  0  0  0  0  0  0  0  0
  133.3360   72.1820  226.6060 C   0  0  0  0  0  0  0  0  0  0  0  0
  132.1020   72.1190  227.2380 C   0  0  0  0  0  0  0  0  0  0  0  0
  131.4720   73.2930  227.6540 C   0  0  0  0  0  0  0  0  0  0  0  0
  132.0760   74.5130  227.4370 C   0  0  0  0  0  0  0  0  0  0  0  0
  131.4950   75.7130  227.8300 C   0  0  0  0  0  0  0  0  0  0  0  0
  132.1840   76.8830  227.5650 C   0  0  0  0  0  0  0  0  0  0  0  0
  131.5080   78.4290  228.0340 Cl  0  0  0  0  0  0  0  0  0  0  0  0
  133.4070   76.8920  226.9340 C   0  0  0  0  0  0  0  0  0  0  0  0
  133.9960   75.6950  226.5390 C   0  0  0  0  0  0  0  0  0  0  0  0
  133.3030   74.5360  226.8060 C   0  0  0  0  0  0  0  0  0  0  0  0
  133.8980   73.3810  226.4090 N   0  0  0  0  0  0  0  0  0  0  0  0
  135.3650   71.9750  224.9000 H   0  0  0  0  0  0  0  0  0  0  0  0
  136.2772   69.3556  225.6448 H   0  0  0  0  0  0  0  0  0  0  0  0
  134.9818   69.0852  224.4396 H   0  0  0  0  0  0  0  0  0  0  0  0
  135.5043   68.2742  222.1074 H   0  0  0  0  0  0  0  0  0  0  0  0
  136.0481   69.9054  221.3696 H   0  0  0  0  0  0  0  0  0  0  0  0
  136.8194   67.1533  220.7086 H   0  0  0  0  0  0  0  0  0  0  0  0
  136.1767   68.5929  219.7092 H   0  0  0  0  0  0  0  0  0  0  0  0
  138.7995   67.6556  219.9824 H   0  0  0  0  0  0  0  0  0  0  0  0
  138.1144   69.0645  219.0631 H   0  0  0  0  0  0  0  0  0  0  0  0
  139.6862   70.0906  220.4391 H   0  0  0  0  0  0  0  0  0  0  0  0
  138.2015   70.2874  221.3809 H   0  0  0  0  0  0  0  0  0  0  0  0
  139.6787   67.6629  221.7053 H   0  0  0  0  0  0  0  0  0  0  0  0
  140.4731   69.0910  222.4016 H   0  0  0  0  0  0  0  0  0  0  0  0
  138.2889   67.6333  223.5441 H   0  0  0  0  0  0  0  0  0  0  0  0
  139.9838   70.9207  223.2565 H   0  0  0  0  0  0  0  0  0  0  0  0
  140.9583   72.0873  225.1649 H   0  0  0  0  0  0  0  0  0  0  0  0
  139.3360   69.1512  227.8106 H   0  0  0  0  0  0  0  0  0  0  0  0
  138.3514   67.9744  225.8851 H   0  0  0  0  0  0  0  0  0  0  0  0
  131.6210   71.1450  227.4109 H   0  0  0  0  0  0  0  0  0  0  0  0
  130.4938   73.2447  228.1549 H   0  0  0  0  0  0  0  0  0  0  0  0
  130.5183   75.7318  228.3357 H   0  0  0  0  0  0  0  0  0  0  0  0
  133.9192   77.8463  226.7418 H   0  0  0  0  0  0  0  0  0  0  0  0
  134.9735   75.6756  226.0350 H   0  0  0  0  0  0  0  0  0  0  0  0
  1  2  2  0
  2  3  1  0
  3  4  1  0
  4  5  1  0
  5  6  2  0
  5  7  1  0
  7  8  1  0
  8  9  1  0
  9 10  1  0
 10 11  1  0
 11 12  1  0
 12 13  1  0
 13 14  1  0
 14 15  2  0
 15 16  1  0
 16 17  2  0
 17 18  1  0
 17 19  1  0
 19 20  2  0
  2 21  1  0
 21 22  2  0
 22 23  1  0
 23 24  2  0
 24 25  1  0
 25 26  2  0
 26 27  1  0
 26 28  1  0
 28 29  2  0
 29 30  1  0
 30 31  2  0
 13  7  1  0
 20 14  1  0
 31 21  1  0
 30 24  1  0
  3 32  1  0
  4 33  1  0
  4 34  1  0
  8 35  1  0
  8 36  1  0
  9 37  1  0
  9 38  1  0
 10 39  1  0
 10 40  1  0
 11 41  1  0
 11 42  1  0
 12 43  1  0
 12 44  1  0
 13 45  1  1
 15 46  1  0
 16 47  1  0
 19 48  1  0
 20 49  1  0
 22 50  1  0
 23 51  1  0
 25 52  1  0
 28 53  1  0
 29 54  1  0
M  END
>  <smiles>  (81) 
O=C(NCC(=O)N1CCCCCC1c1ccc(Cl)cc1)c1ccc2cc(Cl)ccc2n1

>  <score_type>  (81) 
oracle

>  <origin>  (81) 
autodockgpu

>  <m_score__min__energy>  (81) 
-7.21

>  <m_primary>  (81) 
energy

>  <rmsd>  (81) 
8.501774276894018

>  <m_score__min__rmsd>  (81) 
8.501774276894018

>  <meeko>  (81) 
{"free_energy": -5.49, "intermolecular_energy": -8.77, "internal_energy": -2.34, "cluster_size": 6, "cluster_id": 4, "rank_in_cluster": 6}

>  <energy>  (81) 
-6.41

>  <cluster_rmsd>  (81) 
0.0

>  <cluster>  (81) 
4

$$$$

     RDKit          3D

 54 57  0  0  0  0  0  0  0  0999 V2000
  136.8860   78.6600  220.7780 O   0  0  0  0  0  0  0  0  0  0  0  0
  137.4790   79.4720  221.5500 C   0  0  0  0  0  0  0  0  0  0  0  0
  138.7490   80.0360  221.2440 N   0  0  0  0  0  0  0  0  0  0  0  0
  139.3950   79.6630  219.9840 C   0  0  0  0  0  0  0  0  0  0  0  0
  140.7280   79.1010  220.2860 C   0  0  0  0  0  0  0  0  0  0  0  0
  141.2370   78.2320  219.5330 O   0  0  0  0  0  0  0  0  0  0  0  0
  141.5090   79.5070  221.4400 N   0  0  0  0  0  0  0  0  0  0  0  0
  141.9390   80.8690  221.3200 C   0  0  0  0  0  0  0  0  0  0  0  0
  141.5850   81.8220  222.3780 C   0  0  0  0  0  0  0  0  0  0  0  0
  141.7650   81.4070  223.7960 C   0  0  0  0  0  0  0  0  0  0  0  0
  142.5760   80.1440  223.9190 C   0  0  0  0  0  0  0  0  0  0  0  0
  141.5770   78.9980  223.8340 C   0  0  0  0  0  0  0  0  0  0  0  0
  141.6520   78.4600  222.3970 C   0  0  1  0  0  0  0  0  0  0  0  0
  140.7240   77.3160  222.2430 C   0  0  0  0  0  0  0  0  0  0  0  0
  139.4180   77.3880  222.7490 C   0  0  0  0  0  0  0  0  0  0  0  0
  138.5230   76.3550  222.6180 C   0  0  0  0  0  0  0  0  0  0  0  0
  138.8640   75.1820  221.9790 C   0  0  0  0  0  0  0  0  0  0  0  0
  137.6930   73.9030  221.8410 Cl  0  0  0  0  0  0  0  0  0  0  0  0
  140.1410   75.0860  221.4740 C   0  0  0  0  0  0  0  0  0  0  0  0
  141.0430   76.1380  221.6090 C   0  0  0  0  0  0  0  0  0  0  0  0
  136.8420   79.8580  222.8240 C   0  0  0  0  0  0  0  0  0  0  0  0
  135.5640   79.3990  223.1140 C   0  0  0  0  0  0  0  0  0  0  0  0
  134.9510   79.7580  224.3150 C   0  0  0  0  0  0  0  0  0  0  0  0
  135.6150   80.5660  225.2130 C   0  0  0  0  0  0  0  0  0  0  0  0
  135.0520   80.9550  226.4230 C   0  0  0  0  0  0  0  0  0  0  0  0
  135.8020   81.7690  227.2530 C   0  0  0  0  0  0  0  0  0  0  0  0
  135.1530   82.2930  228.7930 Cl  0  0  0  0  0  0  0  0  0  0  0  0
  137.0670   82.1970  226.9190 C   0  0  0  0  0  0  0  0  0  0  0  0
  137.6360   81.8130  225.7100 C   0  0  0  0  0  0  0  0  0  0  0  0
  136.8830   81.0030  224.8900 C   0  0  0  0  0  0  0  0  0  0  0  0
  137.4610   80.6420  223.7150 N   0  0  0  0  0  0  0  0  0  0  0  0
  139.1940   80.7010  221.9160 H   0  0  0  0  0  0  0  0  0  0  0  0
  138.7848   78.9103  219.4633 H   0  0  0  0  0  0  0  0  0  0  0  0
  139.4976   80.5474  219.3380 H   0  0  0  0  0  0  0  0  0  0  0  0
  143.0368   80.8558  221.2521 H   0  0  0  0  0  0  0  0  0  0  0  0
  141.3968   81.2403  220.4379 H   0  0  0  0  0  0  0  0  0  0  0  0
  142.1978   82.7222  222.2227 H   0  0  0  0  0  0  0  0  0  0  0  0
  140.4980   81.9520  222.2711 H   0  0  0  0  0  0  0  0  0  0  0  0
  142.2801   82.2133  224.3387 H   0  0  0  0  0  0  0  0  0  0  0  0
  140.7691   81.2123  224.2206 H   0  0  0  0  0  0  0  0  0  0  0  0
  143.3064   80.0767  223.0993 H   0  0  0  0  0  0  0  0  0  0  0  0
  143.1425   80.1174  224.8615 H   0  0  0  0  0  0  0  0  0  0  0  0
  141.8440   78.2071  224.5503 H   0  0  0  0  0  0  0  0  0  0  0  0
  140.5599   79.3378  224.0791 H   0  0  0  0  0  0  0  0  0  0  0  0
  142.6542   78.0566  222.1901 H   0  0  0  0  0  0  0  0  0  0  0  0
  139.0997   78.3037  223.2688 H   0  0  0  0  0  0  0  0  0  0  0  0
  137.5102   76.4660  223.0326 H   0  0  0  0  0  0  0  0  0  0  0  0
  140.4528   74.1664  220.9572 H   0  0  0  0  0  0  0  0  0  0  0  0
  142.0538   76.0220  221.1908 H   0  0  0  0  0  0  0  0  0  0  0  0
  135.0353   78.7530  222.3976 H   0  0  0  0  0  0  0  0  0  0  0  0
  133.9380   79.3963  224.5452 H   0  0  0  0  0  0  0  0  0  0  0  0
  134.0427   80.6262  226.7113 H   0  0  0  0  0  0  0  0  0  0  0  0
  137.6283   82.8436  227.6095 H   0  0  0  0  0  0  0  0  0  0  0  0
  138.6449   82.1423  225.4209 H   0  0  0  0  0  0  0  0  0  0  0  0
  1  2  2  0
  2  3  1  0
  3  4  1  0
  4  5  1  0
  5  6  2  0
  5  7  1  0
  7  8  1  0
  8  9  1  0
  9 10  1  0
 10 11  1  0
 11 12  1  0
 12 13  1  0
 13 14  1  0
 14 15  2  0
 15 16  1  0
 16 17  2  0
 17 18  1  0
 17 19  1  0
 19 20  2  0
  2 21  1  0
 21 22  2  0
 22 23  1  0
 23 24  2  0
 24 25  1  0
 25 26  2  0
 26 27  1  0
 26 28  1  0
 28 29  2  0
 29 30  1  0
 30 31  2  0
 13  7  1  0
 20 14  1  0
 31 21  1  0
 30 24  1  0
  3 32  1  0
  4 33  1  0
  4 34  1  0
  8 35  1  0
  8 36  1  0
  9 37  1  0
  9 38  1  0
 10 39  1  0
 10 40  1  0
 11 41  1  0
 11 42  1  0
 12 43  1  0
 12 44  1  0
 13 45  1  1
 15 46  1  0
 16 47  1  0
 19 48  1  0
 20 49  1  0
 22 50  1  0
 23 51  1  0
 25 52  1  0
 28 53  1  0
 29 54  1  0
M  END
>  <smiles>  (82) 
O=C(NCC(=O)N1CCCCCC1c1ccc(Cl)cc1)c1ccc2cc(Cl)ccc2n1

>  <score_type>  (82) 
oracle

>  <origin>  (82) 
autodockgpu

>  <m_score__min__energy>  (82) 
-7.21

>  <m_primary>  (82) 
energy

>  <rmsd>  (82) 
9.080497121751943

>  <m_score__min__rmsd>  (82) 
9.080497121751943

>  <meeko>  (82) 
{"free_energy": -4.81, "intermolecular_energy": -8.09, "internal_energy": -2.86, "cluster_size": 1, "cluster_id": 9, "rank_in_cluster": 1}

>  <energy>  (82) 
-6.33

>  <cluster_rmsd>  (82) 
0.31

>  <cluster>  (82) 
4

$$$$

     RDKit          3D

 54 57  0  0  0  0  0  0  0  0999 V2000
  133.5670   69.7400  226.7240 O   0  0  0  0  0  0  0  0  0  0  0  0
  134.0040   70.8460  226.2840 C   0  0  0  0  0  0  0  0  0  0  0  0
  135.1230   70.9370  225.4110 N   0  0  0  0  0  0  0  0  0  0  0  0
  135.7960   69.7010  225.0040 C   0  0  0  0  0  0  0  0  0  0  0  0
  136.7400   70.0160  223.9110 C   0  0  0  0  0  0  0  0  0  0  0  0
  137.1010   71.2020  223.7050 O   0  0  0  0  0  0  0  0  0  0  0  0
  137.2900   69.0000  223.0310 N   0  0  0  0  0  0  0  0  0  0  0  0
  136.2900   68.4920  222.1390 C   0  0  0  0  0  0  0  0  0  0  0  0
  136.5890   68.4170  220.7040 C   0  0  0  0  0  0  0  0  0  0  0  0
  137.9220   68.8830  220.2320 C   0  0  0  0  0  0  0  0  0  0  0  0
  139.0510   68.1620  220.9190 C   0  0  0  0  0  0  0  0  0  0  0  0
  139.5240   69.0950  222.0330 C   0  0  0  0  0  0  0  0  0  0  0  0
  138.6760   68.7660  223.2710 C   0  0  1  0  0  0  0  0  0  0  0  0
  139.2470   69.4370  224.4610 C   0  0  0  0  0  0  0  0  0  0  0  0
  139.9370   70.6510  224.3270 C   0  0  0  0  0  0  0  0  0  0  0  0
  140.4730   71.3110  225.4050 C   0  0  0  0  0  0  0  0  0  0  0  0
  140.3600   70.8130  226.6860 C   0  0  0  0  0  0  0  0  0  0  0  0
  141.0570   71.6890  228.0170 Cl  0  0  0  0  0  0  0  0  0  0  0  0
  139.6860   69.6230  226.8430 C   0  0  0  0  0  0  0  0  0  0  0  0
  139.1450   68.9580  225.7460 C   0  0  0  0  0  0  0  0  0  0  0  0
  133.3380   72.1000  226.6850 C   0  0  0  0  0  0  0  0  0  0  0  0
  132.0860   72.0460  227.2850 C   0  0  0  0  0  0  0  0  0  0  0  0
  131.4470   73.2260  227.6670 C   0  0  0  0  0  0  0  0  0  0  0  0
  132.0570   74.4430  227.4510 C   0  0  0  0  0  0  0  0  0  0  0  0
  131.4660   75.6480  227.8120 C   0  0  0  0  0  0  0  0  0  0  0  0
  132.1630   76.8140  227.5500 C   0  0  0  0  0  0  0  0  0  0  0  0
  131.4760   78.3660  227.9810 Cl  0  0  0  0  0  0  0  0  0  0  0  0
  133.4030   76.8140  226.9530 C   0  0  0  0  0  0  0  0  0  0  0  0
  134.0010   75.6120  226.5890 C   0  0  0  0  0  0  0  0  0  0  0  0
  133.3000   74.4560  226.8530 C   0  0  0  0  0  0  0  0  0  0  0  0
  133.9050   73.2960  226.4880 N   0  0  0  0  0  0  0  0  0  0  0  0
  135.4430   71.8740  225.0770 H   0  0  0  0  0  0  0  0  0  0  0  0
  136.3457   69.2797  225.8586 H   0  0  0  0  0  0  0  0  0  0  0  0
  135.0544   68.9651  224.6597 H   0  0  0  0  0  0  0  0  0  0  0  0
  136.0493   67.4716  222.4720 H   0  0  0  0  0  0  0  0  0  0  0  0
  135.4795   69.2331  222.2014 H   0  0  0  0  0  0  0  0  0  0  0  0
  136.4890   67.3629  220.4059 H   0  0  0  0  0  0  0  0  0  0  0  0
  135.8789   69.1195  220.2433 H   0  0  0  0  0  0  0  0  0  0  0  0
  137.9960   68.7068  219.1487 H   0  0  0  0  0  0  0  0  0  0  0  0
  138.0098   69.9534  220.4697 H   0  0  0  0  0  0  0  0  0  0  0  0
  138.6969   67.2100  221.3412 H   0  0  0  0  0  0  0  0  0  0  0  0
  139.8646   67.9229  220.2184 H   0  0  0  0  0  0  0  0  0  0  0  0
  140.5893   68.9223  222.2459 H   0  0  0  0  0  0  0  0  0  0  0  0
  139.4091   70.1497  221.7425 H   0  0  0  0  0  0  0  0  0  0  0  0
  138.7205   67.6893  223.4918 H   0  0  0  0  0  0  0  0  0  0  0  0
  140.0525   71.0889  223.3245 H   0  0  0  0  0  0  0  0  0  0  0  0
  141.0054   72.2598  225.2430 H   0  0  0  0  0  0  0  0  0  0  0  0
  139.5734   69.1917  227.8487 H   0  0  0  0  0  0  0  0  0  0  0  0
  138.6137   68.0096  225.9142 H   0  0  0  0  0  0  0  0  0  0  0  0
  131.5995   71.0748  227.4585 H   0  0  0  0  0  0  0  0  0  0  0  0
  130.4553   73.1850  228.1411 H   0  0  0  0  0  0  0  0  0  0  0  0
  130.4759   75.6738  228.2906 H   0  0  0  0  0  0  0  0  0  0  0  0
  133.9217   77.7654  226.7635 H   0  0  0  0  0  0  0  0  0  0  0  0
  134.9913   75.5857  226.1108 H   0  0  0  0  0  0  0  0  0  0  0  0
  1  2  2  0
  2  3  1  0
  3  4  1  0
  4  5  1  0
  5  6  2  0
  5  7  1  0
  7  8  1  0
  8  9  1  0
  9 10  1  0
 10 11  1  0
 11 12  1  0
 12 13  1  0
 13 14  1  0
 14 15  2  0
 15 16  1  0
 16 17  2  0
 17 18  1  0
 17 19  1  0
 19 20  2  0
  2 21  1  0
 21 22  2  0
 22 23  1  0
 23 24  2  0
 24 25  1  0
 25 26  2  0
 26 27  1  0
 26 28  1  0
 28 29  2  0
 29 30  1  0
 30 31  2  0
 13  7  1  0
 20 14  1  0
 31 21  1  0
 30 24  1  0
  3 32  1  0
  4 33  1  0
  4 34  1  0
  8 35  1  0
  8 36  1  0
  9 37  1  0
  9 38  1  0
 10 39  1  0
 10 40  1  0
 11 41  1  0
 11 42  1  0
 12 43  1  0
 12 44  1  0
 13 45  1  1
 15 46  1  0
 16 47  1  0
 19 48  1  0
 20 49  1  0
 22 50  1  0
 23 51  1  0
 25 52  1  0
 28 53  1  0
 29 54  1  0
M  END
>  <smiles>  (83) 
O=C(NCC(=O)N1CCCCCC1c1ccc(Cl)cc1)c1ccc2cc(Cl)ccc2n1

>  <score_type>  (83) 
oracle

>  <origin>  (83) 
autodockgpu

>  <m_score__min__energy>  (83) 
-7.21

>  <m_primary>  (83) 
energy

>  <rmsd>  (83) 
8.479493489638227

>  <m_score__min__rmsd>  (83) 
8.479493489638227

>  <meeko>  (83) 
{"free_energy": -6.15, "intermolecular_energy": -9.43, "internal_energy": -2.29, "cluster_size": 6, "cluster_id": 4, "rank_in_cluster": 4}

>  <energy>  (83) 
-6.2

>  <cluster_rmsd>  (83) 
0.4

>  <cluster>  (83) 
4

$$$$

     RDKit          3D

 54 57  0  0  0  0  0  0  0  0999 V2000
  140.7970   72.8030  220.6450 O   0  0  0  0  0  0  0  0  0  0  0  0
  140.3170   73.0910  221.7830 C   0  0  0  0  0  0  0  0  0  0  0  0
  139.8750   74.4000  222.1210 N   0  0  0  0  0  0  0  0  0  0  0  0
  139.9800   75.4570  221.1130 C   0  0  0  0  0  0  0  0  0  0  0  0
  139.8400   76.7660  221.7850 C   0  0  0  0  0  0  0  0  0  0  0  0
  138.7640   77.0750  222.3560 O   0  0  0  0  0  0  0  0  0  0  0  0
  140.9090   77.7470  221.8240 N   0  0  0  0  0  0  0  0  0  0  0  0
  141.4690   77.8490  223.1390 C   0  0  0  0  0  0  0  0  0  0  0  0
  141.4620   79.1510  223.8170 C   0  0  0  0  0  0  0  0  0  0  0  0
  141.8480   80.3580  223.0370 C   0  0  0  0  0  0  0  0  0  0  0  0
  141.0510   80.4920  221.7660 C   0  0  0  0  0  0  0  0  0  0  0  0
  141.8280   79.7210  220.7050 C   0  0  0  0  0  0  0  0  0  0  0  0
  141.1330   78.3590  220.5560 C   0  0  1  0  0  0  0  0  0  0  0  0
  141.8560   77.5350  219.5610 C   0  0  0  0  0  0  0  0  0  0  0  0
  142.6810   76.4800  219.9790 C   0  0  0  0  0  0  0  0  0  0  0  0
  143.3610   75.6860  219.0900 C   0  0  0  0  0  0  0  0  0  0  0  0
  143.2690   75.8830  217.7290 C   0  0  0  0  0  0  0  0  0  0  0  0
  144.1510   74.8480  216.6450 Cl  0  0  0  0  0  0  0  0  0  0  0  0
  142.4650   76.9130  217.2930 C   0  0  0  0  0  0  0  0  0  0  0  0
  141.7780   77.7150  218.2000 C   0  0  0  0  0  0  0  0  0  0  0  0
  140.2060   72.0370  222.8100 C   0  0  0  0  0  0  0  0  0  0  0  0
  139.5840   70.8370  222.4920 C   0  0  0  0  0  0  0  0  0  0  0  0
  139.4720   69.8340  223.4560 C   0  0  0  0  0  0  0  0  0  0  0  0
  139.9790   70.0350  224.7220 C   0  0  0  0  0  0  0  0  0  0  0  0
  139.8960   69.0710  225.7200 C   0  0  0  0  0  0  0  0  0  0  0  0
  140.4350   69.3730  226.9570 C   0  0  0  0  0  0  0  0  0  0  0  0
  140.3650   68.2020  228.2580 Cl  0  0  0  0  0  0  0  0  0  0  0  0
  141.0420   70.5800  227.2230 C   0  0  0  0  0  0  0  0  0  0  0  0
  141.1300   71.5490  226.2290 C   0  0  0  0  0  0  0  0  0  0  0  0
  140.5900   71.2400  225.0010 C   0  0  0  0  0  0  0  0  0  0  0  0
  140.6870   72.2030  224.0480 N   0  0  0  0  0  0  0  0  0  0  0  0
  139.4870   74.5830  223.0740 H   0  0  0  0  0  0  0  0  0  0  0  0
  140.9595   75.3987  220.6158 H   0  0  0  0  0  0  0  0  0  0  0  0
  139.1891   75.3359  220.3582 H   0  0  0  0  0  0  0  0  0  0  0  0
  140.9143   77.1486  223.7807 H   0  0  0  0  0  0  0  0  0  0  0  0
  142.5376   77.6364  222.9876 H   0  0  0  0  0  0  0  0  0  0  0  0
  140.4407   79.3178  224.1898 H   0  0  0  0  0  0  0  0  0  0  0  0
  142.2474   79.0613  224.5820 H   0  0  0  0  0  0  0  0  0  0  0  0
  141.6782   81.2502  223.6575 H   0  0  0  0  0  0  0  0  0  0  0  0
  142.9084   80.2580  222.7621 H   0  0  0  0  0  0  0  0  0  0  0  0
  140.0478   80.0598  221.8957 H   0  0  0  0  0  0  0  0  0  0  0  0
  140.9156   81.5461  221.4824 H   0  0  0  0  0  0  0  0  0  0  0  0
  141.8068   80.2646  219.7490 H   0  0  0  0  0  0  0  0  0  0  0  0
  142.8820   79.5992  220.9951 H   0  0  0  0  0  0  0  0  0  0  0  0
  140.1190   78.4875  220.1493 H   0  0  0  0  0  0  0  0  0  0  0  0
  142.7863   76.2826  221.0560 H   0  0  0  0  0  0  0  0  0  0  0  0
  143.9948   74.8726  219.4729 H   0  0  0  0  0  0  0  0  0  0  0  0
  142.3645   77.1042  216.2144 H   0  0  0  0  0  0  0  0  0  0  0  0
  141.1459   78.5271  217.8115 H   0  0  0  0  0  0  0  0  0  0  0  0
  139.1800   70.6771  221.4815 H   0  0  0  0  0  0  0  0  0  0  0  0
  138.9791   68.8830  223.2055 H   0  0  0  0  0  0  0  0  0  0  0  0
  139.4168   68.0989  225.5317 H   0  0  0  0  0  0  0  0  0  0  0  0
  141.4575   70.7780  228.2221 H   0  0  0  0  0  0  0  0  0  0  0  0
  141.6105   72.5206  226.4162 H   0  0  0  0  0  0  0  0  0  0  0  0
  1  2  2  0
  2  3  1  0
  3  4  1  0
  4  5  1  0
  5  6  2  0
  5  7  1  0
  7  8  1  0
  8  9  1  0
  9 10  1  0
 10 11  1  0
 11 12  1  0
 12 13  1  0
 13 14  1  0
 14 15  2  0
 15 16  1  0
 16 17  2  0
 17 18  1  0
 17 19  1  0
 19 20  2  0
  2 21  1  0
 21 22  2  0
 22 23  1  0
 23 24  2  0
 24 25  1  0
 25 26  2  0
 26 27  1  0
 26 28  1  0
 28 29  2  0
 29 30  1  0
 30 31  2  0
 13  7  1  0
 20 14  1  0
 31 21  1  0
 30 24  1  0
  3 32  1  0
  4 33  1  0
  4 34  1  0
  8 35  1  0
  8 36  1  0
  9 37  1  0
  9 38  1  0
 10 39  1  0
 10 40  1  0
 11 41  1  0
 11 42  1  0
 12 43  1  0
 12 44  1  0
 13 45  1  6
 15 46  1  0
 16 47  1  0
 19 48  1  0
 20 49  1  0
 22 50  1  0
 23 51  1  0
 25 52  1  0
 28 53  1  0
 29 54  1  0
M  END
>  <smiles>  (84) 
O=C(NCC(=O)N1CCCCCC1c1ccc(Cl)cc1)c1ccc2cc(Cl)ccc2n1

>  <score_type>  (84) 
oracle

>  <origin>  (84) 
autodockgpu

>  <m_score__min__energy>  (84) 
-7.21

>  <m_primary>  (84) 
energy

>  <rmsd>  (84) 
3.473035723433405

>  <m_score__min__rmsd>  (84) 
3.473035723433405

>  <meeko>  (84) 
{"free_energy": -7.21, "intermolecular_energy": -10.49, "internal_energy": -1.75, "cluster_size": 12, "cluster_id": 1, "rank_in_cluster": 1}

>  <energy>  (84) 
-6.15

>  <cluster_rmsd>  (84) 
0.18

>  <cluster>  (84) 
4

$$$$

     RDKit          3D

 54 57  0  0  0  0  0  0  0  0999 V2000
  140.4990   72.4920  220.6770 O   0  0  0  0  0  0  0  0  0  0  0  0
  140.1570   72.8800  221.8340 C   0  0  0  0  0  0  0  0  0  0  0  0
  139.8370   74.2350  222.1260 N   0  0  0  0  0  0  0  0  0  0  0  0
  139.9040   75.2200  221.0440 C   0  0  0  0  0  0  0  0  0  0  0  0
  140.5870   76.4290  221.5490 C   0  0  0  0  0  0  0  0  0  0  0  0
  140.7630   76.5920  222.7830 O   0  0  0  0  0  0  0  0  0  0  0  0
  141.0830   77.4750  220.6720 N   0  0  0  0  0  0  0  0  0  0  0  0
  141.2010   77.0060  219.3230 C   0  0  0  0  0  0  0  0  0  0  0  0
  140.7190   77.8580  218.2300 C   0  0  0  0  0  0  0  0  0  0  0  0
  141.1920   79.2680  218.1670 C   0  0  0  0  0  0  0  0  0  0  0  0
  140.7990   80.0530  219.3910 C   0  0  0  0  0  0  0  0  0  0  0  0
  141.8840   79.7760  220.4260 C   0  0  0  0  0  0  0  0  0  0  0  0
  141.3250   78.6970  221.3660 C   0  0  1  0  0  0  0  0  0  0  0  0
  140.1790   79.2440  222.1270 C   0  0  0  0  0  0  0  0  0  0  0  0
  138.8640   78.9820  221.7170 C   0  0  0  0  0  0  0  0  0  0  0  0
  137.7740   79.4600  222.4000 C   0  0  0  0  0  0  0  0  0  0  0  0
  137.9140   80.2310  223.5340 C   0  0  0  0  0  0  0  0  0  0  0  0
  136.5000   80.8130  224.3620 Cl  0  0  0  0  0  0  0  0  0  0  0  0
  139.1960   80.5030  223.9580 C   0  0  0  0  0  0  0  0  0  0  0  0
  140.2970   80.0140  223.2610 C   0  0  0  0  0  0  0  0  0  0  0  0
  140.0850   71.9010  222.9360 C   0  0  0  0  0  0  0  0  0  0  0  0
  139.4730   70.6740  222.7180 C   0  0  0  0  0  0  0  0  0  0  0  0
  139.3980   69.7400  223.7530 C   0  0  0  0  0  0  0  0  0  0  0  0
  139.9320   70.0370  224.9880 C   0  0  0  0  0  0  0  0  0  0  0  0
  139.8860   69.1450  226.0530 C   0  0  0  0  0  0  0  0  0  0  0  0
  140.4510   69.5390  227.2530 C   0  0  0  0  0  0  0  0  0  0  0  0
  140.4280   68.4630  228.6340 Cl  0  0  0  0  0  0  0  0  0  0  0  0
  141.0470   70.7690  227.4180 C   0  0  0  0  0  0  0  0  0  0  0  0
  141.0980   71.6670  226.3560 C   0  0  0  0  0  0  0  0  0  0  0  0
  140.5330   71.2650  225.1670 C   0  0  0  0  0  0  0  0  0  0  0  0
  140.5940   72.1600  224.1460 N   0  0  0  0  0  0  0  0  0  0  0  0
  139.5610   74.5020  223.0980 H   0  0  0  0  0  0  0  0  0  0  0  0
  140.4679   74.8023  220.1970 H   0  0  0  0  0  0  0  0  0  0  0  0
  138.8892   75.4755  220.7050 H   0  0  0  0  0  0  0  0  0  0  0  0
  142.2692   76.8187  219.1389 H   0  0  0  0  0  0  0  0  0  0  0  0
  140.5360   76.1304  219.2885 H   0  0  0  0  0  0  0  0  0  0  0  0
  141.0136   77.3742  217.2870 H   0  0  0  0  0  0  0  0  0  0  0  0
  139.6378   77.9446  218.4129 H   0  0  0  0  0  0  0  0  0  0  0  0
  142.2886   79.2707  218.0810 H   0  0  0  0  0  0  0  0  0  0  0  0
  140.7219   79.7442  217.2940 H   0  0  0  0  0  0  0  0  0  0  0  0
  140.7553   81.1275  219.1596 H   0  0  0  0  0  0  0  0  0  0  0  0
  139.8041   79.7607  219.7582 H   0  0  0  0  0  0  0  0  0  0  0  0
  142.7971   79.4132  219.9315 H   0  0  0  0  0  0  0  0  0  0  0  0
  142.1473   80.6889  220.9803 H   0  0  0  0  0  0  0  0  0  0  0  0
  142.0747   78.4192  222.1215 H   0  0  0  0  0  0  0  0  0  0  0  0
  138.7004   78.3720  220.8164 H   0  0  0  0  0  0  0  0  0  0  0  0
  136.7644   79.2222  222.0338 H   0  0  0  0  0  0  0  0  0  0  0  0
  139.3516   81.1145  224.8590 H   0  0  0  0  0  0  0  0  0  0  0  0
  141.3043   80.2533  223.6326 H   0  0  0  0  0  0  0  0  0  0  0  0
  139.0479   70.4381  221.7313 H   0  0  0  0  0  0  0  0  0  0  0  0
  138.9129   68.7676  223.5826 H   0  0  0  0  0  0  0  0  0  0  0  0
  139.4151   68.1567  225.9452 H   0  0  0  0  0  0  0  0  0  0  0  0
  141.4833   71.0422  228.3901 H   0  0  0  0  0  0  0  0  0  0  0  0
  141.5694   72.6552  226.4622 H   0  0  0  0  0  0  0  0  0  0  0  0
  1  2  2  0
  2  3  1  0
  3  4  1  0
  4  5  1  0
  5  6  2  0
  5  7  1  0
  7  8  1  0
  8  9  1  0
  9 10  1  0
 10 11  1  0
 11 12  1  0
 12 13  1  0
 13 14  1  0
 14 15  2  0
 15 16  1  0
 16 17  2  0
 17 18  1  0
 17 19  1  0
 19 20  2  0
  2 21  1  0
 21 22  2  0
 22 23  1  0
 23 24  2  0
 24 25  1  0
 25 26  2  0
 26 27  1  0
 26 28  1  0
 28 29  2  0
 29 30  1  0
 30 31  2  0
 13  7  1  0
 20 14  1  0
 31 21  1  0
 30 24  1  0
  3 32  1  0
  4 33  1  0
  4 34  1  0
  8 35  1  0
  8 36  1  0
  9 37  1  0
  9 38  1  0
 10 39  1  0
 10 40  1  0
 11 41  1  0
 11 42  1  0
 12 43  1  0
 12 44  1  0
 13 45  1  1
 15 46  1  0
 16 47  1  0
 19 48  1  0
 20 49  1  0
 22 50  1  0
 23 51  1  0
 25 52  1  0
 28 53  1  0
 29 54  1  0
M  END
>  <smiles>  (85) 
O=C(NCC(=O)N1CCCCCC1c1ccc(Cl)cc1)c1ccc2cc(Cl)ccc2n1

>  <score_type>  (85) 
oracle

>  <origin>  (85) 
autodockgpu

>  <m_score__min__energy>  (85) 
-7.21

>  <m_primary>  (85) 
energy

>  <rmsd>  (85) 
2.258886618642648

>  <m_score__min__rmsd>  (85) 
2.258886618642648

>  <meeko>  (85) 
{"free_energy": -6.39, "intermolecular_energy": -9.67, "internal_energy": -1.85, "cluster_size": 9, "cluster_id": 2, "rank_in_cluster": 5}

>  <energy>  (85) 
-5.92

>  <cluster_rmsd>  (85) 
0.39

>  <cluster>  (85) 
4

$$$$

     RDKit          3D

 54 57  0  0  0  0  0  0  0  0999 V2000
  139.4750   72.0170  220.4410 O   0  0  0  0  0  0  0  0  0  0  0  0
  139.3510   72.4970  221.6080 C   0  0  0  0  0  0  0  0  0  0  0  0
  139.0130   73.8580  221.8470 N   0  0  0  0  0  0  0  0  0  0  0  0
  138.7990   74.7390  220.6970 C   0  0  0  0  0  0  0  0  0  0  0  0
  139.1260   76.1230  221.0960 C   0  0  0  0  0  0  0  0  0  0  0  0
  138.2150   76.9800  221.2220 O   0  0  0  0  0  0  0  0  0  0  0  0
  140.4840   76.5660  221.3570 N   0  0  0  0  0  0  0  0  0  0  0  0
  140.6630   76.8930  222.7410 C   0  0  0  0  0  0  0  0  0  0  0  0
  141.0340   78.2660  223.1040 C   0  0  0  0  0  0  0  0  0  0  0  0
  141.8040   79.0760  222.1210 C   0  0  0  0  0  0  0  0  0  0  0  0
  141.2460   78.9580  220.7280 C   0  0  0  0  0  0  0  0  0  0  0  0
  142.0780   77.8760  220.0390 C   0  0  0  0  0  0  0  0  0  0  0  0
  141.2930   76.5630  220.1840 C   0  0  1  0  0  0  0  0  0  0  0  0
  142.2150   75.4130  220.0390 C   0  0  0  0  0  0  0  0  0  0  0  0
  142.0970   74.2990  220.8830 C   0  0  0  0  0  0  0  0  0  0  0  0
  142.9230   73.2080  220.7760 C   0  0  0  0  0  0  0  0  0  0  0  0
  143.9210   73.1480  219.8260 C   0  0  0  0  0  0  0  0  0  0  0  0
  144.9400   71.7420  219.7320 Cl  0  0  0  0  0  0  0  0  0  0  0  0
  144.0560   74.2300  218.9840 C   0  0  0  0  0  0  0  0  0  0  0  0
  143.2150   75.3330  219.0980 C   0  0  0  0  0  0  0  0  0  0  0  0
  139.5640   71.6230  222.7780 C   0  0  0  0  0  0  0  0  0  0  0  0
  139.1540   70.2970  222.7230 C   0  0  0  0  0  0  0  0  0  0  0  0
  139.3500   69.4620  223.8240 C   0  0  0  0  0  0  0  0  0  0  0  0
  139.9500   69.9530  224.9630 C   0  0  0  0  0  0  0  0  0  0  0  0
  140.1700   69.1660  226.0880 C   0  0  0  0  0  0  0  0  0  0  0  0
  140.7800   69.7540  227.1810 C   0  0  0  0  0  0  0  0  0  0  0  0
  141.0870   68.8190  228.6280 Cl  0  0  0  0  0  0  0  0  0  0  0  0
  141.1690   71.0750  227.1850 C   0  0  0  0  0  0  0  0  0  0  0  0
  140.9530   71.8690  226.0630 C   0  0  0  0  0  0  0  0  0  0  0  0
  140.3450   71.2740  224.9810 C   0  0  0  0  0  0  0  0  0  0  0  0
  140.1440   72.0700  223.8980 N   0  0  0  0  0  0  0  0  0  0  0  0
  138.9230   74.2020  222.8300 H   0  0  0  0  0  0  0  0  0  0  0  0
  139.4504   74.4291  219.8665 H   0  0  0  0  0  0  0  0  0  0  0  0
  137.7507   74.6804  220.3688 H   0  0  0  0  0  0  0  0  0  0  0  0
  139.7141   76.6697  223.2506 H   0  0  0  0  0  0  0  0  0  0  0  0
  141.5350   76.2946  223.0436 H   0  0  0  0  0  0  0  0  0  0  0  0
  140.1012   78.8100  223.3136 H   0  0  0  0  0  0  0  0  0  0  0  0
  141.7238   78.1438  223.9521 H   0  0  0  0  0  0  0  0  0  0  0  0
  141.7706   80.1318  222.4280 H   0  0  0  0  0  0  0  0  0  0  0  0
  142.8365   78.6969  222.1051 H   0  0  0  0  0  0  0  0  0  0  0  0
  140.1868   78.6632  220.7629 H   0  0  0  0  0  0  0  0  0  0  0  0
  141.2972   79.9149  220.1878 H   0  0  0  0  0  0  0  0  0  0  0  0
  142.2147   78.1215  218.9755 H   0  0  0  0  0  0  0  0  0  0  0  0
  143.0771   77.7940  220.4918 H   0  0  0  0  0  0  0  0  0  0  0  0
  140.5620   76.4595  219.3686 H   0  0  0  0  0  0  0  0  0  0  0  0
  141.3156   74.2997  221.6573 H   0  0  0  0  0  0  0  0  0  0  0  0
  142.7857   72.3612  221.4645 H   0  0  0  0  0  0  0  0  0  0  0  0
  144.8389   74.2220  218.2113 H   0  0  0  0  0  0  0  0  0  0  0  0
  143.3560   76.1766  218.4063 H   0  0  0  0  0  0  0  0  0  0  0  0
  138.6756   69.9056  221.8131 H   0  0  0  0  0  0  0  0  0  0  0  0
  139.0254   68.4118  223.7824 H   0  0  0  0  0  0  0  0  0  0  0  0
  139.8682   68.1084  226.1080 H   0  0  0  0  0  0  0  0  0  0  0  0
  141.6511   71.5030  228.0763 H   0  0  0  0  0  0  0  0  0  0  0  0
  141.2551   72.9265  226.0416 H   0  0  0  0  0  0  0  0  0  0  0  0
  1  2  2  0
  2  3  1  0
  3  4  1  0
  4  5  1  0
  5  6  2  0
  5  7  1  0
  7  8  1  0
  8  9  1  0
  9 10  1  0
 10 11  1  0
 11 12  1  0
 12 13  1  0
 13 14  1  0
 14 15  2  0
 15 16  1  0
 16 17  2  0
 17 18  1  0
 17 19  1  0
 19 20  2  0
  2 21  1  0
 21 22  2  0
 22 23  1  0
 23 24  2  0
 24 25  1  0
 25 26  2  0
 26 27  1  0
 26 28  1  0
 28 29  2  0
 29 30  1  0
 30 31  2  0
 13  7  1  0
 20 14  1  0
 31 21  1  0
 30 24  1  0
  3 32  1  0
  4 33  1  0
  4 34  1  0
  8 35  1  0
  8 36  1  0
  9 37  1  0
  9 38  1  0
 10 39  1  0
 10 40  1  0
 11 41  1  0
 11 42  1  0
 12 43  1  0
 12 44  1  0
 13 45  1  6
 15 46  1  0
 16 47  1  0
 19 48  1  0
 20 49  1  0
 22 50  1  0
 23 51  1  0
 25 52  1  0
 28 53  1  0
 29 54  1  0
M  END
>  <smiles>  (86) 
O=C(NCC(=O)N1CCCCCC1c1ccc(Cl)cc1)c1ccc2cc(Cl)ccc2n1

>  <score_type>  (86) 
oracle

>  <origin>  (86) 
autodockgpu

>  <m_score__min__energy>  (86) 
-7.21

>  <m_primary>  (86) 
energy

>  <rmsd>  (86) 
2.782719303587375

>  <m_score__min__rmsd>  (86) 
2.782719303587375

>  <meeko>  (86) 
{"free_energy": -6.23, "intermolecular_energy": -9.51, "internal_energy": -2.22, "cluster_size": 12, "cluster_id": 1, "rank_in_cluster": 8}

>  <energy>  (86) 
-5.49

>  <cluster_rmsd>  (86) 
0.39

>  <cluster>  (86) 
4

$$$$

     RDKit          3D

 54 57  0  0  0  0  0  0  0  0999 V2000
  138.6420   72.0190  220.9010 O   0  0  0  0  0  0  0  0  0  0  0  0
  139.0180   72.4550  222.0300 C   0  0  0  0  0  0  0  0  0  0  0  0
  139.1900   73.8410  222.3010 N   0  0  0  0  0  0  0  0  0  0  0  0
  138.9200   74.8020  221.2300 C   0  0  0  0  0  0  0  0  0  0  0  0
  140.1920   75.4470  220.8430 C   0  0  0  0  0  0  0  0  0  0  0  0
  141.0330   74.8260  220.1450 O   0  0  0  0  0  0  0  0  0  0  0  0
  140.5380   76.8010  221.2370 N   0  0  0  0  0  0  0  0  0  0  0  0
  140.7360   76.8930  222.6530 C   0  0  0  0  0  0  0  0  0  0  0  0
  141.4300   78.0650  223.2000 C   0  0  0  0  0  0  0  0  0  0  0  0
  140.8400   79.4110  222.9680 C   0  0  0  0  0  0  0  0  0  0  0  0
  139.9880   79.4510  221.7270 C   0  0  0  0  0  0  0  0  0  0  0  0
  140.9240   79.1260  220.5730 C   0  0  0  0  0  0  0  0  0  0  0  0
  140.5960   77.6940  220.1260 C   0  0  1  0  0  0  0  0  0  0  0  0
  141.5020   77.2940  219.0250 C   0  0  0  0  0  0  0  0  0  0  0  0
  142.7900   76.8150  219.3050 C   0  0  0  0  0  0  0  0  0  0  0  0
  143.6580   76.4250  218.3150 C   0  0  0  0  0  0  0  0  0  0  0  0
  143.3070   76.4840  216.9830 C   0  0  0  0  0  0  0  0  0  0  0  0
  144.4430   75.9780  215.7670 Cl  0  0  0  0  0  0  0  0  0  0  0  0
  142.0460   76.9510  216.6820 C   0  0  0  0  0  0  0  0  0  0  0  0
  141.1720   77.3450  217.6910 C   0  0  0  0  0  0  0  0  0  0  0  0
  139.2950   71.4990  223.1210 C   0  0  0  0  0  0  0  0  0  0  0  0
  138.9530   70.1630  222.9600 C   0  0  0  0  0  0  0  0  0  0  0  0
  139.2090   69.2510  223.9850 C   0  0  0  0  0  0  0  0  0  0  0  0
  139.8020   69.6770  225.1540 C   0  0  0  0  0  0  0  0  0  0  0  0
  140.0810   68.8120  226.2060 C   0  0  0  0  0  0  0  0  0  0  0  0
  140.6780   69.3390  227.3370 C   0  0  0  0  0  0  0  0  0  0  0  0
  141.0560   68.3050  228.6970 Cl  0  0  0  0  0  0  0  0  0  0  0  0
  140.9980   70.6740  227.4470 C   0  0  0  0  0  0  0  0  0  0  0  0
  140.7230   71.5450  226.3980 C   0  0  0  0  0  0  0  0  0  0  0  0
  140.1290   71.0110  225.2770 C   0  0  0  0  0  0  0  0  0  0  0  0
  139.8690   71.8830  224.2670 N   0  0  0  0  0  0  0  0  0  0  0  0
  139.5020   74.1470  223.2510 H   0  0  0  0  0  0  0  0  0  0  0  0
  138.4908   74.2792  220.3626 H   0  0  0  0  0  0  0  0  0  0  0  0
  138.2045   75.5614  221.5784 H   0  0  0  0  0  0  0  0  0  0  0  0
  139.7407   76.8606  223.1204 H   0  0  0  0  0  0  0  0  0  0  0  0
  141.4130   76.0561  222.8795 H   0  0  0  0  0  0  0  0  0  0  0  0
  141.4980   77.9234  224.2887 H   0  0  0  0  0  0  0  0  0  0  0  0
  142.3849   78.0916  222.6547 H   0  0  0  0  0  0  0  0  0  0  0  0
  140.2174   79.6792  223.8342 H   0  0  0  0  0  0  0  0  0  0  0  0
  141.6667   80.1241  222.8339 H   0  0  0  0  0  0  0  0  0  0  0  0
  139.1834   78.7035  221.7902 H   0  0  0  0  0  0  0  0  0  0  0  0
  139.5082   80.4321  221.5960 H   0  0  0  0  0  0  0  0  0  0  0  0
  140.7600   79.8288  219.7429 H   0  0  0  0  0  0  0  0  0  0  0  0
  141.9762   79.2120  220.8818 H   0  0  0  0  0  0  0  0  0  0  0  0
  139.5813   77.6468  219.7040 H   0  0  0  0  0  0  0  0  0  0  0  0
  143.1161   76.7495  220.3535 H   0  0  0  0  0  0  0  0  0  0  0  0
  144.6571   76.0568  218.5912 H   0  0  0  0  0  0  0  0  0  0  0  0
  141.7262   77.0132  215.6314 H   0  0  0  0  0  0  0  0  0  0  0  0
  140.1744   77.7130  217.4092 H   0  0  0  0  0  0  0  0  0  0  0  0
  138.4810   69.8239  222.0261 H   0  0  0  0  0  0  0  0  0  0  0  0
  138.9375   68.1924  223.8599 H   0  0  0  0  0  0  0  0  0  0  0  0
  139.8347   67.7419  226.1410 H   0  0  0  0  0  0  0  0  0  0  0  0
  141.4715   71.0518  228.3652 H   0  0  0  0  0  0  0  0  0  0  0  0
  140.9697   72.6151  226.4615 H   0  0  0  0  0  0  0  0  0  0  0  0
  1  2  2  0
  2  3  1  0
  3  4  1  0
  4  5  1  0
  5  6  2  0
  5  7  1  0
  7  8  1  0
  8  9  1  0
  9 10  1  0
 10 11  1  0
 11 12  1  0
 12 13  1  0
 13 14  1  0
 14 15  2  0
 15 16  1  0
 16 17  2  0
 17 18  1  0
 17 19  1  0
 19 20  2  0
  2 21  1  0
 21 22  2  0
 22 23  1  0
 23 24  2  0
 24 25  1  0
 25 26  2  0
 26 27  1  0
 26 28  1  0
 28 29  2  0
 29 30  1  0
 30 31  2  0
 13  7  1  0
 20 14  1  0
 31 21  1  0
 30 24  1  0
  3 32  1  0
  4 33  1  0
  4 34  1  0
  8 35  1  0
  8 36  1  0
  9 37  1  0
  9 38  1  0
 10 39  1  0
 10 40  1  0
 11 41  1  0
 11 42  1  0
 12 43  1  0
 12 44  1  0
 13 45  1  6
 15 46  1  0
 16 47  1  0
 19 48  1  0
 20 49  1  0
 22 50  1  0
 23 51  1  0
 25 52  1  0
 28 53  1  0
 29 54  1  0
M  END
>  <smiles>  (87) 
O=C(NCC(=O)N1CCCCCC1c1ccc(Cl)cc1)c1ccc2cc(Cl)ccc2n1

>  <score_type>  (87) 
oracle

>  <origin>  (87) 
autodockgpu

>  <m_score__min__energy>  (87) 
-7.21

>  <m_primary>  (87) 
energy

>  <rmsd>  (87) 
2.881287606560336

>  <m_score__min__rmsd>  (87) 
2.881287606560336

>  <meeko>  (87) 
{"free_energy": -5.56, "intermolecular_energy": -8.85, "internal_energy": -1.63, "cluster_size": 12, "cluster_id": 1, "rank_in_cluster": 12}

>  <energy>  (87) 
-6.17

>  <cluster_rmsd>  (87) 
0.0

>  <cluster>  (87) 
5

$$$$

     RDKit          3D

 54 57  0  0  0  0  0  0  0  0999 V2000
  140.1180   72.6040  220.7840 O   0  0  0  0  0  0  0  0  0  0  0  0
  139.8740   72.9830  221.9690 C   0  0  0  0  0  0  0  0  0  0  0  0
  139.5960   74.3390  222.3000 N   0  0  0  0  0  0  0  0  0  0  0  0
  139.5930   75.3350  221.2260 C   0  0  0  0  0  0  0  0  0  0  0  0
  140.6830   76.3010  221.4750 C   0  0  0  0  0  0  0  0  0  0  0  0
  141.0930   76.5090  222.6450 O   0  0  0  0  0  0  0  0  0  0  0  0
  141.3290   77.0490  220.4120 N   0  0  0  0  0  0  0  0  0  0  0  0
  141.4970   76.2410  219.2400 C   0  0  0  0  0  0  0  0  0  0  0  0
  142.0900   76.8430  218.0400 C   0  0  0  0  0  0  0  0  0  0  0  0
  141.4830   78.0880  217.4970 C   0  0  0  0  0  0  0  0  0  0  0  0
  140.7570   78.8740  218.5570 C   0  0  0  0  0  0  0  0  0  0  0  0
  141.8190   79.2940  219.5680 C   0  0  0  0  0  0  0  0  0  0  0  0
  141.6320   78.3880  220.7940 C   0  0  1  0  0  0  0  0  0  0  0  0
  140.6830   79.0180  221.7400 C   0  0  0  0  0  0  0  0  0  0  0  0
  139.3160   79.0870  221.4340 C   0  0  0  0  0  0  0  0  0  0  0  0
  138.4010   79.6530  222.2870 C   0  0  0  0  0  0  0  0  0  0  0  0
  138.7800   80.1890  223.4990 C   0  0  0  0  0  0  0  0  0  0  0  0
  137.5820   80.8940  224.5440 Cl  0  0  0  0  0  0  0  0  0  0  0  0
  140.1180   80.1330  223.8240 C   0  0  0  0  0  0  0  0  0  0  0  0
  141.0400   79.5570  222.9540 C   0  0  0  0  0  0  0  0  0  0  0  0
  139.8730   71.9920  223.0630 C   0  0  0  0  0  0  0  0  0  0  0  0
  139.2960   70.7470  222.8540 C   0  0  0  0  0  0  0  0  0  0  0  0
  139.2890   69.8020  223.8810 C   0  0  0  0  0  0  0  0  0  0  0  0
  139.8560   70.1060  225.1010 C   0  0  0  0  0  0  0  0  0  0  0  0
  139.8780   69.2040  226.1580 C   0  0  0  0  0  0  0  0  0  0  0  0
  140.4700   69.6070  227.3410 C   0  0  0  0  0  0  0  0  0  0  0  0
  140.5320   68.5180  228.7110 Cl  0  0  0  0  0  0  0  0  0  0  0  0
  141.0300   70.8550  227.4970 C   0  0  0  0  0  0  0  0  0  0  0  0
  141.0130   71.7630  226.4440 C   0  0  0  0  0  0  0  0  0  0  0  0
  140.4200   71.3530  225.2700 C   0  0  0  0  0  0  0  0  0  0  0  0
  140.4150   72.2580  224.2570 N   0  0  0  0  0  0  0  0  0  0  0  0
  139.4000   74.5980  223.2930 H   0  0  0  0  0  0  0  0  0  0  0  0
  139.7533   74.8369  220.2584 H   0  0  0  0  0  0  0  0  0  0  0  0
  138.6257   75.8583  221.2018 H   0  0  0  0  0  0  0  0  0  0  0  0
  142.1352   75.3910  219.5232 H   0  0  0  0  0  0  0  0  0  0  0  0
  140.4677   76.0022  218.9343 H   0  0  0  0  0  0  0  0  0  0  0  0
  143.1403   77.0696  218.2755 H   0  0  0  0  0  0  0  0  0  0  0  0
  141.9211   76.0948  217.2516 H   0  0  0  0  0  0  0  0  0  0  0  0
  142.2808   78.7161  217.0738 H   0  0  0  0  0  0  0  0  0  0  0  0
  140.7510   77.8002  216.7280 H   0  0  0  0  0  0  0  0  0  0  0  0
  140.2778   79.7601  218.1152 H   0  0  0  0  0  0  0  0  0  0  0  0
  139.9635   78.2767  219.0299 H   0  0  0  0  0  0  0  0  0  0  0  0
  142.8243   79.1567  219.1431 H   0  0  0  0  0  0  0  0  0  0  0  0
  141.7162   80.3556  219.8370 H   0  0  0  0  0  0  0  0  0  0  0  0
  142.5781   78.2901  221.3466 H   0  0  0  0  0  0  0  0  0  0  0  0
  138.9647   78.6732  220.4773 H   0  0  0  0  0  0  0  0  0  0  0  0
  137.3404   79.6793  221.9963 H   0  0  0  0  0  0  0  0  0  0  0  0
  140.4619   80.5485  224.7827 H   0  0  0  0  0  0  0  0  0  0  0  0
  142.0991   79.5320  223.2502 H   0  0  0  0  0  0  0  0  0  0  0  0
  138.8449   70.5055  221.8803 H   0  0  0  0  0  0  0  0  0  0  0  0
  138.8315   68.8151  223.7175 H   0  0  0  0  0  0  0  0  0  0  0  0
  139.4383   68.2008  226.0568 H   0  0  0  0  0  0  0  0  0  0  0  0
  141.4914   71.1342  228.4557 H   0  0  0  0  0  0  0  0  0  0  0  0
  141.4541   72.7657  226.5441 H   0  0  0  0  0  0  0  0  0  0  0  0
  1  2  2  0
  2  3  1  0
  3  4  1  0
  4  5  1  0
  5  6  2  0
  5  7  1  0
  7  8  1  0
  8  9  1  0
  9 10  1  0
 10 11  1  0
 11 12  1  0
 12 13  1  0
 13 14  1  0
 14 15  2  0
 15 16  1  0
 16 17  2  0
 17 18  1  0
 17 19  1  0
 19 20  2  0
  2 21  1  0
 21 22  2  0
 22 23  1  0
 23 24  2  0
 24 25  1  0
 25 26  2  0
 26 27  1  0
 26 28  1  0
 28 29  2  0
 29 30  1  0
 30 31  2  0
 13  7  1  0
 20 14  1  0
 31 21  1  0
 30 24  1  0
  3 32  1  0
  4 33  1  0
  4 34  1  0
  8 35  1  0
  8 36  1  0
  9 37  1  0
  9 38  1  0
 10 39  1  0
 10 40  1  0
 11 41  1  0
 11 42  1  0
 12 43  1  0
 12 44  1  0
 13 45  1  1
 15 46  1  0
 16 47  1  0
 19 48  1  0
 20 49  1  0
 22 50  1  0
 23 51  1  0
 25 52  1  0
 28 53  1  0
 29 54  1  0
M  END
>  <smiles>  (88) 
O=C(NCC(=O)N1CCCCCC1c1ccc(Cl)cc1)c1ccc2cc(Cl)ccc2n1

>  <score_type>  (88) 
oracle

>  <origin>  (88) 
autodockgpu

>  <m_score__min__energy>  (88) 
-7.21

>  <m_primary>  (88) 
energy

>  <rmsd>  (88) 
2.04157295359081

>  <m_score__min__rmsd>  (88) 
2.04157295359081

>  <meeko>  (88) 
{"free_energy": -6.62, "intermolecular_energy": -9.9, "internal_energy": -1.69, "cluster_size": 9, "cluster_id": 2, "rank_in_cluster": 3}

>  <energy>  (88) 
-5.8

>  <cluster_rmsd>  (88) 
0.44

>  <cluster>  (88) 
5

$$$$

     RDKit          3D

 54 57  0  0  0  0  0  0  0  0999 V2000
  138.1630   71.5340  220.8040 O   0  0  0  0  0  0  0  0  0  0  0  0
  138.6110   72.0640  221.8650 C   0  0  0  0  0  0  0  0  0  0  0  0
  138.8040   73.4670  222.0010 N   0  0  0  0  0  0  0  0  0  0  0  0
  138.4700   74.3330  220.8680 C   0  0  0  0  0  0  0  0  0  0  0  0
  139.4580   74.1040  219.7920 C   0  0  0  0  0  0  0  0  0  0  0  0
  139.2970   73.1660  218.9710 O   0  0  0  0  0  0  0  0  0  0  0  0
  140.6430   74.9260  219.6260 N   0  0  0  0  0  0  0  0  0  0  0  0
  140.8270   75.2950  218.2530 C   0  0  0  0  0  0  0  0  0  0  0  0
  142.1760   75.2460  217.6780 C   0  0  0  0  0  0  0  0  0  0  0  0
  143.2650   74.6190  218.4760 C   0  0  0  0  0  0  0  0  0  0  0  0
  143.5130   75.3480  219.7700 C   0  0  0  0  0  0  0  0  0  0  0  0
  142.7420   74.5760  220.8360 C   0  0  0  0  0  0  0  0  0  0  0  0
  141.3210   75.1590  220.8580 C   0  0  1  0  0  0  0  0  0  0  0  0
  141.3670   76.5690  221.3110 C   0  0  0  0  0  0  0  0  0  0  0  0
  141.0390   76.8990  222.6340 C   0  0  0  0  0  0  0  0  0  0  0  0
  141.0780   78.1910  223.0980 C   0  0  0  0  0  0  0  0  0  0  0  0
  141.4440   79.2400  222.2820 C   0  0  0  0  0  0  0  0  0  0  0  0
  141.4780   80.8580  222.9190 Cl  0  0  0  0  0  0  0  0  0  0  0  0
  141.7720   78.9410  220.9780 C   0  0  0  0  0  0  0  0  0  0  0  0
  141.7310   77.6290  220.5150 C   0  0  0  0  0  0  0  0  0  0  0  0
  138.9520   71.2050  223.0160 C   0  0  0  0  0  0  0  0  0  0  0  0
  138.5300   69.8830  223.0290 C   0  0  0  0  0  0  0  0  0  0  0  0
  138.8460   69.0620  224.1130 C   0  0  0  0  0  0  0  0  0  0  0  0
  139.5780   69.5640  225.1670 C   0  0  0  0  0  0  0  0  0  0  0  0
  139.9210   68.7920  226.2710 C   0  0  0  0  0  0  0  0  0  0  0  0
  140.6580   69.3920  227.2760 C   0  0  0  0  0  0  0  0  0  0  0  0
  141.1240   68.4750  228.6930 Cl  0  0  0  0  0  0  0  0  0  0  0  0
  141.0530   70.7090  227.2150 C   0  0  0  0  0  0  0  0  0  0  0  0
  140.7140   71.4880  226.1140 C   0  0  0  0  0  0  0  0  0  0  0  0
  139.9800   70.8820  225.1180 C   0  0  0  0  0  0  0  0  0  0  0  0
  139.6610   71.6640  224.0540 N   0  0  0  0  0  0  0  0  0  0  0  0
  139.1760   73.8520  222.8980 H   0  0  0  0  0  0  0  0  0  0  0  0
  137.4610   74.0919  220.5021 H   0  0  0  0  0  0  0  0  0  0  0  0
  138.4930   75.3872  221.1812 H   0  0  0  0  0  0  0  0  0  0  0  0
  140.1957   74.6244  217.6516 H   0  0  0  0  0  0  0  0  0  0  0  0
  140.5692   76.3641  218.2303 H   0  0  0  0  0  0  0  0  0  0  0  0
  142.1057   74.6903  216.7313 H   0  0  0  0  0  0  0  0  0  0  0  0
  142.4737   76.3019  217.5984 H   0  0  0  0  0  0  0  0  0  0  0  0
  142.9849   73.5797  218.7028 H   0  0  0  0  0  0  0  0  0  0  0  0
  144.1889   74.6634  217.8806 H   0  0  0  0  0  0  0  0  0  0  0  0
  144.5875   75.3564  220.0051 H   0  0  0  0  0  0  0  0  0  0  0  0
  143.1857   76.3966  219.7132 H   0  0  0  0  0  0  0  0  0  0  0  0
  142.7096   73.5064  220.5811 H   0  0  0  0  0  0  0  0  0  0  0  0
  143.2244   74.6691  221.8202 H   0  0  0  0  0  0  0  0  0  0  0  0
  140.7007   74.6315  221.5976 H   0  0  0  0  0  0  0  0  0  0  0  0
  140.7403   76.0957  223.3235 H   0  0  0  0  0  0  0  0  0  0  0  0
  140.8108   78.3936  224.1457 H   0  0  0  0  0  0  0  0  0  0  0  0
  142.0701   79.7492  220.2940 H   0  0  0  0  0  0  0  0  0  0  0  0
  142.0015   77.4319  219.4672 H   0  0  0  0  0  0  0  0  0  0  0  0
  137.9473   69.4826  222.1863 H   0  0  0  0  0  0  0  0  0  0  0  0
  138.5107   68.0144  224.1257 H   0  0  0  0  0  0  0  0  0  0  0  0
  139.6160   67.7376  226.3430 H   0  0  0  0  0  0  0  0  0  0  0  0
  141.6375   71.1459  228.0381 H   0  0  0  0  0  0  0  0  0  0  0  0
  141.0188   72.5425  226.0415 H   0  0  0  0  0  0  0  0  0  0  0  0
  1  2  2  0
  2  3  1  0
  3  4  1  0
  4  5  1  0
  5  6  2  0
  5  7  1  0
  7  8  1  0
  8  9  1  0
  9 10  1  0
 10 11  1  0
 11 12  1  0
 12 13  1  0
 13 14  1  0
 14 15  2  0
 15 16  1  0
 16 17  2  0
 17 18  1  0
 17 19  1  0
 19 20  2  0
  2 21  1  0
 21 22  2  0
 22 23  1  0
 23 24  2  0
 24 25  1  0
 25 26  2  0
 26 27  1  0
 26 28  1  0
 28 29  2  0
 29 30  1  0
 30 31  2  0
 13  7  1  0
 20 14  1  0
 31 21  1  0
 30 24  1  0
  3 32  1  0
  4 33  1  0
  4 34  1  0
  8 35  1  0
  8 36  1  0
  9 37  1  0
  9 38  1  0
 10 39  1  0
 10 40  1  0
 11 41  1  0
 11 42  1  0
 12 43  1  0
 12 44  1  0
 13 45  1  1
 15 46  1  0
 16 47  1  0
 19 48  1  0
 20 49  1  0
 22 50  1  0
 23 51  1  0
 25 52  1  0
 28 53  1  0
 29 54  1  0
M  END
>  <smiles>  (89) 
O=C(NCC(=O)N1CCCCCC1c1ccc(Cl)cc1)c1ccc2cc(Cl)ccc2n1

>  <score_type>  (89) 
oracle

>  <origin>  (89) 
autodockgpu

>  <m_score__min__energy>  (89) 
-7.21

>  <m_primary>  (89) 
energy

>  <rmsd>  (89) 
1.9404017135391145

>  <m_score__min__rmsd>  (89) 
1.9404017135391145

>  <meeko>  (89) 
{"free_energy": -6.4, "intermolecular_energy": -9.68, "internal_energy": -1.88, "cluster_size": 9, "cluster_id": 3, "rank_in_cluster": 2}

>  <energy>  (89) 
-5.75

>  <cluster_rmsd>  (89) 
0.43

>  <cluster>  (89) 
5

$$$$

     RDKit          3D

 54 57  0  0  0  0  0  0  0  0999 V2000
  141.9020   72.7820  220.6210 O   0  0  0  0  0  0  0  0  0  0  0  0
  141.2250   73.5350  221.3830 C   0  0  0  0  0  0  0  0  0  0  0  0
  140.3390   73.0280  222.3740 N   0  0  0  0  0  0  0  0  0  0  0  0
  140.2050   71.5770  222.5180 C   0  0  0  0  0  0  0  0  0  0  0  0
  139.5650   71.2890  223.8180 C   0  0  0  0  0  0  0  0  0  0  0  0
  138.4060   71.7100  224.0630 O   0  0  0  0  0  0  0  0  0  0  0  0
  140.2190   70.5220  224.8640 N   0  0  0  0  0  0  0  0  0  0  0  0
  141.0650   71.3580  225.6650 C   0  0  0  0  0  0  0  0  0  0  0  0
  140.7800   71.4930  227.0980 C   0  0  0  0  0  0  0  0  0  0  0  0
  140.3120   70.2930  227.8440 C   0  0  0  0  0  0  0  0  0  0  0  0
  139.1720   69.5990  227.1450 C   0  0  0  0  0  0  0  0  0  0  0  0
  139.8130   68.5450  226.2490 C   0  0  0  0  0  0  0  0  0  0  0  0
  139.8580   69.1430  224.8350 C   0  0  1  0  0  0  0  0  0  0  0  0
  138.6050   68.8200  224.1150 C   0  0  0  0  0  0  0  0  0  0  0  0
  137.3620   69.1690  224.6620 C   0  0  0  0  0  0  0  0  0  0  0  0
  136.1780   68.8970  224.0230 C   0  0  0  0  0  0  0  0  0  0  0  0
  136.1470   68.2600  222.8000 C   0  0  0  0  0  0  0  0  0  0  0  0
  134.6200   67.9390  222.0330 Cl  0  0  0  0  0  0  0  0  0  0  0  0
  137.3550   67.9070  222.2420 C   0  0  0  0  0  0  0  0  0  0  0  0
  138.5530   68.1860  222.8950 C   0  0  0  0  0  0  0  0  0  0  0  0
  141.3470   74.9990  221.2500 C   0  0  0  0  0  0  0  0  0  0  0  0
  142.0170   75.5320  220.1560 C   0  0  0  0  0  0  0  0  0  0  0  0
  142.1390   76.9150  220.0210 C   0  0  0  0  0  0  0  0  0  0  0  0
  141.5940   77.7520  220.9710 C   0  0  0  0  0  0  0  0  0  0  0  0
  141.6860   79.1360  220.8870 C   0  0  0  0  0  0  0  0  0  0  0  0
  141.1060   79.8860  221.8940 C   0  0  0  0  0  0  0  0  0  0  0  0
  141.1840   81.6340  221.8470 Cl  0  0  0  0  0  0  0  0  0  0  0  0
  140.4510   79.3090  222.9590 C   0  0  0  0  0  0  0  0  0  0  0  0
  140.3550   77.9240  223.0510 C   0  0  0  0  0  0  0  0  0  0  0  0
  140.9360   77.1860  222.0440 C   0  0  0  0  0  0  0  0  0  0  0  0
  140.8290   75.8370  222.1560 N   0  0  0  0  0  0  0  0  0  0  0  0
  139.8030   73.6940  222.9760 H   0  0  0  0  0  0  0  0  0  0  0  0
  139.5827   71.1797  221.7026 H   0  0  0  0  0  0  0  0  0  0  0  0
  141.1962   71.1021  222.4740 H   0  0  0  0  0  0  0  0  0  0  0  0
  142.0874   70.9621  225.5755 H   0  0  0  0  0  0  0  0  0  0  0  0
  140.8926   72.3682  225.2653 H   0  0  0  0  0  0  0  0  0  0  0  0
  141.7060   71.8362  227.5826 H   0  0  0  0  0  0  0  0  0  0  0  0
  139.9268   72.1861  227.1393 H   0  0  0  0  0  0  0  0  0  0  0  0
  141.1501   69.5873  227.9420 H   0  0  0  0  0  0  0  0  0  0  0  0
  139.9526   70.6258  228.8289 H   0  0  0  0  0  0  0  0  0  0  0  0
  138.5054   69.1232  227.8793 H   0  0  0  0  0  0  0  0  0  0  0  0
  138.5624   70.3070  226.5644 H   0  0  0  0  0  0  0  0  0  0  0  0
  140.8311   68.3179  226.5980 H   0  0  0  0  0  0  0  0  0  0  0  0
  139.2393   67.6066  226.2658 H   0  0  0  0  0  0  0  0  0  0  0  0
  140.6628   68.6778  224.2469 H   0  0  0  0  0  0  0  0  0  0  0  0
  137.3348   69.6782  225.6366 H   0  0  0  0  0  0  0  0  0  0  0  0
  135.2312   69.1942  224.4976 H   0  0  0  0  0  0  0  0  0  0  0  0
  137.3742   67.3977  221.2672 H   0  0  0  0  0  0  0  0  0  0  0  0
  139.4968   67.8871  222.4155 H   0  0  0  0  0  0  0  0  0  0  0  0
  142.4508   74.8642  219.3971 H   0  0  0  0  0  0  0  0  0  0  0  0
  142.6705   77.3380  219.1558 H   0  0  0  0  0  0  0  0  0  0  0  0
  142.2040   79.6200  220.0459 H   0  0  0  0  0  0  0  0  0  0  0  0
  140.0032   79.9437  223.7378 H   0  0  0  0  0  0  0  0  0  0  0  0
  139.8373   77.4394  223.8919 H   0  0  0  0  0  0  0  0  0  0  0  0
  1  2  2  0
  2  3  1  0
  3  4  1  0
  4  5  1  0
  5  6  2  0
  5  7  1  0
  7  8  1  0
  8  9  1  0
  9 10  1  0
 10 11  1  0
 11 12  1  0
 12 13  1  0
 13 14  1  0
 14 15  2  0
 15 16  1  0
 16 17  2  0
 17 18  1  0
 17 19  1  0
 19 20  2  0
  2 21  1  0
 21 22  2  0
 22 23  1  0
 23 24  2  0
 24 25  1  0
 25 26  2  0
 26 27  1  0
 26 28  1  0
 28 29  2  0
 29 30  1  0
 30 31  2  0
 13  7  1  0
 20 14  1  0
 31 21  1  0
 30 24  1  0
  3 32  1  0
  4 33  1  0
  4 34  1  0
  8 35  1  0
  8 36  1  0
  9 37  1  0
  9 38  1  0
 10 39  1  0
 10 40  1  0
 11 41  1  0
 11 42  1  0
 12 43  1  0
 12 44  1  0
 13 45  1  6
 15 46  1  0
 16 47  1  0
 19 48  1  0
 20 49  1  0
 22 50  1  0
 23 51  1  0
 25 52  1  0
 28 53  1  0
 29 54  1  0
M  END
>  <smiles>  (90) 
O=C(NCC(=O)N1CCCCCC1c1ccc(Cl)cc1)c1ccc2cc(Cl)ccc2n1

>  <score_type>  (90) 
oracle

>  <origin>  (90) 
autodockgpu

>  <m_score__min__energy>  (90) 
-7.21

>  <m_primary>  (90) 
energy

>  <rmsd>  (90) 
8.71380745598059

>  <m_score__min__rmsd>  (90) 
8.71380745598059

>  <meeko>  (90) 
{"free_energy": -6.17, "intermolecular_energy": -9.45, "internal_energy": -1.83, "cluster_size": 3, "cluster_id": 5, "rank_in_cluster": 1}

>  <energy>  (90) 
-6.07

>  <cluster_rmsd>  (90) 
0.0

>  <cluster>  (90) 
6

$$$$

     RDKit          3D

 54 57  0  0  0  0  0  0  0  0999 V2000
  139.5950   72.0110  220.5970 O   0  0  0  0  0  0  0  0  0  0  0  0
  139.4640   72.4480  221.7790 C   0  0  0  0  0  0  0  0  0  0  0  0
  139.2010   73.8160  222.0690 N   0  0  0  0  0  0  0  0  0  0  0  0
  139.0770   74.7560  220.9520 C   0  0  0  0  0  0  0  0  0  0  0  0
  139.9740   75.9040  221.2000 C   0  0  0  0  0  0  0  0  0  0  0  0
  140.2500   76.2520  222.3760 O   0  0  0  0  0  0  0  0  0  0  0  0
  140.5750   76.6770  220.1280 N   0  0  0  0  0  0  0  0  0  0  0  0
  140.3130   78.0770  220.2920 C   0  0  0  0  0  0  0  0  0  0  0  0
  140.9940   79.0350  219.4130 C   0  0  0  0  0  0  0  0  0  0  0  0
  140.8050   78.9060  217.9430 C   0  0  0  0  0  0  0  0  0  0  0  0
  140.4880   77.4920  217.5330 C   0  0  0  0  0  0  0  0  0  0  0  0
  141.6950   76.6630  217.9520 C   0  0  0  0  0  0  0  0  0  0  0  0
  141.2700   75.8600  219.1900 C   0  0  1  0  0  0  0  0  0  0  0  0
  142.4320   75.1110  219.7230 C   0  0  0  0  0  0  0  0  0  0  0  0
  143.6610   75.7570  219.9220 C   0  0  0  0  0  0  0  0  0  0  0  0
  144.7590   75.1030  220.4230 C   0  0  0  0  0  0  0  0  0  0  0  0
  144.7120   73.7670  220.7600 C   0  0  0  0  0  0  0  0  0  0  0  0
  146.1320   72.9860  221.3910 Cl  0  0  0  0  0  0  0  0  0  0  0  0
  143.5160   73.1100  220.5740 C   0  0  0  0  0  0  0  0  0  0  0  0
  142.4060   73.7800  220.0660 C   0  0  0  0  0  0  0  0  0  0  0  0
  139.5870   71.5130  222.9150 C   0  0  0  0  0  0  0  0  0  0  0  0
  139.1150   70.2140  222.7840 C   0  0  0  0  0  0  0  0  0  0  0  0
  139.2250   69.3230  223.8520 C   0  0  0  0  0  0  0  0  0  0  0  0
  139.8030   69.7320  225.0340 C   0  0  0  0  0  0  0  0  0  0  0  0
  139.9390   68.8860  226.1290 C   0  0  0  0  0  0  0  0  0  0  0  0
  140.5330   69.3940  227.2700 C   0  0  0  0  0  0  0  0  0  0  0  0
  140.7360   68.3820  228.6840 Cl  0  0  0  0  0  0  0  0  0  0  0  0
  140.9850   70.6930  227.3500 C   0  0  0  0  0  0  0  0  0  0  0  0
  140.8530   71.5450  226.2580 C   0  0  0  0  0  0  0  0  0  0  0  0
  140.2610   71.0290  225.1270 C   0  0  0  0  0  0  0  0  0  0  0  0
  140.1430   71.8820  224.0760 N   0  0  0  0  0  0  0  0  0  0  0  0
  139.1020   74.1230  223.0620 H   0  0  0  0  0  0  0  0  0  0  0  0
  139.3639   74.2573  220.0144 H   0  0  0  0  0  0  0  0  0  0  0  0
  138.0368   75.1034  220.8670 H   0  0  0  0  0  0  0  0  0  0  0  0
  139.2318   78.2216  220.1505 H   0  0  0  0  0  0  0  0  0  0  0  0
  140.7121   78.3053  221.2913 H   0  0  0  0  0  0  0  0  0  0  0  0
  140.6489   80.0398  219.6981 H   0  0  0  0  0  0  0  0  0  0  0  0
  142.0636   78.8292  219.5667 H   0  0  0  0  0  0  0  0  0  0  0  0
  139.9757   79.5591  217.6336 H   0  0  0  0  0  0  0  0  0  0  0  0
  141.7466   79.1967  217.4543 H   0  0  0  0  0  0  0  0  0  0  0  0
  139.5820   77.1375  218.0462 H   0  0  0  0  0  0  0  0  0  0  0  0
  140.2969   77.4149  216.4525 H   0  0  0  0  0  0  0  0  0  0  0  0
  141.9871   75.9812  217.1397 H   0  0  0  0  0  0  0  0  0  0  0  0
  142.5590   77.3063  218.1749 H   0  0  0  0  0  0  0  0  0  0  0  0
  140.5281   75.0955  218.9159 H   0  0  0  0  0  0  0  0  0  0  0  0
  143.7479   76.8237  219.6680 H   0  0  0  0  0  0  0  0  0  0  0  0
  145.6989   75.6582  220.5588 H   0  0  0  0  0  0  0  0  0  0  0  0
  143.4366   72.0431  220.8298 H   0  0  0  0  0  0  0  0  0  0  0  0
  141.4683   73.2204  219.9335 H   0  0  0  0  0  0  0  0  0  0  0  0
  138.6550   69.8877  221.8396 H   0  0  0  0  0  0  0  0  0  0  0  0
  138.8502   68.2938  223.7504 H   0  0  0  0  0  0  0  0  0  0  0  0
  139.5852   67.8452  226.0890 H   0  0  0  0  0  0  0  0  0  0  0  0
  141.4506   71.0568  228.2779 H   0  0  0  0  0  0  0  0  0  0  0  0
  141.2064   72.5860  226.2965 H   0  0  0  0  0  0  0  0  0  0  0  0
  1  2  2  0
  2  3  1  0
  3  4  1  0
  4  5  1  0
  5  6  2  0
  5  7  1  0
  7  8  1  0
  8  9  1  0
  9 10  1  0
 10 11  1  0
 11 12  1  0
 12 13  1  0
 13 14  1  0
 14 15  2  0
 15 16  1  0
 16 17  2  0
 17 18  1  0
 17 19  1  0
 19 20  2  0
  2 21  1  0
 21 22  2  0
 22 23  1  0
 23 24  2  0
 24 25  1  0
 25 26  2  0
 26 27  1  0
 26 28  1  0
 28 29  2  0
 29 30  1  0
 30 31  2  0
 13  7  1  0
 20 14  1  0
 31 21  1  0
 30 24  1  0
  3 32  1  0
  4 33  1  0
  4 34  1  0
  8 35  1  0
  8 36  1  0
  9 37  1  0
  9 38  1  0
 10 39  1  0
 10 40  1  0
 11 41  1  0
 11 42  1  0
 12 43  1  0
 12 44  1  0
 13 45  1  6
 15 46  1  0
 16 47  1  0
 19 48  1  0
 20 49  1  0
 22 50  1  0
 23 51  1  0
 25 52  1  0
 28 53  1  0
 29 54  1  0
M  END
>  <smiles>  (91) 
O=C(NCC(=O)N1CCCCCC1c1ccc(Cl)cc1)c1ccc2cc(Cl)ccc2n1

>  <score_type>  (91) 
oracle

>  <origin>  (91) 
autodockgpu

>  <m_score__min__energy>  (91) 
-7.21

>  <m_primary>  (91) 
energy

>  <rmsd>  (91) 
2.1252364609598207

>  <m_score__min__rmsd>  (91) 
2.1252364609598207

>  <meeko>  (91) 
{"free_energy": -5.9, "intermolecular_energy": -9.18, "internal_energy": -2.33, "cluster_size": 2, "cluster_id": 6, "rank_in_cluster": 2}

>  <energy>  (91) 
-5.9

>  <cluster_rmsd>  (91) 
0.63

>  <cluster>  (91) 
6

$$$$

     RDKit          3D

 54 57  0  0  0  0  0  0  0  0999 V2000
  140.2550   72.5820  220.6600 O   0  0  0  0  0  0  0  0  0  0  0  0
  139.8920   72.9270  221.8250 C   0  0  0  0  0  0  0  0  0  0  0  0
  139.4420   74.2410  222.1330 N   0  0  0  0  0  0  0  0  0  0  0  0
  139.3980   75.2360  221.0580 C   0  0  0  0  0  0  0  0  0  0  0  0
  140.2920   76.3570  221.4170 C   0  0  0  0  0  0  0  0  0  0  0  0
  140.2260   76.8830  222.5560 O   0  0  0  0  0  0  0  0  0  0  0  0
  141.2740   76.9040  220.4980 N   0  0  0  0  0  0  0  0  0  0  0  0
  141.7970   78.1470  220.9810 C   0  0  0  0  0  0  0  0  0  0  0  0
  141.6830   79.3430  220.1370 C   0  0  0  0  0  0  0  0  0  0  0  0
  141.9930   79.2190  218.6870 C   0  0  0  0  0  0  0  0  0  0  0  0
  142.7220   77.9410  218.3690 C   0  0  0  0  0  0  0  0  0  0  0  0
  141.6370   76.9100  218.0760 C   0  0  0  0  0  0  0  0  0  0  0  0
  141.4710   76.0750  219.3550 C   0  0  1  0  0  0  0  0  0  0  0  0
  142.5740   75.0910  219.4540 C   0  0  0  0  0  0  0  0  0  0  0  0
  142.4530   73.8280  218.8580 C   0  0  0  0  0  0  0  0  0  0  0  0
  143.4550   72.8910  218.9180 C   0  0  0  0  0  0  0  0  0  0  0  0
  144.6420   73.1440  219.5730 C   0  0  0  0  0  0  0  0  0  0  0  0
  145.8790   71.9220  219.6190 Cl  0  0  0  0  0  0  0  0  0  0  0  0
  144.7840   74.3780  220.1670 C   0  0  0  0  0  0  0  0  0  0  0  0
  143.7650   75.3240  220.1020 C   0  0  0  0  0  0  0  0  0  0  0  0
  139.9300   71.9370  222.9190 C   0  0  0  0  0  0  0  0  0  0  0  0
  139.4530   70.6520  222.6940 C   0  0  0  0  0  0  0  0  0  0  0  0
  139.4840   69.7080  223.7210 C   0  0  0  0  0  0  0  0  0  0  0  0
  139.9890   70.0510  224.9570 C   0  0  0  0  0  0  0  0  0  0  0  0
  140.0440   69.1510  226.0150 C   0  0  0  0  0  0  0  0  0  0  0  0
  140.5680   69.5950  227.2150 C   0  0  0  0  0  0  0  0  0  0  0  0
  140.6680   68.5120  228.5870 Cl  0  0  0  0  0  0  0  0  0  0  0  0
  141.0300   70.8810  227.3880 C   0  0  0  0  0  0  0  0  0  0  0  0
  140.9780   71.7870  226.3340 C   0  0  0  0  0  0  0  0  0  0  0  0
  140.4540   71.3360  225.1430 C   0  0  0  0  0  0  0  0  0  0  0  0
  140.4140   72.2400  224.1290 N   0  0  0  0  0  0  0  0  0  0  0  0
  139.1530   74.4720  223.1100 H   0  0  0  0  0  0  0  0  0  0  0  0
  139.7360   74.7793  220.1161 H   0  0  0  0  0  0  0  0  0  0  0  0
  138.3692   75.6026  220.9268 H   0  0  0  0  0  0  0  0  0  0  0  0
  141.2797   78.3689  221.9261 H   0  0  0  0  0  0  0  0  0  0  0  0
  142.8810   77.9706  221.0437 H   0  0  0  0  0  0  0  0  0  0  0  0
  140.6459   79.7005  220.2182 H   0  0  0  0  0  0  0  0  0  0  0  0
  142.4595   80.0203  220.5221 H   0  0  0  0  0  0  0  0  0  0  0  0
  141.0505   79.2398  218.1201 H   0  0  0  0  0  0  0  0  0  0  0  0
  142.6463   80.0589  218.4081 H   0  0  0  0  0  0  0  0  0  0  0  0
  143.3694   78.0770  217.4902 H   0  0  0  0  0  0  0  0  0  0  0  0
  143.3693   77.6247  219.2003 H   0  0  0  0  0  0  0  0  0  0  0  0
  140.6917   77.4139  217.8259 H   0  0  0  0  0  0  0  0  0  0  0  0
  141.9118   76.2760  217.2202 H   0  0  0  0  0  0  0  0  0  0  0  0
  140.5474   75.4793  219.3083 H   0  0  0  0  0  0  0  0  0  0  0  0
  141.5240   73.5791  218.3242 H   0  0  0  0  0  0  0  0  0  0  0  0
  143.3074   71.9153  218.4320 H   0  0  0  0  0  0  0  0  0  0  0  0
  145.7153   74.6195  220.7002 H   0  0  0  0  0  0  0  0  0  0  0  0
  143.9184   76.2983  220.5890 H   0  0  0  0  0  0  0  0  0  0  0  0
  139.0512   70.3789  221.7071 H   0  0  0  0  0  0  0  0  0  0  0  0
  139.1056   68.6903  223.5444 H   0  0  0  0  0  0  0  0  0  0  0  0
  139.6822   68.1185  225.9011 H   0  0  0  0  0  0  0  0  0  0  0  0
  141.4403   71.1916  228.3602 H   0  0  0  0  0  0  0  0  0  0  0  0
  141.3399   72.8196  226.4469 H   0  0  0  0  0  0  0  0  0  0  0  0
  1  2  2  0
  2  3  1  0
  3  4  1  0
  4  5  1  0
  5  6  2  0
  5  7  1  0
  7  8  1  0
  8  9  1  0
  9 10  1  0
 10 11  1  0
 11 12  1  0
 12 13  1  0
 13 14  1  0
 14 15  2  0
 15 16  1  0
 16 17  2  0
 17 18  1  0
 17 19  1  0
 19 20  2  0
  2 21  1  0
 21 22  2  0
 22 23  1  0
 23 24  2  0
 24 25  1  0
 25 26  2  0
 26 27  1  0
 26 28  1  0
 28 29  2  0
 29 30  1  0
 30 31  2  0
 13  7  1  0
 20 14  1  0
 31 21  1  0
 30 24  1  0
  3 32  1  0
  4 33  1  0
  4 34  1  0
  8 35  1  0
  8 36  1  0
  9 37  1  0
  9 38  1  0
 10 39  1  0
 10 40  1  0
 11 41  1  0
 11 42  1  0
 12 43  1  0
 12 44  1  0
 13 45  1  6
 15 46  1  0
 16 47  1  0
 19 48  1  0
 20 49  1  0
 22 50  1  0
 23 51  1  0
 25 52  1  0
 28 53  1  0
 29 54  1  0
M  END
>  <smiles>  (92) 
O=C(NCC(=O)N1CCCCCC1c1ccc(Cl)cc1)c1ccc2cc(Cl)ccc2n1

>  <score_type>  (92) 
oracle

>  <origin>  (92) 
autodockgpu

>  <m_score__min__energy>  (92) 
-7.21

>  <m_primary>  (92) 
energy

>  <rmsd>  (92) 
2.5150476691424855

>  <m_score__min__rmsd>  (92) 
2.5150476691424855

>  <meeko>  (92) 
{"free_energy": -6.51, "intermolecular_energy": -9.79, "internal_energy": -2.18, "cluster_size": 12, "cluster_id": 1, "rank_in_cluster": 3}

>  <energy>  (92) 
-5.54

>  <cluster_rmsd>  (92) 
0.0

>  <cluster>  (92) 
7

$$$$

     RDKit          3D

 54 57  0  0  0  0  0  0  0  0999 V2000
  139.5590   72.6930  220.6520 O   0  0  0  0  0  0  0  0  0  0  0  0
  139.5670   73.0080  221.8800 C   0  0  0  0  0  0  0  0  0  0  0  0
  139.4220   74.3510  222.3290 N   0  0  0  0  0  0  0  0  0  0  0  0
  139.2580   75.4100  221.3310 C   0  0  0  0  0  0  0  0  0  0  0  0
  138.2330   76.3580  221.8140 C   0  0  0  0  0  0  0  0  0  0  0  0
  138.1020   76.5790  223.0440 O   0  0  0  0  0  0  0  0  0  0  0  0
  137.3400   77.0730  220.9200 N   0  0  0  0  0  0  0  0  0  0  0  0
  136.2060   76.2680  220.5700 C   0  0  0  0  0  0  0  0  0  0  0  0
  134.8620   76.7460  220.9130 C   0  0  0  0  0  0  0  0  0  0  0  0
  134.6290   78.2140  220.9890 C   0  0  0  0  0  0  0  0  0  0  0  0
  135.5010   78.9780  220.0270 C   0  0  0  0  0  0  0  0  0  0  0  0
  136.7100   79.4370  220.8360 C   0  0  0  0  0  0  0  0  0  0  0  0
  137.8070   78.3850  220.6170 C   0  0  1  0  0  0  0  0  0  0  0  0
  139.0460   78.8050  221.3120 C   0  0  0  0  0  0  0  0  0  0  0  0
  138.9770   79.4920  222.5330 C   0  0  0  0  0  0  0  0  0  0  0  0
  140.1000   79.8900  223.2140 C   0  0  0  0  0  0  0  0  0  0  0  0
  141.3660   79.6320  222.7320 C   0  0  0  0  0  0  0  0  0  0  0  0
  142.7570   80.1570  223.6350 Cl  0  0  0  0  0  0  0  0  0  0  0  0
  141.4610   78.9580  221.5350 C   0  0  0  0  0  0  0  0  0  0  0  0
  140.3170   78.5570  220.8490 C   0  0  0  0  0  0  0  0  0  0  0  0
  139.7320   71.9540  222.8990 C   0  0  0  0  0  0  0  0  0  0  0  0
  139.3610   70.6500  222.5980 C   0  0  0  0  0  0  0  0  0  0  0  0
  139.5120   69.6450  223.5540 C   0  0  0  0  0  0  0  0  0  0  0  0
  140.0300   69.9460  224.7950 C   0  0  0  0  0  0  0  0  0  0  0  0
  140.2030   68.9850  225.7840 C   0  0  0  0  0  0  0  0  0  0  0  0
  140.7310   69.3910  226.9960 C   0  0  0  0  0  0  0  0  0  0  0  0
  140.9750   68.2300  228.2840 Cl  0  0  0  0  0  0  0  0  0  0  0  0
  141.0840   70.6990  227.2450 C   0  0  0  0  0  0  0  0  0  0  0  0
  140.9140   71.6660  226.2610 C   0  0  0  0  0  0  0  0  0  0  0  0
  140.3880   71.2520  225.0580 C   0  0  0  0  0  0  0  0  0  0  0  0
  140.2320   72.2160  224.1120 N   0  0  0  0  0  0  0  0  0  0  0  0
  139.4360   74.5560  223.3540 H   0  0  0  0  0  0  0  0  0  0  0  0
  140.2131   75.9371  221.1896 H   0  0  0  0  0  0  0  0  0  0  0  0
  138.9452   74.9757  220.3700 H   0  0  0  0  0  0  0  0  0  0  0  0
  136.2313   76.1325  219.4787 H   0  0  0  0  0  0  0  0  0  0  0  0
  136.3275   75.3611  221.1805 H   0  0  0  0  0  0  0  0  0  0  0  0
  134.1719   76.3463  220.1553 H   0  0  0  0  0  0  0  0  0  0  0  0
  134.7057   76.3945  221.9436 H   0  0  0  0  0  0  0  0  0  0  0  0
  133.5747   78.4184  220.7508 H   0  0  0  0  0  0  0  0  0  0  0  0
  134.8798   78.5439  222.0079 H   0  0  0  0  0  0  0  0  0  0  0  0
  135.8189   78.3275  219.1988 H   0  0  0  0  0  0  0  0  0  0  0  0
  134.9644   79.8293  219.5829 H   0  0  0  0  0  0  0  0  0  0  0  0
  137.0517   80.4213  220.4832 H   0  0  0  0  0  0  0  0  0  0  0  0
  136.4605   79.5349  221.9028 H   0  0  0  0  0  0  0  0  0  0  0  0
  138.0729   78.3229  219.5514 H   0  0  0  0  0  0  0  0  0  0  0  0
  137.9888   79.7195  222.9593 H   0  0  0  0  0  0  0  0  0  0  0  0
  139.9876   80.4276  224.1671 H   0  0  0  0  0  0  0  0  0  0  0  0
  142.4527   78.7335  221.1153 H   0  0  0  0  0  0  0  0  0  0  0  0
  140.4352   78.0192  219.8967 H   0  0  0  0  0  0  0  0  0  0  0  0
  138.9485   70.4097  221.6070 H   0  0  0  0  0  0  0  0  0  0  0  0
  139.2174   68.6120  223.3170 H   0  0  0  0  0  0  0  0  0  0  0  0
  139.9286   67.9344  225.6082 H   0  0  0  0  0  0  0  0  0  0  0  0
  141.5009   70.9786  228.2237 H   0  0  0  0  0  0  0  0  0  0  0  0
  141.1880   72.7169  226.4360 H   0  0  0  0  0  0  0  0  0  0  0  0
  1  2  2  0
  2  3  1  0
  3  4  1  0
  4  5  1  0
  5  6  2  0
  5  7  1  0
  7  8  1  0
  8  9  1  0
  9 10  1  0
 10 11  1  0
 11 12  1  0
 12 13  1  0
 13 14  1  0
 14 15  2  0
 15 16  1  0
 16 17  2  0
 17 18  1  0
 17 19  1  0
 19 20  2  0
  2 21  1  0
 21 22  2  0
 22 23  1  0
 23 24  2  0
 24 25  1  0
 25 26  2  0
 26 27  1  0
 26 28  1  0
 28 29  2  0
 29 30  1  0
 30 31  2  0
 13  7  1  0
 20 14  1  0
 31 21  1  0
 30 24  1  0
  3 32  1  0
  4 33  1  0
  4 34  1  0
  8 35  1  0
  8 36  1  0
  9 37  1  0
  9 38  1  0
 10 39  1  0
 10 40  1  0
 11 41  1  0
 11 42  1  0
 12 43  1  0
 12 44  1  0
 13 45  1  6
 15 46  1  0
 16 47  1  0
 19 48  1  0
 20 49  1  0
 22 50  1  0
 23 51  1  0
 25 52  1  0
 28 53  1  0
 29 54  1  0
M  END
>  <smiles>  (93) 
O=C(NCC(=O)N1CCCCCC1c1ccc(Cl)cc1)c1ccc2cc(Cl)ccc2n1

>  <score_type>  (93) 
oracle

>  <origin>  (93) 
autodockgpu

>  <m_score__min__energy>  (93) 
-7.21

>  <m_primary>  (93) 
energy

>  <rmsd>  (93) 
3.3254494388548728

>  <m_score__min__rmsd>  (93) 
3.3254494388548728

>  <meeko>  (93) 
{"free_energy": -5.54, "intermolecular_energy": -8.83, "internal_energy": -2.04, "cluster_size": 2, "cluster_id": 7, "rank_in_cluster": 1}

>  <energy>  (93) 
-5.53

>  <cluster_rmsd>  (93) 
0.48

>  <cluster>  (93) 
7

$$$$

     RDKit          3D

 54 57  0  0  0  0  0  0  0  0999 V2000
  140.1730   74.2150  222.3290 O   0  0  0  0  0  0  0  0  0  0  0  0
  140.0850   72.9870  222.0270 C   0  0  0  0  0  0  0  0  0  0  0  0
  139.9690   72.5320  220.6840 N   0  0  0  0  0  0  0  0  0  0  0  0
  139.9490   73.5250  219.6070 C   0  0  0  0  0  0  0  0  0  0  0  0
  141.2740   73.5390  218.9540 C   0  0  0  0  0  0  0  0  0  0  0  0
  141.4070   74.0090  217.7950 O   0  0  0  0  0  0  0  0  0  0  0  0
  142.4710   73.0230  219.5930 N   0  0  0  0  0  0  0  0  0  0  0  0
  142.5630   71.6000  219.4460 C   0  0  0  0  0  0  0  0  0  0  0  0
  143.7590   70.9100  219.9440 C   0  0  0  0  0  0  0  0  0  0  0  0
  145.0870   71.5440  219.7250 C   0  0  0  0  0  0  0  0  0  0  0  0
  145.2920   72.7510  220.6020 C   0  0  0  0  0  0  0  0  0  0  0  0
  144.7330   73.9330  219.8170 C   0  0  0  0  0  0  0  0  0  0  0  0
  143.2500   74.0510  220.2010 C   0  0  1  0  0  0  0  0  0  0  0  0
  142.7820   75.4360  219.9690 C   0  0  0  0  0  0  0  0  0  0  0  0
  143.2660   76.1760  218.8790 C   0  0  0  0  0  0  0  0  0  0  0  0
  142.8510   77.4590  218.6220 C   0  0  0  0  0  0  0  0  0  0  0  0
  141.9300   78.0940  219.4280 C   0  0  0  0  0  0  0  0  0  0  0  0
  141.4380   79.7210  219.0580 Cl  0  0  0  0  0  0  0  0  0  0  0  0
  141.4390   77.3890  220.5040 C   0  0  0  0  0  0  0  0  0  0  0  0
  141.8640   76.0880  220.7580 C   0  0  0  0  0  0  0  0  0  0  0  0
  140.1030   71.9730  223.0990 C   0  0  0  0  0  0  0  0  0  0  0  0
  139.6490   70.6890  222.8320 C   0  0  0  0  0  0  0  0  0  0  0  0
  139.6610   69.7230  223.8380 C   0  0  0  0  0  0  0  0  0  0  0  0
  140.1230   70.0430  225.0960 C   0  0  0  0  0  0  0  0  0  0  0  0
  140.1580   69.1210  226.1360 C   0  0  0  0  0  0  0  0  0  0  0  0
  140.6400   69.5440  227.3610 C   0  0  0  0  0  0  0  0  0  0  0  0
  140.7110   68.4320  228.7120 Cl  0  0  0  0  0  0  0  0  0  0  0  0
  141.0800   70.8310  227.5760 C   0  0  0  0  0  0  0  0  0  0  0  0
  141.0490   71.7600  226.5410 C   0  0  0  0  0  0  0  0  0  0  0  0
  140.5670   71.3290  225.3250 C   0  0  0  0  0  0  0  0  0  0  0  0
  140.5460   72.2550  224.3300 N   0  0  0  0  0  0  0  0  0  0  0  0
  139.9000   71.5070  220.4900 H   0  0  0  0  0  0  0  0  0  0  0  0
  139.1761   73.2581  218.8712 H   0  0  0  0  0  0  0  0  0  0  0  0
  139.7219   74.5200  220.0175 H   0  0  0  0  0  0  0  0  0  0  0  0
  141.6985   71.1651  219.9690 H   0  0  0  0  0  0  0  0  0  0  0  0
  142.6049   71.4490  218.3572 H   0  0  0  0  0  0  0  0  0  0  0  0
  143.6337   70.7855  221.0297 H   0  0  0  0  0  0  0  0  0  0  0  0
  143.8018   69.9839  219.3520 H   0  0  0  0  0  0  0  0  0  0  0  0
  145.8726   70.8068  219.9474 H   0  0  0  0  0  0  0  0  0  0  0  0
  145.1346   71.8755  218.6772 H   0  0  0  0  0  0  0  0  0  0  0  0
  144.7503   72.6311  221.5518 H   0  0  0  0  0  0  0  0  0  0  0  0
  146.3536   72.8955  220.8512 H   0  0  0  0  0  0  0  0  0  0  0  0
  145.2694   74.8551  220.0855 H   0  0  0  0  0  0  0  0  0  0  0  0
  144.8522   73.7827  218.7339 H   0  0  0  0  0  0  0  0  0  0  0  0
  143.1172   73.8726  221.2783 H   0  0  0  0  0  0  0  0  0  0  0  0
  144.0033   75.7118  218.2075 H   0  0  0  0  0  0  0  0  0  0  0  0
  143.2628   77.9929  217.7529 H   0  0  0  0  0  0  0  0  0  0  0  0
  140.7018   77.8597  221.1711 H   0  0  0  0  0  0  0  0  0  0  0  0
  141.4474   75.5587  221.6276 H   0  0  0  0  0  0  0  0  0  0  0  0
  139.2800   70.4334  221.8278 H   0  0  0  0  0  0  0  0  0  0  0  0
  139.3014   68.7051  223.6269 H   0  0  0  0  0  0  0  0  0  0  0  0
  139.8129   68.0870  225.9889 H   0  0  0  0  0  0  0  0  0  0  0  0
  141.4563   71.1248  228.5670 H   0  0  0  0  0  0  0  0  0  0  0  0
  141.3945   72.7940  226.6875 H   0  0  0  0  0  0  0  0  0  0  0  0
  1  2  2  0
  2  3  1  0
  3  4  1  0
  4  5  1  0
  5  6  2  0
  5  7  1  0
  7  8  1  0
  8  9  1  0
  9 10  1  0
 10 11  1  0
 11 12  1  0
 12 13  1  0
 13 14  1  0
 14 15  2  0
 15 16  1  0
 16 17  2  0
 17 18  1  0
 17 19  1  0
 19 20  2  0
  2 21  1  0
 21 22  2  0
 22 23  1  0
 23 24  2  0
 24 25  1  0
 25 26  2  0
 26 27  1  0
 26 28  1  0
 28 29  2  0
 29 30  1  0
 30 31  2  0
 13  7  1  0
 20 14  1  0
 31 21  1  0
 30 24  1  0
  3 32  1  0
  4 33  1  0
  4 34  1  0
  8 35  1  0
  8 36  1  0
  9 37  1  0
  9 38  1  0
 10 39  1  0
 10 40  1  0
 11 41  1  0
 11 42  1  0
 12 43  1  0
 12 44  1  0
 13 45  1  1
 15 46  1  0
 16 47  1  0
 19 48  1  0
 20 49  1  0
 22 50  1  0
 23 51  1  0
 25 52  1  0
 28 53  1  0
 29 54  1  0
M  END
>  <smiles>  (94) 
O=C(NCC(=O)N1CCCCCC1c1ccc(Cl)cc1)c1ccc2cc(Cl)ccc2n1

>  <score_type>  (94) 
oracle

>  <origin>  (94) 
autodockgpu

>  <m_score__min__energy>  (94) 
-7.21

>  <m_primary>  (94) 
energy

>  <rmsd>  (94) 
3.4267112979963383

>  <m_score__min__rmsd>  (94) 
3.4267112979963383

>  <meeko>  (94) 
{"free_energy": -6.39, "intermolecular_energy": -9.67, "internal_energy": -2.02, "cluster_size": 9, "cluster_id": 3, "rank_in_cluster": 3}

>  <energy>  (94) 
-4.93

>  <cluster_rmsd>  (94) 
0.0

>  <cluster>  (94) 
8

$$$$

     RDKit          3D

 54 57  0  0  0  0  0  0  0  0999 V2000
  139.7300   72.4460  221.1470 O   0  0  0  0  0  0  0  0  0  0  0  0
  138.9840   72.4420  222.1730 C   0  0  0  0  0  0  0  0  0  0  0  0
  137.8830   73.3300  222.3250 N   0  0  0  0  0  0  0  0  0  0  0  0
  137.6000   74.2870  221.2530 C   0  0  0  0  0  0  0  0  0  0  0  0
  138.5190   75.4360  221.3920 C   0  0  0  0  0  0  0  0  0  0  0  0
  138.2540   76.3690  222.1910 O   0  0  0  0  0  0  0  0  0  0  0  0
  139.7500   75.5540  220.6320 N   0  0  0  0  0  0  0  0  0  0  0  0
  139.5100   75.3890  219.2280 C   0  0  0  0  0  0  0  0  0  0  0  0
  140.4830   75.9280  218.2720 C   0  0  0  0  0  0  0  0  0  0  0  0
  141.9180   75.5740  218.4450 C   0  0  0  0  0  0  0  0  0  0  0  0
  142.5140   76.2040  219.6770 C   0  0  0  0  0  0  0  0  0  0  0  0
  142.1740   75.2660  220.8290 C   0  0  0  0  0  0  0  0  0  0  0  0
  140.8810   75.8030  221.4630 C   0  0  1  0  0  0  0  0  0  0  0  0
  141.0770   77.2110  221.8800 C   0  0  0  0  0  0  0  0  0  0  0  0
  141.4510   77.5150  223.1960 C   0  0  0  0  0  0  0  0  0  0  0  0
  141.6530   78.8050  223.6210 C   0  0  0  0  0  0  0  0  0  0  0  0
  141.4970   79.8780  222.7700 C   0  0  0  0  0  0  0  0  0  0  0  0
  141.7650   81.4930  223.3580 Cl  0  0  0  0  0  0  0  0  0  0  0  0
  141.1310   79.6050  221.4710 C   0  0  0  0  0  0  0  0  0  0  0  0
  140.9280   78.2950  221.0460 C   0  0  0  0  0  0  0  0  0  0  0  0
  139.2560   71.4850  223.2630 C   0  0  0  0  0  0  0  0  0  0  0  0
  138.8430   70.1660  223.1310 C   0  0  0  0  0  0  0  0  0  0  0  0
  139.0930   69.2530  224.1550 C   0  0  0  0  0  0  0  0  0  0  0  0
  139.7510   69.6600  225.2960 C   0  0  0  0  0  0  0  0  0  0  0  0
  140.0260   68.7930  226.3470 C   0  0  0  0  0  0  0  0  0  0  0  0
  140.6910   69.3010  227.4490 C   0  0  0  0  0  0  0  0  0  0  0  0
  141.0700   68.2630  228.8060 Cl  0  0  0  0  0  0  0  0  0  0  0  0
  141.0800   70.6200  227.5310 C   0  0  0  0  0  0  0  0  0  0  0  0
  140.8080   71.4930  226.4830 C   0  0  0  0  0  0  0  0  0  0  0  0
  140.1460   70.9780  225.3920 C   0  0  0  0  0  0  0  0  0  0  0  0
  139.8910   71.8510  224.3820 N   0  0  0  0  0  0  0  0  0  0  0  0
  137.3000   73.2850  223.1910 H   0  0  0  0  0  0  0  0  0  0  0  0
  137.7540   73.8054  220.2761 H   0  0  0  0  0  0  0  0  0  0  0  0
  136.5570   74.6297  221.3209 H   0  0  0  0  0  0  0  0  0  0  0  0
  139.4367   74.3079  219.0384 H   0  0  0  0  0  0  0  0  0  0  0  0
  138.6026   75.9830  219.0440 H   0  0  0  0  0  0  0  0  0  0  0  0
  140.1815   75.5829  217.2720 H   0  0  0  0  0  0  0  0  0  0  0  0
  140.4513   77.0148  218.4387 H   0  0  0  0  0  0  0  0  0  0  0  0
  142.0058   74.4807  218.5282 H   0  0  0  0  0  0  0  0  0  0  0  0
  142.4677   75.9539  217.5713 H   0  0  0  0  0  0  0  0  0  0  0  0
  143.6046   76.2988  219.5693 H   0  0  0  0  0  0  0  0  0  0  0  0
  142.1161   77.2153  219.8474 H   0  0  0  0  0  0  0  0  0  0  0  0
  142.0169   74.2442  220.4532 H   0  0  0  0  0  0  0  0  0  0  0  0
  142.9910   75.2274  221.5645 H   0  0  0  0  0  0  0  0  0  0  0  0
  140.6482   75.2519  222.3861 H   0  0  0  0  0  0  0  0  0  0  0  0
  141.5874   76.6920  223.9130 H   0  0  0  0  0  0  0  0  0  0  0  0
  141.9463   78.9864  224.6655 H   0  0  0  0  0  0  0  0  0  0  0  0
  140.9972   80.4332  220.7595 H   0  0  0  0  0  0  0  0  0  0  0  0
  140.6364   78.1193  220.0000 H   0  0  0  0  0  0  0  0  0  0  0  0
  138.3192   69.8416  222.2197 H   0  0  0  0  0  0  0  0  0  0  0  0
  138.7652   68.2080  224.0523 H   0  0  0  0  0  0  0  0  0  0  0  0
  139.7244   67.7360  226.3041 H   0  0  0  0  0  0  0  0  0  0  0  0
  141.6062   70.9831  228.4261 H   0  0  0  0  0  0  0  0  0  0  0  0
  141.1092   72.5501  226.5245 H   0  0  0  0  0  0  0  0  0  0  0  0
  1  2  2  0
  2  3  1  0
  3  4  1  0
  4  5  1  0
  5  6  2  0
  5  7  1  0
  7  8  1  0
  8  9  1  0
  9 10  1  0
 10 11  1  0
 11 12  1  0
 12 13  1  0
 13 14  1  0
 14 15  2  0
 15 16  1  0
 16 17  2  0
 17 18  1  0
 17 19  1  0
 19 20  2  0
  2 21  1  0
 21 22  2  0
 22 23  1  0
 23 24  2  0
 24 25  1  0
 25 26  2  0
 26 27  1  0
 26 28  1  0
 28 29  2  0
 29 30  1  0
 30 31  2  0
 13  7  1  0
 20 14  1  0
 31 21  1  0
 30 24  1  0
  3 32  1  0
  4 33  1  0
  4 34  1  0
  8 35  1  0
  8 36  1  0
  9 37  1  0
  9 38  1  0
 10 39  1  0
 10 40  1  0
 11 41  1  0
 11 42  1  0
 12 43  1  0
 12 44  1  0
 13 45  1  1
 15 46  1  0
 16 47  1  0
 19 48  1  0
 20 49  1  0
 22 50  1  0
 23 51  1  0
 25 52  1  0
 28 53  1  0
 29 54  1  0
M  END
>  <smiles>  (95) 
O=C(NCC(=O)N1CCCCCC1c1ccc(Cl)cc1)c1ccc2cc(Cl)ccc2n1

>  <score_type>  (95) 
oracle

>  <origin>  (95) 
autodockgpu

>  <m_score__min__energy>  (95) 
-7.21

>  <m_primary>  (95) 
energy

>  <rmsd>  (95) 
1.5892768637976982

>  <m_score__min__rmsd>  (95) 
1.5892768637976982

>  <meeko>  (95) 
{"free_energy": -6.81, "intermolecular_energy": -10.09, "internal_energy": -1.77, "cluster_size": 9, "cluster_id": 2, "rank_in_cluster": 2}

>  <energy>  (95) 
-4.45

>  <cluster_rmsd>  (95) 
1.24

>  <cluster>  (95) 
8

$$$$

     RDKit          3D

 54 57  0  0  0  0  0  0  0  0999 V2000
  142.0810   72.6510  220.8080 O   0  0  0  0  0  0  0  0  0  0  0  0
  141.3240   73.4210  221.4710 C   0  0  0  0  0  0  0  0  0  0  0  0
  140.3740   72.9400  222.4140 N   0  0  0  0  0  0  0  0  0  0  0  0
  140.2670   71.4950  222.6260 C   0  0  0  0  0  0  0  0  0  0  0  0
  139.4850   71.2550  223.8570 C   0  0  0  0  0  0  0  0  0  0  0  0
  138.3320   71.7390  223.9820 O   0  0  0  0  0  0  0  0  0  0  0  0
  139.9900   70.4670  224.9670 N   0  0  0  0  0  0  0  0  0  0  0  0
  140.8400   71.2510  225.8130 C   0  0  0  0  0  0  0  0  0  0  0  0
  140.6600   71.1770  227.2680 C   0  0  0  0  0  0  0  0  0  0  0  0
  140.7380   69.8440  227.9240 C   0  0  0  0  0  0  0  0  0  0  0  0
  140.9000   68.7280  226.9260 C   0  0  0  0  0  0  0  0  0  0  0  0
  139.5100   68.5010  226.3440 C   0  0  0  0  0  0  0  0  0  0  0  0
  139.5170   69.1220  224.9400 C   0  0  1  0  0  0  0  0  0  0  0  0
  138.1990   68.9150  224.2960 C   0  0  0  0  0  0  0  0  0  0  0  0
  138.1160   68.3440  223.0180 C   0  0  0  0  0  0  0  0  0  0  0  0
  136.9150   68.1260  222.3890 C   0  0  0  0  0  0  0  0  0  0  0  0
  135.7180   68.4590  222.9860 C   0  0  0  0  0  0  0  0  0  0  0  0
  134.2240   68.1610  222.1470 Cl  0  0  0  0  0  0  0  0  0  0  0  0
  135.7720   69.0210  224.2420 C   0  0  0  0  0  0  0  0  0  0  0  0
  136.9940   69.2390  224.8730 C   0  0  0  0  0  0  0  0  0  0  0  0
  141.4190   74.8800  221.2690 C   0  0  0  0  0  0  0  0  0  0  0  0
  142.0210   75.3720  220.1190 C   0  0  0  0  0  0  0  0  0  0  0  0
  142.1160   76.7500  219.9180 C   0  0  0  0  0  0  0  0  0  0  0  0
  141.6130   77.6200  220.8600 C   0  0  0  0  0  0  0  0  0  0  0  0
  141.6810   79.0010  220.7120 C   0  0  0  0  0  0  0  0  0  0  0  0
  141.1460   79.7870  221.7160 C   0  0  0  0  0  0  0  0  0  0  0  0
  141.1970   81.5330  221.5900 Cl  0  0  0  0  0  0  0  0  0  0  0  0
  140.5580   79.2490  222.8390 C   0  0  0  0  0  0  0  0  0  0  0  0
  140.4860   77.8690  222.9950 C   0  0  0  0  0  0  0  0  0  0  0  0
  141.0220   77.0950  221.9900 C   0  0  0  0  0  0  0  0  0  0  0  0
  140.9400   75.7500  222.1660 N   0  0  0  0  0  0  0  0  0  0  0  0
  139.7740   73.6200  222.9340 H   0  0  0  0  0  0  0  0  0  0  0  0
  139.7586   71.0313  221.7678 H   0  0  0  0  0  0  0  0  0  0  0  0
  141.2701   71.0549  222.7266 H   0  0  0  0  0  0  0  0  0  0  0  0
  141.8755   70.9467  225.6005 H   0  0  0  0  0  0  0  0  0  0  0  0
  140.5722   72.2891  225.5666 H   0  0  0  0  0  0  0  0  0  0  0  0
  141.4356   71.8098  227.7242 H   0  0  0  0  0  0  0  0  0  0  0  0
  139.6197   71.4966  227.4282 H   0  0  0  0  0  0  0  0  0  0  0  0
  141.5995   69.8355  228.6079 H   0  0  0  0  0  0  0  0  0  0  0  0
  139.7952   69.6784  228.4660 H   0  0  0  0  0  0  0  0  0  0  0  0
  141.6059   69.0191  226.1342 H   0  0  0  0  0  0  0  0  0  0  0  0
  141.3019   67.8167  227.3929 H   0  0  0  0  0  0  0  0  0  0  0  0
  139.2956   67.4239  226.2818 H   0  0  0  0  0  0  0  0  0  0  0  0
  138.7349   68.9582  226.9767 H   0  0  0  0  0  0  0  0  0  0  0  0
  140.2440   68.6064  224.2954 H   0  0  0  0  0  0  0  0  0  0  0  0
  139.0450   68.0609  222.5015 H   0  0  0  0  0  0  0  0  0  0  0  0
  136.9080   67.6752  221.3856 H   0  0  0  0  0  0  0  0  0  0  0  0
  134.8389   69.3010  224.7528 H   0  0  0  0  0  0  0  0  0  0  0  0
  136.9952   69.6899  225.8764 H   0  0  0  0  0  0  0  0  0  0  0  0
  142.4226   74.6768  219.3671 H   0  0  0  0  0  0  0  0  0  0  0  0
  142.5927   77.1413  219.0071 H   0  0  0  0  0  0  0  0  0  0  0  0
  142.1459   79.4540  219.8239 H   0  0  0  0  0  0  0  0  0  0  0  0
  140.1447   79.9117  223.6137 H   0  0  0  0  0  0  0  0  0  0  0  0
  140.0210   77.4153  223.8827 H   0  0  0  0  0  0  0  0  0  0  0  0
  1  2  2  0
  2  3  1  0
  3  4  1  0
  4  5  1  0
  5  6  2  0
  5  7  1  0
  7  8  1  0
  8  9  1  0
  9 10  1  0
 10 11  1  0
 11 12  1  0
 12 13  1  0
 13 14  1  0
 14 15  2  0
 15 16  1  0
 16 17  2  0
 17 18  1  0
 17 19  1  0
 19 20  2  0
  2 21  1  0
 21 22  2  0
 22 23  1  0
 23 24  2  0
 24 25  1  0
 25 26  2  0
 26 27  1  0
 26 28  1  0
 28 29  2  0
 29 30  1  0
 30 31  2  0
 13  7  1  0
 20 14  1  0
 31 21  1  0
 30 24  1  0
  3 32  1  0
  4 33  1  0
  4 34  1  0
  8 35  1  0
  8 36  1  0
  9 37  1  0
  9 38  1  0
 10 39  1  0
 10 40  1  0
 11 41  1  0
 11 42  1  0
 12 43  1  0
 12 44  1  0
 13 45  1  6
 15 46  1  0
 16 47  1  0
 19 48  1  0
 20 49  1  0
 22 50  1  0
 23 51  1  0
 25 52  1  0
 28 53  1  0
 29 54  1  0
M  END
>  <smiles>  (96) 
O=C(NCC(=O)N1CCCCCC1c1ccc(Cl)cc1)c1ccc2cc(Cl)ccc2n1

>  <score_type>  (96) 
oracle

>  <origin>  (96) 
autodockgpu

>  <m_score__min__energy>  (96) 
-7.21

>  <m_primary>  (96) 
energy

>  <rmsd>  (96) 
8.74671653405861

>  <m_score__min__rmsd>  (96) 
8.74671653405861

>  <meeko>  (96) 
{"free_energy": -5.8, "intermolecular_energy": -9.08, "internal_energy": -1.87, "cluster_size": 3, "cluster_id": 5, "rank_in_cluster": 2}

>  <energy>  (96) 
-4.43

>  <cluster_rmsd>  (96) 
1.53

>  <cluster>  (96) 
8

$$$$

     RDKit          3D

 54 57  0  0  0  0  0  0  0  0999 V2000
  139.2570   71.6220  220.6950 O   0  0  0  0  0  0  0  0  0  0  0  0
  139.5620   72.0940  221.8320 C   0  0  0  0  0  0  0  0  0  0  0  0
  139.8230   73.4760  222.0460 N   0  0  0  0  0  0  0  0  0  0  0  0
  139.7350   74.3900  220.9050 C   0  0  0  0  0  0  0  0  0  0  0  0
  140.8210   74.0660  219.9560 C   0  0  0  0  0  0  0  0  0  0  0  0
  140.6110   74.0930  218.7170 O   0  0  0  0  0  0  0  0  0  0  0  0
  142.1590   73.7040  220.3860 N   0  0  0  0  0  0  0  0  0  0  0  0
  142.2800   72.2870  220.5630 C   0  0  0  0  0  0  0  0  0  0  0  0
  143.3360   71.5680  219.8410 C   0  0  0  0  0  0  0  0  0  0  0  0
  144.7170   72.1220  219.8690 C   0  0  0  0  0  0  0  0  0  0  0  0
  144.8560   73.2530  220.8530 C   0  0  0  0  0  0  0  0  0  0  0  0
  144.4510   74.5150  220.0930 C   0  0  0  0  0  0  0  0  0  0  0  0
  143.0120   74.8380  220.5240 C   0  0  1  0  0  0  0  0  0  0  0  0
  142.5550   76.0740  219.8480 C   0  0  0  0  0  0  0  0  0  0  0  0
  142.8710   76.3050  218.5010 C   0  0  0  0  0  0  0  0  0  0  0  0
  142.4590   77.4310  217.8340 C   0  0  0  0  0  0  0  0  0  0  0  0
  141.7060   78.4040  218.4570 C   0  0  0  0  0  0  0  0  0  0  0  0
  141.2090   79.8130  217.5670 Cl  0  0  0  0  0  0  0  0  0  0  0  0
  141.3820   78.2010  219.7800 C   0  0  0  0  0  0  0  0  0  0  0  0
  141.8040   77.0560  220.4500 C   0  0  0  0  0  0  0  0  0  0  0  0
  139.6550   71.1860  222.9910 C   0  0  0  0  0  0  0  0  0  0  0  0
  139.1270   69.9050  222.9000 C   0  0  0  0  0  0  0  0  0  0  0  0
  139.2090   69.0380  223.9900 C   0  0  0  0  0  0  0  0  0  0  0  0
  139.8150   69.4540  225.1570 C   0  0  0  0  0  0  0  0  0  0  0  0
  139.9240   68.6330  226.2730 C   0  0  0  0  0  0  0  0  0  0  0  0
  140.5490   69.1460  227.3950 C   0  0  0  0  0  0  0  0  0  0  0  0
  140.7210   68.1640  228.8340 Cl  0  0  0  0  0  0  0  0  0  0  0  0
  141.0570   70.4250  227.4350 C   0  0  0  0  0  0  0  0  0  0  0  0
  140.9520   71.2520  226.3230 C   0  0  0  0  0  0  0  0  0  0  0  0
  140.3280   70.7330  225.2110 C   0  0  0  0  0  0  0  0  0  0  0  0
  140.2370   71.5610  224.1370 N   0  0  0  0  0  0  0  0  0  0  0  0
  140.0710   73.8120  223.0040 H   0  0  0  0  0  0  0  0  0  0  0  0
  138.7609   74.2700  220.4084 H   0  0  0  0  0  0  0  0  0  0  0  0
  139.8342   75.4303  221.2485 H   0  0  0  0  0  0  0  0  0  0  0  0
  142.4443   72.1089  221.6360 H   0  0  0  0  0  0  0  0  0  0  0  0
  141.3486   71.8870  220.1357 H   0  0  0  0  0  0  0  0  0  0  0  0
  143.3844   70.5529  220.2620 H   0  0  0  0  0  0  0  0  0  0  0  0
  143.0377   71.6396  218.7846 H   0  0  0  0  0  0  0  0  0  0  0  0
  145.4149   71.3197  220.1505 H   0  0  0  0  0  0  0  0  0  0  0  0
  144.9432   72.5161  218.8673 H   0  0  0  0  0  0  0  0  0  0  0  0
  144.1916   73.0949  221.7153 H   0  0  0  0  0  0  0  0  0  0  0  0
  145.8813   73.3265  221.2445 H   0  0  0  0  0  0  0  0  0  0  0  0
  145.1218   75.3472  220.3527 H   0  0  0  0  0  0  0  0  0  0  0  0
  144.5171   74.3640  219.0054 H   0  0  0  0  0  0  0  0  0  0  0  0
  142.9737   75.0590  221.6009 H   0  0  0  0  0  0  0  0  0  0  0  0
  143.4701   75.5573  217.9606 H   0  0  0  0  0  0  0  0  0  0  0  0
  142.7359   77.5607  216.7773 H   0  0  0  0  0  0  0  0  0  0  0  0
  140.7824   78.9529  220.3139 H   0  0  0  0  0  0  0  0  0  0  0  0
  141.5246   76.9315  221.5066 H   0  0  0  0  0  0  0  0  0  0  0  0
  138.6442   69.5738  221.9687 H   0  0  0  0  0  0  0  0  0  0  0  0
  138.7906   68.0232  223.9187 H   0  0  0  0  0  0  0  0  0  0  0  0
  139.5258   67.6076  226.2642 H   0  0  0  0  0  0  0  0  0  0  0  0
  141.5468   70.7929  228.3486 H   0  0  0  0  0  0  0  0  0  0  0  0
  141.3504   72.2773  226.3310 H   0  0  0  0  0  0  0  0  0  0  0  0
  1  2  2  0
  2  3  1  0
  3  4  1  0
  4  5  1  0
  5  6  2  0
  5  7  1  0
  7  8  1  0
  8  9  1  0
  9 10  1  0
 10 11  1  0
 11 12  1  0
 12 13  1  0
 13 14  1  0
 14 15  2  0
 15 16  1  0
 16 17  2  0
 17 18  1  0
 17 19  1  0
 19 20  2  0
  2 21  1  0
 21 22  2  0
 22 23  1  0
 23 24  2  0
 24 25  1  0
 25 26  2  0
 26 27  1  0
 26 28  1  0
 28 29  2  0
 29 30  1  0
 30 31  2  0
 13  7  1  0
 20 14  1  0
 31 21  1  0
 30 24  1  0
  3 32  1  0
  4 33  1  0
  4 34  1  0
  8 35  1  0
  8 36  1  0
  9 37  1  0
  9 38  1  0
 10 39  1  0
 10 40  1  0
 11 41  1  0
 11 42  1  0
 12 43  1  0
 12 44  1  0
 13 45  1  1
 15 46  1  0
 16 47  1  0
 19 48  1  0
 20 49  1  0
 22 50  1  0
 23 51  1  0
 25 52  1  0
 28 53  1  0
 29 54  1  0
M  END
>  <smiles>  (97) 
O=C(NCC(=O)N1CCCCCC1c1ccc(Cl)cc1)c1ccc2cc(Cl)ccc2n1

>  <score_type>  (97) 
oracle

>  <origin>  (97) 
autodockgpu

>  <m_score__min__energy>  (97) 
-7.21

>  <m_primary>  (97) 
energy

>  <rmsd>  (97) 
2.9574619698645104

>  <m_score__min__rmsd>  (97) 
2.9574619698645104

>  <meeko>  (97) 
{"free_energy": -5.71, "intermolecular_energy": -8.99, "internal_energy": -2.05, "cluster_size": 9, "cluster_id": 3, "rank_in_cluster": 8}

>  <energy>  (97) 
-4.81

>  <cluster_rmsd>  (97) 
0.0

>  <cluster>  (97) 
9

$$$$

     RDKit          3D

 54 57  0  0  0  0  0  0  0  0999 V2000
  137.9410   71.5560  221.0290 O   0  0  0  0  0  0  0  0  0  0  0  0
  138.5370   72.0210  222.0460 C   0  0  0  0  0  0  0  0  0  0  0  0
  138.8810   73.3960  222.1740 N   0  0  0  0  0  0  0  0  0  0  0  0
  138.5330   74.3090  221.0830 C   0  0  0  0  0  0  0  0  0  0  0  0
  139.4830   74.1010  219.9710 C   0  0  0  0  0  0  0  0  0  0  0  0
  139.3890   73.0850  219.2370 O   0  0  0  0  0  0  0  0  0  0  0  0
  140.5550   75.0320  219.6680 N   0  0  0  0  0  0  0  0  0  0  0  0
  140.4920   75.4660  218.3040 C   0  0  0  0  0  0  0  0  0  0  0  0
  141.7000   75.3810  217.4740 C   0  0  0  0  0  0  0  0  0  0  0  0
  142.9590   74.8970  218.1030 C   0  0  0  0  0  0  0  0  0  0  0  0
  143.3210   75.6890  219.3320 C   0  0  0  0  0  0  0  0  0  0  0  0
  142.8450   74.8570  220.5170 C   0  0  0  0  0  0  0  0  0  0  0  0
  141.3940   75.2810  220.7940 C   0  0  1  0  0  0  0  0  0  0  0  0
  141.3710   76.6640  221.3220 C   0  0  0  0  0  0  0  0  0  0  0  0
  141.6910   77.7470  220.4900 C   0  0  0  0  0  0  0  0  0  0  0  0
  141.6710   79.0450  220.9370 C   0  0  0  0  0  0  0  0  0  0  0  0
  141.3330   79.3560  222.2370 C   0  0  0  0  0  0  0  0  0  0  0  0
  141.3240   81.0170  222.7530 Cl  0  0  0  0  0  0  0  0  0  0  0  0
  141.0140   78.3100  223.0740 C   0  0  0  0  0  0  0  0  0  0  0  0
  141.0350   76.9960  222.6140 C   0  0  0  0  0  0  0  0  0  0  0  0
  138.8960   71.1140  223.1540 C   0  0  0  0  0  0  0  0  0  0  0  0
  138.5010   69.7840  223.1010 C   0  0  0  0  0  0  0  0  0  0  0  0
  138.8340   68.9180  224.1430 C   0  0  0  0  0  0  0  0  0  0  0  0
  139.5550   69.3820  225.2220 C   0  0  0  0  0  0  0  0  0  0  0  0
  139.9140   68.5630  226.2860 C   0  0  0  0  0  0  0  0  0  0  0  0
  140.6390   69.1280  227.3210 C   0  0  0  0  0  0  0  0  0  0  0  0
  141.1240   68.1520  228.6910 Cl  0  0  0  0  0  0  0  0  0  0  0  0
  141.0060   70.4540  227.3250 C   0  0  0  0  0  0  0  0  0  0  0  0
  140.6510   71.2800  226.2640 C   0  0  0  0  0  0  0  0  0  0  0  0
  139.9300   70.7090  225.2390 C   0  0  0  0  0  0  0  0  0  0  0  0
  139.5950   71.5360  224.2140 N   0  0  0  0  0  0  0  0  0  0  0  0
  139.3730   73.7270  223.0350 H   0  0  0  0  0  0  0  0  0  0  0  0
  137.5090   74.1015  220.7389 H   0  0  0  0  0  0  0  0  0  0  0  0
  138.5879   75.3503  221.4334 H   0  0  0  0  0  0  0  0  0  0  0  0
  139.7174   74.8619  217.8089 H   0  0  0  0  0  0  0  0  0  0  0  0
  140.2989   76.5463  218.3793 H   0  0  0  0  0  0  0  0  0  0  0  0
  141.4729   74.7033  216.6379 H   0  0  0  0  0  0  0  0  0  0  0  0
  141.9167   76.4253  217.2046 H   0  0  0  0  0  0  0  0  0  0  0  0
  142.8308   73.8419  218.3863 H   0  0  0  0  0  0  0  0  0  0  0  0
  143.7711   75.0187  217.3711 H   0  0  0  0  0  0  0  0  0  0  0  0
  144.4093   75.8409  219.3831 H   0  0  0  0  0  0  0  0  0  0  0  0
  142.8550   76.6854  219.3235 H   0  0  0  0  0  0  0  0  0  0  0  0
  142.8873   73.7858  220.2705 H   0  0  0  0  0  0  0  0  0  0  0  0
  143.4821   75.0202  221.3988 H   0  0  0  0  0  0  0  0  0  0  0  0
  140.9546   74.6565  221.5858 H   0  0  0  0  0  0  0  0  0  0  0  0
  141.9674   77.5496  219.4437 H   0  0  0  0  0  0  0  0  0  0  0  0
  141.9309   79.8564  220.2412 H   0  0  0  0  0  0  0  0  0  0  0  0
  140.7392   78.5152  224.1192 H   0  0  0  0  0  0  0  0  0  0  0  0
  140.7717   76.1890  223.3135 H   0  0  0  0  0  0  0  0  0  0  0  0
  137.9266   69.4137  222.2391 H   0  0  0  0  0  0  0  0  0  0  0  0
  138.5209   67.8643  224.1033 H   0  0  0  0  0  0  0  0  0  0  0  0
  139.6311   67.5002  226.3050 H   0  0  0  0  0  0  0  0  0  0  0  0
  141.5814   70.8617  228.1692 H   0  0  0  0  0  0  0  0  0  0  0  0
  140.9337   72.3429  226.2444 H   0  0  0  0  0  0  0  0  0  0  0  0
  1  2  2  0
  2  3  1  0
  3  4  1  0
  4  5  1  0
  5  6  2  0
  5  7  1  0
  7  8  1  0
  8  9  1  0
  9 10  1  0
 10 11  1  0
 11 12  1  0
 12 13  1  0
 13 14  1  0
 14 15  2  0
 15 16  1  0
 16 17  2  0
 17 18  1  0
 17 19  1  0
 19 20  2  0
  2 21  1  0
 21 22  2  0
 22 23  1  0
 23 24  2  0
 24 25  1  0
 25 26  2  0
 26 27  1  0
 26 28  1  0
 28 29  2  0
 29 30  1  0
 30 31  2  0
 13  7  1  0
 20 14  1  0
 31 21  1  0
 30 24  1  0
  3 32  1  0
  4 33  1  0
  4 34  1  0
  8 35  1  0
  8 36  1  0
  9 37  1  0
  9 38  1  0
 10 39  1  0
 10 40  1  0
 11 41  1  0
 11 42  1  0
 12 43  1  0
 12 44  1  0
 13 45  1  1
 15 46  1  0
 16 47  1  0
 19 48  1  0
 20 49  1  0
 22 50  1  0
 23 51  1  0
 25 52  1  0
 28 53  1  0
 29 54  1  0
M  END
>  <smiles>  (98) 
O=C(NCC(=O)N1CCCCCC1c1ccc(Cl)cc1)c1ccc2cc(Cl)ccc2n1

>  <score_type>  (98) 
oracle

>  <origin>  (98) 
autodockgpu

>  <m_score__min__energy>  (98) 
-7.21

>  <m_primary>  (98) 
energy

>  <rmsd>  (98) 
1.7849570662575966

>  <m_score__min__rmsd>  (98) 
1.7849570662575966

>  <meeko>  (98) 
{"free_energy": -6.49, "intermolecular_energy": -9.77, "internal_energy": -1.7, "cluster_size": 9, "cluster_id": 2, "rank_in_cluster": 4}

>  <energy>  (98) 
-4.63

>  <cluster_rmsd>  (98) 
0.0

>  <cluster>  (98) 
10

$$$$

     RDKit          3D

 54 57  0  0  0  0  0  0  0  0999 V2000
  141.9770   72.7030  220.8050 O   0  0  0  0  0  0  0  0  0  0  0  0
  141.2050   73.4990  221.4190 C   0  0  0  0  0  0  0  0  0  0  0  0
  140.1720   73.0520  222.2880 N   0  0  0  0  0  0  0  0  0  0  0  0
  139.9940   71.6110  222.4810 C   0  0  0  0  0  0  0  0  0  0  0  0
  139.3760   71.3840  223.8040 C   0  0  0  0  0  0  0  0  0  0  0  0
  138.2230   71.8200  224.0500 O   0  0  0  0  0  0  0  0  0  0  0  0
  140.0470   70.6650  224.8720 N   0  0  0  0  0  0  0  0  0  0  0  0
  140.9690   71.5130  225.5670 C   0  0  0  0  0  0  0  0  0  0  0  0
  140.7890   71.7310  227.0070 C   0  0  0  0  0  0  0  0  0  0  0  0
  140.3920   70.5740  227.8550 C   0  0  0  0  0  0  0  0  0  0  0  0
  140.6710   69.2550  227.1830 C   0  0  0  0  0  0  0  0  0  0  0  0
  139.4000   68.8840  226.4220 C   0  0  0  0  0  0  0  0  0  0  0  0
  139.6240   69.3060  224.9630 C   0  0  1  0  0  0  0  0  0  0  0  0
  138.4380   68.9450  224.1520 C   0  0  0  0  0  0  0  0  0  0  0  0
  137.1510   69.3070  224.5750 C   0  0  0  0  0  0  0  0  0  0  0  0
  136.0280   69.0010  223.8490 C   0  0  0  0  0  0  0  0  0  0  0  0
  136.1050   68.3160  222.6550 C   0  0  0  0  0  0  0  0  0  0  0  0
  134.6500   67.9530  221.7730 Cl  0  0  0  0  0  0  0  0  0  0  0  0
  137.3580   67.9500  222.2160 C   0  0  0  0  0  0  0  0  0  0  0  0
  138.4930   68.2640  222.9580 C   0  0  0  0  0  0  0  0  0  0  0  0
  141.3710   74.9540  221.2350 C   0  0  0  0  0  0  0  0  0  0  0  0
  142.0420   75.4290  220.1160 C   0  0  0  0  0  0  0  0  0  0  0  0
  142.2040   76.8030  219.9320 C   0  0  0  0  0  0  0  0  0  0  0  0
  141.6990   77.6870  220.8610 C   0  0  0  0  0  0  0  0  0  0  0  0
  141.8320   79.0640  220.7280 C   0  0  0  0  0  0  0  0  0  0  0  0
  141.2890   79.8650  221.7170 C   0  0  0  0  0  0  0  0  0  0  0  0
  141.4200   81.6070  221.6100 Cl  0  0  0  0  0  0  0  0  0  0  0  0
  140.6310   79.3440  222.8090 C   0  0  0  0  0  0  0  0  0  0  0  0
  140.4940   77.9670  222.9490 C   0  0  0  0  0  0  0  0  0  0  0  0
  141.0380   77.1780  221.9600 C   0  0  0  0  0  0  0  0  0  0  0  0
  140.8910   75.8370  222.1190 N   0  0  0  0  0  0  0  0  0  0  0  0
  139.5640   73.7520  222.7700 H   0  0  0  0  0  0  0  0  0  0  0  0
  139.3398   71.2098  221.6929 H   0  0  0  0  0  0  0  0  0  0  0  0
  140.9680   71.1024  222.4296 H   0  0  0  0  0  0  0  0  0  0  0  0
  141.9711   71.0807  225.4293 H   0  0  0  0  0  0  0  0  0  0  0  0
  140.7971   72.5062  225.1265 H   0  0  0  0  0  0  0  0  0  0  0  0
  141.7440   72.1096  227.4002 H   0  0  0  0  0  0  0  0  0  0  0  0
  139.9329   72.4188  227.0709 H   0  0  0  0  0  0  0  0  0  0  0  0
  140.9549   70.6169  228.7991 H   0  0  0  0  0  0  0  0  0  0  0  0
  139.3084   70.6407  228.0322 H   0  0  0  0  0  0  0  0  0  0  0  0
  141.5167   69.3538  226.4866 H   0  0  0  0  0  0  0  0  0  0  0  0
  140.9375   68.4807  227.9175 H   0  0  0  0  0  0  0  0  0  0  0  0
  139.2251   67.7996  226.4810 H   0  0  0  0  0  0  0  0  0  0  0  0
  138.5201   69.3867  226.8500 H   0  0  0  0  0  0  0  0  0  0  0  0
  140.4630   68.7453  224.5252 H   0  0  0  0  0  0  0  0  0  0  0  0
  137.0380   69.8554  225.5218 H   0  0  0  0  0  0  0  0  0  0  0  0
  135.0427   69.3095  224.2285 H   0  0  0  0  0  0  0  0  0  0  0  0
  137.4631   67.4029  221.2675 H   0  0  0  0  0  0  0  0  0  0  0  0
  139.4759   67.9544  222.5732 H   0  0  0  0  0  0  0  0  0  0  0  0
  142.4455   74.7230  219.3752 H   0  0  0  0  0  0  0  0  0  0  0  0
  142.7347   77.1804  219.0455 H   0  0  0  0  0  0  0  0  0  0  0  0
  142.3524   79.5031  219.8640 H   0  0  0  0  0  0  0  0  0  0  0  0
  140.2132   80.0179  223.5715 H   0  0  0  0  0  0  0  0  0  0  0  0
  139.9736   77.5271  223.8125 H   0  0  0  0  0  0  0  0  0  0  0  0
  1  2  2  0
  2  3  1  0
  3  4  1  0
  4  5  1  0
  5  6  2  0
  5  7  1  0
  7  8  1  0
  8  9  1  0
  9 10  1  0
 10 11  1  0
 11 12  1  0
 12 13  1  0
 13 14  1  0
 14 15  2  0
 15 16  1  0
 16 17  2  0
 17 18  1  0
 17 19  1  0
 19 20  2  0
  2 21  1  0
 21 22  2  0
 22 23  1  0
 23 24  2  0
 24 25  1  0
 25 26  2  0
 26 27  1  0
 26 28  1  0
 28 29  2  0
 29 30  1  0
 30 31  2  0
 13  7  1  0
 20 14  1  0
 31 21  1  0
 30 24  1  0
  3 32  1  0
  4 33  1  0
  4 34  1  0
  8 35  1  0
  8 36  1  0
  9 37  1  0
  9 38  1  0
 10 39  1  0
 10 40  1  0
 11 41  1  0
 11 42  1  0
 12 43  1  0
 12 44  1  0
 13 45  1  6
 15 46  1  0
 16 47  1  0
 19 48  1  0
 20 49  1  0
 22 50  1  0
 23 51  1  0
 25 52  1  0
 28 53  1  0
 29 54  1  0
M  END
>  <smiles>  (99) 
O=C(NCC(=O)N1CCCCCC1c1ccc(Cl)cc1)c1ccc2cc(Cl)ccc2n1

>  <score_type>  (99) 
oracle

>  <origin>  (99) 
autodockgpu

>  <m_score__min__energy>  (99) 
-7.21

>  <m_primary>  (99) 
energy

>  <rmsd>  (99) 
8.662131702320133

>  <m_score__min__rmsd>  (99) 
8.662131702320133

>  <meeko>  (99) 
{"free_energy": -5.75, "intermolecular_energy": -9.03, "internal_energy": -1.78, "cluster_size": 3, "cluster_id": 5, "rank_in_cluster": 3}

>  <energy>  (99) 
-4.29

>  <cluster_rmsd>  (99) 
0.0

>  <cluster>  (99) 
11

$$$$

     RDKit          3D

 54 57  0  0  0  0  0  0  0  0999 V2000
  142.1430   80.6960  219.4140 O   0  0  0  0  0  0  0  0  0  0  0  0
  141.3040   79.7510  219.5130 C   0  0  0  0  0  0  0  0  0  0  0  0
  139.9040   79.9760  219.6310 N   0  0  0  0  0  0  0  0  0  0  0  0
  139.4150   81.3570  219.6390 C   0  0  0  0  0  0  0  0  0  0  0  0
  139.4780   81.8710  221.0230 C   0  0  0  0  0  0  0  0  0  0  0  0
  139.1320   83.0520  221.2780 O   0  0  0  0  0  0  0  0  0  0  0  0
  139.9320   81.0650  222.1410 N   0  0  0  0  0  0  0  0  0  0  0  0
  141.2000   81.5240  222.6270 C   0  0  0  0  0  0  0  0  0  0  0  0
  142.3270   80.5850  222.6700 C   0  0  0  0  0  0  0  0  0  0  0  0
  142.0830   79.2050  223.1710 C   0  0  0  0  0  0  0  0  0  0  0  0
  140.7710   79.0910  223.9020 C   0  0  0  0  0  0  0  0  0  0  0  0
  139.7410   78.7260  222.8400 C   0  0  0  0  0  0  0  0  0  0  0  0
  139.0120   80.0280  222.4750 C   0  0  1  0  0  0  0  0  0  0  0  0
  138.0230   80.3590  223.5260 C   0  0  0  0  0  0  0  0  0  0  0  0
  138.3870   81.1610  224.6170 C   0  0  0  0  0  0  0  0  0  0  0  0
  137.4990   81.4990  225.6070 C   0  0  0  0  0  0  0  0  0  0  0  0
  136.1910   81.0640  225.5830 C   0  0  0  0  0  0  0  0  0  0  0  0
  135.1050   81.5210  226.8620 Cl  0  0  0  0  0  0  0  0  0  0  0  0
  135.8080   80.2750  224.5210 C   0  0  0  0  0  0  0  0  0  0  0  0
  136.7140   79.9360  223.5200 C   0  0  0  0  0  0  0  0  0  0  0  0
  141.7810   78.3550  219.5060 C   0  0  0  0  0  0  0  0  0  0  0  0
  142.7730   77.9760  218.6120 C   0  0  0  0  0  0  0  0  0  0  0  0
  143.2310   76.6580  218.5970 C   0  0  0  0  0  0  0  0  0  0  0  0
  142.6990   75.7340  219.4700 C   0  0  0  0  0  0  0  0  0  0  0  0
  143.1170   74.4080  219.4980 C   0  0  0  0  0  0  0  0  0  0  0  0
  142.5180   73.5600  220.4120 C   0  0  0  0  0  0  0  0  0  0  0  0
  143.0000   71.8790  220.5010 Cl  0  0  0  0  0  0  0  0  0  0  0  0
  141.5370   73.9850  221.2790 C   0  0  0  0  0  0  0  0  0  0  0  0
  141.1130   75.3100  221.2570 C   0  0  0  0  0  0  0  0  0  0  0  0
  141.7150   76.1460  220.3440 C   0  0  0  0  0  0  0  0  0  0  0  0
  141.2830   77.4350  220.3410 N   0  0  0  0  0  0  0  0  0  0  0  0
  139.2550   79.1600  219.7090 H   0  0  0  0  0  0  0  0  0  0  0  0
  140.0450   81.9771  218.9843 H   0  0  0  0  0  0  0  0  0  0  0  0
  138.3785   81.3910  219.2722 H   0  0  0  0  0  0  0  0  0  0  0  0
  141.5053   82.3651  221.9872 H   0  0  0  0  0  0  0  0  0  0  0  0
  141.0090   81.7560  223.6852 H   0  0  0  0  0  0  0  0  0  0  0  0
  142.7134   80.4944  221.6441 H   0  0  0  0  0  0  0  0  0  0  0  0
  143.0137   81.0224  223.4096 H   0  0  0  0  0  0  0  0  0  0  0  0
  142.0735   78.5136  222.3155 H   0  0  0  0  0  0  0  0  0  0  0  0
  142.8875   78.9543  223.8781 H   0  0  0  0  0  0  0  0  0  0  0  0
  140.8261   78.3051  224.6697 H   0  0  0  0  0  0  0  0  0  0  0  0
  140.5098   80.0267  224.4180 H   0  0  0  0  0  0  0  0  0  0  0  0
  140.2407   78.3087  221.9533 H   0  0  0  0  0  0  0  0  0  0  0  0
  139.0375   77.9666  223.2120 H   0  0  0  0  0  0  0  0  0  0  0  0
  138.4277   79.8945  221.5526 H   0  0  0  0  0  0  0  0  0  0  0  0
  139.4205   81.5322  224.6815 H   0  0  0  0  0  0  0  0  0  0  0  0
  137.8389   82.1322  226.4397 H   0  0  0  0  0  0  0  0  0  0  0  0
  134.7727   79.9080  224.4631 H   0  0  0  0  0  0  0  0  0  0  0  0
  136.3687   79.3032  222.6892 H   0  0  0  0  0  0  0  0  0  0  0  0
  143.1978   78.7142  217.9158 H   0  0  0  0  0  0  0  0  0  0  0  0
  144.0166   76.3566  217.8884 H   0  0  0  0  0  0  0  0  0  0  0  0
  143.8991   74.0450  218.8150 H   0  0  0  0  0  0  0  0  0  0  0  0
  141.0877   73.2762  221.9902 H   0  0  0  0  0  0  0  0  0  0  0  0
  140.3308   75.6737  221.9395 H   0  0  0  0  0  0  0  0  0  0  0  0
  1  2  2  0
  2  3  1  0
  3  4  1  0
  4  5  1  0
  5  6  2  0
  5  7  1  0
  7  8  1  0
  8  9  1  0
  9 10  1  0
 10 11  1  0
 11 12  1  0
 12 13  1  0
 13 14  1  0
 14 15  2  0
 15 16  1  0
 16 17  2  0
 17 18  1  0
 17 19  1  0
 19 20  2  0
  2 21  1  0
 21 22  2  0
 22 23  1  0
 23 24  2  0
 24 25  1  0
 25 26  2  0
 26 27  1  0
 26 28  1  0
 28 29  2  0
 29 30  1  0
 30 31  2  0
 13  7  1  0
 20 14  1  0
 31 21  1  0
 30 24  1  0
  3 32  1  0
  4 33  1  0
  4 34  1  0
  8 35  1  0
  8 36  1  0
  9 37  1  0
  9 38  1  0
 10 39  1  0
 10 40  1  0
 11 41  1  0
 11 42  1  0
 12 43  1  0
 12 44  1  0
 13 45  1  6
 15 46  1  0
 16 47  1  0
 19 48  1  0
 20 49  1  0
 22 50  1  0
 23 51  1  0
 25 52  1  0
 28 53  1  0
 29 54  1  0
M  END
>  <smiles>  (100) 
O=C(NCC(=O)N1CCCCCC1c1ccc(Cl)cc1)c1ccc2cc(Cl)ccc2n1

>  <score_type>  (100) 
oracle

>  <origin>  (100) 
autodockgpu

>  <m_score__min__energy>  (100) 
-7.21

>  <m_primary>  (100) 
energy

>  <rmsd>  (100) 
8.163600755378006

>  <m_score__min__rmsd>  (100) 
8.163600755378006

>  <meeko>  (100) 
{"free_energy": -4.63, "intermolecular_energy": -7.91, "internal_energy": -2.72, "cluster_size": 1, "cluster_id": 10, "rank_in_cluster": 1}

>  <energy>  (100) 
-4.07

>  <cluster_rmsd>  (100) 
0.0

>  <cluster>  (100) 
12

$$$$
