
     RDKit          3D

 62 66  0  0  0  0  0  0  0  0999 V2000
  140.3400   68.1350  229.0550 C   0  0  0  0  0  0  0  0  0  0  0  0
  140.4510   69.1620  227.9890 C   0  0  0  0  0  0  0  0  0  0  0  0
  140.9130   70.4310  228.3340 C   0  0  0  0  0  0  0  0  0  0  0  0
  141.0450   71.4280  227.4010 C   0  0  0  0  0  0  0  0  0  0  0  0
  140.7100   71.1630  226.0840 C   0  0  0  0  0  0  0  0  0  0  0  0
  140.2510   69.9230  225.7000 C   0  0  0  0  0  0  0  0  0  0  0  0
  140.1180   68.9080  226.6600 C   0  0  0  0  0  0  0  0  0  0  0  0
  139.9830   69.9580  224.2220 C   0  0  0  0  0  0  0  0  0  0  0  0
  140.3590   71.3490  223.8760 C   0  0  0  0  0  0  0  0  0  0  0  0
  140.3420   71.9670  222.5430 C   0  0  0  0  0  0  0  0  0  0  0  0
  140.5430   71.1710  221.4290 C   0  0  0  0  0  0  0  0  0  0  0  0
  140.5630   71.7770  220.1890 C   0  0  0  0  0  0  0  0  0  0  0  0
  140.3930   73.1470  220.0170 C   0  0  0  0  0  0  0  0  0  0  0  0
  140.1930   73.9270  221.1310 C   0  0  0  0  0  0  0  0  0  0  0  0
  140.0600   75.3870  221.0790 C   0  0  0  0  0  0  0  0  0  0  0  0
  139.1040   75.8340  220.4100 O   0  0  0  0  0  0  0  0  0  0  0  0
  140.9800   76.2250  221.7710 N   0  0  0  0  0  0  0  0  0  0  0  0
  140.9360   77.6280  221.7930 C   0  0  0  0  0  0  0  0  0  0  0  0
  140.4480   78.4020  222.8160 C   0  0  0  0  0  0  0  0  0  0  0  0
  140.5000   79.7990  222.8020 C   0  0  0  0  0  0  0  0  0  0  0  0
  141.0730   80.4430  221.6990 C   0  0  0  0  0  0  0  0  0  0  0  0
  141.1480   81.8890  221.6770 C   0  0  0  0  0  0  0  0  0  0  0  0
  141.8530   82.4070  222.6140 O   0  0  0  0  0  0  0  0  0  0  0  0
  140.5560   82.7630  220.7720 N   0  0  0  0  0  0  0  0  0  0  0  0
  139.7130   82.3340  219.6420 C   0  0  0  0  0  0  0  0  0  0  0  0
  138.9280   83.5270  219.1350 C   0  0  0  0  0  0  0  0  0  0  0  0
  138.3830   84.3630  220.1540 N   0  0  0  0  0  0  0  0  0  0  0  0
  137.0770   84.0230  220.6170 C   0  0  0  0  0  0  0  0  0  0  0  0
  139.3130   84.7100  221.2160 C   0  0  0  0  0  0  0  0  0  0  0  0
  140.7140   84.2190  220.8670 C   0  0  0  0  0  0  0  0  0  0  0  0
  141.5760   79.6740  220.6450 C   0  0  0  0  0  0  0  0  0  0  0  0
  141.4980   78.3040  220.7140 C   0  0  0  0  0  0  0  0  0  0  0  0
  140.1750   73.3060  222.3450 C   0  0  0  0  0  0  0  0  0  0  0  0
  140.7550   71.9940  224.9190 N   0  0  0  0  0  0  0  0  0  0  0  0
  140.3926   68.6218  230.0400 H   0  0  0  0  0  0  0  0  0  0  0  0
  139.3796   67.6076  228.9575 H   0  0  0  0  0  0  0  0  0  0  0  0
  141.1655   67.4146  228.9575 H   0  0  0  0  0  0  0  0  0  0  0  0
  141.1785   70.6383  229.3811 H   0  0  0  0  0  0  0  0  0  0  0  0
  141.4114   72.4227  227.6947 H   0  0  0  0  0  0  0  0  0  0  0  0
  139.7516   67.9140  226.3639 H   0  0  0  0  0  0  0  0  0  0  0  0
  140.6077   69.2293  223.6847 H   0  0  0  0  0  0  0  0  0  0  0  0
  138.9493   69.6966  223.9514 H   0  0  0  0  0  0  0  0  0  0  0  0
  140.6831   70.0845  221.5290 H   0  0  0  0  0  0  0  0  0  0  0  0
  140.7200   71.1500  219.2989 H   0  0  0  0  0  0  0  0  0  0  0  0
  140.4181   73.5956  219.0129 H   0  0  0  0  0  0  0  0  0  0  0  0
  141.7370   75.7150  222.2980 H   0  0  0  0  0  0  0  0  0  0  0  0
  139.9962   77.9012  223.6849 H   0  0  0  0  0  0  0  0  0  0  0  0
  140.0975   80.3822  223.6434 H   0  0  0  0  0  0  0  0  0  0  0  0
  140.3490   81.9405  218.8353 H   0  0  0  0  0  0  0  0  0  0  0  0
  139.0209   81.5451  219.9716 H   0  0  0  0  0  0  0  0  0  0  0  0
  139.5987   84.1385  218.5135 H   0  0  0  0  0  0  0  0  0  0  0  0
  138.0711   83.1192  218.5787 H   0  0  0  0  0  0  0  0  0  0  0  0
  137.0671   84.0204  221.7170 H   0  0  0  0  0  0  0  0  0  0  0  0
  136.3522   84.7624  220.2455 H   0  0  0  0  0  0  0  0  0  0  0  0
  136.8048   83.0241  220.2455 H   0  0  0  0  0  0  0  0  0  0  0  0
  139.3311   85.8027  221.3411 H   0  0  0  0  0  0  0  0  0  0  0  0
  138.9864   84.2315  222.1511 H   0  0  0  0  0  0  0  0  0  0  0  0
  141.0505   84.6409  219.9085 H   0  0  0  0  0  0  0  0  0  0  0  0
  141.4691   84.5194  221.6083 H   0  0  0  0  0  0  0  0  0  0  0  0
  142.0297   80.1611  219.7693 H   0  0  0  0  0  0  0  0  0  0  0  0
  141.8987   77.7135  219.8769 H   0  0  0  0  0  0  0  0  0  0  0  0
  140.0132   73.9339  223.2336 H   0  0  0  0  0  0  0  0  0  0  0  0
  1  2  1  0
  2  3  2  0
  3  4  1  0
  4  5  2  0
  5  6  1  0
  6  7  2  0
  6  8  1  0
  8  9  1  0
  9 10  1  0
 10 11  2  0
 11 12  1  0
 12 13  2  0
 13 14  1  0
 14 15  1  0
 15 16  2  0
 15 17  1  0
 17 18  1  0
 18 19  2  0
 19 20  1  0
 20 21  2  0
 21 22  1  0
 22 23  2  0
 22 24  1  0
 24 25  1  0
 25 26  1  0
 26 27  1  0
 27 28  1  0
 27 29  1  0
 29 30  1  0
 21 31  1  0
 31 32  2  0
 14 33  2  0
  9 34  2  0
  7  2  1  0
 33 10  1  0
 34  5  1  0
 32 18  1  0
 30 24  1  0
  1 35  1  0
  1 36  1  0
  1 37  1  0
  3 38  1  0
  4 39  1  0
  7 40  1  0
  8 41  1  0
  8 42  1  0
 11 43  1  0
 12 44  1  0
 13 45  1  0
 17 46  1  0
 19 47  1  0
 20 48  1  0
 25 49  1  0
 25 50  1  0
 26 51  1  0
 26 52  1  0
 28 53  1  0
 28 54  1  0
 28 55  1  0
 29 56  1  0
 29 57  1  0
 30 58  1  0
 30 59  1  0
 31 60  1  0
 32 61  1  0
 33 62  1  0
M  END
>  <smiles>  (1) 
Cc1ccc2c(c1)CC(c1cccc(C(=O)Nc3ccc(C(=O)N4CCN(C)CC4)cc3)c1)=N2

>  <score_type>  (1) 
oracle

>  <origin>  (1) 
autodockgpu

>  <m_score__min__energy>  (1) 
-8.8599999999999994

>  <m_primary>  (1) 
energy

>  <rmsd>  (1) 
8.859986949152383

>  <m_score__min__rmsd>  (1) 
8.859986949152383

>  <meeko>  (1) 
{"free_energy": -8.63, "intermolecular_energy": -9.83, "internal_energy": -0.99, "cluster_size": 39, "cluster_id": 1, "rank_in_cluster": 16}

>  <energy>  (1) 
-8.86

>  <cluster_rmsd>  (1) 
0.0

>  <cluster>  (1) 
1

$$$$

     RDKit          3D

 62 66  0  0  0  0  0  0  0  0999 V2000
  140.6500   68.1180  229.0640 C   0  0  0  0  0  0  0  0  0  0  0  0
  140.6590   69.1440  227.9910 C   0  0  0  0  0  0  0  0  0  0  0  0
  141.0670   70.4370  228.3120 C   0  0  0  0  0  0  0  0  0  0  0  0
  141.1050   71.4340  227.3710 C   0  0  0  0  0  0  0  0  0  0  0  0
  140.7280   71.1450  226.0710 C   0  0  0  0  0  0  0  0  0  0  0  0
  140.3190   69.8800  225.7110 C   0  0  0  0  0  0  0  0  0  0  0  0
  140.2820   68.8650  226.6800 C   0  0  0  0  0  0  0  0  0  0  0  0
  139.9850   69.8930  224.2460 C   0  0  0  0  0  0  0  0  0  0  0  0
  140.2710   71.2990  223.8790 C   0  0  0  0  0  0  0  0  0  0  0  0
  140.1620   71.9090  222.5470 C   0  0  0  0  0  0  0  0  0  0  0  0
  140.1460   71.0900  221.4320 C   0  0  0  0  0  0  0  0  0  0  0  0
  140.0840   71.6830  220.1870 C   0  0  0  0  0  0  0  0  0  0  0  0
  140.0400   73.0620  220.0110 C   0  0  0  0  0  0  0  0  0  0  0  0
  140.0560   73.8650  221.1270 C   0  0  0  0  0  0  0  0  0  0  0  0
  140.0720   75.3310  221.0640 C   0  0  0  0  0  0  0  0  0  0  0  0
  139.1030   75.8730  220.4900 O   0  0  0  0  0  0  0  0  0  0  0  0
  141.1420   76.0710  221.6420 N   0  0  0  0  0  0  0  0  0  0  0  0
  141.2480   77.4710  221.6460 C   0  0  0  0  0  0  0  0  0  0  0  0
  141.7660   78.2410  220.6350 C   0  0  0  0  0  0  0  0  0  0  0  0
  141.7760   79.6390  220.6750 C   0  0  0  0  0  0  0  0  0  0  0  0
  141.2370   80.2860  221.7940 C   0  0  0  0  0  0  0  0  0  0  0  0
  141.2270   81.7340  221.8430 C   0  0  0  0  0  0  0  0  0  0  0  0
  141.8240   82.2420  222.8570 O   0  0  0  0  0  0  0  0  0  0  0  0
  140.6570   82.6170  220.9340 N   0  0  0  0  0  0  0  0  0  0  0  0
  139.9310   82.1990  219.7220 C   0  0  0  0  0  0  0  0  0  0  0  0
  139.1180   83.3700  219.2070 C   0  0  0  0  0  0  0  0  0  0  0  0
  138.4470   84.1230  220.2150 N   0  0  0  0  0  0  0  0  0  0  0  0
  137.1310   83.6870  220.5560 C   0  0  0  0  0  0  0  0  0  0  0  0
  139.2690   84.4680  221.3630 C   0  0  0  0  0  0  0  0  0  0  0  0
  140.7200   84.0730  221.1080 C   0  0  0  0  0  0  0  0  0  0  0  0
  140.7060   79.5210  222.8360 C   0  0  0  0  0  0  0  0  0  0  0  0
  140.7220   78.1500  222.7400 C   0  0  0  0  0  0  0  0  0  0  0  0
  140.1150   73.2570  222.3450 C   0  0  0  0  0  0  0  0  0  0  0  0
  140.6770   71.9710  224.9020 N   0  0  0  0  0  0  0  0  0  0  0  0
  140.6543   68.6141  230.0457 H   0  0  0  0  0  0  0  0  0  0  0  0
  139.7464   67.4977  228.9706 H   0  0  0  0  0  0  0  0  0  0  0  0
  141.5426   67.4820  228.9706 H   0  0  0  0  0  0  0  0  0  0  0  0
  141.3661   70.6638  229.3460 H   0  0  0  0  0  0  0  0  0  0  0  0
  141.4303   72.4483  227.6454 H   0  0  0  0  0  0  0  0  0  0  0  0
  139.9558   67.8513  226.4042 H   0  0  0  0  0  0  0  0  0  0  0  0
  140.6233   69.1952  223.6841 H   0  0  0  0  0  0  0  0  0  0  0  0
  138.9556   69.5762  224.0224 H   0  0  0  0  0  0  0  0  0  0  0  0
  140.1817   69.9954  221.5349 H   0  0  0  0  0  0  0  0  0  0  0  0
  140.0688   71.0376  219.2964 H   0  0  0  0  0  0  0  0  0  0  0  0
  139.9935   73.4998  219.0029 H   0  0  0  0  0  0  0  0  0  0  0  0
  141.8930   75.4860  222.0970 H   0  0  0  0  0  0  0  0  0  0  0  0
  142.1918   77.7368  219.7550 H   0  0  0  0  0  0  0  0  0  0  0  0
  142.1996   80.2199  219.8425 H   0  0  0  0  0  0  0  0  0  0  0  0
  140.6498   81.8818  218.9522 H   0  0  0  0  0  0  0  0  0  0  0  0
  139.2630   81.3580  219.9597 H   0  0  0  0  0  0  0  0  0  0  0  0
  139.7973   84.0477  218.6692 H   0  0  0  0  0  0  0  0  0  0  0  0
  138.3327   82.9429  218.5660 H   0  0  0  0  0  0  0  0  0  0  0  0
  137.0282   83.6529  221.6507 H   0  0  0  0  0  0  0  0  0  0  0  0
  136.3930   84.3886  220.1400 H   0  0  0  0  0  0  0  0  0  0  0  0
  136.9579   82.6835  220.1400 H   0  0  0  0  0  0  0  0  0  0  0  0
  139.2127   85.5526  221.5377 H   0  0  0  0  0  0  0  0  0  0  0  0
  138.8988   83.9264  222.2460 H   0  0  0  0  0  0  0  0  0  0  0  0
  141.1059   84.5605  220.2005 H   0  0  0  0  0  0  0  0  0  0  0  0
  141.3946   84.3769  221.9219 H   0  0  0  0  0  0  0  0  0  0  0  0
  140.2796   80.0110  223.7238 H   0  0  0  0  0  0  0  0  0  0  0  0
  140.2987   77.5619  223.5676 H   0  0  0  0  0  0  0  0  0  0  0  0
  140.1256   73.9038  223.2347 H   0  0  0  0  0  0  0  0  0  0  0  0
  1  2  1  0
  2  3  2  0
  3  4  1  0
  4  5  2  0
  5  6  1  0
  6  7  2  0
  6  8  1  0
  8  9  1  0
  9 10  1  0
 10 11  2  0
 11 12  1  0
 12 13  2  0
 13 14  1  0
 14 15  1  0
 15 16  2  0
 15 17  1  0
 17 18  1  0
 18 19  2  0
 19 20  1  0
 20 21  2  0
 21 22  1  0
 22 23  2  0
 22 24  1  0
 24 25  1  0
 25 26  1  0
 26 27  1  0
 27 28  1  0
 27 29  1  0
 29 30  1  0
 21 31  1  0
 31 32  2  0
 14 33  2  0
  9 34  2  0
  7  2  1  0
 33 10  1  0
 34  5  1  0
 32 18  1  0
 30 24  1  0
  1 35  1  0
  1 36  1  0
  1 37  1  0
  3 38  1  0
  4 39  1  0
  7 40  1  0
  8 41  1  0
  8 42  1  0
 11 43  1  0
 12 44  1  0
 13 45  1  0
 17 46  1  0
 19 47  1  0
 20 48  1  0
 25 49  1  0
 25 50  1  0
 26 51  1  0
 26 52  1  0
 28 53  1  0
 28 54  1  0
 28 55  1  0
 29 56  1  0
 29 57  1  0
 30 58  1  0
 30 59  1  0
 31 60  1  0
 32 61  1  0
 33 62  1  0
M  END
>  <smiles>  (2) 
Cc1ccc2c(c1)CC(c1cccc(C(=O)Nc3ccc(C(=O)N4CCN(C)CC4)cc3)c1)=N2

>  <score_type>  (2) 
oracle

>  <origin>  (2) 
autodockgpu

>  <m_score__min__energy>  (2) 
-8.8599999999999994

>  <m_primary>  (2) 
energy

>  <rmsd>  (2) 
8.730559874895388

>  <m_score__min__rmsd>  (2) 
8.730559874895388

>  <meeko>  (2) 
{"free_energy": -8.84, "intermolecular_energy": -10.03, "internal_energy": -0.99, "cluster_size": 39, "cluster_id": 1, "rank_in_cluster": 7}

>  <energy>  (2) 
-8.86

>  <cluster_rmsd>  (2) 
0.07

>  <cluster>  (2) 
1

$$$$

     RDKit          3D

 62 66  0  0  0  0  0  0  0  0999 V2000
  140.6860   68.1580  229.0500 C   0  0  0  0  0  0  0  0  0  0  0  0
  140.4050   68.5720  227.6520 C   0  0  0  0  0  0  0  0  0  0  0  0
  139.5820   67.7620  226.8720 C   0  0  0  0  0  0  0  0  0  0  0  0
  139.2760   68.0840  225.5740 C   0  0  0  0  0  0  0  0  0  0  0  0
  139.8000   69.2450  225.0290 C   0  0  0  0  0  0  0  0  0  0  0  0
  140.6170   70.0740  225.7660 C   0  0  0  0  0  0  0  0  0  0  0  0
  140.9260   69.7370  227.0930 C   0  0  0  0  0  0  0  0  0  0  0  0
  141.0110   71.2360  224.9000 C   0  0  0  0  0  0  0  0  0  0  0  0
  140.3060   70.9270  223.6330 C   0  0  0  0  0  0  0  0  0  0  0  0
  140.2860   71.7370  222.4080 C   0  0  0  0  0  0  0  0  0  0  0  0
  140.6630   71.1550  221.2100 C   0  0  0  0  0  0  0  0  0  0  0  0
  140.6760   71.9430  220.0780 C   0  0  0  0  0  0  0  0  0  0  0  0
  140.3300   73.2900  220.0920 C   0  0  0  0  0  0  0  0  0  0  0  0
  139.9580   73.8570  221.2880 C   0  0  0  0  0  0  0  0  0  0  0  0
  139.6290   75.2790  221.4380 C   0  0  0  0  0  0  0  0  0  0  0  0
  140.1230   76.0550  220.5920 O   0  0  0  0  0  0  0  0  0  0  0  0
  138.7820   75.7220  222.4940 N   0  0  0  0  0  0  0  0  0  0  0  0
  138.4000   77.0530  222.7190 C   0  0  0  0  0  0  0  0  0  0  0  0
  137.1170   77.5380  222.6860 C   0  0  0  0  0  0  0  0  0  0  0  0
  136.7980   78.8660  222.9910 C   0  0  0  0  0  0  0  0  0  0  0  0
  137.8310   79.7430  223.3440 C   0  0  0  0  0  0  0  0  0  0  0  0
  137.5160   81.1170  223.6760 C   0  0  0  0  0  0  0  0  0  0  0  0
  138.3070   81.9890  223.1700 O   0  0  0  0  0  0  0  0  0  0  0  0
  136.4730   81.5900  224.4650 N   0  0  0  0  0  0  0  0  0  0  0  0
  135.4800   80.7230  225.1230 C   0  0  0  0  0  0  0  0  0  0  0  0
  134.7670   81.5210  226.1970 C   0  0  0  0  0  0  0  0  0  0  0  0
  135.6140   82.3600  226.9820 N   0  0  0  0  0  0  0  0  0  0  0  0
  136.1770   81.7690  228.1520 C   0  0  0  0  0  0  0  0  0  0  0  0
  136.5540   83.1600  226.2140 C   0  0  0  0  0  0  0  0  0  0  0  0
  136.2680   83.0200  224.7230 C   0  0  0  0  0  0  0  0  0  0  0  0
  139.1460   79.2710  223.3810 C   0  0  0  0  0  0  0  0  0  0  0  0
  139.3980   77.9560  223.0730 C   0  0  0  0  0  0  0  0  0  0  0  0
  139.9500   73.0590  222.3930 C   0  0  0  0  0  0  0  0  0  0  0  0
  139.6460   69.8240  223.7290 N   0  0  0  0  0  0  0  0  0  0  0  0
  140.2070   68.8637  229.7447 H   0  0  0  0  0  0  0  0  0  0  0  0
  140.2865   67.1474  229.2205 H   0  0  0  0  0  0  0  0  0  0  0  0
  141.7727   68.1562  229.2205 H   0  0  0  0  0  0  0  0  0  0  0  0
  139.1672   66.8412  227.3080 H   0  0  0  0  0  0  0  0  0  0  0  0
  138.6246   67.4305  224.9752 H   0  0  0  0  0  0  0  0  0  0  0  0
  141.5780   70.3912  227.6903 H   0  0  0  0  0  0  0  0  0  0  0  0
  140.6657   72.1888  225.3277 H   0  0  0  0  0  0  0  0  0  0  0  0
  142.0984   71.3559  224.7854 H   0  0  0  0  0  0  0  0  0  0  0  0
  140.9446   70.0927  221.1620 H   0  0  0  0  0  0  0  0  0  0  0  0
  140.9730   71.4861  219.1225 H   0  0  0  0  0  0  0  0  0  0  0  0
  140.3534   73.8873  219.1686 H   0  0  0  0  0  0  0  0  0  0  0  0
  138.4340   74.9590  223.1330 H   0  0  0  0  0  0  0  0  0  0  0  0
  136.3030   76.8526  222.4075 H   0  0  0  0  0  0  0  0  0  0  0  0
  135.7553   79.2144  222.9541 H   0  0  0  0  0  0  0  0  0  0  0  0
  134.7499   80.3681  224.3806 H   0  0  0  0  0  0  0  0  0  0  0  0
  135.9835   79.8558  225.5752 H   0  0  0  0  0  0  0  0  0  0  0  0
  134.0143   82.1567  225.7078 H   0  0  0  0  0  0  0  0  0  0  0  0
  134.3311   80.7864  226.8901 H   0  0  0  0  0  0  0  0  0  0  0  0
  135.7350   82.2329  229.0461 H   0  0  0  0  0  0  0  0  0  0  0  0
  135.9647   80.6897  228.1560 H   0  0  0  0  0  0  0  0  0  0  0  0
  137.2653   81.9287  228.1560 H   0  0  0  0  0  0  0  0  0  0  0  0
  136.4555   84.2161  226.5054 H   0  0  0  0  0  0  0  0  0  0  0  0
  137.5760   82.8082  226.4184 H   0  0  0  0  0  0  0  0  0  0  0  0
  135.2342   83.3165  224.4919 H   0  0  0  0  0  0  0  0  0  0  0  0
  136.9100   83.6626  224.1025 H   0  0  0  0  0  0  0  0  0  0  0  0
  139.9709   79.9456  223.6540 H   0  0  0  0  0  0  0  0  0  0  0  0
  140.4382   77.5999  223.1079 H   0  0  0  0  0  0  0  0  0  0  0  0
  139.6492   73.5167  223.3470 H   0  0  0  0  0  0  0  0  0  0  0  0
  1  2  1  0
  2  3  2  0
  3  4  1  0
  4  5  2  0
  5  6  1  0
  6  7  2  0
  6  8  1  0
  8  9  1  0
  9 10  1  0
 10 11  2  0
 11 12  1  0
 12 13  2  0
 13 14  1  0
 14 15  1  0
 15 16  2  0
 15 17  1  0
 17 18  1  0
 18 19  2  0
 19 20  1  0
 20 21  2  0
 21 22  1  0
 22 23  2  0
 22 24  1  0
 24 25  1  0
 25 26  1  0
 26 27  1  0
 27 28  1  0
 27 29  1  0
 29 30  1  0
 21 31  1  0
 31 32  2  0
 14 33  2  0
  9 34  2  0
  7  2  1  0
 33 10  1  0
 34  5  1  0
 32 18  1  0
 30 24  1  0
  1 35  1  0
  1 36  1  0
  1 37  1  0
  3 38  1  0
  4 39  1  0
  7 40  1  0
  8 41  1  0
  8 42  1  0
 11 43  1  0
 12 44  1  0
 13 45  1  0
 17 46  1  0
 19 47  1  0
 20 48  1  0
 25 49  1  0
 25 50  1  0
 26 51  1  0
 26 52  1  0
 28 53  1  0
 28 54  1  0
 28 55  1  0
 29 56  1  0
 29 57  1  0
 30 58  1  0
 30 59  1  0
 31 60  1  0
 32 61  1  0
 33 62  1  0
M  END
>  <smiles>  (3) 
Cc1ccc2c(c1)CC(c1cccc(C(=O)Nc3ccc(C(=O)N4CCN(C)CC4)cc3)c1)=N2

>  <score_type>  (3) 
oracle

>  <origin>  (3) 
autodockgpu

>  <m_score__min__energy>  (3) 
-8.8599999999999994

>  <m_primary>  (3) 
energy

>  <rmsd>  (3) 
8.971880514512716

>  <m_score__min__rmsd>  (3) 
8.971880514512716

>  <meeko>  (3) 
{"free_energy": -8.51, "intermolecular_energy": -9.71, "internal_energy": -0.92, "cluster_size": 7, "cluster_id": 2, "rank_in_cluster": 1}

>  <energy>  (3) 
-8.85

>  <cluster_rmsd>  (3) 
0.1

>  <cluster>  (3) 
1

$$$$

     RDKit          3D

 62 66  0  0  0  0  0  0  0  0999 V2000
  140.4810   68.1520  229.0880 C   0  0  0  0  0  0  0  0  0  0  0  0
  140.5520   69.1700  228.0100 C   0  0  0  0  0  0  0  0  0  0  0  0
  141.0120   70.4460  228.3300 C   0  0  0  0  0  0  0  0  0  0  0  0
  141.1080   71.4350  227.3840 C   0  0  0  0  0  0  0  0  0  0  0  0
  140.7380   71.1540  226.0800 C   0  0  0  0  0  0  0  0  0  0  0  0
  140.2780   69.9070  225.7210 C   0  0  0  0  0  0  0  0  0  0  0  0
  140.1820   68.9000  226.6940 C   0  0  0  0  0  0  0  0  0  0  0  0
  139.9680   69.9250  224.2510 C   0  0  0  0  0  0  0  0  0  0  0  0
  140.3200   71.3160  223.8810 C   0  0  0  0  0  0  0  0  0  0  0  0
  140.2590   71.9210  222.5440 C   0  0  0  0  0  0  0  0  0  0  0  0
  140.3090   71.1000  221.4300 C   0  0  0  0  0  0  0  0  0  0  0  0
  140.2900   71.6910  220.1830 C   0  0  0  0  0  0  0  0  0  0  0  0
  140.2260   73.0690  220.0020 C   0  0  0  0  0  0  0  0  0  0  0  0
  140.1770   73.8730  221.1160 C   0  0  0  0  0  0  0  0  0  0  0  0
  140.1670   75.3390  221.0510 C   0  0  0  0  0  0  0  0  0  0  0  0
  139.1860   75.8630  220.4790 O   0  0  0  0  0  0  0  0  0  0  0  0
  141.2250   76.0990  221.6250 N   0  0  0  0  0  0  0  0  0  0  0  0
  141.3060   77.5000  221.6260 C   0  0  0  0  0  0  0  0  0  0  0  0
  141.6660   78.2860  220.5600 C   0  0  0  0  0  0  0  0  0  0  0  0
  141.6580   79.6840  220.6100 C   0  0  0  0  0  0  0  0  0  0  0  0
  141.2670   80.3140  221.7980 C   0  0  0  0  0  0  0  0  0  0  0  0
  141.2380   81.7610  221.8610 C   0  0  0  0  0  0  0  0  0  0  0  0
  141.8100   82.2670  222.8910 O   0  0  0  0  0  0  0  0  0  0  0  0
  140.6750   82.6470  220.9500 N   0  0  0  0  0  0  0  0  0  0  0  0
  139.9780   82.2310  219.7200 C   0  0  0  0  0  0  0  0  0  0  0  0
  139.1610   83.3980  219.2000 C   0  0  0  0  0  0  0  0  0  0  0  0
  138.4620   84.1330  220.2030 N   0  0  0  0  0  0  0  0  0  0  0  0
  137.1450   83.6790  220.5130 C   0  0  0  0  0  0  0  0  0  0  0  0
  139.2570   84.4760  221.3700 C   0  0  0  0  0  0  0  0  0  0  0  0
  140.7170   84.1010  221.1380 C   0  0  0  0  0  0  0  0  0  0  0  0
  140.8980   79.5330  222.8970 C   0  0  0  0  0  0  0  0  0  0  0  0
  140.9250   78.1630  222.7880 C   0  0  0  0  0  0  0  0  0  0  0  0
  140.1940   73.2680  222.3370 C   0  0  0  0  0  0  0  0  0  0  0  0
  140.7410   71.9750  224.9060 N   0  0  0  0  0  0  0  0  0  0  0  0
  140.5159   68.6519  230.0672 H   0  0  0  0  0  0  0  0  0  0  0  0
  139.5413   67.5874  228.9978 H   0  0  0  0  0  0  0  0  0  0  0  0
  141.3332   67.4624  228.9978 H   0  0  0  0  0  0  0  0  0  0  0  0
  141.3055   70.6657  229.3671 H   0  0  0  0  0  0  0  0  0  0  0  0
  141.4734   72.4358  227.6575 H   0  0  0  0  0  0  0  0  0  0  0  0
  139.8156   67.9001  226.4184 H   0  0  0  0  0  0  0  0  0  0  0  0
  140.5846   69.1971  223.7032 H   0  0  0  0  0  0  0  0  0  0  0  0
  138.9297   69.6510  224.0125 H   0  0  0  0  0  0  0  0  0  0  0  0
  140.3624   70.0064  221.5361 H   0  0  0  0  0  0  0  0  0  0  0  0
  140.3270   71.0446  219.2937 H   0  0  0  0  0  0  0  0  0  0  0  0
  140.2149   73.5046  218.9920 H   0  0  0  0  0  0  0  0  0  0  0  0
  141.9870   75.5280  222.0780 H   0  0  0  0  0  0  0  0  0  0  0  0
  141.9744   77.7951  219.6252 H   0  0  0  0  0  0  0  0  0  0  0  0
  141.9534   80.2775  219.7323 H   0  0  0  0  0  0  0  0  0  0  0  0
  140.7155   81.9295  218.9616 H   0  0  0  0  0  0  0  0  0  0  0  0
  139.3160   81.3796  219.9365 H   0  0  0  0  0  0  0  0  0  0  0  0
  139.8424   84.0889  218.6819 H   0  0  0  0  0  0  0  0  0  0  0  0
  138.3934   82.9686  218.5394 H   0  0  0  0  0  0  0  0  0  0  0  0
  137.0196   83.6358  221.6050 H   0  0  0  0  0  0  0  0  0  0  0  0
  136.4074   84.3748  220.0865 H   0  0  0  0  0  0  0  0  0  0  0  0
  136.9929   82.6765  220.0865 H   0  0  0  0  0  0  0  0  0  0  0  0
  139.1842   85.5579  221.5547 H   0  0  0  0  0  0  0  0  0  0  0  0
  138.8767   83.9214  222.2405 H   0  0  0  0  0  0  0  0  0  0  0  0
  141.1132   84.6014  220.2421 H   0  0  0  0  0  0  0  0  0  0  0  0
  141.3730   84.4056  221.9668 H   0  0  0  0  0  0  0  0  0  0  0  0
  140.5893   80.0097  223.8391 H   0  0  0  0  0  0  0  0  0  0  0  0
  140.6313   77.5623  223.6614 H   0  0  0  0  0  0  0  0  0  0  0  0
  140.1520   73.9161  223.2248 H   0  0  0  0  0  0  0  0  0  0  0  0
  1  2  1  0
  2  3  2  0
  3  4  1  0
  4  5  2  0
  5  6  1  0
  6  7  2  0
  6  8  1  0
  8  9  1  0
  9 10  1  0
 10 11  2  0
 11 12  1  0
 12 13  2  0
 13 14  1  0
 14 15  1  0
 15 16  2  0
 15 17  1  0
 17 18  1  0
 18 19  2  0
 19 20  1  0
 20 21  2  0
 21 22  1  0
 22 23  2  0
 22 24  1  0
 24 25  1  0
 25 26  1  0
 26 27  1  0
 27 28  1  0
 27 29  1  0
 29 30  1  0
 21 31  1  0
 31 32  2  0
 14 33  2  0
  9 34  2  0
  7  2  1  0
 33 10  1  0
 34  5  1  0
 32 18  1  0
 30 24  1  0
  1 35  1  0
  1 36  1  0
  1 37  1  0
  3 38  1  0
  4 39  1  0
  7 40  1  0
  8 41  1  0
  8 42  1  0
 11 43  1  0
 12 44  1  0
 13 45  1  0
 17 46  1  0
 19 47  1  0
 20 48  1  0
 25 49  1  0
 25 50  1  0
 26 51  1  0
 26 52  1  0
 28 53  1  0
 28 54  1  0
 28 55  1  0
 29 56  1  0
 29 57  1  0
 30 58  1  0
 30 59  1  0
 31 60  1  0
 32 61  1  0
 33 62  1  0
M  END
>  <smiles>  (4) 
Cc1ccc2c(c1)CC(c1cccc(C(=O)Nc3ccc(C(=O)N4CCN(C)CC4)cc3)c1)=N2

>  <score_type>  (4) 
oracle

>  <origin>  (4) 
autodockgpu

>  <m_score__min__energy>  (4) 
-8.8599999999999994

>  <m_primary>  (4) 
energy

>  <rmsd>  (4) 
8.732540112973878

>  <m_score__min__rmsd>  (4) 
8.732540112973878

>  <meeko>  (4) 
{"free_energy": -8.85, "intermolecular_energy": -10.04, "internal_energy": -0.96, "cluster_size": 39, "cluster_id": 1, "rank_in_cluster": 3}

>  <energy>  (4) 
-8.85

>  <cluster_rmsd>  (4) 
0.1

>  <cluster>  (4) 
1

$$$$

     RDKit          3D

 62 66  0  0  0  0  0  0  0  0999 V2000
  140.6600   68.1470  229.0370 C   0  0  0  0  0  0  0  0  0  0  0  0
  140.6730   69.1800  227.9710 C   0  0  0  0  0  0  0  0  0  0  0  0
  141.0680   70.4740  228.3040 C   0  0  0  0  0  0  0  0  0  0  0  0
  141.1090   71.4780  227.3710 C   0  0  0  0  0  0  0  0  0  0  0  0
  140.7460   71.1950  226.0640 C   0  0  0  0  0  0  0  0  0  0  0  0
  140.3500   69.9300  225.6920 C   0  0  0  0  0  0  0  0  0  0  0  0
  140.3110   68.9080  226.6530 C   0  0  0  0  0  0  0  0  0  0  0  0
  140.0310   69.9500  224.2240 C   0  0  0  0  0  0  0  0  0  0  0  0
  140.3100   71.3620  223.8700 C   0  0  0  0  0  0  0  0  0  0  0  0
  140.2100   71.9790  222.5410 C   0  0  0  0  0  0  0  0  0  0  0  0
  140.2250   71.1690  221.4190 C   0  0  0  0  0  0  0  0  0  0  0  0
  140.1710   71.7710  220.1780 C   0  0  0  0  0  0  0  0  0  0  0  0
  140.1050   73.1500  220.0120 C   0  0  0  0  0  0  0  0  0  0  0  0
  140.0910   73.9440  221.1340 C   0  0  0  0  0  0  0  0  0  0  0  0
  140.0830   75.4110  221.0820 C   0  0  0  0  0  0  0  0  0  0  0  0
  139.0520   75.9440  220.6180 O   0  0  0  0  0  0  0  0  0  0  0  0
  141.1990   76.1600  221.5510 N   0  0  0  0  0  0  0  0  0  0  0  0
  141.2880   77.5610  221.5550 C   0  0  0  0  0  0  0  0  0  0  0  0
  141.7870   78.3390  220.5410 C   0  0  0  0  0  0  0  0  0  0  0  0
  141.7800   79.7370  220.5820 C   0  0  0  0  0  0  0  0  0  0  0  0
  141.2440   80.3760  221.7070 C   0  0  0  0  0  0  0  0  0  0  0  0
  141.2160   81.8230  221.7590 C   0  0  0  0  0  0  0  0  0  0  0  0
  141.8280   82.3390  222.7600 O   0  0  0  0  0  0  0  0  0  0  0  0
  140.6170   82.7010  220.8620 N   0  0  0  0  0  0  0  0  0  0  0  0
  139.8720   82.2740  219.6640 C   0  0  0  0  0  0  0  0  0  0  0  0
  139.0340   83.4360  219.1670 C   0  0  0  0  0  0  0  0  0  0  0  0
  138.3740   84.1790  220.1900 N   0  0  0  0  0  0  0  0  0  0  0  0
  137.0710   83.7270  220.5560 C   0  0  0  0  0  0  0  0  0  0  0  0
  139.2150   84.5330  221.3220 C   0  0  0  0  0  0  0  0  0  0  0  0
  140.6650   84.1570  221.0360 C   0  0  0  0  0  0  0  0  0  0  0  0
  140.7320   79.6030  222.7530 C   0  0  0  0  0  0  0  0  0  0  0  0
  140.7640   78.2330  222.6560 C   0  0  0  0  0  0  0  0  0  0  0  0
  140.1430   73.3280  222.3480 C   0  0  0  0  0  0  0  0  0  0  0  0
  140.7010   72.0290  224.9010 N   0  0  0  0  0  0  0  0  0  0  0  0
  140.6662   68.6365  230.0220 H   0  0  0  0  0  0  0  0  0  0  0  0
  139.7540   67.5308  228.9394 H   0  0  0  0  0  0  0  0  0  0  0  0
  141.5502   67.5082  228.9394 H   0  0  0  0  0  0  0  0  0  0  0  0
  141.3544   70.6960  229.3426 H   0  0  0  0  0  0  0  0  0  0  0  0
  141.4252   72.4924  227.6557 H   0  0  0  0  0  0  0  0  0  0  0  0
  139.9953   67.8940  226.3664 H   0  0  0  0  0  0  0  0  0  0  0  0
  140.6806   69.2612  223.6640 H   0  0  0  0  0  0  0  0  0  0  0  0
  139.0067   69.6263  223.9872 H   0  0  0  0  0  0  0  0  0  0  0  0
  140.2785   70.0744  221.5136 H   0  0  0  0  0  0  0  0  0  0  0  0
  140.1806   71.1327  219.2822 H   0  0  0  0  0  0  0  0  0  0  0  0
  140.0649   73.5949  219.0068 H   0  0  0  0  0  0  0  0  0  0  0  0
  142.0000   75.5820  221.9190 H   0  0  0  0  0  0  0  0  0  0  0  0
  142.2114   77.8412  219.6566 H   0  0  0  0  0  0  0  0  0  0  0  0
  142.1880   80.3239  219.7459 H   0  0  0  0  0  0  0  0  0  0  0  0
  140.5791   81.9665  218.8795 H   0  0  0  0  0  0  0  0  0  0  0  0
  139.2199   81.4240  219.9138 H   0  0  0  0  0  0  0  0  0  0  0  0
  139.6939   84.1230  218.6169 H   0  0  0  0  0  0  0  0  0  0  0  0
  138.2414   83.0003  218.5409 H   0  0  0  0  0  0  0  0  0  0  0  0
  136.9875   83.6980  221.6524 H   0  0  0  0  0  0  0  0  0  0  0  0
  136.3162   84.4158  220.1489 H   0  0  0  0  0  0  0  0  0  0  0  0
  136.9049   82.7187  220.1489 H   0  0  0  0  0  0  0  0  0  0  0  0
  139.1485   85.6165  221.4998 H   0  0  0  0  0  0  0  0  0  0  0  0
  138.8701   83.9856  222.2116 H   0  0  0  0  0  0  0  0  0  0  0  0
  141.0252   84.6500  220.1210 H   0  0  0  0  0  0  0  0  0  0  0  0
  141.3528   84.4690  221.8357 H   0  0  0  0  0  0  0  0  0  0  0  0
  140.3076   80.0869  223.6451 H   0  0  0  0  0  0  0  0  0  0  0  0
  140.3565   77.6390  223.4873 H   0  0  0  0  0  0  0  0  0  0  0  0
  140.1300   73.9682  223.2424 H   0  0  0  0  0  0  0  0  0  0  0  0
  1  2  1  0
  2  3  2  0
  3  4  1  0
  4  5  2  0
  5  6  1  0
  6  7  2  0
  6  8  1  0
  8  9  1  0
  9 10  1  0
 10 11  2  0
 11 12  1  0
 12 13  2  0
 13 14  1  0
 14 15  1  0
 15 16  2  0
 15 17  1  0
 17 18  1  0
 18 19  2  0
 19 20  1  0
 20 21  2  0
 21 22  1  0
 22 23  2  0
 22 24  1  0
 24 25  1  0
 25 26  1  0
 26 27  1  0
 27 28  1  0
 27 29  1  0
 29 30  1  0
 21 31  1  0
 31 32  2  0
 14 33  2  0
  9 34  2  0
  7  2  1  0
 33 10  1  0
 34  5  1  0
 32 18  1  0
 30 24  1  0
  1 35  1  0
  1 36  1  0
  1 37  1  0
  3 38  1  0
  4 39  1  0
  7 40  1  0
  8 41  1  0
  8 42  1  0
 11 43  1  0
 12 44  1  0
 13 45  1  0
 17 46  1  0
 19 47  1  0
 20 48  1  0
 25 49  1  0
 25 50  1  0
 26 51  1  0
 26 52  1  0
 28 53  1  0
 28 54  1  0
 28 55  1  0
 29 56  1  0
 29 57  1  0
 30 58  1  0
 30 59  1  0
 31 60  1  0
 32 61  1  0
 33 62  1  0
M  END
>  <smiles>  (5) 
Cc1ccc2c(c1)CC(c1cccc(C(=O)Nc3ccc(C(=O)N4CCN(C)CC4)cc3)c1)=N2

>  <score_type>  (5) 
oracle

>  <origin>  (5) 
autodockgpu

>  <m_score__min__energy>  (5) 
-8.8599999999999994

>  <m_primary>  (5) 
energy

>  <rmsd>  (5) 
8.732520979174735

>  <m_score__min__rmsd>  (5) 
8.732520979174735

>  <meeko>  (5) 
{"free_energy": -8.84, "intermolecular_energy": -10.03, "internal_energy": -0.99, "cluster_size": 39, "cluster_id": 1, "rank_in_cluster": 6}

>  <energy>  (5) 
-8.84

>  <cluster_rmsd>  (5) 
0.28

>  <cluster>  (5) 
1

$$$$

     RDKit          3D

 62 66  0  0  0  0  0  0  0  0999 V2000
  140.6780   68.1500  229.0500 C   0  0  0  0  0  0  0  0  0  0  0  0
  140.6860   69.1800  227.9810 C   0  0  0  0  0  0  0  0  0  0  0  0
  141.0830   70.4750  228.3080 C   0  0  0  0  0  0  0  0  0  0  0  0
  141.1190   71.4760  227.3710 C   0  0  0  0  0  0  0  0  0  0  0  0
  140.7500   71.1880  226.0670 C   0  0  0  0  0  0  0  0  0  0  0  0
  140.3520   69.9220  225.7010 C   0  0  0  0  0  0  0  0  0  0  0  0
  140.3170   68.9030  226.6660 C   0  0  0  0  0  0  0  0  0  0  0  0
  140.0260   69.9370  224.2350 C   0  0  0  0  0  0  0  0  0  0  0  0
  140.3030   71.3470  223.8740 C   0  0  0  0  0  0  0  0  0  0  0  0
  140.1970   71.9600  222.5440 C   0  0  0  0  0  0  0  0  0  0  0  0
  140.1940   71.1450  221.4250 C   0  0  0  0  0  0  0  0  0  0  0  0
  140.1350   71.7420  220.1820 C   0  0  0  0  0  0  0  0  0  0  0  0
  140.0800   73.1210  220.0110 C   0  0  0  0  0  0  0  0  0  0  0  0
  140.0830   73.9200  221.1300 C   0  0  0  0  0  0  0  0  0  0  0  0
  140.0870   75.3860  221.0720 C   0  0  0  0  0  0  0  0  0  0  0  0
  139.0820   75.9250  220.5600 O   0  0  0  0  0  0  0  0  0  0  0  0
  141.1860   76.1310  221.5880 N   0  0  0  0  0  0  0  0  0  0  0  0
  141.2840   77.5310  221.5910 C   0  0  0  0  0  0  0  0  0  0  0  0
  141.7740   78.3050  220.5690 C   0  0  0  0  0  0  0  0  0  0  0  0
  141.7770   79.7030  220.6110 C   0  0  0  0  0  0  0  0  0  0  0  0
  141.2610   80.3460  221.7430 C   0  0  0  0  0  0  0  0  0  0  0  0
  141.2440   81.7930  221.7950 C   0  0  0  0  0  0  0  0  0  0  0  0
  141.8240   82.3030  222.8180 O   0  0  0  0  0  0  0  0  0  0  0  0
  140.6830   82.6760  220.8780 N   0  0  0  0  0  0  0  0  0  0  0  0
  139.9770   82.2570  219.6550 C   0  0  0  0  0  0  0  0  0  0  0  0
  139.1670   83.4250  219.1300 C   0  0  0  0  0  0  0  0  0  0  0  0
  138.4780   84.1730  220.1300 N   0  0  0  0  0  0  0  0  0  0  0  0
  137.1590   83.7320  220.4500 C   0  0  0  0  0  0  0  0  0  0  0  0
  139.2810   84.5200  221.2900 C   0  0  0  0  0  0  0  0  0  0  0  0
  140.7380   84.1320  221.0550 C   0  0  0  0  0  0  0  0  0  0  0  0
  140.7590   79.5770  222.7960 C   0  0  0  0  0  0  0  0  0  0  0  0
  140.7800   78.2060  222.6980 C   0  0  0  0  0  0  0  0  0  0  0  0
  140.1400   73.3090  222.3460 C   0  0  0  0  0  0  0  0  0  0  0  0
  140.7000   72.0180  224.9010 N   0  0  0  0  0  0  0  0  0  0  0  0
  140.6818   68.6424  230.0336 H   0  0  0  0  0  0  0  0  0  0  0  0
  139.7750   67.5292  228.9542 H   0  0  0  0  0  0  0  0  0  0  0  0
  141.5712   67.5152  228.9542 H   0  0  0  0  0  0  0  0  0  0  0  0
  141.3750   70.7003  229.3443 H   0  0  0  0  0  0  0  0  0  0  0  0
  141.4359   72.4916  227.6505 H   0  0  0  0  0  0  0  0  0  0  0  0
  139.9990   67.8882  226.3848 H   0  0  0  0  0  0  0  0  0  0  0  0
  140.6728   69.2461  223.6743 H   0  0  0  0  0  0  0  0  0  0  0  0
  139.0004   69.6128  224.0047 H   0  0  0  0  0  0  0  0  0  0  0  0
  140.2375   70.0503  221.5239 H   0  0  0  0  0  0  0  0  0  0  0  0
  140.1313   71.0999  219.2889 H   0  0  0  0  0  0  0  0  0  0  0  0
  140.0352   73.5621  219.0043 H   0  0  0  0  0  0  0  0  0  0  0  0
  141.9660   75.5480  221.9940 H   0  0  0  0  0  0  0  0  0  0  0  0
  142.1819   77.8043  219.6786 H   0  0  0  0  0  0  0  0  0  0  0  0
  142.1777   80.2873  219.7695 H   0  0  0  0  0  0  0  0  0  0  0  0
  140.7085   81.9441  218.8954 H   0  0  0  0  0  0  0  0  0  0  0  0
  139.3092   81.4127  219.8814 H   0  0  0  0  0  0  0  0  0  0  0  0
  139.8512   84.1067  218.6036 H   0  0  0  0  0  0  0  0  0  0  0  0
  138.3933   82.9961  218.4763 H   0  0  0  0  0  0  0  0  0  0  0  0
  137.0407   83.6924  221.5429 H   0  0  0  0  0  0  0  0  0  0  0  0
  136.4250   84.4336  220.0269 H   0  0  0  0  0  0  0  0  0  0  0  0
  136.9946   82.7300  220.0269 H   0  0  0  0  0  0  0  0  0  0  0  0
  139.2171   85.6040  221.4655 H   0  0  0  0  0  0  0  0  0  0  0  0
  138.9006   83.9755  222.1668 H   0  0  0  0  0  0  0  0  0  0  0  0
  141.1347   84.6225  220.1538 H   0  0  0  0  0  0  0  0  0  0  0  0
  141.4000   84.4378  221.8785 H   0  0  0  0  0  0  0  0  0  0  0  0
  140.3512   80.0637  223.6942 H   0  0  0  0  0  0  0  0  0  0  0  0
  140.3793   77.6147  223.5345 H   0  0  0  0  0  0  0  0  0  0  0  0
  140.1401   73.9530  223.2378 H   0  0  0  0  0  0  0  0  0  0  0  0
  1  2  1  0
  2  3  2  0
  3  4  1  0
  4  5  2  0
  5  6  1  0
  6  7  2  0
  6  8  1  0
  8  9  1  0
  9 10  1  0
 10 11  2  0
 11 12  1  0
 12 13  2  0
 13 14  1  0
 14 15  1  0
 15 16  2  0
 15 17  1  0
 17 18  1  0
 18 19  2  0
 19 20  1  0
 20 21  2  0
 21 22  1  0
 22 23  2  0
 22 24  1  0
 24 25  1  0
 25 26  1  0
 26 27  1  0
 27 28  1  0
 27 29  1  0
 29 30  1  0
 21 31  1  0
 31 32  2  0
 14 33  2  0
  9 34  2  0
  7  2  1  0
 33 10  1  0
 34  5  1  0
 32 18  1  0
 30 24  1  0
  1 35  1  0
  1 36  1  0
  1 37  1  0
  3 38  1  0
  4 39  1  0
  7 40  1  0
  8 41  1  0
  8 42  1  0
 11 43  1  0
 12 44  1  0
 13 45  1  0
 17 46  1  0
 19 47  1  0
 20 48  1  0
 25 49  1  0
 25 50  1  0
 26 51  1  0
 26 52  1  0
 28 53  1  0
 28 54  1  0
 28 55  1  0
 29 56  1  0
 29 57  1  0
 30 58  1  0
 30 59  1  0
 31 60  1  0
 32 61  1  0
 33 62  1  0
M  END
>  <smiles>  (6) 
Cc1ccc2c(c1)CC(c1cccc(C(=O)Nc3ccc(C(=O)N4CCN(C)CC4)cc3)c1)=N2

>  <score_type>  (6) 
oracle

>  <origin>  (6) 
autodockgpu

>  <m_score__min__energy>  (6) 
-8.8599999999999994

>  <m_primary>  (6) 
energy

>  <rmsd>  (6) 
8.737911733481445

>  <m_score__min__rmsd>  (6) 
8.737911733481445

>  <meeko>  (6) 
{"free_energy": -8.86, "intermolecular_energy": -10.05, "internal_energy": -0.98, "cluster_size": 39, "cluster_id": 1, "rank_in_cluster": 2}

>  <energy>  (6) 
-8.84

>  <cluster_rmsd>  (6) 
0.08

>  <cluster>  (6) 
1

$$$$

     RDKit          3D

 62 66  0  0  0  0  0  0  0  0999 V2000
  140.5980   68.1500  229.0770 C   0  0  0  0  0  0  0  0  0  0  0  0
  140.6200   69.1730  228.0010 C   0  0  0  0  0  0  0  0  0  0  0  0
  141.0490   70.4600  228.3160 C   0  0  0  0  0  0  0  0  0  0  0  0
  141.0990   71.4540  227.3720 C   0  0  0  0  0  0  0  0  0  0  0  0
  140.7130   71.1660  226.0740 C   0  0  0  0  0  0  0  0  0  0  0  0
  140.2840   69.9070  225.7190 C   0  0  0  0  0  0  0  0  0  0  0  0
  140.2350   68.8960  226.6910 C   0  0  0  0  0  0  0  0  0  0  0  0
  139.9460   69.9210  224.2560 C   0  0  0  0  0  0  0  0  0  0  0  0
  140.2510   71.3220  223.8840 C   0  0  0  0  0  0  0  0  0  0  0  0
  140.1480   71.9290  222.5500 C   0  0  0  0  0  0  0  0  0  0  0  0
  140.1510   71.1080  221.4350 C   0  0  0  0  0  0  0  0  0  0  0  0
  140.0940   71.7000  220.1900 C   0  0  0  0  0  0  0  0  0  0  0  0
  140.0350   73.0780  220.0120 C   0  0  0  0  0  0  0  0  0  0  0  0
  140.0320   73.8820  221.1270 C   0  0  0  0  0  0  0  0  0  0  0  0
  140.0330   75.3480  221.0630 C   0  0  0  0  0  0  0  0  0  0  0  0
  139.0790   75.8780  220.4520 O   0  0  0  0  0  0  0  0  0  0  0  0
  141.0710   76.1020  221.6800 N   0  0  0  0  0  0  0  0  0  0  0  0
  141.1590   77.5030  221.6860 C   0  0  0  0  0  0  0  0  0  0  0  0
  141.7790   78.2740  220.7350 C   0  0  0  0  0  0  0  0  0  0  0  0
  141.7680   79.6720  220.7650 C   0  0  0  0  0  0  0  0  0  0  0  0
  141.0980   80.3190  221.8120 C   0  0  0  0  0  0  0  0  0  0  0  0
  141.0660   81.7660  221.8500 C   0  0  0  0  0  0  0  0  0  0  0  0
  141.7760   82.2980  222.7750 O   0  0  0  0  0  0  0  0  0  0  0  0
  140.3670   82.6290  221.0130 N   0  0  0  0  0  0  0  0  0  0  0  0
  139.5030   82.1840  219.9060 C   0  0  0  0  0  0  0  0  0  0  0  0
  138.6080   83.3340  219.4880 C   0  0  0  0  0  0  0  0  0  0  0  0
  138.0540   84.0850  220.5670 N   0  0  0  0  0  0  0  0  0  0  0  0
  136.8010   83.6290  221.0750 C   0  0  0  0  0  0  0  0  0  0  0  0
  139.0080   84.4580  221.5980 C   0  0  0  0  0  0  0  0  0  0  0  0
  140.4230   84.0880  221.1640 C   0  0  0  0  0  0  0  0  0  0  0  0
  140.4620   79.5530  222.7930 C   0  0  0  0  0  0  0  0  0  0  0  0
  140.5050   78.1820  222.7090 C   0  0  0  0  0  0  0  0  0  0  0  0
  140.0880   73.2760  222.3460 C   0  0  0  0  0  0  0  0  0  0  0  0
  140.6720   71.9900  224.9030 N   0  0  0  0  0  0  0  0  0  0  0  0
  140.6087   68.6487  230.0574 H   0  0  0  0  0  0  0  0  0  0  0  0
  139.6866   67.5410  228.9854 H   0  0  0  0  0  0  0  0  0  0  0  0
  141.4824   67.5024  228.9854 H   0  0  0  0  0  0  0  0  0  0  0  0
  141.3556   70.6852  229.3481 H   0  0  0  0  0  0  0  0  0  0  0  0
  141.4405   72.4642  227.6421 H   0  0  0  0  0  0  0  0  0  0  0  0
  139.8932   67.8865  226.4190 H   0  0  0  0  0  0  0  0  0  0  0  0
  140.5725   69.2126  223.6941 H   0  0  0  0  0  0  0  0  0  0  0  0
  138.9114   69.6185  224.0364 H   0  0  0  0  0  0  0  0  0  0  0  0
  140.1976   70.0139  221.5389 H   0  0  0  0  0  0  0  0  0  0  0  0
  140.0953   71.0540  219.2997 H   0  0  0  0  0  0  0  0  0  0  0  0
  139.9918   73.5142  219.0031 H   0  0  0  0  0  0  0  0  0  0  0  0
  141.8110   75.5270  222.1630 H   0  0  0  0  0  0  0  0  0  0  0  0
  142.3080   77.7700  219.9127 H   0  0  0  0  0  0  0  0  0  0  0  0
  142.2759   80.2531  219.9812 H   0  0  0  0  0  0  0  0  0  0  0  0
  140.1254   81.8722  219.0543 H   0  0  0  0  0  0  0  0  0  0  0  0
  138.8876   81.3329  220.2329 H   0  0  0  0  0  0  0  0  0  0  0  0
  139.2004   84.0188  218.8634 H   0  0  0  0  0  0  0  0  0  0  0  0
  137.7570   82.8854  218.9546 H   0  0  0  0  0  0  0  0  0  0  0  0
  136.8260   83.6381  222.1747 H   0  0  0  0  0  0  0  0  0  0  0  0
  135.9984   84.2927  220.7210 H   0  0  0  0  0  0  0  0  0  0  0  0
  136.6127   82.6047  220.7210 H   0  0  0  0  0  0  0  0  0  0  0  0
  138.9524   85.5432  221.7693 H   0  0  0  0  0  0  0  0  0  0  0  0
  138.7640   83.9189  222.5253 H   0  0  0  0  0  0  0  0  0  0  0  0
  140.6806   84.5720  220.2104 H   0  0  0  0  0  0  0  0  0  0  0  0
  141.1896   84.4144  221.8822 H   0  0  0  0  0  0  0  0  0  0  0  0
  139.9325   80.0425  223.6237 H   0  0  0  0  0  0  0  0  0  0  0  0
  139.9981   77.5934  223.4878 H   0  0  0  0  0  0  0  0  0  0  0  0
  140.0845   73.9238  223.2350 H   0  0  0  0  0  0  0  0  0  0  0  0
  1  2  1  0
  2  3  2  0
  3  4  1  0
  4  5  2  0
  5  6  1  0
  6  7  2  0
  6  8  1  0
  8  9  1  0
  9 10  1  0
 10 11  2  0
 11 12  1  0
 12 13  2  0
 13 14  1  0
 14 15  1  0
 15 16  2  0
 15 17  1  0
 17 18  1  0
 18 19  2  0
 19 20  1  0
 20 21  2  0
 21 22  1  0
 22 23  2  0
 22 24  1  0
 24 25  1  0
 25 26  1  0
 26 27  1  0
 27 28  1  0
 27 29  1  0
 29 30  1  0
 21 31  1  0
 31 32  2  0
 14 33  2  0
  9 34  2  0
  7  2  1  0
 33 10  1  0
 34  5  1  0
 32 18  1  0
 30 24  1  0
  1 35  1  0
  1 36  1  0
  1 37  1  0
  3 38  1  0
  4 39  1  0
  7 40  1  0
  8 41  1  0
  8 42  1  0
 11 43  1  0
 12 44  1  0
 13 45  1  0
 17 46  1  0
 19 47  1  0
 20 48  1  0
 25 49  1  0
 25 50  1  0
 26 51  1  0
 26 52  1  0
 28 53  1  0
 28 54  1  0
 28 55  1  0
 29 56  1  0
 29 57  1  0
 30 58  1  0
 30 59  1  0
 31 60  1  0
 32 61  1  0
 33 62  1  0
M  END
>  <smiles>  (7) 
Cc1ccc2c(c1)CC(c1cccc(C(=O)Nc3ccc(C(=O)N4CCN(C)CC4)cc3)c1)=N2

>  <score_type>  (7) 
oracle

>  <origin>  (7) 
autodockgpu

>  <m_score__min__energy>  (7) 
-8.8599999999999994

>  <m_primary>  (7) 
energy

>  <rmsd>  (7) 
8.702088577456282

>  <m_score__min__rmsd>  (7) 
8.702088577456282

>  <meeko>  (7) 
{"free_energy": -8.79, "intermolecular_energy": -9.98, "internal_energy": -1.01, "cluster_size": 39, "cluster_id": 1, "rank_in_cluster": 13}

>  <energy>  (7) 
-8.84

>  <cluster_rmsd>  (7) 
0.04

>  <cluster>  (7) 
1

$$$$

     RDKit          3D

 62 66  0  0  0  0  0  0  0  0999 V2000
  131.0970   78.1400  228.6040 C   0  0  0  0  0  0  0  0  0  0  0  0
  131.9330   77.1070  227.9410 C   0  0  0  0  0  0  0  0  0  0  0  0
  133.0910   77.5130  227.2810 C   0  0  0  0  0  0  0  0  0  0  0  0
  133.9130   76.6150  226.6500 C   0  0  0  0  0  0  0  0  0  0  0  0
  133.5800   75.2710  226.6710 C   0  0  0  0  0  0  0  0  0  0  0  0
  132.4440   74.8270  227.3110 C   0  0  0  0  0  0  0  0  0  0  0  0
  131.6080   75.7530  227.9540 C   0  0  0  0  0  0  0  0  0  0  0  0
  132.3710   73.3350  227.1560 C   0  0  0  0  0  0  0  0  0  0  0  0
  133.5940   73.0470  226.3710 C   0  0  0  0  0  0  0  0  0  0  0  0
  134.0820   71.7310  225.9380 C   0  0  0  0  0  0  0  0  0  0  0  0
  133.4990   70.5910  226.4640 C   0  0  0  0  0  0  0  0  0  0  0  0
  133.9980   69.3640  226.0750 C   0  0  0  0  0  0  0  0  0  0  0  0
  135.0580   69.2300  225.1850 C   0  0  0  0  0  0  0  0  0  0  0  0
  135.6290   70.3700  224.6700 C   0  0  0  0  0  0  0  0  0  0  0  0
  136.7870   70.3550  223.7700 C   0  0  0  0  0  0  0  0  0  0  0  0
  137.0380   69.2680  223.2050 O   0  0  0  0  0  0  0  0  0  0  0  0
  137.5610   71.5320  223.5620 N   0  0  0  0  0  0  0  0  0  0  0  0
  138.6780   71.6270  222.7170 C   0  0  0  0  0  0  0  0  0  0  0  0
  139.9860   71.7280  223.1200 C   0  0  0  0  0  0  0  0  0  0  0  0
  141.0580   71.7470  222.2230 C   0  0  0  0  0  0  0  0  0  0  0  0
  140.7910   71.6610  220.8510 C   0  0  0  0  0  0  0  0  0  0  0  0
  141.8920   71.6650  219.9090 C   0  0  0  0  0  0  0  0  0  0  0  0
  141.9660   70.6260  219.1630 O   0  0  0  0  0  0  0  0  0  0  0  0
  142.8570   72.6490  219.7250 N   0  0  0  0  0  0  0  0  0  0  0  0
  142.9190   73.8990  220.5010 C   0  0  0  0  0  0  0  0  0  0  0  0
  144.2900   74.5200  220.3250 C   0  0  0  0  0  0  0  0  0  0  0  0
  145.3760   73.5970  220.3730 N   0  0  0  0  0  0  0  0  0  0  0  0
  145.9350   73.3480  221.6630 C   0  0  0  0  0  0  0  0  0  0  0  0
  145.1910   72.3990  219.5700 C   0  0  0  0  0  0  0  0  0  0  0  0
  143.9260   72.5230  218.7270 C   0  0  0  0  0  0  0  0  0  0  0  0
  139.4660   71.5590  220.4170 C   0  0  0  0  0  0  0  0  0  0  0  0
  138.4540   71.5440  221.3460 C   0  0  0  0  0  0  0  0  0  0  0  0
  135.1180   71.5700  225.0660 C   0  0  0  0  0  0  0  0  0  0  0  0
  134.2430   74.1310  226.1140 N   0  0  0  0  0  0  0  0  0  0  0  0
  131.1819   78.0351  229.6957 H   0  0  0  0  0  0  0  0  0  0  0  0
  131.4431   79.1400  228.3037 H   0  0  0  0  0  0  0  0  0  0  0  0
  130.0468   78.0100  228.3037 H   0  0  0  0  0  0  0  0  0  0  0  0
  133.3525   78.5814  227.2658 H   0  0  0  0  0  0  0  0  0  0  0  0
  134.8229   76.9569  226.1350 H   0  0  0  0  0  0  0  0  0  0  0  0
  130.6977   75.4098  228.4673 H   0  0  0  0  0  0  0  0  0  0  0  0
  132.3949   72.8300  228.1329 H   0  0  0  0  0  0  0  0  0  0  0  0
  131.4444   72.9834  226.6787 H   0  0  0  0  0  0  0  0  0  0  0  0
  132.6607   70.6609  227.1728 H   0  0  0  0  0  0  0  0  0  0  0  0
  133.5376   68.4537  226.4865 H   0  0  0  0  0  0  0  0  0  0  0  0
  135.4310   68.2353  224.8996 H   0  0  0  0  0  0  0  0  0  0  0  0
  137.2360   72.3790  224.0990 H   0  0  0  0  0  0  0  0  0  0  0  0
  140.2004   71.7971  224.1967 H   0  0  0  0  0  0  0  0  0  0  0  0
  142.0924   71.8280  222.5882 H   0  0  0  0  0  0  0  0  0  0  0  0
  142.1489   74.5963  220.1396 H   0  0  0  0  0  0  0  0  0  0  0  0
  142.7410   73.6855  221.5653 H   0  0  0  0  0  0  0  0  0  0  0  0
  144.3137   75.0255  219.3483 H   0  0  0  0  0  0  0  0  0  0  0  0
  144.4298   75.2065  221.1730 H   0  0  0  0  0  0  0  0  0  0  0  0
  145.2226   73.6653  222.4388 H   0  0  0  0  0  0  0  0  0  0  0  0
  146.1411   72.2730  221.7720 H   0  0  0  0  0  0  0  0  0  0  0  0
  146.8720   73.9138  221.7720 H   0  0  0  0  0  0  0  0  0  0  0  0
  146.0587   72.2680  218.9068 H   0  0  0  0  0  0  0  0  0  0  0  0
  145.0951   71.5297  220.2372 H   0  0  0  0  0  0  0  0  0  0  0  0
  143.9690   73.4137  218.0830 H   0  0  0  0  0  0  0  0  0  0  0  0
  143.7790   71.6696  218.0487 H   0  0  0  0  0  0  0  0  0  0  0  0
  139.2362   71.4915  219.3434 H   0  0  0  0  0  0  0  0  0  0  0  0
  137.4167   71.4625  220.9890 H   0  0  0  0  0  0  0  0  0  0  0  0
  135.5769   72.4790  224.6499 H   0  0  0  0  0  0  0  0  0  0  0  0
  1  2  1  0
  2  3  2  0
  3  4  1  0
  4  5  2  0
  5  6  1  0
  6  7  2  0
  6  8  1  0
  8  9  1  0
  9 10  1  0
 10 11  2  0
 11 12  1  0
 12 13  2  0
 13 14  1  0
 14 15  1  0
 15 16  2  0
 15 17  1  0
 17 18  1  0
 18 19  2  0
 19 20  1  0
 20 21  2  0
 21 22  1  0
 22 23  2  0
 22 24  1  0
 24 25  1  0
 25 26  1  0
 26 27  1  0
 27 28  1  0
 27 29  1  0
 29 30  1  0
 21 31  1  0
 31 32  2  0
 14 33  2  0
  9 34  2  0
  7  2  1  0
 33 10  1  0
 34  5  1  0
 32 18  1  0
 30 24  1  0
  1 35  1  0
  1 36  1  0
  1 37  1  0
  3 38  1  0
  4 39  1  0
  7 40  1  0
  8 41  1  0
  8 42  1  0
 11 43  1  0
 12 44  1  0
 13 45  1  0
 17 46  1  0
 19 47  1  0
 20 48  1  0
 25 49  1  0
 25 50  1  0
 26 51  1  0
 26 52  1  0
 28 53  1  0
 28 54  1  0
 28 55  1  0
 29 56  1  0
 29 57  1  0
 30 58  1  0
 30 59  1  0
 31 60  1  0
 32 61  1  0
 33 62  1  0
M  END
>  <smiles>  (8) 
Cc1ccc2c(c1)CC(c1cccc(C(=O)Nc3ccc(C(=O)N4CCN(C)CC4)cc3)c1)=N2

>  <score_type>  (8) 
oracle

>  <origin>  (8) 
autodockgpu

>  <m_score__min__energy>  (8) 
-8.8599999999999994

>  <m_primary>  (8) 
energy

>  <rmsd>  (8) 
8.588618957167046

>  <m_score__min__rmsd>  (8) 
8.588618957167046

>  <meeko>  (8) 
{"free_energy": -8.03, "intermolecular_energy": -9.22, "internal_energy": -1.01, "cluster_size": 1, "cluster_id": 4, "rank_in_cluster": 1}

>  <energy>  (8) 
-8.83

>  <cluster_rmsd>  (8) 
0.07

>  <cluster>  (8) 
1

$$$$

     RDKit          3D

 62 66  0  0  0  0  0  0  0  0999 V2000
  140.9470   68.1630  229.0760 C   0  0  0  0  0  0  0  0  0  0  0  0
  140.5760   68.5480  227.6910 C   0  0  0  0  0  0  0  0  0  0  0  0
  139.6890   67.7350  226.9900 C   0  0  0  0  0  0  0  0  0  0  0  0
  139.2990   68.0310  225.7080 C   0  0  0  0  0  0  0  0  0  0  0  0
  139.8030   69.1690  225.1000 C   0  0  0  0  0  0  0  0  0  0  0  0
  140.6810   70.0000  225.7570 C   0  0  0  0  0  0  0  0  0  0  0  0
  141.0760   69.6900  227.0680 C   0  0  0  0  0  0  0  0  0  0  0  0
  141.0330   71.1350  224.8370 C   0  0  0  0  0  0  0  0  0  0  0  0
  140.2370   70.8080  223.6310 C   0  0  0  0  0  0  0  0  0  0  0  0
  140.1460   71.5890  222.3900 C   0  0  0  0  0  0  0  0  0  0  0  0
  140.1620   70.9260  221.1750 C   0  0  0  0  0  0  0  0  0  0  0  0
  140.1160   71.6790  220.0200 C   0  0  0  0  0  0  0  0  0  0  0  0
  140.0560   73.0690  220.0280 C   0  0  0  0  0  0  0  0  0  0  0  0
  140.0400   73.7160  221.2410 C   0  0  0  0  0  0  0  0  0  0  0  0
  140.0370   75.1770  221.3750 C   0  0  0  0  0  0  0  0  0  0  0  0
  138.9360   75.7090  221.6310 O   0  0  0  0  0  0  0  0  0  0  0  0
  141.2410   75.9220  221.2250 N   0  0  0  0  0  0  0  0  0  0  0  0
  141.3490   77.3170  221.3420 C   0  0  0  0  0  0  0  0  0  0  0  0
  141.8170   78.1720  220.3760 C   0  0  0  0  0  0  0  0  0  0  0  0
  141.8310   79.5620  220.5350 C   0  0  0  0  0  0  0  0  0  0  0  0
  141.3490   80.1090  221.7300 C   0  0  0  0  0  0  0  0  0  0  0  0
  141.3430   81.5470  221.9030 C   0  0  0  0  0  0  0  0  0  0  0  0
  141.7040   81.9520  223.0640 O   0  0  0  0  0  0  0  0  0  0  0  0
  140.9990   82.5200  220.9710 N   0  0  0  0  0  0  0  0  0  0  0  0
  140.5580   82.2260  219.5960 C   0  0  0  0  0  0  0  0  0  0  0  0
  139.8920   83.4600  219.0190 C   0  0  0  0  0  0  0  0  0  0  0  0
  139.0200   84.1450  219.9160 N   0  0  0  0  0  0  0  0  0  0  0  0
  137.6580   83.7220  219.9170 C   0  0  0  0  0  0  0  0  0  0  0  0
  139.5690   84.3690  221.2440 C   0  0  0  0  0  0  0  0  0  0  0  0
  141.0370   83.9540  221.2820 C   0  0  0  0  0  0  0  0  0  0  0  0
  140.8690   79.2560  222.7280 C   0  0  0  0  0  0  0  0  0  0  0  0
  140.8790   77.8990  222.5150 C   0  0  0  0  0  0  0  0  0  0  0  0
  140.0850   72.9510  222.3680 C   0  0  0  0  0  0  0  0  0  0  0  0
  139.5690   69.7190  223.7990 N   0  0  0  0  0  0  0  0  0  0  0  0
  140.3673   68.7646  229.7916 H   0  0  0  0  0  0  0  0  0  0  0  0
  140.7276   67.0964  229.2313 H   0  0  0  0  0  0  0  0  0  0  0  0
  142.0210   68.3428  229.2313 H   0  0  0  0  0  0  0  0  0  0  0  0
  139.2907   66.8323  227.4764 H   0  0  0  0  0  0  0  0  0  0  0  0
  138.5974   67.3751  225.1718 H   0  0  0  0  0  0  0  0  0  0  0  0
  141.7784   70.3468  227.6021 H   0  0  0  0  0  0  0  0  0  0  0  0
  140.7335   72.1036  225.2637 H   0  0  0  0  0  0  0  0  0  0  0  0
  142.1116   71.2336  224.6448 H   0  0  0  0  0  0  0  0  0  0  0  0
  140.2101   69.8279  221.1316 H   0  0  0  0  0  0  0  0  0  0  0  0
  140.1272   71.1581  219.0512 H   0  0  0  0  0  0  0  0  0  0  0  0
  140.0222   73.6367  219.0864 H   0  0  0  0  0  0  0  0  0  0  0  0
  142.0980   75.3450  221.0120 H   0  0  0  0  0  0  0  0  0  0  0  0
  142.1976   77.7461  219.4360 H   0  0  0  0  0  0  0  0  0  0  0  0
  142.2138   80.2132  219.7354 H   0  0  0  0  0  0  0  0  0  0  0  0
  141.4275   81.9535  218.9797 H   0  0  0  0  0  0  0  0  0  0  0  0
  139.8458   81.3877  219.6044 H   0  0  0  0  0  0  0  0  0  0  0  0
  140.6809   84.1603  218.7074 H   0  0  0  0  0  0  0  0  0  0  0  0
  139.2656   83.1117  218.1845 H   0  0  0  0  0  0  0  0  0  0  0  0
  137.3085   83.6135  220.9544 H   0  0  0  0  0  0  0  0  0  0  0  0
  137.0411   84.4709  219.3987 H   0  0  0  0  0  0  0  0  0  0  0  0
  137.5739   82.7554  219.3987 H   0  0  0  0  0  0  0  0  0  0  0  0
  139.4861   85.4364  221.4966 H   0  0  0  0  0  0  0  0  0  0  0  0
  139.0059   83.7670  221.9724 H   0  0  0  0  0  0  0  0  0  0  0  0
  141.6201   84.5039  220.5286 H   0  0  0  0  0  0  0  0  0  0  0  0
  141.5169   84.1690  222.2482 H   0  0  0  0  0  0  0  0  0  0  0  0
  140.4872   79.6672  223.6741 H   0  0  0  0  0  0  0  0  0  0  0  0
  140.4972   77.2412  223.3097 H   0  0  0  0  0  0  0  0  0  0  0  0
  140.0710   73.4734  223.3360 H   0  0  0  0  0  0  0  0  0  0  0  0
  1  2  1  0
  2  3  2  0
  3  4  1  0
  4  5  2  0
  5  6  1  0
  6  7  2  0
  6  8  1  0
  8  9  1  0
  9 10  1  0
 10 11  2  0
 11 12  1  0
 12 13  2  0
 13 14  1  0
 14 15  1  0
 15 16  2  0
 15 17  1  0
 17 18  1  0
 18 19  2  0
 19 20  1  0
 20 21  2  0
 21 22  1  0
 22 23  2  0
 22 24  1  0
 24 25  1  0
 25 26  1  0
 26 27  1  0
 27 28  1  0
 27 29  1  0
 29 30  1  0
 21 31  1  0
 31 32  2  0
 14 33  2  0
  9 34  2  0
  7  2  1  0
 33 10  1  0
 34  5  1  0
 32 18  1  0
 30 24  1  0
  1 35  1  0
  1 36  1  0
  1 37  1  0
  3 38  1  0
  4 39  1  0
  7 40  1  0
  8 41  1  0
  8 42  1  0
 11 43  1  0
 12 44  1  0
 13 45  1  0
 17 46  1  0
 19 47  1  0
 20 48  1  0
 25 49  1  0
 25 50  1  0
 26 51  1  0
 26 52  1  0
 28 53  1  0
 28 54  1  0
 28 55  1  0
 29 56  1  0
 29 57  1  0
 30 58  1  0
 30 59  1  0
 31 60  1  0
 32 61  1  0
 33 62  1  0
M  END
>  <smiles>  (9) 
Cc1ccc2c(c1)CC(c1cccc(C(=O)Nc3ccc(C(=O)N4CCN(C)CC4)cc3)c1)=N2

>  <score_type>  (9) 
oracle

>  <origin>  (9) 
autodockgpu

>  <m_score__min__energy>  (9) 
-8.8599999999999994

>  <m_primary>  (9) 
energy

>  <rmsd>  (9) 
8.62942516918506

>  <m_score__min__rmsd>  (9) 
8.62942516918506

>  <meeko>  (9) 
{"free_energy": -8.44, "intermolecular_energy": -9.63, "internal_energy": -0.92, "cluster_size": 39, "cluster_id": 1, "rank_in_cluster": 27}

>  <energy>  (9) 
-8.83

>  <cluster_rmsd>  (9) 
0.1

>  <cluster>  (9) 
1

$$$$

     RDKit          3D

 62 66  0  0  0  0  0  0  0  0999 V2000
  141.2640   68.1330  229.0950 C   0  0  0  0  0  0  0  0  0  0  0  0
  140.6860   68.4660  227.7690 C   0  0  0  0  0  0  0  0  0  0  0  0
  139.7850   67.5730  227.1930 C   0  0  0  0  0  0  0  0  0  0  0  0
  139.2090   67.8170  225.9720 C   0  0  0  0  0  0  0  0  0  0  0  0
  139.5340   68.9830  225.2980 C   0  0  0  0  0  0  0  0  0  0  0  0
  140.4190   69.8930  225.8320 C   0  0  0  0  0  0  0  0  0  0  0  0
  141.0050   69.6350  227.0810 C   0  0  0  0  0  0  0  0  0  0  0  0
  140.5540   71.0380  224.8690 C   0  0  0  0  0  0  0  0  0  0  0  0
  139.6380   70.6300  223.7780 C   0  0  0  0  0  0  0  0  0  0  0  0
  139.3220   71.3820  222.5560 C   0  0  0  0  0  0  0  0  0  0  0  0
  138.7360   70.7200  221.4910 C   0  0  0  0  0  0  0  0  0  0  0  0
  138.4840   71.4350  220.3380 C   0  0  0  0  0  0  0  0  0  0  0  0
  138.7950   72.7850  220.2040 C   0  0  0  0  0  0  0  0  0  0  0  0
  139.3760   73.4310  221.2700 C   0  0  0  0  0  0  0  0  0  0  0  0
  139.8010   74.8340  221.2260 C   0  0  0  0  0  0  0  0  0  0  0  0
  140.3080   75.2280  220.1530 O   0  0  0  0  0  0  0  0  0  0  0  0
  139.6250   75.6820  222.3560 N   0  0  0  0  0  0  0  0  0  0  0  0
  139.9860   77.0380  222.4140 C   0  0  0  0  0  0  0  0  0  0  0  0
  141.2070   77.5290  222.8030 C   0  0  0  0  0  0  0  0  0  0  0  0
  141.5230   78.8910  222.7700 C   0  0  0  0  0  0  0  0  0  0  0  0
  140.5540   79.7980  222.3230 C   0  0  0  0  0  0  0  0  0  0  0  0
  140.8710   81.2100  222.2690 C   0  0  0  0  0  0  0  0  0  0  0  0
  141.3650   81.6930  223.3480 O   0  0  0  0  0  0  0  0  0  0  0  0
  140.7050   82.0840  221.2010 N   0  0  0  0  0  0  0  0  0  0  0  0
  140.1470   81.6930  219.8940 C   0  0  0  0  0  0  0  0  0  0  0  0
  139.7410   82.9430  219.1390 C   0  0  0  0  0  0  0  0  0  0  0  0
  139.0830   83.9330  219.9280 N   0  0  0  0  0  0  0  0  0  0  0  0
  137.6630   83.8300  220.0120 C   0  0  0  0  0  0  0  0  0  0  0  0
  139.7290   84.2250  221.1980 C   0  0  0  0  0  0  0  0  0  0  0  0
  141.0700   83.5030  221.2820 C   0  0  0  0  0  0  0  0  0  0  0  0
  139.3020   79.3190  221.9250 C   0  0  0  0  0  0  0  0  0  0  0  0
  139.0500   77.9700  221.9780 C   0  0  0  0  0  0  0  0  0  0  0  0
  139.6140   72.7050  222.3990 C   0  0  0  0  0  0  0  0  0  0  0  0
  139.0890   69.4930  224.0370 N   0  0  0  0  0  0  0  0  0  0  0  0
  140.6040   68.5132  229.8886 H   0  0  0  0  0  0  0  0  0  0  0  0
  141.3598   67.0413  229.1895 H   0  0  0  0  0  0  0  0  0  0  0  0
  142.2565   68.5977  229.1895 H   0  0  0  0  0  0  0  0  0  0  0  0
  139.5289   66.6484  227.7311 H   0  0  0  0  0  0  0  0  0  0  0  0
  138.5003   67.0982  225.5350 H   0  0  0  0  0  0  0  0  0  0  0  0
  141.7147   70.3542  227.5159 H   0  0  0  0  0  0  0  0  0  0  0  0
  140.2338   71.9856  225.3268 H   0  0  0  0  0  0  0  0  0  0  0  0
  141.5868   71.2201  224.5372 H   0  0  0  0  0  0  0  0  0  0  0  0
  138.4782   69.6530  221.5618 H   0  0  0  0  0  0  0  0  0  0  0  0
  138.0172   70.9156  219.4881 H   0  0  0  0  0  0  0  0  0  0  0  0
  138.5813   73.3222  219.2682 H   0  0  0  0  0  0  0  0  0  0  0  0
  139.1820   75.2200  223.1940 H   0  0  0  0  0  0  0  0  0  0  0  0
  141.9706   76.8203  223.1562 H   0  0  0  0  0  0  0  0  0  0  0  0
  142.5148   79.2435  223.0894 H   0  0  0  0  0  0  0  0  0  0  0  0
  140.9063   81.1440  219.3178 H   0  0  0  0  0  0  0  0  0  0  0  0
  139.2699   81.0459  220.0421 H   0  0  0  0  0  0  0  0  0  0  0  0
  140.6486   83.3942  218.7115 H   0  0  0  0  0  0  0  0  0  0  0  0
  139.0149   82.6219  218.3776 H   0  0  0  0  0  0  0  0  0  0  0  0
  137.3588   83.8079  221.0689 H   0  0  0  0  0  0  0  0  0  0  0  0
  137.2025   84.6971  219.5159 H   0  0  0  0  0  0  0  0  0  0  0  0
  137.3324   82.9055  219.5159 H   0  0  0  0  0  0  0  0  0  0  0  0
  139.8937   85.3094  221.2816 H   0  0  0  0  0  0  0  0  0  0  0  0
  139.0825   83.8804  222.0185 H   0  0  0  0  0  0  0  0  0  0  0  0
  141.7229   83.7888  220.4441 H   0  0  0  0  0  0  0  0  0  0  0  0
  141.6303   83.7482  222.1963 H   0  0  0  0  0  0  0  0  0  0  0  0
  138.5268   80.0156  221.5731 H   0  0  0  0  0  0  0  0  0  0  0  0
  138.0606   77.6093  221.6604 H   0  0  0  0  0  0  0  0  0  0  0  0
  140.0775   73.2266  223.2493 H   0  0  0  0  0  0  0  0  0  0  0  0
  1  2  1  0
  2  3  2  0
  3  4  1  0
  4  5  2  0
  5  6  1  0
  6  7  2  0
  6  8  1  0
  8  9  1  0
  9 10  1  0
 10 11  2  0
 11 12  1  0
 12 13  2  0
 13 14  1  0
 14 15  1  0
 15 16  2  0
 15 17  1  0
 17 18  1  0
 18 19  2  0
 19 20  1  0
 20 21  2  0
 21 22  1  0
 22 23  2  0
 22 24  1  0
 24 25  1  0
 25 26  1  0
 26 27  1  0
 27 28  1  0
 27 29  1  0
 29 30  1  0
 21 31  1  0
 31 32  2  0
 14 33  2  0
  9 34  2  0
  7  2  1  0
 33 10  1  0
 34  5  1  0
 32 18  1  0
 30 24  1  0
  1 35  1  0
  1 36  1  0
  1 37  1  0
  3 38  1  0
  4 39  1  0
  7 40  1  0
  8 41  1  0
  8 42  1  0
 11 43  1  0
 12 44  1  0
 13 45  1  0
 17 46  1  0
 19 47  1  0
 20 48  1  0
 25 49  1  0
 25 50  1  0
 26 51  1  0
 26 52  1  0
 28 53  1  0
 28 54  1  0
 28 55  1  0
 29 56  1  0
 29 57  1  0
 30 58  1  0
 30 59  1  0
 31 60  1  0
 32 61  1  0
 33 62  1  0
M  END
>  <smiles>  (10) 
Cc1ccc2c(c1)CC(c1cccc(C(=O)Nc3ccc(C(=O)N4CCN(C)CC4)cc3)c1)=N2

>  <score_type>  (10) 
oracle

>  <origin>  (10) 
autodockgpu

>  <m_score__min__energy>  (10) 
-8.8599999999999994

>  <m_primary>  (10) 
energy

>  <rmsd>  (10) 
8.662327554981909

>  <m_score__min__rmsd>  (10) 
8.662327554981909

>  <meeko>  (10) 
{"free_energy": -8.53, "intermolecular_energy": -9.73, "internal_energy": -0.99, "cluster_size": 39, "cluster_id": 1, "rank_in_cluster": 23}

>  <energy>  (10) 
-8.83

>  <cluster_rmsd>  (10) 
0.04

>  <cluster>  (10) 
1

$$$$

     RDKit          3D

 62 66  0  0  0  0  0  0  0  0999 V2000
  136.4260   81.6540  226.6100 C   0  0  0  0  0  0  0  0  0  0  0  0
  137.1080   81.5750  225.2940 C   0  0  0  0  0  0  0  0  0  0  0  0
  136.7750   82.5100  224.3160 C   0  0  0  0  0  0  0  0  0  0  0  0
  137.3670   82.5010  223.0790 C   0  0  0  0  0  0  0  0  0  0  0  0
  138.3200   81.5350  222.7990 C   0  0  0  0  0  0  0  0  0  0  0  0
  138.6780   80.5930  223.7360 C   0  0  0  0  0  0  0  0  0  0  0  0
  138.0670   80.6090  225.0000 C   0  0  0  0  0  0  0  0  0  0  0  0
  139.7260   79.7030  223.1310 C   0  0  0  0  0  0  0  0  0  0  0  0
  139.8800   80.2870  221.7780 C   0  0  0  0  0  0  0  0  0  0  0  0
  140.8060   79.8520  220.7240 C   0  0  0  0  0  0  0  0  0  0  0  0
  141.2410   80.7740  219.7880 C   0  0  0  0  0  0  0  0  0  0  0  0
  142.0780   80.3380  218.7820 C   0  0  0  0  0  0  0  0  0  0  0  0
  142.4980   79.0160  218.6710 C   0  0  0  0  0  0  0  0  0  0  0  0
  142.0590   78.1100  219.6070 C   0  0  0  0  0  0  0  0  0  0  0  0
  142.3870   76.6800  219.5590 C   0  0  0  0  0  0  0  0  0  0  0  0
  141.4420   75.9020  219.3050 O   0  0  0  0  0  0  0  0  0  0  0  0
  143.7200   76.2330  219.7840 N   0  0  0  0  0  0  0  0  0  0  0  0
  144.1400   74.8940  219.7510 C   0  0  0  0  0  0  0  0  0  0  0  0
  144.5670   74.1580  220.8280 C   0  0  0  0  0  0  0  0  0  0  0  0
  144.9040   72.8040  220.7360 C   0  0  0  0  0  0  0  0  0  0  0  0
  144.8060   72.1670  219.4920 C   0  0  0  0  0  0  0  0  0  0  0  0
  145.1380   70.7610  219.3840 C   0  0  0  0  0  0  0  0  0  0  0  0
  146.3800   70.5150  219.1850 O   0  0  0  0  0  0  0  0  0  0  0  0
  144.2820   69.6700  219.4710 N   0  0  0  0  0  0  0  0  0  0  0  0
  142.8290   69.7780  219.6920 C   0  0  0  0  0  0  0  0  0  0  0  0
  142.1770   68.4580  219.3290 C   0  0  0  0  0  0  0  0  0  0  0  0
  142.6740   67.8520  218.1370 N   0  0  0  0  0  0  0  0  0  0  0  0
  142.0190   68.2180  216.9240 C   0  0  0  0  0  0  0  0  0  0  0  0
  144.1240   67.8130  218.0360 C   0  0  0  0  0  0  0  0  0  0  0  0
  144.7550   68.2870  219.3410 C   0  0  0  0  0  0  0  0  0  0  0  0
  144.3760   72.8980  218.3820 C   0  0  0  0  0  0  0  0  0  0  0  0
  144.0560   74.2260  218.5330 C   0  0  0  0  0  0  0  0  0  0  0  0
  141.2340   78.5640  220.5920 C   0  0  0  0  0  0  0  0  0  0  0  0
  139.0930   81.2950  221.6170 N   0  0  0  0  0  0  0  0  0  0  0  0
  137.1709   81.5677  227.4148 H   0  0  0  0  0  0  0  0  0  0  0  0
  135.9042   82.6186  226.6952 H   0  0  0  0  0  0  0  0  0  0  0  0
  135.6975   80.8342  226.6952 H   0  0  0  0  0  0  0  0  0  0  0  0
  136.0177   83.2751  224.5420 H   0  0  0  0  0  0  0  0  0  0  0  0
  137.0897   83.2487  222.3213 H   0  0  0  0  0  0  0  0  0  0  0  0
  138.3452   79.8602  225.7563 H   0  0  0  0  0  0  0  0  0  0  0  0
  140.6677   79.7519  223.6973 H   0  0  0  0  0  0  0  0  0  0  0  0
  139.4547   78.6370  223.1264 H   0  0  0  0  0  0  0  0  0  0  0  0
  140.9275   81.8269  219.8448 H   0  0  0  0  0  0  0  0  0  0  0  0
  142.4284   81.0663  218.0358 H   0  0  0  0  0  0  0  0  0  0  0  0
  143.1651   78.7035  217.8541 H   0  0  0  0  0  0  0  0  0  0  0  0
  144.4180   76.9980  219.9850 H   0  0  0  0  0  0  0  0  0  0  0  0
  144.6476   74.6549  221.8061 H   0  0  0  0  0  0  0  0  0  0  0  0
  145.2400   72.2490  221.6243 H   0  0  0  0  0  0  0  0  0  0  0  0
  142.6326   70.0083  220.7495 H   0  0  0  0  0  0  0  0  0  0  0  0
  142.4157   70.5823  219.0656 H   0  0  0  0  0  0  0  0  0  0  0  0
  142.3372   67.7571  220.1615 H   0  0  0  0  0  0  0  0  0  0  0  0
  141.1152   68.6781  219.1444 H   0  0  0  0  0  0  0  0  0  0  0  0
  141.0807   68.7423  217.1577 H   0  0  0  0  0  0  0  0  0  0  0  0
  142.6737   68.8810  216.3394 H   0  0  0  0  0  0  0  0  0  0  0  0
  141.7975   67.3129  216.3394 H   0  0  0  0  0  0  0  0  0  0  0  0
  144.4464   66.7817  217.8299 H   0  0  0  0  0  0  0  0  0  0  0  0
  144.4452   68.4767  217.2197 H   0  0  0  0  0  0  0  0  0  0  0  0
  144.4132   67.6738  220.1879 H   0  0  0  0  0  0  0  0  0  0  0  0
  145.8522   68.2092  219.3381 H   0  0  0  0  0  0  0  0  0  0  0  0
  144.2944   72.4155  217.3968 H   0  0  0  0  0  0  0  0  0  0  0  0
  143.7176   74.7873  217.6496 H   0  0  0  0  0  0  0  0  0  0  0  0
  140.8863   77.8349  221.3386 H   0  0  0  0  0  0  0  0  0  0  0  0
  1  2  1  0
  2  3  2  0
  3  4  1  0
  4  5  2  0
  5  6  1  0
  6  7  2  0
  6  8  1  0
  8  9  1  0
  9 10  1  0
 10 11  2  0
 11 12  1  0
 12 13  2  0
 13 14  1  0
 14 15  1  0
 15 16  2  0
 15 17  1  0
 17 18  1  0
 18 19  2  0
 19 20  1  0
 20 21  2  0
 21 22  1  0
 22 23  2  0
 22 24  1  0
 24 25  1  0
 25 26  1  0
 26 27  1  0
 27 28  1  0
 27 29  1  0
 29 30  1  0
 21 31  1  0
 31 32  2  0
 14 33  2  0
  9 34  2  0
  7  2  1  0
 33 10  1  0
 34  5  1  0
 32 18  1  0
 30 24  1  0
  1 35  1  0
  1 36  1  0
  1 37  1  0
  3 38  1  0
  4 39  1  0
  7 40  1  0
  8 41  1  0
  8 42  1  0
 11 43  1  0
 12 44  1  0
 13 45  1  0
 17 46  1  0
 19 47  1  0
 20 48  1  0
 25 49  1  0
 25 50  1  0
 26 51  1  0
 26 52  1  0
 28 53  1  0
 28 54  1  0
 28 55  1  0
 29 56  1  0
 29 57  1  0
 30 58  1  0
 30 59  1  0
 31 60  1  0
 32 61  1  0
 33 62  1  0
M  END
>  <smiles>  (11) 
Cc1ccc2c(c1)CC(c1cccc(C(=O)Nc3ccc(C(=O)N4CCN(C)CC4)cc3)c1)=N2

>  <score_type>  (11) 
oracle

>  <origin>  (11) 
autodockgpu

>  <m_score__min__energy>  (11) 
-8.8599999999999994

>  <m_primary>  (11) 
energy

>  <rmsd>  (11) 
5.343546937029193

>  <m_score__min__rmsd>  (11) 
5.343546937029193

>  <meeko>  (11) 
{"free_energy": -7.72, "intermolecular_energy": -8.91, "internal_energy": -1.02, "cluster_size": 2, "cluster_id": 3, "rank_in_cluster": 2}

>  <energy>  (11) 
-8.82

>  <cluster_rmsd>  (11) 
0.1

>  <cluster>  (11) 
1

$$$$

     RDKit          3D

 62 66  0  0  0  0  0  0  0  0999 V2000
  141.4670   67.9630  229.0980 C   0  0  0  0  0  0  0  0  0  0  0  0
  140.9620   68.3720  227.7630 C   0  0  0  0  0  0  0  0  0  0  0  0
  140.3220   67.4170  226.9750 C   0  0  0  0  0  0  0  0  0  0  0  0
  139.8260   67.7240  225.7330 C   0  0  0  0  0  0  0  0  0  0  0  0
  139.9670   69.0160  225.2550 C   0  0  0  0  0  0  0  0  0  0  0  0
  140.5920   69.9900  226.0010 C   0  0  0  0  0  0  0  0  0  0  0  0
  141.0970   69.6680  227.2710 C   0  0  0  0  0  0  0  0  0  0  0  0
  140.5790   71.2680  225.2120 C   0  0  0  0  0  0  0  0  0  0  0  0
  139.8730   70.8570  223.9760 C   0  0  0  0  0  0  0  0  0  0  0  0
  139.5270   71.7060  222.8280 C   0  0  0  0  0  0  0  0  0  0  0  0
  138.7700   71.1720  221.8000 C   0  0  0  0  0  0  0  0  0  0  0  0
  138.4890   71.9730  220.7120 C   0  0  0  0  0  0  0  0  0  0  0  0
  138.9350   73.2870  220.6080 C   0  0  0  0  0  0  0  0  0  0  0  0
  139.6850   73.8060  221.6360 C   0  0  0  0  0  0  0  0  0  0  0  0
  140.2590   75.1560  221.6120 C   0  0  0  0  0  0  0  0  0  0  0  0
  141.5010   75.2300  221.4960 O   0  0  0  0  0  0  0  0  0  0  0  0
  139.4210   76.3030  221.7080 N   0  0  0  0  0  0  0  0  0  0  0  0
  139.8660   77.6340  221.6850 C   0  0  0  0  0  0  0  0  0  0  0  0
  140.8640   78.1360  220.8880 C   0  0  0  0  0  0  0  0  0  0  0  0
  141.2090   79.4910  220.8650 C   0  0  0  0  0  0  0  0  0  0  0  0
  140.5090   80.3790  221.6920 C   0  0  0  0  0  0  0  0  0  0  0  0
  140.8450   81.7880  221.6690 C   0  0  0  0  0  0  0  0  0  0  0  0
  141.7980   82.1280  222.4550 O   0  0  0  0  0  0  0  0  0  0  0  0
  140.2650   82.7940  220.9040 N   0  0  0  0  0  0  0  0  0  0  0  0
  139.1580   82.5750  219.9570 C   0  0  0  0  0  0  0  0  0  0  0  0
  138.5250   83.9110  219.6230 C   0  0  0  0  0  0  0  0  0  0  0  0
  138.3480   84.7850  220.7360 N   0  0  0  0  0  0  0  0  0  0  0  0
  137.1140   84.6650  221.4420 C   0  0  0  0  0  0  0  0  0  0  0  0
  139.5110   84.9110  221.5990 C   0  0  0  0  0  0  0  0  0  0  0  0
  140.7050   84.1920  220.9800 C   0  0  0  0  0  0  0  0  0  0  0  0
  139.4900   79.8900  222.5140 C   0  0  0  0  0  0  0  0  0  0  0  0
  139.1940   78.5480  222.4920 C   0  0  0  0  0  0  0  0  0  0  0  0
  139.9490   72.9970  222.7010 C   0  0  0  0  0  0  0  0  0  0  0  0
  139.5470   69.6110  224.0220 N   0  0  0  0  0  0  0  0  0  0  0  0
  140.8671   68.4489  229.8816 H   0  0  0  0  0  0  0  0  0  0  0  0
  141.3887   66.8706  229.2007 H   0  0  0  0  0  0  0  0  0  0  0  0
  142.5193   68.2665  229.2007 H   0  0  0  0  0  0  0  0  0  0  0  0
  140.2118   66.3918  227.3582 H   0  0  0  0  0  0  0  0  0  0  0  0
  139.3242   66.9557  225.1264 H   0  0  0  0  0  0  0  0  0  0  0  0
  141.5982   70.4378  227.8761 H   0  0  0  0  0  0  0  0  0  0  0  0
  140.0295   72.0599  225.7421 H   0  0  0  0  0  0  0  0  0  0  0  0
  141.5789   71.6901  225.0332 H   0  0  0  0  0  0  0  0  0  0  0  0
  138.4020   70.1365  221.8488 H   0  0  0  0  0  0  0  0  0  0  0  0
  137.8867   71.5549  219.8920 H   0  0  0  0  0  0  0  0  0  0  0  0
  138.6931   73.8956  219.7242 H   0  0  0  0  0  0  0  0  0  0  0  0
  138.3910   76.0950  221.7990 H   0  0  0  0  0  0  0  0  0  0  0  0
  141.4172   77.4417  220.2384 H   0  0  0  0  0  0  0  0  0  0  0  0
  142.0150   79.8528  220.2097 H   0  0  0  0  0  0  0  0  0  0  0  0
  139.5448   82.1098  219.0383 H   0  0  0  0  0  0  0  0  0  0  0  0
  138.4074   81.9099  220.4090 H   0  0  0  0  0  0  0  0  0  0  0  0
  139.1664   84.4191  218.8878 H   0  0  0  0  0  0  0  0  0  0  0  0
  137.5176   83.6890  219.2410 H   0  0  0  0  0  0  0  0  0  0  0  0
  137.3076   84.6838  222.5247 H   0  0  0  0  0  0  0  0  0  0  0  0
  136.4545   85.5033  221.1728 H   0  0  0  0  0  0  0  0  0  0  0  0
  136.6284   83.7154  221.1728 H   0  0  0  0  0  0  0  0  0  0  0  0
  139.7546   85.9759  221.7277 H   0  0  0  0  0  0  0  0  0  0  0  0
  139.2849   84.4575  222.5753 H   0  0  0  0  0  0  0  0  0  0  0  0
  140.9263   84.5890  219.9783 H   0  0  0  0  0  0  0  0  0  0  0  0
  141.6290   84.3180  221.5633 H   0  0  0  0  0  0  0  0  0  0  0  0
  138.9308   80.5719  223.1716 H   0  0  0  0  0  0  0  0  0  0  0  0
  138.3879   78.1786  223.1429 H   0  0  0  0  0  0  0  0  0  0  0  0
  140.5488   73.4178  223.5215 H   0  0  0  0  0  0  0  0  0  0  0  0
  1  2  1  0
  2  3  2  0
  3  4  1  0
  4  5  2  0
  5  6  1  0
  6  7  2  0
  6  8  1  0
  8  9  1  0
  9 10  1  0
 10 11  2  0
 11 12  1  0
 12 13  2  0
 13 14  1  0
 14 15  1  0
 15 16  2  0
 15 17  1  0
 17 18  1  0
 18 19  2  0
 19 20  1  0
 20 21  2  0
 21 22  1  0
 22 23  2  0
 22 24  1  0
 24 25  1  0
 25 26  1  0
 26 27  1  0
 27 28  1  0
 27 29  1  0
 29 30  1  0
 21 31  1  0
 31 32  2  0
 14 33  2  0
  9 34  2  0
  7  2  1  0
 33 10  1  0
 34  5  1  0
 32 18  1  0
 30 24  1  0
  1 35  1  0
  1 36  1  0
  1 37  1  0
  3 38  1  0
  4 39  1  0
  7 40  1  0
  8 41  1  0
  8 42  1  0
 11 43  1  0
 12 44  1  0
 13 45  1  0
 17 46  1  0
 19 47  1  0
 20 48  1  0
 25 49  1  0
 25 50  1  0
 26 51  1  0
 26 52  1  0
 28 53  1  0
 28 54  1  0
 28 55  1  0
 29 56  1  0
 29 57  1  0
 30 58  1  0
 30 59  1  0
 31 60  1  0
 32 61  1  0
 33 62  1  0
M  END
>  <smiles>  (12) 
Cc1ccc2c(c1)CC(c1cccc(C(=O)Nc3ccc(C(=O)N4CCN(C)CC4)cc3)c1)=N2

>  <score_type>  (12) 
oracle

>  <origin>  (12) 
autodockgpu

>  <m_score__min__energy>  (12) 
-8.8599999999999994

>  <m_primary>  (12) 
energy

>  <rmsd>  (12) 
8.77132339548997

>  <m_score__min__rmsd>  (12) 
8.77132339548997

>  <meeko>  (12) 
{"free_energy": -7.87, "intermolecular_energy": -9.06, "internal_energy": -0.98, "cluster_size": 39, "cluster_id": 1, "rank_in_cluster": 39}

>  <energy>  (12) 
-8.8

>  <cluster_rmsd>  (12) 
0.09

>  <cluster>  (12) 
1

$$$$

     RDKit          3D

 62 66  0  0  0  0  0  0  0  0999 V2000
  141.3610   67.7630  229.2850 C   0  0  0  0  0  0  0  0  0  0  0  0
  141.0670   68.7370  228.2040 C   0  0  0  0  0  0  0  0  0  0  0  0
  141.3170   70.0870  228.4400 C   0  0  0  0  0  0  0  0  0  0  0  0
  141.0730   71.0420  227.4870 C   0  0  0  0  0  0  0  0  0  0  0  0
  140.5650   70.6510  226.2590 C   0  0  0  0  0  0  0  0  0  0  0  0
  140.3040   69.3270  225.9840 C   0  0  0  0  0  0  0  0  0  0  0  0
  140.5560   68.3550  226.9660 C   0  0  0  0  0  0  0  0  0  0  0  0
  139.7710   69.2340  224.5830 C   0  0  0  0  0  0  0  0  0  0  0  0
  139.7880   70.6520  224.1540 C   0  0  0  0  0  0  0  0  0  0  0  0
  139.4050   71.1870  222.8410 C   0  0  0  0  0  0  0  0  0  0  0  0
  139.0010   70.3100  221.8490 C   0  0  0  0  0  0  0  0  0  0  0  0
  138.6830   70.8290  220.6100 C   0  0  0  0  0  0  0  0  0  0  0  0
  138.7540   72.1880  220.3200 C   0  0  0  0  0  0  0  0  0  0  0  0
  139.1560   73.0480  221.3150 C   0  0  0  0  0  0  0  0  0  0  0  0
  139.3250   74.4910  221.1110 C   0  0  0  0  0  0  0  0  0  0  0  0
  139.4560   74.8740  219.9280 O   0  0  0  0  0  0  0  0  0  0  0  0
  139.3260   75.3860  222.2180 N   0  0  0  0  0  0  0  0  0  0  0  0
  139.4700   76.7800  222.1320 C   0  0  0  0  0  0  0  0  0  0  0  0
  138.4610   77.7020  222.2550 C   0  0  0  0  0  0  0  0  0  0  0  0
  138.6870   79.0820  222.2290 C   0  0  0  0  0  0  0  0  0  0  0  0
  139.9980   79.5480  222.0680 C   0  0  0  0  0  0  0  0  0  0  0  0
  140.2490   80.9750  222.0540 C   0  0  0  0  0  0  0  0  0  0  0  0
  139.8140   81.6090  223.0790 O   0  0  0  0  0  0  0  0  0  0  0  0
  140.8980   81.7200  221.0760 N   0  0  0  0  0  0  0  0  0  0  0  0
  141.4520   81.1480  219.8360 C   0  0  0  0  0  0  0  0  0  0  0  0
  141.7060   82.2690  218.8480 C   0  0  0  0  0  0  0  0  0  0  0  0
  140.6760   83.2540  218.7820 N   0  0  0  0  0  0  0  0  0  0  0  0
  139.6300   83.0090  217.8430 C   0  0  0  0  0  0  0  0  0  0  0  0
  140.2110   83.7340  220.0720 C   0  0  0  0  0  0  0  0  0  0  0  0
  141.0850   83.1710  221.1880 C   0  0  0  0  0  0  0  0  0  0  0  0
  141.0400   78.6260  221.9380 C   0  0  0  0  0  0  0  0  0  0  0  0
  140.7580   77.2820  221.9730 C   0  0  0  0  0  0  0  0  0  0  0  0
  139.4630   72.5140  222.5300 C   0  0  0  0  0  0  0  0  0  0  0  0
  140.2290   71.4140  225.0960 N   0  0  0  0  0  0  0  0  0  0  0  0
  141.2154   68.2454  230.2628 H   0  0  0  0  0  0  0  0  0  0  0  0
  140.6829   66.9014  229.1966 H   0  0  0  0  0  0  0  0  0  0  0  0
  142.4026   67.4205  229.1966 H   0  0  0  0  0  0  0  0  0  0  0  0
  141.7205   70.3947  229.4160 H   0  0  0  0  0  0  0  0  0  0  0  0
  141.2775   72.1027  227.6944 H   0  0  0  0  0  0  0  0  0  0  0  0
  140.3503   67.2947  226.7578 H   0  0  0  0  0  0  0  0  0  0  0  0
  140.4223   68.6160  223.9475 H   0  0  0  0  0  0  0  0  0  0  0  0
  138.7801   68.7613  224.5152 H   0  0  0  0  0  0  0  0  0  0  0  0
  138.9352   69.2292  222.0427 H   0  0  0  0  0  0  0  0  0  0  0  0
  138.3594   70.1382  219.8175 H   0  0  0  0  0  0  0  0  0  0  0  0
  138.4950   72.5651  219.3197 H   0  0  0  0  0  0  0  0  0  0  0  0
  139.2040   74.9280  223.1600 H   0  0  0  0  0  0  0  0  0  0  0  0
  137.4298   77.3400  222.3794 H   0  0  0  0  0  0  0  0  0  0  0  0
  137.8504   79.7885  222.3331 H   0  0  0  0  0  0  0  0  0  0  0  0
  142.3970   80.6306  220.0582 H   0  0  0  0  0  0  0  0  0  0  0  0
  140.7394   80.4281  219.4072 H   0  0  0  0  0  0  0  0  0  0  0  0
  142.6419   82.7714  219.1338 H   0  0  0  0  0  0  0  0  0  0  0  0
  141.7505   81.8008  217.8536 H   0  0  0  0  0  0  0  0  0  0  0  0
  138.6967   82.7904  218.3826 H   0  0  0  0  0  0  0  0  0  0  0  0
  139.4886   83.8983  217.2113 H   0  0  0  0  0  0  0  0  0  0  0  0
  139.8983   82.1494  217.2113 H   0  0  0  0  0  0  0  0  0  0  0  0
  140.2605   84.8327  220.0906 H   0  0  0  0  0  0  0  0  0  0  0  0
  139.1734   83.4029  220.2262 H   0  0  0  0  0  0  0  0  0  0  0  0
  142.1398   83.4437  221.0359 H   0  0  0  0  0  0  0  0  0  0  0  0
  140.8141   83.5609  222.1802 H   0  0  0  0  0  0  0  0  0  0  0  0
  142.0758   78.9730  221.8089 H   0  0  0  0  0  0  0  0  0  0  0  0
  141.5895   76.5691  221.8705 H   0  0  0  0  0  0  0  0  0  0  0  0
  139.7826   73.2069  223.3222 H   0  0  0  0  0  0  0  0  0  0  0  0
  1  2  1  0
  2  3  2  0
  3  4  1  0
  4  5  2  0
  5  6  1  0
  6  7  2  0
  6  8  1  0
  8  9  1  0
  9 10  1  0
 10 11  2  0
 11 12  1  0
 12 13  2  0
 13 14  1  0
 14 15  1  0
 15 16  2  0
 15 17  1  0
 17 18  1  0
 18 19  2  0
 19 20  1  0
 20 21  2  0
 21 22  1  0
 22 23  2  0
 22 24  1  0
 24 25  1  0
 25 26  1  0
 26 27  1  0
 27 28  1  0
 27 29  1  0
 29 30  1  0
 21 31  1  0
 31 32  2  0
 14 33  2  0
  9 34  2  0
  7  2  1  0
 33 10  1  0
 34  5  1  0
 32 18  1  0
 30 24  1  0
  1 35  1  0
  1 36  1  0
  1 37  1  0
  3 38  1  0
  4 39  1  0
  7 40  1  0
  8 41  1  0
  8 42  1  0
 11 43  1  0
 12 44  1  0
 13 45  1  0
 17 46  1  0
 19 47  1  0
 20 48  1  0
 25 49  1  0
 25 50  1  0
 26 51  1  0
 26 52  1  0
 28 53  1  0
 28 54  1  0
 28 55  1  0
 29 56  1  0
 29 57  1  0
 30 58  1  0
 30 59  1  0
 31 60  1  0
 32 61  1  0
 33 62  1  0
M  END
>  <smiles>  (13) 
Cc1ccc2c(c1)CC(c1cccc(C(=O)Nc3ccc(C(=O)N4CCN(C)CC4)cc3)c1)=N2

>  <score_type>  (13) 
oracle

>  <origin>  (13) 
autodockgpu

>  <m_score__min__energy>  (13) 
-8.8599999999999994

>  <m_primary>  (13) 
energy

>  <rmsd>  (13) 
8.929045467979243

>  <m_score__min__rmsd>  (13) 
8.929045467979243

>  <meeko>  (13) 
{"free_energy": -8.4, "intermolecular_energy": -9.6, "internal_energy": -0.98, "cluster_size": 39, "cluster_id": 1, "rank_in_cluster": 29}

>  <energy>  (13) 
-8.79

>  <cluster_rmsd>  (13) 
0.22

>  <cluster>  (13) 
1

$$$$

     RDKit          3D

 62 66  0  0  0  0  0  0  0  0999 V2000
  141.4080   68.1440  228.8690 C   0  0  0  0  0  0  0  0  0  0  0  0
  140.7890   68.4350  227.5520 C   0  0  0  0  0  0  0  0  0  0  0  0
  140.1670   67.3930  226.8650 C   0  0  0  0  0  0  0  0  0  0  0  0
  139.5710   67.5890  225.6450 C   0  0  0  0  0  0  0  0  0  0  0  0
  139.5890   68.8560  225.0860 C   0  0  0  0  0  0  0  0  0  0  0  0
  140.1920   69.9130  225.7300 C   0  0  0  0  0  0  0  0  0  0  0  0
  140.8010   69.7040  226.9780 C   0  0  0  0  0  0  0  0  0  0  0  0
  140.0380   71.1360  224.8720 C   0  0  0  0  0  0  0  0  0  0  0  0
  139.2830   70.6040  223.7130 C   0  0  0  0  0  0  0  0  0  0  0  0
  138.8040   71.3560  222.5460 C   0  0  0  0  0  0  0  0  0  0  0  0
  138.0910   70.6910  221.5640 C   0  0  0  0  0  0  0  0  0  0  0  0
  137.6840   71.4060  220.4560 C   0  0  0  0  0  0  0  0  0  0  0  0
  137.9610   72.7580  220.2870 C   0  0  0  0  0  0  0  0  0  0  0  0
  138.6700   73.4080  221.2700 C   0  0  0  0  0  0  0  0  0  0  0  0
  139.0720   74.8150  221.1760 C   0  0  0  0  0  0  0  0  0  0  0  0
  138.9750   75.3470  220.0490 O   0  0  0  0  0  0  0  0  0  0  0  0
  139.5370   75.5170  222.3250 N   0  0  0  0  0  0  0  0  0  0  0  0
  139.9350   76.8630  222.3450 C   0  0  0  0  0  0  0  0  0  0  0  0
  141.1540   77.3470  221.9430 C   0  0  0  0  0  0  0  0  0  0  0  0
  141.4600   78.7120  221.9230 C   0  0  0  0  0  0  0  0  0  0  0  0
  140.4830   79.6280  222.3320 C   0  0  0  0  0  0  0  0  0  0  0  0
  140.7800   81.0460  222.3030 C   0  0  0  0  0  0  0  0  0  0  0  0
  141.0710   81.5590  223.4410 O   0  0  0  0  0  0  0  0  0  0  0  0
  140.7860   81.8970  221.2040 N   0  0  0  0  0  0  0  0  0  0  0  0
  140.4700   81.4700  219.8290 C   0  0  0  0  0  0  0  0  0  0  0  0
  140.1800   82.6970  218.9880 C   0  0  0  0  0  0  0  0  0  0  0  0
  139.3770   83.6870  219.6300 N   0  0  0  0  0  0  0  0  0  0  0  0
  137.9660   83.5550  219.4690 C   0  0  0  0  0  0  0  0  0  0  0  0
  139.7880   84.0150  220.9850 C   0  0  0  0  0  0  0  0  0  0  0  0
  141.1060   83.3240  221.3170 C   0  0  0  0  0  0  0  0  0  0  0  0
  139.2350   79.1560  222.7480 C   0  0  0  0  0  0  0  0  0  0  0  0
  138.9920   77.8040  222.7450 C   0  0  0  0  0  0  0  0  0  0  0  0
  139.0600   72.6820  222.3560 C   0  0  0  0  0  0  0  0  0  0  0  0
  139.0490   69.3440  223.8530 N   0  0  0  0  0  0  0  0  0  0  0  0
  140.7280   68.4637  229.6724 H   0  0  0  0  0  0  0  0  0  0  0  0
  141.5953   67.0635  228.9554 H   0  0  0  0  0  0  0  0  0  0  0  0
  142.3595   68.6891  228.9554 H   0  0  0  0  0  0  0  0  0  0  0  0
  140.1539   66.3883  227.3127 H   0  0  0  0  0  0  0  0  0  0  0  0
  139.0865   66.7531  225.1191 H   0  0  0  0  0  0  0  0  0  0  0  0
  141.2866   70.5409  227.5013 H   0  0  0  0  0  0  0  0  0  0  0  0
  139.4703   71.9211  225.3929 H   0  0  0  0  0  0  0  0  0  0  0  0
  140.9922   71.6111  224.6004 H   0  0  0  0  0  0  0  0  0  0  0  0
  137.8550   69.6213  221.6639 H   0  0  0  0  0  0  0  0  0  0  0  0
  137.1157   70.8835  219.6724 H   0  0  0  0  0  0  0  0  0  0  0  0
  137.6213   73.2947  219.3889 H   0  0  0  0  0  0  0  0  0  0  0  0
  139.5670   74.9470  223.2120 H   0  0  0  0  0  0  0  0  0  0  0  0
  141.9246   76.6305  221.6223 H   0  0  0  0  0  0  0  0  0  0  0  0
  142.4499   79.0593  221.5921 H   0  0  0  0  0  0  0  0  0  0  0  0
  141.3270   80.9261  219.4052 H   0  0  0  0  0  0  0  0  0  0  0  0
  139.5917   80.8078  219.8371 H   0  0  0  0  0  0  0  0  0  0  0  0
  141.1400   83.1594  218.7151 H   0  0  0  0  0  0  0  0  0  0  0  0
  139.6038   82.3472  218.1187 H   0  0  0  0  0  0  0  0  0  0  0  0
  137.4867   83.5102  220.4581 H   0  0  0  0  0  0  0  0  0  0  0  0
  137.5779   84.4208  218.9124 H   0  0  0  0  0  0  0  0  0  0  0  0
  137.7452   82.6323  218.9124 H   0  0  0  0  0  0  0  0  0  0  0  0
  139.9165   85.1040  221.0722 H   0  0  0  0  0  0  0  0  0  0  0  0
  139.0151   83.6707  221.6879 H   0  0  0  0  0  0  0  0  0  0  0  0
  141.8901   83.6086  220.5999 H   0  0  0  0  0  0  0  0  0  0  0  0
  141.4936   83.5976  222.3094 H   0  0  0  0  0  0  0  0  0  0  0  0
  138.4553   79.8599  223.0745 H   0  0  0  0  0  0  0  0  0  0  0  0
  138.0046   77.4486  223.0746 H   0  0  0  0  0  0  0  0  0  0  0  0
  139.6253   73.2067  223.1403 H   0  0  0  0  0  0  0  0  0  0  0  0
  1  2  1  0
  2  3  2  0
  3  4  1  0
  4  5  2  0
  5  6  1  0
  6  7  2  0
  6  8  1  0
  8  9  1  0
  9 10  1  0
 10 11  2  0
 11 12  1  0
 12 13  2  0
 13 14  1  0
 14 15  1  0
 15 16  2  0
 15 17  1  0
 17 18  1  0
 18 19  2  0
 19 20  1  0
 20 21  2  0
 21 22  1  0
 22 23  2  0
 22 24  1  0
 24 25  1  0
 25 26  1  0
 26 27  1  0
 27 28  1  0
 27 29  1  0
 29 30  1  0
 21 31  1  0
 31 32  2  0
 14 33  2  0
  9 34  2  0
  7  2  1  0
 33 10  1  0
 34  5  1  0
 32 18  1  0
 30 24  1  0
  1 35  1  0
  1 36  1  0
  1 37  1  0
  3 38  1  0
  4 39  1  0
  7 40  1  0
  8 41  1  0
  8 42  1  0
 11 43  1  0
 12 44  1  0
 13 45  1  0
 17 46  1  0
 19 47  1  0
 20 48  1  0
 25 49  1  0
 25 50  1  0
 26 51  1  0
 26 52  1  0
 28 53  1  0
 28 54  1  0
 28 55  1  0
 29 56  1  0
 29 57  1  0
 30 58  1  0
 30 59  1  0
 31 60  1  0
 32 61  1  0
 33 62  1  0
M  END
>  <smiles>  (14) 
Cc1ccc2c(c1)CC(c1cccc(C(=O)Nc3ccc(C(=O)N4CCN(C)CC4)cc3)c1)=N2

>  <score_type>  (14) 
oracle

>  <origin>  (14) 
autodockgpu

>  <m_score__min__energy>  (14) 
-8.8599999999999994

>  <m_primary>  (14) 
energy

>  <rmsd>  (14) 
8.558324268382185

>  <m_score__min__rmsd>  (14) 
8.558324268382185

>  <meeko>  (14) 
{"free_energy": -8.37, "intermolecular_energy": -9.56, "internal_energy": -1.01, "cluster_size": 39, "cluster_id": 1, "rank_in_cluster": 33}

>  <energy>  (14) 
-8.74

>  <cluster_rmsd>  (14) 
0.19

>  <cluster>  (14) 
1

$$$$

     RDKit          3D

 62 66  0  0  0  0  0  0  0  0999 V2000
  140.7630   68.0390  229.0640 C   0  0  0  0  0  0  0  0  0  0  0  0
  140.7250   69.0740  228.0010 C   0  0  0  0  0  0  0  0  0  0  0  0
  141.1030   70.3750  228.3270 C   0  0  0  0  0  0  0  0  0  0  0  0
  141.0970   71.3820  227.3950 C   0  0  0  0  0  0  0  0  0  0  0  0
  140.7050   71.0940  226.0990 C   0  0  0  0  0  0  0  0  0  0  0  0
  140.3250   69.8210  225.7340 C   0  0  0  0  0  0  0  0  0  0  0  0
  140.3330   68.7970  226.6940 C   0  0  0  0  0  0  0  0  0  0  0  0
  139.9660   69.8380  224.2750 C   0  0  0  0  0  0  0  0  0  0  0  0
  140.2060   71.2550  223.9170 C   0  0  0  0  0  0  0  0  0  0  0  0
  140.0570   71.8740  222.5930 C   0  0  0  0  0  0  0  0  0  0  0  0
  139.6240   71.0970  221.5320 C   0  0  0  0  0  0  0  0  0  0  0  0
  139.5290   71.6860  220.2880 C   0  0  0  0  0  0  0  0  0  0  0  0
  139.8520   73.0190  220.0580 C   0  0  0  0  0  0  0  0  0  0  0  0
  140.2810   73.7800  221.1200 C   0  0  0  0  0  0  0  0  0  0  0  0
  140.7040   75.1790  220.9890 C   0  0  0  0  0  0  0  0  0  0  0  0
  141.7230   75.3890  220.2960 O   0  0  0  0  0  0  0  0  0  0  0  0
  139.9700   76.2230  221.6210 N   0  0  0  0  0  0  0  0  0  0  0  0
  140.2830   77.5890  221.5500 C   0  0  0  0  0  0  0  0  0  0  0  0
  140.6290   78.2780  220.4160 C   0  0  0  0  0  0  0  0  0  0  0  0
  140.8600   79.6580  220.4050 C   0  0  0  0  0  0  0  0  0  0  0  0
  140.7350   80.3710  221.6040 C   0  0  0  0  0  0  0  0  0  0  0  0
  140.9570   81.8030  221.6060 C   0  0  0  0  0  0  0  0  0  0  0  0
  141.8060   82.2150  222.4740 O   0  0  0  0  0  0  0  0  0  0  0  0
  140.3680   82.7620  220.7900 N   0  0  0  0  0  0  0  0  0  0  0  0
  139.3710   82.4580  219.7480 C   0  0  0  0  0  0  0  0  0  0  0  0
  138.6650   83.7400  219.3550 C   0  0  0  0  0  0  0  0  0  0  0  0
  138.3190   84.5930  220.4460 N   0  0  0  0  0  0  0  0  0  0  0  0
  137.0410   84.3700  221.0390 C   0  0  0  0  0  0  0  0  0  0  0  0
  139.3860   84.8080  221.4090 C   0  0  0  0  0  0  0  0  0  0  0  0
  140.6850   84.1900  220.9010 C   0  0  0  0  0  0  0  0  0  0  0  0
  140.3860   79.6890  222.7720 C   0  0  0  0  0  0  0  0  0  0  0  0
  140.1700   78.3330  222.7210 C   0  0  0  0  0  0  0  0  0  0  0  0
  140.3650   73.1780  222.3400 C   0  0  0  0  0  0  0  0  0  0  0  0
  140.6110   71.9280  224.9390 N   0  0  0  0  0  0  0  0  0  0  0  0
  140.7451   68.5256  230.0504 H   0  0  0  0  0  0  0  0  0  0  0  0
  139.8885   67.3792  228.9648 H   0  0  0  0  0  0  0  0  0  0  0  0
  141.6836   67.4451  228.9648 H   0  0  0  0  0  0  0  0  0  0  0  0
  141.4141   70.6004  229.3577 H   0  0  0  0  0  0  0  0  0  0  0  0
  141.3990   72.4024  227.6734 H   0  0  0  0  0  0  0  0  0  0  0  0
  140.0300   67.7772  226.4142 H   0  0  0  0  0  0  0  0  0  0  0  0
  140.6141   69.1639  223.6958 H   0  0  0  0  0  0  0  0  0  0  0  0
  138.9423   69.4942  224.0654 H   0  0  0  0  0  0  0  0  0  0  0  0
  139.3627   70.0384  221.6770 H   0  0  0  0  0  0  0  0  0  0  0  0
  139.1828   71.0748  219.4415 H   0  0  0  0  0  0  0  0  0  0  0  0
  139.7664   73.4539  219.0513 H   0  0  0  0  0  0  0  0  0  0  0  0
  139.1290   75.9040  222.1730 H   0  0  0  0  0  0  0  0  0  0  0  0
  140.7294   77.7209  219.4728 H   0  0  0  0  0  0  0  0  0  0  0  0
  141.1345   80.1730  219.4726 H   0  0  0  0  0  0  0  0  0  0  0  0
  139.8746   82.0294  218.8690 H   0  0  0  0  0  0  0  0  0  0  0  0
  138.6392   81.7325  220.1328 H   0  0  0  0  0  0  0  0  0  0  0  0
  139.3265   84.3012  218.6787 H   0  0  0  0  0  0  0  0  0  0  0  0
  137.7169   83.4392  218.8852 H   0  0  0  0  0  0  0  0  0  0  0  0
  137.1372   84.3868  222.1347 H   0  0  0  0  0  0  0  0  0  0  0  0
  136.3457   85.1604  220.7198 H   0  0  0  0  0  0  0  0  0  0  0  0
  136.6545   83.3908  220.7198 H   0  0  0  0  0  0  0  0  0  0  0  0
  139.5306   85.8885  221.5562 H   0  0  0  0  0  0  0  0  0  0  0  0
  139.1108   84.3332  222.3623 H   0  0  0  0  0  0  0  0  0  0  0  0
  140.9621   84.6080  219.9220 H   0  0  0  0  0  0  0  0  0  0  0  0
  141.5400   84.3875  221.5643 H   0  0  0  0  0  0  0  0  0  0  0  0
  140.2851   80.2321  223.7232 H   0  0  0  0  0  0  0  0  0  0  0  0
  139.8948   77.8108  223.6492 H   0  0  0  0  0  0  0  0  0  0  0  0
  140.7078   73.7917  223.1861 H   0  0  0  0  0  0  0  0  0  0  0  0
  1  2  1  0
  2  3  2  0
  3  4  1  0
  4  5  2  0
  5  6  1  0
  6  7  2  0
  6  8  1  0
  8  9  1  0
  9 10  1  0
 10 11  2  0
 11 12  1  0
 12 13  2  0
 13 14  1  0
 14 15  1  0
 15 16  2  0
 15 17  1  0
 17 18  1  0
 18 19  2  0
 19 20  1  0
 20 21  2  0
 21 22  1  0
 22 23  2  0
 22 24  1  0
 24 25  1  0
 25 26  1  0
 26 27  1  0
 27 28  1  0
 27 29  1  0
 29 30  1  0
 21 31  1  0
 31 32  2  0
 14 33  2  0
  9 34  2  0
  7  2  1  0
 33 10  1  0
 34  5  1  0
 32 18  1  0
 30 24  1  0
  1 35  1  0
  1 36  1  0
  1 37  1  0
  3 38  1  0
  4 39  1  0
  7 40  1  0
  8 41  1  0
  8 42  1  0
 11 43  1  0
 12 44  1  0
 13 45  1  0
 17 46  1  0
 19 47  1  0
 20 48  1  0
 25 49  1  0
 25 50  1  0
 26 51  1  0
 26 52  1  0
 28 53  1  0
 28 54  1  0
 28 55  1  0
 29 56  1  0
 29 57  1  0
 30 58  1  0
 30 59  1  0
 31 60  1  0
 32 61  1  0
 33 62  1  0
M  END
>  <smiles>  (15) 
Cc1ccc2c(c1)CC(c1cccc(C(=O)Nc3ccc(C(=O)N4CCN(C)CC4)cc3)c1)=N2

>  <score_type>  (15) 
oracle

>  <origin>  (15) 
autodockgpu

>  <m_score__min__energy>  (15) 
-8.8599999999999994

>  <m_primary>  (15) 
energy

>  <rmsd>  (15) 
8.846221303090271

>  <m_score__min__rmsd>  (15) 
8.846221303090271

>  <meeko>  (15) 
{"free_energy": -7.98, "intermolecular_energy": -9.17, "internal_energy": -0.94, "cluster_size": 39, "cluster_id": 1, "rank_in_cluster": 38}

>  <energy>  (15) 
-8.68

>  <cluster_rmsd>  (15) 
0.22

>  <cluster>  (15) 
1

$$$$

     RDKit          3D

 62 66  0  0  0  0  0  0  0  0999 V2000
  140.6510   68.1410  229.0550 C   0  0  0  0  0  0  0  0  0  0  0  0
  140.6550   69.1710  227.9860 C   0  0  0  0  0  0  0  0  0  0  0  0
  141.0580   70.4650  228.3110 C   0  0  0  0  0  0  0  0  0  0  0  0
  141.0900   71.4660  227.3740 C   0  0  0  0  0  0  0  0  0  0  0  0
  140.7120   71.1800  226.0730 C   0  0  0  0  0  0  0  0  0  0  0  0
  140.3080   69.9150  225.7090 C   0  0  0  0  0  0  0  0  0  0  0  0
  140.2780   68.8960  226.6740 C   0  0  0  0  0  0  0  0  0  0  0  0
  139.9730   69.9320  224.2450 C   0  0  0  0  0  0  0  0  0  0  0  0
  140.2520   71.3410  223.8830 C   0  0  0  0  0  0  0  0  0  0  0  0
  140.1390   71.9550  222.5530 C   0  0  0  0  0  0  0  0  0  0  0  0
  140.1250   71.1400  221.4340 C   0  0  0  0  0  0  0  0  0  0  0  0
  140.0590   71.7380  220.1920 C   0  0  0  0  0  0  0  0  0  0  0  0
  140.0080   73.1180  220.0220 C   0  0  0  0  0  0  0  0  0  0  0  0
  140.0210   73.9160  221.1410 C   0  0  0  0  0  0  0  0  0  0  0  0
  140.0300   75.3820  221.0840 C   0  0  0  0  0  0  0  0  0  0  0  0
  139.0490   75.9230  220.5280 O   0  0  0  0  0  0  0  0  0  0  0  0
  141.1060   76.1250  221.6470 N   0  0  0  0  0  0  0  0  0  0  0  0
  141.2060   77.5250  221.6540 C   0  0  0  0  0  0  0  0  0  0  0  0
  141.7870   78.2950  220.6790 C   0  0  0  0  0  0  0  0  0  0  0  0
  141.7890   79.6930  220.7160 C   0  0  0  0  0  0  0  0  0  0  0  0
  141.1750   80.3410  221.7950 C   0  0  0  0  0  0  0  0  0  0  0  0
  141.1560   81.7880  221.8410 C   0  0  0  0  0  0  0  0  0  0  0  0
  141.8040   82.3050  222.8190 O   0  0  0  0  0  0  0  0  0  0  0  0
  140.5290   82.6640  220.9620 N   0  0  0  0  0  0  0  0  0  0  0  0
  139.7410   82.2360  219.7930 C   0  0  0  0  0  0  0  0  0  0  0  0
  138.8920   83.3990  219.3200 C   0  0  0  0  0  0  0  0  0  0  0  0
  138.2710   84.1500  220.3620 N   0  0  0  0  0  0  0  0  0  0  0  0
  136.9800   83.7050  220.7750 C   0  0  0  0  0  0  0  0  0  0  0  0
  139.1520   84.5050  221.4620 C   0  0  0  0  0  0  0  0  0  0  0  0
  140.5900   84.1210  221.1270 C   0  0  0  0  0  0  0  0  0  0  0  0
  140.5790   79.5750  222.8020 C   0  0  0  0  0  0  0  0  0  0  0  0
  140.6070   78.2040  222.7110 C   0  0  0  0  0  0  0  0  0  0  0  0
  140.0850   73.3040  222.3560 C   0  0  0  0  0  0  0  0  0  0  0  0
  140.6570   72.0100  224.9080 N   0  0  0  0  0  0  0  0  0  0  0  0
  140.6529   68.6334  230.0386 H   0  0  0  0  0  0  0  0  0  0  0  0
  139.7504   67.5167  228.9592 H   0  0  0  0  0  0  0  0  0  0  0  0
  141.5467   67.5097  228.9592 H   0  0  0  0  0  0  0  0  0  0  0  0
  141.3580   70.6891  229.3453 H   0  0  0  0  0  0  0  0  0  0  0  0
  141.4111   72.4807  227.6518 H   0  0  0  0  0  0  0  0  0  0  0  0
  139.9571   67.8817  226.3942 H   0  0  0  0  0  0  0  0  0  0  0  0
  140.6142   69.2395  223.6800 H   0  0  0  0  0  0  0  0  0  0  0  0
  138.9450   69.6112  224.0209 H   0  0  0  0  0  0  0  0  0  0  0  0
  140.1654   70.0451  221.5322 H   0  0  0  0  0  0  0  0  0  0  0  0
  140.0462   71.0964  219.2986 H   0  0  0  0  0  0  0  0  0  0  0  0
  139.9584   73.5599  219.0159 H   0  0  0  0  0  0  0  0  0  0  0  0
  141.8670   75.5410  222.0870 H   0  0  0  0  0  0  0  0  0  0  0  0
  142.2728   77.7908  219.8306 H   0  0  0  0  0  0  0  0  0  0  0  0
  142.2645   80.2734  219.9117 H   0  0  0  0  0  0  0  0  0  0  0  0
  140.4190   81.9216  218.9858 H   0  0  0  0  0  0  0  0  0  0  0  0
  139.0938   81.3906  220.0694 H   0  0  0  0  0  0  0  0  0  0  0  0
  139.5355   84.0803  218.7441 H   0  0  0  0  0  0  0  0  0  0  0  0
  138.0763   82.9641  218.7238 H   0  0  0  0  0  0  0  0  0  0  0  0
  136.9320   83.6885  221.8738 H   0  0  0  0  0  0  0  0  0  0  0  0
  136.2136   84.3908  220.3848 H   0  0  0  0  0  0  0  0  0  0  0  0
  136.7990   82.6926  220.3848 H   0  0  0  0  0  0  0  0  0  0  0  0
  139.0964   85.5895  221.6372 H   0  0  0  0  0  0  0  0  0  0  0  0
  138.8359   83.9632  222.3656 H   0  0  0  0  0  0  0  0  0  0  0  0
  140.9201   84.6080  220.1975 H   0  0  0  0  0  0  0  0  0  0  0  0
  141.3070   84.4338  221.9004 H   0  0  0  0  0  0  0  0  0  0  0  0
  140.0926   80.0650  223.6584 H   0  0  0  0  0  0  0  0  0  0  0  0
  140.1338   77.6157  223.5110 H   0  0  0  0  0  0  0  0  0  0  0  0
  140.0939   73.9475  223.2481 H   0  0  0  0  0  0  0  0  0  0  0  0
  1  2  1  0
  2  3  2  0
  3  4  1  0
  4  5  2  0
  5  6  1  0
  6  7  2  0
  6  8  1  0
  8  9  1  0
  9 10  1  0
 10 11  2  0
 11 12  1  0
 12 13  2  0
 13 14  1  0
 14 15  1  0
 15 16  2  0
 15 17  1  0
 17 18  1  0
 18 19  2  0
 19 20  1  0
 20 21  2  0
 21 22  1  0
 22 23  2  0
 22 24  1  0
 24 25  1  0
 25 26  1  0
 26 27  1  0
 27 28  1  0
 27 29  1  0
 29 30  1  0
 21 31  1  0
 31 32  2  0
 14 33  2  0
  9 34  2  0
  7  2  1  0
 33 10  1  0
 34  5  1  0
 32 18  1  0
 30 24  1  0
  1 35  1  0
  1 36  1  0
  1 37  1  0
  3 38  1  0
  4 39  1  0
  7 40  1  0
  8 41  1  0
  8 42  1  0
 11 43  1  0
 12 44  1  0
 13 45  1  0
 17 46  1  0
 19 47  1  0
 20 48  1  0
 25 49  1  0
 25 50  1  0
 26 51  1  0
 26 52  1  0
 28 53  1  0
 28 54  1  0
 28 55  1  0
 29 56  1  0
 29 57  1  0
 30 58  1  0
 30 59  1  0
 31 60  1  0
 32 61  1  0
 33 62  1  0
M  END
>  <smiles>  (16) 
Cc1ccc2c(c1)CC(c1cccc(C(=O)Nc3ccc(C(=O)N4CCN(C)CC4)cc3)c1)=N2

>  <score_type>  (16) 
oracle

>  <origin>  (16) 
autodockgpu

>  <m_score__min__energy>  (16) 
-8.8599999999999994

>  <m_primary>  (16) 
energy

>  <rmsd>  (16) 
8.723876222494575

>  <m_score__min__rmsd>  (16) 
8.723876222494575

>  <meeko>  (16) 
{"free_energy": -8.82, "intermolecular_energy": -10.02, "internal_energy": -1.0, "cluster_size": 39, "cluster_id": 1, "rank_in_cluster": 11}

>  <energy>  (16) 
-8.63

>  <cluster_rmsd>  (16) 
0.24

>  <cluster>  (16) 
1

$$$$

     RDKit          3D

 62 66  0  0  0  0  0  0  0  0999 V2000
  140.3470   68.4400  229.0670 C   0  0  0  0  0  0  0  0  0  0  0  0
  140.1900   68.8090  227.6380 C   0  0  0  0  0  0  0  0  0  0  0  0
  139.5830   67.8960  226.7780 C   0  0  0  0  0  0  0  0  0  0  0  0
  139.4010   68.1720  225.4460 C   0  0  0  0  0  0  0  0  0  0  0  0
  139.8330   69.3890  224.9480 C   0  0  0  0  0  0  0  0  0  0  0  0
  140.4380   70.3200  225.7630 C   0  0  0  0  0  0  0  0  0  0  0  0
  140.6210   70.0310  227.1240 C   0  0  0  0  0  0  0  0  0  0  0  0
  140.7820   71.5220  224.9300 C   0  0  0  0  0  0  0  0  0  0  0  0
  140.2860   71.1200  223.5930 C   0  0  0  0  0  0  0  0  0  0  0  0
  140.3130   71.9170  222.3590 C   0  0  0  0  0  0  0  0  0  0  0  0
  140.8210   71.3500  221.2030 C   0  0  0  0  0  0  0  0  0  0  0  0
  140.8750   72.1280  220.0640 C   0  0  0  0  0  0  0  0  0  0  0  0
  140.4450   73.4500  220.0330 C   0  0  0  0  0  0  0  0  0  0  0  0
  139.9420   74.0010  221.1880 C   0  0  0  0  0  0  0  0  0  0  0  0
  139.5130   75.4010  221.2920 C   0  0  0  0  0  0  0  0  0  0  0  0
  139.6240   76.0940  220.2580 O   0  0  0  0  0  0  0  0  0  0  0  0
  138.9950   75.9130  222.5150 N   0  0  0  0  0  0  0  0  0  0  0  0
  138.5490   77.2280  222.7170 C   0  0  0  0  0  0  0  0  0  0  0  0
  137.2440   77.6500  222.6830 C   0  0  0  0  0  0  0  0  0  0  0  0
  136.8640   78.9660  222.9640 C   0  0  0  0  0  0  0  0  0  0  0  0
  137.8550   79.8990  223.2930 C   0  0  0  0  0  0  0  0  0  0  0  0
  137.4750   81.2630  223.6010 C   0  0  0  0  0  0  0  0  0  0  0  0
  138.2110   82.1620  223.0600 O   0  0  0  0  0  0  0  0  0  0  0  0
  136.4230   81.7000  224.3990 N   0  0  0  0  0  0  0  0  0  0  0  0
  135.4880   80.7990  225.0960 C   0  0  0  0  0  0  0  0  0  0  0  0
  134.7550   81.5840  226.1660 C   0  0  0  0  0  0  0  0  0  0  0  0
  135.5720   82.4830  226.9140 N   0  0  0  0  0  0  0  0  0  0  0  0
  136.1860   81.9490  228.0870 C   0  0  0  0  0  0  0  0  0  0  0  0
  136.4560   83.3120  226.1110 C   0  0  0  0  0  0  0  0  0  0  0  0
  136.1500   83.1230  224.6290 C   0  0  0  0  0  0  0  0  0  0  0  0
  139.1910   79.4920  223.3320 C   0  0  0  0  0  0  0  0  0  0  0  0
  139.5050   78.1850  223.0480 C   0  0  0  0  0  0  0  0  0  0  0  0
  139.8960   73.2140  222.3000 C   0  0  0  0  0  0  0  0  0  0  0  0
  139.7680   69.9390  223.6280 N   0  0  0  0  0  0  0  0  0  0  0  0
  139.9949   69.2677  229.7002 H   0  0  0  0  0  0  0  0  0  0  0  0
  139.7548   67.5378  229.2799 H   0  0  0  0  0  0  0  0  0  0  0  0
  141.4077   68.2411  229.2799 H   0  0  0  0  0  0  0  0  0  0  0  0
  139.2410   66.9296  227.1768 H   0  0  0  0  0  0  0  0  0  0  0  0
  138.9192   67.4372  224.7843 H   0  0  0  0  0  0  0  0  0  0  0  0
  141.1035   70.7671  227.7838 H   0  0  0  0  0  0  0  0  0  0  0  0
  140.2654   72.4222  225.2942 H   0  0  0  0  0  0  0  0  0  0  0  0
  141.8503   71.7836  224.9473 H   0  0  0  0  0  0  0  0  0  0  0  0
  141.1722   70.3076  221.1922 H   0  0  0  0  0  0  0  0  0  0  0  0
  141.2754   71.6830  219.1412 H   0  0  0  0  0  0  0  0  0  0  0  0
  140.5058   74.0406  219.1070 H   0  0  0  0  0  0  0  0  0  0  0  0
  138.9550   75.2170  223.3070 H   0  0  0  0  0  0  0  0  0  0  0  0
  136.4622   76.9210  222.4233 H   0  0  0  0  0  0  0  0  0  0  0  0
  135.8055   79.2630  222.9273 H   0  0  0  0  0  0  0  0  0  0  0  0
  134.7634   80.3903  224.3763 H   0  0  0  0  0  0  0  0  0  0  0  0
  136.0439   79.9695  225.5574 H   0  0  0  0  0  0  0  0  0  0  0  0
  133.9611   82.1685  225.6781 H   0  0  0  0  0  0  0  0  0  0  0  0
  134.3708   80.8445  226.8840 H   0  0  0  0  0  0  0  0  0  0  0  0
  135.7007   82.3710  228.9794 H   0  0  0  0  0  0  0  0  0  0  0  0
  136.0758   80.8545  228.0927 H   0  0  0  0  0  0  0  0  0  0  0  0
  137.2546   82.2099  228.0927 H   0  0  0  0  0  0  0  0  0  0  0  0
  136.3089   84.3682  226.3809 H   0  0  0  0  0  0  0  0  0  0  0  0
  137.4983   83.0178  226.3035 H   0  0  0  0  0  0  0  0  0  0  0  0
  135.0983   83.3613  224.4116 H   0  0  0  0  0  0  0  0  0  0  0  0
  136.7467   83.7827  223.9819 H   0  0  0  0  0  0  0  0  0  0  0  0
  139.9835   80.2108  223.5875 H   0  0  0  0  0  0  0  0  0  0  0  0
  140.5613   77.8801  223.0838 H   0  0  0  0  0  0  0  0  0  0  0  0
  139.4913   73.6595  223.2208 H   0  0  0  0  0  0  0  0  0  0  0  0
  1  2  1  0
  2  3  2  0
  3  4  1  0
  4  5  2  0
  5  6  1  0
  6  7  2  0
  6  8  1  0
  8  9  1  0
  9 10  1  0
 10 11  2  0
 11 12  1  0
 12 13  2  0
 13 14  1  0
 14 15  1  0
 15 16  2  0
 15 17  1  0
 17 18  1  0
 18 19  2  0
 19 20  1  0
 20 21  2  0
 21 22  1  0
 22 23  2  0
 22 24  1  0
 24 25  1  0
 25 26  1  0
 26 27  1  0
 27 28  1  0
 27 29  1  0
 29 30  1  0
 21 31  1  0
 31 32  2  0
 14 33  2  0
  9 34  2  0
  7  2  1  0
 33 10  1  0
 34  5  1  0
 32 18  1  0
 30 24  1  0
  1 35  1  0
  1 36  1  0
  1 37  1  0
  3 38  1  0
  4 39  1  0
  7 40  1  0
  8 41  1  0
  8 42  1  0
 11 43  1  0
 12 44  1  0
 13 45  1  0
 17 46  1  0
 19 47  1  0
 20 48  1  0
 25 49  1  0
 25 50  1  0
 26 51  1  0
 26 52  1  0
 28 53  1  0
 28 54  1  0
 28 55  1  0
 29 56  1  0
 29 57  1  0
 30 58  1  0
 30 59  1  0
 31 60  1  0
 32 61  1  0
 33 62  1  0
M  END
>  <smiles>  (17) 
Cc1ccc2c(c1)CC(c1cccc(C(=O)Nc3ccc(C(=O)N4CCN(C)CC4)cc3)c1)=N2

>  <score_type>  (17) 
oracle

>  <origin>  (17) 
autodockgpu

>  <m_score__min__energy>  (17) 
-8.8599999999999994

>  <m_primary>  (17) 
energy

>  <rmsd>  (17) 
8.904550215955856

>  <m_score__min__rmsd>  (17) 
8.904550215955856

>  <meeko>  (17) 
{"free_energy": -8.36, "intermolecular_energy": -9.55, "internal_energy": -0.92, "cluster_size": 7, "cluster_id": 2, "rank_in_cluster": 3}

>  <energy>  (17) 
-8.63

>  <cluster_rmsd>  (17) 
0.26

>  <cluster>  (17) 
1

$$$$

     RDKit          3D

 62 66  0  0  0  0  0  0  0  0999 V2000
  140.4090   68.1440  229.0800 C   0  0  0  0  0  0  0  0  0  0  0  0
  140.4900   69.1690  228.0090 C   0  0  0  0  0  0  0  0  0  0  0  0
  140.9430   70.4440  228.3430 C   0  0  0  0  0  0  0  0  0  0  0  0
  141.0470   71.4400  227.4050 C   0  0  0  0  0  0  0  0  0  0  0  0
  140.6920   71.1660  226.0950 C   0  0  0  0  0  0  0  0  0  0  0  0
  140.2400   69.9200  225.7220 C   0  0  0  0  0  0  0  0  0  0  0  0
  140.1360   68.9070  226.6880 C   0  0  0  0  0  0  0  0  0  0  0  0
  139.9460   69.9480  224.2490 C   0  0  0  0  0  0  0  0  0  0  0  0
  140.3000   71.3410  223.8920 C   0  0  0  0  0  0  0  0  0  0  0  0
  140.2520   71.9560  222.5590 C   0  0  0  0  0  0  0  0  0  0  0  0
  140.3390   71.1440  221.4410 C   0  0  0  0  0  0  0  0  0  0  0  0
  140.3330   71.7440  220.1980 C   0  0  0  0  0  0  0  0  0  0  0  0
  140.2440   73.1210  220.0250 C   0  0  0  0  0  0  0  0  0  0  0  0
  140.1570   73.9160  221.1440 C   0  0  0  0  0  0  0  0  0  0  0  0
  140.1190   75.3820  221.0890 C   0  0  0  0  0  0  0  0  0  0  0  0
  139.0440   75.8950  220.7080 O   0  0  0  0  0  0  0  0  0  0  0  0
  141.2550   76.1530  221.4630 N   0  0  0  0  0  0  0  0  0  0  0  0
  141.3190   77.5550  221.4560 C   0  0  0  0  0  0  0  0  0  0  0  0
  141.8010   78.3340  220.4350 C   0  0  0  0  0  0  0  0  0  0  0  0
  141.7700   79.7320  220.4650 C   0  0  0  0  0  0  0  0  0  0  0  0
  141.2250   80.3700  221.5870 C   0  0  0  0  0  0  0  0  0  0  0  0
  141.1720   81.8170  221.6270 C   0  0  0  0  0  0  0  0  0  0  0  0
  141.8310   82.3540  222.5870 O   0  0  0  0  0  0  0  0  0  0  0  0
  140.5040   82.6740  220.7600 N   0  0  0  0  0  0  0  0  0  0  0  0
  139.6990   82.2210  219.6110 C   0  0  0  0  0  0  0  0  0  0  0  0
  138.8100   83.3610  219.1540 C   0  0  0  0  0  0  0  0  0  0  0  0
  138.1960   84.1010  220.2080 N   0  0  0  0  0  0  0  0  0  0  0  0
  136.9260   83.6280  220.6540 C   0  0  0  0  0  0  0  0  0  0  0  0
  139.0950   84.4830  221.2850 C   0  0  0  0  0  0  0  0  0  0  0  0
  140.5330   84.1320  220.9180 C   0  0  0  0  0  0  0  0  0  0  0  0
  140.7310   79.5960  222.6400 C   0  0  0  0  0  0  0  0  0  0  0  0
  140.7870   78.2260  222.5530 C   0  0  0  0  0  0  0  0  0  0  0  0
  140.1640   73.3020  222.3600 C   0  0  0  0  0  0  0  0  0  0  0  0
  140.7060   71.9950  224.9260 N   0  0  0  0  0  0  0  0  0  0  0  0
  140.4479   68.6367  230.0627 H   0  0  0  0  0  0  0  0  0  0  0  0
  139.4642   67.5887  228.9854 H   0  0  0  0  0  0  0  0  0  0  0  0
  141.2549   67.4472  228.9854 H   0  0  0  0  0  0  0  0  0  0  0  0
  141.2242   70.6572  229.3848 H   0  0  0  0  0  0  0  0  0  0  0  0
  141.4066   72.4400  227.6891 H   0  0  0  0  0  0  0  0  0  0  0  0
  139.7755   67.9079  226.4020 H   0  0  0  0  0  0  0  0  0  0  0  0
  140.5693   69.2245  223.7030 H   0  0  0  0  0  0  0  0  0  0  0  0
  138.9106   69.6747  223.9977 H   0  0  0  0  0  0  0  0  0  0  0  0
  140.4109   70.0509  221.5406 H   0  0  0  0  0  0  0  0  0  0  0  0
  140.4016   71.1051  219.3052 H   0  0  0  0  0  0  0  0  0  0  0  0
  140.2432   73.5635  219.0179 H   0  0  0  0  0  0  0  0  0  0  0  0
  142.0940   75.5900  221.7670 H   0  0  0  0  0  0  0  0  0  0  0  0
  142.2312   77.8369  219.5531 H   0  0  0  0  0  0  0  0  0  0  0  0
  142.1660   80.3195  219.6236 H   0  0  0  0  0  0  0  0  0  0  0  0
  140.3653   81.9201  218.7891 H   0  0  0  0  0  0  0  0  0  0  0  0
  139.0799   81.3608  219.9057 H   0  0  0  0  0  0  0  0  0  0  0  0
  139.4224   84.0555  218.5601 H   0  0  0  0  0  0  0  0  0  0  0  0
  137.9912   82.9036  218.5793 H   0  0  0  0  0  0  0  0  0  0  0  0
  136.9034   83.6196  221.7537 H   0  0  0  0  0  0  0  0  0  0  0  0
  136.1342   84.2915  220.2761 H   0  0  0  0  0  0  0  0  0  0  0  0
  136.7612   82.6082  220.2761 H   0  0  0  0  0  0  0  0  0  0  0  0
  139.0176   85.5668  221.4561 H   0  0  0  0  0  0  0  0  0  0  0  0
  138.8138   83.9383  222.1984 H   0  0  0  0  0  0  0  0  0  0  0  0
  140.8295   84.6227  219.9792 H   0  0  0  0  0  0  0  0  0  0  0  0
  141.2598   84.4651  221.6735 H   0  0  0  0  0  0  0  0  0  0  0  0
  140.3014   80.0788  223.5301 H   0  0  0  0  0  0  0  0  0  0  0  0
  140.3926   77.6313  223.3901 H   0  0  0  0  0  0  0  0  0  0  0  0
  140.0931   73.9425  223.2515 H   0  0  0  0  0  0  0  0  0  0  0  0
  1  2  1  0
  2  3  2  0
  3  4  1  0
  4  5  2  0
  5  6  1  0
  6  7  2  0
  6  8  1  0
  8  9  1  0
  9 10  1  0
 10 11  2  0
 11 12  1  0
 12 13  2  0
 13 14  1  0
 14 15  1  0
 15 16  2  0
 15 17  1  0
 17 18  1  0
 18 19  2  0
 19 20  1  0
 20 21  2  0
 21 22  1  0
 22 23  2  0
 22 24  1  0
 24 25  1  0
 25 26  1  0
 26 27  1  0
 27 28  1  0
 27 29  1  0
 29 30  1  0
 21 31  1  0
 31 32  2  0
 14 33  2  0
  9 34  2  0
  7  2  1  0
 33 10  1  0
 34  5  1  0
 32 18  1  0
 30 24  1  0
  1 35  1  0
  1 36  1  0
  1 37  1  0
  3 38  1  0
  4 39  1  0
  7 40  1  0
  8 41  1  0
  8 42  1  0
 11 43  1  0
 12 44  1  0
 13 45  1  0
 17 46  1  0
 19 47  1  0
 20 48  1  0
 25 49  1  0
 25 50  1  0
 26 51  1  0
 26 52  1  0
 28 53  1  0
 28 54  1  0
 28 55  1  0
 29 56  1  0
 29 57  1  0
 30 58  1  0
 30 59  1  0
 31 60  1  0
 32 61  1  0
 33 62  1  0
M  END
>  <smiles>  (18) 
Cc1ccc2c(c1)CC(c1cccc(C(=O)Nc3ccc(C(=O)N4CCN(C)CC4)cc3)c1)=N2

>  <score_type>  (18) 
oracle

>  <origin>  (18) 
autodockgpu

>  <m_score__min__energy>  (18) 
-8.8599999999999994

>  <m_primary>  (18) 
energy

>  <rmsd>  (18) 
8.706052919033935

>  <m_score__min__rmsd>  (18) 
8.706052919033935

>  <meeko>  (18) 
{"free_energy": -8.74, "intermolecular_energy": -9.93, "internal_energy": -1.0, "cluster_size": 39, "cluster_id": 1, "rank_in_cluster": 14}

>  <energy>  (18) 
-8.6

>  <cluster_rmsd>  (18) 
0.26

>  <cluster>  (18) 
1

$$$$

     RDKit          3D

 62 66  0  0  0  0  0  0  0  0999 V2000
  141.1410   68.1960  229.0870 C   0  0  0  0  0  0  0  0  0  0  0  0
  140.6660   68.5450  227.7240 C   0  0  0  0  0  0  0  0  0  0  0  0
  139.7610   67.6910  227.0970 C   0  0  0  0  0  0  0  0  0  0  0  0
  139.2770   67.9520  225.8400 C   0  0  0  0  0  0  0  0  0  0  0  0
  139.7000   69.0940  225.1820 C   0  0  0  0  0  0  0  0  0  0  0  0
  140.5920   69.9660  225.7660 C   0  0  0  0  0  0  0  0  0  0  0  0
  141.0840   69.6910  227.0520 C   0  0  0  0  0  0  0  0  0  0  0  0
  140.8430   71.0940  224.8070 C   0  0  0  0  0  0  0  0  0  0  0  0
  139.9800   70.7210  223.6620 C   0  0  0  0  0  0  0  0  0  0  0  0
  139.7790   71.4760  222.4180 C   0  0  0  0  0  0  0  0  0  0  0  0
  139.6400   70.7860  221.2270 C   0  0  0  0  0  0  0  0  0  0  0  0
  139.4930   71.5140  220.0640 C   0  0  0  0  0  0  0  0  0  0  0  0
  139.4810   72.9050  220.0420 C   0  0  0  0  0  0  0  0  0  0  0  0
  139.6190   73.5790  221.2320 C   0  0  0  0  0  0  0  0  0  0  0  0
  139.6800   75.0420  221.3270 C   0  0  0  0  0  0  0  0  0  0  0  0
  138.5920   75.6500  221.2410 O   0  0  0  0  0  0  0  0  0  0  0  0
  140.9250   75.7070  221.5150 N   0  0  0  0  0  0  0  0  0  0  0  0
  141.0920   77.0960  221.6280 C   0  0  0  0  0  0  0  0  0  0  0  0
  141.7750   77.8990  220.7490 C   0  0  0  0  0  0  0  0  0  0  0  0
  141.8410   79.2890  220.8850 C   0  0  0  0  0  0  0  0  0  0  0  0
  141.1850   79.8930  221.9650 C   0  0  0  0  0  0  0  0  0  0  0  0
  141.2330   81.3340  222.1110 C   0  0  0  0  0  0  0  0  0  0  0  0
  141.5390   81.7470  223.2850 O   0  0  0  0  0  0  0  0  0  0  0  0
  140.9910   82.3010  221.1420 N   0  0  0  0  0  0  0  0  0  0  0  0
  140.6230   81.9970  219.7480 C   0  0  0  0  0  0  0  0  0  0  0  0
  140.0500   83.2460  219.1080 C   0  0  0  0  0  0  0  0  0  0  0  0
  139.1560   83.9870  219.9360 N   0  0  0  0  0  0  0  0  0  0  0  0
  137.7780   83.6240  219.8590 C   0  0  0  0  0  0  0  0  0  0  0  0
  139.6310   84.2150  221.2910 C   0  0  0  0  0  0  0  0  0  0  0  0
  141.0730   83.7380  221.4280 C   0  0  0  0  0  0  0  0  0  0  0  0
  140.4860   79.0950  222.8740 C   0  0  0  0  0  0  0  0  0  0  0  0
  140.4540   77.7340  222.6880 C   0  0  0  0  0  0  0  0  0  0  0  0
  139.7620   72.8390  222.3680 C   0  0  0  0  0  0  0  0  0  0  0  0
  139.3610   69.6140  223.8910 N   0  0  0  0  0  0  0  0  0  0  0  0
  140.4912   68.6734  229.8352 H   0  0  0  0  0  0  0  0  0  0  0  0
  141.1101   67.1042  229.2177 H   0  0  0  0  0  0  0  0  0  0  0  0
  142.1736   68.5518  229.2177 H   0  0  0  0  0  0  0  0  0  0  0  0
  139.4262   66.7848  227.6230 H   0  0  0  0  0  0  0  0  0  0  0  0
  138.5637   67.2642  225.3624 H   0  0  0  0  0  0  0  0  0  0  0  0
  141.7981   70.3793  227.5277 H   0  0  0  0  0  0  0  0  0  0  0  0
  140.5405   72.0599  225.2378 H   0  0  0  0  0  0  0  0  0  0  0  0
  141.9025   71.2231  224.5409 H   0  0  0  0  0  0  0  0  0  0  0  0
  139.6465   69.6862  221.2076 H   0  0  0  0  0  0  0  0  0  0  0  0
  139.3805   70.9714  219.1138 H   0  0  0  0  0  0  0  0  0  0  0  0
  139.3639   73.4523  219.0950 H   0  0  0  0  0  0  0  0  0  0  0  0
  141.7650   75.0700  221.5730 H   0  0  0  0  0  0  0  0  0  0  0  0
  142.2931   77.4284  219.9004 H   0  0  0  0  0  0  0  0  0  0  0  0
  142.3980   79.8971  220.1570 H   0  0  0  0  0  0  0  0  0  0  0  0
  141.5157   81.6737  219.1925 H   0  0  0  0  0  0  0  0  0  0  0  0
  139.8749   81.1908  219.7273 H   0  0  0  0  0  0  0  0  0  0  0  0
  140.8872   83.9046  218.8335 H   0  0  0  0  0  0  0  0  0  0  0  0
  139.4614   82.9078  218.2425 H   0  0  0  0  0  0  0  0  0  0  0  0
  137.3698   83.5165  220.8748 H   0  0  0  0  0  0  0  0  0  0  0  0
  137.2222   84.4064  219.3214 H   0  0  0  0  0  0  0  0  0  0  0  0
  137.6798   82.6693  219.3214 H   0  0  0  0  0  0  0  0  0  0  0  0
  139.5803   85.2901  221.5183 H   0  0  0  0  0  0  0  0  0  0  0  0
  138.9978   83.6536  221.9938 H   0  0  0  0  0  0  0  0  0  0  0  0
  141.7251   84.2461  220.7023 H   0  0  0  0  0  0  0  0  0  0  0  0
  141.5014   83.9525  222.4182 H   0  0  0  0  0  0  0  0  0  0  0  0
  139.9667   79.5514  223.7296 H   0  0  0  0  0  0  0  0  0  0  0  0
  139.8978   77.1194  223.4111 H   0  0  0  0  0  0  0  0  0  0  0  0
  139.8722   73.3831  223.3176 H   0  0  0  0  0  0  0  0  0  0  0  0
  1  2  1  0
  2  3  2  0
  3  4  1  0
  4  5  2  0
  5  6  1  0
  6  7  2  0
  6  8  1  0
  8  9  1  0
  9 10  1  0
 10 11  2  0
 11 12  1  0
 12 13  2  0
 13 14  1  0
 14 15  1  0
 15 16  2  0
 15 17  1  0
 17 18  1  0
 18 19  2  0
 19 20  1  0
 20 21  2  0
 21 22  1  0
 22 23  2  0
 22 24  1  0
 24 25  1  0
 25 26  1  0
 26 27  1  0
 27 28  1  0
 27 29  1  0
 29 30  1  0
 21 31  1  0
 31 32  2  0
 14 33  2  0
  9 34  2  0
  7  2  1  0
 33 10  1  0
 34  5  1  0
 32 18  1  0
 30 24  1  0
  1 35  1  0
  1 36  1  0
  1 37  1  0
  3 38  1  0
  4 39  1  0
  7 40  1  0
  8 41  1  0
  8 42  1  0
 11 43  1  0
 12 44  1  0
 13 45  1  0
 17 46  1  0
 19 47  1  0
 20 48  1  0
 25 49  1  0
 25 50  1  0
 26 51  1  0
 26 52  1  0
 28 53  1  0
 28 54  1  0
 28 55  1  0
 29 56  1  0
 29 57  1  0
 30 58  1  0
 30 59  1  0
 31 60  1  0
 32 61  1  0
 33 62  1  0
M  END
>  <smiles>  (19) 
Cc1ccc2c(c1)CC(c1cccc(C(=O)Nc3ccc(C(=O)N4CCN(C)CC4)cc3)c1)=N2

>  <score_type>  (19) 
oracle

>  <origin>  (19) 
autodockgpu

>  <m_score__min__energy>  (19) 
-8.8599999999999994

>  <m_primary>  (19) 
energy

>  <rmsd>  (19) 
8.593424420221812

>  <m_score__min__rmsd>  (19) 
8.593424420221812

>  <meeko>  (19) 
{"free_energy": -8.32, "intermolecular_energy": -9.52, "internal_energy": -0.96, "cluster_size": 39, "cluster_id": 1, "rank_in_cluster": 35}

>  <energy>  (19) 
-8.58

>  <cluster_rmsd>  (19) 
0.27

>  <cluster>  (19) 
1

$$$$

     RDKit          3D

 62 66  0  0  0  0  0  0  0  0999 V2000
  141.4170   67.7650  229.1610 C   0  0  0  0  0  0  0  0  0  0  0  0
  141.0740   68.7710  228.1240 C   0  0  0  0  0  0  0  0  0  0  0  0
  141.3300   70.1140  228.3920 C   0  0  0  0  0  0  0  0  0  0  0  0
  141.0420   71.0970  227.4790 C   0  0  0  0  0  0  0  0  0  0  0  0
  140.4840   70.7410  226.2630 C   0  0  0  0  0  0  0  0  0  0  0  0
  140.2160   69.4250  225.9580 C   0  0  0  0  0  0  0  0  0  0  0  0
  140.5130   68.4250  226.8970 C   0  0  0  0  0  0  0  0  0  0  0  0
  139.6250   69.3730  224.5780 C   0  0  0  0  0  0  0  0  0  0  0  0
  139.6190   70.8040  224.1930 C   0  0  0  0  0  0  0  0  0  0  0  0
  139.1780   71.3780  222.9150 C   0  0  0  0  0  0  0  0  0  0  0  0
  138.6520   70.5400  221.9470 C   0  0  0  0  0  0  0  0  0  0  0  0
  138.2810   71.0920  220.7380 C   0  0  0  0  0  0  0  0  0  0  0  0
  138.4160   72.4470  220.4550 C   0  0  0  0  0  0  0  0  0  0  0  0
  138.9400   73.2690  221.4240 C   0  0  0  0  0  0  0  0  0  0  0  0
  139.1840   74.7010  221.2200 C   0  0  0  0  0  0  0  0  0  0  0  0
  139.0890   75.1190  220.0460 O   0  0  0  0  0  0  0  0  0  0  0  0
  139.5010   75.5480  222.3200 N   0  0  0  0  0  0  0  0  0  0  0  0
  139.7420   76.9280  222.2340 C   0  0  0  0  0  0  0  0  0  0  0  0
  138.8580   77.9220  222.5740 C   0  0  0  0  0  0  0  0  0  0  0  0
  139.1900   79.2800  222.5310 C   0  0  0  0  0  0  0  0  0  0  0  0
  140.4780   79.6470  222.1230 C   0  0  0  0  0  0  0  0  0  0  0  0
  140.8410   81.0490  222.0880 C   0  0  0  0  0  0  0  0  0  0  0  0
  141.4530   81.4740  223.1310 O   0  0  0  0  0  0  0  0  0  0  0  0
  140.6090   81.9680  221.0710 N   0  0  0  0  0  0  0  0  0  0  0  0
  139.9170   81.6460  219.8100 C   0  0  0  0  0  0  0  0  0  0  0  0
  139.4900   82.9370  219.1400 C   0  0  0  0  0  0  0  0  0  0  0  0
  138.9460   83.9180  220.0220 N   0  0  0  0  0  0  0  0  0  0  0  0
  137.5370   83.8610  220.2360 C   0  0  0  0  0  0  0  0  0  0  0  0
  139.7180   84.1390  221.2330 C   0  0  0  0  0  0  0  0  0  0  0  0
  141.0340   83.3700  221.1660 C   0  0  0  0  0  0  0  0  0  0  0  0
  141.3940   78.6520  221.7710 C   0  0  0  0  0  0  0  0  0  0  0  0
  141.0120   77.3330  221.8340 C   0  0  0  0  0  0  0  0  0  0  0  0
  139.2970   72.7020  222.6110 C   0  0  0  0  0  0  0  0  0  0  0  0
  140.0960   71.5390  225.1390 N   0  0  0  0  0  0  0  0  0  0  0  0
  141.2680   68.2021  230.1594 H   0  0  0  0  0  0  0  0  0  0  0  0
  140.7685   66.8840  229.0459 H   0  0  0  0  0  0  0  0  0  0  0  0
  142.4687   67.4637  229.0459 H   0  0  0  0  0  0  0  0  0  0  0  0
  141.7738   70.3931  229.3590 H   0  0  0  0  0  0  0  0  0  0  0  0
  141.2513   72.1520  227.7097 H   0  0  0  0  0  0  0  0  0  0  0  0
  140.3032   67.3705  226.6645 H   0  0  0  0  0  0  0  0  0  0  0  0
  140.2513   68.7782  223.8969 H   0  0  0  0  0  0  0  0  0  0  0  0
  138.6337   68.8979  224.5370 H   0  0  0  0  0  0  0  0  0  0  0  0
  138.5329   69.4630  222.1364 H   0  0  0  0  0  0  0  0  0  0  0  0
  137.8605   70.4321  219.9649 H   0  0  0  0  0  0  0  0  0  0  0  0
  138.1106   72.8513  219.4787 H   0  0  0  0  0  0  0  0  0  0  0  0
  139.5460   75.0640  223.2560 H   0  0  0  0  0  0  0  0  0  0  0  0
  137.8447   77.6380  222.8941 H   0  0  0  0  0  0  0  0  0  0  0  0
  138.4524   80.0459  222.8127 H   0  0  0  0  0  0  0  0  0  0  0  0
  140.5979   81.0932  219.1460 H   0  0  0  0  0  0  0  0  0  0  0  0
  139.0336   81.0245  220.0181 H   0  0  0  0  0  0  0  0  0  0  0  0
  140.3702   83.3728  218.6447 H   0  0  0  0  0  0  0  0  0  0  0  0
  138.6850   82.6704  218.4393 H   0  0  0  0  0  0  0  0  0  0  0  0
  137.3303   83.8526  221.3164 H   0  0  0  0  0  0  0  0  0  0  0  0
  137.0607   84.7406  219.7783 H   0  0  0  0  0  0  0  0  0  0  0  0
  137.1333   82.9458  219.7783 H   0  0  0  0  0  0  0  0  0  0  0  0
  139.9298   85.2133  221.3380 H   0  0  0  0  0  0  0  0  0  0  0  0
  139.1385   83.7844  222.0981 H   0  0  0  0  0  0  0  0  0  0  0  0
  141.6167   83.6648  220.2808 H   0  0  0  0  0  0  0  0  0  0  0  0
  141.6860   83.5617  222.0309 H   0  0  0  0  0  0  0  0  0  0  0  0
  142.4100   78.9215  221.4469 H   0  0  0  0  0  0  0  0  0  0  0  0
  141.7446   76.5613  221.5551 H   0  0  0  0  0  0  0  0  0  0  0  0
  139.7137   73.3642  223.3842 H   0  0  0  0  0  0  0  0  0  0  0  0
  1  2  1  0
  2  3  2  0
  3  4  1  0
  4  5  2  0
  5  6  1  0
  6  7  2  0
  6  8  1  0
  8  9  1  0
  9 10  1  0
 10 11  2  0
 11 12  1  0
 12 13  2  0
 13 14  1  0
 14 15  1  0
 15 16  2  0
 15 17  1  0
 17 18  1  0
 18 19  2  0
 19 20  1  0
 20 21  2  0
 21 22  1  0
 22 23  2  0
 22 24  1  0
 24 25  1  0
 25 26  1  0
 26 27  1  0
 27 28  1  0
 27 29  1  0
 29 30  1  0
 21 31  1  0
 31 32  2  0
 14 33  2  0
  9 34  2  0
  7  2  1  0
 33 10  1  0
 34  5  1  0
 32 18  1  0
 30 24  1  0
  1 35  1  0
  1 36  1  0
  1 37  1  0
  3 38  1  0
  4 39  1  0
  7 40  1  0
  8 41  1  0
  8 42  1  0
 11 43  1  0
 12 44  1  0
 13 45  1  0
 17 46  1  0
 19 47  1  0
 20 48  1  0
 25 49  1  0
 25 50  1  0
 26 51  1  0
 26 52  1  0
 28 53  1  0
 28 54  1  0
 28 55  1  0
 29 56  1  0
 29 57  1  0
 30 58  1  0
 30 59  1  0
 31 60  1  0
 32 61  1  0
 33 62  1  0
M  END
>  <smiles>  (20) 
Cc1ccc2c(c1)CC(c1cccc(C(=O)Nc3ccc(C(=O)N4CCN(C)CC4)cc3)c1)=N2

>  <score_type>  (20) 
oracle

>  <origin>  (20) 
autodockgpu

>  <m_score__min__energy>  (20) 
-8.8599999999999994

>  <m_primary>  (20) 
energy

>  <rmsd>  (20) 
8.907043190861181

>  <m_score__min__rmsd>  (20) 
8.907043190861181

>  <meeko>  (20) 
{"free_energy": -8.43, "intermolecular_energy": -9.62, "internal_energy": -1.01, "cluster_size": 39, "cluster_id": 1, "rank_in_cluster": 28}

>  <energy>  (20) 
-8.58

>  <cluster_rmsd>  (20) 
0.38

>  <cluster>  (20) 
1

$$$$

     RDKit          3D

 62 66  0  0  0  0  0  0  0  0999 V2000
  141.4450   68.2610  229.0180 C   0  0  0  0  0  0  0  0  0  0  0  0
  140.8330   68.4830  227.6840 C   0  0  0  0  0  0  0  0  0  0  0  0
  140.2690   67.3940  227.0220 C   0  0  0  0  0  0  0  0  0  0  0  0
  139.6830   67.5250  225.7890 C   0  0  0  0  0  0  0  0  0  0  0  0
  139.6530   68.7740  225.1900 C   0  0  0  0  0  0  0  0  0  0  0  0
  140.1980   69.8760  225.8090 C   0  0  0  0  0  0  0  0  0  0  0  0
  140.7970   69.7330  227.0710 C   0  0  0  0  0  0  0  0  0  0  0  0
  140.0020   71.0640  224.9110 C   0  0  0  0  0  0  0  0  0  0  0  0
  139.2900   70.4640  223.7590 C   0  0  0  0  0  0  0  0  0  0  0  0
  138.7950   71.1570  222.5630 C   0  0  0  0  0  0  0  0  0  0  0  0
  138.1660   70.4230  221.5710 C   0  0  0  0  0  0  0  0  0  0  0  0
  137.7440   71.0860  220.4370 C   0  0  0  0  0  0  0  0  0  0  0  0
  137.9260   72.4520  220.2510 C   0  0  0  0  0  0  0  0  0  0  0  0
  138.5510   73.1700  221.2430 C   0  0  0  0  0  0  0  0  0  0  0  0
  138.8490   74.6030  221.1340 C   0  0  0  0  0  0  0  0  0  0  0  0
  138.7210   75.1120  220.0000 O   0  0  0  0  0  0  0  0  0  0  0  0
  139.2530   75.3500  222.2770 N   0  0  0  0  0  0  0  0  0  0  0  0
  139.5520   76.7210  222.2830 C   0  0  0  0  0  0  0  0  0  0  0  0
  138.6590   77.7380  222.5100 C   0  0  0  0  0  0  0  0  0  0  0  0
  139.0390   79.0830  222.5720 C   0  0  0  0  0  0  0  0  0  0  0  0
  140.3890   79.4110  222.3930 C   0  0  0  0  0  0  0  0  0  0  0  0
  140.8000   80.7980  222.4690 C   0  0  0  0  0  0  0  0  0  0  0  0
  140.9830   81.2410  223.6570 O   0  0  0  0  0  0  0  0  0  0  0  0
  141.0180   81.6850  221.4210 N   0  0  0  0  0  0  0  0  0  0  0  0
  140.8480   81.3380  219.9990 C   0  0  0  0  0  0  0  0  0  0  0  0
  140.7690   82.6160  219.1870 C   0  0  0  0  0  0  0  0  0  0  0  0
  139.9730   83.6470  219.7700 N   0  0  0  0  0  0  0  0  0  0  0  0
  138.5880   83.6440  219.4270 C   0  0  0  0  0  0  0  0  0  0  0  0
  140.2310   83.8880  221.1800 C   0  0  0  0  0  0  0  0  0  0  0  0
  141.4360   83.0740  221.6410 C   0  0  0  0  0  0  0  0  0  0  0  0
  141.3150   78.3910  222.1590 C   0  0  0  0  0  0  0  0  0  0  0  0
  140.8830   77.0880  222.1100 C   0  0  0  0  0  0  0  0  0  0  0  0
  138.9570   72.4950  222.3550 C   0  0  0  0  0  0  0  0  0  0  0  0
  139.1100   69.2000  223.9350 N   0  0  0  0  0  0  0  0  0  0  0  0
  140.7200   68.5240  229.8024 H   0  0  0  0  0  0  0  0  0  0  0  0
  141.7280   67.2029  229.1201 H   0  0  0  0  0  0  0  0  0  0  0  0
  142.3405   68.8916  229.1201 H   0  0  0  0  0  0  0  0  0  0  0  0
  140.2945   66.4040  227.5007 H   0  0  0  0  0  0  0  0  0  0  0  0
  139.2438   66.6523  225.2836 H   0  0  0  0  0  0  0  0  0  0  0  0
  141.2369   70.6065  227.5744 H   0  0  0  0  0  0  0  0  0  0  0  0
  139.3916   71.8379  225.3993 H   0  0  0  0  0  0  0  0  0  0  0  0
  140.9380   71.5732  224.6380 H   0  0  0  0  0  0  0  0  0  0  0  0
  138.0072   69.3404  221.6842 H   0  0  0  0  0  0  0  0  0  0  0  0
  137.2421   70.5093  219.6461 H   0  0  0  0  0  0  0  0  0  0  0  0
  137.5781   72.9464  219.3320 H   0  0  0  0  0  0  0  0  0  0  0  0
  139.3180   74.7940  223.1710 H   0  0  0  0  0  0  0  0  0  0  0  0
  137.5977   77.4845  222.6493 H   0  0  0  0  0  0  0  0  0  0  0  0
  138.2915   79.8683  222.7579 H   0  0  0  0  0  0  0  0  0  0  0  0
  141.7055   80.7379  219.6604 H   0  0  0  0  0  0  0  0  0  0  0  0
  139.9251   80.7545  219.8658 H   0  0  0  0  0  0  0  0  0  0  0  0
  141.7904   83.0035  219.0585 H   0  0  0  0  0  0  0  0  0  0  0  0
  140.2832   82.3496  218.2367 H   0  0  0  0  0  0  0  0  0  0  0  0
  137.9828   83.6427  220.3455 H   0  0  0  0  0  0  0  0  0  0  0  0
  138.3548   84.5416  218.8355 H   0  0  0  0  0  0  0  0  0  0  0  0
  138.3587   82.7454  218.8355 H   0  0  0  0  0  0  0  0  0  0  0  0
  140.4344   84.9579  221.3346 H   0  0  0  0  0  0  0  0  0  0  0  0
  139.3488   83.5857  221.7634 H   0  0  0  0  0  0  0  0  0  0  0  0
  142.3261   83.3160  221.0417 H   0  0  0  0  0  0  0  0  0  0  0  0
  141.7144   83.2764  222.6858 H   0  0  0  0  0  0  0  0  0  0  0  0
  142.3793   78.6291  222.0155 H   0  0  0  0  0  0  0  0  0  0  0  0
  141.6246   76.2969  221.9252 H   0  0  0  0  0  0  0  0  0  0  0  0
  139.4542   73.0747  223.1467 H   0  0  0  0  0  0  0  0  0  0  0  0
  1  2  1  0
  2  3  2  0
  3  4  1  0
  4  5  2  0
  5  6  1  0
  6  7  2  0
  6  8  1  0
  8  9  1  0
  9 10  1  0
 10 11  2  0
 11 12  1  0
 12 13  2  0
 13 14  1  0
 14 15  1  0
 15 16  2  0
 15 17  1  0
 17 18  1  0
 18 19  2  0
 19 20  1  0
 20 21  2  0
 21 22  1  0
 22 23  2  0
 22 24  1  0
 24 25  1  0
 25 26  1  0
 26 27  1  0
 27 28  1  0
 27 29  1  0
 29 30  1  0
 21 31  1  0
 31 32  2  0
 14 33  2  0
  9 34  2  0
  7  2  1  0
 33 10  1  0
 34  5  1  0
 32 18  1  0
 30 24  1  0
  1 35  1  0
  1 36  1  0
  1 37  1  0
  3 38  1  0
  4 39  1  0
  7 40  1  0
  8 41  1  0
  8 42  1  0
 11 43  1  0
 12 44  1  0
 13 45  1  0
 17 46  1  0
 19 47  1  0
 20 48  1  0
 25 49  1  0
 25 50  1  0
 26 51  1  0
 26 52  1  0
 28 53  1  0
 28 54  1  0
 28 55  1  0
 29 56  1  0
 29 57  1  0
 30 58  1  0
 30 59  1  0
 31 60  1  0
 32 61  1  0
 33 62  1  0
M  END
>  <smiles>  (21) 
Cc1ccc2c(c1)CC(c1cccc(C(=O)Nc3ccc(C(=O)N4CCN(C)CC4)cc3)c1)=N2

>  <score_type>  (21) 
oracle

>  <origin>  (21) 
autodockgpu

>  <m_score__min__energy>  (21) 
-8.8599999999999994

>  <m_primary>  (21) 
energy

>  <rmsd>  (21) 
8.669821153747641

>  <m_score__min__rmsd>  (21) 
8.669821153747641

>  <meeko>  (21) 
{"free_energy": -8.38, "intermolecular_energy": -9.57, "internal_energy": -1.01, "cluster_size": 39, "cluster_id": 1, "rank_in_cluster": 31}

>  <energy>  (21) 
-8.56

>  <cluster_rmsd>  (21) 
0.29

>  <cluster>  (21) 
1

$$$$

     RDKit          3D

 62 66  0  0  0  0  0  0  0  0999 V2000
  140.6220   68.1500  229.0650 C   0  0  0  0  0  0  0  0  0  0  0  0
  140.6330   69.1760  227.9920 C   0  0  0  0  0  0  0  0  0  0  0  0
  141.0350   70.4710  228.3140 C   0  0  0  0  0  0  0  0  0  0  0  0
  141.0740   71.4680  227.3740 C   0  0  0  0  0  0  0  0  0  0  0  0
  140.7040   71.1770  226.0710 C   0  0  0  0  0  0  0  0  0  0  0  0
  140.3010   69.9110  225.7100 C   0  0  0  0  0  0  0  0  0  0  0  0
  140.2630   68.8960  226.6780 C   0  0  0  0  0  0  0  0  0  0  0  0
  139.9750   69.9220  224.2430 C   0  0  0  0  0  0  0  0  0  0  0  0
  140.2570   71.3300  223.8780 C   0  0  0  0  0  0  0  0  0  0  0  0
  140.1530   71.9390  222.5450 C   0  0  0  0  0  0  0  0  0  0  0  0
  140.1430   71.1190  221.4290 C   0  0  0  0  0  0  0  0  0  0  0  0
  140.0860   71.7120  220.1850 C   0  0  0  0  0  0  0  0  0  0  0  0
  140.0390   73.0910  220.0080 C   0  0  0  0  0  0  0  0  0  0  0  0
  140.0490   73.8940  221.1240 C   0  0  0  0  0  0  0  0  0  0  0  0
  140.0630   75.3600  221.0610 C   0  0  0  0  0  0  0  0  0  0  0  0
  139.0850   75.9020  220.5000 O   0  0  0  0  0  0  0  0  0  0  0  0
  141.1400   76.1020  221.6240 N   0  0  0  0  0  0  0  0  0  0  0  0
  141.2450   77.5020  221.6260 C   0  0  0  0  0  0  0  0  0  0  0  0
  141.7430   78.2730  220.6060 C   0  0  0  0  0  0  0  0  0  0  0  0
  141.7520   79.6710  220.6460 C   0  0  0  0  0  0  0  0  0  0  0  0
  141.2340   80.3170  221.7750 C   0  0  0  0  0  0  0  0  0  0  0  0
  141.2230   81.7640  221.8250 C   0  0  0  0  0  0  0  0  0  0  0  0
  141.8300   82.2730  222.8330 O   0  0  0  0  0  0  0  0  0  0  0  0
  140.6430   82.6480  220.9220 N   0  0  0  0  0  0  0  0  0  0  0  0
  139.9050   82.2300  219.7180 C   0  0  0  0  0  0  0  0  0  0  0  0
  139.0860   83.4000  219.2120 C   0  0  0  0  0  0  0  0  0  0  0  0
  138.4240   84.1520  220.2270 N   0  0  0  0  0  0  0  0  0  0  0  0
  137.1120   83.7160  220.5810 C   0  0  0  0  0  0  0  0  0  0  0  0
  139.2580   84.4970  221.3670 C   0  0  0  0  0  0  0  0  0  0  0  0
  140.7060   84.1040  221.0960 C   0  0  0  0  0  0  0  0  0  0  0  0
  140.7240   79.5510  222.8270 C   0  0  0  0  0  0  0  0  0  0  0  0
  140.7390   78.1800  222.7310 C   0  0  0  0  0  0  0  0  0  0  0  0
  140.1050   73.2870  222.3420 C   0  0  0  0  0  0  0  0  0  0  0  0
  140.6560   72.0030  224.9020 N   0  0  0  0  0  0  0  0  0  0  0  0
  140.6273   68.6461  230.0468 H   0  0  0  0  0  0  0  0  0  0  0  0
  139.7172   67.5315  228.9716 H   0  0  0  0  0  0  0  0  0  0  0  0
  141.5134   67.5122  228.9716 H   0  0  0  0  0  0  0  0  0  0  0  0
  141.3286   70.6990  229.3493 H   0  0  0  0  0  0  0  0  0  0  0  0
  141.3942   72.4835  227.6500 H   0  0  0  0  0  0  0  0  0  0  0  0
  139.9418   67.8813  226.4002 H   0  0  0  0  0  0  0  0  0  0  0  0
  140.6196   69.2271  223.6847 H   0  0  0  0  0  0  0  0  0  0  0  0
  138.9485   69.6003  224.0133 H   0  0  0  0  0  0  0  0  0  0  0  0
  140.1795   70.0244  221.5319 H   0  0  0  0  0  0  0  0  0  0  0  0
  140.0773   71.0666  219.2943 H   0  0  0  0  0  0  0  0  0  0  0  0
  139.9949   73.5284  218.9996 H   0  0  0  0  0  0  0  0  0  0  0  0
  141.8980   75.5180  222.0680 H   0  0  0  0  0  0  0  0  0  0  0  0
  142.1530   77.7696  219.7181 H   0  0  0  0  0  0  0  0  0  0  0  0
  142.1587   80.2525  219.8055 H   0  0  0  0  0  0  0  0  0  0  0  0
  140.6160   81.9136  218.9406 H   0  0  0  0  0  0  0  0  0  0  0  0
  139.2402   81.3884  219.9624 H   0  0  0  0  0  0  0  0  0  0  0  0
  139.7593   84.0787  218.6679 H   0  0  0  0  0  0  0  0  0  0  0  0
  138.2948   82.9723  218.5787 H   0  0  0  0  0  0  0  0  0  0  0  0
  137.0190   83.6851  221.6766 H   0  0  0  0  0  0  0  0  0  0  0  0
  136.3696   84.4157  220.1696 H   0  0  0  0  0  0  0  0  0  0  0  0
  136.9361   82.7111  220.1696 H   0  0  0  0  0  0  0  0  0  0  0  0
  139.2024   85.5813  221.5434 H   0  0  0  0  0  0  0  0  0  0  0  0
  138.8979   83.9542  222.2534 H   0  0  0  0  0  0  0  0  0  0  0  0
  141.0813   84.5924  220.1846 H   0  0  0  0  0  0  0  0  0  0  0  0
  141.3891   84.4084  221.9027 H   0  0  0  0  0  0  0  0  0  0  0  0
  140.3146   80.0406  223.7230 H   0  0  0  0  0  0  0  0  0  0  0  0
  140.3321   77.5913  223.5664 H   0  0  0  0  0  0  0  0  0  0  0  0
  140.1121   73.9343  223.2313 H   0  0  0  0  0  0  0  0  0  0  0  0
  1  2  1  0
  2  3  2  0
  3  4  1  0
  4  5  2  0
  5  6  1  0
  6  7  2  0
  6  8  1  0
  8  9  1  0
  9 10  1  0
 10 11  2  0
 11 12  1  0
 12 13  2  0
 13 14  1  0
 14 15  1  0
 15 16  2  0
 15 17  1  0
 17 18  1  0
 18 19  2  0
 19 20  1  0
 20 21  2  0
 21 22  1  0
 22 23  2  0
 22 24  1  0
 24 25  1  0
 25 26  1  0
 26 27  1  0
 27 28  1  0
 27 29  1  0
 29 30  1  0
 21 31  1  0
 31 32  2  0
 14 33  2  0
  9 34  2  0
  7  2  1  0
 33 10  1  0
 34  5  1  0
 32 18  1  0
 30 24  1  0
  1 35  1  0
  1 36  1  0
  1 37  1  0
  3 38  1  0
  4 39  1  0
  7 40  1  0
  8 41  1  0
  8 42  1  0
 11 43  1  0
 12 44  1  0
 13 45  1  0
 17 46  1  0
 19 47  1  0
 20 48  1  0
 25 49  1  0
 25 50  1  0
 26 51  1  0
 26 52  1  0
 28 53  1  0
 28 54  1  0
 28 55  1  0
 29 56  1  0
 29 57  1  0
 30 58  1  0
 30 59  1  0
 31 60  1  0
 32 61  1  0
 33 62  1  0
M  END
>  <smiles>  (22) 
Cc1ccc2c(c1)CC(c1cccc(C(=O)Nc3ccc(C(=O)N4CCN(C)CC4)cc3)c1)=N2

>  <score_type>  (22) 
oracle

>  <origin>  (22) 
autodockgpu

>  <m_score__min__energy>  (22) 
-8.8599999999999994

>  <m_primary>  (22) 
energy

>  <rmsd>  (22) 
8.729344145338322

>  <m_score__min__rmsd>  (22) 
8.729344145338322

>  <meeko>  (22) 
{"free_energy": -8.86, "intermolecular_energy": -10.05, "internal_energy": -0.99, "cluster_size": 39, "cluster_id": 1, "rank_in_cluster": 1}

>  <energy>  (22) 
-8.56

>  <cluster_rmsd>  (22) 
1.08

>  <cluster>  (22) 
1

$$$$

     RDKit          3D

 62 66  0  0  0  0  0  0  0  0999 V2000
  143.6300   83.9450  215.8150 C   0  0  0  0  0  0  0  0  0  0  0  0
  142.9780   83.1790  216.9070 C   0  0  0  0  0  0  0  0  0  0  0  0
  142.1210   83.8550  217.7730 C   0  0  0  0  0  0  0  0  0  0  0  0
  141.4820   83.2110  218.8020 C   0  0  0  0  0  0  0  0  0  0  0  0
  141.6950   81.8550  218.9800 C   0  0  0  0  0  0  0  0  0  0  0  0
  142.5340   81.1480  218.1470 C   0  0  0  0  0  0  0  0  0  0  0  0
  143.1850   81.8150  217.0970 C   0  0  0  0  0  0  0  0  0  0  0  0
  142.5480   79.7160  218.5980 C   0  0  0  0  0  0  0  0  0  0  0  0
  141.6210   79.7500  219.7540 C   0  0  0  0  0  0  0  0  0  0  0  0
  141.2040   78.6170  220.5910 C   0  0  0  0  0  0  0  0  0  0  0  0
  140.3180   78.8390  221.6310 C   0  0  0  0  0  0  0  0  0  0  0  0
  139.9700   77.7690  222.4310 C   0  0  0  0  0  0  0  0  0  0  0  0
  140.4730   76.4870  222.2360 C   0  0  0  0  0  0  0  0  0  0  0  0
  141.3520   76.2800  221.1990 C   0  0  0  0  0  0  0  0  0  0  0  0
  141.9910   74.9860  220.9320 C   0  0  0  0  0  0  0  0  0  0  0  0
  141.3050   73.9680  221.1680 O   0  0  0  0  0  0  0  0  0  0  0  0
  143.3190   74.9240  220.4230 N   0  0  0  0  0  0  0  0  0  0  0  0
  144.0170   73.7430  220.1250 C   0  0  0  0  0  0  0  0  0  0  0  0
  145.3330   73.4900  220.4170 C   0  0  0  0  0  0  0  0  0  0  0  0
  145.9470   72.2610  220.1550 C   0  0  0  0  0  0  0  0  0  0  0  0
  145.1890   71.2400  219.5660 C   0  0  0  0  0  0  0  0  0  0  0  0
  145.8070   69.9570  219.3020 C   0  0  0  0  0  0  0  0  0  0  0  0
  147.0630   70.0040  219.0540 O   0  0  0  0  0  0  0  0  0  0  0  0
  145.2040   68.7040  219.2880 N   0  0  0  0  0  0  0  0  0  0  0  0
  143.7720   68.4750  219.5460 C   0  0  0  0  0  0  0  0  0  0  0  0
  143.4000   67.0900  219.0560 C   0  0  0  0  0  0  0  0  0  0  0  0
  143.9650   66.7280  217.7970 N   0  0  0  0  0  0  0  0  0  0  0  0
  143.1980   67.0640  216.6420 C   0  0  0  0  0  0  0  0  0  0  0  0
  145.3840   67.0110  217.6650 C   0  0  0  0  0  0  0  0  0  0  0  0
  145.9540   67.4750  219.0020 C   0  0  0  0  0  0  0  0  0  0  0  0
  143.8470   71.4770  219.2580 C   0  0  0  0  0  0  0  0  0  0  0  0
  143.2970   72.7040  219.5410 C   0  0  0  0  0  0  0  0  0  0  0  0
  141.6790   77.3500  220.4220 C   0  0  0  0  0  0  0  0  0  0  0  0
  141.1650   80.9400  219.9460 N   0  0  0  0  0  0  0  0  0  0  0  0
  144.2854   84.7150  216.2480 H   0  0  0  0  0  0  0  0  0  0  0  0
  144.2278   83.2616  215.1940 H   0  0  0  0  0  0  0  0  0  0  0  0
  142.8599   84.4259  215.1940 H   0  0  0  0  0  0  0  0  0  0  0  0
  141.9526   84.9323  217.6279 H   0  0  0  0  0  0  0  0  0  0  0  0
  140.8105   83.7639  219.4754 H   0  0  0  0  0  0  0  0  0  0  0  0
  143.8575   81.2611  216.4255 H   0  0  0  0  0  0  0  0  0  0  0  0
  142.1789   79.0445  217.8089 H   0  0  0  0  0  0  0  0  0  0  0  0
  143.5511   79.3374  218.8439 H   0  0  0  0  0  0  0  0  0  0  0  0
  139.9024   79.8407  221.8151 H   0  0  0  0  0  0  0  0  0  0  0  0
  139.2647   77.9376  223.2581 H   0  0  0  0  0  0  0  0  0  0  0  0
  140.1748   75.6586  222.8955 H   0  0  0  0  0  0  0  0  0  0  0  0
  143.7800   75.8600  220.2670 H   0  0  0  0  0  0  0  0  0  0  0  0
  145.9321   74.2892  220.8777 H   0  0  0  0  0  0  0  0  0  0  0  0
  147.0055   72.0988  220.4066 H   0  0  0  0  0  0  0  0  0  0  0  0
  143.5748   68.5500  220.6256 H   0  0  0  0  0  0  0  0  0  0  0  0
  143.1726   69.2307  219.0172 H   0  0  0  0  0  0  0  0  0  0  0  0
  143.7387   66.3596  219.8055 H   0  0  0  0  0  0  0  0  0  0  0  0
  142.3090   67.0944  218.9155 H   0  0  0  0  0  0  0  0  0  0  0  0
  142.2318   67.4873  216.9539 H   0  0  0  0  0  0  0  0  0  0  0  0
  143.7458   67.8046  216.0408 H   0  0  0  0  0  0  0  0  0  0  0  0
  143.0250   66.1592  216.0408 H   0  0  0  0  0  0  0  0  0  0  0  0
  145.9082   66.0991  217.3431 H   0  0  0  0  0  0  0  0  0  0  0  0
  145.5239   67.8071  216.9189 H   0  0  0  0  0  0  0  0  0  0  0  0
  145.7849   66.7204  219.7843 H   0  0  0  0  0  0  0  0  0  0  0  0
  147.0418   67.6351  218.9709 H   0  0  0  0  0  0  0  0  0  0  0  0
  143.2365   70.6888  218.7933 H   0  0  0  0  0  0  0  0  0  0  0  0
  142.2384   72.8734  219.2947 H   0  0  0  0  0  0  0  0  0  0  0  0
  142.3815   77.1785  219.5930 H   0  0  0  0  0  0  0  0  0  0  0  0
  1  2  1  0
  2  3  2  0
  3  4  1  0
  4  5  2  0
  5  6  1  0
  6  7  2  0
  6  8  1  0
  8  9  1  0
  9 10  1  0
 10 11  2  0
 11 12  1  0
 12 13  2  0
 13 14  1  0
 14 15  1  0
 15 16  2  0
 15 17  1  0
 17 18  1  0
 18 19  2  0
 19 20  1  0
 20 21  2  0
 21 22  1  0
 22 23  2  0
 22 24  1  0
 24 25  1  0
 25 26  1  0
 26 27  1  0
 27 28  1  0
 27 29  1  0
 29 30  1  0
 21 31  1  0
 31 32  2  0
 14 33  2  0
  9 34  2  0
  7  2  1  0
 33 10  1  0
 34  5  1  0
 32 18  1  0
 30 24  1  0
  1 35  1  0
  1 36  1  0
  1 37  1  0
  3 38  1  0
  4 39  1  0
  7 40  1  0
  8 41  1  0
  8 42  1  0
 11 43  1  0
 12 44  1  0
 13 45  1  0
 17 46  1  0
 19 47  1  0
 20 48  1  0
 25 49  1  0
 25 50  1  0
 26 51  1  0
 26 52  1  0
 28 53  1  0
 28 54  1  0
 28 55  1  0
 29 56  1  0
 29 57  1  0
 30 58  1  0
 30 59  1  0
 31 60  1  0
 32 61  1  0
 33 62  1  0
M  END
>  <smiles>  (23) 
Cc1ccc2c(c1)CC(c1cccc(C(=O)Nc3ccc(C(=O)N4CCN(C)CC4)cc3)c1)=N2

>  <score_type>  (23) 
oracle

>  <origin>  (23) 
autodockgpu

>  <m_score__min__energy>  (23) 
-8.8599999999999994

>  <m_primary>  (23) 
energy

>  <rmsd>  (23) 
6.635986011453932

>  <m_score__min__rmsd>  (23) 
6.635986011453932

>  <meeko>  (23) 
{"free_energy": -7.87, "intermolecular_energy": -9.07, "internal_energy": -0.85, "cluster_size": 1, "cluster_id": 5, "rank_in_cluster": 1}

>  <energy>  (23) 
-8.53

>  <cluster_rmsd>  (23) 
1.29

>  <cluster>  (23) 
1

$$$$

     RDKit          3D

 62 66  0  0  0  0  0  0  0  0999 V2000
  140.6890   68.1390  229.0510 C   0  0  0  0  0  0  0  0  0  0  0  0
  140.6720   69.1430  227.9580 C   0  0  0  0  0  0  0  0  0  0  0  0
  141.0780   70.4450  228.2440 C   0  0  0  0  0  0  0  0  0  0  0  0
  141.0910   71.4240  227.2830 C   0  0  0  0  0  0  0  0  0  0  0  0
  140.6900   71.1050  225.9960 C   0  0  0  0  0  0  0  0  0  0  0  0
  140.2820   69.8310  225.6700 C   0  0  0  0  0  0  0  0  0  0  0  0
  140.2710   68.8360  226.6600 C   0  0  0  0  0  0  0  0  0  0  0  0
  139.9200   69.8130  224.2120 C   0  0  0  0  0  0  0  0  0  0  0  0
  140.1890   71.2130  223.8120 C   0  0  0  0  0  0  0  0  0  0  0  0
  140.0510   71.7950  222.4700 C   0  0  0  0  0  0  0  0  0  0  0  0
  139.8790   70.9520  221.3850 C   0  0  0  0  0  0  0  0  0  0  0  0
  139.7910   71.5160  220.1290 C   0  0  0  0  0  0  0  0  0  0  0  0
  139.8700   72.8870  219.9100 C   0  0  0  0  0  0  0  0  0  0  0  0
  140.0410   73.7130  220.9960 C   0  0  0  0  0  0  0  0  0  0  0  0
  140.1970   75.1680  220.8830 C   0  0  0  0  0  0  0  0  0  0  0  0
  139.6780   75.7070  219.8820 O   0  0  0  0  0  0  0  0  0  0  0  0
  140.8980   75.9030  221.8810 N   0  0  0  0  0  0  0  0  0  0  0  0
  141.0950   77.2930  221.8740 C   0  0  0  0  0  0  0  0  0  0  0  0
  141.7320   78.0100  220.8940 C   0  0  0  0  0  0  0  0  0  0  0  0
  141.8300   79.4050  220.9160 C   0  0  0  0  0  0  0  0  0  0  0  0
  141.2560   80.1050  221.9840 C   0  0  0  0  0  0  0  0  0  0  0  0
  141.3370   81.5510  222.0140 C   0  0  0  0  0  0  0  0  0  0  0  0
  141.8430   82.0410  223.0850 O   0  0  0  0  0  0  0  0  0  0  0  0
  140.9370   82.4510  221.0330 N   0  0  0  0  0  0  0  0  0  0  0  0
  140.3320   82.0560  219.7480 C   0  0  0  0  0  0  0  0  0  0  0  0
  139.6650   83.2660  219.1260 C   0  0  0  0  0  0  0  0  0  0  0  0
  138.9310   84.0810  220.0390 N   0  0  0  0  0  0  0  0  0  0  0  0
  137.5590   83.7390  220.2260 C   0  0  0  0  0  0  0  0  0  0  0  0
  139.6350   84.3960  221.2720 C   0  0  0  0  0  0  0  0  0  0  0  0
  141.0760   83.9030  221.1940 C   0  0  0  0  0  0  0  0  0  0  0  0
  140.6040   79.3940  222.9950 C   0  0  0  0  0  0  0  0  0  0  0  0
  140.5380   78.0240  222.9190 C   0  0  0  0  0  0  0  0  0  0  0  0
  140.1230   73.1350  222.2270 C   0  0  0  0  0  0  0  0  0  0  0  0
  140.6120   71.9070  224.8120 N   0  0  0  0  0  0  0  0  0  0  0  0
  140.6803   68.6546  230.0226 H   0  0  0  0  0  0  0  0  0  0  0  0
  139.8016   67.4940  228.9702 H   0  0  0  0  0  0  0  0  0  0  0  0
  141.5977   67.5244  228.9702 H   0  0  0  0  0  0  0  0  0  0  0  0
  141.3964   70.6943  229.2670 H   0  0  0  0  0  0  0  0  0  0  0  0
  141.4146   72.4458  227.5305 H   0  0  0  0  0  0  0  0  0  0  0  0
  139.9461   67.8150  226.4110 H   0  0  0  0  0  0  0  0  0  0  0  0
  140.5522   69.1085  223.6517 H   0  0  0  0  0  0  0  0  0  0  0  0
  138.8887   69.4852  224.0146 H   0  0  0  0  0  0  0  0  0  0  0  0
  139.8143   69.8623  221.5208 H   0  0  0  0  0  0  0  0  0  0  0  0
  139.6523   70.8522  219.2629 H   0  0  0  0  0  0  0  0  0  0  0  0
  139.7975   73.3005  218.8933 H   0  0  0  0  0  0  0  0  0  0  0  0
  141.2830   75.3220  222.6730 H   0  0  0  0  0  0  0  0  0  0  0  0
  142.1858   77.4641  220.0537 H   0  0  0  0  0  0  0  0  0  0  0  0
  142.3488   79.9426  220.1086 H   0  0  0  0  0  0  0  0  0  0  0  0
  141.1137   81.6776  219.0728 H   0  0  0  0  0  0  0  0  0  0  0  0
  139.5864   81.2647  219.9151 H   0  0  0  0  0  0  0  0  0  0  0  0
  140.4463   83.8877  218.6645 H   0  0  0  0  0  0  0  0  0  0  0  0
  138.9341   82.8779  218.4013 H   0  0  0  0  0  0  0  0  0  0  0  0
  137.3382   83.6840  221.3022 H   0  0  0  0  0  0  0  0  0  0  0  0
  136.9231   84.5061  219.7600 H   0  0  0  0  0  0  0  0  0  0  0  0
  137.3576   82.7632  219.7600 H   0  0  0  0  0  0  0  0  0  0  0  0
  139.6310   85.4853  221.4250 H   0  0  0  0  0  0  0  0  0  0  0  0
  139.1293   83.8979  222.1124 H   0  0  0  0  0  0  0  0  0  0  0  0
  141.5961   84.3455  220.3317 H   0  0  0  0  0  0  0  0  0  0  0  0
  141.6703   84.1796  222.0773 H   0  0  0  0  0  0  0  0  0  0  0  0
  140.1482   79.9260  223.8431 H   0  0  0  0  0  0  0  0  0  0  0  0
  140.0204   77.4790  223.7222 H   0  0  0  0  0  0  0  0  0  0  0  0
  140.2578   73.8009  223.0921 H   0  0  0  0  0  0  0  0  0  0  0  0
  1  2  1  0
  2  3  2  0
  3  4  1  0
  4  5  2  0
  5  6  1  0
  6  7  2  0
  6  8  1  0
  8  9  1  0
  9 10  1  0
 10 11  2  0
 11 12  1  0
 12 13  2  0
 13 14  1  0
 14 15  1  0
 15 16  2  0
 15 17  1  0
 17 18  1  0
 18 19  2  0
 19 20  1  0
 20 21  2  0
 21 22  1  0
 22 23  2  0
 22 24  1  0
 24 25  1  0
 25 26  1  0
 26 27  1  0
 27 28  1  0
 27 29  1  0
 29 30  1  0
 21 31  1  0
 31 32  2  0
 14 33  2  0
  9 34  2  0
  7  2  1  0
 33 10  1  0
 34  5  1  0
 32 18  1  0
 30 24  1  0
  1 35  1  0
  1 36  1  0
  1 37  1  0
  3 38  1  0
  4 39  1  0
  7 40  1  0
  8 41  1  0
  8 42  1  0
 11 43  1  0
 12 44  1  0
 13 45  1  0
 17 46  1  0
 19 47  1  0
 20 48  1  0
 25 49  1  0
 25 50  1  0
 26 51  1  0
 26 52  1  0
 28 53  1  0
 28 54  1  0
 28 55  1  0
 29 56  1  0
 29 57  1  0
 30 58  1  0
 30 59  1  0
 31 60  1  0
 32 61  1  0
 33 62  1  0
M  END
>  <smiles>  (24) 
Cc1ccc2c(c1)CC(c1cccc(C(=O)Nc3ccc(C(=O)N4CCN(C)CC4)cc3)c1)=N2

>  <score_type>  (24) 
oracle

>  <origin>  (24) 
autodockgpu

>  <m_score__min__energy>  (24) 
-8.8599999999999994

>  <m_primary>  (24) 
energy

>  <rmsd>  (24) 
8.746407051350815

>  <m_score__min__rmsd>  (24) 
8.746407051350815

>  <meeko>  (24) 
{"free_energy": -8.58, "intermolecular_energy": -9.78, "internal_energy": -0.99, "cluster_size": 39, "cluster_id": 1, "rank_in_cluster": 20}

>  <energy>  (24) 
-8.51

>  <cluster_rmsd>  (24) 
1.24

>  <cluster>  (24) 
1

$$$$

     RDKit          3D

 62 66  0  0  0  0  0  0  0  0999 V2000
  141.4070   68.1510  228.8540 C   0  0  0  0  0  0  0  0  0  0  0  0
  140.7660   68.4390  227.5460 C   0  0  0  0  0  0  0  0  0  0  0  0
  140.1890   67.3840  226.8420 C   0  0  0  0  0  0  0  0  0  0  0  0
  139.5770   67.5760  225.6300 C   0  0  0  0  0  0  0  0  0  0  0  0
  139.5320   68.8530  225.0960 C   0  0  0  0  0  0  0  0  0  0  0  0
  140.0900   69.9240  225.7580 C   0  0  0  0  0  0  0  0  0  0  0  0
  140.7150   69.7190  226.9980 C   0  0  0  0  0  0  0  0  0  0  0  0
  139.8730   71.1560  224.9270 C   0  0  0  0  0  0  0  0  0  0  0  0
  139.1370   70.6130  223.7610 C   0  0  0  0  0  0  0  0  0  0  0  0
  138.6160   71.3650  222.6120 C   0  0  0  0  0  0  0  0  0  0  0  0
  137.8260   70.7110  221.6820 C   0  0  0  0  0  0  0  0  0  0  0  0
  137.3800   71.4240  220.5880 C   0  0  0  0  0  0  0  0  0  0  0  0
  137.6900   72.7650  220.3840 C   0  0  0  0  0  0  0  0  0  0  0  0
  138.4740   73.4030  221.3160 C   0  0  0  0  0  0  0  0  0  0  0  0
  138.9150   74.7960  221.1780 C   0  0  0  0  0  0  0  0  0  0  0  0
  138.7630   75.3190  220.0530 O   0  0  0  0  0  0  0  0  0  0  0  0
  139.4750   75.4940  222.2870 N   0  0  0  0  0  0  0  0  0  0  0  0
  139.9170   76.8260  222.2640 C   0  0  0  0  0  0  0  0  0  0  0  0
  141.1060   77.2700  221.7440 C   0  0  0  0  0  0  0  0  0  0  0  0
  141.4530   78.6240  221.6910 C   0  0  0  0  0  0  0  0  0  0  0  0
  140.5510   79.5720  222.1900 C   0  0  0  0  0  0  0  0  0  0  0  0
  140.8890   80.9790  222.1290 C   0  0  0  0  0  0  0  0  0  0  0  0
  141.4910   81.4340  223.1640 O   0  0  0  0  0  0  0  0  0  0  0  0
  140.6420   81.8740  221.0940 N   0  0  0  0  0  0  0  0  0  0  0  0
  139.9570   81.5160  219.8400 C   0  0  0  0  0  0  0  0  0  0  0  0
  139.5070   82.7860  219.1450 C   0  0  0  0  0  0  0  0  0  0  0  0
  138.9450   83.7740  220.0080 N   0  0  0  0  0  0  0  0  0  0  0  0
  137.5370   83.6950  220.2220 C   0  0  0  0  0  0  0  0  0  0  0  0
  139.7120   84.0320  221.2150 C   0  0  0  0  0  0  0  0  0  0  0  0
  141.0410   83.2850  221.1630 C   0  0  0  0  0  0  0  0  0  0  0  0
  139.3340   79.1410  222.7270 C   0  0  0  0  0  0  0  0  0  0  0  0
  139.0470   77.7970  222.7510 C   0  0  0  0  0  0  0  0  0  0  0  0
  138.9030   72.6790  222.3880 C   0  0  0  0  0  0  0  0  0  0  0  0
  138.9620   69.3410  223.8760 N   0  0  0  0  0  0  0  0  0  0  0  0
  140.7319   68.4543  229.6678 H   0  0  0  0  0  0  0  0  0  0  0  0
  141.6139   67.0734  228.9316 H   0  0  0  0  0  0  0  0  0  0  0  0
  142.3501   68.7119  228.9316 H   0  0  0  0  0  0  0  0  0  0  0  0
  140.2254   66.3711  227.2695 H   0  0  0  0  0  0  0  0  0  0  0  0
  139.1287   66.7288  225.0903 H   0  0  0  0  0  0  0  0  0  0  0  0
  141.1636   70.5671  227.5360 H   0  0  0  0  0  0  0  0  0  0  0  0
  139.2720   71.9022  225.4673 H   0  0  0  0  0  0  0  0  0  0  0  0
  140.8019   71.6815  224.6606 H   0  0  0  0  0  0  0  0  0  0  0  0
  137.5609   69.6513  221.8117 H   0  0  0  0  0  0  0  0  0  0  0  0
  136.7523   70.9100  219.8451 H   0  0  0  0  0  0  0  0  0  0  0  0
  137.3171   73.3014  219.4990 H   0  0  0  0  0  0  0  0  0  0  0  0
  139.5420   74.9320  223.1770 H   0  0  0  0  0  0  0  0  0  0  0  0
  141.8178   76.5289  221.3515 H   0  0  0  0  0  0  0  0  0  0  0  0
  142.4171   78.9386  221.2650 H   0  0  0  0  0  0  0  0  0  0  0  0
  140.6481   80.9629  219.1869 H   0  0  0  0  0  0  0  0  0  0  0  0
  139.0847   80.8830  220.0600 H   0  0  0  0  0  0  0  0  0  0  0  0
  140.3794   83.2279  218.6414 H   0  0  0  0  0  0  0  0  0  0  0  0
  138.7072   82.4915  218.4496 H   0  0  0  0  0  0  0  0  0  0  0  0
  137.3304   83.6834  221.3024 H   0  0  0  0  0  0  0  0  0  0  0  0
  137.0471   84.5671  219.7643 H   0  0  0  0  0  0  0  0  0  0  0  0
  137.1477   82.7736  219.7643 H   0  0  0  0  0  0  0  0  0  0  0  0
  139.9049   85.1117  221.2994 H   0  0  0  0  0  0  0  0  0  0  0  0
  139.1382   83.6843  222.0867 H   0  0  0  0  0  0  0  0  0  0  0  0
  141.6191   83.5736  220.2727 H   0  0  0  0  0  0  0  0  0  0  0  0
  141.6883   83.5043  222.0249 H   0  0  0  0  0  0  0  0  0  0  0  0
  138.6136   79.8701  223.1262 H   0  0  0  0  0  0  0  0  0  0  0  0
  138.0848   77.4738  223.1749 H   0  0  0  0  0  0  0  0  0  0  0  0
  139.5296   73.1949  223.1304 H   0  0  0  0  0  0  0  0  0  0  0  0
  1  2  1  0
  2  3  2  0
  3  4  1  0
  4  5  2  0
  5  6  1  0
  6  7  2  0
  6  8  1  0
  8  9  1  0
  9 10  1  0
 10 11  2  0
 11 12  1  0
 12 13  2  0
 13 14  1  0
 14 15  1  0
 15 16  2  0
 15 17  1  0
 17 18  1  0
 18 19  2  0
 19 20  1  0
 20 21  2  0
 21 22  1  0
 22 23  2  0
 22 24  1  0
 24 25  1  0
 25 26  1  0
 26 27  1  0
 27 28  1  0
 27 29  1  0
 29 30  1  0
 21 31  1  0
 31 32  2  0
 14 33  2  0
  9 34  2  0
  7  2  1  0
 33 10  1  0
 34  5  1  0
 32 18  1  0
 30 24  1  0
  1 35  1  0
  1 36  1  0
  1 37  1  0
  3 38  1  0
  4 39  1  0
  7 40  1  0
  8 41  1  0
  8 42  1  0
 11 43  1  0
 12 44  1  0
 13 45  1  0
 17 46  1  0
 19 47  1  0
 20 48  1  0
 25 49  1  0
 25 50  1  0
 26 51  1  0
 26 52  1  0
 28 53  1  0
 28 54  1  0
 28 55  1  0
 29 56  1  0
 29 57  1  0
 30 58  1  0
 30 59  1  0
 31 60  1  0
 32 61  1  0
 33 62  1  0
M  END
>  <smiles>  (25) 
Cc1ccc2c(c1)CC(c1cccc(C(=O)Nc3ccc(C(=O)N4CCN(C)CC4)cc3)c1)=N2

>  <score_type>  (25) 
oracle

>  <origin>  (25) 
autodockgpu

>  <m_score__min__energy>  (25) 
-8.8599999999999994

>  <m_primary>  (25) 
energy

>  <rmsd>  (25) 
8.527131128700955

>  <m_score__min__rmsd>  (25) 
8.527131128700955

>  <meeko>  (25) 
{"free_energy": -8.29, "intermolecular_energy": -9.49, "internal_energy": -1.02, "cluster_size": 39, "cluster_id": 1, "rank_in_cluster": 36}

>  <energy>  (25) 
-8.5

>  <cluster_rmsd>  (25) 
0.78

>  <cluster>  (25) 
1

$$$$

     RDKit          3D

 62 66  0  0  0  0  0  0  0  0999 V2000
  141.3650   68.1520  229.0870 C   0  0  0  0  0  0  0  0  0  0  0  0
  140.7970   68.4970  227.7590 C   0  0  0  0  0  0  0  0  0  0  0  0
  139.8780   67.6230  227.1820 C   0  0  0  0  0  0  0  0  0  0  0  0
  139.3100   67.8780  225.9600 C   0  0  0  0  0  0  0  0  0  0  0  0
  139.6620   69.0360  225.2860 C   0  0  0  0  0  0  0  0  0  0  0  0
  140.5660   69.9270  225.8200 C   0  0  0  0  0  0  0  0  0  0  0  0
  141.1430   69.6570  227.0710 C   0  0  0  0  0  0  0  0  0  0  0  0
  140.7270   71.0670  224.8560 C   0  0  0  0  0  0  0  0  0  0  0  0
  139.8050   70.6780  223.7630 C   0  0  0  0  0  0  0  0  0  0  0  0
  139.5080   71.4350  222.5400 C   0  0  0  0  0  0  0  0  0  0  0  0
  138.9380   70.7780  221.4630 C   0  0  0  0  0  0  0  0  0  0  0  0
  138.7050   71.4980  220.3090 C   0  0  0  0  0  0  0  0  0  0  0  0
  139.0180   72.8470  220.1860 C   0  0  0  0  0  0  0  0  0  0  0  0
  139.5840   73.4880  221.2620 C   0  0  0  0  0  0  0  0  0  0  0  0
  140.0110   74.8920  221.2300 C   0  0  0  0  0  0  0  0  0  0  0  0
  140.6520   75.2550  220.2210 O   0  0  0  0  0  0  0  0  0  0  0  0
  139.6890   75.7740  222.3010 N   0  0  0  0  0  0  0  0  0  0  0  0
  140.0400   77.1310  222.3640 C   0  0  0  0  0  0  0  0  0  0  0  0
  141.2410   77.6330  222.7980 C   0  0  0  0  0  0  0  0  0  0  0  0
  141.5500   78.9970  222.7680 C   0  0  0  0  0  0  0  0  0  0  0  0
  140.5940   79.8940  222.2750 C   0  0  0  0  0  0  0  0  0  0  0  0
  140.9040   81.3080  222.2230 C   0  0  0  0  0  0  0  0  0  0  0  0
  141.3950   81.7920  223.3040 O   0  0  0  0  0  0  0  0  0  0  0  0
  140.7360   82.1830  221.1550 N   0  0  0  0  0  0  0  0  0  0  0  0
  140.1820   81.7910  219.8480 C   0  0  0  0  0  0  0  0  0  0  0  0
  139.7720   83.0400  219.0930 C   0  0  0  0  0  0  0  0  0  0  0  0
  139.1080   84.0250  219.8820 N   0  0  0  0  0  0  0  0  0  0  0  0
  137.6880   83.9160  219.9630 C   0  0  0  0  0  0  0  0  0  0  0  0
  139.7500   84.3180  221.1530 C   0  0  0  0  0  0  0  0  0  0  0  0
  141.0950   83.6030  221.2400 C   0  0  0  0  0  0  0  0  0  0  0  0
  139.3630   79.4050  221.8300 C   0  0  0  0  0  0  0  0  0  0  0  0
  139.1160   78.0540  221.8830 C   0  0  0  0  0  0  0  0  0  0  0  0
  139.8040   72.7580  222.3920 C   0  0  0  0  0  0  0  0  0  0  0  0
  139.2300   69.5540  224.0220 N   0  0  0  0  0  0  0  0  0  0  0  0
  140.7126   68.5483  229.8790 H   0  0  0  0  0  0  0  0  0  0  0  0
  141.4353   67.0584  229.1828 H   0  0  0  0  0  0  0  0  0  0  0  0
  142.3678   68.5937  229.1828 H   0  0  0  0  0  0  0  0  0  0  0  0
  139.6009   66.7047  227.7205 H   0  0  0  0  0  0  0  0  0  0  0  0
  138.5866   67.1744  225.5222 H   0  0  0  0  0  0  0  0  0  0  0  0
  141.8673   70.3607  227.5070 H   0  0  0  0  0  0  0  0  0  0  0  0
  140.4261   72.0217  225.3120 H   0  0  0  0  0  0  0  0  0  0  0  0
  141.7642   71.2260  224.5261 H   0  0  0  0  0  0  0  0  0  0  0  0
  138.6779   69.7110  221.5254 H   0  0  0  0  0  0  0  0  0  0  0  0
  138.2521   70.9823  219.4494 H   0  0  0  0  0  0  0  0  0  0  0  0
  138.8174   73.3885  219.2497 H   0  0  0  0  0  0  0  0  0  0  0  0
  139.1410   75.3350  223.0890 H   0  0  0  0  0  0  0  0  0  0  0  0
  141.9942   76.9318  223.1867 H   0  0  0  0  0  0  0  0  0  0  0  0
  142.5257   79.3584  223.1250 H   0  0  0  0  0  0  0  0  0  0  0  0
  140.9444   81.2454  219.2726 H   0  0  0  0  0  0  0  0  0  0  0  0
  139.3072   81.1404  219.9944 H   0  0  0  0  0  0  0  0  0  0  0  0
  140.6784   83.4960  218.6681 H   0  0  0  0  0  0  0  0  0  0  0  0
  139.0496   82.7168  218.3290 H   0  0  0  0  0  0  0  0  0  0  0  0
  137.3817   83.8925  221.0192 H   0  0  0  0  0  0  0  0  0  0  0  0
  137.2249   84.7812  219.4661 H   0  0  0  0  0  0  0  0  0  0  0  0
  137.3624   82.9902  219.4661 H   0  0  0  0  0  0  0  0  0  0  0  0
  139.9089   85.4031  221.2384 H   0  0  0  0  0  0  0  0  0  0  0  0
  139.1034   83.9681  221.9713 H   0  0  0  0  0  0  0  0  0  0  0  0
  141.7492   83.8935  220.4048 H   0  0  0  0  0  0  0  0  0  0  0  0
  141.6519   83.8493  222.1561 H   0  0  0  0  0  0  0  0  0  0  0  0
  138.5992   80.0945  221.4411 H   0  0  0  0  0  0  0  0  0  0  0  0
  138.1423   77.6849  221.5286 H   0  0  0  0  0  0  0  0  0  0  0  0
  140.2552   73.2762  223.2510 H   0  0  0  0  0  0  0  0  0  0  0  0
  1  2  1  0
  2  3  2  0
  3  4  1  0
  4  5  2  0
  5  6  1  0
  6  7  2  0
  6  8  1  0
  8  9  1  0
  9 10  1  0
 10 11  2  0
 11 12  1  0
 12 13  2  0
 13 14  1  0
 14 15  1  0
 15 16  2  0
 15 17  1  0
 17 18  1  0
 18 19  2  0
 19 20  1  0
 20 21  2  0
 21 22  1  0
 22 23  2  0
 22 24  1  0
 24 25  1  0
 25 26  1  0
 26 27  1  0
 27 28  1  0
 27 29  1  0
 29 30  1  0
 21 31  1  0
 31 32  2  0
 14 33  2  0
  9 34  2  0
  7  2  1  0
 33 10  1  0
 34  5  1  0
 32 18  1  0
 30 24  1  0
  1 35  1  0
  1 36  1  0
  1 37  1  0
  3 38  1  0
  4 39  1  0
  7 40  1  0
  8 41  1  0
  8 42  1  0
 11 43  1  0
 12 44  1  0
 13 45  1  0
 17 46  1  0
 19 47  1  0
 20 48  1  0
 25 49  1  0
 25 50  1  0
 26 51  1  0
 26 52  1  0
 28 53  1  0
 28 54  1  0
 28 55  1  0
 29 56  1  0
 29 57  1  0
 30 58  1  0
 30 59  1  0
 31 60  1  0
 32 61  1  0
 33 62  1  0
M  END
>  <smiles>  (26) 
Cc1ccc2c(c1)CC(c1cccc(C(=O)Nc3ccc(C(=O)N4CCN(C)CC4)cc3)c1)=N2

>  <score_type>  (26) 
oracle

>  <origin>  (26) 
autodockgpu

>  <m_score__min__energy>  (26) 
-8.8599999999999994

>  <m_primary>  (26) 
energy

>  <rmsd>  (26) 
8.683308866022156

>  <m_score__min__rmsd>  (26) 
8.683308866022156

>  <meeko>  (26) 
{"free_energy": -8.51, "intermolecular_energy": -9.71, "internal_energy": -0.98, "cluster_size": 39, "cluster_id": 1, "rank_in_cluster": 24}

>  <energy>  (26) 
-8.49

>  <cluster_rmsd>  (26) 
1.17

>  <cluster>  (26) 
1

$$$$

     RDKit          3D

 62 66  0  0  0  0  0  0  0  0999 V2000
  140.5190   68.1370  229.0760 C   0  0  0  0  0  0  0  0  0  0  0  0
  140.5700   69.1410  227.9840 C   0  0  0  0  0  0  0  0  0  0  0  0
  141.0190   70.4260  228.2820 C   0  0  0  0  0  0  0  0  0  0  0  0
  141.0960   71.4040  227.3230 C   0  0  0  0  0  0  0  0  0  0  0  0
  140.7180   71.1010  226.0250 C   0  0  0  0  0  0  0  0  0  0  0  0
  140.2690   69.8440  225.6870 C   0  0  0  0  0  0  0  0  0  0  0  0
  140.1920   68.8500  226.6750 C   0  0  0  0  0  0  0  0  0  0  0  0
  139.9450   69.8390  224.2200 C   0  0  0  0  0  0  0  0  0  0  0  0
  140.2800   71.2290  223.8280 C   0  0  0  0  0  0  0  0  0  0  0  0
  140.2000   71.8150  222.4840 C   0  0  0  0  0  0  0  0  0  0  0  0
  140.1690   70.9760  221.3840 C   0  0  0  0  0  0  0  0  0  0  0  0
  140.1350   71.5470  220.1280 C   0  0  0  0  0  0  0  0  0  0  0  0
  140.1320   72.9230  219.9250 C   0  0  0  0  0  0  0  0  0  0  0  0
  140.1630   73.7460  221.0260 C   0  0  0  0  0  0  0  0  0  0  0  0
  140.2230   75.2090  220.9360 C   0  0  0  0  0  0  0  0  0  0  0  0
  139.4800   75.7440  220.0840 O   0  0  0  0  0  0  0  0  0  0  0  0
  141.0820   75.9560  221.7910 N   0  0  0  0  0  0  0  0  0  0  0  0
  141.2060   77.3540  221.7930 C   0  0  0  0  0  0  0  0  0  0  0  0
  141.7770   78.1120  220.8020 C   0  0  0  0  0  0  0  0  0  0  0  0
  141.8040   79.5100  220.8360 C   0  0  0  0  0  0  0  0  0  0  0  0
  141.2260   80.1700  221.9280 C   0  0  0  0  0  0  0  0  0  0  0  0
  141.2330   81.6180  221.9700 C   0  0  0  0  0  0  0  0  0  0  0  0
  141.8400   82.1240  222.9790 O   0  0  0  0  0  0  0  0  0  0  0  0
  140.6710   82.5040  221.0580 N   0  0  0  0  0  0  0  0  0  0  0  0
  139.9370   82.0880  219.8500 C   0  0  0  0  0  0  0  0  0  0  0  0
  139.1360   83.2660  219.3320 C   0  0  0  0  0  0  0  0  0  0  0  0
  138.4770   84.0310  220.3380 N   0  0  0  0  0  0  0  0  0  0  0  0
  137.1570   83.6130  220.6840 C   0  0  0  0  0  0  0  0  0  0  0  0
  139.3060   84.3720  221.4820 C   0  0  0  0  0  0  0  0  0  0  0  0
  140.7520   83.9590  221.2240 C   0  0  0  0  0  0  0  0  0  0  0  0
  140.6420   79.4170  222.9500 C   0  0  0  0  0  0  0  0  0  0  0  0
  140.6440   78.0460  222.8610 C   0  0  0  0  0  0  0  0  0  0  0  0
  140.1950   73.1600  222.2560 C   0  0  0  0  0  0  0  0  0  0  0  0
  140.7020   71.9060  224.8410 N   0  0  0  0  0  0  0  0  0  0  0  0
  140.5451   68.6510  230.0482 H   0  0  0  0  0  0  0  0  0  0  0  0
  139.5900   67.5535  228.9946 H   0  0  0  0  0  0  0  0  0  0  0  0
  141.3840   67.4624  228.9946 H   0  0  0  0  0  0  0  0  0  0  0  0
  141.3196   70.6625  229.3134 H   0  0  0  0  0  0  0  0  0  0  0  0
  141.4521   72.4124  227.5805 H   0  0  0  0  0  0  0  0  0  0  0  0
  139.8337   67.8427  226.4162 H   0  0  0  0  0  0  0  0  0  0  0  0
  140.5635   69.1098  223.6762 H   0  0  0  0  0  0  0  0  0  0  0  0
  138.9073   69.5516  223.9950 H   0  0  0  0  0  0  0  0  0  0  0  0
  140.1714   69.8829  221.5074 H   0  0  0  0  0  0  0  0  0  0  0  0
  140.1091   70.8854  219.2496 H   0  0  0  0  0  0  0  0  0  0  0  0
  140.1055   73.3425  218.9085 H   0  0  0  0  0  0  0  0  0  0  0  0
  141.6510   75.3770  222.4650 H   0  0  0  0  0  0  0  0  0  0  0  0
  142.2334   77.5978  219.9434 H   0  0  0  0  0  0  0  0  0  0  0  0
  142.2708   80.0810  220.0198 H   0  0  0  0  0  0  0  0  0  0  0  0
  140.6500   81.7590  219.0797 H   0  0  0  0  0  0  0  0  0  0  0  0
  139.2605   81.2555  220.0933 H   0  0  0  0  0  0  0  0  0  0  0  0
  139.8215   83.9334  218.7891 H   0  0  0  0  0  0  0  0  0  0  0  0
  138.3439   82.8451  218.6953 H   0  0  0  0  0  0  0  0  0  0  0  0
  137.0576   83.5815  221.7791 H   0  0  0  0  0  0  0  0  0  0  0  0
  136.4269   84.3239  220.2698 H   0  0  0  0  0  0  0  0  0  0  0  0
  136.9692   82.6114  220.2698 H   0  0  0  0  0  0  0  0  0  0  0  0
  139.2627   85.4580  221.6518 H   0  0  0  0  0  0  0  0  0  0  0  0
  138.9323   83.8391  222.3688 H   0  0  0  0  0  0  0  0  0  0  0  0
  141.1403   84.4372  220.3127 H   0  0  0  0  0  0  0  0  0  0  0  0
  141.4332   84.2594  222.0338 H   0  0  0  0  0  0  0  0  0  0  0  0
  140.1853   79.9168  223.8170 H   0  0  0  0  0  0  0  0  0  0  0  0
  140.1790   77.4678  223.6731 H   0  0  0  0  0  0  0  0  0  0  0  0
  140.2187   73.8232  223.1333 H   0  0  0  0  0  0  0  0  0  0  0  0
  1  2  1  0
  2  3  2  0
  3  4  1  0
  4  5  2  0
  5  6  1  0
  6  7  2  0
  6  8  1  0
  8  9  1  0
  9 10  1  0
 10 11  2  0
 11 12  1  0
 12 13  2  0
 13 14  1  0
 14 15  1  0
 15 16  2  0
 15 17  1  0
 17 18  1  0
 18 19  2  0
 19 20  1  0
 20 21  2  0
 21 22  1  0
 22 23  2  0
 22 24  1  0
 24 25  1  0
 25 26  1  0
 26 27  1  0
 27 28  1  0
 27 29  1  0
 29 30  1  0
 21 31  1  0
 31 32  2  0
 14 33  2  0
  9 34  2  0
  7  2  1  0
 33 10  1  0
 34  5  1  0
 32 18  1  0
 30 24  1  0
  1 35  1  0
  1 36  1  0
  1 37  1  0
  3 38  1  0
  4 39  1  0
  7 40  1  0
  8 41  1  0
  8 42  1  0
 11 43  1  0
 12 44  1  0
 13 45  1  0
 17 46  1  0
 19 47  1  0
 20 48  1  0
 25 49  1  0
 25 50  1  0
 26 51  1  0
 26 52  1  0
 28 53  1  0
 28 54  1  0
 28 55  1  0
 29 56  1  0
 29 57  1  0
 30 58  1  0
 30 59  1  0
 31 60  1  0
 32 61  1  0
 33 62  1  0
M  END
>  <smiles>  (27) 
Cc1ccc2c(c1)CC(c1cccc(C(=O)Nc3ccc(C(=O)N4CCN(C)CC4)cc3)c1)=N2

>  <score_type>  (27) 
oracle

>  <origin>  (27) 
autodockgpu

>  <m_score__min__energy>  (27) 
-8.8599999999999994

>  <m_primary>  (27) 
energy

>  <rmsd>  (27) 
8.716808503473683

>  <m_score__min__rmsd>  (27) 
8.716808503473683

>  <meeko>  (27) 
{"free_energy": -8.68, "intermolecular_energy": -9.87, "internal_energy": -1.0, "cluster_size": 39, "cluster_id": 1, "rank_in_cluster": 15}

>  <energy>  (27) 
-8.44

>  <cluster_rmsd>  (27) 
0.83

>  <cluster>  (27) 
1

$$$$

     RDKit          3D

 62 66  0  0  0  0  0  0  0  0999 V2000
  141.5120   68.2160  229.0750 C   0  0  0  0  0  0  0  0  0  0  0  0
  140.8920   68.4540  227.7470 C   0  0  0  0  0  0  0  0  0  0  0  0
  140.1020   67.4500  227.1930 C   0  0  0  0  0  0  0  0  0  0  0  0
  139.4950   67.6010  225.9720 C   0  0  0  0  0  0  0  0  0  0  0  0
  139.6750   68.7850  225.2760 C   0  0  0  0  0  0  0  0  0  0  0  0
  140.4480   69.8040  225.7880 C   0  0  0  0  0  0  0  0  0  0  0  0
  141.0650   69.6400  227.0370 C   0  0  0  0  0  0  0  0  0  0  0  0
  140.4390   70.9390  224.8040 C   0  0  0  0  0  0  0  0  0  0  0  0
  139.5740   70.4050  223.7270 C   0  0  0  0  0  0  0  0  0  0  0  0
  139.1650   71.0920  222.4950 C   0  0  0  0  0  0  0  0  0  0  0  0
  138.5770   70.3580  221.4790 C   0  0  0  0  0  0  0  0  0  0  0  0
  138.2360   71.0140  220.3130 C   0  0  0  0  0  0  0  0  0  0  0  0
  138.4610   72.3730  220.1200 C   0  0  0  0  0  0  0  0  0  0  0  0
  139.0450   73.0910  221.1370 C   0  0  0  0  0  0  0  0  0  0  0  0
  139.3840   74.5140  221.0260 C   0  0  0  0  0  0  0  0  0  0  0  0
  139.6830   74.9270  219.8850 O   0  0  0  0  0  0  0  0  0  0  0  0
  139.3560   75.3590  222.1720 N   0  0  0  0  0  0  0  0  0  0  0  0
  139.6520   76.7310  222.1730 C   0  0  0  0  0  0  0  0  0  0  0  0
  138.7430   77.7510  222.0410 C   0  0  0  0  0  0  0  0  0  0  0  0
  139.0990   79.1010  222.1220 C   0  0  0  0  0  0  0  0  0  0  0  0
  140.4410   79.4320  222.3460 C   0  0  0  0  0  0  0  0  0  0  0  0
  140.8230   80.8260  222.4470 C   0  0  0  0  0  0  0  0  0  0  0  0
  140.9540   81.2630  223.6450 O   0  0  0  0  0  0  0  0  0  0  0  0
  141.0620   81.7250  221.4140 N   0  0  0  0  0  0  0  0  0  0  0  0
  140.9510   81.3870  219.9840 C   0  0  0  0  0  0  0  0  0  0  0  0
  140.8770   82.6690  219.1800 C   0  0  0  0  0  0  0  0  0  0  0  0
  140.0410   83.6810  219.7410 N   0  0  0  0  0  0  0  0  0  0  0  0
  138.6700   83.6550  219.3470 C   0  0  0  0  0  0  0  0  0  0  0  0
  140.2420   83.9160  221.1610 C   0  0  0  0  0  0  0  0  0  0  0  0
  141.4440   83.1200  221.6600 C   0  0  0  0  0  0  0  0  0  0  0  0
  141.3840   78.4100  222.4810 C   0  0  0  0  0  0  0  0  0  0  0  0
  140.9750   77.1010  222.3930 C   0  0  0  0  0  0  0  0  0  0  0  0
  139.3710   72.4230  222.2790 C   0  0  0  0  0  0  0  0  0  0  0  0
  139.1660   69.2150  224.0090 N   0  0  0  0  0  0  0  0  0  0  0  0
  140.7991   68.4896  229.8668 H   0  0  0  0  0  0  0  0  0  0  0  0
  141.7762   67.1525  229.1710 H   0  0  0  0  0  0  0  0  0  0  0  0
  142.4200   68.8295  229.1710 H   0  0  0  0  0  0  0  0  0  0  0  0
  139.9610   66.5113  227.7489 H   0  0  0  0  0  0  0  0  0  0  0  0
  138.8753   66.7948  225.5525 H   0  0  0  0  0  0  0  0  0  0  0  0
  141.6847   70.4469  227.4553 H   0  0  0  0  0  0  0  0  0  0  0  0
  140.0093   71.8493  225.2476 H   0  0  0  0  0  0  0  0  0  0  0  0
  141.4408   71.2375  224.4616 H   0  0  0  0  0  0  0  0  0  0  0  0
  138.3866   69.2811  221.5976 H   0  0  0  0  0  0  0  0  0  0  0  0
  137.7665   70.4375  219.5023 H   0  0  0  0  0  0  0  0  0  0  0  0
  138.1784   72.8619  219.1760 H   0  0  0  0  0  0  0  0  0  0  0  0
  139.0840   74.8790  223.0710 H   0  0  0  0  0  0  0  0  0  0  0  0
  137.6879   77.4953  221.8637 H   0  0  0  0  0  0  0  0  0  0  0  0
  138.3388   79.8883  222.0118 H   0  0  0  0  0  0  0  0  0  0  0  0
  141.8318   80.8064  219.6725 H   0  0  0  0  0  0  0  0  0  0  0  0
  140.0450   80.7872  219.8125 H   0  0  0  0  0  0  0  0  0  0  0  0
  141.8949   83.0765  219.0915 H   0  0  0  0  0  0  0  0  0  0  0  0
  140.4305   82.4010  218.2111 H   0  0  0  0  0  0  0  0  0  0  0  0
  138.0313   83.6429  220.2425 H   0  0  0  0  0  0  0  0  0  0  0  0
  138.4438   84.5490  218.7474 H   0  0  0  0  0  0  0  0  0  0  0  0
  138.4779   82.7530  218.7474 H   0  0  0  0  0  0  0  0  0  0  0  0
  140.4201   84.9882  221.3305 H   0  0  0  0  0  0  0  0  0  0  0  0
  139.3445   83.5939  221.7094 H   0  0  0  0  0  0  0  0  0  0  0  0
  142.3509   83.3839  221.0962 H   0  0  0  0  0  0  0  0  0  0  0  0
  141.6786   83.3184  222.7162 H   0  0  0  0  0  0  0  0  0  0  0  0
  142.4430   78.6507  222.6559 H   0  0  0  0  0  0  0  0  0  0  0  0
  141.7296   76.3080  222.5017 H   0  0  0  0  0  0  0  0  0  0  0  0
  139.8366   73.0022  223.0900 H   0  0  0  0  0  0  0  0  0  0  0  0
  1  2  1  0
  2  3  2  0
  3  4  1  0
  4  5  2  0
  5  6  1  0
  6  7  2  0
  6  8  1  0
  8  9  1  0
  9 10  1  0
 10 11  2  0
 11 12  1  0
 12 13  2  0
 13 14  1  0
 14 15  1  0
 15 16  2  0
 15 17  1  0
 17 18  1  0
 18 19  2  0
 19 20  1  0
 20 21  2  0
 21 22  1  0
 22 23  2  0
 22 24  1  0
 24 25  1  0
 25 26  1  0
 26 27  1  0
 27 28  1  0
 27 29  1  0
 29 30  1  0
 21 31  1  0
 31 32  2  0
 14 33  2  0
  9 34  2  0
  7  2  1  0
 33 10  1  0
 34  5  1  0
 32 18  1  0
 30 24  1  0
  1 35  1  0
  1 36  1  0
  1 37  1  0
  3 38  1  0
  4 39  1  0
  7 40  1  0
  8 41  1  0
  8 42  1  0
 11 43  1  0
 12 44  1  0
 13 45  1  0
 17 46  1  0
 19 47  1  0
 20 48  1  0
 25 49  1  0
 25 50  1  0
 26 51  1  0
 26 52  1  0
 28 53  1  0
 28 54  1  0
 28 55  1  0
 29 56  1  0
 29 57  1  0
 30 58  1  0
 30 59  1  0
 31 60  1  0
 32 61  1  0
 33 62  1  0
M  END
>  <smiles>  (28) 
Cc1ccc2c(c1)CC(c1cccc(C(=O)Nc3ccc(C(=O)N4CCN(C)CC4)cc3)c1)=N2

>  <score_type>  (28) 
oracle

>  <origin>  (28) 
autodockgpu

>  <m_score__min__energy>  (28) 
-8.8599999999999994

>  <m_primary>  (28) 
energy

>  <rmsd>  (28) 
8.675114606382685

>  <m_score__min__rmsd>  (28) 
8.675114606382685

>  <meeko>  (28) 
{"free_energy": -8.34, "intermolecular_energy": -9.53, "internal_energy": -1.01, "cluster_size": 39, "cluster_id": 1, "rank_in_cluster": 34}

>  <energy>  (28) 
-8.43

>  <cluster_rmsd>  (28) 
1.16

>  <cluster>  (28) 
1

$$$$

     RDKit          3D

 62 66  0  0  0  0  0  0  0  0999 V2000
  140.6800   68.1360  229.0980 C   0  0  0  0  0  0  0  0  0  0  0  0
  140.6620   69.1500  228.0150 C   0  0  0  0  0  0  0  0  0  0  0  0
  141.0570   70.4520  228.3170 C   0  0  0  0  0  0  0  0  0  0  0  0
  141.0690   71.4400  227.3660 C   0  0  0  0  0  0  0  0  0  0  0  0
  140.6800   71.1320  226.0730 C   0  0  0  0  0  0  0  0  0  0  0  0
  140.2840   69.8580  225.7310 C   0  0  0  0  0  0  0  0  0  0  0  0
  140.2730   68.8530  226.7110 C   0  0  0  0  0  0  0  0  0  0  0  0
  139.9330   69.8510  224.2710 C   0  0  0  0  0  0  0  0  0  0  0  0
  140.1940   71.2580  223.8860 C   0  0  0  0  0  0  0  0  0  0  0  0
  140.0620   71.8520  222.5490 C   0  0  0  0  0  0  0  0  0  0  0  0
  139.9900   71.0190  221.4460 C   0  0  0  0  0  0  0  0  0  0  0  0
  139.9060   71.5970  220.1960 C   0  0  0  0  0  0  0  0  0  0  0  0
  139.8920   72.9740  220.0020 C   0  0  0  0  0  0  0  0  0  0  0  0
  139.9640   73.7910  221.1050 C   0  0  0  0  0  0  0  0  0  0  0  0
  140.0170   75.2550  221.0210 C   0  0  0  0  0  0  0  0  0  0  0  0
  139.1280   75.8050  220.3350 O   0  0  0  0  0  0  0  0  0  0  0  0
  141.0320   75.9850  221.7020 N   0  0  0  0  0  0  0  0  0  0  0  0
  141.1660   77.3830  221.6940 C   0  0  0  0  0  0  0  0  0  0  0  0
  141.3350   78.1690  220.5830 C   0  0  0  0  0  0  0  0  0  0  0  0
  141.3900   79.5650  220.6420 C   0  0  0  0  0  0  0  0  0  0  0  0
  141.2710   80.1930  221.8880 C   0  0  0  0  0  0  0  0  0  0  0  0
  141.3110   81.6390  221.9630 C   0  0  0  0  0  0  0  0  0  0  0  0
  141.7810   82.1090  223.0600 O   0  0  0  0  0  0  0  0  0  0  0  0
  140.9100   82.5590  221.0010 N   0  0  0  0  0  0  0  0  0  0  0  0
  140.3450   82.1880  219.6910 C   0  0  0  0  0  0  0  0  0  0  0  0
  139.6590   83.3990  219.0910 C   0  0  0  0  0  0  0  0  0  0  0  0
  138.8840   84.1660  220.0110 N   0  0  0  0  0  0  0  0  0  0  0  0
  137.5170   83.7820  220.1560 C   0  0  0  0  0  0  0  0  0  0  0  0
  139.5510   84.4600  221.2690 C   0  0  0  0  0  0  0  0  0  0  0  0
  141.0060   84.0080  221.2100 C   0  0  0  0  0  0  0  0  0  0  0  0
  141.1000   79.4110  223.0340 C   0  0  0  0  0  0  0  0  0  0  0  0
  141.0510   78.0440  222.9140 C   0  0  0  0  0  0  0  0  0  0  0  0
  140.0440   73.1980  222.3290 C   0  0  0  0  0  0  0  0  0  0  0  0
  140.6040   71.9450  224.8970 N   0  0  0  0  0  0  0  0  0  0  0  0
  140.6710   68.6423  230.0745 H   0  0  0  0  0  0  0  0  0  0  0  0
  139.7931   67.4910  229.0112 H   0  0  0  0  0  0  0  0  0  0  0  0
  141.5892   67.5229  229.0112 H   0  0  0  0  0  0  0  0  0  0  0  0
  141.3671   70.6933  229.3444 H   0  0  0  0  0  0  0  0  0  0  0  0
  141.3828   72.4617  227.6262 H   0  0  0  0  0  0  0  0  0  0  0  0
  139.9575   67.8322  226.4494 H   0  0  0  0  0  0  0  0  0  0  0  0
  140.5749   69.1569  223.7087 H   0  0  0  0  0  0  0  0  0  0  0  0
  138.9058   69.5169  224.0628 H   0  0  0  0  0  0  0  0  0  0  0  0
  139.9995   69.9253  221.5629 H   0  0  0  0  0  0  0  0  0  0  0  0
  139.8476   70.9406  219.3153 H   0  0  0  0  0  0  0  0  0  0  0  0
  139.8249   73.3993  218.9898 H   0  0  0  0  0  0  0  0  0  0  0  0
  141.7160   75.3950  222.2460 H   0  0  0  0  0  0  0  0  0  0  0  0
  141.4315   77.6799  219.6025 H   0  0  0  0  0  0  0  0  0  0  0  0
  141.5243   80.1592  219.7261 H   0  0  0  0  0  0  0  0  0  0  0  0
  141.1516   81.8519  219.0229 H   0  0  0  0  0  0  0  0  0  0  0  0
  139.6180   81.3721  219.8164 H   0  0  0  0  0  0  0  0  0  0  0  0
  140.4331   84.0549  218.6660 H   0  0  0  0  0  0  0  0  0  0  0  0
  138.9544   83.0142  218.3390 H   0  0  0  0  0  0  0  0  0  0  0  0
  137.2673   83.7118  221.2250 H   0  0  0  0  0  0  0  0  0  0  0  0
  136.8722   84.5338  219.6774 H   0  0  0  0  0  0  0  0  0  0  0  0
  137.3580   82.8044  219.6774 H   0  0  0  0  0  0  0  0  0  0  0  0
  139.5141   85.5434  221.4556 H   0  0  0  0  0  0  0  0  0  0  0  0
  139.0400   83.9221  222.0812 H   0  0  0  0  0  0  0  0  0  0  0  0
  141.5336   84.4911  220.3743 H   0  0  0  0  0  0  0  0  0  0  0  0
  141.5723   84.2723  222.1153 H   0  0  0  0  0  0  0  0  0  0  0  0
  141.0057   79.8858  224.0217 H   0  0  0  0  0  0  0  0  0  0  0  0
  140.9144   77.4426  223.8249 H   0  0  0  0  0  0  0  0  0  0  0  0
  140.0983   73.8562  223.2086 H   0  0  0  0  0  0  0  0  0  0  0  0
  1  2  1  0
  2  3  2  0
  3  4  1  0
  4  5  2  0
  5  6  1  0
  6  7  2  0
  6  8  1  0
  8  9  1  0
  9 10  1  0
 10 11  2  0
 11 12  1  0
 12 13  2  0
 13 14  1  0
 14 15  1  0
 15 16  2  0
 15 17  1  0
 17 18  1  0
 18 19  2  0
 19 20  1  0
 20 21  2  0
 21 22  1  0
 22 23  2  0
 22 24  1  0
 24 25  1  0
 25 26  1  0
 26 27  1  0
 27 28  1  0
 27 29  1  0
 29 30  1  0
 21 31  1  0
 31 32  2  0
 14 33  2  0
  9 34  2  0
  7  2  1  0
 33 10  1  0
 34  5  1  0
 32 18  1  0
 30 24  1  0
  1 35  1  0
  1 36  1  0
  1 37  1  0
  3 38  1  0
  4 39  1  0
  7 40  1  0
  8 41  1  0
  8 42  1  0
 11 43  1  0
 12 44  1  0
 13 45  1  0
 17 46  1  0
 19 47  1  0
 20 48  1  0
 25 49  1  0
 25 50  1  0
 26 51  1  0
 26 52  1  0
 28 53  1  0
 28 54  1  0
 28 55  1  0
 29 56  1  0
 29 57  1  0
 30 58  1  0
 30 59  1  0
 31 60  1  0
 32 61  1  0
 33 62  1  0
M  END
>  <smiles>  (29) 
Cc1ccc2c(c1)CC(c1cccc(C(=O)Nc3ccc(C(=O)N4CCN(C)CC4)cc3)c1)=N2

>  <score_type>  (29) 
oracle

>  <origin>  (29) 
autodockgpu

>  <m_score__min__energy>  (29) 
-8.8599999999999994

>  <m_primary>  (29) 
energy

>  <rmsd>  (29) 
8.76050096371453

>  <m_score__min__rmsd>  (29) 
8.76050096371453

>  <meeko>  (29) 
{"free_energy": -8.84, "intermolecular_energy": -10.04, "internal_energy": -0.85, "cluster_size": 39, "cluster_id": 1, "rank_in_cluster": 5}

>  <energy>  (29) 
-8.4

>  <cluster_rmsd>  (29) 
1.47

>  <cluster>  (29) 
1

$$$$

     RDKit          3D

 62 66  0  0  0  0  0  0  0  0999 V2000
  141.4150   67.6630  229.4570 C   0  0  0  0  0  0  0  0  0  0  0  0
  141.1580   68.6890  228.4150 C   0  0  0  0  0  0  0  0  0  0  0  0
  141.4250   70.0230  228.7160 C   0  0  0  0  0  0  0  0  0  0  0  0
  141.2160   71.0240  227.8010 C   0  0  0  0  0  0  0  0  0  0  0  0
  140.7280   70.6950  226.5470 C   0  0  0  0  0  0  0  0  0  0  0  0
  140.4520   69.3890  226.2080 C   0  0  0  0  0  0  0  0  0  0  0  0
  140.6680   68.3710  227.1500 C   0  0  0  0  0  0  0  0  0  0  0  0
  139.9470   69.3680  224.7940 C   0  0  0  0  0  0  0  0  0  0  0  0
  139.9960   70.8030  224.4290 C   0  0  0  0  0  0  0  0  0  0  0  0
  139.6480   71.4020  223.1340 C   0  0  0  0  0  0  0  0  0  0  0  0
  139.1090   70.5980  222.1440 C   0  0  0  0  0  0  0  0  0  0  0  0
  138.8270   71.1710  220.9200 C   0  0  0  0  0  0  0  0  0  0  0  0
  139.0620   72.5140  220.6440 C   0  0  0  0  0  0  0  0  0  0  0  0
  139.5980   73.3010  221.6360 C   0  0  0  0  0  0  0  0  0  0  0  0
  139.9430   74.7140  221.4440 C   0  0  0  0  0  0  0  0  0  0  0  0
  140.6780   74.9790  220.4670 O   0  0  0  0  0  0  0  0  0  0  0  0
  139.4470   75.7110  222.3310 N   0  0  0  0  0  0  0  0  0  0  0  0
  139.7090   77.0860  222.2310 C   0  0  0  0  0  0  0  0  0  0  0  0
  138.7710   78.0880  222.2520 C   0  0  0  0  0  0  0  0  0  0  0  0
  139.1080   79.4450  222.2190 C   0  0  0  0  0  0  0  0  0  0  0  0
  140.4610   79.8030  222.1590 C   0  0  0  0  0  0  0  0  0  0  0  0
  140.8270   81.2040  222.1380 C   0  0  0  0  0  0  0  0  0  0  0  0
  141.3740   81.6340  223.2150 O   0  0  0  0  0  0  0  0  0  0  0  0
  140.6580   82.1180  221.1040 N   0  0  0  0  0  0  0  0  0  0  0  0
  140.0440   81.7890  219.8060 C   0  0  0  0  0  0  0  0  0  0  0  0
  139.6590   83.0770  219.1040 C   0  0  0  0  0  0  0  0  0  0  0  0
  139.0630   84.0630  219.9460 N   0  0  0  0  0  0  0  0  0  0  0  0
  137.6430   84.0070  220.0740 C   0  0  0  0  0  0  0  0  0  0  0  0
  139.7600   84.2900  221.2010 C   0  0  0  0  0  0  0  0  0  0  0  0
  141.0770   83.5200  221.2180 C   0  0  0  0  0  0  0  0  0  0  0  0
  141.4330   78.7990  222.1340 C   0  0  0  0  0  0  0  0  0  0  0  0
  141.0420   77.4820  222.1700 C   0  0  0  0  0  0  0  0  0  0  0  0
  139.8670   72.7150  222.8360 C   0  0  0  0  0  0  0  0  0  0  0  0
  140.4280   71.5150  225.4130 N   0  0  0  0  0  0  0  0  0  0  0  0
  141.3016   68.1157  230.4531 H   0  0  0  0  0  0  0  0  0  0  0  0
  140.6956   66.8384  229.3449 H   0  0  0  0  0  0  0  0  0  0  0  0
  142.4381   67.2748  229.3449 H   0  0  0  0  0  0  0  0  0  0  0  0
  141.8132   70.2803  229.7125 H   0  0  0  0  0  0  0  0  0  0  0  0
  141.4326   72.0711  228.0592 H   0  0  0  0  0  0  0  0  0  0  0  0
  140.4509   67.3244  226.8901 H   0  0  0  0  0  0  0  0  0  0  0  0
  140.6012   68.7677  224.1447 H   0  0  0  0  0  0  0  0  0  0  0  0
  138.9500   68.9162  224.6855 H   0  0  0  0  0  0  0  0  0  0  0  0
  138.9108   69.5317  222.3277 H   0  0  0  0  0  0  0  0  0  0  0  0
  138.3980   70.5383  220.1290 H   0  0  0  0  0  0  0  0  0  0  0  0
  138.8248   72.9361  219.6563 H   0  0  0  0  0  0  0  0  0  0  0  0
  138.8360   75.3480  223.1110 H   0  0  0  0  0  0  0  0  0  0  0  0
  137.7073   77.8114  222.2968 H   0  0  0  0  0  0  0  0  0  0  0  0
  138.3248   80.2171  222.2398 H   0  0  0  0  0  0  0  0  0  0  0  0
  140.7636   81.2323  219.1877 H   0  0  0  0  0  0  0  0  0  0  0  0
  139.1494   81.1687  219.9635 H   0  0  0  0  0  0  0  0  0  0  0  0
  140.5679   83.5099  218.6607 H   0  0  0  0  0  0  0  0  0  0  0  0
  138.8978   82.8068  218.3573 H   0  0  0  0  0  0  0  0  0  0  0  0
  137.3711   83.9963  221.1398 H   0  0  0  0  0  0  0  0  0  0  0  0
  137.1962   84.8882  219.5904 H   0  0  0  0  0  0  0  0  0  0  0  0
  137.2670   83.0933  219.5904 H   0  0  0  0  0  0  0  0  0  0  0  0
  139.9658   85.3647  221.3133 H   0  0  0  0  0  0  0  0  0  0  0  0
  139.1286   83.9402  222.0310 H   0  0  0  0  0  0  0  0  0  0  0  0
  141.7128   83.8103  220.3686 H   0  0  0  0  0  0  0  0  0  0  0  0
  141.6751   83.7156  222.1203 H   0  0  0  0  0  0  0  0  0  0  0  0
  142.5004   79.0604  222.0860 H   0  0  0  0  0  0  0  0  0  0  0  0
  141.8193   76.7039  222.1496 H   0  0  0  0  0  0  0  0  0  0  0  0
  140.2941   73.3500  223.6262 H   0  0  0  0  0  0  0  0  0  0  0  0
  1  2  1  0
  2  3  2  0
  3  4  1  0
  4  5  2  0
  5  6  1  0
  6  7  2  0
  6  8  1  0
  8  9  1  0
  9 10  1  0
 10 11  2  0
 11 12  1  0
 12 13  2  0
 13 14  1  0
 14 15  1  0
 15 16  2  0
 15 17  1  0
 17 18  1  0
 18 19  2  0
 19 20  1  0
 20 21  2  0
 21 22  1  0
 22 23  2  0
 22 24  1  0
 24 25  1  0
 25 26  1  0
 26 27  1  0
 27 28  1  0
 27 29  1  0
 29 30  1  0
 21 31  1  0
 31 32  2  0
 14 33  2  0
  9 34  2  0
  7  2  1  0
 33 10  1  0
 34  5  1  0
 32 18  1  0
 30 24  1  0
  1 35  1  0
  1 36  1  0
  1 37  1  0
  3 38  1  0
  4 39  1  0
  7 40  1  0
  8 41  1  0
  8 42  1  0
 11 43  1  0
 12 44  1  0
 13 45  1  0
 17 46  1  0
 19 47  1  0
 20 48  1  0
 25 49  1  0
 25 50  1  0
 26 51  1  0
 26 52  1  0
 28 53  1  0
 28 54  1  0
 28 55  1  0
 29 56  1  0
 29 57  1  0
 30 58  1  0
 30 59  1  0
 31 60  1  0
 32 61  1  0
 33 62  1  0
M  END
>  <smiles>  (30) 
Cc1ccc2c(c1)CC(c1cccc(C(=O)Nc3ccc(C(=O)N4CCN(C)CC4)cc3)c1)=N2

>  <score_type>  (30) 
oracle

>  <origin>  (30) 
autodockgpu

>  <m_score__min__energy>  (30) 
-8.8599999999999994

>  <m_primary>  (30) 
energy

>  <rmsd>  (30) 
8.97694722931841

>  <m_score__min__rmsd>  (30) 
8.97694722931841

>  <meeko>  (30) 
{"free_energy": -8.38, "intermolecular_energy": -9.57, "internal_energy": -0.99, "cluster_size": 39, "cluster_id": 1, "rank_in_cluster": 32}

>  <energy>  (30) 
-8.39

>  <cluster_rmsd>  (30) 
1.4

>  <cluster>  (30) 
1

$$$$

     RDKit          3D

 62 66  0  0  0  0  0  0  0  0999 V2000
  140.6700   68.1520  229.0570 C   0  0  0  0  0  0  0  0  0  0  0  0
  140.6810   69.1800  227.9850 C   0  0  0  0  0  0  0  0  0  0  0  0
  141.0950   70.4710  228.3070 C   0  0  0  0  0  0  0  0  0  0  0  0
  141.1350   71.4700  227.3680 C   0  0  0  0  0  0  0  0  0  0  0  0
  140.7530   71.1840  226.0680 C   0  0  0  0  0  0  0  0  0  0  0  0
  140.3380   69.9220  225.7070 C   0  0  0  0  0  0  0  0  0  0  0  0
  140.2990   68.9050  226.6740 C   0  0  0  0  0  0  0  0  0  0  0  0
  140.0000   69.9390  224.2440 C   0  0  0  0  0  0  0  0  0  0  0  0
  140.2900   71.3450  223.8780 C   0  0  0  0  0  0  0  0  0  0  0  0
  140.1810   71.9570  222.5480 C   0  0  0  0  0  0  0  0  0  0  0  0
  140.1700   71.1410  221.4300 C   0  0  0  0  0  0  0  0  0  0  0  0
  140.1070   71.7370  220.1870 C   0  0  0  0  0  0  0  0  0  0  0  0
  140.0560   73.1160  220.0140 C   0  0  0  0  0  0  0  0  0  0  0  0
  140.0670   73.9160  221.1330 C   0  0  0  0  0  0  0  0  0  0  0  0
  140.0770   75.3820  221.0730 C   0  0  0  0  0  0  0  0  0  0  0  0
  139.0950   75.9220  220.5180 O   0  0  0  0  0  0  0  0  0  0  0  0
  141.1540   76.1250  221.6340 N   0  0  0  0  0  0  0  0  0  0  0  0
  141.2550   77.5250  221.6400 C   0  0  0  0  0  0  0  0  0  0  0  0
  141.8180   78.2960  220.6540 C   0  0  0  0  0  0  0  0  0  0  0  0
  141.8220   79.6940  220.6910 C   0  0  0  0  0  0  0  0  0  0  0  0
  141.2260   80.3410  221.7810 C   0  0  0  0  0  0  0  0  0  0  0  0
  141.2090   81.7890  221.8270 C   0  0  0  0  0  0  0  0  0  0  0  0
  141.8700   82.3050  222.7960 O   0  0  0  0  0  0  0  0  0  0  0  0
  140.5710   82.6650  220.9560 N   0  0  0  0  0  0  0  0  0  0  0  0
  139.7690   82.2370  219.7970 C   0  0  0  0  0  0  0  0  0  0  0  0
  138.9140   83.4000  219.3340 C   0  0  0  0  0  0  0  0  0  0  0  0
  138.3060   84.1510  220.3840 N   0  0  0  0  0  0  0  0  0  0  0  0
  137.0200   83.7080  220.8140 C   0  0  0  0  0  0  0  0  0  0  0  0
  139.2020   84.5060  221.4730 C   0  0  0  0  0  0  0  0  0  0  0  0
  140.6350   84.1220  221.1200 C   0  0  0  0  0  0  0  0  0  0  0  0
  140.6480   79.5760  222.7980 C   0  0  0  0  0  0  0  0  0  0  0  0
  140.6740   78.2050  222.7060 C   0  0  0  0  0  0  0  0  0  0  0  0
  140.1280   73.3060  222.3490 C   0  0  0  0  0  0  0  0  0  0  0  0
  140.7020   72.0130  224.9010 N   0  0  0  0  0  0  0  0  0  0  0  0
  140.6753   68.6467  230.0395 H   0  0  0  0  0  0  0  0  0  0  0  0
  139.7652   67.5336  228.9627 H   0  0  0  0  0  0  0  0  0  0  0  0
  141.5614   67.5144  228.9627 H   0  0  0  0  0  0  0  0  0  0  0  0
  141.3975   70.6947  229.3407 H   0  0  0  0  0  0  0  0  0  0  0  0
  141.4653   72.4825  227.6433 H   0  0  0  0  0  0  0  0  0  0  0  0
  139.9675   67.8933  226.3970 H   0  0  0  0  0  0  0  0  0  0  0  0
  140.6341   69.2399  223.6790 H   0  0  0  0  0  0  0  0  0  0  0  0
  138.9687   69.6266  224.0231 H   0  0  0  0  0  0  0  0  0  0  0  0
  140.2104   70.0463  221.5297 H   0  0  0  0  0  0  0  0  0  0  0  0
  140.0967   71.0938  219.2947 H   0  0  0  0  0  0  0  0  0  0  0  0
  140.0080   73.5562  219.0071 H   0  0  0  0  0  0  0  0  0  0  0  0
  141.9150   75.5420  222.0740 H   0  0  0  0  0  0  0  0  0  0  0  0
  142.2871   77.7918  219.7963 H   0  0  0  0  0  0  0  0  0  0  0  0
  142.2846   80.2746  219.8793 H   0  0  0  0  0  0  0  0  0  0  0  0
  140.4371   81.9225  218.9817 H   0  0  0  0  0  0  0  0  0  0  0  0
  139.1252   81.3917  220.0815 H   0  0  0  0  0  0  0  0  0  0  0  0
  139.5503   84.0813  218.7501 H   0  0  0  0  0  0  0  0  0  0  0  0
  138.0911   82.9652  218.7477 H   0  0  0  0  0  0  0  0  0  0  0  0
  136.9850   83.6960  221.9134 H   0  0  0  0  0  0  0  0  0  0  0  0
  136.2491   84.3924  220.4301 H   0  0  0  0  0  0  0  0  0  0  0  0
  136.8342   82.6941  220.4301 H   0  0  0  0  0  0  0  0  0  0  0  0
  139.1489   85.5906  221.6488 H   0  0  0  0  0  0  0  0  0  0  0  0
  138.8975   83.9640  222.3805 H   0  0  0  0  0  0  0  0  0  0  0  0
  140.9535   84.6088  220.1864 H   0  0  0  0  0  0  0  0  0  0  0  0
  141.3620   84.4348  221.8839 H   0  0  0  0  0  0  0  0  0  0  0  0
  140.1772   80.0661  223.6630 H   0  0  0  0  0  0  0  0  0  0  0  0
  140.2135   77.6171  223.5136 H   0  0  0  0  0  0  0  0  0  0  0  0
  140.1351   73.9508  223.2401 H   0  0  0  0  0  0  0  0  0  0  0  0
  1  2  1  0
  2  3  2  0
  3  4  1  0
  4  5  2  0
  5  6  1  0
  6  7  2  0
  6  8  1  0
  8  9  1  0
  9 10  1  0
 10 11  2  0
 11 12  1  0
 12 13  2  0
 13 14  1  0
 14 15  1  0
 15 16  2  0
 15 17  1  0
 17 18  1  0
 18 19  2  0
 19 20  1  0
 20 21  2  0
 21 22  1  0
 22 23  2  0
 22 24  1  0
 24 25  1  0
 25 26  1  0
 26 27  1  0
 27 28  1  0
 27 29  1  0
 29 30  1  0
 21 31  1  0
 31 32  2  0
 14 33  2  0
  9 34  2  0
  7  2  1  0
 33 10  1  0
 34  5  1  0
 32 18  1  0
 30 24  1  0
  1 35  1  0
  1 36  1  0
  1 37  1  0
  3 38  1  0
  4 39  1  0
  7 40  1  0
  8 41  1  0
  8 42  1  0
 11 43  1  0
 12 44  1  0
 13 45  1  0
 17 46  1  0
 19 47  1  0
 20 48  1  0
 25 49  1  0
 25 50  1  0
 26 51  1  0
 26 52  1  0
 28 53  1  0
 28 54  1  0
 28 55  1  0
 29 56  1  0
 29 57  1  0
 30 58  1  0
 30 59  1  0
 31 60  1  0
 32 61  1  0
 33 62  1  0
M  END
>  <smiles>  (31) 
Cc1ccc2c(c1)CC(c1cccc(C(=O)Nc3ccc(C(=O)N4CCN(C)CC4)cc3)c1)=N2

>  <score_type>  (31) 
oracle

>  <origin>  (31) 
autodockgpu

>  <m_score__min__energy>  (31) 
-8.8599999999999994

>  <m_primary>  (31) 
energy

>  <rmsd>  (31) 
8.722626673771146

>  <m_score__min__rmsd>  (31) 
8.722626673771146

>  <meeko>  (31) 
{"free_energy": -8.8, "intermolecular_energy": -10.0, "internal_energy": -1.0, "cluster_size": 39, "cluster_id": 1, "rank_in_cluster": 12}

>  <energy>  (31) 
-8.38

>  <cluster_rmsd>  (31) 
1.59

>  <cluster>  (31) 
1

$$$$

     RDKit          3D

 62 66  0  0  0  0  0  0  0  0999 V2000
  141.4260   67.7810  229.3500 C   0  0  0  0  0  0  0  0  0  0  0  0
  141.1540   68.7930  228.2980 C   0  0  0  0  0  0  0  0  0  0  0  0
  141.3860   70.1350  228.5920 C   0  0  0  0  0  0  0  0  0  0  0  0
  141.1600   71.1240  227.6680 C   0  0  0  0  0  0  0  0  0  0  0  0
  140.6890   70.7750  226.4130 C   0  0  0  0  0  0  0  0  0  0  0  0
  140.4460   69.4610  226.0820 C   0  0  0  0  0  0  0  0  0  0  0  0
  140.6800   68.4550  227.0330 C   0  0  0  0  0  0  0  0  0  0  0  0
  139.9520   69.4170  224.6640 C   0  0  0  0  0  0  0  0  0  0  0  0
  139.9690   70.8510  224.2890 C   0  0  0  0  0  0  0  0  0  0  0  0
  139.6170   71.4320  222.9870 C   0  0  0  0  0  0  0  0  0  0  0  0
  139.1310   70.6040  221.9900 C   0  0  0  0  0  0  0  0  0  0  0  0
  138.8430   71.1630  220.7610 C   0  0  0  0  0  0  0  0  0  0  0  0
  139.0230   72.5150  220.4860 C   0  0  0  0  0  0  0  0  0  0  0  0
  139.5070   73.3260  221.4860 C   0  0  0  0  0  0  0  0  0  0  0  0
  139.7920   74.7530  221.2960 C   0  0  0  0  0  0  0  0  0  0  0  0
  140.2250   75.0890  220.1730 O   0  0  0  0  0  0  0  0  0  0  0  0
  139.5710   75.6840  222.3500 N   0  0  0  0  0  0  0  0  0  0  0  0
  139.8010   77.0660  222.2700 C   0  0  0  0  0  0  0  0  0  0  0  0
  138.8970   78.0520  222.5760 C   0  0  0  0  0  0  0  0  0  0  0  0
  139.2170   79.4130  222.5420 C   0  0  0  0  0  0  0  0  0  0  0  0
  140.5150   79.7920  222.1780 C   0  0  0  0  0  0  0  0  0  0  0  0
  140.8660   81.1970  222.1510 C   0  0  0  0  0  0  0  0  0  0  0  0
  141.4010   81.6400  223.2290 O   0  0  0  0  0  0  0  0  0  0  0  0
  140.6950   82.1030  221.1110 N   0  0  0  0  0  0  0  0  0  0  0  0
  140.0930   81.7610  219.8100 C   0  0  0  0  0  0  0  0  0  0  0  0
  139.6990   83.0400  219.0990 C   0  0  0  0  0  0  0  0  0  0  0  0
  139.0870   84.0240  219.9300 N   0  0  0  0  0  0  0  0  0  0  0  0
  137.6670   83.9540  220.0490 C   0  0  0  0  0  0  0  0  0  0  0  0
  139.7730   84.2660  221.1890 C   0  0  0  0  0  0  0  0  0  0  0  0
  141.0970   83.5100  221.2190 C   0  0  0  0  0  0  0  0  0  0  0  0
  141.4520   78.8050  221.8590 C   0  0  0  0  0  0  0  0  0  0  0  0
  141.0800   77.4830  221.9120 C   0  0  0  0  0  0  0  0  0  0  0  0
  139.7820   72.7530  222.6910 C   0  0  0  0  0  0  0  0  0  0  0  0
  140.3780   71.5800  225.2710 N   0  0  0  0  0  0  0  0  0  0  0  0
  141.3024   68.2407  230.3417 H   0  0  0  0  0  0  0  0  0  0  0  0
  140.7211   66.9432  229.2438 H   0  0  0  0  0  0  0  0  0  0  0  0
  142.4559   67.4094  229.2438 H   0  0  0  0  0  0  0  0  0  0  0  0
  141.7597   70.4086  229.5898 H   0  0  0  0  0  0  0  0  0  0  0  0
  141.3500   72.1777  227.9201 H   0  0  0  0  0  0  0  0  0  0  0  0
  140.4892   67.4018  226.7793 H   0  0  0  0  0  0  0  0  0  0  0  0
  140.6255   68.8282  224.0239 H   0  0  0  0  0  0  0  0  0  0  0  0
  138.9672   68.9400  224.5513 H   0  0  0  0  0  0  0  0  0  0  0  0
  138.9784   69.5299  222.1719 H   0  0  0  0  0  0  0  0  0  0  0  0
  138.4544   70.5113  219.9646 H   0  0  0  0  0  0  0  0  0  0  0  0
  138.7842   72.9251  219.4936 H   0  0  0  0  0  0  0  0  0  0  0  0
  139.2010   75.2640  223.2440 H   0  0  0  0  0  0  0  0  0  0  0  0
  137.8757   77.7590  222.8606 H   0  0  0  0  0  0  0  0  0  0  0  0
  138.4627   80.1721  222.7966 H   0  0  0  0  0  0  0  0  0  0  0  0
  140.8227   81.2090  219.1994 H   0  0  0  0  0  0  0  0  0  0  0  0
  139.2039   81.1321  219.9650 H   0  0  0  0  0  0  0  0  0  0  0  0
  140.6062   83.4801  218.6594 H   0  0  0  0  0  0  0  0  0  0  0  0
  138.9455   82.7570  218.3492 H   0  0  0  0  0  0  0  0  0  0  0  0
  137.3885   83.9403  221.1131 H   0  0  0  0  0  0  0  0  0  0  0  0
  137.2146   84.8309  219.5628 H   0  0  0  0  0  0  0  0  0  0  0  0
  137.3031   83.0368  219.5628 H   0  0  0  0  0  0  0  0  0  0  0  0
  139.9669   85.3434  221.2963 H   0  0  0  0  0  0  0  0  0  0  0  0
  139.1396   83.9151  222.0170 H   0  0  0  0  0  0  0  0  0  0  0  0
  141.7350   83.8021  220.3719 H   0  0  0  0  0  0  0  0  0  0  0  0
  141.6865   83.7172  222.1243 H   0  0  0  0  0  0  0  0  0  0  0  0
  142.4758   79.0833  221.5687 H   0  0  0  0  0  0  0  0  0  0  0  0
  141.8288   76.7178  221.6595 H   0  0  0  0  0  0  0  0  0  0  0  0
  140.1672   73.4068  223.4873 H   0  0  0  0  0  0  0  0  0  0  0  0
  1  2  1  0
  2  3  2  0
  3  4  1  0
  4  5  2  0
  5  6  1  0
  6  7  2  0
  6  8  1  0
  8  9  1  0
  9 10  1  0
 10 11  2  0
 11 12  1  0
 12 13  2  0
 13 14  1  0
 14 15  1  0
 15 16  2  0
 15 17  1  0
 17 18  1  0
 18 19  2  0
 19 20  1  0
 20 21  2  0
 21 22  1  0
 22 23  2  0
 22 24  1  0
 24 25  1  0
 25 26  1  0
 26 27  1  0
 27 28  1  0
 27 29  1  0
 29 30  1  0
 21 31  1  0
 31 32  2  0
 14 33  2  0
  9 34  2  0
  7  2  1  0
 33 10  1  0
 34  5  1  0
 32 18  1  0
 30 24  1  0
  1 35  1  0
  1 36  1  0
  1 37  1  0
  3 38  1  0
  4 39  1  0
  7 40  1  0
  8 41  1  0
  8 42  1  0
 11 43  1  0
 12 44  1  0
 13 45  1  0
 17 46  1  0
 19 47  1  0
 20 48  1  0
 25 49  1  0
 25 50  1  0
 26 51  1  0
 26 52  1  0
 28 53  1  0
 28 54  1  0
 28 55  1  0
 29 56  1  0
 29 57  1  0
 30 58  1  0
 30 59  1  0
 31 60  1  0
 32 61  1  0
 33 62  1  0
M  END
>  <smiles>  (32) 
Cc1ccc2c(c1)CC(c1cccc(C(=O)Nc3ccc(C(=O)N4CCN(C)CC4)cc3)c1)=N2

>  <score_type>  (32) 
oracle

>  <origin>  (32) 
autodockgpu

>  <m_score__min__energy>  (32) 
-8.8599999999999994

>  <m_primary>  (32) 
energy

>  <rmsd>  (32) 
8.95131734026608

>  <m_score__min__rmsd>  (32) 
8.95131734026608

>  <meeko>  (32) 
{"free_energy": -8.56, "intermolecular_energy": -9.75, "internal_energy": -1.0, "cluster_size": 39, "cluster_id": 1, "rank_in_cluster": 22}

>  <energy>  (32) 
-8.38

>  <cluster_rmsd>  (32) 
1.17

>  <cluster>  (32) 
1

$$$$

     RDKit          3D

 62 66  0  0  0  0  0  0  0  0999 V2000
  141.4440   68.4200  229.0700 C   0  0  0  0  0  0  0  0  0  0  0  0
  140.8910   68.7090  227.7220 C   0  0  0  0  0  0  0  0  0  0  0  0
  140.0640   67.7590  227.1260 C   0  0  0  0  0  0  0  0  0  0  0  0
  139.5140   67.9600  225.8850 C   0  0  0  0  0  0  0  0  0  0  0  0
  139.7910   69.1380  225.2120 C   0  0  0  0  0  0  0  0  0  0  0  0
  140.6020   70.1030  225.7650 C   0  0  0  0  0  0  0  0  0  0  0  0
  141.1610   69.8900  227.0350 C   0  0  0  0  0  0  0  0  0  0  0  0
  140.7000   71.2470  224.7960 C   0  0  0  0  0  0  0  0  0  0  0  0
  139.8460   70.7770  223.6800 C   0  0  0  0  0  0  0  0  0  0  0  0
  139.5260   71.5000  222.4420 C   0  0  0  0  0  0  0  0  0  0  0  0
  139.2130   70.7780  221.3030 C   0  0  0  0  0  0  0  0  0  0  0  0
  138.9550   71.4750  220.1400 C   0  0  0  0  0  0  0  0  0  0  0  0
  138.9980   72.8630  220.0670 C   0  0  0  0  0  0  0  0  0  0  0  0
  139.3080   73.5680  221.2060 C   0  0  0  0  0  0  0  0  0  0  0  0
  139.4400   75.0290  221.2370 C   0  0  0  0  0  0  0  0  0  0  0  0
  138.4280   75.6860  220.9110 O   0  0  0  0  0  0  0  0  0  0  0  0
  140.6650   75.6400  221.6310 N   0  0  0  0  0  0  0  0  0  0  0  0
  140.8930   77.0230  221.7040 C   0  0  0  0  0  0  0  0  0  0  0  0
  141.7090   77.7500  220.8740 C   0  0  0  0  0  0  0  0  0  0  0  0
  141.8350   79.1400  220.9590 C   0  0  0  0  0  0  0  0  0  0  0  0
  141.0990   79.8260  221.9330 C   0  0  0  0  0  0  0  0  0  0  0  0
  141.2070   81.2670  222.0240 C   0  0  0  0  0  0  0  0  0  0  0  0
  141.6270   81.7060  223.1530 O   0  0  0  0  0  0  0  0  0  0  0  0
  140.9150   82.2110  221.0460 N   0  0  0  0  0  0  0  0  0  0  0  0
  140.4180   81.8770  219.7000 C   0  0  0  0  0  0  0  0  0  0  0  0
  139.8350   83.1240  219.0670 C   0  0  0  0  0  0  0  0  0  0  0  0
  139.0410   83.9240  219.9420 N   0  0  0  0  0  0  0  0  0  0  0  0
  137.6500   83.6090  219.9950 C   0  0  0  0  0  0  0  0  0  0  0  0
  139.6380   84.1770  221.2420 C   0  0  0  0  0  0  0  0  0  0  0  0
  141.0700   83.6530  221.2740 C   0  0  0  0  0  0  0  0  0  0  0  0
  140.2620   79.1050  222.7910 C   0  0  0  0  0  0  0  0  0  0  0  0
  140.1780   77.7400  222.6590 C   0  0  0  0  0  0  0  0  0  0  0  0
  139.5580   72.8600  222.3430 C   0  0  0  0  0  0  0  0  0  0  0  0
  139.3570   69.6110  223.9320 N   0  0  0  0  0  0  0  0  0  0  0  0
  140.7464   68.7846  229.8384 H   0  0  0  0  0  0  0  0  0  0  0  0
  141.5816   67.3347  229.1849 H   0  0  0  0  0  0  0  0  0  0  0  0
  142.4136   68.9267  229.1849 H   0  0  0  0  0  0  0  0  0  0  0  0
  139.8465   66.8244  227.6639 H   0  0  0  0  0  0  0  0  0  0  0  0
  138.8634   67.1974  225.4320 H   0  0  0  0  0  0  0  0  0  0  0  0
  141.8108   70.6542  227.4865 H   0  0  0  0  0  0  0  0  0  0  0  0
  140.3092   72.1771  225.2344 H   0  0  0  0  0  0  0  0  0  0  0  0
  141.7305   71.4879  224.4959 H   0  0  0  0  0  0  0  0  0  0  0  0
  139.1711   69.6790  221.3243 H   0  0  0  0  0  0  0  0  0  0  0  0
  138.7045   70.9079  219.2314 H   0  0  0  0  0  0  0  0  0  0  0  0
  138.7891   73.3842  219.1211 H   0  0  0  0  0  0  0  0  0  0  0  0
  141.4370   74.9670  221.8820 H   0  0  0  0  0  0  0  0  0  0  0  0
  142.2897   77.2155  220.1078 H   0  0  0  0  0  0  0  0  0  0  0  0
  142.5003   79.6848  220.2731 H   0  0  0  0  0  0  0  0  0  0  0  0
  141.2480   81.5033  219.0824 H   0  0  0  0  0  0  0  0  0  0  0  0
  139.6434   81.0993  219.7718 H   0  0  0  0  0  0  0  0  0  0  0  0
  140.6672   83.7421  218.6991 H   0  0  0  0  0  0  0  0  0  0  0  0
  139.1631   82.7800  218.2669 H   0  0  0  0  0  0  0  0  0  0  0  0
  137.3302   83.5366  221.0450 H   0  0  0  0  0  0  0  0  0  0  0  0
  137.0755   84.3998  219.4904 H   0  0  0  0  0  0  0  0  0  0  0  0
  137.4722   82.6479  219.4904 H   0  0  0  0  0  0  0  0  0  0  0  0
  139.6428   85.2599  221.4353 H   0  0  0  0  0  0  0  0  0  0  0  0
  139.0491   83.6607  222.0144 H   0  0  0  0  0  0  0  0  0  0  0  0
  141.6746   84.1136  220.4789 H   0  0  0  0  0  0  0  0  0  0  0  0
  141.5886   83.8835  222.2163 H   0  0  0  0  0  0  0  0  0  0  0  0
  139.6770   79.6255  223.5635 H   0  0  0  0  0  0  0  0  0  0  0  0
  139.5142   77.1876  223.3403 H   0  0  0  0  0  0  0  0  0  0  0  0
  139.8047   73.4293  223.2513 H   0  0  0  0  0  0  0  0  0  0  0  0
  1  2  1  0
  2  3  2  0
  3  4  1  0
  4  5  2  0
  5  6  1  0
  6  7  2  0
  6  8  1  0
  8  9  1  0
  9 10  1  0
 10 11  2  0
 11 12  1  0
 12 13  2  0
 13 14  1  0
 14 15  1  0
 15 16  2  0
 15 17  1  0
 17 18  1  0
 18 19  2  0
 19 20  1  0
 20 21  2  0
 21 22  1  0
 22 23  2  0
 22 24  1  0
 24 25  1  0
 25 26  1  0
 26 27  1  0
 27 28  1  0
 27 29  1  0
 29 30  1  0
 21 31  1  0
 31 32  2  0
 14 33  2  0
  9 34  2  0
  7  2  1  0
 33 10  1  0
 34  5  1  0
 32 18  1  0
 30 24  1  0
  1 35  1  0
  1 36  1  0
  1 37  1  0
  3 38  1  0
  4 39  1  0
  7 40  1  0
  8 41  1  0
  8 42  1  0
 11 43  1  0
 12 44  1  0
 13 45  1  0
 17 46  1  0
 19 47  1  0
 20 48  1  0
 25 49  1  0
 25 50  1  0
 26 51  1  0
 26 52  1  0
 28 53  1  0
 28 54  1  0
 28 55  1  0
 29 56  1  0
 29 57  1  0
 30 58  1  0
 30 59  1  0
 31 60  1  0
 32 61  1  0
 33 62  1  0
M  END
>  <smiles>  (33) 
Cc1ccc2c(c1)CC(c1cccc(C(=O)Nc3ccc(C(=O)N4CCN(C)CC4)cc3)c1)=N2

>  <score_type>  (33) 
oracle

>  <origin>  (33) 
autodockgpu

>  <m_score__min__energy>  (33) 
-8.8599999999999994

>  <m_primary>  (33) 
energy

>  <rmsd>  (33) 
8.525558583702656

>  <m_score__min__rmsd>  (33) 
8.525558583702656

>  <meeko>  (33) 
{"free_energy": -8.16, "intermolecular_energy": -9.35, "internal_energy": -1.0, "cluster_size": 39, "cluster_id": 1, "rank_in_cluster": 37}

>  <energy>  (33) 
-8.37

>  <cluster_rmsd>  (33) 
1.46

>  <cluster>  (33) 
1

$$$$

     RDKit          3D

 62 66  0  0  0  0  0  0  0  0999 V2000
  140.6490   68.1290  229.0760 C   0  0  0  0  0  0  0  0  0  0  0  0
  140.6580   69.1540  228.0010 C   0  0  0  0  0  0  0  0  0  0  0  0
  141.0780   70.4440  228.3170 C   0  0  0  0  0  0  0  0  0  0  0  0
  141.1160   71.4400  227.3740 C   0  0  0  0  0  0  0  0  0  0  0  0
  140.7260   71.1510  226.0770 C   0  0  0  0  0  0  0  0  0  0  0  0
  140.3040   69.8890  225.7220 C   0  0  0  0  0  0  0  0  0  0  0  0
  140.2680   68.8760  226.6930 C   0  0  0  0  0  0  0  0  0  0  0  0
  139.9590   69.9020  224.2610 C   0  0  0  0  0  0  0  0  0  0  0  0
  140.2520   71.3060  223.8890 C   0  0  0  0  0  0  0  0  0  0  0  0
  140.1370   71.9150  222.5570 C   0  0  0  0  0  0  0  0  0  0  0  0
  140.1090   71.0940  221.4430 C   0  0  0  0  0  0  0  0  0  0  0  0
  140.0410   71.6860  220.1980 C   0  0  0  0  0  0  0  0  0  0  0  0
  140.0020   73.0650  220.0200 C   0  0  0  0  0  0  0  0  0  0  0  0
  140.0300   73.8690  221.1350 C   0  0  0  0  0  0  0  0  0  0  0  0
  140.0530   75.3350  221.0700 C   0  0  0  0  0  0  0  0  0  0  0  0
  139.0890   75.8810  220.4920 O   0  0  0  0  0  0  0  0  0  0  0  0
  141.1250   76.0710  221.6510 N   0  0  0  0  0  0  0  0  0  0  0  0
  141.2370   77.4700  221.6530 C   0  0  0  0  0  0  0  0  0  0  0  0
  141.7540   78.2380  220.6400 C   0  0  0  0  0  0  0  0  0  0  0  0
  141.7710   79.6350  220.6780 C   0  0  0  0  0  0  0  0  0  0  0  0
  141.2400   80.2860  221.7990 C   0  0  0  0  0  0  0  0  0  0  0  0
  141.2370   81.7330  221.8480 C   0  0  0  0  0  0  0  0  0  0  0  0
  141.8530   82.2410  222.8510 O   0  0  0  0  0  0  0  0  0  0  0  0
  140.6550   82.6190  220.9470 N   0  0  0  0  0  0  0  0  0  0  0  0
  139.9070   82.2030  219.7480 C   0  0  0  0  0  0  0  0  0  0  0  0
  139.0910   83.3770  219.2450 C   0  0  0  0  0  0  0  0  0  0  0  0
  138.4400   84.1330  220.2650 N   0  0  0  0  0  0  0  0  0  0  0  0
  137.1280   83.7040  220.6270 C   0  0  0  0  0  0  0  0  0  0  0  0
  139.2820   84.4750  221.3980 C   0  0  0  0  0  0  0  0  0  0  0  0
  140.7270   84.0750  221.1190 C   0  0  0  0  0  0  0  0  0  0  0  0
  140.7100   79.5240  222.8440 C   0  0  0  0  0  0  0  0  0  0  0  0
  140.7200   78.1530  222.7500 C   0  0  0  0  0  0  0  0  0  0  0  0
  140.0950   73.2630  222.3530 C   0  0  0  0  0  0  0  0  0  0  0  0
  140.6710   71.9760  224.9070 N   0  0  0  0  0  0  0  0  0  0  0  0
  140.6534   68.6265  230.0571 H   0  0  0  0  0  0  0  0  0  0  0  0
  139.7454   67.5086  228.9835 H   0  0  0  0  0  0  0  0  0  0  0  0
  141.5416   67.4928  228.9835 H   0  0  0  0  0  0  0  0  0  0  0  0
  141.3869   70.6699  229.3483 H   0  0  0  0  0  0  0  0  0  0  0  0
  141.4510   72.4523  227.6440 H   0  0  0  0  0  0  0  0  0  0  0  0
  139.9324   67.8643  226.4214 H   0  0  0  0  0  0  0  0  0  0  0  0
  140.5880   69.1989  223.6953 H   0  0  0  0  0  0  0  0  0  0  0  0
  138.9257   69.5921  224.0460 H   0  0  0  0  0  0  0  0  0  0  0  0
  140.1401   69.9994  221.5471 H   0  0  0  0  0  0  0  0  0  0  0  0
  140.0166   71.0395  219.3084 H   0  0  0  0  0  0  0  0  0  0  0  0
  139.9500   73.5017  219.0117 H   0  0  0  0  0  0  0  0  0  0  0  0
  141.8710   75.4830  222.1100 H   0  0  0  0  0  0  0  0  0  0  0  0
  142.1739   77.7313  219.7585 H   0  0  0  0  0  0  0  0  0  0  0  0
  142.1936   80.2128  219.8428 H   0  0  0  0  0  0  0  0  0  0  0  0
  140.6114   81.8815  218.9667 H   0  0  0  0  0  0  0  0  0  0  0  0
  139.2391   81.3655  219.9980 H   0  0  0  0  0  0  0  0  0  0  0  0
  139.7643   84.0516  218.6958 H   0  0  0  0  0  0  0  0  0  0  0  0
  138.2938   82.9537  218.6162 H   0  0  0  0  0  0  0  0  0  0  0  0
  137.0410   83.6755  221.7232 H   0  0  0  0  0  0  0  0  0  0  0  0
  136.3867   84.4066  220.2184 H   0  0  0  0  0  0  0  0  0  0  0  0
  136.9450   82.6992  220.2184 H   0  0  0  0  0  0  0  0  0  0  0  0
  139.2325   85.5598  221.5733 H   0  0  0  0  0  0  0  0  0  0  0  0
  138.9249   83.9346  222.2871 H   0  0  0  0  0  0  0  0  0  0  0  0
  141.0994   84.5605  220.2049 H   0  0  0  0  0  0  0  0  0  0  0  0
  141.4166   84.3771  221.9210 H   0  0  0  0  0  0  0  0  0  0  0  0
  140.2891   80.0168  223.7328 H   0  0  0  0  0  0  0  0  0  0  0  0
  140.2995   77.5677  223.5811 H   0  0  0  0  0  0  0  0  0  0  0  0
  140.1152   73.9112  223.2415 H   0  0  0  0  0  0  0  0  0  0  0  0
  1  2  1  0
  2  3  2  0
  3  4  1  0
  4  5  2  0
  5  6  1  0
  6  7  2  0
  6  8  1  0
  8  9  1  0
  9 10  1  0
 10 11  2  0
 11 12  1  0
 12 13  2  0
 13 14  1  0
 14 15  1  0
 15 16  2  0
 15 17  1  0
 17 18  1  0
 18 19  2  0
 19 20  1  0
 20 21  2  0
 21 22  1  0
 22 23  2  0
 22 24  1  0
 24 25  1  0
 25 26  1  0
 26 27  1  0
 27 28  1  0
 27 29  1  0
 29 30  1  0
 21 31  1  0
 31 32  2  0
 14 33  2  0
  9 34  2  0
  7  2  1  0
 33 10  1  0
 34  5  1  0
 32 18  1  0
 30 24  1  0
  1 35  1  0
  1 36  1  0
  1 37  1  0
  3 38  1  0
  4 39  1  0
  7 40  1  0
  8 41  1  0
  8 42  1  0
 11 43  1  0
 12 44  1  0
 13 45  1  0
 17 46  1  0
 19 47  1  0
 20 48  1  0
 25 49  1  0
 25 50  1  0
 26 51  1  0
 26 52  1  0
 28 53  1  0
 28 54  1  0
 28 55  1  0
 29 56  1  0
 29 57  1  0
 30 58  1  0
 30 59  1  0
 31 60  1  0
 32 61  1  0
 33 62  1  0
M  END
>  <smiles>  (34) 
Cc1ccc2c(c1)CC(c1cccc(C(=O)Nc3ccc(C(=O)N4CCN(C)CC4)cc3)c1)=N2

>  <score_type>  (34) 
oracle

>  <origin>  (34) 
autodockgpu

>  <m_score__min__energy>  (34) 
-8.8599999999999994

>  <m_primary>  (34) 
energy

>  <rmsd>  (34) 
8.72877530567992

>  <m_score__min__rmsd>  (34) 
8.72877530567992

>  <meeko>  (34) 
{"free_energy": -8.83, "intermolecular_energy": -10.02, "internal_energy": -0.99, "cluster_size": 39, "cluster_id": 1, "rank_in_cluster": 10}

>  <energy>  (34) 
-8.34

>  <cluster_rmsd>  (34) 
1.51

>  <cluster>  (34) 
1

$$$$

     RDKit          3D

 62 66  0  0  0  0  0  0  0  0999 V2000
  141.4020   68.1430  228.9080 C   0  0  0  0  0  0  0  0  0  0  0  0
  140.8000   68.4510  227.5860 C   0  0  0  0  0  0  0  0  0  0  0  0
  140.1600   67.4260  226.8920 C   0  0  0  0  0  0  0  0  0  0  0  0
  139.5780   67.6390  225.6680 C   0  0  0  0  0  0  0  0  0  0  0  0
  139.6290   68.9070  225.1130 C   0  0  0  0  0  0  0  0  0  0  0  0
  140.2510   69.9480  225.7650 C   0  0  0  0  0  0  0  0  0  0  0  0
  140.8450   69.7210  227.0160 C   0  0  0  0  0  0  0  0  0  0  0  0
  140.1320   71.1770  224.9090 C   0  0  0  0  0  0  0  0  0  0  0  0
  139.3740   70.6660  223.7430 C   0  0  0  0  0  0  0  0  0  0  0  0
  138.9210   71.4310  222.5740 C   0  0  0  0  0  0  0  0  0  0  0  0
  138.2130   70.7820  221.5780 C   0  0  0  0  0  0  0  0  0  0  0  0
  137.8310   71.5100  220.4690 C   0  0  0  0  0  0  0  0  0  0  0  0
  138.1290   72.8600  220.3140 C   0  0  0  0  0  0  0  0  0  0  0  0
  138.8330   73.4930  221.3110 C   0  0  0  0  0  0  0  0  0  0  0  0
  139.2550   74.8960  221.2320 C   0  0  0  0  0  0  0  0  0  0  0  0
  139.3610   75.3810  220.0840 O   0  0  0  0  0  0  0  0  0  0  0  0
  139.5150   75.6440  222.4150 N   0  0  0  0  0  0  0  0  0  0  0  0
  139.9130   76.9900  222.4500 C   0  0  0  0  0  0  0  0  0  0  0  0
  141.2050   77.4450  222.5350 C   0  0  0  0  0  0  0  0  0  0  0  0
  141.5350   78.8040  222.4940 C   0  0  0  0  0  0  0  0  0  0  0  0
  140.5060   79.7440  222.3620 C   0  0  0  0  0  0  0  0  0  0  0  0
  140.8330   81.1540  222.3030 C   0  0  0  0  0  0  0  0  0  0  0  0
  141.3270   81.6390  223.3830 O   0  0  0  0  0  0  0  0  0  0  0  0
  140.6790   82.0250  221.2300 N   0  0  0  0  0  0  0  0  0  0  0  0
  140.1240   81.6320  219.9230 C   0  0  0  0  0  0  0  0  0  0  0  0
  139.7310   82.8810  219.1600 C   0  0  0  0  0  0  0  0  0  0  0  0
  139.0770   83.8790  219.9420 N   0  0  0  0  0  0  0  0  0  0  0  0
  137.6550   83.7870  220.0190 C   0  0  0  0  0  0  0  0  0  0  0  0
  139.7190   84.1720  221.2130 C   0  0  0  0  0  0  0  0  0  0  0  0
  141.0540   83.4420  221.3070 C   0  0  0  0  0  0  0  0  0  0  0  0
  139.1830   79.3030  222.2760 C   0  0  0  0  0  0  0  0  0  0  0  0
  138.9190   77.9550  222.3210 C   0  0  0  0  0  0  0  0  0  0  0  0
  139.1980   72.7550  222.3970 C   0  0  0  0  0  0  0  0  0  0  0  0
  139.1100   69.4110  223.8770 N   0  0  0  0  0  0  0  0  0  0  0  0
  140.7287   68.4875  229.7067 H   0  0  0  0  0  0  0  0  0  0  0  0
  141.5525   67.0571  228.9983 H   0  0  0  0  0  0  0  0  0  0  0  0
  142.3707   68.6562  228.9983 H   0  0  0  0  0  0  0  0  0  0  0  0
  140.1204   66.4207  227.3368 H   0  0  0  0  0  0  0  0  0  0  0  0
  139.0788   66.8158  225.1358 H   0  0  0  0  0  0  0  0  0  0  0  0
  141.3455   70.5450  227.5457 H   0  0  0  0  0  0  0  0  0  0  0  0
  139.5787   71.9737  225.4278 H   0  0  0  0  0  0  0  0  0  0  0  0
  141.0991   71.6305  224.6460 H   0  0  0  0  0  0  0  0  0  0  0  0
  137.9613   69.7149  221.6674 H   0  0  0  0  0  0  0  0  0  0  0  0
  137.2668   71.0008  219.6738 H   0  0  0  0  0  0  0  0  0  0  0  0
  137.8091   73.4078  219.4154 H   0  0  0  0  0  0  0  0  0  0  0  0
  139.3850   75.1110  223.3160 H   0  0  0  0  0  0  0  0  0  0  0  0
  142.0161   76.7094  222.6399 H   0  0  0  0  0  0  0  0  0  0  0  0
  142.5839   79.1280  222.5642 H   0  0  0  0  0  0  0  0  0  0  0  0
  140.8816   81.0743  219.3529 H   0  0  0  0  0  0  0  0  0  0  0  0
  139.2412   80.9925  220.0705 H   0  0  0  0  0  0  0  0  0  0  0  0
  140.6438   83.3234  218.7345 H   0  0  0  0  0  0  0  0  0  0  0  0
  139.0064   82.5621  218.3963 H   0  0  0  0  0  0  0  0  0  0  0  0
  137.3455   83.7670  221.0744 H   0  0  0  0  0  0  0  0  0  0  0  0
  137.2037   84.6578  219.5210 H   0  0  0  0  0  0  0  0  0  0  0  0
  137.3197   82.8653  219.5210 H   0  0  0  0  0  0  0  0  0  0  0  0
  139.8906   85.2556  221.2925 H   0  0  0  0  0  0  0  0  0  0  0  0
  139.0663   83.8350  222.0318 H   0  0  0  0  0  0  0  0  0  0  0  0
  141.7132   83.7198  220.4713 H   0  0  0  0  0  0  0  0  0  0  0  0
  141.6116   83.6873  222.2229 H   0  0  0  0  0  0  0  0  0  0  0  0
  138.3613   80.0271  222.1734 H   0  0  0  0  0  0  0  0  0  0  0  0
  137.8725   77.6234  222.2518 H   0  0  0  0  0  0  0  0  0  0  0  0
  139.7595   73.2666  223.1926 H   0  0  0  0  0  0  0  0  0  0  0  0
  1  2  1  0
  2  3  2  0
  3  4  1  0
  4  5  2  0
  5  6  1  0
  6  7  2  0
  6  8  1  0
  8  9  1  0
  9 10  1  0
 10 11  2  0
 11 12  1  0
 12 13  2  0
 13 14  1  0
 14 15  1  0
 15 16  2  0
 15 17  1  0
 17 18  1  0
 18 19  2  0
 19 20  1  0
 20 21  2  0
 21 22  1  0
 22 23  2  0
 22 24  1  0
 24 25  1  0
 25 26  1  0
 26 27  1  0
 27 28  1  0
 27 29  1  0
 29 30  1  0
 21 31  1  0
 31 32  2  0
 14 33  2  0
  9 34  2  0
  7  2  1  0
 33 10  1  0
 34  5  1  0
 32 18  1  0
 30 24  1  0
  1 35  1  0
  1 36  1  0
  1 37  1  0
  3 38  1  0
  4 39  1  0
  7 40  1  0
  8 41  1  0
  8 42  1  0
 11 43  1  0
 12 44  1  0
 13 45  1  0
 17 46  1  0
 19 47  1  0
 20 48  1  0
 25 49  1  0
 25 50  1  0
 26 51  1  0
 26 52  1  0
 28 53  1  0
 28 54  1  0
 28 55  1  0
 29 56  1  0
 29 57  1  0
 30 58  1  0
 30 59  1  0
 31 60  1  0
 32 61  1  0
 33 62  1  0
M  END
>  <smiles>  (35) 
Cc1ccc2c(c1)CC(c1cccc(C(=O)Nc3ccc(C(=O)N4CCN(C)CC4)cc3)c1)=N2

>  <score_type>  (35) 
oracle

>  <origin>  (35) 
autodockgpu

>  <m_score__min__energy>  (35) 
-8.8599999999999994

>  <m_primary>  (35) 
energy

>  <rmsd>  (35) 
8.607210902037519

>  <m_score__min__rmsd>  (35) 
8.607210902037519

>  <meeko>  (35) 
{"free_energy": -8.39, "intermolecular_energy": -9.59, "internal_energy": -1.02, "cluster_size": 39, "cluster_id": 1, "rank_in_cluster": 30}

>  <energy>  (35) 
-8.32

>  <cluster_rmsd>  (35) 
0.9

>  <cluster>  (35) 
1

$$$$

     RDKit          3D

 62 66  0  0  0  0  0  0  0  0999 V2000
  140.8650   68.1310  229.0360 C   0  0  0  0  0  0  0  0  0  0  0  0
  140.5490   68.5380  227.6440 C   0  0  0  0  0  0  0  0  0  0  0  0
  139.7410   67.7030  226.8750 C   0  0  0  0  0  0  0  0  0  0  0  0
  139.4050   68.0170  225.5820 C   0  0  0  0  0  0  0  0  0  0  0  0
  139.8820   69.1950  225.0320 C   0  0  0  0  0  0  0  0  0  0  0  0
  140.6820   70.0490  225.7580 C   0  0  0  0  0  0  0  0  0  0  0  0
  141.0220   69.7200  227.0790 C   0  0  0  0  0  0  0  0  0  0  0  0
  141.0240   71.2250  224.8880 C   0  0  0  0  0  0  0  0  0  0  0  0
  140.3100   70.8960  223.6320 C   0  0  0  0  0  0  0  0  0  0  0  0
  140.2450   71.7070  222.4090 C   0  0  0  0  0  0  0  0  0  0  0  0
  140.5390   71.1150  221.1930 C   0  0  0  0  0  0  0  0  0  0  0  0
  140.5110   71.9030  220.0610 C   0  0  0  0  0  0  0  0  0  0  0  0
  140.2040   73.2590  220.0930 C   0  0  0  0  0  0  0  0  0  0  0  0
  139.9140   73.8350  221.3070 C   0  0  0  0  0  0  0  0  0  0  0  0
  139.6330   75.2660  221.4730 C   0  0  0  0  0  0  0  0  0  0  0  0
  140.3050   76.0490  220.7680 O   0  0  0  0  0  0  0  0  0  0  0  0
  138.6380   75.7090  222.3900 N   0  0  0  0  0  0  0  0  0  0  0  0
  138.2860   77.0490  222.6160 C   0  0  0  0  0  0  0  0  0  0  0  0
  137.0320   77.5870  222.4730 C   0  0  0  0  0  0  0  0  0  0  0  0
  136.7370   78.9180  222.7850 C   0  0  0  0  0  0  0  0  0  0  0  0
  137.7630   79.7430  223.2630 C   0  0  0  0  0  0  0  0  0  0  0  0
  137.4700   81.1200  223.6040 C   0  0  0  0  0  0  0  0  0  0  0  0
  138.2670   81.9830  223.0920 O   0  0  0  0  0  0  0  0  0  0  0  0
  136.4420   81.6030  224.4050 N   0  0  0  0  0  0  0  0  0  0  0  0
  135.4440   80.7480  225.0710 C   0  0  0  0  0  0  0  0  0  0  0  0
  134.7540   81.5510  226.1560 C   0  0  0  0  0  0  0  0  0  0  0  0
  135.6200   82.3750  226.9340 N   0  0  0  0  0  0  0  0  0  0  0  0
  136.1880   81.7720  228.0960 C   0  0  0  0  0  0  0  0  0  0  0  0
  136.5630   83.1650  226.1600 C   0  0  0  0  0  0  0  0  0  0  0  0
  136.2590   83.0350  224.6710 C   0  0  0  0  0  0  0  0  0  0  0  0
  139.0490   79.2160  223.4140 C   0  0  0  0  0  0  0  0  0  0  0  0
  139.2790   77.9000  223.0930 C   0  0  0  0  0  0  0  0  0  0  0  0
  139.9450   73.0370  222.4120 C   0  0  0  0  0  0  0  0  0  0  0  0
  139.6890   69.7710  223.7350 N   0  0  0  0  0  0  0  0  0  0  0  0
  140.3466   68.7987  229.7399 H   0  0  0  0  0  0  0  0  0  0  0  0
  140.5319   67.0955  229.1998 H   0  0  0  0  0  0  0  0  0  0  0  0
  141.9507   68.1972  229.1998 H   0  0  0  0  0  0  0  0  0  0  0  0
  139.3629   66.7686  227.3154 H   0  0  0  0  0  0  0  0  0  0  0  0
  138.7666   67.3433  224.9916 H   0  0  0  0  0  0  0  0  0  0  0  0
  141.6612   70.3946  227.6675 H   0  0  0  0  0  0  0  0  0  0  0  0
  140.6546   72.1652  225.3234 H   0  0  0  0  0  0  0  0  0  0  0  0
  142.1050   71.3802  224.7564 H   0  0  0  0  0  0  0  0  0  0  0  0
  140.7882   70.0454  221.1309 H   0  0  0  0  0  0  0  0  0  0  0  0
  140.7415   71.4386  219.0909 H   0  0  0  0  0  0  0  0  0  0  0  0
  140.1935   73.8562  219.1693 H   0  0  0  0  0  0  0  0  0  0  0  0
  138.1460   74.9400  222.9180 H   0  0  0  0  0  0  0  0  0  0  0  0
  136.2233   76.9433  222.0965 H   0  0  0  0  0  0  0  0  0  0  0  0
  135.7172   79.3100  222.6573 H   0  0  0  0  0  0  0  0  0  0  0  0
  134.7008   80.4065  224.3354 H   0  0  0  0  0  0  0  0  0  0  0  0
  135.9405   79.8724  225.5146 H   0  0  0  0  0  0  0  0  0  0  0  0
  134.0043   82.1985  225.6778 H   0  0  0  0  0  0  0  0  0  0  0  0
  134.3164   80.8194  226.8512 H   0  0  0  0  0  0  0  0  0  0  0  0
  135.7549   82.2318  228.9966 H   0  0  0  0  0  0  0  0  0  0  0  0
  135.9697   80.6939  228.0935 H   0  0  0  0  0  0  0  0  0  0  0  0
  137.2772   81.9256  228.0935 H   0  0  0  0  0  0  0  0  0  0  0  0
  136.4823   84.2211  226.4568 H   0  0  0  0  0  0  0  0  0  0  0  0
  137.5822   82.7985  226.3523 H   0  0  0  0  0  0  0  0  0  0  0  0
  135.2269   83.3463  224.4522 H   0  0  0  0  0  0  0  0  0  0  0  0
  136.9028   83.6715  224.0462 H   0  0  0  0  0  0  0  0  0  0  0  0
  139.8685   79.8485  223.7860 H   0  0  0  0  0  0  0  0  0  0  0  0
  140.2959   77.5000  223.2189 H   0  0  0  0  0  0  0  0  0  0  0  0
  139.7098   73.5021  223.3807 H   0  0  0  0  0  0  0  0  0  0  0  0
  1  2  1  0
  2  3  2  0
  3  4  1  0
  4  5  2  0
  5  6  1  0
  6  7  2  0
  6  8  1  0
  8  9  1  0
  9 10  1  0
 10 11  2  0
 11 12  1  0
 12 13  2  0
 13 14  1  0
 14 15  1  0
 15 16  2  0
 15 17  1  0
 17 18  1  0
 18 19  2  0
 19 20  1  0
 20 21  2  0
 21 22  1  0
 22 23  2  0
 22 24  1  0
 24 25  1  0
 25 26  1  0
 26 27  1  0
 27 28  1  0
 27 29  1  0
 29 30  1  0
 21 31  1  0
 31 32  2  0
 14 33  2  0
  9 34  2  0
  7  2  1  0
 33 10  1  0
 34  5  1  0
 32 18  1  0
 30 24  1  0
  1 35  1  0
  1 36  1  0
  1 37  1  0
  3 38  1  0
  4 39  1  0
  7 40  1  0
  8 41  1  0
  8 42  1  0
 11 43  1  0
 12 44  1  0
 13 45  1  0
 17 46  1  0
 19 47  1  0
 20 48  1  0
 25 49  1  0
 25 50  1  0
 26 51  1  0
 26 52  1  0
 28 53  1  0
 28 54  1  0
 28 55  1  0
 29 56  1  0
 29 57  1  0
 30 58  1  0
 30 59  1  0
 31 60  1  0
 32 61  1  0
 33 62  1  0
M  END
>  <smiles>  (36) 
Cc1ccc2c(c1)CC(c1cccc(C(=O)Nc3ccc(C(=O)N4CCN(C)CC4)cc3)c1)=N2

>  <score_type>  (36) 
oracle

>  <origin>  (36) 
autodockgpu

>  <m_score__min__energy>  (36) 
-8.8599999999999994

>  <m_primary>  (36) 
energy

>  <rmsd>  (36) 
8.975676122531466

>  <m_score__min__rmsd>  (36) 
8.975676122531466

>  <meeko>  (36) 
{"free_energy": -8.43, "intermolecular_energy": -9.62, "internal_energy": -0.95, "cluster_size": 7, "cluster_id": 2, "rank_in_cluster": 2}

>  <energy>  (36) 
-8.29

>  <cluster_rmsd>  (36) 
1.49

>  <cluster>  (36) 
1

$$$$

     RDKit          3D

 62 66  0  0  0  0  0  0  0  0999 V2000
  140.4450   68.1660  229.0870 C   0  0  0  0  0  0  0  0  0  0  0  0
  140.5210   69.1830  228.0090 C   0  0  0  0  0  0  0  0  0  0  0  0
  140.9780   70.4600  228.3310 C   0  0  0  0  0  0  0  0  0  0  0  0
  141.0790   71.4490  227.3850 C   0  0  0  0  0  0  0  0  0  0  0  0
  140.7160   71.1670  226.0790 C   0  0  0  0  0  0  0  0  0  0  0  0
  140.2600   69.9190  225.7170 C   0  0  0  0  0  0  0  0  0  0  0  0
  140.1590   68.9130  226.6910 C   0  0  0  0  0  0  0  0  0  0  0  0
  139.9580   69.9370  224.2460 C   0  0  0  0  0  0  0  0  0  0  0  0
  140.3120   71.3270  223.8770 C   0  0  0  0  0  0  0  0  0  0  0  0
  140.2570   71.9320  222.5400 C   0  0  0  0  0  0  0  0  0  0  0  0
  140.3110   71.1100  221.4270 C   0  0  0  0  0  0  0  0  0  0  0  0
  140.3000   71.7000  220.1790 C   0  0  0  0  0  0  0  0  0  0  0  0
  140.2380   73.0780  219.9970 C   0  0  0  0  0  0  0  0  0  0  0  0
  140.1840   73.8830  221.1110 C   0  0  0  0  0  0  0  0  0  0  0  0
  140.1750   75.3490  221.0450 C   0  0  0  0  0  0  0  0  0  0  0  0
  139.1900   75.8740  220.4820 O   0  0  0  0  0  0  0  0  0  0  0  0
  141.2410   76.1080  221.6080 N   0  0  0  0  0  0  0  0  0  0  0  0
  141.3240   77.5090  221.6070 C   0  0  0  0  0  0  0  0  0  0  0  0
  141.7640   78.2880  220.5670 C   0  0  0  0  0  0  0  0  0  0  0  0
  141.7540   79.6860  220.6080 C   0  0  0  0  0  0  0  0  0  0  0  0
  141.2770   80.3240  221.7610 C   0  0  0  0  0  0  0  0  0  0  0  0
  141.2460   81.7710  221.8130 C   0  0  0  0  0  0  0  0  0  0  0  0
  141.8210   82.2850  222.8370 O   0  0  0  0  0  0  0  0  0  0  0  0
  140.6780   82.6490  220.8980 N   0  0  0  0  0  0  0  0  0  0  0  0
  139.9770   82.2240  219.6730 C   0  0  0  0  0  0  0  0  0  0  0  0
  139.1570   83.3850  219.1480 C   0  0  0  0  0  0  0  0  0  0  0  0
  138.4600   84.1260  220.1480 N   0  0  0  0  0  0  0  0  0  0  0  0
  137.1450   83.6730  220.4670 C   0  0  0  0  0  0  0  0  0  0  0  0
  139.2590   84.4790  221.3100 C   0  0  0  0  0  0  0  0  0  0  0  0
  140.7190   84.1050  221.0760 C   0  0  0  0  0  0  0  0  0  0  0  0
  140.8260   79.5490  222.8330 C   0  0  0  0  0  0  0  0  0  0  0  0
  140.8580   78.1790  222.7340 C   0  0  0  0  0  0  0  0  0  0  0  0
  140.1950   73.2780  222.3320 C   0  0  0  0  0  0  0  0  0  0  0  0
  140.7260   71.9870  224.9050 N   0  0  0  0  0  0  0  0  0  0  0  0
  140.4824   68.6660  230.0661 H   0  0  0  0  0  0  0  0  0  0  0  0
  139.5025   67.6060  228.9970 H   0  0  0  0  0  0  0  0  0  0  0  0
  141.2938   67.4721  228.9970 H   0  0  0  0  0  0  0  0  0  0  0  0
  141.2649   70.6805  229.3698 H   0  0  0  0  0  0  0  0  0  0  0  0
  141.4426   72.4501  227.6600 H   0  0  0  0  0  0  0  0  0  0  0  0
  139.7945   67.9128  226.4139 H   0  0  0  0  0  0  0  0  0  0  0  0
  140.5772   69.2088  223.7017 H   0  0  0  0  0  0  0  0  0  0  0  0
  138.9208   69.6635  224.0024 H   0  0  0  0  0  0  0  0  0  0  0  0
  140.3613   70.0164  221.5344 H   0  0  0  0  0  0  0  0  0  0  0  0
  140.3421   71.0530  219.2904 H   0  0  0  0  0  0  0  0  0  0  0  0
  140.2323   73.5131  218.9867 H   0  0  0  0  0  0  0  0  0  0  0  0
  142.0070   75.5360  222.0540 H   0  0  0  0  0  0  0  0  0  0  0  0
  142.1413   77.7913  219.6610 H   0  0  0  0  0  0  0  0  0  0  0  0
  142.1140   80.2740  219.7509 H   0  0  0  0  0  0  0  0  0  0  0  0
  140.7123   81.9184  218.9141 H   0  0  0  0  0  0  0  0  0  0  0  0
  139.3168   81.3734  219.8979 H   0  0  0  0  0  0  0  0  0  0  0  0
  139.8356   84.0733  218.6228 H   0  0  0  0  0  0  0  0  0  0  0  0
  138.3879   82.9496  218.4930 H   0  0  0  0  0  0  0  0  0  0  0  0
  137.0263   83.6321  221.5598 H   0  0  0  0  0  0  0  0  0  0  0  0
  136.4050   84.3680  220.0435 H   0  0  0  0  0  0  0  0  0  0  0  0
  136.9900   82.6697  220.0435 H   0  0  0  0  0  0  0  0  0  0  0  0
  139.1848   85.5621  221.4870 H   0  0  0  0  0  0  0  0  0  0  0  0
  138.8828   83.9298  222.1857 H   0  0  0  0  0  0  0  0  0  0  0  0
  141.1117   84.5999  220.1755 H   0  0  0  0  0  0  0  0  0  0  0  0
  141.3774   84.4164  221.9003 H   0  0  0  0  0  0  0  0  0  0  0  0
  140.4491   80.0311  223.7470 H   0  0  0  0  0  0  0  0  0  0  0  0
  140.4982   77.5836  223.5861 H   0  0  0  0  0  0  0  0  0  0  0  0
  140.1504   73.9265  223.2194 H   0  0  0  0  0  0  0  0  0  0  0  0
  1  2  1  0
  2  3  2  0
  3  4  1  0
  4  5  2  0
  5  6  1  0
  6  7  2  0
  6  8  1  0
  8  9  1  0
  9 10  1  0
 10 11  2  0
 11 12  1  0
 12 13  2  0
 13 14  1  0
 14 15  1  0
 15 16  2  0
 15 17  1  0
 17 18  1  0
 18 19  2  0
 19 20  1  0
 20 21  2  0
 21 22  1  0
 22 23  2  0
 22 24  1  0
 24 25  1  0
 25 26  1  0
 26 27  1  0
 27 28  1  0
 27 29  1  0
 29 30  1  0
 21 31  1  0
 31 32  2  0
 14 33  2  0
  9 34  2  0
  7  2  1  0
 33 10  1  0
 34  5  1  0
 32 18  1  0
 30 24  1  0
  1 35  1  0
  1 36  1  0
  1 37  1  0
  3 38  1  0
  4 39  1  0
  7 40  1  0
  8 41  1  0
  8 42  1  0
 11 43  1  0
 12 44  1  0
 13 45  1  0
 17 46  1  0
 19 47  1  0
 20 48  1  0
 25 49  1  0
 25 50  1  0
 26 51  1  0
 26 52  1  0
 28 53  1  0
 28 54  1  0
 28 55  1  0
 29 56  1  0
 29 57  1  0
 30 58  1  0
 30 59  1  0
 31 60  1  0
 32 61  1  0
 33 62  1  0
M  END
>  <smiles>  (37) 
Cc1ccc2c(c1)CC(c1cccc(C(=O)Nc3ccc(C(=O)N4CCN(C)CC4)cc3)c1)=N2

>  <score_type>  (37) 
oracle

>  <origin>  (37) 
autodockgpu

>  <m_score__min__energy>  (37) 
-8.8599999999999994

>  <m_primary>  (37) 
energy

>  <rmsd>  (37) 
8.728465210940533

>  <m_score__min__rmsd>  (37) 
8.728465210940533

>  <meeko>  (37) 
{"free_energy": -8.85, "intermolecular_energy": -10.04, "internal_energy": -0.98, "cluster_size": 39, "cluster_id": 1, "rank_in_cluster": 4}

>  <energy>  (37) 
-8.16

>  <cluster_rmsd>  (37) 
0.94

>  <cluster>  (37) 
1

$$$$

     RDKit          3D

 62 66  0  0  0  0  0  0  0  0999 V2000
  140.6450   68.1300  229.0050 C   0  0  0  0  0  0  0  0  0  0  0  0
  140.6690   69.1750  227.9510 C   0  0  0  0  0  0  0  0  0  0  0  0
  141.0300   70.4720  228.3090 C   0  0  0  0  0  0  0  0  0  0  0  0
  141.0770   71.4870  227.3880 C   0  0  0  0  0  0  0  0  0  0  0  0
  140.7580   71.2110  226.0690 C   0  0  0  0  0  0  0  0  0  0  0  0
  140.3970   69.9430  225.6720 C   0  0  0  0  0  0  0  0  0  0  0  0
  140.3500   68.9100  226.6210 C   0  0  0  0  0  0  0  0  0  0  0  0
  140.1200   69.9740  224.1950 C   0  0  0  0  0  0  0  0  0  0  0  0
  140.3820   71.3940  223.8640 C   0  0  0  0  0  0  0  0  0  0  0  0
  140.3090   72.0240  222.5390 C   0  0  0  0  0  0  0  0  0  0  0  0
  140.4700   71.2390  221.4100 C   0  0  0  0  0  0  0  0  0  0  0  0
  140.4380   71.8560  220.1770 C   0  0  0  0  0  0  0  0  0  0  0  0
  140.2540   73.2260  220.0230 C   0  0  0  0  0  0  0  0  0  0  0  0
  140.0940   73.9950  221.1520 C   0  0  0  0  0  0  0  0  0  0  0  0
  139.9510   75.4550  221.1180 C   0  0  0  0  0  0  0  0  0  0  0  0
  138.9100   75.8990  220.5890 O   0  0  0  0  0  0  0  0  0  0  0  0
  140.9560   76.2960  221.6750 N   0  0  0  0  0  0  0  0  0  0  0  0
  140.9120   77.6990  221.7030 C   0  0  0  0  0  0  0  0  0  0  0  0
  140.4210   78.4680  222.7280 C   0  0  0  0  0  0  0  0  0  0  0  0
  140.4730   79.8660  222.7200 C   0  0  0  0  0  0  0  0  0  0  0  0
  141.0490   80.5140  221.6200 C   0  0  0  0  0  0  0  0  0  0  0  0
  141.1230   81.9600  221.6040 C   0  0  0  0  0  0  0  0  0  0  0  0
  141.8230   82.4740  222.5460 O   0  0  0  0  0  0  0  0  0  0  0  0
  140.5350   82.8380  220.7000 N   0  0  0  0  0  0  0  0  0  0  0  0
  139.6970   82.4130  219.5650 C   0  0  0  0  0  0  0  0  0  0  0  0
  138.9140   83.6080  219.0580 C   0  0  0  0  0  0  0  0  0  0  0  0
  138.3640   84.4400  220.0780 N   0  0  0  0  0  0  0  0  0  0  0  0
  137.0560   84.0980  220.5340 C   0  0  0  0  0  0  0  0  0  0  0  0
  139.2900   84.7830  221.1450 C   0  0  0  0  0  0  0  0  0  0  0  0
  140.6930   84.2930  220.8010 C   0  0  0  0  0  0  0  0  0  0  0  0
  141.5530   79.7500  220.5640 C   0  0  0  0  0  0  0  0  0  0  0  0
  141.4750   78.3790  220.6280 C   0  0  0  0  0  0  0  0  0  0  0  0
  140.1270   73.3640  222.3590 C   0  0  0  0  0  0  0  0  0  0  0  0
  140.7310   72.0570  224.9130 N   0  0  0  0  0  0  0  0  0  0  0  0
  140.6560   68.6081  229.9956 H   0  0  0  0  0  0  0  0  0  0  0  0
  139.7327   67.5244  228.9002 H   0  0  0  0  0  0  0  0  0  0  0  0
  141.5285   67.4832  228.9002 H   0  0  0  0  0  0  0  0  0  0  0  0
  141.2839   70.6875  229.3574 H   0  0  0  0  0  0  0  0  0  0  0  0
  141.3636   72.5045  227.6922 H   0  0  0  0  0  0  0  0  0  0  0  0
  140.0619   67.8934  226.3153 H   0  0  0  0  0  0  0  0  0  0  0  0
  140.7983   69.3038  223.6467 H   0  0  0  0  0  0  0  0  0  0  0  0
  139.1091   69.6343  223.9254 H   0  0  0  0  0  0  0  0  0  0  0  0
  140.6194   70.1524  221.4942 H   0  0  0  0  0  0  0  0  0  0  0  0
  140.5635   71.2376  219.2760 H   0  0  0  0  0  0  0  0  0  0  0  0
  140.2369   73.6833  219.0227 H   0  0  0  0  0  0  0  0  0  0  0  0
  141.7810   75.7880  222.0920 H   0  0  0  0  0  0  0  0  0  0  0  0
  139.9668   77.9633  223.5935 H   0  0  0  0  0  0  0  0  0  0  0  0
  140.0687   80.4460  223.5627 H   0  0  0  0  0  0  0  0  0  0  0  0
  140.3365   82.0220  218.7599 H   0  0  0  0  0  0  0  0  0  0  0  0
  139.0033   81.6233  219.8892 H   0  0  0  0  0  0  0  0  0  0  0  0
  139.5875   84.2219  218.4420 H   0  0  0  0  0  0  0  0  0  0  0  0
  138.0600   83.2024  218.4957 H   0  0  0  0  0  0  0  0  0  0  0  0
  137.0405   84.0940  221.6339 H   0  0  0  0  0  0  0  0  0  0  0  0
  136.3323   84.8371  220.1598 H   0  0  0  0  0  0  0  0  0  0  0  0
  136.7867   83.0993  220.1598 H   0  0  0  0  0  0  0  0  0  0  0  0
  139.3078   85.8753  221.2738 H   0  0  0  0  0  0  0  0  0  0  0  0
  138.9593   84.3009  222.0768 H   0  0  0  0  0  0  0  0  0  0  0  0
  141.0343   84.7183  219.8457 H   0  0  0  0  0  0  0  0  0  0  0  0
  141.4446   84.5906  221.5470 H   0  0  0  0  0  0  0  0  0  0  0  0
  142.0074   80.2406  219.6906 H   0  0  0  0  0  0  0  0  0  0  0  0
  141.8769   77.7917  219.7892 H   0  0  0  0  0  0  0  0  0  0  0  0
  139.9967   73.9834  223.2587 H   0  0  0  0  0  0  0  0  0  0  0  0
  1  2  1  0
  2  3  2  0
  3  4  1  0
  4  5  2  0
  5  6  1  0
  6  7  2  0
  6  8  1  0
  8  9  1  0
  9 10  1  0
 10 11  2  0
 11 12  1  0
 12 13  2  0
 13 14  1  0
 14 15  1  0
 15 16  2  0
 15 17  1  0
 17 18  1  0
 18 19  2  0
 19 20  1  0
 20 21  2  0
 21 22  1  0
 22 23  2  0
 22 24  1  0
 24 25  1  0
 25 26  1  0
 26 27  1  0
 27 28  1  0
 27 29  1  0
 29 30  1  0
 21 31  1  0
 31 32  2  0
 14 33  2  0
  9 34  2  0
  7  2  1  0
 33 10  1  0
 34  5  1  0
 32 18  1  0
 30 24  1  0
  1 35  1  0
  1 36  1  0
  1 37  1  0
  3 38  1  0
  4 39  1  0
  7 40  1  0
  8 41  1  0
  8 42  1  0
 11 43  1  0
 12 44  1  0
 13 45  1  0
 17 46  1  0
 19 47  1  0
 20 48  1  0
 25 49  1  0
 25 50  1  0
 26 51  1  0
 26 52  1  0
 28 53  1  0
 28 54  1  0
 28 55  1  0
 29 56  1  0
 29 57  1  0
 30 58  1  0
 30 59  1  0
 31 60  1  0
 32 61  1  0
 33 62  1  0
M  END
>  <smiles>  (38) 
Cc1ccc2c(c1)CC(c1cccc(C(=O)Nc3ccc(C(=O)N4CCN(C)CC4)cc3)c1)=N2

>  <score_type>  (38) 
oracle

>  <origin>  (38) 
autodockgpu

>  <m_score__min__energy>  (38) 
-8.8599999999999994

>  <m_primary>  (38) 
energy

>  <rmsd>  (38) 
8.87325821954587

>  <m_score__min__rmsd>  (38) 
8.87325821954587

>  <meeko>  (38) 
{"free_energy": -8.58, "intermolecular_energy": -9.78, "internal_energy": -0.99, "cluster_size": 39, "cluster_id": 1, "rank_in_cluster": 19}

>  <energy>  (38) 
-7.98

>  <cluster_rmsd>  (38) 
0.82

>  <cluster>  (38) 
1

$$$$

     RDKit          3D

 62 66  0  0  0  0  0  0  0  0999 V2000
  141.1010   67.9740  229.1140 C   0  0  0  0  0  0  0  0  0  0  0  0
  140.7150   68.3940  227.7440 C   0  0  0  0  0  0  0  0  0  0  0  0
  139.9350   67.5290  226.9790 C   0  0  0  0  0  0  0  0  0  0  0  0
  139.5380   67.8530  225.7060 C   0  0  0  0  0  0  0  0  0  0  0  0
  139.9230   69.0720  225.1730 C   0  0  0  0  0  0  0  0  0  0  0  0
  140.6930   69.9560  225.8950 C   0  0  0  0  0  0  0  0  0  0  0  0
  141.0960   69.6170  227.1960 C   0  0  0  0  0  0  0  0  0  0  0  0
  140.9320   71.1720  225.0470 C   0  0  0  0  0  0  0  0  0  0  0  0
  140.1990   70.8300  223.8060 C   0  0  0  0  0  0  0  0  0  0  0  0
  140.0440   71.6650  222.6070 C   0  0  0  0  0  0  0  0  0  0  0  0
  140.1810   71.0830  221.3590 C   0  0  0  0  0  0  0  0  0  0  0  0
  140.0720   71.8910  220.2460 C   0  0  0  0  0  0  0  0  0  0  0  0
  139.8320   73.2590  220.3290 C   0  0  0  0  0  0  0  0  0  0  0  0
  139.6970   73.8250  221.5750 C   0  0  0  0  0  0  0  0  0  0  0  0
  139.5010   75.2630  221.7890 C   0  0  0  0  0  0  0  0  0  0  0  0
  140.4400   76.0100  221.4380 O   0  0  0  0  0  0  0  0  0  0  0  0
  138.2920   75.7550  222.3580 N   0  0  0  0  0  0  0  0  0  0  0  0
  138.0010   77.1080  222.5950 C   0  0  0  0  0  0  0  0  0  0  0  0
  136.7720   77.7030  222.4580 C   0  0  0  0  0  0  0  0  0  0  0  0
  136.5370   79.0430  222.7790 C   0  0  0  0  0  0  0  0  0  0  0  0
  137.6000   79.8180  223.2620 C   0  0  0  0  0  0  0  0  0  0  0  0
  137.3690   81.2040  223.6130 C   0  0  0  0  0  0  0  0  0  0  0  0
  138.2030   82.0340  223.1060 O   0  0  0  0  0  0  0  0  0  0  0  0
  136.3640   81.7260  224.4200 N   0  0  0  0  0  0  0  0  0  0  0  0
  135.3310   80.9110  225.0820 C   0  0  0  0  0  0  0  0  0  0  0  0
  134.6790   81.7360  226.1740 C   0  0  0  0  0  0  0  0  0  0  0  0
  135.5820   82.5150  226.9560 N   0  0  0  0  0  0  0  0  0  0  0  0
  136.1240   81.8800  228.1130 C   0  0  0  0  0  0  0  0  0  0  0  0
  136.5580   83.2690  226.1860 C   0  0  0  0  0  0  0  0  0  0  0  0
  136.2460   83.1630  224.6960 C   0  0  0  0  0  0  0  0  0  0  0  0
  138.8610   79.2320  223.4070 C   0  0  0  0  0  0  0  0  0  0  0  0
  139.0310   77.9100  223.0760 C   0  0  0  0  0  0  0  0  0  0  0  0
  139.8070   73.0070  222.6590 C   0  0  0  0  0  0  0  0  0  0  0  0
  139.6520   69.6660  223.8980 N   0  0  0  0  0  0  0  0  0  0  0  0
  140.5485   68.5751  229.8511 H   0  0  0  0  0  0  0  0  0  0  0  0
  140.8590   66.9100  229.2532 H   0  0  0  0  0  0  0  0  0  0  0  0
  142.1816   68.1255  229.2532 H   0  0  0  0  0  0  0  0  0  0  0  0
  139.6299   66.5624  227.4062 H   0  0  0  0  0  0  0  0  0  0  0  0
  138.9235   67.1554  225.1180 H   0  0  0  0  0  0  0  0  0  0  0  0
  141.7115   70.3155  227.7819 H   0  0  0  0  0  0  0  0  0  0  0  0
  140.5193   72.0759  225.5189 H   0  0  0  0  0  0  0  0  0  0  0  0
  141.9963   71.3984  224.8857 H   0  0  0  0  0  0  0  0  0  0  0  0
  140.3718   70.0045  221.2570 H   0  0  0  0  0  0  0  0  0  0  0  0
  140.1794   71.4344  219.2510 H   0  0  0  0  0  0  0  0  0  0  0  0
  139.7522   73.8730  219.4198 H   0  0  0  0  0  0  0  0  0  0  0  0
  137.5830   75.0140  222.6050 H   0  0  0  0  0  0  0  0  0  0  0  0
  135.9348   77.0987  222.0788 H   0  0  0  0  0  0  0  0  0  0  0  0
  135.5358   79.4813  222.6548 H   0  0  0  0  0  0  0  0  0  0  0  0
  134.5722   80.6076  224.3457 H   0  0  0  0  0  0  0  0  0  0  0  0
  135.7894   80.0113  225.5183 H   0  0  0  0  0  0  0  0  0  0  0  0
  133.9580   82.4196  225.7019 H   0  0  0  0  0  0  0  0  0  0  0  0
  134.2104   81.0196  226.8648 H   0  0  0  0  0  0  0  0  0  0  0  0
  135.7173   82.3565  229.0172 H   0  0  0  0  0  0  0  0  0  0  0  0
  135.8531   80.8139  228.1069 H   0  0  0  0  0  0  0  0  0  0  0  0
  137.2194   81.9800  228.1069 H   0  0  0  0  0  0  0  0  0  0  0  0
  136.5240   84.3255  226.4905 H   0  0  0  0  0  0  0  0  0  0  0  0
  137.5606   82.8572  226.3740 H   0  0  0  0  0  0  0  0  0  0  0  0
  135.2286   83.5219  224.4813 H   0  0  0  0  0  0  0  0  0  0  0  0
  136.9168   83.7741  224.0743 H   0  0  0  0  0  0  0  0  0  0  0  0
  139.7087   79.8240  223.7825 H   0  0  0  0  0  0  0  0  0  0  0  0
  140.0292   77.4640  223.1970 H   0  0  0  0  0  0  0  0  0  0  0  0
  139.6961   73.4645  223.6532 H   0  0  0  0  0  0  0  0  0  0  0  0
  1  2  1  0
  2  3  2  0
  3  4  1  0
  4  5  2  0
  5  6  1  0
  6  7  2  0
  6  8  1  0
  8  9  1  0
  9 10  1  0
 10 11  2  0
 11 12  1  0
 12 13  2  0
 13 14  1  0
 14 15  1  0
 15 16  2  0
 15 17  1  0
 17 18  1  0
 18 19  2  0
 19 20  1  0
 20 21  2  0
 21 22  1  0
 22 23  2  0
 22 24  1  0
 24 25  1  0
 25 26  1  0
 26 27  1  0
 27 28  1  0
 27 29  1  0
 29 30  1  0
 21 31  1  0
 31 32  2  0
 14 33  2  0
  9 34  2  0
  7  2  1  0
 33 10  1  0
 34  5  1  0
 32 18  1  0
 30 24  1  0
  1 35  1  0
  1 36  1  0
  1 37  1  0
  3 38  1  0
  4 39  1  0
  7 40  1  0
  8 41  1  0
  8 42  1  0
 11 43  1  0
 12 44  1  0
 13 45  1  0
 17 46  1  0
 19 47  1  0
 20 48  1  0
 25 49  1  0
 25 50  1  0
 26 51  1  0
 26 52  1  0
 28 53  1  0
 28 54  1  0
 28 55  1  0
 29 56  1  0
 29 57  1  0
 30 58  1  0
 30 59  1  0
 31 60  1  0
 32 61  1  0
 33 62  1  0
M  END
>  <smiles>  (39) 
Cc1ccc2c(c1)CC(c1cccc(C(=O)Nc3ccc(C(=O)N4CCN(C)CC4)cc3)c1)=N2

>  <score_type>  (39) 
oracle

>  <origin>  (39) 
autodockgpu

>  <m_score__min__energy>  (39) 
-8.8599999999999994

>  <m_primary>  (39) 
energy

>  <rmsd>  (39) 
9.10415989734365

>  <m_score__min__rmsd>  (39) 
9.10415989734365

>  <meeko>  (39) 
{"free_energy": -8.08, "intermolecular_energy": -9.27, "internal_energy": -0.91, "cluster_size": 7, "cluster_id": 2, "rank_in_cluster": 7}

>  <energy>  (39) 
-7.87

>  <cluster_rmsd>  (39) 
1.33

>  <cluster>  (39) 
1

$$$$

     RDKit          3D

 62 66  0  0  0  0  0  0  0  0999 V2000
  140.5890   68.1300  229.0930 C   0  0  0  0  0  0  0  0  0  0  0  0
  140.6190   69.1510  228.0160 C   0  0  0  0  0  0  0  0  0  0  0  0
  141.0250   70.4440  228.3380 C   0  0  0  0  0  0  0  0  0  0  0  0
  141.0810   71.4380  227.3930 C   0  0  0  0  0  0  0  0  0  0  0  0
  140.7250   71.1430  226.0880 C   0  0  0  0  0  0  0  0  0  0  0  0
  140.3190   69.8780  225.7270 C   0  0  0  0  0  0  0  0  0  0  0  0
  140.2630   68.8670  226.7000 C   0  0  0  0  0  0  0  0  0  0  0  0
  140.0100   69.8850  224.2570 C   0  0  0  0  0  0  0  0  0  0  0  0
  140.3050   71.2890  223.8890 C   0  0  0  0  0  0  0  0  0  0  0  0
  140.2200   71.8920  222.5520 C   0  0  0  0  0  0  0  0  0  0  0  0
  140.2510   71.0700  221.4390 C   0  0  0  0  0  0  0  0  0  0  0  0
  140.2110   71.6590  220.1920 C   0  0  0  0  0  0  0  0  0  0  0  0
  140.1430   73.0360  220.0100 C   0  0  0  0  0  0  0  0  0  0  0  0
  140.1140   73.8420  221.1230 C   0  0  0  0  0  0  0  0  0  0  0  0
  140.1020   75.3080  221.0560 C   0  0  0  0  0  0  0  0  0  0  0  0
  139.0840   75.8340  220.5570 O   0  0  0  0  0  0  0  0  0  0  0  0
  141.2020   76.0660  221.5500 N   0  0  0  0  0  0  0  0  0  0  0  0
  141.2870   77.4670  221.5420 C   0  0  0  0  0  0  0  0  0  0  0  0
  141.7670   78.2390  220.5140 C   0  0  0  0  0  0  0  0  0  0  0  0
  141.7560   79.6370  220.5450 C   0  0  0  0  0  0  0  0  0  0  0  0
  141.2360   80.2830  221.6730 C   0  0  0  0  0  0  0  0  0  0  0  0
  141.2050   81.7310  221.7150 C   0  0  0  0  0  0  0  0  0  0  0  0
  141.8160   82.2550  222.7110 O   0  0  0  0  0  0  0  0  0  0  0  0
  140.6010   82.6000  220.8130 N   0  0  0  0  0  0  0  0  0  0  0  0
  139.8550   82.1630  219.6200 C   0  0  0  0  0  0  0  0  0  0  0  0
  139.0130   83.3180  219.1160 C   0  0  0  0  0  0  0  0  0  0  0  0
  138.3530   84.0670  220.1350 N   0  0  0  0  0  0  0  0  0  0  0  0
  137.0520   83.6140  220.5070 C   0  0  0  0  0  0  0  0  0  0  0  0
  139.1950   84.4320  221.2620 C   0  0  0  0  0  0  0  0  0  0  0  0
  140.6450   84.0580  220.9760 C   0  0  0  0  0  0  0  0  0  0  0  0
  140.7440   79.5170  222.7330 C   0  0  0  0  0  0  0  0  0  0  0  0
  140.7780   78.1460  222.6460 C   0  0  0  0  0  0  0  0  0  0  0  0
  140.1520   73.2390  222.3450 C   0  0  0  0  0  0  0  0  0  0  0  0
  140.6960   71.9640  224.9150 N   0  0  0  0  0  0  0  0  0  0  0  0
  140.6037   68.6299  230.0727 H   0  0  0  0  0  0  0  0  0  0  0  0
  139.6728   67.5281  229.0022 H   0  0  0  0  0  0  0  0  0  0  0  0
  141.4683   67.4753  229.0022 H   0  0  0  0  0  0  0  0  0  0  0  0
  141.3079   70.6743  229.3758 H   0  0  0  0  0  0  0  0  0  0  0  0
  141.4036   72.4530  227.6682 H   0  0  0  0  0  0  0  0  0  0  0  0
  139.9387   67.8530  226.4233 H   0  0  0  0  0  0  0  0  0  0  0  0
  140.6563   69.1836  223.7090 H   0  0  0  0  0  0  0  0  0  0  0  0
  138.9840   69.5690  224.0172 H   0  0  0  0  0  0  0  0  0  0  0  0
  140.3061   69.9766  221.5457 H   0  0  0  0  0  0  0  0  0  0  0  0
  140.2339   71.0113  219.3032 H   0  0  0  0  0  0  0  0  0  0  0  0
  140.1132   73.4698  218.9996 H   0  0  0  0  0  0  0  0  0  0  0  0
  141.9940   75.4940  221.9470 H   0  0  0  0  0  0  0  0  0  0  0  0
  142.1785   77.7360  219.6265 H   0  0  0  0  0  0  0  0  0  0  0  0
  142.1489   80.2188  219.6982 H   0  0  0  0  0  0  0  0  0  0  0  0
  140.5615   81.8518  218.8364 H   0  0  0  0  0  0  0  0  0  0  0  0
  139.2055   81.3134  219.8776 H   0  0  0  0  0  0  0  0  0  0  0  0
  139.6697   84.0026  218.5591 H   0  0  0  0  0  0  0  0  0  0  0  0
  138.2204   82.8753  218.4949 H   0  0  0  0  0  0  0  0  0  0  0  0
  136.9730   83.5865  221.6038 H   0  0  0  0  0  0  0  0  0  0  0  0
  136.2947   84.3013  220.1020 H   0  0  0  0  0  0  0  0  0  0  0  0
  136.8854   82.6049  220.1020 H   0  0  0  0  0  0  0  0  0  0  0  0
  139.1258   85.5167  221.4315 H   0  0  0  0  0  0  0  0  0  0  0  0
  138.8535   83.8906  222.1565 H   0  0  0  0  0  0  0  0  0  0  0  0
  141.0020   84.5451  220.0566 H   0  0  0  0  0  0  0  0  0  0  0  0
  141.3334   84.3780  221.7721 H   0  0  0  0  0  0  0  0  0  0  0  0
  140.3335   80.0067  223.6284 H   0  0  0  0  0  0  0  0  0  0  0  0
  140.3847   77.5574  223.4879 H   0  0  0  0  0  0  0  0  0  0  0  0
  140.1258   73.8883  223.2325 H   0  0  0  0  0  0  0  0  0  0  0  0
  1  2  1  0
  2  3  2  0
  3  4  1  0
  4  5  2  0
  5  6  1  0
  6  7  2  0
  6  8  1  0
  8  9  1  0
  9 10  1  0
 10 11  2  0
 11 12  1  0
 12 13  2  0
 13 14  1  0
 14 15  1  0
 15 16  2  0
 15 17  1  0
 17 18  1  0
 18 19  2  0
 19 20  1  0
 20 21  2  0
 21 22  1  0
 22 23  2  0
 22 24  1  0
 24 25  1  0
 25 26  1  0
 26 27  1  0
 27 28  1  0
 27 29  1  0
 29 30  1  0
 21 31  1  0
 31 32  2  0
 14 33  2  0
  9 34  2  0
  7  2  1  0
 33 10  1  0
 34  5  1  0
 32 18  1  0
 30 24  1  0
  1 35  1  0
  1 36  1  0
  1 37  1  0
  3 38  1  0
  4 39  1  0
  7 40  1  0
  8 41  1  0
  8 42  1  0
 11 43  1  0
 12 44  1  0
 13 45  1  0
 17 46  1  0
 19 47  1  0
 20 48  1  0
 25 49  1  0
 25 50  1  0
 26 51  1  0
 26 52  1  0
 28 53  1  0
 28 54  1  0
 28 55  1  0
 29 56  1  0
 29 57  1  0
 30 58  1  0
 30 59  1  0
 31 60  1  0
 32 61  1  0
 33 62  1  0
M  END
>  <smiles>  (40) 
Cc1ccc2c(c1)CC(c1cccc(C(=O)Nc3ccc(C(=O)N4CCN(C)CC4)cc3)c1)=N2

>  <score_type>  (40) 
oracle

>  <origin>  (40) 
autodockgpu

>  <m_score__min__energy>  (40) 
-8.8599999999999994

>  <m_primary>  (40) 
energy

>  <rmsd>  (40) 
8.713901985088793

>  <m_score__min__rmsd>  (40) 
8.713901985088793

>  <meeko>  (40) 
{"free_energy": -8.83, "intermolecular_energy": -10.03, "internal_energy": -0.99, "cluster_size": 39, "cluster_id": 1, "rank_in_cluster": 9}

>  <energy>  (40) 
-8.51

>  <cluster_rmsd>  (40) 
0.0

>  <cluster>  (40) 
2

$$$$

     RDKit          3D

 62 66  0  0  0  0  0  0  0  0999 V2000
  140.7660   68.1430  229.0990 C   0  0  0  0  0  0  0  0  0  0  0  0
  140.4710   68.5300  227.6970 C   0  0  0  0  0  0  0  0  0  0  0  0
  139.6330   67.7090  226.9430 C   0  0  0  0  0  0  0  0  0  0  0  0
  139.3140   68.0060  225.6430 C   0  0  0  0  0  0  0  0  0  0  0  0
  139.8380   69.1510  225.0680 C   0  0  0  0  0  0  0  0  0  0  0  0
  140.6690   69.9900  225.7760 C   0  0  0  0  0  0  0  0  0  0  0  0
  140.9920   69.6790  227.1070 C   0  0  0  0  0  0  0  0  0  0  0  0
  141.0600   71.1310  224.8810 C   0  0  0  0  0  0  0  0  0  0  0  0
  140.3380   70.8010  223.6310 C   0  0  0  0  0  0  0  0  0  0  0  0
  140.3080   71.5850  222.3890 C   0  0  0  0  0  0  0  0  0  0  0  0
  140.5220   70.9420  221.1820 C   0  0  0  0  0  0  0  0  0  0  0  0
  140.5300   71.7020  220.0300 C   0  0  0  0  0  0  0  0  0  0  0  0
  140.3360   73.0800  220.0350 C   0  0  0  0  0  0  0  0  0  0  0  0
  140.1250   73.7060  221.2400 C   0  0  0  0  0  0  0  0  0  0  0  0
  139.9660   75.1590  221.3760 C   0  0  0  0  0  0  0  0  0  0  0  0
  138.7940   75.5940  221.3590 O   0  0  0  0  0  0  0  0  0  0  0  0
  141.1030   76.0020  221.5260 N   0  0  0  0  0  0  0  0  0  0  0  0
  141.0610   77.3980  221.6720 C   0  0  0  0  0  0  0  0  0  0  0  0
  140.5160   78.0800  222.7300 C   0  0  0  0  0  0  0  0  0  0  0  0
  140.5720   79.4730  222.8460 C   0  0  0  0  0  0  0  0  0  0  0  0
  141.2100   80.2080  221.8400 C   0  0  0  0  0  0  0  0  0  0  0  0
  141.2890   81.6500  221.9520 C   0  0  0  0  0  0  0  0  0  0  0  0
  141.8140   82.0780  223.0410 O   0  0  0  0  0  0  0  0  0  0  0  0
  140.8710   82.6050  221.0320 N   0  0  0  0  0  0  0  0  0  0  0  0
  140.2450   82.2840  219.7380 C   0  0  0  0  0  0  0  0  0  0  0  0
  139.5650   83.5270  219.1990 C   0  0  0  0  0  0  0  0  0  0  0  0
  138.8460   84.2850  220.1700 N   0  0  0  0  0  0  0  0  0  0  0  0
  137.4780   83.9300  220.3610 C   0  0  0  0  0  0  0  0  0  0  0  0
  139.5700   84.5290  221.4060 C   0  0  0  0  0  0  0  0  0  0  0  0
  141.0110   84.0450  221.2760 C   0  0  0  0  0  0  0  0  0  0  0  0
  141.7700   79.5340  220.7510 C   0  0  0  0  0  0  0  0  0  0  0  0
  141.6860   78.1640  220.6920 C   0  0  0  0  0  0  0  0  0  0  0  0
  140.1190   72.9350  222.3640 C   0  0  0  0  0  0  0  0  0  0  0  0
  139.6730   69.7040  223.7570 N   0  0  0  0  0  0  0  0  0  0  0  0
  140.2449   68.8266  229.7855 H   0  0  0  0  0  0  0  0  0  0  0  0
  140.4216   67.1133  229.2754 H   0  0  0  0  0  0  0  0  0  0  0  0
  141.8502   68.2023  229.2754 H   0  0  0  0  0  0  0  0  0  0  0  0
  139.2174   66.8002  227.4028 H   0  0  0  0  0  0  0  0  0  0  0  0
  138.6516   67.3443  225.0656 H   0  0  0  0  0  0  0  0  0  0  0  0
  141.6552   70.3417  227.6824 H   0  0  0  0  0  0  0  0  0  0  0  0
  140.7265   72.0949  225.2930 H   0  0  0  0  0  0  0  0  0  0  0  0
  142.1467   71.2409  224.7505 H   0  0  0  0  0  0  0  0  0  0  0  0
  140.6814   69.8543  221.1421 H   0  0  0  0  0  0  0  0  0  0  0  0
  140.6968   71.1971  219.0671 H   0  0  0  0  0  0  0  0  0  0  0  0
  140.3512   73.6543  219.0970 H   0  0  0  0  0  0  0  0  0  0  0  0
  142.0320   75.5020  221.5250 H   0  0  0  0  0  0  0  0  0  0  0  0
  140.0127   77.5063  223.5222 H   0  0  0  0  0  0  0  0  0  0  0  0
  140.1229   79.9814  223.7119 H   0  0  0  0  0  0  0  0  0  0  0  0
  141.0154   81.9476  219.0286 H   0  0  0  0  0  0  0  0  0  0  0  0
  139.5038   81.4822  219.8716 H   0  0  0  0  0  0  0  0  0  0  0  0
  140.3371   84.1767  218.7611 H   0  0  0  0  0  0  0  0  0  0  0  0
  138.8223   83.1799  218.4656 H   0  0  0  0  0  0  0  0  0  0  0  0
  137.2607   83.8736  221.4378 H   0  0  0  0  0  0  0  0  0  0  0  0
  136.8335   84.6906  219.8962 H   0  0  0  0  0  0  0  0  0  0  0  0
  137.2847   82.9519  219.8962 H   0  0  0  0  0  0  0  0  0  0  0  0
  139.5669   85.6075  221.6222 H   0  0  0  0  0  0  0  0  0  0  0  0
  139.0794   83.9810  222.2239 H   0  0  0  0  0  0  0  0  0  0  0  0
  141.5165   84.5388  220.4330 H   0  0  0  0  0  0  0  0  0  0  0  0
  141.6193   84.2707  222.1643 H   0  0  0  0  0  0  0  0  0  0  0  0
  142.2729   80.0948  219.9494 H   0  0  0  0  0  0  0  0  0  0  0  0
  142.1337   77.6481  219.8298 H   0  0  0  0  0  0  0  0  0  0  0  0
  139.9484   73.4413  223.3256 H   0  0  0  0  0  0  0  0  0  0  0  0
  1  2  1  0
  2  3  2  0
  3  4  1  0
  4  5  2  0
  5  6  1  0
  6  7  2  0
  6  8  1  0
  8  9  1  0
  9 10  1  0
 10 11  2  0
 11 12  1  0
 12 13  2  0
 13 14  1  0
 14 15  1  0
 15 16  2  0
 15 17  1  0
 17 18  1  0
 18 19  2  0
 19 20  1  0
 20 21  2  0
 21 22  1  0
 22 23  2  0
 22 24  1  0
 24 25  1  0
 25 26  1  0
 26 27  1  0
 27 28  1  0
 27 29  1  0
 29 30  1  0
 21 31  1  0
 31 32  2  0
 14 33  2  0
  9 34  2  0
  7  2  1  0
 33 10  1  0
 34  5  1  0
 32 18  1  0
 30 24  1  0
  1 35  1  0
  1 36  1  0
  1 37  1  0
  3 38  1  0
  4 39  1  0
  7 40  1  0
  8 41  1  0
  8 42  1  0
 11 43  1  0
 12 44  1  0
 13 45  1  0
 17 46  1  0
 19 47  1  0
 20 48  1  0
 25 49  1  0
 25 50  1  0
 26 51  1  0
 26 52  1  0
 28 53  1  0
 28 54  1  0
 28 55  1  0
 29 56  1  0
 29 57  1  0
 30 58  1  0
 30 59  1  0
 31 60  1  0
 32 61  1  0
 33 62  1  0
M  END
>  <smiles>  (41) 
Cc1ccc2c(c1)CC(c1cccc(C(=O)Nc3ccc(C(=O)N4CCN(C)CC4)cc3)c1)=N2

>  <score_type>  (41) 
oracle

>  <origin>  (41) 
autodockgpu

>  <m_score__min__energy>  (41) 
-8.8599999999999994

>  <m_primary>  (41) 
energy

>  <rmsd>  (41) 
8.736693659871168

>  <m_score__min__rmsd>  (41) 
8.736693659871168

>  <meeko>  (41) 
{"free_energy": -8.5, "intermolecular_energy": -9.69, "internal_energy": -0.97, "cluster_size": 39, "cluster_id": 1, "rank_in_cluster": 25}

>  <energy>  (41) 
-8.43

>  <cluster_rmsd>  (41) 
0.14

>  <cluster>  (41) 
2

$$$$

     RDKit          3D

 62 66  0  0  0  0  0  0  0  0999 V2000
  140.3660   68.1360  229.0510 C   0  0  0  0  0  0  0  0  0  0  0  0
  140.4720   69.1630  227.9840 C   0  0  0  0  0  0  0  0  0  0  0  0
  140.9320   70.4330  228.3270 C   0  0  0  0  0  0  0  0  0  0  0  0
  141.0590   71.4300  227.3930 C   0  0  0  0  0  0  0  0  0  0  0  0
  140.7210   71.1630  226.0770 C   0  0  0  0  0  0  0  0  0  0  0  0
  140.2620   69.9220  225.6950 C   0  0  0  0  0  0  0  0  0  0  0  0
  140.1340   68.9070  226.6570 C   0  0  0  0  0  0  0  0  0  0  0  0
  139.9900   69.9550  224.2180 C   0  0  0  0  0  0  0  0  0  0  0  0
  140.3620   71.3460  223.8700 C   0  0  0  0  0  0  0  0  0  0  0  0
  140.3390   71.9640  222.5370 C   0  0  0  0  0  0  0  0  0  0  0  0
  140.5490   71.1690  221.4230 C   0  0  0  0  0  0  0  0  0  0  0  0
  140.5640   71.7750  220.1830 C   0  0  0  0  0  0  0  0  0  0  0  0
  140.3790   73.1420  220.0100 C   0  0  0  0  0  0  0  0  0  0  0  0
  140.1710   73.9210  221.1240 C   0  0  0  0  0  0  0  0  0  0  0  0
  140.0230   75.3790  221.0700 C   0  0  0  0  0  0  0  0  0  0  0  0
  139.0290   75.8150  220.4500 O   0  0  0  0  0  0  0  0  0  0  0  0
  140.9700   76.2300  221.7080 N   0  0  0  0  0  0  0  0  0  0  0  0
  140.9150   77.6320  221.7250 C   0  0  0  0  0  0  0  0  0  0  0  0
  140.1940   78.3990  222.6060 C   0  0  0  0  0  0  0  0  0  0  0  0
  140.2410   79.7970  222.6110 C   0  0  0  0  0  0  0  0  0  0  0  0
  141.0570   80.4480  221.6770 C   0  0  0  0  0  0  0  0  0  0  0  0
  141.1280   81.8940  221.6790 C   0  0  0  0  0  0  0  0  0  0  0  0
  141.8290   82.3980  222.6270 O   0  0  0  0  0  0  0  0  0  0  0  0
  140.5360   82.7820  220.7880 N   0  0  0  0  0  0  0  0  0  0  0  0
  139.6970   82.3690  219.6490 C   0  0  0  0  0  0  0  0  0  0  0  0
  138.9090   83.5680  219.1590 C   0  0  0  0  0  0  0  0  0  0  0  0
  138.3600   84.3860  220.1910 N   0  0  0  0  0  0  0  0  0  0  0  0
  137.0530   84.0350  220.6450 C   0  0  0  0  0  0  0  0  0  0  0  0
  139.2860   84.7180  221.2610 C   0  0  0  0  0  0  0  0  0  0  0  0
  140.6900   84.2360  220.9080 C   0  0  0  0  0  0  0  0  0  0  0  0
  141.7990   79.6860  220.7690 C   0  0  0  0  0  0  0  0  0  0  0  0
  141.7140   78.3160  220.8130 C   0  0  0  0  0  0  0  0  0  0  0  0
  140.1580   73.3010  222.3370 C   0  0  0  0  0  0  0  0  0  0  0  0
  140.7600   71.9930  224.9110 N   0  0  0  0  0  0  0  0  0  0  0  0
  140.4163   68.6237  230.0357 H   0  0  0  0  0  0  0  0  0  0  0  0
  139.4082   67.6039  228.9539 H   0  0  0  0  0  0  0  0  0  0  0  0
  141.1950   67.4195  228.9539 H   0  0  0  0  0  0  0  0  0  0  0  0
  141.2001   70.6414  229.3733 H   0  0  0  0  0  0  0  0  0  0  0  0
  141.4236   72.4259  227.6851 H   0  0  0  0  0  0  0  0  0  0  0  0
  139.7677   67.9122  226.3634 H   0  0  0  0  0  0  0  0  0  0  0  0
  140.6149   69.2271  223.6797 H   0  0  0  0  0  0  0  0  0  0  0  0
  138.9562   69.6911  223.9504 H   0  0  0  0  0  0  0  0  0  0  0  0
  140.6998   70.0840  221.5235 H   0  0  0  0  0  0  0  0  0  0  0  0
  140.7294   71.1495  219.2934 H   0  0  0  0  0  0  0  0  0  0  0  0
  140.3985   73.5900  219.0055 H   0  0  0  0  0  0  0  0  0  0  0  0
  141.7580   75.7290  222.1980 H   0  0  0  0  0  0  0  0  0  0  0  0
  139.5510   77.8919  223.3404 H   0  0  0  0  0  0  0  0  0  0  0  0
  139.6479   80.3746  223.3352 H   0  0  0  0  0  0  0  0  0  0  0  0
  140.3362   81.9907  218.8377 H   0  0  0  0  0  0  0  0  0  0  0  0
  139.0065   81.5729  219.9642 H   0  0  0  0  0  0  0  0  0  0  0  0
  139.5788   84.1913  218.5483 H   0  0  0  0  0  0  0  0  0  0  0  0
  138.0544   83.1669  218.5944 H   0  0  0  0  0  0  0  0  0  0  0  0
  137.0358   84.0304  221.7449 H   0  0  0  0  0  0  0  0  0  0  0  0
  136.3250   84.7695  220.2700 H   0  0  0  0  0  0  0  0  0  0  0  0
  136.7909   83.0347  220.2700 H   0  0  0  0  0  0  0  0  0  0  0  0
  139.3010   85.8086  221.4038 H   0  0  0  0  0  0  0  0  0  0  0  0
  138.9580   84.2236  222.1873 H   0  0  0  0  0  0  0  0  0  0  0  0
  141.0285   84.6748  219.9578 H   0  0  0  0  0  0  0  0  0  0  0  0
  141.4420   84.5256  221.6567 H   0  0  0  0  0  0  0  0  0  0  0  0
  142.4442   80.1790  220.0270 H   0  0  0  0  0  0  0  0  0  0  0  0
  142.3055   77.7312  220.0932 H   0  0  0  0  0  0  0  0  0  0  0  0
  139.9882   73.9279  223.2248 H   0  0  0  0  0  0  0  0  0  0  0  0
  1  2  1  0
  2  3  2  0
  3  4  1  0
  4  5  2  0
  5  6  1  0
  6  7  2  0
  6  8  1  0
  8  9  1  0
  9 10  1  0
 10 11  2  0
 11 12  1  0
 12 13  2  0
 13 14  1  0
 14 15  1  0
 15 16  2  0
 15 17  1  0
 17 18  1  0
 18 19  2  0
 19 20  1  0
 20 21  2  0
 21 22  1  0
 22 23  2  0
 22 24  1  0
 24 25  1  0
 25 26  1  0
 26 27  1  0
 27 28  1  0
 27 29  1  0
 29 30  1  0
 21 31  1  0
 31 32  2  0
 14 33  2  0
  9 34  2  0
  7  2  1  0
 33 10  1  0
 34  5  1  0
 32 18  1  0
 30 24  1  0
  1 35  1  0
  1 36  1  0
  1 37  1  0
  3 38  1  0
  4 39  1  0
  7 40  1  0
  8 41  1  0
  8 42  1  0
 11 43  1  0
 12 44  1  0
 13 45  1  0
 17 46  1  0
 19 47  1  0
 20 48  1  0
 25 49  1  0
 25 50  1  0
 26 51  1  0
 26 52  1  0
 28 53  1  0
 28 54  1  0
 28 55  1  0
 29 56  1  0
 29 57  1  0
 30 58  1  0
 30 59  1  0
 31 60  1  0
 32 61  1  0
 33 62  1  0
M  END
>  <smiles>  (42) 
Cc1ccc2c(c1)CC(c1cccc(C(=O)Nc3ccc(C(=O)N4CCN(C)CC4)cc3)c1)=N2

>  <score_type>  (42) 
oracle

>  <origin>  (42) 
autodockgpu

>  <m_score__min__energy>  (42) 
-8.8599999999999994

>  <m_primary>  (42) 
energy

>  <rmsd>  (42) 
8.858184357139852

>  <m_score__min__rmsd>  (42) 
8.858184357139852

>  <meeko>  (42) 
{"free_energy": -8.63, "intermolecular_energy": -9.82, "internal_energy": -1.0, "cluster_size": 39, "cluster_id": 1, "rank_in_cluster": 17}

>  <energy>  (42) 
-8.36

>  <cluster_rmsd>  (42) 
0.27

>  <cluster>  (42) 
2

$$$$

     RDKit          3D

 62 66  0  0  0  0  0  0  0  0999 V2000
  141.4540   67.7670  229.4140 C   0  0  0  0  0  0  0  0  0  0  0  0
  141.1740   68.7650  228.3510 C   0  0  0  0  0  0  0  0  0  0  0  0
  141.4080   70.1110  228.6260 C   0  0  0  0  0  0  0  0  0  0  0  0
  141.1760   71.0880  227.6900 C   0  0  0  0  0  0  0  0  0  0  0  0
  140.6980   70.7220  226.4430 C   0  0  0  0  0  0  0  0  0  0  0  0
  140.4550   69.4040  226.1300 C   0  0  0  0  0  0  0  0  0  0  0  0
  140.6940   68.4110  227.0930 C   0  0  0  0  0  0  0  0  0  0  0  0
  139.9530   69.3410  224.7160 C   0  0  0  0  0  0  0  0  0  0  0  0
  139.9660   70.7700  224.3220 C   0  0  0  0  0  0  0  0  0  0  0  0
  139.6060   71.3340  223.0150 C   0  0  0  0  0  0  0  0  0  0  0  0
  139.1690   70.4840  222.0130 C   0  0  0  0  0  0  0  0  0  0  0  0
  138.8740   71.0290  220.7790 C   0  0  0  0  0  0  0  0  0  0  0  0
  139.0000   72.3860  220.5050 C   0  0  0  0  0  0  0  0  0  0  0  0
  139.4340   73.2190  221.5090 C   0  0  0  0  0  0  0  0  0  0  0  0
  139.6600   74.6570  221.3210 C   0  0  0  0  0  0  0  0  0  0  0  0
  139.9280   75.0300  220.1580 O   0  0  0  0  0  0  0  0  0  0  0  0
  139.5650   75.5570  222.4190 N   0  0  0  0  0  0  0  0  0  0  0  0
  139.7520   76.9460  222.3460 C   0  0  0  0  0  0  0  0  0  0  0  0
  138.8430   77.9020  222.7220 C   0  0  0  0  0  0  0  0  0  0  0  0
  139.1230   79.2720  222.6880 C   0  0  0  0  0  0  0  0  0  0  0  0
  140.3850   79.6920  222.2500 C   0  0  0  0  0  0  0  0  0  0  0  0
  140.6950   81.1060  222.2230 C   0  0  0  0  0  0  0  0  0  0  0  0
  140.9000   81.6350  223.3720 O   0  0  0  0  0  0  0  0  0  0  0  0
  140.7960   81.9400  221.1140 N   0  0  0  0  0  0  0  0  0  0  0  0
  140.5860   81.4940  219.7260 C   0  0  0  0  0  0  0  0  0  0  0  0
  140.3740   82.7100  218.8460 C   0  0  0  0  0  0  0  0  0  0  0  0
  139.5320   83.7150  219.4070 N   0  0  0  0  0  0  0  0  0  0  0  0
  138.1370   83.5930  219.1360 C   0  0  0  0  0  0  0  0  0  0  0  0
  139.8370   84.0620  220.7850 C   0  0  0  0  0  0  0  0  0  0  0  0
  141.1190   83.3670  221.2300 C   0  0  0  0  0  0  0  0  0  0  0  0
  141.3260   78.7350  221.8590 C   0  0  0  0  0  0  0  0  0  0  0  0
  140.9940   77.4030  221.9150 C   0  0  0  0  0  0  0  0  0  0  0  0
  139.7180   72.6600  222.7190 C   0  0  0  0  0  0  0  0  0  0  0  0
  140.3800   71.5120  225.2920 N   0  0  0  0  0  0  0  0  0  0  0  0
  141.3226   68.2355  230.4006 H   0  0  0  0  0  0  0  0  0  0  0  0
  140.7587   66.9205  229.3145 H   0  0  0  0  0  0  0  0  0  0  0  0
  142.4882   67.4057  229.3145 H   0  0  0  0  0  0  0  0  0  0  0  0
  141.7880   70.3977  229.6177 H   0  0  0  0  0  0  0  0  0  0  0  0
  141.3668   72.1451  227.9269 H   0  0  0  0  0  0  0  0  0  0  0  0
  140.5023   67.3545  226.8540 H   0  0  0  0  0  0  0  0  0  0  0  0
  140.6235   68.7446  224.0798 H   0  0  0  0  0  0  0  0  0  0  0  0
  138.9681   68.8615  224.6153 H   0  0  0  0  0  0  0  0  0  0  0  0
  139.0599   69.4047  222.1950 H   0  0  0  0  0  0  0  0  0  0  0  0
  138.5242   70.3606  219.9784 H   0  0  0  0  0  0  0  0  0  0  0  0
  138.7582   72.7839  219.5084 H   0  0  0  0  0  0  0  0  0  0  0  0
  139.3300   75.1070  223.3440 H   0  0  0  0  0  0  0  0  0  0  0  0
  137.8499   77.5768  223.0655 H   0  0  0  0  0  0  0  0  0  0  0  0
  138.3655   80.0062  222.9997 H   0  0  0  0  0  0  0  0  0  0  0  0
  141.4690   80.9370  219.3796 H   0  0  0  0  0  0  0  0  0  0  0  0
  139.7041   80.8386  219.6747 H   0  0  0  0  0  0  0  0  0  0  0  0
  141.3566   83.1610  218.6430 H   0  0  0  0  0  0  0  0  0  0  0  0
  139.8654   82.3509  217.9391 H   0  0  0  0  0  0  0  0  0  0  0  0
  137.5821   83.5445  220.0845 H   0  0  0  0  0  0  0  0  0  0  0  0
  137.7983   84.4650  218.5572 H   0  0  0  0  0  0  0  0  0  0  0  0
  137.9548   82.6755  218.5572 H   0  0  0  0  0  0  0  0  0  0  0  0
  139.9672   85.1513  220.8654 H   0  0  0  0  0  0  0  0  0  0  0  0
  139.0082   83.7349  221.4300 H   0  0  0  0  0  0  0  0  0  0  0  0
  141.9593   83.6342  220.5723 H   0  0  0  0  0  0  0  0  0  0  0  0
  141.4303   83.6536  222.2453 H   0  0  0  0  0  0  0  0  0  0  0  0
  142.3220   79.0452  221.5101 H   0  0  0  0  0  0  0  0  0  0  0  0
  141.7457   76.6624  221.6044 H   0  0  0  0  0  0  0  0  0  0  0  0
  140.0645   73.3308  223.5189 H   0  0  0  0  0  0  0  0  0  0  0  0
  1  2  1  0
  2  3  2  0
  3  4  1  0
  4  5  2  0
  5  6  1  0
  6  7  2  0
  6  8  1  0
  8  9  1  0
  9 10  1  0
 10 11  2  0
 11 12  1  0
 12 13  2  0
 13 14  1  0
 14 15  1  0
 15 16  2  0
 15 17  1  0
 17 18  1  0
 18 19  2  0
 19 20  1  0
 20 21  2  0
 21 22  1  0
 22 23  2  0
 22 24  1  0
 24 25  1  0
 25 26  1  0
 26 27  1  0
 27 28  1  0
 27 29  1  0
 29 30  1  0
 21 31  1  0
 31 32  2  0
 14 33  2  0
  9 34  2  0
  7  2  1  0
 33 10  1  0
 34  5  1  0
 32 18  1  0
 30 24  1  0
  1 35  1  0
  1 36  1  0
  1 37  1  0
  3 38  1  0
  4 39  1  0
  7 40  1  0
  8 41  1  0
  8 42  1  0
 11 43  1  0
 12 44  1  0
 13 45  1  0
 17 46  1  0
 19 47  1  0
 20 48  1  0
 25 49  1  0
 25 50  1  0
 26 51  1  0
 26 52  1  0
 28 53  1  0
 28 54  1  0
 28 55  1  0
 29 56  1  0
 29 57  1  0
 30 58  1  0
 30 59  1  0
 31 60  1  0
 32 61  1  0
 33 62  1  0
M  END
>  <smiles>  (43) 
Cc1ccc2c(c1)CC(c1cccc(C(=O)Nc3ccc(C(=O)N4CCN(C)CC4)cc3)c1)=N2

>  <score_type>  (43) 
oracle

>  <origin>  (43) 
autodockgpu

>  <m_score__min__energy>  (43) 
-8.8599999999999994

>  <m_primary>  (43) 
energy

>  <rmsd>  (43) 
8.948418477363843

>  <m_score__min__rmsd>  (43) 
8.948418477363843

>  <meeko>  (43) 
{"free_energy": -8.49, "intermolecular_energy": -9.69, "internal_energy": -1.0, "cluster_size": 39, "cluster_id": 1, "rank_in_cluster": 26}

>  <energy>  (43) 
-8.33

>  <cluster_rmsd>  (43) 
0.32

>  <cluster>  (43) 
2

$$$$

     RDKit          3D

 62 66  0  0  0  0  0  0  0  0999 V2000
  140.6600   68.1310  229.0630 C   0  0  0  0  0  0  0  0  0  0  0  0
  140.6600   69.1320  227.9660 C   0  0  0  0  0  0  0  0  0  0  0  0
  141.0800   70.4290  228.2510 C   0  0  0  0  0  0  0  0  0  0  0  0
  141.1090   71.4050  227.2870 C   0  0  0  0  0  0  0  0  0  0  0  0
  140.7110   71.0870  225.9990 C   0  0  0  0  0  0  0  0  0  0  0  0
  140.2900   69.8170  225.6750 C   0  0  0  0  0  0  0  0  0  0  0  0
  140.2620   68.8250  226.6670 C   0  0  0  0  0  0  0  0  0  0  0  0
  139.9350   69.7980  224.2150 C   0  0  0  0  0  0  0  0  0  0  0  0
  140.2230   71.1950  223.8120 C   0  0  0  0  0  0  0  0  0  0  0  0
  140.0980   71.7740  222.4680 C   0  0  0  0  0  0  0  0  0  0  0  0
  139.9820   70.9280  221.3780 C   0  0  0  0  0  0  0  0  0  0  0  0
  139.9070   71.4900  220.1200 C   0  0  0  0  0  0  0  0  0  0  0  0
  139.9440   72.8640  219.9050 C   0  0  0  0  0  0  0  0  0  0  0  0
  140.0590   73.6940  220.9960 C   0  0  0  0  0  0  0  0  0  0  0  0
  140.1680   75.1530  220.8890 C   0  0  0  0  0  0  0  0  0  0  0  0
  139.5670   75.6860  219.9310 O   0  0  0  0  0  0  0  0  0  0  0  0
  140.9160   75.8980  221.8440 N   0  0  0  0  0  0  0  0  0  0  0  0
  141.0740   77.2920  221.8390 C   0  0  0  0  0  0  0  0  0  0  0  0
  141.7400   78.0230  220.8880 C   0  0  0  0  0  0  0  0  0  0  0  0
  141.7980   79.4210  220.9070 C   0  0  0  0  0  0  0  0  0  0  0  0
  141.1520   80.1090  221.9410 C   0  0  0  0  0  0  0  0  0  0  0  0
  141.1900   81.5570  221.9660 C   0  0  0  0  0  0  0  0  0  0  0  0
  141.8040   82.0620  222.9720 O   0  0  0  0  0  0  0  0  0  0  0  0
  140.6510   82.4440  221.0420 N   0  0  0  0  0  0  0  0  0  0  0  0
  139.9120   82.0300  219.8360 C   0  0  0  0  0  0  0  0  0  0  0  0
  139.1400   83.2190  219.3000 C   0  0  0  0  0  0  0  0  0  0  0  0
  138.4940   84.0110  220.2950 N   0  0  0  0  0  0  0  0  0  0  0  0
  137.1640   83.6260  220.6410 C   0  0  0  0  0  0  0  0  0  0  0  0
  139.3260   84.3470  221.4380 C   0  0  0  0  0  0  0  0  0  0  0  0
  140.7630   83.8990  221.1910 C   0  0  0  0  0  0  0  0  0  0  0  0
  140.4690   79.3840  222.9220 C   0  0  0  0  0  0  0  0  0  0  0  0
  140.4450   78.0120  222.8500 C   0  0  0  0  0  0  0  0  0  0  0  0
  140.1300   73.1160  222.2280 C   0  0  0  0  0  0  0  0  0  0  0  0
  140.6480   71.8870  224.8130 N   0  0  0  0  0  0  0  0  0  0  0  0
  141.6971   67.8838  229.3339 H   0  0  0  0  0  0  0  0  0  0  0  0
  140.1415   68.5473  229.9393 H   0  0  0  0  0  0  0  0  0  0  0  0
  140.1415   67.2204  228.7285 H   0  0  0  0  0  0  0  0  0  0  0  0
  141.3965   70.6772  229.2748 H   0  0  0  0  0  0  0  0  0  0  0  0
  141.4430   72.4238  227.5332 H   0  0  0  0  0  0  0  0  0  0  0  0
  139.9265   67.8071  226.4193 H   0  0  0  0  0  0  0  0  0  0  0  0
  140.5617   69.0843  223.6602 H   0  0  0  0  0  0  0  0  0  0  0  0
  138.9011   69.4814  224.0131 H   0  0  0  0  0  0  0  0  0  0  0  0
  139.9504   69.8366  221.5114 H   0  0  0  0  0  0  0  0  0  0  0  0
  139.8140   70.8232  219.2501 H   0  0  0  0  0  0  0  0  0  0  0  0
  139.8828   73.2767  218.8872 H   0  0  0  0  0  0  0  0  0  0  0  0
  141.3690   75.3200  222.6020 H   0  0  0  0  0  0  0  0  0  0  0  0
  142.2509   77.4865  220.0748 H   0  0  0  0  0  0  0  0  0  0  0  0
  142.3414   79.9695  220.1235 H   0  0  0  0  0  0  0  0  0  0  0  0
  140.6202   81.6753  219.0727 H   0  0  0  0  0  0  0  0  0  0  0  0
  139.2156   81.2164  220.0870 H   0  0  0  0  0  0  0  0  0  0  0  0
  139.8425   83.8642  218.7521 H   0  0  0  0  0  0  0  0  0  0  0  0
  138.3414   82.8085  218.6646 H   0  0  0  0  0  0  0  0  0  0  0  0
  137.0638   83.5970  221.7361 H   0  0  0  0  0  0  0  0  0  0  0  0
  136.4518   84.3549  220.2268 H   0  0  0  0  0  0  0  0  0  0  0  0
  136.9513   82.6294  220.2268 H   0  0  0  0  0  0  0  0  0  0  0  0
  139.3063   85.4356  221.5947 H   0  0  0  0  0  0  0  0  0  0  0  0
  138.9372   83.8331  222.3294 H   0  0  0  0  0  0  0  0  0  0  0  0
  141.1653   84.3575  220.2756 H   0  0  0  0  0  0  0  0  0  0  0  0
  141.4473   84.1940  222.0001 H   0  0  0  0  0  0  0  0  0  0  0  0
  139.9561   79.9065  223.7430 H   0  0  0  0  0  0  0  0  0  0  0  0
  139.9025   77.4562  223.6290 H   0  0  0  0  0  0  0  0  0  0  0  0
  140.2202   73.7843  223.0970 H   0  0  0  0  0  0  0  0  0  0  0  0
  1  2  1  0
  2  3  2  0
  3  4  1  0
  4  5  2  0
  5  6  1  0
  6  7  2  0
  6  8  1  0
  8  9  1  0
  9 10  1  0
 10 11  2  0
 11 12  1  0
 12 13  2  0
 13 14  1  0
 14 15  1  0
 15 16  2  0
 15 17  1  0
 17 18  1  0
 18 19  2  0
 19 20  1  0
 20 21  2  0
 21 22  1  0
 22 23  2  0
 22 24  1  0
 24 25  1  0
 25 26  1  0
 26 27  1  0
 27 28  1  0
 27 29  1  0
 29 30  1  0
 21 31  1  0
 31 32  2  0
 14 33  2  0
  9 34  2  0
  7  2  1  0
 33 10  1  0
 34  5  1  0
 32 18  1  0
 30 24  1  0
  1 35  1  0
  1 36  1  0
  1 37  1  0
  3 38  1  0
  4 39  1  0
  7 40  1  0
  8 41  1  0
  8 42  1  0
 11 43  1  0
 12 44  1  0
 13 45  1  0
 17 46  1  0
 19 47  1  0
 20 48  1  0
 25 49  1  0
 25 50  1  0
 26 51  1  0
 26 52  1  0
 28 53  1  0
 28 54  1  0
 28 55  1  0
 29 56  1  0
 29 57  1  0
 30 58  1  0
 30 59  1  0
 31 60  1  0
 32 61  1  0
 33 62  1  0
M  END
>  <smiles>  (44) 
Cc1ccc2c(c1)CC(c1cccc(C(=O)Nc3ccc(C(=O)N4CCN(C)CC4)cc3)c1)=N2

>  <score_type>  (44) 
oracle

>  <origin>  (44) 
autodockgpu

>  <m_score__min__energy>  (44) 
-8.8599999999999994

>  <m_primary>  (44) 
energy

>  <rmsd>  (44) 
8.714084146305138

>  <m_score__min__rmsd>  (44) 
8.714084146305138

>  <meeko>  (44) 
{"free_energy": -8.56, "intermolecular_energy": -9.76, "internal_energy": -1.01, "cluster_size": 39, "cluster_id": 1, "rank_in_cluster": 21}

>  <energy>  (44) 
-8.29

>  <cluster_rmsd>  (44) 
0.45

>  <cluster>  (44) 
2

$$$$

     RDKit          3D

 62 66  0  0  0  0  0  0  0  0999 V2000
  140.6450   68.1620  229.0360 C   0  0  0  0  0  0  0  0  0  0  0  0
  140.6530   69.1910  227.9660 C   0  0  0  0  0  0  0  0  0  0  0  0
  141.0720   70.4800  228.2870 C   0  0  0  0  0  0  0  0  0  0  0  0
  141.1090   71.4810  227.3490 C   0  0  0  0  0  0  0  0  0  0  0  0
  140.7180   71.1970  226.0510 C   0  0  0  0  0  0  0  0  0  0  0  0
  140.2970   69.9370  225.6910 C   0  0  0  0  0  0  0  0  0  0  0  0
  140.2620   68.9190  226.6570 C   0  0  0  0  0  0  0  0  0  0  0  0
  139.9520   69.9570  224.2290 C   0  0  0  0  0  0  0  0  0  0  0  0
  140.2430   71.3630  223.8640 C   0  0  0  0  0  0  0  0  0  0  0  0
  140.1280   71.9770  222.5350 C   0  0  0  0  0  0  0  0  0  0  0  0
  140.0990   71.1610  221.4170 C   0  0  0  0  0  0  0  0  0  0  0  0
  140.0300   71.7590  220.1750 C   0  0  0  0  0  0  0  0  0  0  0  0
  139.9910   73.1390  220.0040 C   0  0  0  0  0  0  0  0  0  0  0  0
  140.0210   73.9380  221.1220 C   0  0  0  0  0  0  0  0  0  0  0  0
  140.0440   75.4040  221.0640 C   0  0  0  0  0  0  0  0  0  0  0  0
  139.0830   75.9530  220.4820 O   0  0  0  0  0  0  0  0  0  0  0  0
  141.1120   76.1380  221.6550 N   0  0  0  0  0  0  0  0  0  0  0  0
  141.2240   77.5370  221.6640 C   0  0  0  0  0  0  0  0  0  0  0  0
  141.7920   78.3050  220.6780 C   0  0  0  0  0  0  0  0  0  0  0  0
  141.8070   79.7030  220.7190 C   0  0  0  0  0  0  0  0  0  0  0  0
  141.2200   80.3520  221.8120 C   0  0  0  0  0  0  0  0  0  0  0  0
  141.2140   81.8000  221.8620 C   0  0  0  0  0  0  0  0  0  0  0  0
  141.8460   82.3080  222.8540 O   0  0  0  0  0  0  0  0  0  0  0  0
  140.6160   82.6850  220.9720 N   0  0  0  0  0  0  0  0  0  0  0  0
  139.8490   82.2670  219.7850 C   0  0  0  0  0  0  0  0  0  0  0  0
  139.0220   83.4400  219.2970 C   0  0  0  0  0  0  0  0  0  0  0  0
  138.3860   84.1940  220.3270 N   0  0  0  0  0  0  0  0  0  0  0  0
  137.0810   83.7620  220.7120 C   0  0  0  0  0  0  0  0  0  0  0  0
  139.2470   84.5380  221.4470 C   0  0  0  0  0  0  0  0  0  0  0  0
  140.6870   84.1400  221.1430 C   0  0  0  0  0  0  0  0  0  0  0  0
  140.6380   79.5890  222.8280 C   0  0  0  0  0  0  0  0  0  0  0  0
  140.6520   78.2190  222.7330 C   0  0  0  0  0  0  0  0  0  0  0  0
  140.0860   73.3260  222.3380 C   0  0  0  0  0  0  0  0  0  0  0  0
  140.6630   72.0280  224.8850 N   0  0  0  0  0  0  0  0  0  0  0  0
  140.6488   68.6553  230.0192 H   0  0  0  0  0  0  0  0  0  0  0  0
  139.7420   67.5411  228.9408 H   0  0  0  0  0  0  0  0  0  0  0  0
  141.5382   67.5271  228.9408 H   0  0  0  0  0  0  0  0  0  0  0  0
  141.3813   70.7013  229.3192 H   0  0  0  0  0  0  0  0  0  0  0  0
  141.4437   72.4923  227.6235 H   0  0  0  0  0  0  0  0  0  0  0  0
  139.9265   67.9085  226.3808 H   0  0  0  0  0  0  0  0  0  0  0  0
  140.5820   69.2576  223.6599 H   0  0  0  0  0  0  0  0  0  0  0  0
  138.9191   69.6469  224.0124 H   0  0  0  0  0  0  0  0  0  0  0  0
  140.1301   70.0659  221.5159 H   0  0  0  0  0  0  0  0  0  0  0  0
  140.0048   71.1169  219.2822 H   0  0  0  0  0  0  0  0  0  0  0  0
  139.9374   73.5803  218.9978 H   0  0  0  0  0  0  0  0  0  0  0  0
  141.8550   75.5480  222.1150 H   0  0  0  0  0  0  0  0  0  0  0  0
  142.2555   77.7989  219.8183 H   0  0  0  0  0  0  0  0  0  0  0  0
  142.2715   80.2821  219.9073 H   0  0  0  0  0  0  0  0  0  0  0  0
  140.5410   81.9476  218.9918 H   0  0  0  0  0  0  0  0  0  0  0  0
  139.1878   81.4273  220.0451 H   0  0  0  0  0  0  0  0  0  0  0  0
  139.6848   84.1165  218.7374 H   0  0  0  0  0  0  0  0  0  0  0  0
  138.2153   83.0150  218.6817 H   0  0  0  0  0  0  0  0  0  0  0  0
  137.0113   83.7389  221.8096 H   0  0  0  0  0  0  0  0  0  0  0  0
  136.3308   84.4597  220.3116 H   0  0  0  0  0  0  0  0  0  0  0  0
  136.8953   82.7544  220.3116 H   0  0  0  0  0  0  0  0  0  0  0  0
  139.1989   85.6228  221.6230 H   0  0  0  0  0  0  0  0  0  0  0  0
  138.9057   83.9978  222.3424 H   0  0  0  0  0  0  0  0  0  0  0  0
  141.0426   84.6264  220.2227 H   0  0  0  0  0  0  0  0  0  0  0  0
  141.3893   84.4429  221.9336 H   0  0  0  0  0  0  0  0  0  0  0  0
  140.1733   80.0809  223.6952 H   0  0  0  0  0  0  0  0  0  0  0  0
  140.1889   77.6331  223.5406 H   0  0  0  0  0  0  0  0  0  0  0  0
  140.1061   73.9699  223.2296 H   0  0  0  0  0  0  0  0  0  0  0  0
  1  2  1  0
  2  3  2  0
  3  4  1  0
  4  5  2  0
  5  6  1  0
  6  7  2  0
  6  8  1  0
  8  9  1  0
  9 10  1  0
 10 11  2  0
 11 12  1  0
 12 13  2  0
 13 14  1  0
 14 15  1  0
 15 16  2  0
 15 17  1  0
 17 18  1  0
 18 19  2  0
 19 20  1  0
 20 21  2  0
 21 22  1  0
 22 23  2  0
 22 24  1  0
 24 25  1  0
 25 26  1  0
 26 27  1  0
 27 28  1  0
 27 29  1  0
 29 30  1  0
 21 31  1  0
 31 32  2  0
 14 33  2  0
  9 34  2  0
  7  2  1  0
 33 10  1  0
 34  5  1  0
 32 18  1  0
 30 24  1  0
  1 35  1  0
  1 36  1  0
  1 37  1  0
  3 38  1  0
  4 39  1  0
  7 40  1  0
  8 41  1  0
  8 42  1  0
 11 43  1  0
 12 44  1  0
 13 45  1  0
 17 46  1  0
 19 47  1  0
 20 48  1  0
 25 49  1  0
 25 50  1  0
 26 51  1  0
 26 52  1  0
 28 53  1  0
 28 54  1  0
 28 55  1  0
 29 56  1  0
 29 57  1  0
 30 58  1  0
 30 59  1  0
 31 60  1  0
 32 61  1  0
 33 62  1  0
M  END
>  <smiles>  (45) 
Cc1ccc2c(c1)CC(c1cccc(C(=O)Nc3ccc(C(=O)N4CCN(C)CC4)cc3)c1)=N2

>  <score_type>  (45) 
oracle

>  <origin>  (45) 
autodockgpu

>  <m_score__min__energy>  (45) 
-8.8599999999999994

>  <m_primary>  (45) 
energy

>  <rmsd>  (45) 
8.732132315205252

>  <m_score__min__rmsd>  (45) 
8.732132315205252

>  <meeko>  (45) 
{"free_energy": -8.83, "intermolecular_energy": -10.03, "internal_energy": -1.0, "cluster_size": 39, "cluster_id": 1, "rank_in_cluster": 8}

>  <energy>  (45) 
-8.12

>  <cluster_rmsd>  (45) 
0.53

>  <cluster>  (45) 
2

$$$$

     RDKit          3D

 62 66  0  0  0  0  0  0  0  0999 V2000
  140.6610   68.3030  228.9770 C   0  0  0  0  0  0  0  0  0  0  0  0
  140.3530   68.6660  227.5710 C   0  0  0  0  0  0  0  0  0  0  0  0
  139.6230   67.7660  226.7970 C   0  0  0  0  0  0  0  0  0  0  0  0
  139.2990   68.0360  225.4920 C   0  0  0  0  0  0  0  0  0  0  0  0
  139.7090   69.2350  224.9330 C   0  0  0  0  0  0  0  0  0  0  0  0
  140.4310   70.1530  225.6630 C   0  0  0  0  0  0  0  0  0  0  0  0
  140.7600   69.8680  226.9970 C   0  0  0  0  0  0  0  0  0  0  0  0
  140.7150   71.3360  224.7810 C   0  0  0  0  0  0  0  0  0  0  0  0
  140.0560   70.9390  223.5150 C   0  0  0  0  0  0  0  0  0  0  0  0
  139.9670   71.7240  222.2770 C   0  0  0  0  0  0  0  0  0  0  0  0
  140.2880   71.1210  221.0730 C   0  0  0  0  0  0  0  0  0  0  0  0
  140.2370   71.8870  219.9260 C   0  0  0  0  0  0  0  0  0  0  0  0
  139.8800   73.2310  219.9320 C   0  0  0  0  0  0  0  0  0  0  0  0
  139.5630   73.8180  221.1340 C   0  0  0  0  0  0  0  0  0  0  0  0
  139.2300   75.2400  221.2720 C   0  0  0  0  0  0  0  0  0  0  0  0
  138.9360   75.8470  220.2200 O   0  0  0  0  0  0  0  0  0  0  0  0
  139.2380   75.8670  222.5510 N   0  0  0  0  0  0  0  0  0  0  0  0
  138.9260   77.2140  222.7930 C   0  0  0  0  0  0  0  0  0  0  0  0
  139.8290   78.2170  223.0440 C   0  0  0  0  0  0  0  0  0  0  0  0
  139.4530   79.5540  223.2070 C   0  0  0  0  0  0  0  0  0  0  0  0
  138.0960   79.8900  223.1120 C   0  0  0  0  0  0  0  0  0  0  0  0
  137.6930   81.2730  223.2640 C   0  0  0  0  0  0  0  0  0  0  0  0
  138.4460   82.1220  222.6690 O   0  0  0  0  0  0  0  0  0  0  0  0
  136.6020   81.7740  223.9650 N   0  0  0  0  0  0  0  0  0  0  0  0
  135.6430   80.9360  224.7070 C   0  0  0  0  0  0  0  0  0  0  0  0
  134.8550   81.8150  225.6580 C   0  0  0  0  0  0  0  0  0  0  0  0
  135.6290   82.7950  226.3480 N   0  0  0  0  0  0  0  0  0  0  0  0
  136.1930   82.3890  227.5950 C   0  0  0  0  0  0  0  0  0  0  0  0
  136.5430   83.5500  225.5060 C   0  0  0  0  0  0  0  0  0  0  0  0
  136.3070   83.2100  224.0380 C   0  0  0  0  0  0  0  0  0  0  0  0
  137.1600   78.8840  222.8590 C   0  0  0  0  0  0  0  0  0  0  0  0
  137.5880   77.5880  222.7070 C   0  0  0  0  0  0  0  0  0  0  0  0
  139.6190   73.0420  222.2530 C   0  0  0  0  0  0  0  0  0  0  0  0
  139.5100   69.7760  223.6220 N   0  0  0  0  0  0  0  0  0  0  0  0
  140.1015   68.9624  229.6569 H   0  0  0  0  0  0  0  0  0  0  0  0
  140.3700   67.2577  229.1580 H   0  0  0  0  0  0  0  0  0  0  0  0
  141.7397   68.4199  229.1580 H   0  0  0  0  0  0  0  0  0  0  0  0
  139.2984   66.8148  227.2441 H   0  0  0  0  0  0  0  0  0  0  0  0
  138.7223   67.3114  224.8984 H   0  0  0  0  0  0  0  0  0  0  0  0
  141.3385   70.5928  227.5886 H   0  0  0  0  0  0  0  0  0  0  0  0
  140.2726   72.2559  225.1909 H   0  0  0  0  0  0  0  0  0  0  0  0
  141.7860   71.5623  224.6725 H   0  0  0  0  0  0  0  0  0  0  0  0
  140.5759   70.0602  221.0315 H   0  0  0  0  0  0  0  0  0  0  0  0
  140.4897   71.4139  218.9656 H   0  0  0  0  0  0  0  0  0  0  0  0
  139.8519   73.8105  218.9974 H   0  0  0  0  0  0  0  0  0  0  0  0
  139.5020   75.2360  223.3540 H   0  0  0  0  0  0  0  0  0  0  0  0
  140.8952   77.9576  223.1203 H   0  0  0  0  0  0  0  0  0  0  0  0
  140.2089   80.3279  223.4062 H   0  0  0  0  0  0  0  0  0  0  0  0
  134.9557   80.4477  224.0005 H   0  0  0  0  0  0  0  0  0  0  0  0
  136.1840   80.1646  225.2747 H   0  0  0  0  0  0  0  0  0  0  0  0
  134.0799   82.3374  225.0782 H   0  0  0  0  0  0  0  0  0  0  0  0
  134.4441   81.1464  226.4288 H   0  0  0  0  0  0  0  0  0  0  0  0
  135.6026   82.8140  228.4201 H   0  0  0  0  0  0  0  0  0  0  0  0
  136.1807   81.2912  227.6629 H   0  0  0  0  0  0  0  0  0  0  0  0
  137.2302   82.7490  227.6629 H   0  0  0  0  0  0  0  0  0  0  0  0
  136.3758   84.6261  225.6614 H   0  0  0  0  0  0  0  0  0  0  0  0
  137.5775   83.2889  225.7738 H   0  0  0  0  0  0  0  0  0  0  0  0
  135.2646   83.4120  223.7507 H   0  0  0  0  0  0  0  0  0  0  0  0
  136.9273   83.8092  223.3552 H   0  0  0  0  0  0  0  0  0  0  0  0
  136.0901   79.1278  222.7823 H   0  0  0  0  0  0  0  0  0  0  0  0
  136.8379   76.8085  222.5078 H   0  0  0  0  0  0  0  0  0  0  0  0
  139.3634   73.5163  223.2120 H   0  0  0  0  0  0  0  0  0  0  0  0
  1  2  1  0
  2  3  2  0
  3  4  1  0
  4  5  2  0
  5  6  1  0
  6  7  2  0
  6  8  1  0
  8  9  1  0
  9 10  1  0
 10 11  2  0
 11 12  1  0
 12 13  2  0
 13 14  1  0
 14 15  1  0
 15 16  2  0
 15 17  1  0
 17 18  1  0
 18 19  2  0
 19 20  1  0
 20 21  2  0
 21 22  1  0
 22 23  2  0
 22 24  1  0
 24 25  1  0
 25 26  1  0
 26 27  1  0
 27 28  1  0
 27 29  1  0
 29 30  1  0
 21 31  1  0
 31 32  2  0
 14 33  2  0
  9 34  2  0
  7  2  1  0
 33 10  1  0
 34  5  1  0
 32 18  1  0
 30 24  1  0
  1 35  1  0
  1 36  1  0
  1 37  1  0
  3 38  1  0
  4 39  1  0
  7 40  1  0
  8 41  1  0
  8 42  1  0
 11 43  1  0
 12 44  1  0
 13 45  1  0
 17 46  1  0
 19 47  1  0
 20 48  1  0
 25 49  1  0
 25 50  1  0
 26 51  1  0
 26 52  1  0
 28 53  1  0
 28 54  1  0
 28 55  1  0
 29 56  1  0
 29 57  1  0
 30 58  1  0
 30 59  1  0
 31 60  1  0
 32 61  1  0
 33 62  1  0
M  END
>  <smiles>  (46) 
Cc1ccc2c(c1)CC(c1cccc(C(=O)Nc3ccc(C(=O)N4CCN(C)CC4)cc3)c1)=N2

>  <score_type>  (46) 
oracle

>  <origin>  (46) 
autodockgpu

>  <m_score__min__energy>  (46) 
-8.8599999999999994

>  <m_primary>  (46) 
energy

>  <rmsd>  (46) 
8.814461324304277

>  <m_score__min__rmsd>  (46) 
8.814461324304277

>  <meeko>  (46) 
{"free_energy": -8.12, "intermolecular_energy": -9.31, "internal_energy": -0.94, "cluster_size": 7, "cluster_id": 2, "rank_in_cluster": 6}

>  <energy>  (46) 
-8.08

>  <cluster_rmsd>  (46) 
0.4

>  <cluster>  (46) 
2

$$$$

     RDKit          3D

 62 66  0  0  0  0  0  0  0  0999 V2000
  140.3800   68.1260  229.0630 C   0  0  0  0  0  0  0  0  0  0  0  0
  140.4800   69.1550  227.9980 C   0  0  0  0  0  0  0  0  0  0  0  0
  140.9390   70.4250  228.3410 C   0  0  0  0  0  0  0  0  0  0  0  0
  141.0610   71.4230  227.4090 C   0  0  0  0  0  0  0  0  0  0  0  0
  140.7190   71.1580  226.0930 C   0  0  0  0  0  0  0  0  0  0  0  0
  140.2620   69.9170  225.7110 C   0  0  0  0  0  0  0  0  0  0  0  0
  140.1390   68.9010  226.6710 C   0  0  0  0  0  0  0  0  0  0  0  0
  139.9850   69.9520  224.2350 C   0  0  0  0  0  0  0  0  0  0  0  0
  140.3530   71.3450  223.8870 C   0  0  0  0  0  0  0  0  0  0  0  0
  140.3250   71.9640  222.5560 C   0  0  0  0  0  0  0  0  0  0  0  0
  140.5310   71.1720  221.4400 C   0  0  0  0  0  0  0  0  0  0  0  0
  140.5410   71.7790  220.2010 C   0  0  0  0  0  0  0  0  0  0  0  0
  140.3550   73.1470  220.0300 C   0  0  0  0  0  0  0  0  0  0  0  0
  140.1500   73.9230  221.1470 C   0  0  0  0  0  0  0  0  0  0  0  0
  140.0010   75.3820  221.0960 C   0  0  0  0  0  0  0  0  0  0  0  0
  138.9830   75.8170  220.5140 O   0  0  0  0  0  0  0  0  0  0  0  0
  140.9730   76.2330  221.6940 N   0  0  0  0  0  0  0  0  0  0  0  0
  140.9200   77.6360  221.7110 C   0  0  0  0  0  0  0  0  0  0  0  0
  140.2020   78.4040  222.5920 C   0  0  0  0  0  0  0  0  0  0  0  0
  140.2500   79.8010  222.5960 C   0  0  0  0  0  0  0  0  0  0  0  0
  141.0650   80.4510  221.6610 C   0  0  0  0  0  0  0  0  0  0  0  0
  141.1380   81.8980  221.6620 C   0  0  0  0  0  0  0  0  0  0  0  0
  141.8430   82.4010  222.6060 O   0  0  0  0  0  0  0  0  0  0  0  0
  140.5430   82.7850  220.7720 N   0  0  0  0  0  0  0  0  0  0  0  0
  139.6990   82.3730  219.6370 C   0  0  0  0  0  0  0  0  0  0  0  0
  138.9110   83.5730  219.1500 C   0  0  0  0  0  0  0  0  0  0  0  0
  138.3660   84.3920  220.1840 N   0  0  0  0  0  0  0  0  0  0  0  0
  137.0610   84.0420  220.6440 C   0  0  0  0  0  0  0  0  0  0  0  0
  139.2980   84.7230  221.2490 C   0  0  0  0  0  0  0  0  0  0  0  0
  140.6990   84.2400  220.8910 C   0  0  0  0  0  0  0  0  0  0  0  0
  141.8040   79.6880  220.7520 C   0  0  0  0  0  0  0  0  0  0  0  0
  141.7180   78.3180  220.7960 C   0  0  0  0  0  0  0  0  0  0  0  0
  140.1430   73.3020  222.3590 C   0  0  0  0  0  0  0  0  0  0  0  0
  140.7530   71.9910  224.9290 N   0  0  0  0  0  0  0  0  0  0  0  0
  140.4273   68.6125  230.0485 H   0  0  0  0  0  0  0  0  0  0  0  0
  139.4254   67.5883  228.9649 H   0  0  0  0  0  0  0  0  0  0  0  0
  141.2133   67.4146  228.9649 H   0  0  0  0  0  0  0  0  0  0  0  0
  141.2105   70.6323  229.3866 H   0  0  0  0  0  0  0  0  0  0  0  0
  141.4249   72.4189  227.7017 H   0  0  0  0  0  0  0  0  0  0  0  0
  139.7741   67.9059  226.3766 H   0  0  0  0  0  0  0  0  0  0  0  0
  140.6095   69.2262  223.6935 H   0  0  0  0  0  0  0  0  0  0  0  0
  138.9507   69.6866  223.9708 H   0  0  0  0  0  0  0  0  0  0  0  0
  140.6828   70.0870  221.5382 H   0  0  0  0  0  0  0  0  0  0  0  0
  140.7030   71.1544  219.3101 H   0  0  0  0  0  0  0  0  0  0  0  0
  140.3715   73.5970  219.0264 H   0  0  0  0  0  0  0  0  0  0  0  0
  141.7800   75.7320  222.1540 H   0  0  0  0  0  0  0  0  0  0  0  0
  139.5599   77.8981  223.3280 H   0  0  0  0  0  0  0  0  0  0  0  0
  139.6581   80.3794  223.3207 H   0  0  0  0  0  0  0  0  0  0  0  0
  140.3343   81.9934  218.8231 H   0  0  0  0  0  0  0  0  0  0  0  0
  139.0086   81.5780  219.9552 H   0  0  0  0  0  0  0  0  0  0  0  0
  139.5797   84.1955  218.5373 H   0  0  0  0  0  0  0  0  0  0  0  0
  138.0540   83.1729  218.5884 H   0  0  0  0  0  0  0  0  0  0  0  0
  137.0486   84.0387  221.7439 H   0  0  0  0  0  0  0  0  0  0  0  0
  136.3317   84.7763  220.2713 H   0  0  0  0  0  0  0  0  0  0  0  0
  136.7970   83.0413  220.2713 H   0  0  0  0  0  0  0  0  0  0  0  0
  139.3149   85.8136  221.3912 H   0  0  0  0  0  0  0  0  0  0  0  0
  138.9738   84.2285  222.1765 H   0  0  0  0  0  0  0  0  0  0  0  0
  141.0342   84.6781  219.9393 H   0  0  0  0  0  0  0  0  0  0  0  0
  141.4542   84.5292  221.6367 H   0  0  0  0  0  0  0  0  0  0  0  0
  142.4482   80.1803  220.0086 H   0  0  0  0  0  0  0  0  0  0  0  0
  142.3069   77.7322  220.0749 H   0  0  0  0  0  0  0  0  0  0  0  0
  139.9778   73.9277  223.2485 H   0  0  0  0  0  0  0  0  0  0  0  0
  1  2  1  0
  2  3  2  0
  3  4  1  0
  4  5  2  0
  5  6  1  0
  6  7  2  0
  6  8  1  0
  8  9  1  0
  9 10  1  0
 10 11  2  0
 11 12  1  0
 12 13  2  0
 13 14  1  0
 14 15  1  0
 15 16  2  0
 15 17  1  0
 17 18  1  0
 18 19  2  0
 19 20  1  0
 20 21  2  0
 21 22  1  0
 22 23  2  0
 22 24  1  0
 24 25  1  0
 25 26  1  0
 26 27  1  0
 27 28  1  0
 27 29  1  0
 29 30  1  0
 21 31  1  0
 31 32  2  0
 14 33  2  0
  9 34  2  0
  7  2  1  0
 33 10  1  0
 34  5  1  0
 32 18  1  0
 30 24  1  0
  1 35  1  0
  1 36  1  0
  1 37  1  0
  3 38  1  0
  4 39  1  0
  7 40  1  0
  8 41  1  0
  8 42  1  0
 11 43  1  0
 12 44  1  0
 13 45  1  0
 17 46  1  0
 19 47  1  0
 20 48  1  0
 25 49  1  0
 25 50  1  0
 26 51  1  0
 26 52  1  0
 28 53  1  0
 28 54  1  0
 28 55  1  0
 29 56  1  0
 29 57  1  0
 30 58  1  0
 30 59  1  0
 31 60  1  0
 32 61  1  0
 33 62  1  0
M  END
>  <smiles>  (47) 
Cc1ccc2c(c1)CC(c1cccc(C(=O)Nc3ccc(C(=O)N4CCN(C)CC4)cc3)c1)=N2

>  <score_type>  (47) 
oracle

>  <origin>  (47) 
autodockgpu

>  <m_score__min__energy>  (47) 
-8.8599999999999994

>  <m_primary>  (47) 
energy

>  <rmsd>  (47) 
8.860393128831639

>  <m_score__min__rmsd>  (47) 
8.860393128831639

>  <meeko>  (47) 
{"free_energy": -8.6, "intermolecular_energy": -9.79, "internal_energy": -1.0, "cluster_size": 39, "cluster_id": 1, "rank_in_cluster": 18}

>  <energy>  (47) 
-8.08

>  <cluster_rmsd>  (47) 
0.0

>  <cluster>  (47) 
3

$$$$

     RDKit          3D

 62 66  0  0  0  0  0  0  0  0999 V2000
  140.7580   68.1520  228.9570 C   0  0  0  0  0  0  0  0  0  0  0  0
  140.4420   68.5520  227.5630 C   0  0  0  0  0  0  0  0  0  0  0  0
  139.5640   67.7590  226.8260 C   0  0  0  0  0  0  0  0  0  0  0  0
  139.2230   68.0690  225.5340 C   0  0  0  0  0  0  0  0  0  0  0  0
  139.7670   69.2010  224.9510 C   0  0  0  0  0  0  0  0  0  0  0  0
  140.6380   70.0140  225.6430 C   0  0  0  0  0  0  0  0  0  0  0  0
  140.9820   69.6880  226.9640 C   0  0  0  0  0  0  0  0  0  0  0  0
  141.0400   71.1470  224.7420 C   0  0  0  0  0  0  0  0  0  0  0  0
  140.2800   70.8410  223.5080 C   0  0  0  0  0  0  0  0  0  0  0  0
  140.2440   71.6310  222.2690 C   0  0  0  0  0  0  0  0  0  0  0  0
  140.5580   71.0160  221.0700 C   0  0  0  0  0  0  0  0  0  0  0  0
  140.5570   71.7840  219.9230 C   0  0  0  0  0  0  0  0  0  0  0  0
  140.2590   73.1420  219.9260 C   0  0  0  0  0  0  0  0  0  0  0  0
  139.9490   73.7410  221.1240 C   0  0  0  0  0  0  0  0  0  0  0  0
  139.6740   75.1760  221.2590 C   0  0  0  0  0  0  0  0  0  0  0  0
  139.8440   75.8730  220.2350 O   0  0  0  0  0  0  0  0  0  0  0  0
  139.2310   75.7180  222.4990 N   0  0  0  0  0  0  0  0  0  0  0  0
  138.9320   77.0690  222.7310 C   0  0  0  0  0  0  0  0  0  0  0  0
  139.8470   78.0780  222.9000 C   0  0  0  0  0  0  0  0  0  0  0  0
  139.4790   79.4180  223.0570 C   0  0  0  0  0  0  0  0  0  0  0  0
  138.1190   79.7510  223.0440 C   0  0  0  0  0  0  0  0  0  0  0  0
  137.7220   81.1360  223.1910 C   0  0  0  0  0  0  0  0  0  0  0  0
  138.4830   81.9800  222.5970 O   0  0  0  0  0  0  0  0  0  0  0  0
  136.6320   81.6450  223.8860 N   0  0  0  0  0  0  0  0  0  0  0  0
  135.6650   80.8150  224.6260 C   0  0  0  0  0  0  0  0  0  0  0  0
  134.8780   81.7010  225.5710 C   0  0  0  0  0  0  0  0  0  0  0  0
  135.6550   82.6770  226.2630 N   0  0  0  0  0  0  0  0  0  0  0  0
  136.2110   82.2710  227.5120 C   0  0  0  0  0  0  0  0  0  0  0  0
  136.5760   83.4250  225.4230 C   0  0  0  0  0  0  0  0  0  0  0  0
  136.3450   83.0830  223.9550 C   0  0  0  0  0  0  0  0  0  0  0  0
  137.1700   78.7380  222.8750 C   0  0  0  0  0  0  0  0  0  0  0  0
  137.5910   77.4390  222.7240 C   0  0  0  0  0  0  0  0  0  0  0  0
  139.9530   72.9630  222.2420 C   0  0  0  0  0  0  0  0  0  0  0  0
  139.5870   69.7630  223.6460 N   0  0  0  0  0  0  0  0  0  0  0  0
  140.2323   68.8175  229.6575 H   0  0  0  0  0  0  0  0  0  0  0  0
  140.4332   67.1143  229.1233 H   0  0  0  0  0  0  0  0  0  0  0  0
  141.8427   68.2278  229.1233 H   0  0  0  0  0  0  0  0  0  0  0  0
  139.1332   66.8609  227.2928 H   0  0  0  0  0  0  0  0  0  0  0  0
  138.5287   67.4287  224.9702 H   0  0  0  0  0  0  0  0  0  0  0  0
  141.6774   70.3289  227.5259 H   0  0  0  0  0  0  0  0  0  0  0  0
  140.7431   72.1184  225.1641 H   0  0  0  0  0  0  0  0  0  0  0  0
  142.1260   71.2272  224.5866 H   0  0  0  0  0  0  0  0  0  0  0  0
  140.8018   69.9440  221.0318 H   0  0  0  0  0  0  0  0  0  0  0  0
  140.8025   71.3009  218.9657 H   0  0  0  0  0  0  0  0  0  0  0  0
  140.2710   73.7232  218.9922 H   0  0  0  0  0  0  0  0  0  0  0  0
  139.1280   75.0150  223.2790 H   0  0  0  0  0  0  0  0  0  0  0  0
  140.9166   77.8214  222.9125 H   0  0  0  0  0  0  0  0  0  0  0  0
  140.2446   80.1968  223.1884 H   0  0  0  0  0  0  0  0  0  0  0  0
  134.9780   80.3287  223.9178 H   0  0  0  0  0  0  0  0  0  0  0  0
  136.1990   80.0421  225.1983 H   0  0  0  0  0  0  0  0  0  0  0  0
  134.1094   82.2275  224.9861 H   0  0  0  0  0  0  0  0  0  0  0  0
  134.4585   81.0367  226.3409 H   0  0  0  0  0  0  0  0  0  0  0  0
  135.6204   82.7022  228.3337 H   0  0  0  0  0  0  0  0  0  0  0  0
  136.1910   81.1735  227.5828 H   0  0  0  0  0  0  0  0  0  0  0  0
  137.2504   82.6242  227.5828 H   0  0  0  0  0  0  0  0  0  0  0  0
  136.4136   84.5023  225.5752 H   0  0  0  0  0  0  0  0  0  0  0  0
  137.6079   83.1589  225.6958 H   0  0  0  0  0  0  0  0  0  0  0  0
  135.3051   83.2904  223.6624 H   0  0  0  0  0  0  0  0  0  0  0  0
  136.9722   83.6771  223.2740 H   0  0  0  0  0  0  0  0  0  0  0  0
  136.0968   78.9789  222.8631 H   0  0  0  0  0  0  0  0  0  0  0  0
  136.8317   76.6543  222.5913 H   0  0  0  0  0  0  0  0  0  0  0  0
  139.7020   73.4468  223.1975 H   0  0  0  0  0  0  0  0  0  0  0  0
  1  2  1  0
  2  3  2  0
  3  4  1  0
  4  5  2  0
  5  6  1  0
  6  7  2  0
  6  8  1  0
  8  9  1  0
  9 10  1  0
 10 11  2  0
 11 12  1  0
 12 13  2  0
 13 14  1  0
 14 15  1  0
 15 16  2  0
 15 17  1  0
 17 18  1  0
 18 19  2  0
 19 20  1  0
 20 21  2  0
 21 22  1  0
 22 23  2  0
 22 24  1  0
 24 25  1  0
 25 26  1  0
 26 27  1  0
 27 28  1  0
 27 29  1  0
 29 30  1  0
 21 31  1  0
 31 32  2  0
 14 33  2  0
  9 34  2  0
  7  2  1  0
 33 10  1  0
 34  5  1  0
 32 18  1  0
 30 24  1  0
  1 35  1  0
  1 36  1  0
  1 37  1  0
  3 38  1  0
  4 39  1  0
  7 40  1  0
  8 41  1  0
  8 42  1  0
 11 43  1  0
 12 44  1  0
 13 45  1  0
 17 46  1  0
 19 47  1  0
 20 48  1  0
 25 49  1  0
 25 50  1  0
 26 51  1  0
 26 52  1  0
 28 53  1  0
 28 54  1  0
 28 55  1  0
 29 56  1  0
 29 57  1  0
 30 58  1  0
 30 59  1  0
 31 60  1  0
 32 61  1  0
 33 62  1  0
M  END
>  <smiles>  (48) 
Cc1ccc2c(c1)CC(c1cccc(C(=O)Nc3ccc(C(=O)N4CCN(C)CC4)cc3)c1)=N2

>  <score_type>  (48) 
oracle

>  <origin>  (48) 
autodockgpu

>  <m_score__min__energy>  (48) 
-8.8599999999999994

>  <m_primary>  (48) 
energy

>  <rmsd>  (48) 
8.783621567284206

>  <m_score__min__rmsd>  (48) 
8.783621567284206

>  <meeko>  (48) 
{"free_energy": -8.29, "intermolecular_energy": -9.48, "internal_energy": -0.92, "cluster_size": 7, "cluster_id": 2, "rank_in_cluster": 5}

>  <energy>  (48) 
-7.72

>  <cluster_rmsd>  (48) 
1.28

>  <cluster>  (48) 
3

$$$$

     RDKit          3D

 62 66  0  0  0  0  0  0  0  0999 V2000
  136.5430   81.6510  226.1160 C   0  0  0  0  0  0  0  0  0  0  0  0
  137.0930   80.9180  224.9480 C   0  0  0  0  0  0  0  0  0  0  0  0
  136.2250   80.1400  224.1840 C   0  0  0  0  0  0  0  0  0  0  0  0
  136.6620   79.4390  223.0880 C   0  0  0  0  0  0  0  0  0  0  0  0
  137.9990   79.5100  222.7360 C   0  0  0  0  0  0  0  0  0  0  0  0
  138.8900   80.2670  223.4630 C   0  0  0  0  0  0  0  0  0  0  0  0
  138.4360   80.9810  224.5830 C   0  0  0  0  0  0  0  0  0  0  0  0
  140.2450   80.1380  222.8280 C   0  0  0  0  0  0  0  0  0  0  0  0
  139.9640   79.2360  221.6860 C   0  0  0  0  0  0  0  0  0  0  0  0
  140.9140   78.7710  220.6670 C   0  0  0  0  0  0  0  0  0  0  0  0
  141.2350   79.6110  219.6140 C   0  0  0  0  0  0  0  0  0  0  0  0
  142.0980   79.1410  218.6460 C   0  0  0  0  0  0  0  0  0  0  0  0
  142.6520   77.8660  218.6830 C   0  0  0  0  0  0  0  0  0  0  0  0
  142.3250   77.0420  219.7340 C   0  0  0  0  0  0  0  0  0  0  0  0
  142.8000   75.6580  219.8500 C   0  0  0  0  0  0  0  0  0  0  0  0
  142.1010   74.8870  220.5440 O   0  0  0  0  0  0  0  0  0  0  0  0
  143.9900   75.2410  219.1900 N   0  0  0  0  0  0  0  0  0  0  0  0
  144.5240   73.9430  219.2280 C   0  0  0  0  0  0  0  0  0  0  0  0
  145.5250   73.5090  220.0590 C   0  0  0  0  0  0  0  0  0  0  0  0
  145.9610   72.1800  220.0940 C   0  0  0  0  0  0  0  0  0  0  0  0
  145.3530   71.2490  219.2430 C   0  0  0  0  0  0  0  0  0  0  0  0
  145.7830   69.8660  219.2770 C   0  0  0  0  0  0  0  0  0  0  0  0
  147.0540   69.6960  219.2730 O   0  0  0  0  0  0  0  0  0  0  0  0
  144.9920   68.7240  219.3150 N   0  0  0  0  0  0  0  0  0  0  0  0
  143.5180   68.7420  219.3200 C   0  0  0  0  0  0  0  0  0  0  0  0
  143.0090   67.3610  218.9580 C   0  0  0  0  0  0  0  0  0  0  0  0
  143.7110   66.7240  217.8920 N   0  0  0  0  0  0  0  0  0  0  0  0
  143.2180   66.9720  216.5760 C   0  0  0  0  0  0  0  0  0  0  0  0
  145.1590   66.7810  218.0000 C   0  0  0  0  0  0  0  0  0  0  0  0
  145.5630   67.3720  219.3470 C   0  0  0  0  0  0  0  0  0  0  0  0
  144.3330   71.6700  218.3860 C   0  0  0  0  0  0  0  0  0  0  0  0
  143.9450   72.9880  218.3970 C   0  0  0  0  0  0  0  0  0  0  0  0
  141.4730   77.5270  220.6800 C   0  0  0  0  0  0  0  0  0  0  0  0
  138.7190   78.9020  221.6570 N   0  0  0  0  0  0  0  0  0  0  0  0
  136.8969   81.1794  227.0446 H   0  0  0  0  0  0  0  0  0  0  0  0
  136.8807   82.6974  226.0844 H   0  0  0  0  0  0  0  0  0  0  0  0
  135.4439   81.6193  226.0844 H   0  0  0  0  0  0  0  0  0  0  0  0
  135.1632   80.0865  224.4665 H   0  0  0  0  0  0  0  0  0  0  0  0
  135.9608   78.8302  222.4984 H   0  0  0  0  0  0  0  0  0  0  0  0
  139.1391   81.5890  225.1712 H   0  0  0  0  0  0  0  0  0  0  0  0
  140.6201   81.1133  222.4844 H   0  0  0  0  0  0  0  0  0  0  0  0
  141.0212   79.7617  223.5105 H   0  0  0  0  0  0  0  0  0  0  0  0
  140.8134   80.6251  219.5512 H   0  0  0  0  0  0  0  0  0  0  0  0
  142.3595   79.8038  217.8080 H   0  0  0  0  0  0  0  0  0  0  0  0
  143.3350   77.5251  217.8910 H   0  0  0  0  0  0  0  0  0  0  0  0
  144.4790   75.9940  218.6360 H   0  0  0  0  0  0  0  0  0  0  0  0
  146.0063   74.2380  220.7275 H   0  0  0  0  0  0  0  0  0  0  0  0
  146.7663   71.8723  220.7772 H   0  0  0  0  0  0  0  0  0  0  0  0
  143.1555   69.0185  220.3211 H   0  0  0  0  0  0  0  0  0  0  0  0
  143.1518   69.4777  218.5889 H   0  0  0  0  0  0  0  0  0  0  0  0
  143.0891   66.7223  219.8500 H   0  0  0  0  0  0  0  0  0  0  0  0
  141.9739   67.4943  218.6104 H   0  0  0  0  0  0  0  0  0  0  0  0
  142.2369   67.4655  216.6389 H   0  0  0  0  0  0  0  0  0  0  0  0
  143.9221   67.6232  216.0373 H   0  0  0  0  0  0  0  0  0  0  0  0
  143.1149   66.0185  216.0373 H   0  0  0  0  0  0  0  0  0  0  0  0
  145.5705   65.7648  217.9108 H   0  0  0  0  0  0  0  0  0  0  0  0
  145.5546   67.4178  217.1950 H   0  0  0  0  0  0  0  0  0  0  0  0
  145.1394   66.7861  220.1760 H   0  0  0  0  0  0  0  0  0  0  0  0
  146.6515   67.3710  219.5054 H   0  0  0  0  0  0  0  0  0  0  0  0
  143.8453   70.9532  217.7090 H   0  0  0  0  0  0  0  0  0  0  0  0
  143.1394   73.3032  217.7176 H   0  0  0  0  0  0  0  0  0  0  0  0
  141.2160   76.8640  221.5193 H   0  0  0  0  0  0  0  0  0  0  0  0
  1  2  1  0
  2  3  2  0
  3  4  1  0
  4  5  2  0
  5  6  1  0
  6  7  2  0
  6  8  1  0
  8  9  1  0
  9 10  1  0
 10 11  2  0
 11 12  1  0
 12 13  2  0
 13 14  1  0
 14 15  1  0
 15 16  2  0
 15 17  1  0
 17 18  1  0
 18 19  2  0
 19 20  1  0
 20 21  2  0
 21 22  1  0
 22 23  2  0
 22 24  1  0
 24 25  1  0
 25 26  1  0
 26 27  1  0
 27 28  1  0
 27 29  1  0
 29 30  1  0
 21 31  1  0
 31 32  2  0
 14 33  2  0
  9 34  2  0
  7  2  1  0
 33 10  1  0
 34  5  1  0
 32 18  1  0
 30 24  1  0
  1 35  1  0
  1 36  1  0
  1 37  1  0
  3 38  1  0
  4 39  1  0
  7 40  1  0
  8 41  1  0
  8 42  1  0
 11 43  1  0
 12 44  1  0
 13 45  1  0
 17 46  1  0
 19 47  1  0
 20 48  1  0
 25 49  1  0
 25 50  1  0
 26 51  1  0
 26 52  1  0
 28 53  1  0
 28 54  1  0
 28 55  1  0
 29 56  1  0
 29 57  1  0
 30 58  1  0
 30 59  1  0
 31 60  1  0
 32 61  1  0
 33 62  1  0
M  END
>  <smiles>  (49) 
Cc1ccc2c(c1)CC(c1cccc(C(=O)Nc3ccc(C(=O)N4CCN(C)CC4)cc3)c1)=N2

>  <score_type>  (49) 
oracle

>  <origin>  (49) 
autodockgpu

>  <m_score__min__energy>  (49) 
-8.8599999999999994

>  <m_primary>  (49) 
energy

>  <rmsd>  (49) 
6.298191805514145

>  <m_score__min__rmsd>  (49) 
6.298191805514145

>  <meeko>  (49) 
{"free_energy": -8.08, "intermolecular_energy": -9.28, "internal_energy": -0.96, "cluster_size": 2, "cluster_id": 3, "rank_in_cluster": 1}

>  <energy>  (49) 
-8.03

>  <cluster_rmsd>  (49) 
0.0

>  <cluster>  (49) 
4

$$$$

     RDKit          3D

 62 66  0  0  0  0  0  0  0  0999 V2000
  140.3380   68.4160  229.0670 C   0  0  0  0  0  0  0  0  0  0  0  0
  140.1840   68.7920  227.6390 C   0  0  0  0  0  0  0  0  0  0  0  0
  139.5720   67.8860  226.7750 C   0  0  0  0  0  0  0  0  0  0  0  0
  139.3930   68.1670  225.4440 C   0  0  0  0  0  0  0  0  0  0  0  0
  139.8320   69.3840  224.9510 C   0  0  0  0  0  0  0  0  0  0  0  0
  140.4410   70.3090  225.7700 C   0  0  0  0  0  0  0  0  0  0  0  0
  140.6220   70.0130  227.1300 C   0  0  0  0  0  0  0  0  0  0  0  0
  140.7920   71.5120  224.9420 C   0  0  0  0  0  0  0  0  0  0  0  0
  140.2950   71.1170  223.6030 C   0  0  0  0  0  0  0  0  0  0  0  0
  140.3270   71.9190  222.3720 C   0  0  0  0  0  0  0  0  0  0  0  0
  140.8880   71.3750  221.2300 C   0  0  0  0  0  0  0  0  0  0  0  0
  140.9460   72.1580  220.0950 C   0  0  0  0  0  0  0  0  0  0  0  0
  140.4680   73.4640  220.0550 C   0  0  0  0  0  0  0  0  0  0  0  0
  139.9120   73.9920  221.1970 C   0  0  0  0  0  0  0  0  0  0  0  0
  139.4290   75.3740  221.2910 C   0  0  0  0  0  0  0  0  0  0  0  0
  139.3450   76.0090  220.2170 O   0  0  0  0  0  0  0  0  0  0  0  0
  139.0730   75.9350  222.5510 N   0  0  0  0  0  0  0  0  0  0  0  0
  138.5920   77.2390  222.7500 C   0  0  0  0  0  0  0  0  0  0  0  0
  137.2770   77.6250  222.7130 C   0  0  0  0  0  0  0  0  0  0  0  0
  136.8610   78.9320  222.9910 C   0  0  0  0  0  0  0  0  0  0  0  0
  137.8260   79.8910  223.3190 C   0  0  0  0  0  0  0  0  0  0  0  0
  137.4110   81.2450  223.6240 C   0  0  0  0  0  0  0  0  0  0  0  0
  138.1240   82.1620  223.0840 O   0  0  0  0  0  0  0  0  0  0  0  0
  136.3450   81.6550  224.4180 N   0  0  0  0  0  0  0  0  0  0  0  0
  135.4320   80.7320  225.1140 C   0  0  0  0  0  0  0  0  0  0  0  0
  134.6760   81.4990  226.1800 C   0  0  0  0  0  0  0  0  0  0  0  0
  135.4660   82.4200  226.9290 N   0  0  0  0  0  0  0  0  0  0  0  0
  136.0910   81.9040  228.1040 C   0  0  0  0  0  0  0  0  0  0  0  0
  136.3300   83.2710  226.1280 C   0  0  0  0  0  0  0  0  0  0  0  0
  136.0340   83.0710  224.6450 C   0  0  0  0  0  0  0  0  0  0  0  0
  139.1730   79.5200  223.3600 C   0  0  0  0  0  0  0  0  0  0  0  0
  139.5220   78.2210  223.0790 C   0  0  0  0  0  0  0  0  0  0  0  0
  139.8650   73.2000  222.3040 C   0  0  0  0  0  0  0  0  0  0  0  0
  139.7710   69.9400  223.6330 N   0  0  0  0  0  0  0  0  0  0  0  0
  139.9980   69.2462  229.7035 H   0  0  0  0  0  0  0  0  0  0  0  0
  139.7339   67.5212  229.2778 H   0  0  0  0  0  0  0  0  0  0  0  0
  141.3962   68.2020  229.2778 H   0  0  0  0  0  0  0  0  0  0  0  0
  139.2234   66.9205  227.1703 H   0  0  0  0  0  0  0  0  0  0  0  0
  138.9084   67.4369  224.7791 H   0  0  0  0  0  0  0  0  0  0  0  0
  141.1087   70.7436  227.7929 H   0  0  0  0  0  0  0  0  0  0  0  0
  140.2797   72.4136  225.3090 H   0  0  0  0  0  0  0  0  0  0  0  0
  141.8616   71.7682  224.9613 H   0  0  0  0  0  0  0  0  0  0  0  0
  141.2773   70.3462  221.2269 H   0  0  0  0  0  0  0  0  0  0  0  0
  141.3891   71.7313  219.1831 H   0  0  0  0  0  0  0  0  0  0  0  0
  140.5331   74.0598  219.1326 H   0  0  0  0  0  0  0  0  0  0  0  0
  139.1910   75.2870  223.3750 H   0  0  0  0  0  0  0  0  0  0  0  0
  136.5157   76.8747  222.4535 H   0  0  0  0  0  0  0  0  0  0  0  0
  135.7950   79.2006  222.9524 H   0  0  0  0  0  0  0  0  0  0  0  0
  134.7203   80.3033  224.3931 H   0  0  0  0  0  0  0  0  0  0  0  0
  136.0081   79.9183  225.5788 H   0  0  0  0  0  0  0  0  0  0  0  0
  133.8686   82.0617  225.6886 H   0  0  0  0  0  0  0  0  0  0  0  0
  134.3095   80.7506  226.8981 H   0  0  0  0  0  0  0  0  0  0  0  0
  135.5932   82.3150  228.9947 H   0  0  0  0  0  0  0  0  0  0  0  0
  136.0089   80.8071  228.1114 H   0  0  0  0  0  0  0  0  0  0  0  0
  137.1525   82.1923  228.1114 H   0  0  0  0  0  0  0  0  0  0  0  0
  136.1535   84.3233  226.3955 H   0  0  0  0  0  0  0  0  0  0  0  0
  137.3793   83.0057  226.3247 H   0  0  0  0  0  0  0  0  0  0  0  0
  134.9772   83.2812  224.4238 H   0  0  0  0  0  0  0  0  0  0  0  0
  136.6156   83.7449  223.9988 H   0  0  0  0  0  0  0  0  0  0  0  0
  139.9457   80.2603  223.6146 H   0  0  0  0  0  0  0  0  0  0  0  0
  140.5860   77.9443  223.1158 H   0  0  0  0  0  0  0  0  0  0  0  0
  139.4195   73.6272  223.2145 H   0  0  0  0  0  0  0  0  0  0  0  0
  1  2  1  0
  2  3  2  0
  3  4  1  0
  4  5  2  0
  5  6  1  0
  6  7  2  0
  6  8  1  0
  8  9  1  0
  9 10  1  0
 10 11  2  0
 11 12  1  0
 12 13  2  0
 13 14  1  0
 14 15  1  0
 15 16  2  0
 15 17  1  0
 17 18  1  0
 18 19  2  0
 19 20  1  0
 20 21  2  0
 21 22  1  0
 22 23  2  0
 22 24  1  0
 24 25  1  0
 25 26  1  0
 26 27  1  0
 27 28  1  0
 27 29  1  0
 29 30  1  0
 21 31  1  0
 31 32  2  0
 14 33  2  0
  9 34  2  0
  7  2  1  0
 33 10  1  0
 34  5  1  0
 32 18  1  0
 30 24  1  0
  1 35  1  0
  1 36  1  0
  1 37  1  0
  3 38  1  0
  4 39  1  0
  7 40  1  0
  8 41  1  0
  8 42  1  0
 11 43  1  0
 12 44  1  0
 13 45  1  0
 17 46  1  0
 19 47  1  0
 20 48  1  0
 25 49  1  0
 25 50  1  0
 26 51  1  0
 26 52  1  0
 28 53  1  0
 28 54  1  0
 28 55  1  0
 29 56  1  0
 29 57  1  0
 30 58  1  0
 30 59  1  0
 31 60  1  0
 32 61  1  0
 33 62  1  0
M  END
>  <smiles>  (50) 
Cc1ccc2c(c1)CC(c1cccc(C(=O)Nc3ccc(C(=O)N4CCN(C)CC4)cc3)c1)=N2

>  <score_type>  (50) 
oracle

>  <origin>  (50) 
autodockgpu

>  <m_score__min__energy>  (50) 
-8.8599999999999994

>  <m_primary>  (50) 
energy

>  <rmsd>  (50) 
8.901023177371595

>  <m_score__min__rmsd>  (50) 
8.901023177371595

>  <meeko>  (50) 
{"free_energy": -8.33, "intermolecular_energy": -9.52, "internal_energy": -0.92, "cluster_size": 7, "cluster_id": 2, "rank_in_cluster": 4}

>  <energy>  (50) 
-7.87

>  <cluster_rmsd>  (50) 
0.0

>  <cluster>  (50) 
5

$$$$
