
     RDKit          3D

 58 61  0  0  0  0  0  0  0  0999 V2000
  142.8940   77.5430  217.3290 C   0  0  0  0  0  0  0  0  0  0  0  0
  142.9610   77.1990  218.8190 C   0  0  0  0  0  0  0  0  0  0  0  0
  141.7530   77.6540  219.5170 C   0  0  0  0  0  0  0  0  0  0  0  0
  140.9690   78.4160  218.8410 O   0  0  0  0  0  0  0  0  0  0  0  0
  141.3420   77.3650  220.8260 N   0  0  0  0  0  0  0  0  0  0  0  0
  141.5760   78.4570  221.7780 C   0  0  0  0  0  0  0  0  0  0  0  0
  141.4250   78.2230  223.1320 C   0  0  0  0  0  0  0  0  0  0  0  0
  141.6560   79.2850  224.0120 C   0  0  0  0  0  0  0  0  0  0  0  0
  142.0240   80.5290  223.5200 C   0  0  0  0  0  0  0  0  0  0  0  0
  142.1650   80.7320  222.1610 C   0  0  0  0  0  0  0  0  0  0  0  0
  141.9400   79.6860  221.2670 C   0  0  0  0  0  0  0  0  0  0  0  0
  140.7480   76.2010  221.3570 C   0  0  0  0  0  0  0  0  0  0  0  0
  141.4560   74.9050  220.9330 C   0  0  0  0  0  0  0  0  0  0  0  0
  140.9490   73.8110  221.8680 C   0  0  0  0  0  0  0  0  0  0  0  0
  139.4980   73.8440  221.9550 N   0  0  0  0  0  0  0  0  0  0  0  0
  138.8100   72.5790  222.0380 C   0  0  0  0  0  0  0  0  0  0  0  0
  137.5430   72.5270  222.1160 O   0  0  0  0  0  0  0  0  0  0  0  0
  139.5320   71.2970  222.0360 C   0  0  0  0  0  0  0  0  0  0  0  0
  139.6910   70.8660  223.4500 C   0  0  0  0  0  0  0  0  0  0  0  0
  139.1810   69.6080  223.7830 C   0  0  0  0  0  0  0  0  0  0  0  0
  139.2640   69.0940  225.0550 C   0  0  0  0  0  0  0  0  0  0  0  0
  139.8800   69.8740  226.0130 C   0  0  0  0  0  0  0  0  0  0  0  0
  139.9790   69.3850  227.3010 C   0  0  0  0  0  0  0  0  0  0  0  0
  140.5820   70.1110  228.3140 C   0  0  0  0  0  0  0  0  0  0  0  0
  141.0900   71.3590  227.9930 C   0  0  0  0  0  0  0  0  0  0  0  0
  140.9980   71.8650  226.7030 C   0  0  0  0  0  0  0  0  0  0  0  0
  140.3890   71.1220  225.6970 C   0  0  0  0  0  0  0  0  0  0  0  0
  140.3050   71.6450  224.4060 C   0  0  0  0  0  0  0  0  0  0  0  0
  138.7110   75.0450  221.9630 C   0  0  0  0  0  0  0  0  0  0  0  0
  139.3070   76.0060  220.9400 C   0  0  0  0  0  0  0  0  0  0  0  0
  142.6849   78.6163  217.2095 H   0  0  0  0  0  0  0  0  0  0  0  0
  143.8560   77.3016  216.8533 H   0  0  0  0  0  0  0  0  0  0  0  0
  142.0929   76.9582  216.8533 H   0  0  0  0  0  0  0  0  0  0  0  0
  143.0536   76.1088  218.9330 H   0  0  0  0  0  0  0  0  0  0  0  0
  143.8325   77.7069  219.2578 H   0  0  0  0  0  0  0  0  0  0  0  0
  141.1319   77.2310  223.5061 H   0  0  0  0  0  0  0  0  0  0  0  0
  141.5458   79.1339  225.0960 H   0  0  0  0  0  0  0  0  0  0  0  0
  142.2049   81.3601  224.2176 H   0  0  0  0  0  0  0  0  0  0  0  0
  142.4560   81.7230  221.7825 H   0  0  0  0  0  0  0  0  0  0  0  0
  142.0498   79.8365  220.1829 H   0  0  0  0  0  0  0  0  0  0  0  0
  140.8305   76.3728  222.4404 H   0  0  0  0  0  0  0  0  0  0  0  0
  141.2072   74.6594  219.8900 H   0  0  0  0  0  0  0  0  0  0  0  0
  142.5492   75.0088  220.9967 H   0  0  0  0  0  0  0  0  0  0  0  0
  141.2658   72.8306  221.4826 H   0  0  0  0  0  0  0  0  0  0  0  0
  141.3683   73.9793  222.8709 H   0  0  0  0  0  0  0  0  0  0  0  0
  138.9570   70.5440  221.4771 H   0  0  0  0  0  0  0  0  0  0  0  0
  140.5146   71.4088  221.5543 H   0  0  0  0  0  0  0  0  0  0  0  0
  138.6959   69.0079  222.9991 H   0  0  0  0  0  0  0  0  0  0  0  0
  138.8564   68.1020  225.2995 H   0  0  0  0  0  0  0  0  0  0  0  0
  139.5671   68.3907  227.5283 H   0  0  0  0  0  0  0  0  0  0  0  0
  140.6550   69.7114  229.3362 H   0  0  0  0  0  0  0  0  0  0  0  0
  141.5757   71.9610  228.7751 H   0  0  0  0  0  0  0  0  0  0  0  0
  141.4093   72.8595  226.4753 H   0  0  0  0  0  0  0  0  0  0  0  0
  140.7119   72.6374  224.1620 H   0  0  0  0  0  0  0  0  0  0  0  0
  137.6705   74.8112  221.6935 H   0  0  0  0  0  0  0  0  0  0  0  0
  138.7186   75.5001  222.9644 H   0  0  0  0  0  0  0  0  0  0  0  0
  139.2547   75.5729  219.9302 H   0  0  0  0  0  0  0  0  0  0  0  0
  138.7593   76.9595  220.9096 H   0  0  0  0  0  0  0  0  0  0  0  0
  1  2  1  0
  2  3  1  0
  3  4  2  0
  3  5  1  0
  5  6  1  0
  6  7  2  0
  7  8  1  0
  8  9  2  0
  9 10  1  0
 10 11  2  0
  5 12  1  0
 12 13  1  0
 13 14  1  0
 14 15  1  0
 15 16  1  0
 16 17  2  0
 16 18  1  0
 18 19  1  0
 19 20  2  0
 20 21  1  0
 21 22  2  0
 22 23  1  0
 23 24  2  0
 24 25  1  0
 25 26  2  0
 26 27  1  0
 27 28  2  0
 15 29  1  0
 29 30  1  0
 11  6  1  0
 30 12  1  0
 28 19  1  0
 27 22  1  0
  1 31  1  0
  1 32  1  0
  1 33  1  0
  2 34  1  0
  2 35  1  0
  7 36  1  0
  8 37  1  0
  9 38  1  0
 10 39  1  0
 11 40  1  0
 12 41  1  0
 13 42  1  0
 13 43  1  0
 14 44  1  0
 14 45  1  0
 18 46  1  0
 18 47  1  0
 20 48  1  0
 21 49  1  0
 23 50  1  0
 24 51  1  0
 25 52  1  0
 26 53  1  0
 28 54  1  0
 29 55  1  0
 29 56  1  0
 30 57  1  0
 30 58  1  0
M  END
>  <smiles>  (1) 
CCC(=O)N(c1ccccc1)C1CCN(C(=O)Cc2ccc3ccccc3c2)CC1

>  <score_type>  (1) 
oracle

>  <origin>  (1) 
autodockgpu

>  <m_score__min__energy>  (1) 
-9.0999999999999996

>  <m_primary>  (1) 
energy

>  <rmsd>  (1) 
8.240465497539441

>  <m_score__min__rmsd>  (1) 
8.240465497539441

>  <meeko>  (1) 
{"free_energy": -8.92, "intermolecular_energy": -10.71, "internal_energy": -1.45, "cluster_size": 46, "cluster_id": 1, "rank_in_cluster": 39}

>  <energy>  (1) 
-9.1

>  <cluster_rmsd>  (1) 
0.0

>  <cluster>  (1) 
1

$$$$

     RDKit          3D

 58 61  0  0  0  0  0  0  0  0999 V2000
  138.0500   80.6800  223.9700 C   0  0  0  0  0  0  0  0  0  0  0  0
  137.4330   79.5210  223.1850 C   0  0  0  0  0  0  0  0  0  0  0  0
  138.3060   79.1110  222.0800 C   0  0  0  0  0  0  0  0  0  0  0  0
  137.9680   79.5320  220.9130 O   0  0  0  0  0  0  0  0  0  0  0  0
  139.4640   78.3220  222.1300 N   0  0  0  0  0  0  0  0  0  0  0  0
  140.6710   79.0610  222.5180 C   0  0  0  0  0  0  0  0  0  0  0  0
  141.0460   79.1030  223.8480 C   0  0  0  0  0  0  0  0  0  0  0  0
  142.2010   79.8160  224.1830 C   0  0  0  0  0  0  0  0  0  0  0  0
  142.9350   80.4560  223.1960 C   0  0  0  0  0  0  0  0  0  0  0  0
  142.5350   80.3970  221.8740 C   0  0  0  0  0  0  0  0  0  0  0  0
  141.3870   79.6910  221.5190 C   0  0  0  0  0  0  0  0  0  0  0  0
  139.6410   76.9480  221.8670 C   0  0  0  0  0  0  0  0  0  0  0  0
  138.5910   76.0550  222.5440 C   0  0  0  0  0  0  0  0  0  0  0  0
  138.6870   74.6890  221.8700 C   0  0  0  0  0  0  0  0  0  0  0  0
  140.0710   74.2490  221.8020 N   0  0  0  0  0  0  0  0  0  0  0  0
  140.3290   72.8430  221.9990 C   0  0  0  0  0  0  0  0  0  0  0  0
  141.5120   72.3840  221.9550 O   0  0  0  0  0  0  0  0  0  0  0  0
  139.2480   71.8810  222.2610 C   0  0  0  0  0  0  0  0  0  0  0  0
  139.5340   71.2230  223.5630 C   0  0  0  0  0  0  0  0  0  0  0  0
  139.1820   69.8750  223.6740 C   0  0  0  0  0  0  0  0  0  0  0  0
  139.3940   69.1520  224.8240 C   0  0  0  0  0  0  0  0  0  0  0  0
  139.9780   69.8120  225.8870 C   0  0  0  0  0  0  0  0  0  0  0  0
  140.2050   69.1130  227.0560 C   0  0  0  0  0  0  0  0  0  0  0  0
  140.7850   69.7080  228.1640 C   0  0  0  0  0  0  0  0  0  0  0  0
  141.1370   71.0440  228.0610 C   0  0  0  0  0  0  0  0  0  0  0  0
  140.9160   71.7610  226.8930 C   0  0  0  0  0  0  0  0  0  0  0  0
  140.3320   71.1470  225.7900 C   0  0  0  0  0  0  0  0  0  0  0  0
  140.1170   71.8820  224.6230 C   0  0  0  0  0  0  0  0  0  0  0  0
  141.1880   75.1150  221.5530 C   0  0  0  0  0  0  0  0  0  0  0  0
  140.9720   76.4020  222.3400 C   0  0  0  0  0  0  0  0  0  0  0  0
  137.9478   80.4880  225.0483 H   0  0  0  0  0  0  0  0  0  0  0  0
  139.1157   80.7706  223.7131 H   0  0  0  0  0  0  0  0  0  0  0  0
  137.5301   81.6147  223.7131 H   0  0  0  0  0  0  0  0  0  0  0  0
  137.2843   78.6668  223.8620 H   0  0  0  0  0  0  0  0  0  0  0  0
  136.4713   79.8534  222.7671 H   0  0  0  0  0  0  0  0  0  0  0  0
  140.4531   78.5905  224.6199 H   0  0  0  0  0  0  0  0  0  0  0  0
  142.5282   79.8694  225.2319 H   0  0  0  0  0  0  0  0  0  0  0  0
  143.8427   81.0151  223.4670 H   0  0  0  0  0  0  0  0  0  0  0  0
  143.1249   80.9091  221.0995 H   0  0  0  0  0  0  0  0  0  0  0  0
  141.0596   79.6369  220.4702 H   0  0  0  0  0  0  0  0  0  0  0  0
  139.5598   76.9102  220.7707 H   0  0  0  0  0  0  0  0  0  0  0  0
  138.8050   75.9645  223.6192 H   0  0  0  0  0  0  0  0  0  0  0  0
  137.5814   76.4796  222.4421 H   0  0  0  0  0  0  0  0  0  0  0  0
  138.1032   73.9582  222.4489 H   0  0  0  0  0  0  0  0  0  0  0  0
  138.2893   74.7689  220.8475 H   0  0  0  0  0  0  0  0  0  0  0  0
  138.2829   72.4064  222.3108 H   0  0  0  0  0  0  0  0  0  0  0  0
  139.1937   71.1338  221.4555 H   0  0  0  0  0  0  0  0  0  0  0  0
  138.7190   69.3748  222.8106 H   0  0  0  0  0  0  0  0  0  0  0  0
  139.1101   68.0916  224.8944 H   0  0  0  0  0  0  0  0  0  0  0  0
  139.9168   68.0527  227.1088 H   0  0  0  0  0  0  0  0  0  0  0  0
  140.9596   69.1414  229.0905 H   0  0  0  0  0  0  0  0  0  0  0  0
  141.6010   71.5469  228.9223 H   0  0  0  0  0  0  0  0  0  0  0  0
  141.2045   72.8211  226.8395 H   0  0  0  0  0  0  0  0  0  0  0  0
  140.4010   72.9424  224.5527 H   0  0  0  0  0  0  0  0  0  0  0  0
  142.1181   74.6282  221.8818 H   0  0  0  0  0  0  0  0  0  0  0  0
  141.2691   75.3339  220.4781 H   0  0  0  0  0  0  0  0  0  0  0  0
  140.9394   76.1916  223.4192 H   0  0  0  0  0  0  0  0  0  0  0  0
  141.7885   77.1210  222.1778 H   0  0  0  0  0  0  0  0  0  0  0  0
  1  2  1  0
  2  3  1  0
  3  4  2  0
  3  5  1  0
  5  6  1  0
  6  7  2  0
  7  8  1  0
  8  9  2  0
  9 10  1  0
 10 11  2  0
  5 12  1  0
 12 13  1  0
 13 14  1  0
 14 15  1  0
 15 16  1  0
 16 17  2  0
 16 18  1  0
 18 19  1  0
 19 20  2  0
 20 21  1  0
 21 22  2  0
 22 23  1  0
 23 24  2  0
 24 25  1  0
 25 26  2  0
 26 27  1  0
 27 28  2  0
 15 29  1  0
 29 30  1  0
 11  6  1  0
 30 12  1  0
 28 19  1  0
 27 22  1  0
  1 31  1  0
  1 32  1  0
  1 33  1  0
  2 34  1  0
  2 35  1  0
  7 36  1  0
  8 37  1  0
  9 38  1  0
 10 39  1  0
 11 40  1  0
 12 41  1  0
 13 42  1  0
 13 43  1  0
 14 44  1  0
 14 45  1  0
 18 46  1  0
 18 47  1  0
 20 48  1  0
 21 49  1  0
 23 50  1  0
 24 51  1  0
 25 52  1  0
 26 53  1  0
 28 54  1  0
 29 55  1  0
 29 56  1  0
 30 57  1  0
 30 58  1  0
M  END
>  <smiles>  (2) 
CCC(=O)N(c1ccccc1)C1CCN(C(=O)Cc2ccc3ccccc3c2)CC1

>  <score_type>  (2) 
oracle

>  <origin>  (2) 
autodockgpu

>  <m_score__min__energy>  (2) 
-9.0999999999999996

>  <m_primary>  (2) 
energy

>  <rmsd>  (2) 
8.263953597197622

>  <m_score__min__rmsd>  (2) 
8.263953597197622

>  <meeko>  (2) 
{"free_energy": -8.99, "intermolecular_energy": -10.78, "internal_energy": -1.46, "cluster_size": 46, "cluster_id": 1, "rank_in_cluster": 19}

>  <energy>  (2) 
-9.09

>  <cluster_rmsd>  (2) 
0.1

>  <cluster>  (2) 
1

$$$$

     RDKit          3D

 58 61  0  0  0  0  0  0  0  0999 V2000
  138.1930   80.8920  223.8020 C   0  0  0  0  0  0  0  0  0  0  0  0
  137.5980   79.5440  223.3910 C   0  0  0  0  0  0  0  0  0  0  0  0
  138.2940   78.9980  222.2200 C   0  0  0  0  0  0  0  0  0  0  0  0
  137.7440   79.2320  221.0820 O   0  0  0  0  0  0  0  0  0  0  0  0
  139.4830   78.2550  222.1800 N   0  0  0  0  0  0  0  0  0  0  0  0
  140.6810   79.0330  222.5150 C   0  0  0  0  0  0  0  0  0  0  0  0
  141.3850   79.6650  221.5070 C   0  0  0  0  0  0  0  0  0  0  0  0
  142.5220   80.3990  221.8610 C   0  0  0  0  0  0  0  0  0  0  0  0
  142.9150   80.4770  223.1890 C   0  0  0  0  0  0  0  0  0  0  0  0
  142.1910   79.8330  224.1740 C   0  0  0  0  0  0  0  0  0  0  0  0
  141.0540   79.0970  223.8420 C   0  0  0  0  0  0  0  0  0  0  0  0
  139.6970   76.8970  221.8700 C   0  0  0  0  0  0  0  0  0  0  0  0
  138.6570   75.9550  222.4950 C   0  0  0  0  0  0  0  0  0  0  0  0
  138.7970   74.6180  221.7730 C   0  0  0  0  0  0  0  0  0  0  0  0
  140.1920   74.2120  221.7130 N   0  0  0  0  0  0  0  0  0  0  0  0
  140.4800   72.8070  221.8630 C   0  0  0  0  0  0  0  0  0  0  0  0
  141.6750   72.3770  221.8230 O   0  0  0  0  0  0  0  0  0  0  0  0
  139.4180   71.8100  222.0710 C   0  0  0  0  0  0  0  0  0  0  0  0
  139.6150   71.2140  223.4180 C   0  0  0  0  0  0  0  0  0  0  0  0
  139.1410   69.9120  223.6030 C   0  0  0  0  0  0  0  0  0  0  0  0
  139.2620   69.2480  224.8000 C   0  0  0  0  0  0  0  0  0  0  0  0
  139.8800   69.9210  225.8360 C   0  0  0  0  0  0  0  0  0  0  0  0
  140.0160   69.2800  227.0520 C   0  0  0  0  0  0  0  0  0  0  0  0
  140.6240   69.8910  228.1360 C   0  0  0  0  0  0  0  0  0  0  0  0
  141.0970   71.1820  227.9620 C   0  0  0  0  0  0  0  0  0  0  0  0
  140.9670   71.8390  226.7460 C   0  0  0  0  0  0  0  0  0  0  0  0
  140.3530   71.2100  225.6660 C   0  0  0  0  0  0  0  0  0  0  0  0
  140.2310   71.8850  224.4520 C   0  0  0  0  0  0  0  0  0  0  0  0
  141.2920   75.1120  221.5160 C   0  0  0  0  0  0  0  0  0  0  0  0
  141.0320   76.3650  222.3450 C   0  0  0  0  0  0  0  0  0  0  0  0
  138.2231   80.9602  224.8995 H   0  0  0  0  0  0  0  0  0  0  0  0
  139.2135   80.9799  223.4010 H   0  0  0  0  0  0  0  0  0  0  0  0
  137.5702   81.7052  223.4010 H   0  0  0  0  0  0  0  0  0  0  0  0
  137.6944   78.8376  224.2287 H   0  0  0  0  0  0  0  0  0  0  0  0
  136.5392   79.6921  223.1323 H   0  0  0  0  0  0  0  0  0  0  0  0
  141.0609   79.5929  220.4583 H   0  0  0  0  0  0  0  0  0  0  0  0
  143.1056   80.9154  221.0846 H   0  0  0  0  0  0  0  0  0  0  0  0
  143.8101   81.0561  223.4601 H   0  0  0  0  0  0  0  0  0  0  0  0
  142.5126   79.9011  225.2237 H   0  0  0  0  0  0  0  0  0  0  0  0
  140.4696   78.5808  224.6179 H   0  0  0  0  0  0  0  0  0  0  0  0
  139.6350   76.8983  220.7717 H   0  0  0  0  0  0  0  0  0  0  0  0
  138.8548   75.8294  223.5697 H   0  0  0  0  0  0  0  0  0  0  0  0
  137.6394   76.3595  222.3909 H   0  0  0  0  0  0  0  0  0  0  0  0
  138.2208   73.8530  222.3141 H   0  0  0  0  0  0  0  0  0  0  0  0
  138.4152   74.7274  220.7472 H   0  0  0  0  0  0  0  0  0  0  0  0
  138.4325   72.2956  222.0167 H   0  0  0  0  0  0  0  0  0  0  0  0
  139.4631   71.0316  221.2951 H   0  0  0  0  0  0  0  0  0  0  0  0
  138.6536   69.4005  222.7599 H   0  0  0  0  0  0  0  0  0  0  0  0
  138.8826   68.2234  224.9278 H   0  0  0  0  0  0  0  0  0  0  0  0
  139.6306   68.2556  227.1625 H   0  0  0  0  0  0  0  0  0  0  0  0
  140.7277   69.3707  229.0996 H   0  0  0  0  0  0  0  0  0  0  0  0
  141.5847   71.6959  228.8035 H   0  0  0  0  0  0  0  0  0  0  0  0
  141.3517   72.8635  226.6349 H   0  0  0  0  0  0  0  0  0  0  0  0
  140.6104   72.9097  224.3251 H   0  0  0  0  0  0  0  0  0  0  0  0
  142.2274   74.6352  221.8440 H   0  0  0  0  0  0  0  0  0  0  0  0
  141.3864   75.3718  220.4513 H   0  0  0  0  0  0  0  0  0  0  0  0
  140.9869   76.1149  223.4152 H   0  0  0  0  0  0  0  0  0  0  0  0
  141.8336   77.1082  222.2220 H   0  0  0  0  0  0  0  0  0  0  0  0
  1  2  1  0
  2  3  1  0
  3  4  2  0
  3  5  1  0
  5  6  1  0
  6  7  2  0
  7  8  1  0
  8  9  2  0
  9 10  1  0
 10 11  2  0
  5 12  1  0
 12 13  1  0
 13 14  1  0
 14 15  1  0
 15 16  1  0
 16 17  2  0
 16 18  1  0
 18 19  1  0
 19 20  2  0
 20 21  1  0
 21 22  2  0
 22 23  1  0
 23 24  2  0
 24 25  1  0
 25 26  2  0
 26 27  1  0
 27 28  2  0
 15 29  1  0
 29 30  1  0
 11  6  1  0
 30 12  1  0
 28 19  1  0
 27 22  1  0
  1 31  1  0
  1 32  1  0
  1 33  1  0
  2 34  1  0
  2 35  1  0
  7 36  1  0
  8 37  1  0
  9 38  1  0
 10 39  1  0
 11 40  1  0
 12 41  1  0
 13 42  1  0
 13 43  1  0
 14 44  1  0
 14 45  1  0
 18 46  1  0
 18 47  1  0
 20 48  1  0
 21 49  1  0
 23 50  1  0
 24 51  1  0
 25 52  1  0
 26 53  1  0
 28 54  1  0
 29 55  1  0
 29 56  1  0
 30 57  1  0
 30 58  1  0
M  END
>  <smiles>  (3) 
CCC(=O)N(c1ccccc1)C1CCN(C(=O)Cc2ccc3ccccc3c2)CC1

>  <score_type>  (3) 
oracle

>  <origin>  (3) 
autodockgpu

>  <m_score__min__energy>  (3) 
-9.0999999999999996

>  <m_primary>  (3) 
energy

>  <rmsd>  (3) 
8.19991893785701

>  <m_score__min__rmsd>  (3) 
8.19991893785701

>  <meeko>  (3) 
{"free_energy": -8.99, "intermolecular_energy": -10.78, "internal_energy": -1.48, "cluster_size": 46, "cluster_id": 1, "rank_in_cluster": 20}

>  <energy>  (3) 
-9.09

>  <cluster_rmsd>  (3) 
0.06

>  <cluster>  (3) 
1

$$$$

     RDKit          3D

 58 61  0  0  0  0  0  0  0  0999 V2000
  138.0180   80.5510  224.2090 C   0  0  0  0  0  0  0  0  0  0  0  0
  138.1290   80.4840  222.6840 C   0  0  0  0  0  0  0  0  0  0  0  0
  138.2740   79.0960  222.2290 C   0  0  0  0  0  0  0  0  0  0  0  0
  137.2040   78.5370  221.7880 O   0  0  0  0  0  0  0  0  0  0  0  0
  139.4290   78.3010  222.2100 N   0  0  0  0  0  0  0  0  0  0  0  0
  140.6580   79.0290  222.5460 C   0  0  0  0  0  0  0  0  0  0  0  0
  141.3810   79.6430  221.5400 C   0  0  0  0  0  0  0  0  0  0  0  0
  142.5470   80.3290  221.8940 C   0  0  0  0  0  0  0  0  0  0  0  0
  142.9500   80.3800  223.2200 C   0  0  0  0  0  0  0  0  0  0  0  0
  142.2060   79.7560  224.2040 C   0  0  0  0  0  0  0  0  0  0  0  0
  141.0400   79.0670  223.8720 C   0  0  0  0  0  0  0  0  0  0  0  0
  139.5850   76.9300  221.9210 C   0  0  0  0  0  0  0  0  0  0  0  0
  138.5900   76.0300  222.6680 C   0  0  0  0  0  0  0  0  0  0  0  0
  138.6330   74.6700  221.9760 C   0  0  0  0  0  0  0  0  0  0  0  0
  140.0070   74.2310  221.7970 N   0  0  0  0  0  0  0  0  0  0  0  0
  140.2800   72.8240  221.9610 C   0  0  0  0  0  0  0  0  0  0  0  0
  141.4560   72.3650  221.8210 O   0  0  0  0  0  0  0  0  0  0  0  0
  139.2210   71.8590  222.2960 C   0  0  0  0  0  0  0  0  0  0  0  0
  139.6130   71.1800  223.5590 C   0  0  0  0  0  0  0  0  0  0  0  0
  140.4720   71.8830  224.4080 C   0  0  0  0  0  0  0  0  0  0  0  0
  140.9090   71.3670  225.6050 C   0  0  0  0  0  0  0  0  0  0  0  0
  140.4630   70.1070  225.9500 C   0  0  0  0  0  0  0  0  0  0  0  0
  140.8840   69.5610  227.1460 C   0  0  0  0  0  0  0  0  0  0  0  0
  140.4800   68.3020  227.5590 C   0  0  0  0  0  0  0  0  0  0  0  0
  139.6280   67.5980  226.7230 C   0  0  0  0  0  0  0  0  0  0  0  0
  139.1960   68.1330  225.5170 C   0  0  0  0  0  0  0  0  0  0  0  0
  139.6120   69.3990  225.1180 C   0  0  0  0  0  0  0  0  0  0  0  0
  139.1690   69.9220  223.9030 C   0  0  0  0  0  0  0  0  0  0  0  0
  141.1020   75.1000  221.4710 C   0  0  0  0  0  0  0  0  0  0  0  0
  140.9480   76.3800  222.2840 C   0  0  0  0  0  0  0  0  0  0  0  0
  138.8761   80.0330  224.6622 H   0  0  0  0  0  0  0  0  0  0  0  0
  138.0132   81.6030  224.5304 H   0  0  0  0  0  0  0  0  0  0  0  0
  137.0849   80.0652  224.5304 H   0  0  0  0  0  0  0  0  0  0  0  0
  137.2212   80.9162  222.2377 H   0  0  0  0  0  0  0  0  0  0  0  0
  139.0185   81.0506  222.3715 H   0  0  0  0  0  0  0  0  0  0  0  0
  141.0489   79.5933  220.4925 H   0  0  0  0  0  0  0  0  0  0  0  0
  143.1460   80.8294  221.1189 H   0  0  0  0  0  0  0  0  0  0  0  0
  143.8686   80.9211  223.4909 H   0  0  0  0  0  0  0  0  0  0  0  0
  142.5350   79.8032  225.2526 H   0  0  0  0  0  0  0  0  0  0  0  0
  140.4402   78.5668  224.6466 H   0  0  0  0  0  0  0  0  0  0  0  0
  139.4196   76.9030  220.8338 H   0  0  0  0  0  0  0  0  0  0  0  0
  138.8860   75.9294  223.7226 H   0  0  0  0  0  0  0  0  0  0  0  0
  137.5757   76.4552  222.6476 H   0  0  0  0  0  0  0  0  0  0  0  0
  138.0954   73.9338  222.5917 H   0  0  0  0  0  0  0  0  0  0  0  0
  138.1574   74.7592  220.9882 H   0  0  0  0  0  0  0  0  0  0  0  0
  138.2648   72.3848  222.4343 H   0  0  0  0  0  0  0  0  0  0  0  0
  139.0973   71.1253  221.4859 H   0  0  0  0  0  0  0  0  0  0  0  0
  140.8108   72.8855  224.1077 H   0  0  0  0  0  0  0  0  0  0  0  0
  141.5859   71.9345  226.2605 H   0  0  0  0  0  0  0  0  0  0  0  0
  141.5601   70.1427  227.7899 H   0  0  0  0  0  0  0  0  0  0  0  0
  140.8224   67.8773  228.5142 H   0  0  0  0  0  0  0  0  0  0  0  0
  139.2873   66.5954  227.0209 H   0  0  0  0  0  0  0  0  0  0  0  0
  138.5201   67.5518  224.8725 H   0  0  0  0  0  0  0  0  0  0  0  0
  138.4933   69.3536  223.2469 H   0  0  0  0  0  0  0  0  0  0  0  0
  142.0544   74.6105  221.7228 H   0  0  0  0  0  0  0  0  0  0  0  0
  141.0999   75.3290  220.3951 H   0  0  0  0  0  0  0  0  0  0  0  0
  140.9992   76.1598  223.3605 H   0  0  0  0  0  0  0  0  0  0  0  0
  141.7497   77.1007  222.0651 H   0  0  0  0  0  0  0  0  0  0  0  0
  1  2  1  0
  2  3  1  0
  3  4  2  0
  3  5  1  0
  5  6  1  0
  6  7  2  0
  7  8  1  0
  8  9  2  0
  9 10  1  0
 10 11  2  0
  5 12  1  0
 12 13  1  0
 13 14  1  0
 14 15  1  0
 15 16  1  0
 16 17  2  0
 16 18  1  0
 18 19  1  0
 19 20  2  0
 20 21  1  0
 21 22  2  0
 22 23  1  0
 23 24  2  0
 24 25  1  0
 25 26  2  0
 26 27  1  0
 27 28  2  0
 15 29  1  0
 29 30  1  0
 11  6  1  0
 30 12  1  0
 28 19  1  0
 27 22  1  0
  1 31  1  0
  1 32  1  0
  1 33  1  0
  2 34  1  0
  2 35  1  0
  7 36  1  0
  8 37  1  0
  9 38  1  0
 10 39  1  0
 11 40  1  0
 12 41  1  0
 13 42  1  0
 13 43  1  0
 14 44  1  0
 14 45  1  0
 18 46  1  0
 18 47  1  0
 20 48  1  0
 21 49  1  0
 23 50  1  0
 24 51  1  0
 25 52  1  0
 26 53  1  0
 28 54  1  0
 29 55  1  0
 29 56  1  0
 30 57  1  0
 30 58  1  0
M  END
>  <smiles>  (4) 
CCC(=O)N(c1ccccc1)C1CCN(C(=O)Cc2ccc3ccccc3c2)CC1

>  <score_type>  (4) 
oracle

>  <origin>  (4) 
autodockgpu

>  <m_score__min__energy>  (4) 
-9.0999999999999996

>  <m_primary>  (4) 
energy

>  <rmsd>  (4) 
9.581744467851818

>  <m_score__min__rmsd>  (4) 
9.581744467851818

>  <meeko>  (4) 
{"free_energy": -9.05, "intermolecular_energy": -10.84, "internal_energy": -1.38, "cluster_size": 46, "cluster_id": 1, "rank_in_cluster": 11}

>  <energy>  (4) 
-9.08

>  <cluster_rmsd>  (4) 
0.29

>  <cluster>  (4) 
1

$$$$

     RDKit          3D

 58 61  0  0  0  0  0  0  0  0999 V2000
  143.3400   76.7330  219.2810 C   0  0  0  0  0  0  0  0  0  0  0  0
  142.3740   77.7660  218.6970 C   0  0  0  0  0  0  0  0  0  0  0  0
  141.1950   77.9260  219.5560 C   0  0  0  0  0  0  0  0  0  0  0  0
  140.1900   78.5250  219.0210 O   0  0  0  0  0  0  0  0  0  0  0  0
  141.0190   77.5090  220.8830 N   0  0  0  0  0  0  0  0  0  0  0  0
  141.4640   78.4920  221.8780 C   0  0  0  0  0  0  0  0  0  0  0  0
  141.9270   79.7250  221.4580 C   0  0  0  0  0  0  0  0  0  0  0  0
  142.3420   80.6370  222.4320 C   0  0  0  0  0  0  0  0  0  0  0  0
  142.2830   80.2980  223.7750 C   0  0  0  0  0  0  0  0  0  0  0  0
  141.8160   79.0570  224.1650 C   0  0  0  0  0  0  0  0  0  0  0  0
  141.3970   78.1330  223.2090 C   0  0  0  0  0  0  0  0  0  0  0  0
  140.4910   76.3080  221.3970 C   0  0  0  0  0  0  0  0  0  0  0  0
  141.2890   75.0620  220.9850 C   0  0  0  0  0  0  0  0  0  0  0  0
  140.8330   73.9330  221.9050 C   0  0  0  0  0  0  0  0  0  0  0  0
  139.3810   73.8730  221.9600 N   0  0  0  0  0  0  0  0  0  0  0  0
  138.7740   72.5660  222.0240 C   0  0  0  0  0  0  0  0  0  0  0  0
  137.5120   72.4330  222.0730 O   0  0  0  0  0  0  0  0  0  0  0  0
  139.5770   71.3330  222.0330 C   0  0  0  0  0  0  0  0  0  0  0  0
  139.7220   70.9000  223.4480 C   0  0  0  0  0  0  0  0  0  0  0  0
  139.2020   69.6450  223.7760 C   0  0  0  0  0  0  0  0  0  0  0  0
  139.2710   69.1290  225.0480 C   0  0  0  0  0  0  0  0  0  0  0  0
  139.8850   69.9050  226.0120 C   0  0  0  0  0  0  0  0  0  0  0  0
  139.9710   69.4140  227.2990 C   0  0  0  0  0  0  0  0  0  0  0  0
  140.5710   70.1340  228.3180 C   0  0  0  0  0  0  0  0  0  0  0  0
  141.0890   71.3800  228.0020 C   0  0  0  0  0  0  0  0  0  0  0  0
  141.0110   71.8870  226.7120 C   0  0  0  0  0  0  0  0  0  0  0  0
  140.4040   71.1490  225.7000 C   0  0  0  0  0  0  0  0  0  0  0  0
  140.3340   71.6740  224.4100 C   0  0  0  0  0  0  0  0  0  0  0  0
  138.5190   75.0210  221.9540 C   0  0  0  0  0  0  0  0  0  0  0  0
  139.0740   76.0230  220.9480 C   0  0  0  0  0  0  0  0  0  0  0  0
  143.3011   76.7746  220.3795 H   0  0  0  0  0  0  0  0  0  0  0  0
  143.0507   75.7275  218.9417 H   0  0  0  0  0  0  0  0  0  0  0  0
  144.3627   76.9544  218.9417 H   0  0  0  0  0  0  0  0  0  0  0  0
  142.8904   78.7334  218.6107 H   0  0  0  0  0  0  0  0  0  0  0  0
  142.0429   77.4171  217.7077 H   0  0  0  0  0  0  0  0  0  0  0  0
  141.9675   79.9806  220.3889 H   0  0  0  0  0  0  0  0  0  0  0  0
  142.7166   81.6269  222.1323 H   0  0  0  0  0  0  0  0  0  0  0  0
  142.6103   81.0220  224.5357 H   0  0  0  0  0  0  0  0  0  0  0  0
  141.7748   78.7976  225.2332 H   0  0  0  0  0  0  0  0  0  0  0  0
  141.0225   77.1428  223.5079 H   0  0  0  0  0  0  0  0  0  0  0  0
  140.5400   76.4798  222.4824 H   0  0  0  0  0  0  0  0  0  0  0  0
  141.0793   74.8058  219.9360 H   0  0  0  0  0  0  0  0  0  0  0  0
  142.3717   75.2352  221.0736 H   0  0  0  0  0  0  0  0  0  0  0  0
  141.2202   72.9768  221.5233 H   0  0  0  0  0  0  0  0  0  0  0  0
  141.2189   74.1226  222.9175 H   0  0  0  0  0  0  0  0  0  0  0  0
  139.0682   70.5500  221.4516 H   0  0  0  0  0  0  0  0  0  0  0  0
  140.5638   71.5119  221.5812 H   0  0  0  0  0  0  0  0  0  0  0  0
  138.7199   69.0485  222.9875 H   0  0  0  0  0  0  0  0  0  0  0  0
  138.8548   68.1396  225.2884 H   0  0  0  0  0  0  0  0  0  0  0  0
  139.5507   68.4221  227.5215 H   0  0  0  0  0  0  0  0  0  0  0  0
  140.6342   69.7322  229.3400 H   0  0  0  0  0  0  0  0  0  0  0  0
  141.5713   71.9788  228.7886 H   0  0  0  0  0  0  0  0  0  0  0  0
  141.4317   72.8784  226.4882 H   0  0  0  0  0  0  0  0  0  0  0  0
  140.7496   72.6639  224.1705 H   0  0  0  0  0  0  0  0  0  0  0  0
  137.5018   74.7223  221.6606 H   0  0  0  0  0  0  0  0  0  0  0  0
  138.4758   75.4711  222.9568 H   0  0  0  0  0  0  0  0  0  0  0  0
  139.0712   75.5925  219.9357 H   0  0  0  0  0  0  0  0  0  0  0  0
  138.4671   76.9396  220.9093 H   0  0  0  0  0  0  0  0  0  0  0  0
  1  2  1  0
  2  3  1  0
  3  4  2  0
  3  5  1  0
  5  6  1  0
  6  7  2  0
  7  8  1  0
  8  9  2  0
  9 10  1  0
 10 11  2  0
  5 12  1  0
 12 13  1  0
 13 14  1  0
 14 15  1  0
 15 16  1  0
 16 17  2  0
 16 18  1  0
 18 19  1  0
 19 20  2  0
 20 21  1  0
 21 22  2  0
 22 23  1  0
 23 24  2  0
 24 25  1  0
 25 26  2  0
 26 27  1  0
 27 28  2  0
 15 29  1  0
 29 30  1  0
 11  6  1  0
 30 12  1  0
 28 19  1  0
 27 22  1  0
  1 31  1  0
  1 32  1  0
  1 33  1  0
  2 34  1  0
  2 35  1  0
  7 36  1  0
  8 37  1  0
  9 38  1  0
 10 39  1  0
 11 40  1  0
 12 41  1  0
 13 42  1  0
 13 43  1  0
 14 44  1  0
 14 45  1  0
 18 46  1  0
 18 47  1  0
 20 48  1  0
 21 49  1  0
 23 50  1  0
 24 51  1  0
 25 52  1  0
 26 53  1  0
 28 54  1  0
 29 55  1  0
 29 56  1  0
 30 57  1  0
 30 58  1  0
M  END
>  <smiles>  (5) 
CCC(=O)N(c1ccccc1)C1CCN(C(=O)Cc2ccc3ccccc3c2)CC1

>  <score_type>  (5) 
oracle

>  <origin>  (5) 
autodockgpu

>  <m_score__min__energy>  (5) 
-9.0999999999999996

>  <m_primary>  (5) 
energy

>  <rmsd>  (5) 
8.232429468388855

>  <m_score__min__rmsd>  (5) 
8.232429468388855

>  <meeko>  (5) 
{"free_energy": -8.93, "intermolecular_energy": -10.72, "internal_energy": -1.52, "cluster_size": 46, "cluster_id": 1, "rank_in_cluster": 32}

>  <energy>  (5) 
-9.08

>  <cluster_rmsd>  (5) 
0.07

>  <cluster>  (5) 
1

$$$$

     RDKit          3D

 58 61  0  0  0  0  0  0  0  0999 V2000
  138.0850   80.5620  224.3280 C   0  0  0  0  0  0  0  0  0  0  0  0
  138.0780   80.2830  222.8240 C   0  0  0  0  0  0  0  0  0  0  0  0
  138.2630   78.8530  222.5540 C   0  0  0  0  0  0  0  0  0  0  0  0
  137.1870   78.1520  222.4860 O   0  0  0  0  0  0  0  0  0  0  0  0
  139.4600   78.1500  222.3570 N   0  0  0  0  0  0  0  0  0  0  0  0
  140.6660   78.9500  222.6000 C   0  0  0  0  0  0  0  0  0  0  0  0
  141.2930   79.5750  221.5380 C   0  0  0  0  0  0  0  0  0  0  0  0
  142.4390   80.3300  221.8050 C   0  0  0  0  0  0  0  0  0  0  0  0
  142.9170   80.4360  223.1020 C   0  0  0  0  0  0  0  0  0  0  0  0
  142.2690   79.7990  224.1430 C   0  0  0  0  0  0  0  0  0  0  0  0
  141.1240   79.0420  223.8990 C   0  0  0  0  0  0  0  0  0  0  0  0
  139.6770   76.8130  221.9660 C   0  0  0  0  0  0  0  0  0  0  0  0
  138.6840   75.8230  222.5940 C   0  0  0  0  0  0  0  0  0  0  0  0
  138.8040   74.5270  221.7970 C   0  0  0  0  0  0  0  0  0  0  0  0
  140.2000   74.1490  221.6440 N   0  0  0  0  0  0  0  0  0  0  0  0
  140.5160   72.7420  221.7060 C   0  0  0  0  0  0  0  0  0  0  0  0
  141.7120   72.3350  221.5820 O   0  0  0  0  0  0  0  0  0  0  0  0
  139.4790   71.7190  221.9160 C   0  0  0  0  0  0  0  0  0  0  0  0
  139.6110   71.2230  223.3110 C   0  0  0  0  0  0  0  0  0  0  0  0
  138.9460   70.0320  223.6180 C   0  0  0  0  0  0  0  0  0  0  0  0
  138.9880   69.4680  224.8710 C   0  0  0  0  0  0  0  0  0  0  0  0
  139.7230   70.1280  225.8360 C   0  0  0  0  0  0  0  0  0  0  0  0
  139.7840   69.5860  227.1050 C   0  0  0  0  0  0  0  0  0  0  0  0
  140.5000   70.1910  228.1240 C   0  0  0  0  0  0  0  0  0  0  0  0
  141.1620   71.3720  227.8290 C   0  0  0  0  0  0  0  0  0  0  0  0
  141.1090   71.9290  226.5580 C   0  0  0  0  0  0  0  0  0  0  0  0
  140.3850   71.3080  225.5460 C   0  0  0  0  0  0  0  0  0  0  0  0
  140.3430   71.8810  224.2750 C   0  0  0  0  0  0  0  0  0  0  0  0
  141.2760   75.0760  221.4380 C   0  0  0  0  0  0  0  0  0  0  0  0
  141.0420   76.2790  222.3430 C   0  0  0  0  0  0  0  0  0  0  0  0
  138.0611   79.6095  224.8777 H   0  0  0  0  0  0  0  0  0  0  0  0
  138.9973   81.1160  224.5939 H   0  0  0  0  0  0  0  0  0  0  0  0
  137.2016   81.1611  224.5939 H   0  0  0  0  0  0  0  0  0  0  0  0
  137.1151   80.6071  222.4025 H   0  0  0  0  0  0  0  0  0  0  0  0
  138.9075   80.8374  222.3607 H   0  0  0  0  0  0  0  0  0  0  0  0
  140.9021   79.4811  220.5141 H   0  0  0  0  0  0  0  0  0  0  0  0
  142.9627   80.8413  220.9838 H   0  0  0  0  0  0  0  0  0  0  0  0
  143.8193   81.0319  223.3040 H   0  0  0  0  0  0  0  0  0  0  0  0
  142.6580   79.8895  225.1679 H   0  0  0  0  0  0  0  0  0  0  0  0
  140.5993   78.5314  224.7200 H   0  0  0  0  0  0  0  0  0  0  0  0
  139.5583   76.8700  220.8739 H   0  0  0  0  0  0  0  0  0  0  0  0
  138.9397   75.6457  223.6491 H   0  0  0  0  0  0  0  0  0  0  0  0
  137.6569   76.2157  222.5637 H   0  0  0  0  0  0  0  0  0  0  0  0
  138.2682   73.7256  222.3268 H   0  0  0  0  0  0  0  0  0  0  0  0
  138.3665   74.6816  220.7996 H   0  0  0  0  0  0  0  0  0  0  0  0
  138.4822   72.1598  221.7676 H   0  0  0  0  0  0  0  0  0  0  0  0
  139.6013   70.8931  221.1998 H   0  0  0  0  0  0  0  0  0  0  0  0
  138.3686   69.5283  222.8287 H   0  0  0  0  0  0  0  0  0  0  0  0
  138.4584   68.5304  225.0955 H   0  0  0  0  0  0  0  0  0  0  0  0
  139.2488   68.6475  227.3118 H   0  0  0  0  0  0  0  0  0  0  0  0
  140.5418   69.7502  229.1310 H   0  0  0  0  0  0  0  0  0  0  0  0
  141.7403   71.8778  228.6163 H   0  0  0  0  0  0  0  0  0  0  0  0
  141.6433   72.8678  226.3503 H   0  0  0  0  0  0  0  0  0  0  0  0
  140.8723   72.8191  224.0516 H   0  0  0  0  0  0  0  0  0  0  0  0
  142.2338   74.5985  221.6923 H   0  0  0  0  0  0  0  0  0  0  0  0
  141.3115   75.3917  220.3849 H   0  0  0  0  0  0  0  0  0  0  0  0
  141.0562   75.9731  223.3995 H   0  0  0  0  0  0  0  0  0  0  0  0
  141.8257   77.0407  222.2180 H   0  0  0  0  0  0  0  0  0  0  0  0
  1  2  1  0
  2  3  1  0
  3  4  2  0
  3  5  1  0
  5  6  1  0
  6  7  2  0
  7  8  1  0
  8  9  2  0
  9 10  1  0
 10 11  2  0
  5 12  1  0
 12 13  1  0
 13 14  1  0
 14 15  1  0
 15 16  1  0
 16 17  2  0
 16 18  1  0
 18 19  1  0
 19 20  2  0
 20 21  1  0
 21 22  2  0
 22 23  1  0
 23 24  2  0
 24 25  1  0
 25 26  2  0
 26 27  1  0
 27 28  2  0
 15 29  1  0
 29 30  1  0
 11  6  1  0
 30 12  1  0
 28 19  1  0
 27 22  1  0
  1 31  1  0
  1 32  1  0
  1 33  1  0
  2 34  1  0
  2 35  1  0
  7 36  1  0
  8 37  1  0
  9 38  1  0
 10 39  1  0
 11 40  1  0
 12 41  1  0
 13 42  1  0
 13 43  1  0
 14 44  1  0
 14 45  1  0
 18 46  1  0
 18 47  1  0
 20 48  1  0
 21 49  1  0
 23 50  1  0
 24 51  1  0
 25 52  1  0
 26 53  1  0
 28 54  1  0
 29 55  1  0
 29 56  1  0
 30 57  1  0
 30 58  1  0
M  END
>  <smiles>  (6) 
CCC(=O)N(c1ccccc1)C1CCN(C(=O)Cc2ccc3ccccc3c2)CC1

>  <score_type>  (6) 
oracle

>  <origin>  (6) 
autodockgpu

>  <m_score__min__energy>  (6) 
-9.0999999999999996

>  <m_primary>  (6) 
energy

>  <rmsd>  (6) 
8.154782626698033

>  <m_score__min__rmsd>  (6) 
8.154782626698033

>  <meeko>  (6) 
{"free_energy": -9.07, "intermolecular_energy": -10.85, "internal_energy": -1.48, "cluster_size": 46, "cluster_id": 1, "rank_in_cluster": 8}

>  <energy>  (6) 
-9.07

>  <cluster_rmsd>  (6) 
0.1

>  <cluster>  (6) 
1

$$$$

     RDKit          3D

 58 61  0  0  0  0  0  0  0  0999 V2000
  143.3370   76.6370  219.2710 C   0  0  0  0  0  0  0  0  0  0  0  0
  142.4100   77.7410  218.7590 C   0  0  0  0  0  0  0  0  0  0  0  0
  141.2080   77.8460  219.5940 C   0  0  0  0  0  0  0  0  0  0  0  0
  140.1860   78.3940  219.0380 O   0  0  0  0  0  0  0  0  0  0  0  0
  141.0280   77.4250  220.9200 N   0  0  0  0  0  0  0  0  0  0  0  0
  141.4760   78.4010  221.9200 C   0  0  0  0  0  0  0  0  0  0  0  0
  141.4010   78.0830  223.2620 C   0  0  0  0  0  0  0  0  0  0  0  0
  141.8380   79.0350  224.1880 C   0  0  0  0  0  0  0  0  0  0  0  0
  142.3270   80.2570  223.7530 C   0  0  0  0  0  0  0  0  0  0  0  0
  142.3890   80.5470  222.4030 C   0  0  0  0  0  0  0  0  0  0  0  0
  141.9600   79.6110  221.4630 C   0  0  0  0  0  0  0  0  0  0  0  0
  140.4900   76.2250  221.4280 C   0  0  0  0  0  0  0  0  0  0  0  0
  141.2900   74.9770  221.0250 C   0  0  0  0  0  0  0  0  0  0  0  0
  140.8210   73.8500  221.9400 C   0  0  0  0  0  0  0  0  0  0  0  0
  139.3690   73.7930  221.9790 N   0  0  0  0  0  0  0  0  0  0  0  0
  138.7580   72.4870  222.0360 C   0  0  0  0  0  0  0  0  0  0  0  0
  137.4950   72.3570  222.0710 O   0  0  0  0  0  0  0  0  0  0  0  0
  139.5580   71.2530  222.0550 C   0  0  0  0  0  0  0  0  0  0  0  0
  139.7070   70.8330  223.4730 C   0  0  0  0  0  0  0  0  0  0  0  0
  139.1960   69.5770  223.8120 C   0  0  0  0  0  0  0  0  0  0  0  0
  139.2710   69.0730  225.0890 C   0  0  0  0  0  0  0  0  0  0  0  0
  139.8790   69.8620  226.0450 C   0  0  0  0  0  0  0  0  0  0  0  0
  139.9700   69.3830  227.3370 C   0  0  0  0  0  0  0  0  0  0  0  0
  140.5650   70.1180  228.3490 C   0  0  0  0  0  0  0  0  0  0  0  0
  141.0740   71.3640  228.0220 C   0  0  0  0  0  0  0  0  0  0  0  0
  140.9910   71.8590  226.7270 C   0  0  0  0  0  0  0  0  0  0  0  0
  140.3890   71.1080  225.7230 C   0  0  0  0  0  0  0  0  0  0  0  0
  140.3130   71.6210  224.4270 C   0  0  0  0  0  0  0  0  0  0  0  0
  138.5100   74.9430  221.9630 C   0  0  0  0  0  0  0  0  0  0  0  0
  139.0780   75.9430  220.9630 C   0  0  0  0  0  0  0  0  0  0  0  0
  143.3360   76.6382  220.3710 H   0  0  0  0  0  0  0  0  0  0  0  0
  142.9830   75.6619  218.9051 H   0  0  0  0  0  0  0  0  0  0  0  0
  144.3586   76.8170  218.9051 H   0  0  0  0  0  0  0  0  0  0  0  0
  142.9474   78.7005  218.7795 H   0  0  0  0  0  0  0  0  0  0  0  0
  142.1034   77.4936  217.7320 H   0  0  0  0  0  0  0  0  0  0  0  0
  141.0091   77.1097  223.5924 H   0  0  0  0  0  0  0  0  0  0  0  0
  141.7937   78.8137  225.2646 H   0  0  0  0  0  0  0  0  0  0  0  0
  142.6682   81.0013  224.4876 H   0  0  0  0  0  0  0  0  0  0  0  0
  142.7783   81.5201  222.0690 H   0  0  0  0  0  0  0  0  0  0  0  0
  142.0058   79.8304  220.3861 H   0  0  0  0  0  0  0  0  0  0  0  0
  140.5260   76.3973  222.5138 H   0  0  0  0  0  0  0  0  0  0  0  0
  141.0914   74.7210  219.9738 H   0  0  0  0  0  0  0  0  0  0  0  0
  142.3720   75.1476  221.1253 H   0  0  0  0  0  0  0  0  0  0  0  0
  141.2103   72.8927  221.5631 H   0  0  0  0  0  0  0  0  0  0  0  0
  141.1958   74.0396  222.9567 H   0  0  0  0  0  0  0  0  0  0  0  0
  139.0457   70.4655  221.4828 H   0  0  0  0  0  0  0  0  0  0  0  0
  140.5439   71.4258  221.5987 H   0  0  0  0  0  0  0  0  0  0  0  0
  138.7169   68.9703  223.0294 H   0  0  0  0  0  0  0  0  0  0  0  0
  138.8635   68.0822  225.3386 H   0  0  0  0  0  0  0  0  0  0  0  0
  139.5583   68.3897  227.5690 H   0  0  0  0  0  0  0  0  0  0  0  0
  140.6309   69.7265  229.3749 H   0  0  0  0  0  0  0  0  0  0  0  0
  141.5531   71.9730  228.8028 H   0  0  0  0  0  0  0  0  0  0  0  0
  141.4041   72.8515  226.4939 H   0  0  0  0  0  0  0  0  0  0  0  0
  140.7197   72.6123  224.1780 H   0  0  0  0  0  0  0  0  0  0  0  0
  137.4953   74.6465  221.6587 H   0  0  0  0  0  0  0  0  0  0  0  0
  138.4570   75.3937  222.9650 H   0  0  0  0  0  0  0  0  0  0  0  0
  139.0858   75.5120  219.9510 H   0  0  0  0  0  0  0  0  0  0  0  0
  138.4735   76.8608  220.9167 H   0  0  0  0  0  0  0  0  0  0  0  0
  1  2  1  0
  2  3  1  0
  3  4  2  0
  3  5  1  0
  5  6  1  0
  6  7  2  0
  7  8  1  0
  8  9  2  0
  9 10  1  0
 10 11  2  0
  5 12  1  0
 12 13  1  0
 13 14  1  0
 14 15  1  0
 15 16  1  0
 16 17  2  0
 16 18  1  0
 18 19  1  0
 19 20  2  0
 20 21  1  0
 21 22  2  0
 22 23  1  0
 23 24  2  0
 24 25  1  0
 25 26  2  0
 26 27  1  0
 27 28  2  0
 15 29  1  0
 29 30  1  0
 11  6  1  0
 30 12  1  0
 28 19  1  0
 27 22  1  0
  1 31  1  0
  1 32  1  0
  1 33  1  0
  2 34  1  0
  2 35  1  0
  7 36  1  0
  8 37  1  0
  9 38  1  0
 10 39  1  0
 11 40  1  0
 12 41  1  0
 13 42  1  0
 13 43  1  0
 14 44  1  0
 14 45  1  0
 18 46  1  0
 18 47  1  0
 20 48  1  0
 21 49  1  0
 23 50  1  0
 24 51  1  0
 25 52  1  0
 26 53  1  0
 28 54  1  0
 29 55  1  0
 29 56  1  0
 30 57  1  0
 30 58  1  0
M  END
>  <smiles>  (7) 
CCC(=O)N(c1ccccc1)C1CCN(C(=O)Cc2ccc3ccccc3c2)CC1

>  <score_type>  (7) 
oracle

>  <origin>  (7) 
autodockgpu

>  <m_score__min__energy>  (7) 
-9.0999999999999996

>  <m_primary>  (7) 
energy

>  <rmsd>  (7) 
8.272374424661118

>  <m_score__min__rmsd>  (7) 
8.272374424661118

>  <meeko>  (7) 
{"free_energy": -8.93, "intermolecular_energy": -10.72, "internal_energy": -1.51, "cluster_size": 46, "cluster_id": 1, "rank_in_cluster": 33}

>  <energy>  (7) 
-9.07

>  <cluster_rmsd>  (7) 
0.1

>  <cluster>  (7) 
1

$$$$

     RDKit          3D

 58 61  0  0  0  0  0  0  0  0999 V2000
  142.5630   77.5360  218.8170 C   0  0  0  0  0  0  0  0  0  0  0  0
  141.2000   78.1350  218.4640 C   0  0  0  0  0  0  0  0  0  0  0  0
  140.3830   78.3250  219.6670 C   0  0  0  0  0  0  0  0  0  0  0  0
  139.3800   79.1190  219.5430 O   0  0  0  0  0  0  0  0  0  0  0  0
  140.5520   77.7520  220.9360 N   0  0  0  0  0  0  0  0  0  0  0  0
  141.2580   78.6160  221.8900 C   0  0  0  0  0  0  0  0  0  0  0  0
  141.2540   78.2920  223.2330 C   0  0  0  0  0  0  0  0  0  0  0  0
  141.9360   79.1370  224.1140 C   0  0  0  0  0  0  0  0  0  0  0  0
  142.5900   80.2610  223.6350 C   0  0  0  0  0  0  0  0  0  0  0  0
  142.5760   80.5600  222.2860 C   0  0  0  0  0  0  0  0  0  0  0  0
  141.9020   79.7300  221.3900 C   0  0  0  0  0  0  0  0  0  0  0  0
  140.1550   76.4910  221.4250 C   0  0  0  0  0  0  0  0  0  0  0  0
  141.1190   75.3560  221.0480 C   0  0  0  0  0  0  0  0  0  0  0  0
  140.7670   74.1740  221.9460 C   0  0  0  0  0  0  0  0  0  0  0  0
  139.3320   73.9340  221.9360 N   0  0  0  0  0  0  0  0  0  0  0  0
  138.8900   72.5610  221.9710 C   0  0  0  0  0  0  0  0  0  0  0  0
  137.6530   72.2720  221.9640 O   0  0  0  0  0  0  0  0  0  0  0  0
  139.8390   71.4370  222.0160 C   0  0  0  0  0  0  0  0  0  0  0  0
  139.9360   70.9840  223.4280 C   0  0  0  0  0  0  0  0  0  0  0  0
  139.4200   69.7170  223.7170 C   0  0  0  0  0  0  0  0  0  0  0  0
  139.4480   69.1820  224.9830 C   0  0  0  0  0  0  0  0  0  0  0  0
  140.0140   69.9510  225.9810 C   0  0  0  0  0  0  0  0  0  0  0  0
  140.0580   69.4410  227.2640 C   0  0  0  0  0  0  0  0  0  0  0  0
  140.6090   70.1540  228.3160 C   0  0  0  0  0  0  0  0  0  0  0  0
  141.1220   71.4100  228.0380 C   0  0  0  0  0  0  0  0  0  0  0  0
  141.0860   71.9370  226.7540 C   0  0  0  0  0  0  0  0  0  0  0  0
  140.5280   71.2070  225.7090 C   0  0  0  0  0  0  0  0  0  0  0  0
  140.5000   71.7510  224.4240 C   0  0  0  0  0  0  0  0  0  0  0  0
  138.3360   74.9650  221.8920 C   0  0  0  0  0  0  0  0  0  0  0  0
  138.8050   76.0350  220.9130 C   0  0  0  0  0  0  0  0  0  0  0  0
  142.6706   77.4887  219.9107 H   0  0  0  0  0  0  0  0  0  0  0  0
  142.6378   76.5221  218.3970 H   0  0  0  0  0  0  0  0  0  0  0  0
  143.3605   78.1666  218.3970 H   0  0  0  0  0  0  0  0  0  0  0  0
  141.3506   79.1082  217.9738 H   0  0  0  0  0  0  0  0  0  0  0  0
  140.6759   77.4415  217.7899 H   0  0  0  0  0  0  0  0  0  0  0  0
  140.7301   77.3964  223.5982 H   0  0  0  0  0  0  0  0  0  0  0  0
  141.9534   78.9090  225.1900 H   0  0  0  0  0  0  0  0  0  0  0  0
  143.1246   80.9206  224.3344 H   0  0  0  0  0  0  0  0  0  0  0  0
  143.0980   81.4554  221.9175 H   0  0  0  0  0  0  0  0  0  0  0  0
  141.8841   79.9571  220.3138 H   0  0  0  0  0  0  0  0  0  0  0  0
  140.1344   76.6608  222.5116 H   0  0  0  0  0  0  0  0  0  0  0  0
  140.9889   75.0821  219.9906 H   0  0  0  0  0  0  0  0  0  0  0  0
  142.1668   75.6617  221.1845 H   0  0  0  0  0  0  0  0  0  0  0  0
  141.2865   73.2755  221.5815 H   0  0  0  0  0  0  0  0  0  0  0  0
  141.0814   74.4037  222.9748 H   0  0  0  0  0  0  0  0  0  0  0  0
  139.4756   70.6143  221.3827 H   0  0  0  0  0  0  0  0  0  0  0  0
  140.8253   71.7503  221.6433 H   0  0  0  0  0  0  0  0  0  0  0  0
  138.9756   69.1270  222.9019 H   0  0  0  0  0  0  0  0  0  0  0  0
  139.0369   68.1834  225.1924 H   0  0  0  0  0  0  0  0  0  0  0  0
  139.6437   68.4402  227.4557 H   0  0  0  0  0  0  0  0  0  0  0  0
  140.6380   69.7382  229.3340 H   0  0  0  0  0  0  0  0  0  0  0  0
  141.5671   72.0022  228.8511 H   0  0  0  0  0  0  0  0  0  0  0  0
  141.5010   72.9374  226.5617 H   0  0  0  0  0  0  0  0  0  0  0  0
  140.9108   72.7498  224.2152 H   0  0  0  0  0  0  0  0  0  0  0  0
  137.3780   74.5437  221.5532 H   0  0  0  0  0  0  0  0  0  0  0  0
  138.1932   75.3999  222.8922 H   0  0  0  0  0  0  0  0  0  0  0  0
  138.9001   75.6145  219.9010 H   0  0  0  0  0  0  0  0  0  0  0  0
  138.0909   76.8692  220.8486 H   0  0  0  0  0  0  0  0  0  0  0  0
  1  2  1  0
  2  3  1  0
  3  4  2  0
  3  5  1  0
  5  6  1  0
  6  7  2  0
  7  8  1  0
  8  9  2  0
  9 10  1  0
 10 11  2  0
  5 12  1  0
 12 13  1  0
 13 14  1  0
 14 15  1  0
 15 16  1  0
 16 17  2  0
 16 18  1  0
 18 19  1  0
 19 20  2  0
 20 21  1  0
 21 22  2  0
 22 23  1  0
 23 24  2  0
 24 25  1  0
 25 26  2  0
 26 27  1  0
 27 28  2  0
 15 29  1  0
 29 30  1  0
 11  6  1  0
 30 12  1  0
 28 19  1  0
 27 22  1  0
  1 31  1  0
  1 32  1  0
  1 33  1  0
  2 34  1  0
  2 35  1  0
  7 36  1  0
  8 37  1  0
  9 38  1  0
 10 39  1  0
 11 40  1  0
 12 41  1  0
 13 42  1  0
 13 43  1  0
 14 44  1  0
 14 45  1  0
 18 46  1  0
 18 47  1  0
 20 48  1  0
 21 49  1  0
 23 50  1  0
 24 51  1  0
 25 52  1  0
 26 53  1  0
 28 54  1  0
 29 55  1  0
 29 56  1  0
 30 57  1  0
 30 58  1  0
M  END
>  <smiles>  (8) 
CCC(=O)N(c1ccccc1)C1CCN(C(=O)Cc2ccc3ccccc3c2)CC1

>  <score_type>  (8) 
oracle

>  <origin>  (8) 
autodockgpu

>  <m_score__min__energy>  (8) 
-9.0999999999999996

>  <m_primary>  (8) 
energy

>  <rmsd>  (8) 
8.215744444415234

>  <m_score__min__rmsd>  (8) 
8.215744444415234

>  <meeko>  (8) 
{"free_energy": -8.53, "intermolecular_energy": -10.32, "internal_energy": -1.56, "cluster_size": 46, "cluster_id": 1, "rank_in_cluster": 46}

>  <energy>  (8) 
-9.07

>  <cluster_rmsd>  (8) 
0.13

>  <cluster>  (8) 
1

$$$$

     RDKit          3D

 58 61  0  0  0  0  0  0  0  0999 V2000
  138.0230   80.5890  224.2880 C   0  0  0  0  0  0  0  0  0  0  0  0
  137.9290   80.2170  222.8070 C   0  0  0  0  0  0  0  0  0  0  0  0
  138.1530   78.7800  222.6110 C   0  0  0  0  0  0  0  0  0  0  0  0
  137.1060   78.0370  222.6690 O   0  0  0  0  0  0  0  0  0  0  0  0
  139.3620   78.1120  222.3670 N   0  0  0  0  0  0  0  0  0  0  0  0
  140.5530   78.9450  222.5660 C   0  0  0  0  0  0  0  0  0  0  0  0
  141.0880   79.0760  223.8330 C   0  0  0  0  0  0  0  0  0  0  0  0
  142.2230   79.8770  223.9870 C   0  0  0  0  0  0  0  0  0  0  0  0
  142.7810   80.5130  222.8890 C   0  0  0  0  0  0  0  0  0  0  0  0
  142.2240   80.3640  221.6340 C   0  0  0  0  0  0  0  0  0  0  0  0
  141.0920   79.5690  221.4580 C   0  0  0  0  0  0  0  0  0  0  0  0
  139.6000   76.7820  221.9640 C   0  0  0  0  0  0  0  0  0  0  0  0
  138.6240   75.7700  222.5830 C   0  0  0  0  0  0  0  0  0  0  0  0
  138.7660   74.4830  221.7750 C   0  0  0  0  0  0  0  0  0  0  0  0
  140.1670   74.1290  221.6190 N   0  0  0  0  0  0  0  0  0  0  0  0
  140.5060   72.7280  221.6680 C   0  0  0  0  0  0  0  0  0  0  0  0
  141.7090   72.3410  221.5410 O   0  0  0  0  0  0  0  0  0  0  0  0
  139.4870   71.6860  221.8690 C   0  0  0  0  0  0  0  0  0  0  0  0
  139.5760   71.2340  223.2830 C   0  0  0  0  0  0  0  0  0  0  0  0
  138.8510   70.0880  223.6210 C   0  0  0  0  0  0  0  0  0  0  0  0
  138.8490   69.5670  224.8930 C   0  0  0  0  0  0  0  0  0  0  0  0
  139.6010   70.2250  225.8460 C   0  0  0  0  0  0  0  0  0  0  0  0
  139.6200   69.7270  227.1340 C   0  0  0  0  0  0  0  0  0  0  0  0
  140.3500   70.3330  228.1420 C   0  0  0  0  0  0  0  0  0  0  0  0
  141.0710   71.4700  227.8160 C   0  0  0  0  0  0  0  0  0  0  0  0
  141.0630   71.9840  226.5260 C   0  0  0  0  0  0  0  0  0  0  0  0
  140.3230   71.3610  225.5240 C   0  0  0  0  0  0  0  0  0  0  0  0
  140.3250   71.8910  224.2340 C   0  0  0  0  0  0  0  0  0  0  0  0
  141.2270   75.0760  221.4210 C   0  0  0  0  0  0  0  0  0  0  0  0
  140.9740   76.2680  222.3370 C   0  0  0  0  0  0  0  0  0  0  0  0
  137.7996   79.7048  224.9030 H   0  0  0  0  0  0  0  0  0  0  0  0
  139.0393   80.9448  224.5129 H   0  0  0  0  0  0  0  0  0  0  0  0
  137.2977   81.3849  224.5129 H   0  0  0  0  0  0  0  0  0  0  0  0
  136.9284   80.4795  222.4329 H   0  0  0  0  0  0  0  0  0  0  0  0
  138.7036   80.7710  222.2564 H   0  0  0  0  0  0  0  0  0  0  0  0
  140.6342   78.5651  224.6950 H   0  0  0  0  0  0  0  0  0  0  0  0
  142.6746   80.0030  224.9821 H   0  0  0  0  0  0  0  0  0  0  0  0
  143.6746   81.1414  223.0183 H   0  0  0  0  0  0  0  0  0  0  0  0
  142.6750   80.8743  220.7702 H   0  0  0  0  0  0  0  0  0  0  0  0
  140.6403   79.4422  220.4631 H   0  0  0  0  0  0  0  0  0  0  0  0
  139.4791   76.8462  220.8726 H   0  0  0  0  0  0  0  0  0  0  0  0
  138.8824   75.5880  223.6366 H   0  0  0  0  0  0  0  0  0  0  0  0
  137.5904   76.1455  222.5557 H   0  0  0  0  0  0  0  0  0  0  0  0
  138.2433   73.6684  222.2977 H   0  0  0  0  0  0  0  0  0  0  0  0
  138.3267   74.6394  220.7787 H   0  0  0  0  0  0  0  0  0  0  0  0
  138.4864   72.0969  221.6692 H   0  0  0  0  0  0  0  0  0  0  0  0
  139.6574   70.8429  221.1834 H   0  0  0  0  0  0  0  0  0  0  0  0
  138.2607   69.5848  222.8410 H   0  0  0  0  0  0  0  0  0  0  0  0
  138.2725   68.6637  225.1414 H   0  0  0  0  0  0  0  0  0  0  0  0
  139.0382   68.8226  227.3656 H   0  0  0  0  0  0  0  0  0  0  0  0
  140.3573   69.9267  229.1642 H   0  0  0  0  0  0  0  0  0  0  0  0
  141.6615   71.9756  228.5942 H   0  0  0  0  0  0  0  0  0  0  0  0
  141.6445   72.8885  226.2942 H   0  0  0  0  0  0  0  0  0  0  0  0
  140.9003   72.7953  223.9865 H   0  0  0  0  0  0  0  0  0  0  0  0
  142.1928   74.6123  221.6706 H   0  0  0  0  0  0  0  0  0  0  0  0
  141.2559   75.4017  220.3707 H   0  0  0  0  0  0  0  0  0  0  0  0
  140.9935   75.9536  223.3909 H   0  0  0  0  0  0  0  0  0  0  0  0
  141.7451   77.0435  222.2190 H   0  0  0  0  0  0  0  0  0  0  0  0
  1  2  1  0
  2  3  1  0
  3  4  2  0
  3  5  1  0
  5  6  1  0
  6  7  2  0
  7  8  1  0
  8  9  2  0
  9 10  1  0
 10 11  2  0
  5 12  1  0
 12 13  1  0
 13 14  1  0
 14 15  1  0
 15 16  1  0
 16 17  2  0
 16 18  1  0
 18 19  1  0
 19 20  2  0
 20 21  1  0
 21 22  2  0
 22 23  1  0
 23 24  2  0
 24 25  1  0
 25 26  2  0
 26 27  1  0
 27 28  2  0
 15 29  1  0
 29 30  1  0
 11  6  1  0
 30 12  1  0
 28 19  1  0
 27 22  1  0
  1 31  1  0
  1 32  1  0
  1 33  1  0
  2 34  1  0
  2 35  1  0
  7 36  1  0
  8 37  1  0
  9 38  1  0
 10 39  1  0
 11 40  1  0
 12 41  1  0
 13 42  1  0
 13 43  1  0
 14 44  1  0
 14 45  1  0
 18 46  1  0
 18 47  1  0
 20 48  1  0
 21 49  1  0
 23 50  1  0
 24 51  1  0
 25 52  1  0
 26 53  1  0
 28 54  1  0
 29 55  1  0
 29 56  1  0
 30 57  1  0
 30 58  1  0
M  END
>  <smiles>  (9) 
CCC(=O)N(c1ccccc1)C1CCN(C(=O)Cc2ccc3ccccc3c2)CC1

>  <score_type>  (9) 
oracle

>  <origin>  (9) 
autodockgpu

>  <m_score__min__energy>  (9) 
-9.0999999999999996

>  <m_primary>  (9) 
energy

>  <rmsd>  (9) 
8.131259444576006

>  <m_score__min__rmsd>  (9) 
8.131259444576006

>  <meeko>  (9) 
{"free_energy": -9.06, "intermolecular_energy": -10.85, "internal_energy": -1.47, "cluster_size": 46, "cluster_id": 1, "rank_in_cluster": 9}

>  <energy>  (9) 
-9.06

>  <cluster_rmsd>  (9) 
0.13

>  <cluster>  (9) 
1

$$$$

     RDKit          3D

 58 61  0  0  0  0  0  0  0  0999 V2000
  138.0520   80.5640  224.3770 C   0  0  0  0  0  0  0  0  0  0  0  0
  137.9450   80.2160  222.8910 C   0  0  0  0  0  0  0  0  0  0  0  0
  138.1660   78.7830  222.6690 C   0  0  0  0  0  0  0  0  0  0  0  0
  137.1200   78.0390  222.7290 O   0  0  0  0  0  0  0  0  0  0  0  0
  139.3710   78.1190  222.3980 N   0  0  0  0  0  0  0  0  0  0  0  0
  140.5640   78.9560  222.5720 C   0  0  0  0  0  0  0  0  0  0  0  0
  141.1270   79.0860  223.8280 C   0  0  0  0  0  0  0  0  0  0  0  0
  142.2630   79.8910  223.9580 C   0  0  0  0  0  0  0  0  0  0  0  0
  142.7930   80.5320  222.8480 C   0  0  0  0  0  0  0  0  0  0  0  0
  142.2080   80.3830  221.6060 C   0  0  0  0  0  0  0  0  0  0  0  0
  141.0750   79.5850  221.4540 C   0  0  0  0  0  0  0  0  0  0  0  0
  139.6050   76.7900  221.9890 C   0  0  0  0  0  0  0  0  0  0  0  0
  138.6380   75.7760  222.6180 C   0  0  0  0  0  0  0  0  0  0  0  0
  138.7700   74.4920  221.8050 C   0  0  0  0  0  0  0  0  0  0  0  0
  140.1700   74.1390  221.6310 N   0  0  0  0  0  0  0  0  0  0  0  0
  140.5100   72.7370  221.6730 C   0  0  0  0  0  0  0  0  0  0  0  0
  141.7120   72.3520  221.5290 O   0  0  0  0  0  0  0  0  0  0  0  0
  139.4940   71.6940  221.8840 C   0  0  0  0  0  0  0  0  0  0  0  0
  139.6130   71.2260  223.2900 C   0  0  0  0  0  0  0  0  0  0  0  0
  138.9220   70.0580  223.6220 C   0  0  0  0  0  0  0  0  0  0  0  0
  138.9500   69.5200  224.8870 C   0  0  0  0  0  0  0  0  0  0  0  0
  139.6980   70.1850  225.8390 C   0  0  0  0  0  0  0  0  0  0  0  0
  139.7460   69.6700  227.1190 C   0  0  0  0  0  0  0  0  0  0  0  0
  140.4750   70.2800  228.1260 C   0  0  0  0  0  0  0  0  0  0  0  0
  141.1630   71.4390  227.8050 C   0  0  0  0  0  0  0  0  0  0  0  0
  141.1250   71.9700  226.5230 C   0  0  0  0  0  0  0  0  0  0  0  0
  140.3870   71.3430  225.5230 C   0  0  0  0  0  0  0  0  0  0  0  0
  140.3590   71.8890  224.2400 C   0  0  0  0  0  0  0  0  0  0  0  0
  141.2270   75.0870  221.4220 C   0  0  0  0  0  0  0  0  0  0  0  0
  140.9840   76.2760  222.3440 C   0  0  0  0  0  0  0  0  0  0  0  0
  137.7816   79.6846  224.9799 H   0  0  0  0  0  0  0  0  0  0  0  0
  139.0841   80.8649  224.6097 H   0  0  0  0  0  0  0  0  0  0  0  0
  137.3672   81.3928  224.6097 H   0  0  0  0  0  0  0  0  0  0  0  0
  136.9415   80.4853  222.5299 H   0  0  0  0  0  0  0  0  0  0  0  0
  138.7156   80.7782  222.3432 H   0  0  0  0  0  0  0  0  0  0  0  0
  140.6944   78.5717  224.6988 H   0  0  0  0  0  0  0  0  0  0  0  0
  142.7373   80.0161  224.9426 H   0  0  0  0  0  0  0  0  0  0  0  0
  143.6865   81.1641  222.9579 H   0  0  0  0  0  0  0  0  0  0  0  0
  142.6377   80.8961  220.7330 H   0  0  0  0  0  0  0  0  0  0  0  0
  140.6007   79.4597  220.4695 H   0  0  0  0  0  0  0  0  0  0  0  0
  139.4704   76.8568  220.8993 H   0  0  0  0  0  0  0  0  0  0  0  0
  138.9105   75.5912  223.6676 H   0  0  0  0  0  0  0  0  0  0  0  0
  137.6039   76.1509  222.6055 H   0  0  0  0  0  0  0  0  0  0  0  0
  138.2540   73.6757  222.3317 H   0  0  0  0  0  0  0  0  0  0  0  0
  138.3182   74.6508  220.8147 H   0  0  0  0  0  0  0  0  0  0  0  0
  138.4899   72.1084  221.7107 H   0  0  0  0  0  0  0  0  0  0  0  0
  139.6481   70.8586  221.1852 H   0  0  0  0  0  0  0  0  0  0  0  0
  138.3342   69.5504  222.8430 H   0  0  0  0  0  0  0  0  0  0  0  0
  138.4000   68.5990  225.1306 H   0  0  0  0  0  0  0  0  0  0  0  0
  139.1892   68.7487  227.3454 H   0  0  0  0  0  0  0  0  0  0  0  0
  140.5067   69.8603  229.1423 H   0  0  0  0  0  0  0  0  0  0  0  0
  141.7514   71.9489  228.5820 H   0  0  0  0  0  0  0  0  0  0  0  0
  141.6812   72.8915  226.2960 H   0  0  0  0  0  0  0  0  0  0  0  0
  140.9092   72.8100  223.9968 H   0  0  0  0  0  0  0  0  0  0  0  0
  142.1961   74.6234  221.6585 H   0  0  0  0  0  0  0  0  0  0  0  0
  141.2433   75.4152  220.3722 H   0  0  0  0  0  0  0  0  0  0  0  0
  141.0164   75.9587  223.3967 H   0  0  0  0  0  0  0  0  0  0  0  0
  141.7530   77.0525  222.2187 H   0  0  0  0  0  0  0  0  0  0  0  0
  1  2  1  0
  2  3  1  0
  3  4  2  0
  3  5  1  0
  5  6  1  0
  6  7  2  0
  7  8  1  0
  8  9  2  0
  9 10  1  0
 10 11  2  0
  5 12  1  0
 12 13  1  0
 13 14  1  0
 14 15  1  0
 15 16  1  0
 16 17  2  0
 16 18  1  0
 18 19  1  0
 19 20  2  0
 20 21  1  0
 21 22  2  0
 22 23  1  0
 23 24  2  0
 24 25  1  0
 25 26  2  0
 26 27  1  0
 27 28  2  0
 15 29  1  0
 29 30  1  0
 11  6  1  0
 30 12  1  0
 28 19  1  0
 27 22  1  0
  1 31  1  0
  1 32  1  0
  1 33  1  0
  2 34  1  0
  2 35  1  0
  7 36  1  0
  8 37  1  0
  9 38  1  0
 10 39  1  0
 11 40  1  0
 12 41  1  0
 13 42  1  0
 13 43  1  0
 14 44  1  0
 14 45  1  0
 18 46  1  0
 18 47  1  0
 20 48  1  0
 21 49  1  0
 23 50  1  0
 24 51  1  0
 25 52  1  0
 26 53  1  0
 28 54  1  0
 29 55  1  0
 29 56  1  0
 30 57  1  0
 30 58  1  0
M  END
>  <smiles>  (10) 
CCC(=O)N(c1ccccc1)C1CCN(C(=O)Cc2ccc3ccccc3c2)CC1

>  <score_type>  (10) 
oracle

>  <origin>  (10) 
autodockgpu

>  <m_score__min__energy>  (10) 
-9.0999999999999996

>  <m_primary>  (10) 
energy

>  <rmsd>  (10) 
8.140304921940308

>  <m_score__min__rmsd>  (10) 
8.140304921940308

>  <meeko>  (10) 
{"free_energy": -9.08, "intermolecular_energy": -10.87, "internal_energy": -1.47, "cluster_size": 46, "cluster_id": 1, "rank_in_cluster": 5}

>  <energy>  (10) 
-9.06

>  <cluster_rmsd>  (10) 
0.21

>  <cluster>  (10) 
1

$$$$

     RDKit          3D

 58 61  0  0  0  0  0  0  0  0999 V2000
  138.0040   80.4550  223.9470 C   0  0  0  0  0  0  0  0  0  0  0  0
  138.1410   80.3660  222.4260 C   0  0  0  0  0  0  0  0  0  0  0  0
  138.3410   78.9780  221.9960 C   0  0  0  0  0  0  0  0  0  0  0  0
  137.3120   78.3940  221.4930 O   0  0  0  0  0  0  0  0  0  0  0  0
  139.5090   78.2040  222.0610 N   0  0  0  0  0  0  0  0  0  0  0  0
  140.6950   78.9540  222.4920 C   0  0  0  0  0  0  0  0  0  0  0  0
  141.0360   78.9760  223.8320 C   0  0  0  0  0  0  0  0  0  0  0  0
  142.1720   79.6980  224.2080 C   0  0  0  0  0  0  0  0  0  0  0  0
  142.9210   80.3670  223.2520 C   0  0  0  0  0  0  0  0  0  0  0  0
  142.5550   80.3280  221.9200 C   0  0  0  0  0  0  0  0  0  0  0  0
  141.4250   79.6120  221.5230 C   0  0  0  0  0  0  0  0  0  0  0  0
  139.7130   76.8380  221.7770 C   0  0  0  0  0  0  0  0  0  0  0  0
  138.6890   75.9140  222.4510 C   0  0  0  0  0  0  0  0  0  0  0  0
  138.8070   74.5600  221.7570 C   0  0  0  0  0  0  0  0  0  0  0  0
  140.1990   74.1500  221.6700 N   0  0  0  0  0  0  0  0  0  0  0  0
  140.4890   72.7480  221.8460 C   0  0  0  0  0  0  0  0  0  0  0  0
  141.6820   72.3140  221.7840 O   0  0  0  0  0  0  0  0  0  0  0  0
  139.4310   71.7590  222.1040 C   0  0  0  0  0  0  0  0  0  0  0  0
  139.6340   71.2300  223.4790 C   0  0  0  0  0  0  0  0  0  0  0  0
  139.1030   69.9660  223.7480 C   0  0  0  0  0  0  0  0  0  0  0  0
  139.2220   69.3640  224.9780 C   0  0  0  0  0  0  0  0  0  0  0  0
  139.8980   70.0620  225.9600 C   0  0  0  0  0  0  0  0  0  0  0  0
  140.0340   69.4840  227.2070 C   0  0  0  0  0  0  0  0  0  0  0  0
  140.6980   70.1240  228.2400 C   0  0  0  0  0  0  0  0  0  0  0  0
  141.2290   71.3770  227.9810 C   0  0  0  0  0  0  0  0  0  0  0  0
  141.0990   71.9720  226.7330 C   0  0  0  0  0  0  0  0  0  0  0  0
  140.4290   71.3140  225.7060 C   0  0  0  0  0  0  0  0  0  0  0  0
  140.3080   71.9260  224.4580 C   0  0  0  0  0  0  0  0  0  0  0  0
  141.2950   75.0430  221.4230 C   0  0  0  0  0  0  0  0  0  0  0  0
  141.0590   76.3150  222.2290 C   0  0  0  0  0  0  0  0  0  0  0  0
  138.8359   79.9146  224.4223 H   0  0  0  0  0  0  0  0  0  0  0  0
  138.0281   81.5104  224.2562 H   0  0  0  0  0  0  0  0  0  0  0  0
  137.0495   80.0040  224.2562 H   0  0  0  0  0  0  0  0  0  0  0  0
  137.2259   80.7589  221.9589 H   0  0  0  0  0  0  0  0  0  0  0  0
  139.0158   80.9575  222.1180 H   0  0  0  0  0  0  0  0  0  0  0  0
  140.4314   78.4414  224.5794 H   0  0  0  0  0  0  0  0  0  0  0  0
  142.4728   79.7356  225.2654 H   0  0  0  0  0  0  0  0  0  0  0  0
  143.8136   80.9333  223.5562 H   0  0  0  0  0  0  0  0  0  0  0  0
  143.1563   80.8631  221.1703 H   0  0  0  0  0  0  0  0  0  0  0  0
  141.1240   79.5730  220.4657 H   0  0  0  0  0  0  0  0  0  0  0  0
  139.6222   76.8132  220.6810 H   0  0  0  0  0  0  0  0  0  0  0  0
  138.9153   75.8131  223.5227 H   0  0  0  0  0  0  0  0  0  0  0  0
  137.6697   76.3185  222.3647 H   0  0  0  0  0  0  0  0  0  0  0  0
  138.2441   73.8092  222.3309 H   0  0  0  0  0  0  0  0  0  0  0  0
  138.3980   74.6459  220.7395 H   0  0  0  0  0  0  0  0  0  0  0  0
  138.4436   72.2380  222.0286 H   0  0  0  0  0  0  0  0  0  0  0  0
  139.4764   70.9441  221.3665 H   0  0  0  0  0  0  0  0  0  0  0  0
  138.5704   69.4333  222.9464 H   0  0  0  0  0  0  0  0  0  0  0  0
  138.7968   68.3683  225.1722 H   0  0  0  0  0  0  0  0  0  0  0  0
  139.6029   68.4877  227.3845 H   0  0  0  0  0  0  0  0  0  0  0  0
  140.8000   69.6548  229.2297 H   0  0  0  0  0  0  0  0  0  0  0  0
  141.7643   71.9113  228.7798 H   0  0  0  0  0  0  0  0  0  0  0  0
  141.5281   72.9691  226.5552 H   0  0  0  0  0  0  0  0  0  0  0  0
  140.7328   72.9220  224.2642 H   0  0  0  0  0  0  0  0  0  0  0  0
  142.2381   74.5719  221.7371 H   0  0  0  0  0  0  0  0  0  0  0  0
  141.3615   75.2778  220.3504 H   0  0  0  0  0  0  0  0  0  0  0  0
  141.0419   76.0900  223.3056 H   0  0  0  0  0  0  0  0  0  0  0  0
  141.8581   77.0536  222.0679 H   0  0  0  0  0  0  0  0  0  0  0  0
  1  2  1  0
  2  3  1  0
  3  4  2  0
  3  5  1  0
  5  6  1  0
  6  7  2  0
  7  8  1  0
  8  9  2  0
  9 10  1  0
 10 11  2  0
  5 12  1  0
 12 13  1  0
 13 14  1  0
 14 15  1  0
 15 16  1  0
 16 17  2  0
 16 18  1  0
 18 19  1  0
 19 20  2  0
 20 21  1  0
 21 22  2  0
 22 23  1  0
 23 24  2  0
 24 25  1  0
 25 26  2  0
 26 27  1  0
 27 28  2  0
 15 29  1  0
 29 30  1  0
 11  6  1  0
 30 12  1  0
 28 19  1  0
 27 22  1  0
  1 31  1  0
  1 32  1  0
  1 33  1  0
  2 34  1  0
  2 35  1  0
  7 36  1  0
  8 37  1  0
  9 38  1  0
 10 39  1  0
 11 40  1  0
 12 41  1  0
 13 42  1  0
 13 43  1  0
 14 44  1  0
 14 45  1  0
 18 46  1  0
 18 47  1  0
 20 48  1  0
 21 49  1  0
 23 50  1  0
 24 51  1  0
 25 52  1  0
 26 53  1  0
 28 54  1  0
 29 55  1  0
 29 56  1  0
 30 57  1  0
 30 58  1  0
M  END
>  <smiles>  (11) 
CCC(=O)N(c1ccccc1)C1CCN(C(=O)Cc2ccc3ccccc3c2)CC1

>  <score_type>  (11) 
oracle

>  <origin>  (11) 
autodockgpu

>  <m_score__min__energy>  (11) 
-9.0999999999999996

>  <m_primary>  (11) 
energy

>  <rmsd>  (11) 
8.150820622309991

>  <m_score__min__rmsd>  (11) 
8.150820622309991

>  <meeko>  (11) 
{"free_energy": -8.96, "intermolecular_energy": -10.75, "internal_energy": -1.49, "cluster_size": 46, "cluster_id": 1, "rank_in_cluster": 29}

>  <energy>  (11) 
-9.05

>  <cluster_rmsd>  (11) 
0.68

>  <cluster>  (11) 
1

$$$$

     RDKit          3D

 58 61  0  0  0  0  0  0  0  0999 V2000
  143.6950   76.4090  219.3430 C   0  0  0  0  0  0  0  0  0  0  0  0
  142.4140   77.0320  218.7830 C   0  0  0  0  0  0  0  0  0  0  0  0
  141.7950   77.9290  219.7650 C   0  0  0  0  0  0  0  0  0  0  0  0
  141.7210   79.1670  219.4250 O   0  0  0  0  0  0  0  0  0  0  0  0
  141.2700   77.6120  221.0270 N   0  0  0  0  0  0  0  0  0  0  0  0
  141.3480   78.7120  221.9960 C   0  0  0  0  0  0  0  0  0  0  0  0
  142.5860   79.1690  222.4070 C   0  0  0  0  0  0  0  0  0  0  0  0
  142.6240   80.2180  223.3310 C   0  0  0  0  0  0  0  0  0  0  0  0
  141.4440   80.7690  223.8090 C   0  0  0  0  0  0  0  0  0  0  0  0
  140.2210   80.2900  223.3790 C   0  0  0  0  0  0  0  0  0  0  0  0
  140.1620   79.2440  222.4580 C   0  0  0  0  0  0  0  0  0  0  0  0
  140.6900   76.4160  221.4970 C   0  0  0  0  0  0  0  0  0  0  0  0
  141.4390   75.1540  221.0440 C   0  0  0  0  0  0  0  0  0  0  0  0
  140.9330   74.0130  221.9230 C   0  0  0  0  0  0  0  0  0  0  0  0
  139.4800   74.0110  221.9710 N   0  0  0  0  0  0  0  0  0  0  0  0
  138.8190   72.7280  221.9870 C   0  0  0  0  0  0  0  0  0  0  0  0
  137.5530   72.6460  222.0280 O   0  0  0  0  0  0  0  0  0  0  0  0
  139.5710   71.4640  221.9560 C   0  0  0  0  0  0  0  0  0  0  0  0
  139.7170   70.9920  223.3580 C   0  0  0  0  0  0  0  0  0  0  0  0
  139.2100   69.7220  223.6480 C   0  0  0  0  0  0  0  0  0  0  0  0
  139.2820   69.1700  224.9050 C   0  0  0  0  0  0  0  0  0  0  0  0
  139.8850   69.9240  225.8920 C   0  0  0  0  0  0  0  0  0  0  0  0
  139.9730   69.3970  227.1650 C   0  0  0  0  0  0  0  0  0  0  0  0
  140.5630   70.0940  228.2060 C   0  0  0  0  0  0  0  0  0  0  0  0
  141.0690   71.3530  227.9280 C   0  0  0  0  0  0  0  0  0  0  0  0
  140.9880   71.8970  226.6530 C   0  0  0  0  0  0  0  0  0  0  0  0
  140.3910   71.1820  225.6190 C   0  0  0  0  0  0  0  0  0  0  0  0
  140.3180   71.7440  224.3440 C   0  0  0  0  0  0  0  0  0  0  0  0
  138.6660   75.1930  222.0020 C   0  0  0  0  0  0  0  0  0  0  0  0
  139.2650   76.2050  221.0330 C   0  0  0  0  0  0  0  0  0  0  0  0
  143.6607   76.4257  220.4423 H   0  0  0  0  0  0  0  0  0  0  0  0
  143.7797   75.3691  218.9946 H   0  0  0  0  0  0  0  0  0  0  0  0
  144.5653   76.9845  218.9946 H   0  0  0  0  0  0  0  0  0  0  0  0
  142.6587   77.6046  217.8762 H   0  0  0  0  0  0  0  0  0  0  0  0
  141.7044   76.2249  218.5482 H   0  0  0  0  0  0  0  0  0  0  0  0
  143.5129   78.7213  222.0192 H   0  0  0  0  0  0  0  0  0  0  0  0
  143.5920   80.6072  223.6796 H   0  0  0  0  0  0  0  0  0  0  0  0
  141.4821   81.5936  224.5360 H   0  0  0  0  0  0  0  0  0  0  0  0
  139.2916   80.7348  223.7641 H   0  0  0  0  0  0  0  0  0  0  0  0
  139.1947   78.8534  222.1091 H   0  0  0  0  0  0  0  0  0  0  0  0
  140.7396   76.5476  222.5880 H   0  0  0  0  0  0  0  0  0  0  0  0
  141.2239   74.9432  219.9860 H   0  0  0  0  0  0  0  0  0  0  0  0
  142.5274   75.2798  221.1417 H   0  0  0  0  0  0  0  0  0  0  0  0
  141.2825   73.0555  221.5095 H   0  0  0  0  0  0  0  0  0  0  0  0
  141.3217   74.1511  222.9427 H   0  0  0  0  0  0  0  0  0  0  0  0
  139.0231   70.7162  221.3638 H   0  0  0  0  0  0  0  0  0  0  0  0
  140.5582   71.6136  221.4945 H   0  0  0  0  0  0  0  0  0  0  0  0
  138.7363   69.1434  222.8413 H   0  0  0  0  0  0  0  0  0  0  0  0
  138.8762   68.1695  225.1156 H   0  0  0  0  0  0  0  0  0  0  0  0
  139.5627   68.3948  227.3579 H   0  0  0  0  0  0  0  0  0  0  0  0
  140.6274   69.6637  229.2163 H   0  0  0  0  0  0  0  0  0  0  0  0
  141.5442   71.9331  228.7328 H   0  0  0  0  0  0  0  0  0  0  0  0
  141.3982   72.8991  226.4591 H   0  0  0  0  0  0  0  0  0  0  0  0
  140.7231   72.7451  224.1347 H   0  0  0  0  0  0  0  0  0  0  0  0
  137.6386   74.9465  221.6959 H   0  0  0  0  0  0  0  0  0  0  0  0
  138.6376   75.6099  223.0195 H   0  0  0  0  0  0  0  0  0  0  0  0
  139.2496   75.8099  220.0065 H   0  0  0  0  0  0  0  0  0  0  0  0
  138.6958   77.1463  221.0231 H   0  0  0  0  0  0  0  0  0  0  0  0
  1  2  1  0
  2  3  1  0
  3  4  2  0
  3  5  1  0
  5  6  1  0
  6  7  2  0
  7  8  1  0
  8  9  2  0
  9 10  1  0
 10 11  2  0
  5 12  1  0
 12 13  1  0
 13 14  1  0
 14 15  1  0
 15 16  1  0
 16 17  2  0
 16 18  1  0
 18 19  1  0
 19 20  2  0
 20 21  1  0
 21 22  2  0
 22 23  1  0
 23 24  2  0
 24 25  1  0
 25 26  2  0
 26 27  1  0
 27 28  2  0
 15 29  1  0
 29 30  1  0
 11  6  1  0
 30 12  1  0
 28 19  1  0
 27 22  1  0
  1 31  1  0
  1 32  1  0
  1 33  1  0
  2 34  1  0
  2 35  1  0
  7 36  1  0
  8 37  1  0
  9 38  1  0
 10 39  1  0
 11 40  1  0
 12 41  1  0
 13 42  1  0
 13 43  1  0
 14 44  1  0
 14 45  1  0
 18 46  1  0
 18 47  1  0
 20 48  1  0
 21 49  1  0
 23 50  1  0
 24 51  1  0
 25 52  1  0
 26 53  1  0
 28 54  1  0
 29 55  1  0
 29 56  1  0
 30 57  1  0
 30 58  1  0
M  END
>  <smiles>  (12) 
CCC(=O)N(c1ccccc1)C1CCN(C(=O)Cc2ccc3ccccc3c2)CC1

>  <score_type>  (12) 
oracle

>  <origin>  (12) 
autodockgpu

>  <m_score__min__energy>  (12) 
-9.0999999999999996

>  <m_primary>  (12) 
energy

>  <rmsd>  (12) 
8.185078992296955

>  <m_score__min__rmsd>  (12) 
8.185078992296955

>  <meeko>  (12) 
{"free_energy": -8.75, "intermolecular_energy": -10.54, "internal_energy": -1.38, "cluster_size": 46, "cluster_id": 1, "rank_in_cluster": 44}

>  <energy>  (12) 
-9.04

>  <cluster_rmsd>  (12) 
0.44

>  <cluster>  (12) 
1

$$$$

     RDKit          3D

 58 61  0  0  0  0  0  0  0  0999 V2000
  138.1990   81.1270  223.3940 C   0  0  0  0  0  0  0  0  0  0  0  0
  137.6990   79.6840  223.4950 C   0  0  0  0  0  0  0  0  0  0  0  0
  138.1720   78.8840  222.3590 C   0  0  0  0  0  0  0  0  0  0  0  0
  137.3680   78.8010  221.3600 O   0  0  0  0  0  0  0  0  0  0  0  0
  139.3880   78.1990  222.2210 N   0  0  0  0  0  0  0  0  0  0  0  0
  140.5710   79.0300  222.4750 C   0  0  0  0  0  0  0  0  0  0  0  0
  141.0740   79.1240  223.7590 C   0  0  0  0  0  0  0  0  0  0  0  0
  142.2020   79.9240  223.9660 C   0  0  0  0  0  0  0  0  0  0  0  0
  142.7830   80.5960  222.9020 C   0  0  0  0  0  0  0  0  0  0  0  0
  142.2570   80.4840  221.6290 C   0  0  0  0  0  0  0  0  0  0  0  0
  141.1330   79.6910  221.4010 C   0  0  0  0  0  0  0  0  0  0  0  0
  139.6420   76.8550  221.8800 C   0  0  0  0  0  0  0  0  0  0  0  0
  138.6270   75.8700  222.4780 C   0  0  0  0  0  0  0  0  0  0  0  0
  138.8070   74.5550  221.7240 C   0  0  0  0  0  0  0  0  0  0  0  0
  140.2130   74.1900  221.6610 N   0  0  0  0  0  0  0  0  0  0  0  0
  140.5410   72.7900  221.7790 C   0  0  0  0  0  0  0  0  0  0  0  0
  141.7470   72.3950  221.7330 O   0  0  0  0  0  0  0  0  0  0  0  0
  139.5060   71.7590  221.9570 C   0  0  0  0  0  0  0  0  0  0  0  0
  139.6050   71.2580  223.3540 C   0  0  0  0  0  0  0  0  0  0  0  0
  138.9110   70.0810  223.6470 C   0  0  0  0  0  0  0  0  0  0  0  0
  138.9210   69.5130  224.8990 C   0  0  0  0  0  0  0  0  0  0  0  0
  139.6550   70.1550  225.8770 C   0  0  0  0  0  0  0  0  0  0  0  0
  139.6850   69.6100  227.1460 C   0  0  0  0  0  0  0  0  0  0  0  0
  140.3980   70.1970  228.1780 C   0  0  0  0  0  0  0  0  0  0  0  0
  141.0890   71.3640  227.8950 C   0  0  0  0  0  0  0  0  0  0  0  0
  141.0680   71.9250  226.6250 C   0  0  0  0  0  0  0  0  0  0  0  0
  140.3470   71.3210  225.6000 C   0  0  0  0  0  0  0  0  0  0  0  0
  140.3360   71.8980  224.3300 C   0  0  0  0  0  0  0  0  0  0  0  0
  141.2880   75.1250  221.4900 C   0  0  0  0  0  0  0  0  0  0  0  0
  140.9890   76.3500  222.3480 C   0  0  0  0  0  0  0  0  0  0  0  0
  138.3412   81.5374  224.4046 H   0  0  0  0  0  0  0  0  0  0  0  0
  139.1562   81.1463  222.8524 H   0  0  0  0  0  0  0  0  0  0  0  0
  137.4589   81.7344  222.8524 H   0  0  0  0  0  0  0  0  0  0  0  0
  138.0718   79.2384  224.4291 H   0  0  0  0  0  0  0  0  0  0  0  0
  136.5991   79.6921  223.4848 H   0  0  0  0  0  0  0  0  0  0  0  0
  140.6009   78.5854  224.5933 H   0  0  0  0  0  0  0  0  0  0  0  0
  142.6291   80.0202  224.9751 H   0  0  0  0  0  0  0  0  0  0  0  0
  143.6702   81.2237  223.0723 H   0  0  0  0  0  0  0  0  0  0  0  0
  142.7267   81.0224  220.7926 H   0  0  0  0  0  0  0  0  0  0  0  0
  140.7053   79.5946  220.3921 H   0  0  0  0  0  0  0  0  0  0  0  0
  139.5845   76.8805  220.7818 H   0  0  0  0  0  0  0  0  0  0  0  0
  138.8248   75.7240  223.5502 H   0  0  0  0  0  0  0  0  0  0  0  0
  137.5988   76.2484  222.3800 H   0  0  0  0  0  0  0  0  0  0  0  0
  138.2503   73.7612  222.2435 H   0  0  0  0  0  0  0  0  0  0  0  0
  138.4262   74.6785  220.6994 H   0  0  0  0  0  0  0  0  0  0  0  0
  138.5103   72.1934  221.7841 H   0  0  0  0  0  0  0  0  0  0  0  0
  139.6526   70.9371  221.2408 H   0  0  0  0  0  0  0  0  0  0  0  0
  138.3360   69.5914  222.8472 H   0  0  0  0  0  0  0  0  0  0  0  0
  138.3679   68.5865  225.1127 H   0  0  0  0  0  0  0  0  0  0  0  0
  139.1264   68.6830  227.3425 H   0  0  0  0  0  0  0  0  0  0  0  0
  140.4150   69.7534  229.1844 H   0  0  0  0  0  0  0  0  0  0  0  0
  141.6657   71.8559  228.6922 H   0  0  0  0  0  0  0  0  0  0  0  0
  141.6250   72.8529  226.4281 H   0  0  0  0  0  0  0  0  0  0  0  0
  140.8881   72.8253  224.1171 H   0  0  0  0  0  0  0  0  0  0  0  0
  142.2354   74.6671  221.8106 H   0  0  0  0  0  0  0  0  0  0  0  0
  141.3792   75.4127  220.4322 H   0  0  0  0  0  0  0  0  0  0  0  0
  140.9468   76.0729  223.4117 H   0  0  0  0  0  0  0  0  0  0  0  0
  141.7696   77.1184  222.2467 H   0  0  0  0  0  0  0  0  0  0  0  0
  1  2  1  0
  2  3  1  0
  3  4  2  0
  3  5  1  0
  5  6  1  0
  6  7  2  0
  7  8  1  0
  8  9  2  0
  9 10  1  0
 10 11  2  0
  5 12  1  0
 12 13  1  0
 13 14  1  0
 14 15  1  0
 15 16  1  0
 16 17  2  0
 16 18  1  0
 18 19  1  0
 19 20  2  0
 20 21  1  0
 21 22  2  0
 22 23  1  0
 23 24  2  0
 24 25  1  0
 25 26  2  0
 26 27  1  0
 27 28  2  0
 15 29  1  0
 29 30  1  0
 11  6  1  0
 30 12  1  0
 28 19  1  0
 27 22  1  0
  1 31  1  0
  1 32  1  0
  1 33  1  0
  2 34  1  0
  2 35  1  0
  7 36  1  0
  8 37  1  0
  9 38  1  0
 10 39  1  0
 11 40  1  0
 12 41  1  0
 13 42  1  0
 13 43  1  0
 14 44  1  0
 14 45  1  0
 18 46  1  0
 18 47  1  0
 20 48  1  0
 21 49  1  0
 23 50  1  0
 24 51  1  0
 25 52  1  0
 26 53  1  0
 28 54  1  0
 29 55  1  0
 29 56  1  0
 30 57  1  0
 30 58  1  0
M  END
>  <smiles>  (13) 
CCC(=O)N(c1ccccc1)C1CCN(C(=O)Cc2ccc3ccccc3c2)CC1

>  <score_type>  (13) 
oracle

>  <origin>  (13) 
autodockgpu

>  <m_score__min__energy>  (13) 
-9.0999999999999996

>  <m_primary>  (13) 
energy

>  <rmsd>  (13) 
8.149269264669416

>  <m_score__min__rmsd>  (13) 
8.149269264669416

>  <meeko>  (13) 
{"free_energy": -8.93, "intermolecular_energy": -10.72, "internal_energy": -1.51, "cluster_size": 46, "cluster_id": 1, "rank_in_cluster": 31}

>  <energy>  (13) 
-9.03

>  <cluster_rmsd>  (13) 
0.16

>  <cluster>  (13) 
1

$$$$

     RDKit          3D

 58 61  0  0  0  0  0  0  0  0999 V2000
  138.2190   81.2760  222.6970 C   0  0  0  0  0  0  0  0  0  0  0  0
  138.0350   80.0220  223.5550 C   0  0  0  0  0  0  0  0  0  0  0  0
  138.2180   78.8070  222.7540 C   0  0  0  0  0  0  0  0  0  0  0  0
  137.1440   78.2820  222.2800 O   0  0  0  0  0  0  0  0  0  0  0  0
  139.4120   78.1440  222.4350 N   0  0  0  0  0  0  0  0  0  0  0  0
  140.6100   78.9810  222.5650 C   0  0  0  0  0  0  0  0  0  0  0  0
  141.1080   79.6330  221.4530 C   0  0  0  0  0  0  0  0  0  0  0  0
  142.2500   80.4240  221.6120 C   0  0  0  0  0  0  0  0  0  0  0  0
  142.8520   80.5360  222.8560 C   0  0  0  0  0  0  0  0  0  0  0  0
  142.3310   79.8710  223.9500 C   0  0  0  0  0  0  0  0  0  0  0  0
  141.1920   79.0780  223.8130 C   0  0  0  0  0  0  0  0  0  0  0  0
  139.6310   76.8160  222.0140 C   0  0  0  0  0  0  0  0  0  0  0  0
  138.6580   75.8070  222.6420 C   0  0  0  0  0  0  0  0  0  0  0  0
  138.7730   74.5270  221.8180 C   0  0  0  0  0  0  0  0  0  0  0  0
  140.1680   74.1630  221.6310 N   0  0  0  0  0  0  0  0  0  0  0  0
  140.4950   72.7580  221.6590 C   0  0  0  0  0  0  0  0  0  0  0  0
  141.6920   72.3620  221.5040 O   0  0  0  0  0  0  0  0  0  0  0  0
  139.4710   71.7230  221.8690 C   0  0  0  0  0  0  0  0  0  0  0  0
  139.6160   71.2200  223.2610 C   0  0  0  0  0  0  0  0  0  0  0  0
  139.0050   69.9980  223.5520 C   0  0  0  0  0  0  0  0  0  0  0  0
  139.0640   69.4240  224.8000 C   0  0  0  0  0  0  0  0  0  0  0  0
  139.7620   70.1070  225.7770 C   0  0  0  0  0  0  0  0  0  0  0  0
  139.8410   69.5570  227.0410 C   0  0  0  0  0  0  0  0  0  0  0  0
  140.5220   70.1840  228.0700 C   0  0  0  0  0  0  0  0  0  0  0  0
  141.1320   71.3970  227.7900 C   0  0  0  0  0  0  0  0  0  0  0  0
  141.0620   71.9630  226.5240 C   0  0  0  0  0  0  0  0  0  0  0  0
  140.3730   71.3190  225.5010 C   0  0  0  0  0  0  0  0  0  0  0  0
  140.3120   71.9020  224.2350 C   0  0  0  0  0  0  0  0  0  0  0  0
  141.2320   75.1020  221.4210 C   0  0  0  0  0  0  0  0  0  0  0  0
  141.0070   76.2860  222.3540 C   0  0  0  0  0  0  0  0  0  0  0  0
  138.3475   82.1516  223.3503 H   0  0  0  0  0  0  0  0  0  0  0  0
  139.1095   81.1584  222.0621 H   0  0  0  0  0  0  0  0  0  0  0  0
  137.3322   81.4192  222.0621 H   0  0  0  0  0  0  0  0  0  0  0  0
  138.7747   80.0312  224.3691 H   0  0  0  0  0  0  0  0  0  0  0  0
  137.0135   80.0228  223.9631 H   0  0  0  0  0  0  0  0  0  0  0  0
  140.6205   79.5327  220.4720 H   0  0  0  0  0  0  0  0  0  0  0  0
  142.6718   80.9587  220.7482 H   0  0  0  0  0  0  0  0  0  0  0  0
  143.7511   81.1588  222.9732 H   0  0  0  0  0  0  0  0  0  0  0  0
  142.8165   79.9676  224.9323 H   0  0  0  0  0  0  0  0  0  0  0  0
  140.7686   78.5440  224.6765 H   0  0  0  0  0  0  0  0  0  0  0  0
  139.4902   76.8925  220.9257 H   0  0  0  0  0  0  0  0  0  0  0  0
  138.9352   75.6119  223.6885 H   0  0  0  0  0  0  0  0  0  0  0  0
  137.6275   76.1919  222.6391 H   0  0  0  0  0  0  0  0  0  0  0  0
  138.2537   73.7114  222.3425 H   0  0  0  0  0  0  0  0  0  0  0  0
  138.3155   74.6973  220.8322 H   0  0  0  0  0  0  0  0  0  0  0  0
  138.4686   72.1537  221.7287 H   0  0  0  0  0  0  0  0  0  0  0  0
  139.5985   70.9026  221.1474 H   0  0  0  0  0  0  0  0  0  0  0  0
  138.4568   69.4760  222.7538 H   0  0  0  0  0  0  0  0  0  0  0  0
  138.5758   68.4612  225.0116 H   0  0  0  0  0  0  0  0  0  0  0  0
  139.3486   68.5928  227.2358 H   0  0  0  0  0  0  0  0  0  0  0  0
  140.5772   69.7362  229.0732 H   0  0  0  0  0  0  0  0  0  0  0  0
  141.6818   71.9210  228.5857 H   0  0  0  0  0  0  0  0  0  0  0  0
  141.5545   72.9269  226.3285 H   0  0  0  0  0  0  0  0  0  0  0  0
  140.7990   72.8654  224.0234 H   0  0  0  0  0  0  0  0  0  0  0  0
  142.1984   74.6275  221.6466 H   0  0  0  0  0  0  0  0  0  0  0  0
  141.2437   75.4380  220.3736 H   0  0  0  0  0  0  0  0  0  0  0  0
  141.0443   75.9601  223.4039 H   0  0  0  0  0  0  0  0  0  0  0  0
  141.7823   77.0562  222.2287 H   0  0  0  0  0  0  0  0  0  0  0  0
  1  2  1  0
  2  3  1  0
  3  4  2  0
  3  5  1  0
  5  6  1  0
  6  7  2  0
  7  8  1  0
  8  9  2  0
  9 10  1  0
 10 11  2  0
  5 12  1  0
 12 13  1  0
 13 14  1  0
 14 15  1  0
 15 16  1  0
 16 17  2  0
 16 18  1  0
 18 19  1  0
 19 20  2  0
 20 21  1  0
 21 22  2  0
 22 23  1  0
 23 24  2  0
 24 25  1  0
 25 26  2  0
 26 27  1  0
 27 28  2  0
 15 29  1  0
 29 30  1  0
 11  6  1  0
 30 12  1  0
 28 19  1  0
 27 22  1  0
  1 31  1  0
  1 32  1  0
  1 33  1  0
  2 34  1  0
  2 35  1  0
  7 36  1  0
  8 37  1  0
  9 38  1  0
 10 39  1  0
 11 40  1  0
 12 41  1  0
 13 42  1  0
 13 43  1  0
 14 44  1  0
 14 45  1  0
 18 46  1  0
 18 47  1  0
 20 48  1  0
 21 49  1  0
 23 50  1  0
 24 51  1  0
 25 52  1  0
 26 53  1  0
 28 54  1  0
 29 55  1  0
 29 56  1  0
 30 57  1  0
 30 58  1  0
M  END
>  <smiles>  (14) 
CCC(=O)N(c1ccccc1)C1CCN(C(=O)Cc2ccc3ccccc3c2)CC1

>  <score_type>  (14) 
oracle

>  <origin>  (14) 
autodockgpu

>  <m_score__min__energy>  (14) 
-9.0999999999999996

>  <m_primary>  (14) 
energy

>  <rmsd>  (14) 
8.136475267006935

>  <m_score__min__rmsd>  (14) 
8.136475267006935

>  <meeko>  (14) 
{"free_energy": -8.93, "intermolecular_energy": -10.72, "internal_energy": -1.53, "cluster_size": 46, "cluster_id": 1, "rank_in_cluster": 35}

>  <energy>  (14) 
-9.02

>  <cluster_rmsd>  (14) 
0.23

>  <cluster>  (14) 
1

$$$$

     RDKit          3D

 58 61  0  0  0  0  0  0  0  0999 V2000
  138.0700   80.5610  224.3560 C   0  0  0  0  0  0  0  0  0  0  0  0
  137.9540   80.1940  222.8750 C   0  0  0  0  0  0  0  0  0  0  0  0
  138.1820   78.7590  222.6700 C   0  0  0  0  0  0  0  0  0  0  0  0
  137.1430   78.0090  222.7590 O   0  0  0  0  0  0  0  0  0  0  0  0
  139.3870   78.1000  222.3870 N   0  0  0  0  0  0  0  0  0  0  0  0
  140.5790   78.9410  222.5540 C   0  0  0  0  0  0  0  0  0  0  0  0
  141.1440   79.0780  223.8080 C   0  0  0  0  0  0  0  0  0  0  0  0
  142.2780   79.8860  223.9320 C   0  0  0  0  0  0  0  0  0  0  0  0
  142.8050   80.5220  222.8190 C   0  0  0  0  0  0  0  0  0  0  0  0
  142.2180   80.3660  221.5780 C   0  0  0  0  0  0  0  0  0  0  0  0
  141.0860   79.5640  221.4330 C   0  0  0  0  0  0  0  0  0  0  0  0
  139.6230   76.7730  221.9710 C   0  0  0  0  0  0  0  0  0  0  0  0
  138.6500   75.7570  222.5880 C   0  0  0  0  0  0  0  0  0  0  0  0
  138.7860   74.4770  221.7680 C   0  0  0  0  0  0  0  0  0  0  0  0
  140.1870   74.1240  221.6000 N   0  0  0  0  0  0  0  0  0  0  0  0
  140.5250   72.7220  221.6360 C   0  0  0  0  0  0  0  0  0  0  0  0
  141.7270   72.3360  221.4970 O   0  0  0  0  0  0  0  0  0  0  0  0
  139.5060   71.6790  221.8340 C   0  0  0  0  0  0  0  0  0  0  0  0
  139.5990   71.2200  223.2450 C   0  0  0  0  0  0  0  0  0  0  0  0
  138.8780   70.0700  223.5780 C   0  0  0  0  0  0  0  0  0  0  0  0
  138.8790   69.5430  224.8480 C   0  0  0  0  0  0  0  0  0  0  0  0
  139.6320   70.1980  225.8030 C   0  0  0  0  0  0  0  0  0  0  0  0
  139.6540   69.6930  227.0880 C   0  0  0  0  0  0  0  0  0  0  0  0
  140.3850   70.2950  228.0980 C   0  0  0  0  0  0  0  0  0  0  0  0
  141.1030   71.4360  227.7760 C   0  0  0  0  0  0  0  0  0  0  0  0
  141.0910   71.9560  226.4890 C   0  0  0  0  0  0  0  0  0  0  0  0
  140.3510   71.3370  225.4860 C   0  0  0  0  0  0  0  0  0  0  0  0
  140.3490   71.8730  224.1980 C   0  0  0  0  0  0  0  0  0  0  0  0
  141.2460   75.0720  221.4040 C   0  0  0  0  0  0  0  0  0  0  0  0
  140.9990   76.2560  222.3310 C   0  0  0  0  0  0  0  0  0  0  0  0
  137.7953   79.6919  224.9717 H   0  0  0  0  0  0  0  0  0  0  0  0
  139.1055   80.8568  224.5805 H   0  0  0  0  0  0  0  0  0  0  0  0
  137.3927   81.3982  224.5805 H   0  0  0  0  0  0  0  0  0  0  0  0
  136.9462   80.4528  222.5180 H   0  0  0  0  0  0  0  0  0  0  0  0
  138.7168   80.7540  222.3141 H   0  0  0  0  0  0  0  0  0  0  0  0
  140.7143   78.5667  224.6820 H   0  0  0  0  0  0  0  0  0  0  0  0
  142.7532   80.0174  224.9153 H   0  0  0  0  0  0  0  0  0  0  0  0
  143.6977   81.1560  222.9245 H   0  0  0  0  0  0  0  0  0  0  0  0
  142.6447   80.8758  220.7016 H   0  0  0  0  0  0  0  0  0  0  0  0
  140.6101   79.4319  220.4501 H   0  0  0  0  0  0  0  0  0  0  0  0
  139.4964   76.8457  220.8807 H   0  0  0  0  0  0  0  0  0  0  0  0
  138.9151   75.5659  223.6383 H   0  0  0  0  0  0  0  0  0  0  0  0
  137.6166   76.1335  222.5709 H   0  0  0  0  0  0  0  0  0  0  0  0
  138.2664   73.6581  222.2870 H   0  0  0  0  0  0  0  0  0  0  0  0
  138.3400   74.6418  220.7761 H   0  0  0  0  0  0  0  0  0  0  0  0
  138.5049   72.0912  221.6391 H   0  0  0  0  0  0  0  0  0  0  0  0
  139.6740   70.8395  221.1434 H   0  0  0  0  0  0  0  0  0  0  0  0
  138.2887   69.5685  222.7962 H   0  0  0  0  0  0  0  0  0  0  0  0
  138.3042   68.6377  225.0932 H   0  0  0  0  0  0  0  0  0  0  0  0
  139.0741   68.7864  227.3157 H   0  0  0  0  0  0  0  0  0  0  0  0
  140.3955   69.8831  229.1179 H   0  0  0  0  0  0  0  0  0  0  0  0
  141.6938   71.9393  228.5555 H   0  0  0  0  0  0  0  0  0  0  0  0
  141.6700   72.8630  226.2605 H   0  0  0  0  0  0  0  0  0  0  0  0
  140.9225   72.7793  223.9537 H   0  0  0  0  0  0  0  0  0  0  0  0
  142.2129   74.6058  221.6442 H   0  0  0  0  0  0  0  0  0  0  0  0
  141.2690   75.4065  220.3564 H   0  0  0  0  0  0  0  0  0  0  0  0
  141.0251   75.9329  223.3822 H   0  0  0  0  0  0  0  0  0  0  0  0
  141.7694   77.0324  222.2145 H   0  0  0  0  0  0  0  0  0  0  0  0
  1  2  1  0
  2  3  1  0
  3  4  2  0
  3  5  1  0
  5  6  1  0
  6  7  2  0
  7  8  1  0
  8  9  2  0
  9 10  1  0
 10 11  2  0
  5 12  1  0
 12 13  1  0
 13 14  1  0
 14 15  1  0
 15 16  1  0
 16 17  2  0
 16 18  1  0
 18 19  1  0
 19 20  2  0
 20 21  1  0
 21 22  2  0
 22 23  1  0
 23 24  2  0
 24 25  1  0
 25 26  2  0
 26 27  1  0
 27 28  2  0
 15 29  1  0
 29 30  1  0
 11  6  1  0
 30 12  1  0
 28 19  1  0
 27 22  1  0
  1 31  1  0
  1 32  1  0
  1 33  1  0
  2 34  1  0
  2 35  1  0
  7 36  1  0
  8 37  1  0
  9 38  1  0
 10 39  1  0
 11 40  1  0
 12 41  1  0
 13 42  1  0
 13 43  1  0
 14 44  1  0
 14 45  1  0
 18 46  1  0
 18 47  1  0
 20 48  1  0
 21 49  1  0
 23 50  1  0
 24 51  1  0
 25 52  1  0
 26 53  1  0
 28 54  1  0
 29 55  1  0
 29 56  1  0
 30 57  1  0
 30 58  1  0
M  END
>  <smiles>  (15) 
CCC(=O)N(c1ccccc1)C1CCN(C(=O)Cc2ccc3ccccc3c2)CC1

>  <score_type>  (15) 
oracle

>  <origin>  (15) 
autodockgpu

>  <m_score__min__energy>  (15) 
-9.0999999999999996

>  <m_primary>  (15) 
energy

>  <rmsd>  (15) 
8.134932275775904

>  <m_score__min__rmsd>  (15) 
8.134932275775904

>  <meeko>  (15) 
{"free_energy": -9.07, "intermolecular_energy": -10.86, "internal_energy": -1.46, "cluster_size": 46, "cluster_id": 1, "rank_in_cluster": 6}

>  <energy>  (15) 
-9.02

>  <cluster_rmsd>  (15) 
0.14

>  <cluster>  (15) 
1

$$$$

     RDKit          3D

 58 61  0  0  0  0  0  0  0  0999 V2000
  138.1810   80.4590  224.2340 C   0  0  0  0  0  0  0  0  0  0  0  0
  137.9400   80.3220  222.7290 C   0  0  0  0  0  0  0  0  0  0  0  0
  138.1500   78.9380  222.2880 C   0  0  0  0  0  0  0  0  0  0  0  0
  137.0900   78.2850  221.9670 O   0  0  0  0  0  0  0  0  0  0  0  0
  139.3570   78.2350  222.1680 N   0  0  0  0  0  0  0  0  0  0  0  0
  140.5500   79.0570  222.4020 C   0  0  0  0  0  0  0  0  0  0  0  0
  141.0730   79.1490  223.6780 C   0  0  0  0  0  0  0  0  0  0  0  0
  142.2100   79.9400  223.8670 C   0  0  0  0  0  0  0  0  0  0  0  0
  142.7810   80.6060  222.7930 C   0  0  0  0  0  0  0  0  0  0  0  0
  142.2350   80.4950  221.5280 C   0  0  0  0  0  0  0  0  0  0  0  0
  141.1020   79.7100  221.3190 C   0  0  0  0  0  0  0  0  0  0  0  0
  139.5940   76.8790  221.8600 C   0  0  0  0  0  0  0  0  0  0  0  0
  138.5740   75.9210  222.4910 C   0  0  0  0  0  0  0  0  0  0  0  0
  138.7340   74.5850  221.7710 C   0  0  0  0  0  0  0  0  0  0  0  0
  140.1360   74.2040  221.7060 N   0  0  0  0  0  0  0  0  0  0  0  0
  140.4500   72.8040  221.8580 C   0  0  0  0  0  0  0  0  0  0  0  0
  141.6510   72.3950  221.8130 O   0  0  0  0  0  0  0  0  0  0  0  0
  139.4060   71.7890  222.0720 C   0  0  0  0  0  0  0  0  0  0  0  0
  139.5530   71.2770  223.4600 C   0  0  0  0  0  0  0  0  0  0  0  0
  138.9020   70.0760  223.7570 C   0  0  0  0  0  0  0  0  0  0  0  0
  138.9580   69.4970  225.0020 C   0  0  0  0  0  0  0  0  0  0  0  0
  139.6950   70.1510  225.9700 C   0  0  0  0  0  0  0  0  0  0  0  0
  139.7710   69.5930  227.2310 C   0  0  0  0  0  0  0  0  0  0  0  0
  140.4900   70.1910  228.2530 C   0  0  0  0  0  0  0  0  0  0  0  0
  141.1390   71.3820  227.9670 C   0  0  0  0  0  0  0  0  0  0  0  0
  141.0710   71.9550  226.7040 C   0  0  0  0  0  0  0  0  0  0  0  0
  140.3440   71.3400  225.6890 C   0  0  0  0  0  0  0  0  0  0  0  0
  140.2870   71.9290  224.4260 C   0  0  0  0  0  0  0  0  0  0  0  0
  141.2190   75.1230  221.5020 C   0  0  0  0  0  0  0  0  0  0  0  0
  140.9400   76.3720  222.3300 C   0  0  0  0  0  0  0  0  0  0  0  0
  137.3521   79.9878  224.7825 H   0  0  0  0  0  0  0  0  0  0  0  0
  139.1259   79.9631  224.5007 H   0  0  0  0  0  0  0  0  0  0  0  0
  138.2382   81.5247  224.5007 H   0  0  0  0  0  0  0  0  0  0  0  0
  136.9057   80.6193  222.5015 H   0  0  0  0  0  0  0  0  0  0  0  0
  138.6523   80.9713  222.1989 H   0  0  0  0  0  0  0  0  0  0  0  0
  140.6082   78.6154  224.5202 H   0  0  0  0  0  0  0  0  0  0  0  0
  142.6526   80.0343  224.8696 H   0  0  0  0  0  0  0  0  0  0  0  0
  143.6752   81.2273  222.9489 H   0  0  0  0  0  0  0  0  0  0  0  0
  142.6960   81.0279  220.6833 H   0  0  0  0  0  0  0  0  0  0  0  0
  140.6595   79.6137  220.3166 H   0  0  0  0  0  0  0  0  0  0  0  0
  139.5274   76.8765  220.7620 H   0  0  0  0  0  0  0  0  0  0  0  0
  138.7787   75.8011  223.5651 H   0  0  0  0  0  0  0  0  0  0  0  0
  137.5491   76.3076  222.3906 H   0  0  0  0  0  0  0  0  0  0  0  0
  138.1738   73.8110  222.3161 H   0  0  0  0  0  0  0  0  0  0  0  0
  138.3455   74.6850  220.7467 H   0  0  0  0  0  0  0  0  0  0  0  0
  138.4116   72.2410  221.9425 H   0  0  0  0  0  0  0  0  0  0  0  0
  139.5098   70.9696  221.3455 H   0  0  0  0  0  0  0  0  0  0  0  0
  138.3241   69.5764  222.9655 H   0  0  0  0  0  0  0  0  0  0  0  0
  138.4377   68.5523  225.2186 H   0  0  0  0  0  0  0  0  0  0  0  0
  139.2458   68.6471  227.4295 H   0  0  0  0  0  0  0  0  0  0  0  0
  140.5439   69.7378  229.2538 H   0  0  0  0  0  0  0  0  0  0  0  0
  141.7192   71.8830  228.7559 H   0  0  0  0  0  0  0  0  0  0  0  0
  141.5952   72.9012  226.5044 H   0  0  0  0  0  0  0  0  0  0  0  0
  140.8064   72.8744  224.2105 H   0  0  0  0  0  0  0  0  0  0  0  0
  142.1644   74.6636  221.8264 H   0  0  0  0  0  0  0  0  0  0  0  0
  141.3041   75.3824  220.4364 H   0  0  0  0  0  0  0  0  0  0  0  0
  140.9040   76.1228  223.4008 H   0  0  0  0  0  0  0  0  0  0  0  0
  141.7275   77.1293  222.2026 H   0  0  0  0  0  0  0  0  0  0  0  0
  1  2  1  0
  2  3  1  0
  3  4  2  0
  3  5  1  0
  5  6  1  0
  6  7  2  0
  7  8  1  0
  8  9  2  0
  9 10  1  0
 10 11  2  0
  5 12  1  0
 12 13  1  0
 13 14  1  0
 14 15  1  0
 15 16  1  0
 16 17  2  0
 16 18  1  0
 18 19  1  0
 19 20  2  0
 20 21  1  0
 21 22  2  0
 22 23  1  0
 23 24  2  0
 24 25  1  0
 25 26  2  0
 26 27  1  0
 27 28  2  0
 15 29  1  0
 29 30  1  0
 11  6  1  0
 30 12  1  0
 28 19  1  0
 27 22  1  0
  1 31  1  0
  1 32  1  0
  1 33  1  0
  2 34  1  0
  2 35  1  0
  7 36  1  0
  8 37  1  0
  9 38  1  0
 10 39  1  0
 11 40  1  0
 12 41  1  0
 13 42  1  0
 13 43  1  0
 14 44  1  0
 14 45  1  0
 18 46  1  0
 18 47  1  0
 20 48  1  0
 21 49  1  0
 23 50  1  0
 24 51  1  0
 25 52  1  0
 26 53  1  0
 28 54  1  0
 29 55  1  0
 29 56  1  0
 30 57  1  0
 30 58  1  0
M  END
>  <smiles>  (16) 
CCC(=O)N(c1ccccc1)C1CCN(C(=O)Cc2ccc3ccccc3c2)CC1

>  <score_type>  (16) 
oracle

>  <origin>  (16) 
autodockgpu

>  <m_score__min__energy>  (16) 
-9.0999999999999996

>  <m_primary>  (16) 
energy

>  <rmsd>  (16) 
8.155146969440473

>  <m_score__min__rmsd>  (16) 
8.155146969440473

>  <meeko>  (16) 
{"free_energy": -9.01, "intermolecular_energy": -10.8, "internal_energy": -1.41, "cluster_size": 46, "cluster_id": 1, "rank_in_cluster": 18}

>  <energy>  (16) 
-9.01

>  <cluster_rmsd>  (16) 
0.69

>  <cluster>  (16) 
1

$$$$

     RDKit          3D

 58 61  0  0  0  0  0  0  0  0999 V2000
  138.0410   80.5480  224.3160 C   0  0  0  0  0  0  0  0  0  0  0  0
  138.1230   80.4810  222.7890 C   0  0  0  0  0  0  0  0  0  0  0  0
  138.2630   79.0940  222.3320 C   0  0  0  0  0  0  0  0  0  0  0  0
  137.1850   78.5290  221.9190 O   0  0  0  0  0  0  0  0  0  0  0  0
  139.4210   78.3040  222.2850 N   0  0  0  0  0  0  0  0  0  0  0  0
  140.6530   79.0350  222.6010 C   0  0  0  0  0  0  0  0  0  0  0  0
  141.0930   79.0920  223.9100 C   0  0  0  0  0  0  0  0  0  0  0  0
  142.2710   79.7970  224.1770 C   0  0  0  0  0  0  0  0  0  0  0  0
  142.9620   80.4150  223.1450 C   0  0  0  0  0  0  0  0  0  0  0  0
  142.4960   80.3410  221.8460 C   0  0  0  0  0  0  0  0  0  0  0  0
  141.3240   79.6420  221.5590 C   0  0  0  0  0  0  0  0  0  0  0  0
  139.5770   76.9360  221.9820 C   0  0  0  0  0  0  0  0  0  0  0  0
  138.5810   76.0280  222.7190 C   0  0  0  0  0  0  0  0  0  0  0  0
  138.6250   74.6760  222.0130 C   0  0  0  0  0  0  0  0  0  0  0  0
  140.0000   74.2380  221.8320 N   0  0  0  0  0  0  0  0  0  0  0  0
  140.2720   72.8300  221.9820 C   0  0  0  0  0  0  0  0  0  0  0  0
  141.4480   72.3720  221.8390 O   0  0  0  0  0  0  0  0  0  0  0  0
  139.2130   71.8610  222.3060 C   0  0  0  0  0  0  0  0  0  0  0  0
  139.6130   71.1550  223.5520 C   0  0  0  0  0  0  0  0  0  0  0  0
  140.4430   71.8570  224.4300 C   0  0  0  0  0  0  0  0  0  0  0  0
  140.8840   71.3170  225.6150 C   0  0  0  0  0  0  0  0  0  0  0  0
  140.4720   70.0350  225.9170 C   0  0  0  0  0  0  0  0  0  0  0  0
  140.8970   69.4650  227.1010 C   0  0  0  0  0  0  0  0  0  0  0  0
  140.5250   68.1830  227.4710 C   0  0  0  0  0  0  0  0  0  0  0  0
  139.7020   67.4810  226.6060 C   0  0  0  0  0  0  0  0  0  0  0  0
  139.2660   68.0390  225.4120 C   0  0  0  0  0  0  0  0  0  0  0  0
  139.6490   69.3290  225.0560 C   0  0  0  0  0  0  0  0  0  0  0  0
  139.2020   69.8750  223.8530 C   0  0  0  0  0  0  0  0  0  0  0  0
  141.0950   75.1100  221.5160 C   0  0  0  0  0  0  0  0  0  0  0  0
  140.9390   76.3820  222.3420 C   0  0  0  0  0  0  0  0  0  0  0  0
  138.8226   79.9095  224.7535 H   0  0  0  0  0  0  0  0  0  0  0  0
  138.1890   81.5869  224.6459 H   0  0  0  0  0  0  0  0  0  0  0  0
  137.0525   80.1958  224.6459 H   0  0  0  0  0  0  0  0  0  0  0  0
  137.2057   80.9106  222.3600 H   0  0  0  0  0  0  0  0  0  0  0  0
  139.0048   81.0501  222.4594 H   0  0  0  0  0  0  0  0  0  0  0  0
  140.5334   78.5976  224.7177 H   0  0  0  0  0  0  0  0  0  0  0  0
  142.6504   79.8616  225.2075 H   0  0  0  0  0  0  0  0  0  0  0  0
  143.8877   80.9681  223.3622 H   0  0  0  0  0  0  0  0  0  0  0  0
  143.0516   80.8353  221.0355 H   0  0  0  0  0  0  0  0  0  0  0  0
  140.9442   79.5761  220.5288 H   0  0  0  0  0  0  0  0  0  0  0  0
  139.4129   76.9205  220.8944 H   0  0  0  0  0  0  0  0  0  0  0  0
  138.8760   75.9165  223.7728 H   0  0  0  0  0  0  0  0  0  0  0  0
  137.5667   76.4532  222.7023 H   0  0  0  0  0  0  0  0  0  0  0  0
  138.0859   73.9335  222.6197 H   0  0  0  0  0  0  0  0  0  0  0  0
  138.1515   74.7760  221.0252 H   0  0  0  0  0  0  0  0  0  0  0  0
  138.2594   72.3864  222.4626 H   0  0  0  0  0  0  0  0  0  0  0  0
  139.0810   71.1442  221.4821 H   0  0  0  0  0  0  0  0  0  0  0  0
  140.7546   72.8778  224.1637 H   0  0  0  0  0  0  0  0  0  0  0  0
  141.5381   71.8834  226.2942 H   0  0  0  0  0  0  0  0  0  0  0  0
  141.5497   70.0457  227.7694 H   0  0  0  0  0  0  0  0  0  0  0  0
  140.8703   67.7391  228.4164 H   0  0  0  0  0  0  0  0  0  0  0  0
  139.3875   66.4607  226.8705 H   0  0  0  0  0  0  0  0  0  0  0  0
  138.6139   67.4582  224.7431 H   0  0  0  0  0  0  0  0  0  0  0  0
  138.5490   69.3077  223.1734 H   0  0  0  0  0  0  0  0  0  0  0  0
  142.0472   74.6183  221.7642 H   0  0  0  0  0  0  0  0  0  0  0  0
  141.0947   75.3495  220.4424 H   0  0  0  0  0  0  0  0  0  0  0  0
  140.9878   76.1507  223.4163 H   0  0  0  0  0  0  0  0  0  0  0  0
  141.7411   77.1048  222.1321 H   0  0  0  0  0  0  0  0  0  0  0  0
  1  2  1  0
  2  3  1  0
  3  4  2  0
  3  5  1  0
  5  6  1  0
  6  7  2  0
  7  8  1  0
  8  9  2  0
  9 10  1  0
 10 11  2  0
  5 12  1  0
 12 13  1  0
 13 14  1  0
 14 15  1  0
 15 16  1  0
 16 17  2  0
 16 18  1  0
 18 19  1  0
 19 20  2  0
 20 21  1  0
 21 22  2  0
 22 23  1  0
 23 24  2  0
 24 25  1  0
 25 26  2  0
 26 27  1  0
 27 28  2  0
 15 29  1  0
 29 30  1  0
 11  6  1  0
 30 12  1  0
 28 19  1  0
 27 22  1  0
  1 31  1  0
  1 32  1  0
  1 33  1  0
  2 34  1  0
  2 35  1  0
  7 36  1  0
  8 37  1  0
  9 38  1  0
 10 39  1  0
 11 40  1  0
 12 41  1  0
 13 42  1  0
 13 43  1  0
 14 44  1  0
 14 45  1  0
 18 46  1  0
 18 47  1  0
 20 48  1  0
 21 49  1  0
 23 50  1  0
 24 51  1  0
 25 52  1  0
 26 53  1  0
 28 54  1  0
 29 55  1  0
 29 56  1  0
 30 57  1  0
 30 58  1  0
M  END
>  <smiles>  (17) 
CCC(=O)N(c1ccccc1)C1CCN(C(=O)Cc2ccc3ccccc3c2)CC1

>  <score_type>  (17) 
oracle

>  <origin>  (17) 
autodockgpu

>  <m_score__min__energy>  (17) 
-9.0999999999999996

>  <m_primary>  (17) 
energy

>  <rmsd>  (17) 
9.612945375831478

>  <m_score__min__rmsd>  (17) 
9.612945375831478

>  <meeko>  (17) 
{"free_energy": -9.01, "intermolecular_energy": -10.8, "internal_energy": -1.39, "cluster_size": 46, "cluster_id": 1, "rank_in_cluster": 16}

>  <energy>  (17) 
-9.01

>  <cluster_rmsd>  (17) 
0.26

>  <cluster>  (17) 
1

$$$$

     RDKit          3D

 58 61  0  0  0  0  0  0  0  0999 V2000
  142.5730   79.8010  217.8900 C   0  0  0  0  0  0  0  0  0  0  0  0
  142.3890   78.4260  218.5350 C   0  0  0  0  0  0  0  0  0  0  0  0
  141.1800   78.3930  219.3650 C   0  0  0  0  0  0  0  0  0  0  0  0
  140.0960   78.7800  218.7920 O   0  0  0  0  0  0  0  0  0  0  0  0
  141.0520   77.9940  220.7040 N   0  0  0  0  0  0  0  0  0  0  0  0
  141.4640   79.0170  221.6720 C   0  0  0  0  0  0  0  0  0  0  0  0
  141.7690   78.6440  222.9670 C   0  0  0  0  0  0  0  0  0  0  0  0
  142.1590   79.6430  223.8640 C   0  0  0  0  0  0  0  0  0  0  0  0
  142.2310   80.9640  223.4470 C   0  0  0  0  0  0  0  0  0  0  0  0
  141.9190   81.3060  222.1450 C   0  0  0  0  0  0  0  0  0  0  0  0
  141.5290   80.3240  221.2350 C   0  0  0  0  0  0  0  0  0  0  0  0
  140.5960   76.7760  221.2500 C   0  0  0  0  0  0  0  0  0  0  0  0
  141.4050   75.5560  220.7860 C   0  0  0  0  0  0  0  0  0  0  0  0
  141.0450   74.4150  221.7330 C   0  0  0  0  0  0  0  0  0  0  0  0
  139.6030   74.3090  221.8810 N   0  0  0  0  0  0  0  0  0  0  0  0
  139.0430   72.9830  221.9840 C   0  0  0  0  0  0  0  0  0  0  0  0
  137.7910   72.8100  222.1140 O   0  0  0  0  0  0  0  0  0  0  0  0
  139.8830   71.7760  221.9400 C   0  0  0  0  0  0  0  0  0  0  0  0
  139.9370   71.2140  223.3160 C   0  0  0  0  0  0  0  0  0  0  0  0
  139.3580   69.9550  223.5000 C   0  0  0  0  0  0  0  0  0  0  0  0
  139.3400   69.3250  224.7220 C   0  0  0  0  0  0  0  0  0  0  0  0
  139.9250   69.9890  225.7830 C   0  0  0  0  0  0  0  0  0  0  0  0
  139.9240   69.3820  227.0240 C   0  0  0  0  0  0  0  0  0  0  0  0
  140.4910   69.9860  228.1330 C   0  0  0  0  0  0  0  0  0  0  0  0
  141.0670   71.2340  227.9590 C   0  0  0  0  0  0  0  0  0  0  0  0
  141.0760   71.8570  226.7180 C   0  0  0  0  0  0  0  0  0  0  0  0
  140.5020   71.2350  225.6130 C   0  0  0  0  0  0  0  0  0  0  0  0
  140.5200   71.8750  224.3740 C   0  0  0  0  0  0  0  0  0  0  0  0
  138.7070   75.4280  221.9320 C   0  0  0  0  0  0  0  0  0  0  0  0
  139.1630   76.4460  220.8930 C   0  0  0  0  0  0  0  0  0  0  0  0
  142.6751   80.5639  218.6758 H   0  0  0  0  0  0  0  0  0  0  0  0
  143.4783   79.7947  217.2652 H   0  0  0  0  0  0  0  0  0  0  0  0
  141.6979   80.0330  217.2652 H   0  0  0  0  0  0  0  0  0  0  0  0
  142.3035   77.6661  217.7443 H   0  0  0  0  0  0  0  0  0  0  0  0
  143.2595   78.2194  219.1749 H   0  0  0  0  0  0  0  0  0  0  0  0
  141.7068   77.5922  223.2829 H   0  0  0  0  0  0  0  0  0  0  0  0
  142.4093   79.3809  224.9026 H   0  0  0  0  0  0  0  0  0  0  0  0
  142.5387   81.7450  224.1579 H   0  0  0  0  0  0  0  0  0  0  0  0
  141.9785   82.3568  221.8252 H   0  0  0  0  0  0  0  0  0  0  0  0
  141.2797   80.5846  220.1958 H   0  0  0  0  0  0  0  0  0  0  0  0
  140.7091   76.9500  222.3302 H   0  0  0  0  0  0  0  0  0  0  0  0
  141.1362   75.2919  219.7526 H   0  0  0  0  0  0  0  0  0  0  0  0
  142.4851   75.7634  220.8039 H   0  0  0  0  0  0  0  0  0  0  0  0
  141.4372   73.4708  221.3271 H   0  0  0  0  0  0  0  0  0  0  0  0
  141.4887   74.6187  222.7187 H   0  0  0  0  0  0  0  0  0  0  0  0
  139.4446   71.0391  221.2510 H   0  0  0  0  0  0  0  0  0  0  0  0
  140.8942   72.0224  221.5839 H   0  0  0  0  0  0  0  0  0  0  0  0
  138.9005   69.4503  222.6363 H   0  0  0  0  0  0  0  0  0  0  0  0
  138.8793   68.3343  224.8495 H   0  0  0  0  0  0  0  0  0  0  0  0
  139.4596   68.3909  227.1340 H   0  0  0  0  0  0  0  0  0  0  0  0
  140.4845   69.4932  229.1164 H   0  0  0  0  0  0  0  0  0  0  0  0
  141.5260   71.7411  228.8205 H   0  0  0  0  0  0  0  0  0  0  0  0
  141.5397   72.8484  226.6075 H   0  0  0  0  0  0  0  0  0  0  0  0
  140.9805   72.8659  224.2473 H   0  0  0  0  0  0  0  0  0  0  0  0
  137.6829   75.0966  221.7052 H   0  0  0  0  0  0  0  0  0  0  0  0
  138.7148   75.8777  222.9359 H   0  0  0  0  0  0  0  0  0  0  0  0
  139.1084   76.0145  219.8826 H   0  0  0  0  0  0  0  0  0  0  0  0
  138.5259   77.3427  220.8941 H   0  0  0  0  0  0  0  0  0  0  0  0
  1  2  1  0
  2  3  1  0
  3  4  2  0
  3  5  1  0
  5  6  1  0
  6  7  2  0
  7  8  1  0
  8  9  2  0
  9 10  1  0
 10 11  2  0
  5 12  1  0
 12 13  1  0
 13 14  1  0
 14 15  1  0
 15 16  1  0
 16 17  2  0
 16 18  1  0
 18 19  1  0
 19 20  2  0
 20 21  1  0
 21 22  2  0
 22 23  1  0
 23 24  2  0
 24 25  1  0
 25 26  2  0
 26 27  1  0
 27 28  2  0
 15 29  1  0
 29 30  1  0
 11  6  1  0
 30 12  1  0
 28 19  1  0
 27 22  1  0
  1 31  1  0
  1 32  1  0
  1 33  1  0
  2 34  1  0
  2 35  1  0
  7 36  1  0
  8 37  1  0
  9 38  1  0
 10 39  1  0
 11 40  1  0
 12 41  1  0
 13 42  1  0
 13 43  1  0
 14 44  1  0
 14 45  1  0
 18 46  1  0
 18 47  1  0
 20 48  1  0
 21 49  1  0
 23 50  1  0
 24 51  1  0
 25 52  1  0
 26 53  1  0
 28 54  1  0
 29 55  1  0
 29 56  1  0
 30 57  1  0
 30 58  1  0
M  END
>  <smiles>  (18) 
CCC(=O)N(c1ccccc1)C1CCN(C(=O)Cc2ccc3ccccc3c2)CC1

>  <score_type>  (18) 
oracle

>  <origin>  (18) 
autodockgpu

>  <m_score__min__energy>  (18) 
-9.0999999999999996

>  <m_primary>  (18) 
energy

>  <rmsd>  (18) 
8.120596342339386

>  <m_score__min__rmsd>  (18) 
8.120596342339386

>  <meeko>  (18) 
{"free_energy": -8.8, "intermolecular_energy": -10.59, "internal_energy": -1.47, "cluster_size": 4, "cluster_id": 2, "rank_in_cluster": 3}

>  <energy>  (18) 
-9.01

>  <cluster_rmsd>  (18) 
0.24

>  <cluster>  (18) 
1

$$$$

     RDKit          3D

 58 61  0  0  0  0  0  0  0  0999 V2000
  142.5530   79.3480  217.8730 C   0  0  0  0  0  0  0  0  0  0  0  0
  141.5320   78.3610  218.4420 C   0  0  0  0  0  0  0  0  0  0  0  0
  142.1030   77.5980  219.5570 C   0  0  0  0  0  0  0  0  0  0  0  0
  143.2560   77.0710  219.3420 O   0  0  0  0  0  0  0  0  0  0  0  0
  141.5570   77.3690  220.8280 N   0  0  0  0  0  0  0  0  0  0  0  0
  141.6720   78.5130  221.7390 C   0  0  0  0  0  0  0  0  0  0  0  0
  142.0050   79.7560  221.2330 C   0  0  0  0  0  0  0  0  0  0  0  0
  142.1060   80.8240  222.1290 C   0  0  0  0  0  0  0  0  0  0  0  0
  141.8760   80.6230  223.4810 C   0  0  0  0  0  0  0  0  0  0  0  0
  141.5460   79.3690  223.9580 C   0  0  0  0  0  0  0  0  0  0  0  0
  141.4390   78.2900  223.0810 C   0  0  0  0  0  0  0  0  0  0  0  0
  140.9250   76.2240  221.3540 C   0  0  0  0  0  0  0  0  0  0  0  0
  141.5810   74.9070  220.9150 C   0  0  0  0  0  0  0  0  0  0  0  0
  141.0410   73.8240  221.8450 C   0  0  0  0  0  0  0  0  0  0  0  0
  139.5930   73.9090  221.9420 N   0  0  0  0  0  0  0  0  0  0  0  0
  138.8590   72.6690  222.0200 C   0  0  0  0  0  0  0  0  0  0  0  0
  137.5920   72.6630  222.1060 O   0  0  0  0  0  0  0  0  0  0  0  0
  139.5340   71.3620  222.0030 C   0  0  0  0  0  0  0  0  0  0  0  0
  139.6880   70.9150  223.4120 C   0  0  0  0  0  0  0  0  0  0  0  0
  139.1830   69.6510  223.7280 C   0  0  0  0  0  0  0  0  0  0  0  0
  139.2620   69.1220  224.9940 C   0  0  0  0  0  0  0  0  0  0  0  0
  139.8690   69.8940  225.9640 C   0  0  0  0  0  0  0  0  0  0  0  0
  139.9640   69.3900  227.2470 C   0  0  0  0  0  0  0  0  0  0  0  0
  140.5590   70.1060  228.2720 C   0  0  0  0  0  0  0  0  0  0  0  0
  141.0620   71.3610  227.9680 C   0  0  0  0  0  0  0  0  0  0  0  0
  140.9740   71.8820  226.6840 C   0  0  0  0  0  0  0  0  0  0  0  0
  140.3740   71.1480  225.6660 C   0  0  0  0  0  0  0  0  0  0  0  0
  140.2940   71.6860  224.3810 C   0  0  0  0  0  0  0  0  0  0  0  0
  138.8510   75.1380  221.9640 C   0  0  0  0  0  0  0  0  0  0  0  0
  139.4740   76.0840  220.9450 C   0  0  0  0  0  0  0  0  0  0  0  0
  143.0750   79.8527  218.6993 H   0  0  0  0  0  0  0  0  0  0  0  0
  143.2833   78.8048  217.2553 H   0  0  0  0  0  0  0  0  0  0  0  0
  142.0348   80.0963  217.2553 H   0  0  0  0  0  0  0  0  0  0  0  0
  140.6538   78.9183  218.8000 H   0  0  0  0  0  0  0  0  0  0  0  0
  141.2442   77.6573  217.6470 H   0  0  0  0  0  0  0  0  0  0  0  0
  142.1851   79.9000  220.1574 H   0  0  0  0  0  0  0  0  0  0  0  0
  142.3687   81.8265  221.7603 H   0  0  0  0  0  0  0  0  0  0  0  0
  141.9569   81.4687  224.1798 H   0  0  0  0  0  0  0  0  0  0  0  0
  141.3671   79.2212  225.0332 H   0  0  0  0  0  0  0  0  0  0  0  0
  141.1758   77.2874  223.4492 H   0  0  0  0  0  0  0  0  0  0  0  0
  141.0216   76.3849  222.4379 H   0  0  0  0  0  0  0  0  0  0  0  0
  141.3158   74.6793  219.8720 H   0  0  0  0  0  0  0  0  0  0  0  0
  142.6777   74.9701  220.9718 H   0  0  0  0  0  0  0  0  0  0  0  0
  141.3196   72.8360  221.4497 H   0  0  0  0  0  0  0  0  0  0  0  0
  141.4728   73.9684  222.8463 H   0  0  0  0  0  0  0  0  0  0  0  0
  138.9279   70.6345  221.4432 H   0  0  0  0  0  0  0  0  0  0  0  0
  140.5163   71.4419  221.5145 H   0  0  0  0  0  0  0  0  0  0  0  0
  138.7048   69.0578  222.9346 H   0  0  0  0  0  0  0  0  0  0  0  0
  138.8584   68.1251  225.2246 H   0  0  0  0  0  0  0  0  0  0  0  0
  139.5552   68.3913  227.4603 H   0  0  0  0  0  0  0  0  0  0  0  0
  140.6298   69.6940  229.2895 H   0  0  0  0  0  0  0  0  0  0  0  0
  141.5405   71.9562  228.7597 H   0  0  0  0  0  0  0  0  0  0  0  0
  141.3812   72.8813  226.4705 H   0  0  0  0  0  0  0  0  0  0  0  0
  140.6974   72.6831  224.1509 H   0  0  0  0  0  0  0  0  0  0  0  0
  137.8008   74.9445  221.7001 H   0  0  0  0  0  0  0  0  0  0  0  0
  138.8826   75.5848  222.9687 H   0  0  0  0  0  0  0  0  0  0  0  0
  139.3995   75.6608  219.9324 H   0  0  0  0  0  0  0  0  0  0  0  0
  138.9608   77.0567  220.9254 H   0  0  0  0  0  0  0  0  0  0  0  0
  1  2  1  0
  2  3  1  0
  3  4  2  0
  3  5  1  0
  5  6  1  0
  6  7  2  0
  7  8  1  0
  8  9  2  0
  9 10  1  0
 10 11  2  0
  5 12  1  0
 12 13  1  0
 13 14  1  0
 14 15  1  0
 15 16  1  0
 16 17  2  0
 16 18  1  0
 18 19  1  0
 19 20  2  0
 20 21  1  0
 21 22  2  0
 22 23  1  0
 23 24  2  0
 24 25  1  0
 25 26  2  0
 26 27  1  0
 27 28  2  0
 15 29  1  0
 29 30  1  0
 11  6  1  0
 30 12  1  0
 28 19  1  0
 27 22  1  0
  1 31  1  0
  1 32  1  0
  1 33  1  0
  2 34  1  0
  2 35  1  0
  7 36  1  0
  8 37  1  0
  9 38  1  0
 10 39  1  0
 11 40  1  0
 12 41  1  0
 13 42  1  0
 13 43  1  0
 14 44  1  0
 14 45  1  0
 18 46  1  0
 18 47  1  0
 20 48  1  0
 21 49  1  0
 23 50  1  0
 24 51  1  0
 25 52  1  0
 26 53  1  0
 28 54  1  0
 29 55  1  0
 29 56  1  0
 30 57  1  0
 30 58  1  0
M  END
>  <smiles>  (19) 
CCC(=O)N(c1ccccc1)C1CCN(C(=O)Cc2ccc3ccccc3c2)CC1

>  <score_type>  (19) 
oracle

>  <origin>  (19) 
autodockgpu

>  <m_score__min__energy>  (19) 
-9.0999999999999996

>  <m_primary>  (19) 
energy

>  <rmsd>  (19) 
8.209455696537612

>  <m_score__min__rmsd>  (19) 
8.209455696537612

>  <meeko>  (19) 
{"free_energy": -8.97, "intermolecular_energy": -10.76, "internal_energy": -1.44, "cluster_size": 4, "cluster_id": 2, "rank_in_cluster": 1}

>  <energy>  (19) 
-8.99

>  <cluster_rmsd>  (19) 
0.6

>  <cluster>  (19) 
1

$$$$

     RDKit          3D

 58 61  0  0  0  0  0  0  0  0999 V2000
  143.3720   76.4890  219.3420 C   0  0  0  0  0  0  0  0  0  0  0  0
  142.4810   77.5890  218.7630 C   0  0  0  0  0  0  0  0  0  0  0  0
  141.2790   77.7780  219.5830 C   0  0  0  0  0  0  0  0  0  0  0  0
  140.3010   78.3850  219.0110 O   0  0  0  0  0  0  0  0  0  0  0  0
  141.0570   77.3800  220.9090 N   0  0  0  0  0  0  0  0  0  0  0  0
  141.4760   78.3730  221.9060 C   0  0  0  0  0  0  0  0  0  0  0  0
  141.4100   78.0580  223.2500 C   0  0  0  0  0  0  0  0  0  0  0  0
  141.8170   79.0270  224.1720 C   0  0  0  0  0  0  0  0  0  0  0  0
  142.2690   80.2610  223.7320 C   0  0  0  0  0  0  0  0  0  0  0  0
  142.3230   80.5480  222.3810 C   0  0  0  0  0  0  0  0  0  0  0  0
  141.9230   79.5950  221.4450 C   0  0  0  0  0  0  0  0  0  0  0  0
  140.5030   76.1890  221.4220 C   0  0  0  0  0  0  0  0  0  0  0  0
  141.2810   74.9290  221.0160 C   0  0  0  0  0  0  0  0  0  0  0  0
  140.7980   73.8100  221.9350 C   0  0  0  0  0  0  0  0  0  0  0  0
  139.3460   73.7760  221.9800 N   0  0  0  0  0  0  0  0  0  0  0  0
  138.7140   72.4800  222.0420 C   0  0  0  0  0  0  0  0  0  0  0  0
  137.4490   72.3710  222.0840 O   0  0  0  0  0  0  0  0  0  0  0  0
  139.4940   71.2330  222.0590 C   0  0  0  0  0  0  0  0  0  0  0  0
  139.6660   70.8270  223.4790 C   0  0  0  0  0  0  0  0  0  0  0  0
  139.1750   69.5680  223.8340 C   0  0  0  0  0  0  0  0  0  0  0  0
  139.2720   69.0750  225.1140 C   0  0  0  0  0  0  0  0  0  0  0  0
  139.8820   69.8790  226.0560 C   0  0  0  0  0  0  0  0  0  0  0  0
  139.9940   69.4120  227.3510 C   0  0  0  0  0  0  0  0  0  0  0  0
  140.5930   70.1620  228.3490 C   0  0  0  0  0  0  0  0  0  0  0  0
  141.0830   71.4120  228.0050 C   0  0  0  0  0  0  0  0  0  0  0  0
  140.9770   71.8950  226.7080 C   0  0  0  0  0  0  0  0  0  0  0  0
  140.3720   71.1280  225.7170 C   0  0  0  0  0  0  0  0  0  0  0  0
  140.2750   71.6300  224.4190 C   0  0  0  0  0  0  0  0  0  0  0  0
  138.5050   74.9390  221.9670 C   0  0  0  0  0  0  0  0  0  0  0  0
  139.0840   75.9290  220.9630 C   0  0  0  0  0  0  0  0  0  0  0  0
  143.3385   76.5304  220.4407 H   0  0  0  0  0  0  0  0  0  0  0  0
  143.0112   75.5074  219.0009 H   0  0  0  0  0  0  0  0  0  0  0  0
  144.4071   76.6380  219.0009 H   0  0  0  0  0  0  0  0  0  0  0  0
  143.0473   78.5315  218.7321 H   0  0  0  0  0  0  0  0  0  0  0  0
  142.1712   77.2922  217.7501 H   0  0  0  0  0  0  0  0  0  0  0  0
  141.0481   77.0745  223.5843 H   0  0  0  0  0  0  0  0  0  0  0  0
  141.7784   78.8094  225.2496 H   0  0  0  0  0  0  0  0  0  0  0  0
  142.5873   81.0181  224.4638 H   0  0  0  0  0  0  0  0  0  0  0  0
  142.6826   81.5311  222.0432 H   0  0  0  0  0  0  0  0  0  0  0  0
  141.9626   79.8113  220.3672 H   0  0  0  0  0  0  0  0  0  0  0  0
  140.5470   76.3612  222.5075 H   0  0  0  0  0  0  0  0  0  0  0  0
  141.0733   74.6754  219.9660 H   0  0  0  0  0  0  0  0  0  0  0  0
  142.3662   75.0824  221.1105 H   0  0  0  0  0  0  0  0  0  0  0  0
  141.1707   72.8462  221.5578 H   0  0  0  0  0  0  0  0  0  0  0  0
  141.1800   73.9948  222.9498 H   0  0  0  0  0  0  0  0  0  0  0  0
  138.9569   70.4475  221.5072 H   0  0  0  0  0  0  0  0  0  0  0  0
  140.4727   71.3841  221.5801 H   0  0  0  0  0  0  0  0  0  0  0  0
  138.6938   68.9493  223.0622 H   0  0  0  0  0  0  0  0  0  0  0  0
  138.8799   68.0813  225.3764 H   0  0  0  0  0  0  0  0  0  0  0  0
  139.5962   68.4163  227.5964 H   0  0  0  0  0  0  0  0  0  0  0  0
  140.6769   69.7798  229.3770 H   0  0  0  0  0  0  0  0  0  0  0  0
  141.5650   72.0331  228.7744 H   0  0  0  0  0  0  0  0  0  0  0  0
  141.3740   72.8909  226.4618 H   0  0  0  0  0  0  0  0  0  0  0  0
  140.6676   72.6236  224.1572 H   0  0  0  0  0  0  0  0  0  0  0  0
  137.4844   74.6581  221.6679 H   0  0  0  0  0  0  0  0  0  0  0  0
  138.4637   75.3914  222.9688 H   0  0  0  0  0  0  0  0  0  0  0  0
  139.0804   75.4968  219.9515 H   0  0  0  0  0  0  0  0  0  0  0  0
  138.4938   76.8562  220.9180 H   0  0  0  0  0  0  0  0  0  0  0  0
  1  2  1  0
  2  3  1  0
  3  4  2  0
  3  5  1  0
  5  6  1  0
  6  7  2  0
  7  8  1  0
  8  9  2  0
  9 10  1  0
 10 11  2  0
  5 12  1  0
 12 13  1  0
 13 14  1  0
 14 15  1  0
 15 16  1  0
 16 17  2  0
 16 18  1  0
 18 19  1  0
 19 20  2  0
 20 21  1  0
 21 22  2  0
 22 23  1  0
 23 24  2  0
 24 25  1  0
 25 26  2  0
 26 27  1  0
 27 28  2  0
 15 29  1  0
 29 30  1  0
 11  6  1  0
 30 12  1  0
 28 19  1  0
 27 22  1  0
  1 31  1  0
  1 32  1  0
  1 33  1  0
  2 34  1  0
  2 35  1  0
  7 36  1  0
  8 37  1  0
  9 38  1  0
 10 39  1  0
 11 40  1  0
 12 41  1  0
 13 42  1  0
 13 43  1  0
 14 44  1  0
 14 45  1  0
 18 46  1  0
 18 47  1  0
 20 48  1  0
 21 49  1  0
 23 50  1  0
 24 51  1  0
 25 52  1  0
 26 53  1  0
 28 54  1  0
 29 55  1  0
 29 56  1  0
 30 57  1  0
 30 58  1  0
M  END
>  <smiles>  (20) 
CCC(=O)N(c1ccccc1)C1CCN(C(=O)Cc2ccc3ccccc3c2)CC1

>  <score_type>  (20) 
oracle

>  <origin>  (20) 
autodockgpu

>  <m_score__min__energy>  (20) 
-9.0999999999999996

>  <m_primary>  (20) 
energy

>  <rmsd>  (20) 
8.256750824645154

>  <m_score__min__rmsd>  (20) 
8.256750824645154

>  <meeko>  (20) 
{"free_energy": -8.96, "intermolecular_energy": -10.75, "internal_energy": -1.5, "cluster_size": 46, "cluster_id": 1, "rank_in_cluster": 25}

>  <energy>  (20) 
-8.99

>  <cluster_rmsd>  (20) 
0.5

>  <cluster>  (20) 
1

$$$$

     RDKit          3D

 58 61  0  0  0  0  0  0  0  0999 V2000
  142.5570   80.2970  218.2130 C   0  0  0  0  0  0  0  0  0  0  0  0
  141.5680   79.1380  218.3610 C   0  0  0  0  0  0  0  0  0  0  0  0
  142.0440   78.1640  219.3500 C   0  0  0  0  0  0  0  0  0  0  0  0
  143.0350   77.4320  218.9820 O   0  0  0  0  0  0  0  0  0  0  0  0
  141.5610   77.9290  220.6450 N   0  0  0  0  0  0  0  0  0  0  0  0
  141.6670   79.0890  221.5380 C   0  0  0  0  0  0  0  0  0  0  0  0
  142.5650   79.0580  222.5880 C   0  0  0  0  0  0  0  0  0  0  0  0
  142.6410   80.1800  223.4200 C   0  0  0  0  0  0  0  0  0  0  0  0
  141.8300   81.2790  223.1830 C   0  0  0  0  0  0  0  0  0  0  0  0
  140.9410   81.2800  222.1250 C   0  0  0  0  0  0  0  0  0  0  0  0
  140.8500   80.1720  221.2830 C   0  0  0  0  0  0  0  0  0  0  0  0
  140.9990   76.7660  221.2090 C   0  0  0  0  0  0  0  0  0  0  0  0
  141.5860   75.4650  220.6410 C   0  0  0  0  0  0  0  0  0  0  0  0
  141.1690   74.3500  221.5960 C   0  0  0  0  0  0  0  0  0  0  0  0
  139.7470   74.4320  221.8860 N   0  0  0  0  0  0  0  0  0  0  0  0
  139.0250   73.1890  222.0170 C   0  0  0  0  0  0  0  0  0  0  0  0
  137.7800   73.1800  222.2690 O   0  0  0  0  0  0  0  0  0  0  0  0
  139.6860   71.8840  221.8650 C   0  0  0  0  0  0  0  0  0  0  0  0
  139.7860   71.2690  223.2150 C   0  0  0  0  0  0  0  0  0  0  0  0
  139.2090   70.0060  223.3720 C   0  0  0  0  0  0  0  0  0  0  0  0
  139.2330   69.3290  224.5690 C   0  0  0  0  0  0  0  0  0  0  0  0
  139.8590   69.9500  225.6320 C   0  0  0  0  0  0  0  0  0  0  0  0
  139.9010   69.2960  226.8480 C   0  0  0  0  0  0  0  0  0  0  0  0
  140.5100   69.8550  227.9580 C   0  0  0  0  0  0  0  0  0  0  0  0
  141.0850   71.1070  227.8110 C   0  0  0  0  0  0  0  0  0  0  0  0
  141.0520   71.7770  226.5960 C   0  0  0  0  0  0  0  0  0  0  0  0
  140.4350   71.2000  225.4890 C   0  0  0  0  0  0  0  0  0  0  0  0
  140.4110   71.8870  224.2760 C   0  0  0  0  0  0  0  0  0  0  0  0
  139.0190   75.6580  222.0500 C   0  0  0  0  0  0  0  0  0  0  0  0
  139.5070   76.6410  220.9910 C   0  0  0  0  0  0  0  0  0  0  0  0
  142.8590   80.6509  219.2098 H   0  0  0  0  0  0  0  0  0  0  0  0
  143.4446   79.9535  217.6614 H   0  0  0  0  0  0  0  0  0  0  0  0
  142.0782   81.1195  217.6614 H   0  0  0  0  0  0  0  0  0  0  0  0
  140.5949   79.5347  218.6862 H   0  0  0  0  0  0  0  0  0  0  0  0
  141.4724   78.6323  217.3888 H   0  0  0  0  0  0  0  0  0  0  0  0
  143.2007   78.1778  222.7642 H   0  0  0  0  0  0  0  0  0  0  0  0
  143.3460   80.1902  224.2643 H   0  0  0  0  0  0  0  0  0  0  0  0
  141.8946   82.1572  223.8423 H   0  0  0  0  0  0  0  0  0  0  0  0
  140.3028   82.1579  221.9463 H   0  0  0  0  0  0  0  0  0  0  0  0
  140.1458   80.1614  220.4380 H   0  0  0  0  0  0  0  0  0  0  0  0
  141.2385   76.8878  222.2757 H   0  0  0  0  0  0  0  0  0  0  0  0
  141.1843   75.2740  219.6349 H   0  0  0  0  0  0  0  0  0  0  0  0
  142.6808   75.5265  220.5542 H   0  0  0  0  0  0  0  0  0  0  0  0
  141.3883   73.3765  221.1333 H   0  0  0  0  0  0  0  0  0  0  0  0
  141.7301   74.4588  222.5358 H   0  0  0  0  0  0  0  0  0  0  0  0
  139.0920   71.2379  221.2019 H   0  0  0  0  0  0  0  0  0  0  0  0
  140.6854   72.0072  221.4223 H   0  0  0  0  0  0  0  0  0  0  0  0
  138.7179   69.5363  222.5070 H   0  0  0  0  0  0  0  0  0  0  0  0
  138.7732   68.3354  224.6752 H   0  0  0  0  0  0  0  0  0  0  0  0
  139.4372   68.3025  226.9366 H   0  0  0  0  0  0  0  0  0  0  0  0
  140.5365   69.3248  228.9214 H   0  0  0  0  0  0  0  0  0  0  0  0
  141.5772   71.5791  228.6740 H   0  0  0  0  0  0  0  0  0  0  0  0
  141.5162   72.7702  226.5069 H   0  0  0  0  0  0  0  0  0  0  0  0
  140.8715   72.8804  224.1706 H   0  0  0  0  0  0  0  0  0  0  0  0
  137.9425   75.4732  221.9200 H   0  0  0  0  0  0  0  0  0  0  0  0
  139.1836   76.0684  223.0572 H   0  0  0  0  0  0  0  0  0  0  0  0
  139.2973   76.2546  219.9827 H   0  0  0  0  0  0  0  0  0  0  0  0
  139.0005   77.6139  221.0743 H   0  0  0  0  0  0  0  0  0  0  0  0
  1  2  1  0
  2  3  1  0
  3  4  2  0
  3  5  1  0
  5  6  1  0
  6  7  2  0
  7  8  1  0
  8  9  2  0
  9 10  1  0
 10 11  2  0
  5 12  1  0
 12 13  1  0
 13 14  1  0
 14 15  1  0
 15 16  1  0
 16 17  2  0
 16 18  1  0
 18 19  1  0
 19 20  2  0
 20 21  1  0
 21 22  2  0
 22 23  1  0
 23 24  2  0
 24 25  1  0
 25 26  2  0
 26 27  1  0
 27 28  2  0
 15 29  1  0
 29 30  1  0
 11  6  1  0
 30 12  1  0
 28 19  1  0
 27 22  1  0
  1 31  1  0
  1 32  1  0
  1 33  1  0
  2 34  1  0
  2 35  1  0
  7 36  1  0
  8 37  1  0
  9 38  1  0
 10 39  1  0
 11 40  1  0
 12 41  1  0
 13 42  1  0
 13 43  1  0
 14 44  1  0
 14 45  1  0
 18 46  1  0
 18 47  1  0
 20 48  1  0
 21 49  1  0
 23 50  1  0
 24 51  1  0
 25 52  1  0
 26 53  1  0
 28 54  1  0
 29 55  1  0
 29 56  1  0
 30 57  1  0
 30 58  1  0
M  END
>  <smiles>  (21) 
CCC(=O)N(c1ccccc1)C1CCN(C(=O)Cc2ccc3ccccc3c2)CC1

>  <score_type>  (21) 
oracle

>  <origin>  (21) 
autodockgpu

>  <m_score__min__energy>  (21) 
-9.0999999999999996

>  <m_primary>  (21) 
energy

>  <rmsd>  (21) 
8.077171653193695

>  <m_score__min__rmsd>  (21) 
8.077171653193695

>  <meeko>  (21) 
{"free_energy": -8.75, "intermolecular_energy": -10.54, "internal_energy": -1.43, "cluster_size": 4, "cluster_id": 2, "rank_in_cluster": 4}

>  <energy>  (21) 
-8.98

>  <cluster_rmsd>  (21) 
0.85

>  <cluster>  (21) 
1

$$$$

     RDKit          3D

 58 61  0  0  0  0  0  0  0  0999 V2000
  142.9220   77.3360  217.2330 C   0  0  0  0  0  0  0  0  0  0  0  0
  142.0270   77.8160  218.3770 C   0  0  0  0  0  0  0  0  0  0  0  0
  142.4430   77.2230  219.6530 C   0  0  0  0  0  0  0  0  0  0  0  0
  143.6420   76.7610  219.6910 O   0  0  0  0  0  0  0  0  0  0  0  0
  141.7040   77.0950  220.8380 N   0  0  0  0  0  0  0  0  0  0  0  0
  141.6510   78.3230  221.6400 C   0  0  0  0  0  0  0  0  0  0  0  0
  141.4350   78.2370  223.0030 C   0  0  0  0  0  0  0  0  0  0  0  0
  141.3910   79.4260  223.7370 C   0  0  0  0  0  0  0  0  0  0  0  0
  141.5600   80.6450  223.0990 C   0  0  0  0  0  0  0  0  0  0  0  0
  141.7740   80.7000  221.7350 C   0  0  0  0  0  0  0  0  0  0  0  0
  141.8220   79.5260  220.9850 C   0  0  0  0  0  0  0  0  0  0  0  0
  141.0170   75.9840  221.3670 C   0  0  0  0  0  0  0  0  0  0  0  0
  141.6140   74.6350  220.9390 C   0  0  0  0  0  0  0  0  0  0  0  0
  141.0200   73.5840  221.8720 C   0  0  0  0  0  0  0  0  0  0  0  0
  139.5760   73.7370  221.9620 N   0  0  0  0  0  0  0  0  0  0  0  0
  138.7860   72.5330  222.0430 C   0  0  0  0  0  0  0  0  0  0  0  0
  137.5190   72.5870  222.1230 O   0  0  0  0  0  0  0  0  0  0  0  0
  139.3990   71.1960  222.0360 C   0  0  0  0  0  0  0  0  0  0  0  0
  139.6070   70.7880  223.4500 C   0  0  0  0  0  0  0  0  0  0  0  0
  139.1630   69.5110  223.8050 C   0  0  0  0  0  0  0  0  0  0  0  0
  139.2960   69.0140  225.0800 C   0  0  0  0  0  0  0  0  0  0  0  0
  139.8950   69.8320  226.0180 C   0  0  0  0  0  0  0  0  0  0  0  0
  140.0430   69.3610  227.3070 C   0  0  0  0  0  0  0  0  0  0  0  0
  140.6340   70.1230  228.3010 C   0  0  0  0  0  0  0  0  0  0  0  0
  141.0770   71.3910  227.9580 C   0  0  0  0  0  0  0  0  0  0  0  0
  140.9350   71.8780  226.6660 C   0  0  0  0  0  0  0  0  0  0  0  0
  140.3390   71.0980  225.6790 C   0  0  0  0  0  0  0  0  0  0  0  0
  140.2040   71.6040  224.3860 C   0  0  0  0  0  0  0  0  0  0  0  0
  138.8920   74.9990  221.9740 C   0  0  0  0  0  0  0  0  0  0  0  0
  139.5640   75.9100  220.9530 C   0  0  0  0  0  0  0  0  0  0  0  0
  143.8200   76.8544  217.6473 H   0  0  0  0  0  0  0  0  0  0  0  0
  142.3703   76.6127  216.6145 H   0  0  0  0  0  0  0  0  0  0  0  0
  143.2193   78.1957  216.6145 H   0  0  0  0  0  0  0  0  0  0  0  0
  142.0934   78.9115  218.4506 H   0  0  0  0  0  0  0  0  0  0  0  0
  140.9926   77.5065  218.1669 H   0  0  0  0  0  0  0  0  0  0  0  0
  141.3018   77.2623  223.4951 H   0  0  0  0  0  0  0  0  0  0  0  0
  141.2219   79.3942  224.8235 H   0  0  0  0  0  0  0  0  0  0  0  0
  141.5234   81.5762  223.6834 H   0  0  0  0  0  0  0  0  0  0  0  0
  141.9069   81.6731  221.2395 H   0  0  0  0  0  0  0  0  0  0  0  0
  141.9919   79.5574  219.8986 H   0  0  0  0  0  0  0  0  0  0  0  0
  141.1156   76.1461  222.4505 H   0  0  0  0  0  0  0  0  0  0  0  0
  141.3440   74.4136  219.8959 H   0  0  0  0  0  0  0  0  0  0  0  0
  142.7122   74.6478  221.0014 H   0  0  0  0  0  0  0  0  0  0  0  0
  141.2539   72.5819  221.4833 H   0  0  0  0  0  0  0  0  0  0  0  0
  141.4537   73.7139  222.8745 H   0  0  0  0  0  0  0  0  0  0  0  0
  138.7316   70.4803  221.5337 H   0  0  0  0  0  0  0  0  0  0  0  0
  140.3565   71.2135  221.4948 H   0  0  0  0  0  0  0  0  0  0  0  0
  138.6903   68.8813  223.0369 H   0  0  0  0  0  0  0  0  0  0  0  0
  138.9401   68.0067  225.3422 H   0  0  0  0  0  0  0  0  0  0  0  0
  139.6811   68.3515  227.5517 H   0  0  0  0  0  0  0  0  0  0  0  0
  140.7477   69.7365  229.3246 H   0  0  0  0  0  0  0  0  0  0  0  0
  141.5499   72.0230  228.7241 H   0  0  0  0  0  0  0  0  0  0  0  0
  141.2960   72.8876  226.4203 H   0  0  0  0  0  0  0  0  0  0  0  0
  140.5591   72.6118  224.1248 H   0  0  0  0  0  0  0  0  0  0  0  0
  137.8353   74.8532  221.7055 H   0  0  0  0  0  0  0  0  0  0  0  0
  138.9391   75.4492  222.9766 H   0  0  0  0  0  0  0  0  0  0  0  0
  139.4740   75.4858  219.9421 H   0  0  0  0  0  0  0  0  0  0  0  0
  139.0973   76.9057  220.9270 H   0  0  0  0  0  0  0  0  0  0  0  0
  1  2  1  0
  2  3  1  0
  3  4  2  0
  3  5  1  0
  5  6  1  0
  6  7  2  0
  7  8  1  0
  8  9  2  0
  9 10  1  0
 10 11  2  0
  5 12  1  0
 12 13  1  0
 13 14  1  0
 14 15  1  0
 15 16  1  0
 16 17  2  0
 16 18  1  0
 18 19  1  0
 19 20  2  0
 20 21  1  0
 21 22  2  0
 22 23  1  0
 23 24  2  0
 24 25  1  0
 25 26  2  0
 26 27  1  0
 27 28  2  0
 15 29  1  0
 29 30  1  0
 11  6  1  0
 30 12  1  0
 28 19  1  0
 27 22  1  0
  1 31  1  0
  1 32  1  0
  1 33  1  0
  2 34  1  0
  2 35  1  0
  7 36  1  0
  8 37  1  0
  9 38  1  0
 10 39  1  0
 11 40  1  0
 12 41  1  0
 13 42  1  0
 13 43  1  0
 14 44  1  0
 14 45  1  0
 18 46  1  0
 18 47  1  0
 20 48  1  0
 21 49  1  0
 23 50  1  0
 24 51  1  0
 25 52  1  0
 26 53  1  0
 28 54  1  0
 29 55  1  0
 29 56  1  0
 30 57  1  0
 30 58  1  0
M  END
>  <smiles>  (22) 
CCC(=O)N(c1ccccc1)C1CCN(C(=O)Cc2ccc3ccccc3c2)CC1

>  <score_type>  (22) 
oracle

>  <origin>  (22) 
autodockgpu

>  <m_score__min__energy>  (22) 
-9.0999999999999996

>  <m_primary>  (22) 
energy

>  <rmsd>  (22) 
8.25372581389717

>  <m_score__min__rmsd>  (22) 
8.25372581389717

>  <meeko>  (22) 
{"free_energy": -8.87, "intermolecular_energy": -10.66, "internal_energy": -1.42, "cluster_size": 4, "cluster_id": 2, "rank_in_cluster": 2}

>  <energy>  (22) 
-8.97

>  <cluster_rmsd>  (22) 
0.54

>  <cluster>  (22) 
1

$$$$

     RDKit          3D

 58 61  0  0  0  0  0  0  0  0999 V2000
  143.3020   76.7010  219.3130 C   0  0  0  0  0  0  0  0  0  0  0  0
  142.2590   77.6140  218.6660 C   0  0  0  0  0  0  0  0  0  0  0  0
  141.1500   77.8810  219.5880 C   0  0  0  0  0  0  0  0  0  0  0  0
  140.1950   78.6050  219.1220 O   0  0  0  0  0  0  0  0  0  0  0  0
  140.9930   77.4470  220.9130 N   0  0  0  0  0  0  0  0  0  0  0  0
  141.4600   78.4140  221.9140 C   0  0  0  0  0  0  0  0  0  0  0  0
  141.3690   78.1000  223.2570 C   0  0  0  0  0  0  0  0  0  0  0  0
  141.8230   79.0430  224.1840 C   0  0  0  0  0  0  0  0  0  0  0  0
  142.3460   80.2510  223.7490 C   0  0  0  0  0  0  0  0  0  0  0  0
  142.4250   80.5370  222.3990 C   0  0  0  0  0  0  0  0  0  0  0  0
  141.9770   79.6100  221.4580 C   0  0  0  0  0  0  0  0  0  0  0  0
  140.4650   76.2420  221.4190 C   0  0  0  0  0  0  0  0  0  0  0  0
  141.2800   75.0020  221.0230 C   0  0  0  0  0  0  0  0  0  0  0  0
  140.8170   73.8710  221.9370 C   0  0  0  0  0  0  0  0  0  0  0  0
  139.3650   73.8000  221.9660 N   0  0  0  0  0  0  0  0  0  0  0  0
  138.7680   72.4880  222.0210 C   0  0  0  0  0  0  0  0  0  0  0  0
  137.5060   72.3450  222.0490 O   0  0  0  0  0  0  0  0  0  0  0  0
  139.5800   71.2610  222.0470 C   0  0  0  0  0  0  0  0  0  0  0  0
  139.7310   70.8490  223.4670 C   0  0  0  0  0  0  0  0  0  0  0  0
  139.2040   69.6020  223.8170 C   0  0  0  0  0  0  0  0  0  0  0  0
  139.2780   69.1050  225.0970 C   0  0  0  0  0  0  0  0  0  0  0  0
  139.9020   69.8920  226.0450 C   0  0  0  0  0  0  0  0  0  0  0  0
  139.9920   69.4210  227.3400 C   0  0  0  0  0  0  0  0  0  0  0  0
  140.6020   70.1530  228.3440 C   0  0  0  0  0  0  0  0  0  0  0  0
  141.1260   71.3900  228.0060 C   0  0  0  0  0  0  0  0  0  0  0  0
  141.0430   71.8780  226.7090 C   0  0  0  0  0  0  0  0  0  0  0  0
  140.4270   71.1290  225.7120 C   0  0  0  0  0  0  0  0  0  0  0  0
  140.3520   71.6340  224.4140 C   0  0  0  0  0  0  0  0  0  0  0  0
  138.4950   74.9400  221.9430 C   0  0  0  0  0  0  0  0  0  0  0  0
  139.0590   75.9450  220.9460 C   0  0  0  0  0  0  0  0  0  0  0  0
  143.2219   76.7711  220.4078 H   0  0  0  0  0  0  0  0  0  0  0  0
  143.1255   75.6619  218.9982 H   0  0  0  0  0  0  0  0  0  0  0  0
  144.3086   77.0135  218.9982 H   0  0  0  0  0  0  0  0  0  0  0  0
  142.7357   78.5665  218.3912 H   0  0  0  0  0  0  0  0  0  0  0  0
  141.8591   77.1115  217.7729 H   0  0  0  0  0  0  0  0  0  0  0  0
  140.9519   77.1370  223.5866 H   0  0  0  0  0  0  0  0  0  0  0  0
  141.7651   78.8260  225.2608 H   0  0  0  0  0  0  0  0  0  0  0  0
  142.7010   80.9880  224.4843 H   0  0  0  0  0  0  0  0  0  0  0  0
  142.8425   81.4986  222.0657 H   0  0  0  0  0  0  0  0  0  0  0  0
  142.0342   79.8262  220.3810 H   0  0  0  0  0  0  0  0  0  0  0  0
  140.4931   76.4159  222.5048 H   0  0  0  0  0  0  0  0  0  0  0  0
  141.0906   74.7425  219.9710 H   0  0  0  0  0  0  0  0  0  0  0  0
  142.3596   75.1840  221.1299 H   0  0  0  0  0  0  0  0  0  0  0  0
  141.2184   72.9172  221.5641 H   0  0  0  0  0  0  0  0  0  0  0  0
  141.1835   74.0650  222.9558 H   0  0  0  0  0  0  0  0  0  0  0  0
  139.0759   70.4660  221.4778 H   0  0  0  0  0  0  0  0  0  0  0  0
  140.5648   71.4411  221.5913 H   0  0  0  0  0  0  0  0  0  0  0  0
  138.7127   68.9970  223.0407 H   0  0  0  0  0  0  0  0  0  0  0  0
  138.8578   68.1217  225.3551 H   0  0  0  0  0  0  0  0  0  0  0  0
  139.5666   68.4355  227.5806 H   0  0  0  0  0  0  0  0  0  0  0  0
  140.6682   69.7669  229.3719 H   0  0  0  0  0  0  0  0  0  0  0  0
  141.6174   71.9974  228.7803 H   0  0  0  0  0  0  0  0  0  0  0  0
  141.4673   72.8639  226.4681 H   0  0  0  0  0  0  0  0  0  0  0  0
  140.7712   72.6180  224.1570 H   0  0  0  0  0  0  0  0  0  0  0  0
  137.4856   74.6326  221.6322 H   0  0  0  0  0  0  0  0  0  0  0  0
  138.4308   75.3910  222.9442 H   0  0  0  0  0  0  0  0  0  0  0  0
  139.0773   75.5134  219.9344 H   0  0  0  0  0  0  0  0  0  0  0  0
  138.4454   76.8566  220.8956 H   0  0  0  0  0  0  0  0  0  0  0  0
  1  2  1  0
  2  3  1  0
  3  4  2  0
  3  5  1  0
  5  6  1  0
  6  7  2  0
  7  8  1  0
  8  9  2  0
  9 10  1  0
 10 11  2  0
  5 12  1  0
 12 13  1  0
 13 14  1  0
 14 15  1  0
 15 16  1  0
 16 17  2  0
 16 18  1  0
 18 19  1  0
 19 20  2  0
 20 21  1  0
 21 22  2  0
 22 23  1  0
 23 24  2  0
 24 25  1  0
 25 26  2  0
 26 27  1  0
 27 28  2  0
 15 29  1  0
 29 30  1  0
 11  6  1  0
 30 12  1  0
 28 19  1  0
 27 22  1  0
  1 31  1  0
  1 32  1  0
  1 33  1  0
  2 34  1  0
  2 35  1  0
  7 36  1  0
  8 37  1  0
  9 38  1  0
 10 39  1  0
 11 40  1  0
 12 41  1  0
 13 42  1  0
 13 43  1  0
 14 44  1  0
 14 45  1  0
 18 46  1  0
 18 47  1  0
 20 48  1  0
 21 49  1  0
 23 50  1  0
 24 51  1  0
 25 52  1  0
 26 53  1  0
 28 54  1  0
 29 55  1  0
 29 56  1  0
 30 57  1  0
 30 58  1  0
M  END
>  <smiles>  (23) 
CCC(=O)N(c1ccccc1)C1CCN(C(=O)Cc2ccc3ccccc3c2)CC1

>  <score_type>  (23) 
oracle

>  <origin>  (23) 
autodockgpu

>  <m_score__min__energy>  (23) 
-9.0999999999999996

>  <m_primary>  (23) 
energy

>  <rmsd>  (23) 
8.259816928880591

>  <m_score__min__rmsd>  (23) 
8.259816928880591

>  <meeko>  (23) 
{"free_energy": -8.91, "intermolecular_energy": -10.7, "internal_energy": -1.52, "cluster_size": 46, "cluster_id": 1, "rank_in_cluster": 40}

>  <energy>  (23) 
-8.97

>  <cluster_rmsd>  (23) 
1.82

>  <cluster>  (23) 
1

$$$$

     RDKit          3D

 58 61  0  0  0  0  0  0  0  0999 V2000
  138.0780   80.5620  224.3660 C   0  0  0  0  0  0  0  0  0  0  0  0
  137.9480   80.1770  222.8910 C   0  0  0  0  0  0  0  0  0  0  0  0
  138.1780   78.7410  222.7000 C   0  0  0  0  0  0  0  0  0  0  0  0
  137.1440   77.9870  222.8210 O   0  0  0  0  0  0  0  0  0  0  0  0
  139.3800   78.0830  222.4000 N   0  0  0  0  0  0  0  0  0  0  0  0
  140.5730   78.9240  222.5540 C   0  0  0  0  0  0  0  0  0  0  0  0
  141.1480   79.0670  223.8020 C   0  0  0  0  0  0  0  0  0  0  0  0
  142.2840   79.8750  223.9130 C   0  0  0  0  0  0  0  0  0  0  0  0
  142.8020   80.5060  222.7920 C   0  0  0  0  0  0  0  0  0  0  0  0
  142.2040   80.3440  221.5570 C   0  0  0  0  0  0  0  0  0  0  0  0
  141.0710   79.5420  221.4250 C   0  0  0  0  0  0  0  0  0  0  0  0
  139.6110   76.7570  221.9800 C   0  0  0  0  0  0  0  0  0  0  0  0
  138.6390   75.7410  222.5980 C   0  0  0  0  0  0  0  0  0  0  0  0
  138.7690   74.4630  221.7730 C   0  0  0  0  0  0  0  0  0  0  0  0
  140.1680   74.1080  221.5980 N   0  0  0  0  0  0  0  0  0  0  0  0
  140.5040   72.7050  221.6270 C   0  0  0  0  0  0  0  0  0  0  0  0
  141.7040   72.3170  221.4820 O   0  0  0  0  0  0  0  0  0  0  0  0
  139.4840   71.6630  221.8270 C   0  0  0  0  0  0  0  0  0  0  0  0
  139.5820   71.2000  223.2360 C   0  0  0  0  0  0  0  0  0  0  0  0
  138.8640   70.0480  223.5690 C   0  0  0  0  0  0  0  0  0  0  0  0
  138.8700   69.5170  224.8370 C   0  0  0  0  0  0  0  0  0  0  0  0
  139.6240   70.1710  225.7910 C   0  0  0  0  0  0  0  0  0  0  0  0
  139.6510   69.6620  227.0750 C   0  0  0  0  0  0  0  0  0  0  0  0
  140.3840   70.2630  228.0850 C   0  0  0  0  0  0  0  0  0  0  0  0
  141.0990   71.4060  227.7640 C   0  0  0  0  0  0  0  0  0  0  0  0
  141.0820   71.9300  226.4780 C   0  0  0  0  0  0  0  0  0  0  0  0
  140.3400   71.3130  225.4750 C   0  0  0  0  0  0  0  0  0  0  0  0
  140.3340   71.8520  224.1890 C   0  0  0  0  0  0  0  0  0  0  0  0
  141.2280   75.0540  221.3990 C   0  0  0  0  0  0  0  0  0  0  0  0
  140.9870   76.2360  222.3320 C   0  0  0  0  0  0  0  0  0  0  0  0
  137.7893   79.7070  224.9949 H   0  0  0  0  0  0  0  0  0  0  0  0
  139.1200   80.8406  224.5818 H   0  0  0  0  0  0  0  0  0  0  0  0
  137.4182   81.4153  224.5818 H   0  0  0  0  0  0  0  0  0  0  0  0
  136.9359   80.4288  222.5414 H   0  0  0  0  0  0  0  0  0  0  0  0
  138.7037   80.7323  222.3161 H   0  0  0  0  0  0  0  0  0  0  0  0
  140.7249   78.5605  224.6820 H   0  0  0  0  0  0  0  0  0  0  0  0
  142.7677   80.0103  224.8916 H   0  0  0  0  0  0  0  0  0  0  0  0
  143.6957   81.1403  222.8867 H   0  0  0  0  0  0  0  0  0  0  0  0
  142.6233   80.8496  220.6746 H   0  0  0  0  0  0  0  0  0  0  0  0
  140.5869   79.4055  220.4467 H   0  0  0  0  0  0  0  0  0  0  0  0
  139.4792   76.8334  220.8906 H   0  0  0  0  0  0  0  0  0  0  0  0
  138.9084   75.5460  223.6465 H   0  0  0  0  0  0  0  0  0  0  0  0
  137.6062   76.1195  222.5868 H   0  0  0  0  0  0  0  0  0  0  0  0
  138.2500   73.6434  222.2916 H   0  0  0  0  0  0  0  0  0  0  0  0
  138.3191   74.6319  220.7835 H   0  0  0  0  0  0  0  0  0  0  0  0
  138.4828   72.0774  221.6375 H   0  0  0  0  0  0  0  0  0  0  0  0
  139.6479   70.8250  221.1336 H   0  0  0  0  0  0  0  0  0  0  0  0
  138.2725   69.5480  222.7879 H   0  0  0  0  0  0  0  0  0  0  0  0
  138.2983   68.6095  225.0812 H   0  0  0  0  0  0  0  0  0  0  0  0
  139.0739   68.7534  227.3018 H   0  0  0  0  0  0  0  0  0  0  0  0
  140.3981   69.8485  229.1038 H   0  0  0  0  0  0  0  0  0  0  0  0
  141.6915   71.9080  228.5431 H   0  0  0  0  0  0  0  0  0  0  0  0
  141.6588   72.8386  226.2506 H   0  0  0  0  0  0  0  0  0  0  0  0
  140.9057   72.7597  223.9455 H   0  0  0  0  0  0  0  0  0  0  0  0
  142.1953   74.5852  221.6327 H   0  0  0  0  0  0  0  0  0  0  0  0
  141.2471   75.3915  220.3522 H   0  0  0  0  0  0  0  0  0  0  0  0
  141.0170   75.9090  223.3819 H   0  0  0  0  0  0  0  0  0  0  0  0
  141.7584   77.0113  222.2149 H   0  0  0  0  0  0  0  0  0  0  0  0
  1  2  1  0
  2  3  1  0
  3  4  2  0
  3  5  1  0
  5  6  1  0
  6  7  2  0
  7  8  1  0
  8  9  2  0
  9 10  1  0
 10 11  2  0
  5 12  1  0
 12 13  1  0
 13 14  1  0
 14 15  1  0
 15 16  1  0
 16 17  2  0
 16 18  1  0
 18 19  1  0
 19 20  2  0
 20 21  1  0
 21 22  2  0
 22 23  1  0
 23 24  2  0
 24 25  1  0
 25 26  2  0
 26 27  1  0
 27 28  2  0
 15 29  1  0
 29 30  1  0
 11  6  1  0
 30 12  1  0
 28 19  1  0
 27 22  1  0
  1 31  1  0
  1 32  1  0
  1 33  1  0
  2 34  1  0
  2 35  1  0
  7 36  1  0
  8 37  1  0
  9 38  1  0
 10 39  1  0
 11 40  1  0
 12 41  1  0
 13 42  1  0
 13 43  1  0
 14 44  1  0
 14 45  1  0
 18 46  1  0
 18 47  1  0
 20 48  1  0
 21 49  1  0
 23 50  1  0
 24 51  1  0
 25 52  1  0
 26 53  1  0
 28 54  1  0
 29 55  1  0
 29 56  1  0
 30 57  1  0
 30 58  1  0
M  END
>  <smiles>  (24) 
CCC(=O)N(c1ccccc1)C1CCN(C(=O)Cc2ccc3ccccc3c2)CC1

>  <score_type>  (24) 
oracle

>  <origin>  (24) 
autodockgpu

>  <m_score__min__energy>  (24) 
-9.0999999999999996

>  <m_primary>  (24) 
energy

>  <rmsd>  (24) 
8.147721643114712

>  <m_score__min__rmsd>  (24) 
8.147721643114712

>  <meeko>  (24) 
{"free_energy": -9.07, "intermolecular_energy": -10.86, "internal_energy": -1.47, "cluster_size": 46, "cluster_id": 1, "rank_in_cluster": 7}

>  <energy>  (24) 
-8.96

>  <cluster_rmsd>  (24) 
1.82

>  <cluster>  (24) 
1

$$$$

     RDKit          3D

 58 61  0  0  0  0  0  0  0  0999 V2000
  138.1170   80.4820  224.3550 C   0  0  0  0  0  0  0  0  0  0  0  0
  138.0980   80.3190  222.8330 C   0  0  0  0  0  0  0  0  0  0  0  0
  138.2650   78.9110  222.4540 C   0  0  0  0  0  0  0  0  0  0  0  0
  137.1810   78.2640  222.2140 O   0  0  0  0  0  0  0  0  0  0  0  0
  139.4540   78.1800  222.3180 N   0  0  0  0  0  0  0  0  0  0  0  0
  140.6670   78.9660  222.5740 C   0  0  0  0  0  0  0  0  0  0  0  0
  141.1620   79.0540  223.8610 C   0  0  0  0  0  0  0  0  0  0  0  0
  142.3190   79.8090  224.0700 C   0  0  0  0  0  0  0  0  0  0  0  0
  142.9380   80.4450  223.0040 C   0  0  0  0  0  0  0  0  0  0  0  0
  142.4200   80.3390  221.7270 C   0  0  0  0  0  0  0  0  0  0  0  0
  141.2660   79.5890  221.4980 C   0  0  0  0  0  0  0  0  0  0  0  0
  139.6560   76.8270  221.9760 C   0  0  0  0  0  0  0  0  0  0  0  0
  138.6830   75.8680  222.6760 C   0  0  0  0  0  0  0  0  0  0  0  0
  138.7760   74.5390  221.9300 C   0  0  0  0  0  0  0  0  0  0  0  0
  140.1650   74.1510  221.7500 N   0  0  0  0  0  0  0  0  0  0  0  0
  140.4810   72.7470  221.8600 C   0  0  0  0  0  0  0  0  0  0  0  0
  141.6720   72.3320  221.7160 O   0  0  0  0  0  0  0  0  0  0  0  0
  139.4500   71.7370  222.1450 C   0  0  0  0  0  0  0  0  0  0  0  0
  139.7230   71.1820  223.4970 C   0  0  0  0  0  0  0  0  0  0  0  0
  139.2740   69.8820  223.7430 C   0  0  0  0  0  0  0  0  0  0  0  0
  139.4630   69.2550  224.9520 C   0  0  0  0  0  0  0  0  0  0  0  0
  140.1240   69.9640  225.9350 C   0  0  0  0  0  0  0  0  0  0  0  0
  140.3300   69.3620  227.1600 C   0  0  0  0  0  0  0  0  0  0  0  0
  140.9840   70.0100  228.1940 C   0  0  0  0  0  0  0  0  0  0  0  0
  141.4320   71.3000  227.9580 C   0  0  0  0  0  0  0  0  0  0  0  0
  141.2330   71.9200  226.7320 C   0  0  0  0  0  0  0  0  0  0  0  0
  140.5740   71.2530  225.7040 C   0  0  0  0  0  0  0  0  0  0  0  0
  140.3820   71.8900  224.4780 C   0  0  0  0  0  0  0  0  0  0  0  0
  141.2360   75.0660  221.4710 C   0  0  0  0  0  0  0  0  0  0  0  0
  141.0320   76.3070  222.3330 C   0  0  0  0  0  0  0  0  0  0  0  0
  138.0022   79.4969  224.8307 H   0  0  0  0  0  0  0  0  0  0  0  0
  139.0733   80.9292  224.6640 H   0  0  0  0  0  0  0  0  0  0  0  0
  137.2891   81.1371  224.6640 H   0  0  0  0  0  0  0  0  0  0  0  0
  137.1365   80.6849  222.4438 H   0  0  0  0  0  0  0  0  0  0  0  0
  138.9308   80.8982  222.4075 H   0  0  0  0  0  0  0  0  0  0  0  0
  140.6599   78.5446  224.6967 H   0  0  0  0  0  0  0  0  0  0  0  0
  142.7399   79.8992  225.0823 H   0  0  0  0  0  0  0  0  0  0  0  0
  143.8481   81.0383  223.1763 H   0  0  0  0  0  0  0  0  0  0  0  0
  142.9190   80.8474  220.8888 H   0  0  0  0  0  0  0  0  0  0  0  0
  140.8446   79.4966  220.4861 H   0  0  0  0  0  0  0  0  0  0  0  0
  139.5022   76.8372  220.8868 H   0  0  0  0  0  0  0  0  0  0  0  0
  138.9721   75.7343  223.7289 H   0  0  0  0  0  0  0  0  0  0  0  0
  137.6560   76.2618  222.6625 H   0  0  0  0  0  0  0  0  0  0  0  0
  138.2555   73.7620  222.5090 H   0  0  0  0  0  0  0  0  0  0  0  0
  138.3081   74.6533  220.9410 H   0  0  0  0  0  0  0  0  0  0  0  0
  138.4536   72.2027  222.1253 H   0  0  0  0  0  0  0  0  0  0  0  0
  139.4731   70.9386  221.3887 H   0  0  0  0  0  0  0  0  0  0  0  0
  138.7507   69.3409  222.9409 H   0  0  0  0  0  0  0  0  0  0  0  0
  139.1025   68.2309  225.1287 H   0  0  0  0  0  0  0  0  0  0  0  0
  139.9637   68.3371  227.3194 H   0  0  0  0  0  0  0  0  0  0  0  0
  141.1420   69.5196  229.1659 H   0  0  0  0  0  0  0  0  0  0  0  0
  141.9558   71.8435  228.7581 H   0  0  0  0  0  0  0  0  0  0  0  0
  141.5986   72.9451  226.5722 H   0  0  0  0  0  0  0  0  0  0  0  0
  140.7416   72.9145  224.3019 H   0  0  0  0  0  0  0  0  0  0  0  0
  142.2007   74.5969  221.7144 H   0  0  0  0  0  0  0  0  0  0  0  0
  141.2388   75.3374  220.4050 H   0  0  0  0  0  0  0  0  0  0  0  0
  141.0789   76.0454  223.4004 H   0  0  0  0  0  0  0  0  0  0  0  0
  141.8122   77.0612  222.1528 H   0  0  0  0  0  0  0  0  0  0  0  0
  1  2  1  0
  2  3  1  0
  3  4  2  0
  3  5  1  0
  5  6  1  0
  6  7  2  0
  7  8  1  0
  8  9  2  0
  9 10  1  0
 10 11  2  0
  5 12  1  0
 12 13  1  0
 13 14  1  0
 14 15  1  0
 15 16  1  0
 16 17  2  0
 16 18  1  0
 18 19  1  0
 19 20  2  0
 20 21  1  0
 21 22  2  0
 22 23  1  0
 23 24  2  0
 24 25  1  0
 25 26  2  0
 26 27  1  0
 27 28  2  0
 15 29  1  0
 29 30  1  0
 11  6  1  0
 30 12  1  0
 28 19  1  0
 27 22  1  0
  1 31  1  0
  1 32  1  0
  1 33  1  0
  2 34  1  0
  2 35  1  0
  7 36  1  0
  8 37  1  0
  9 38  1  0
 10 39  1  0
 11 40  1  0
 12 41  1  0
 13 42  1  0
 13 43  1  0
 14 44  1  0
 14 45  1  0
 18 46  1  0
 18 47  1  0
 20 48  1  0
 21 49  1  0
 23 50  1  0
 24 51  1  0
 25 52  1  0
 26 53  1  0
 28 54  1  0
 29 55  1  0
 29 56  1  0
 30 57  1  0
 30 58  1  0
M  END
>  <smiles>  (25) 
CCC(=O)N(c1ccccc1)C1CCN(C(=O)Cc2ccc3ccccc3c2)CC1

>  <score_type>  (25) 
oracle

>  <origin>  (25) 
autodockgpu

>  <m_score__min__energy>  (25) 
-9.0999999999999996

>  <m_primary>  (25) 
energy

>  <rmsd>  (25) 
8.21327298659143

>  <m_score__min__rmsd>  (25) 
8.21327298659143

>  <meeko>  (25) 
{"free_energy": -9.01, "intermolecular_energy": -10.8, "internal_energy": -1.49, "cluster_size": 46, "cluster_id": 1, "rank_in_cluster": 17}

>  <energy>  (25) 
-8.96

>  <cluster_rmsd>  (25) 
1.79

>  <cluster>  (25) 
1

$$$$

     RDKit          3D

 58 61  0  0  0  0  0  0  0  0999 V2000
  138.1170   81.3600  222.9320 C   0  0  0  0  0  0  0  0  0  0  0  0
  137.9700   79.9950  223.6070 C   0  0  0  0  0  0  0  0  0  0  0  0
  138.2010   78.9080  222.6490 C   0  0  0  0  0  0  0  0  0  0  0  0
  137.1760   78.5350  221.9680 O   0  0  0  0  0  0  0  0  0  0  0  0
  139.3940   78.2230  222.3770 N   0  0  0  0  0  0  0  0  0  0  0  0
  140.6000   79.0450  222.5360 C   0  0  0  0  0  0  0  0  0  0  0  0
  141.1990   79.1410  223.7770 C   0  0  0  0  0  0  0  0  0  0  0  0
  142.3470   79.9320  223.8930 C   0  0  0  0  0  0  0  0  0  0  0  0
  142.8520   80.5920  222.7830 C   0  0  0  0  0  0  0  0  0  0  0  0
  142.2300   80.4780  221.5550 C   0  0  0  0  0  0  0  0  0  0  0  0
  141.0850   79.6930  221.4180 C   0  0  0  0  0  0  0  0  0  0  0  0
  139.6070   76.8870  221.9800 C   0  0  0  0  0  0  0  0  0  0  0  0
  138.6240   75.8950  222.6190 C   0  0  0  0  0  0  0  0  0  0  0  0
  138.7340   74.6010  221.8180 C   0  0  0  0  0  0  0  0  0  0  0  0
  140.1280   74.2240  221.6460 N   0  0  0  0  0  0  0  0  0  0  0  0
  140.4460   72.8180  221.7000 C   0  0  0  0  0  0  0  0  0  0  0  0
  141.6410   72.4120  221.5590 O   0  0  0  0  0  0  0  0  0  0  0  0
  139.4140   71.7930  221.9210 C   0  0  0  0  0  0  0  0  0  0  0  0
  139.6190   71.2330  223.2830 C   0  0  0  0  0  0  0  0  0  0  0  0
  139.1100   69.9530  223.5160 C   0  0  0  0  0  0  0  0  0  0  0  0
  139.2330   69.3220  224.7320 C   0  0  0  0  0  0  0  0  0  0  0  0
  139.8890   70.0080  225.7350 C   0  0  0  0  0  0  0  0  0  0  0  0
  140.0290   69.4010  226.9680 C   0  0  0  0  0  0  0  0  0  0  0  0
  140.6740   70.0260  228.0220 C   0  0  0  0  0  0  0  0  0  0  0  0
  141.1810   71.2970  227.7990 C   0  0  0  0  0  0  0  0  0  0  0  0
  141.0480   71.9200  226.5650 C   0  0  0  0  0  0  0  0  0  0  0  0
  140.3970   71.2760  225.5170 C   0  0  0  0  0  0  0  0  0  0  0  0
  140.2730   71.9170  224.2840 C   0  0  0  0  0  0  0  0  0  0  0  0
  141.2000   75.1530  221.4270 C   0  0  0  0  0  0  0  0  0  0  0  0
  140.9770   76.3550  222.3380 C   0  0  0  0  0  0  0  0  0  0  0  0
  138.2012   82.1421  223.7009 H   0  0  0  0  0  0  0  0  0  0  0  0
  139.0207   81.3635  222.3049 H   0  0  0  0  0  0  0  0  0  0  0  0
  137.2348   81.5559  222.3049 H   0  0  0  0  0  0  0  0  0  0  0  0
  138.7027   79.9166  224.4237 H   0  0  0  0  0  0  0  0  0  0  0  0
  136.9459   79.9058  223.9986 H   0  0  0  0  0  0  0  0  0  0  0  0
  140.7857   78.6113  224.6480 H   0  0  0  0  0  0  0  0  0  0  0  0
  142.8499   80.0306  224.8664 H   0  0  0  0  0  0  0  0  0  0  0  0
  143.7556   81.2116  222.8812 H   0  0  0  0  0  0  0  0  0  0  0  0
  142.6389   81.0080  220.6821 H   0  0  0  0  0  0  0  0  0  0  0  0
  140.5820   79.5931  220.4448 H   0  0  0  0  0  0  0  0  0  0  0  0
  139.4733   76.9454  220.8897 H   0  0  0  0  0  0  0  0  0  0  0  0
  138.8942   75.7156  223.6701 H   0  0  0  0  0  0  0  0  0  0  0  0
  137.5963   76.2868  222.6034 H   0  0  0  0  0  0  0  0  0  0  0  0
  138.2055   73.7983  222.3531 H   0  0  0  0  0  0  0  0  0  0  0  0
  138.2834   74.7574  220.8268 H   0  0  0  0  0  0  0  0  0  0  0  0
  138.4142   72.2460  221.8485 H   0  0  0  0  0  0  0  0  0  0  0  0
  139.4894   70.9999  221.1625 H   0  0  0  0  0  0  0  0  0  0  0  0
  138.5923   69.4311  222.6977 H   0  0  0  0  0  0  0  0  0  0  0  0
  138.8261   68.3137  224.8984 H   0  0  0  0  0  0  0  0  0  0  0  0
  139.6163   68.3923  227.1168 H   0  0  0  0  0  0  0  0  0  0  0  0
  140.7801   69.5326  228.9994 H   0  0  0  0  0  0  0  0  0  0  0  0
  141.6986   71.8221  228.6153 H   0  0  0  0  0  0  0  0  0  0  0  0
  141.4598   72.9289  226.4149 H   0  0  0  0  0  0  0  0  0  0  0  0
  140.6800   72.9254  224.1183 H   0  0  0  0  0  0  0  0  0  0  0  0
  142.1618   74.6762  221.6672 H   0  0  0  0  0  0  0  0  0  0  0  0
  141.2204   75.4708  220.3741 H   0  0  0  0  0  0  0  0  0  0  0  0
  141.0058   76.0474  223.3937 H   0  0  0  0  0  0  0  0  0  0  0  0
  141.7580   77.1180  222.2043 H   0  0  0  0  0  0  0  0  0  0  0  0
  1  2  1  0
  2  3  1  0
  3  4  2  0
  3  5  1  0
  5  6  1  0
  6  7  2  0
  7  8  1  0
  8  9  2  0
  9 10  1  0
 10 11  2  0
  5 12  1  0
 12 13  1  0
 13 14  1  0
 14 15  1  0
 15 16  1  0
 16 17  2  0
 16 18  1  0
 18 19  1  0
 19 20  2  0
 20 21  1  0
 21 22  2  0
 22 23  1  0
 23 24  2  0
 24 25  1  0
 25 26  2  0
 26 27  1  0
 27 28  2  0
 15 29  1  0
 29 30  1  0
 11  6  1  0
 30 12  1  0
 28 19  1  0
 27 22  1  0
  1 31  1  0
  1 32  1  0
  1 33  1  0
  2 34  1  0
  2 35  1  0
  7 36  1  0
  8 37  1  0
  9 38  1  0
 10 39  1  0
 11 40  1  0
 12 41  1  0
 13 42  1  0
 13 43  1  0
 14 44  1  0
 14 45  1  0
 18 46  1  0
 18 47  1  0
 20 48  1  0
 21 49  1  0
 23 50  1  0
 24 51  1  0
 25 52  1  0
 26 53  1  0
 28 54  1  0
 29 55  1  0
 29 56  1  0
 30 57  1  0
 30 58  1  0
M  END
>  <smiles>  (26) 
CCC(=O)N(c1ccccc1)C1CCN(C(=O)Cc2ccc3ccccc3c2)CC1

>  <score_type>  (26) 
oracle

>  <origin>  (26) 
autodockgpu

>  <m_score__min__energy>  (26) 
-9.0999999999999996

>  <m_primary>  (26) 
energy

>  <rmsd>  (26) 
8.14404375982052

>  <m_score__min__rmsd>  (26) 
8.14404375982052

>  <meeko>  (26) 
{"free_energy": -8.93, "intermolecular_energy": -10.72, "internal_energy": -1.53, "cluster_size": 46, "cluster_id": 1, "rank_in_cluster": 34}

>  <energy>  (26) 
-8.96

>  <cluster_rmsd>  (26) 
0.81

>  <cluster>  (26) 
1

$$$$

     RDKit          3D

 58 61  0  0  0  0  0  0  0  0999 V2000
  138.1860   81.2140  223.5030 C   0  0  0  0  0  0  0  0  0  0  0  0
  137.6610   79.7780  223.4580 C   0  0  0  0  0  0  0  0  0  0  0  0
  138.2040   79.0560  222.3020 C   0  0  0  0  0  0  0  0  0  0  0  0
  137.5080   79.1230  221.2230 O   0  0  0  0  0  0  0  0  0  0  0  0
  139.3850   78.3050  222.2180 N   0  0  0  0  0  0  0  0  0  0  0  0
  140.6030   79.0810  222.4790 C   0  0  0  0  0  0  0  0  0  0  0  0
  141.2680   79.6780  221.4240 C   0  0  0  0  0  0  0  0  0  0  0  0
  142.4240   80.4110  221.7080 C   0  0  0  0  0  0  0  0  0  0  0  0
  142.8760   80.5220  223.0140 C   0  0  0  0  0  0  0  0  0  0  0  0
  142.1900   79.9130  224.0480 C   0  0  0  0  0  0  0  0  0  0  0  0
  141.0340   79.1780  223.7860 C   0  0  0  0  0  0  0  0  0  0  0  0
  139.5760   76.9390  221.9250 C   0  0  0  0  0  0  0  0  0  0  0  0
  138.5530   76.0180  222.6070 C   0  0  0  0  0  0  0  0  0  0  0  0
  138.6530   74.6670  221.9050 C   0  0  0  0  0  0  0  0  0  0  0  0
  140.0420   74.2480  221.7990 N   0  0  0  0  0  0  0  0  0  0  0  0
  140.3240   72.8430  221.9640 C   0  0  0  0  0  0  0  0  0  0  0  0
  141.5120   72.4010  221.8860 O   0  0  0  0  0  0  0  0  0  0  0  0
  139.2620   71.8600  222.2300 C   0  0  0  0  0  0  0  0  0  0  0  0
  139.5540   71.2240  223.5420 C   0  0  0  0  0  0  0  0  0  0  0  0
  139.1660   69.8900  223.6920 C   0  0  0  0  0  0  0  0  0  0  0  0
  139.3790   69.1880  224.8550 C   0  0  0  0  0  0  0  0  0  0  0  0
  140.0010   69.8560  225.8910 C   0  0  0  0  0  0  0  0  0  0  0  0
  140.2290   69.1780  227.0720 C   0  0  0  0  0  0  0  0  0  0  0  0
  140.8470   69.7820  228.1550 C   0  0  0  0  0  0  0  0  0  0  0  0
  141.2340   71.1050  228.0150 C   0  0  0  0  0  0  0  0  0  0  0  0
  141.0120   71.8000  226.8340 C   0  0  0  0  0  0  0  0  0  0  0  0
  140.3900   71.1770  225.7560 C   0  0  0  0  0  0  0  0  0  0  0  0
  140.1740   71.8910  224.5770 C   0  0  0  0  0  0  0  0  0  0  0  0
  141.1410   75.1340  221.5430 C   0  0  0  0  0  0  0  0  0  0  0  0
  140.9240   76.4040  222.3580 C   0  0  0  0  0  0  0  0  0  0  0  0
  138.3014   81.5296  224.5504 H   0  0  0  0  0  0  0  0  0  0  0  0
  139.1606   81.2642  222.9955 H   0  0  0  0  0  0  0  0  0  0  0  0
  137.4736   81.8810  222.9955 H   0  0  0  0  0  0  0  0  0  0  0  0
  137.9588   79.2570  224.3799 H   0  0  0  0  0  0  0  0  0  0  0  0
  136.5650   79.8080  223.3694 H   0  0  0  0  0  0  0  0  0  0  0  0
  140.8987   79.5792  220.3926 H   0  0  0  0  0  0  0  0  0  0  0  0
  142.9766   80.9012  220.8929 H   0  0  0  0  0  0  0  0  0  0  0  0
  143.7875   81.0991  223.2290 H   0  0  0  0  0  0  0  0  0  0  0  0
  142.5569   80.0083  225.0806 H   0  0  0  0  0  0  0  0  0  0  0  0
  140.4801   78.6882  224.6005 H   0  0  0  0  0  0  0  0  0  0  0  0
  139.4718   76.9206  220.8301 H   0  0  0  0  0  0  0  0  0  0  0  0
  138.7915   75.9100  223.6754 H   0  0  0  0  0  0  0  0  0  0  0  0
  137.5357   76.4301  222.5349 H   0  0  0  0  0  0  0  0  0  0  0  0
  138.0920   73.9171  222.4820 H   0  0  0  0  0  0  0  0  0  0  0  0
  138.2320   74.7606  220.8931 H   0  0  0  0  0  0  0  0  0  0  0  0
  138.2852   72.3644  222.2672 H   0  0  0  0  0  0  0  0  0  0  0  0
  139.2293   71.1025  221.4331 H   0  0  0  0  0  0  0  0  0  0  0  0
  138.6725   69.3833  222.8495 H   0  0  0  0  0  0  0  0  0  0  0  0
  139.0669   68.1380  224.9558 H   0  0  0  0  0  0  0  0  0  0  0  0
  139.9109   68.1283  227.1554 H   0  0  0  0  0  0  0  0  0  0  0  0
  141.0238   69.2318  229.0909 H   0  0  0  0  0  0  0  0  0  0  0  0
  141.7268   71.6146  228.8561 H   0  0  0  0  0  0  0  0  0  0  0  0
  141.3297   72.8497  226.7496 H   0  0  0  0  0  0  0  0  0  0  0  0
  140.4851   72.9414  224.4775 H   0  0  0  0  0  0  0  0  0  0  0  0
  142.0844   74.6546  221.8434 H   0  0  0  0  0  0  0  0  0  0  0  0
  141.1962   75.3735  220.4708 H   0  0  0  0  0  0  0  0  0  0  0  0
  140.9185   76.1739  223.4337 H   0  0  0  0  0  0  0  0  0  0  0  0
  141.7264   77.1376  222.1906 H   0  0  0  0  0  0  0  0  0  0  0  0
  1  2  1  0
  2  3  1  0
  3  4  2  0
  3  5  1  0
  5  6  1  0
  6  7  2  0
  7  8  1  0
  8  9  2  0
  9 10  1  0
 10 11  2  0
  5 12  1  0
 12 13  1  0
 13 14  1  0
 14 15  1  0
 15 16  1  0
 16 17  2  0
 16 18  1  0
 18 19  1  0
 19 20  2  0
 20 21  1  0
 21 22  2  0
 22 23  1  0
 23 24  2  0
 24 25  1  0
 25 26  2  0
 26 27  1  0
 27 28  2  0
 15 29  1  0
 29 30  1  0
 11  6  1  0
 30 12  1  0
 28 19  1  0
 27 22  1  0
  1 31  1  0
  1 32  1  0
  1 33  1  0
  2 34  1  0
  2 35  1  0
  7 36  1  0
  8 37  1  0
  9 38  1  0
 10 39  1  0
 11 40  1  0
 12 41  1  0
 13 42  1  0
 13 43  1  0
 14 44  1  0
 14 45  1  0
 18 46  1  0
 18 47  1  0
 20 48  1  0
 21 49  1  0
 23 50  1  0
 24 51  1  0
 25 52  1  0
 26 53  1  0
 28 54  1  0
 29 55  1  0
 29 56  1  0
 30 57  1  0
 30 58  1  0
M  END
>  <smiles>  (27) 
CCC(=O)N(c1ccccc1)C1CCN(C(=O)Cc2ccc3ccccc3c2)CC1

>  <score_type>  (27) 
oracle

>  <origin>  (27) 
autodockgpu

>  <m_score__min__energy>  (27) 
-9.0999999999999996

>  <m_primary>  (27) 
energy

>  <rmsd>  (27) 
8.24984827760606

>  <m_score__min__rmsd>  (27) 
8.24984827760606

>  <meeko>  (27) 
{"free_energy": -8.96, "intermolecular_energy": -10.75, "internal_energy": -1.48, "cluster_size": 46, "cluster_id": 1, "rank_in_cluster": 27}

>  <energy>  (27) 
-8.96

>  <cluster_rmsd>  (27) 
0.51

>  <cluster>  (27) 
1

$$$$

     RDKit          3D

 58 61  0  0  0  0  0  0  0  0999 V2000
  138.0500   80.5570  224.3500 C   0  0  0  0  0  0  0  0  0  0  0  0
  137.9410   80.2070  222.8650 C   0  0  0  0  0  0  0  0  0  0  0  0
  138.1560   78.7720  222.6470 C   0  0  0  0  0  0  0  0  0  0  0  0
  137.1060   78.0340  222.7010 O   0  0  0  0  0  0  0  0  0  0  0  0
  139.3590   78.1010  222.3840 N   0  0  0  0  0  0  0  0  0  0  0  0
  140.5550   78.9340  222.5590 C   0  0  0  0  0  0  0  0  0  0  0  0
  141.1160   79.0620  223.8150 C   0  0  0  0  0  0  0  0  0  0  0  0
  142.2550   79.8620  223.9470 C   0  0  0  0  0  0  0  0  0  0  0  0
  142.7900   80.5000  222.8380 C   0  0  0  0  0  0  0  0  0  0  0  0
  142.2070   80.3530  221.5940 C   0  0  0  0  0  0  0  0  0  0  0  0
  141.0710   79.5590  221.4420 C   0  0  0  0  0  0  0  0  0  0  0  0
  139.5890   76.7700  221.9810 C   0  0  0  0  0  0  0  0  0  0  0  0
  138.6200   75.7620  222.6170 C   0  0  0  0  0  0  0  0  0  0  0  0
  138.7470   74.4730  221.8110 C   0  0  0  0  0  0  0  0  0  0  0  0
  140.1450   74.1150  221.6360 N   0  0  0  0  0  0  0  0  0  0  0  0
  140.4810   72.7130  221.6840 C   0  0  0  0  0  0  0  0  0  0  0  0
  141.6810   72.3230  221.5410 O   0  0  0  0  0  0  0  0  0  0  0  0
  139.4620   71.6740  221.9020 C   0  0  0  0  0  0  0  0  0  0  0  0
  139.5960   71.1980  223.3050 C   0  0  0  0  0  0  0  0  0  0  0  0
  138.9390   70.0080  223.6280 C   0  0  0  0  0  0  0  0  0  0  0  0
  138.9830   69.4620  224.8890 C   0  0  0  0  0  0  0  0  0  0  0  0
  139.7120   70.1400  225.8450 C   0  0  0  0  0  0  0  0  0  0  0  0
  139.7760   69.6170  227.1220 C   0  0  0  0  0  0  0  0  0  0  0  0
  140.4880   70.2400  228.1330 C   0  0  0  0  0  0  0  0  0  0  0  0
  141.1420   71.4210  227.8210 C   0  0  0  0  0  0  0  0  0  0  0  0
  141.0870   71.9600  226.5430 C   0  0  0  0  0  0  0  0  0  0  0  0
  140.3680   71.3200  225.5390 C   0  0  0  0  0  0  0  0  0  0  0  0
  140.3230   71.8750  224.2600 C   0  0  0  0  0  0  0  0  0  0  0  0
  141.2050   75.0580  221.4200 C   0  0  0  0  0  0  0  0  0  0  0  0
  140.9670   76.2530  222.3360 C   0  0  0  0  0  0  0  0  0  0  0  0
  137.7767   79.6796  224.9545 H   0  0  0  0  0  0  0  0  0  0  0  0
  139.0834   80.8545  224.5817 H   0  0  0  0  0  0  0  0  0  0  0  0
  137.3683   81.3886  224.5817 H   0  0  0  0  0  0  0  0  0  0  0  0
  136.9385   80.4797  222.5036 H   0  0  0  0  0  0  0  0  0  0  0  0
  138.7132   80.7651  222.3153 H   0  0  0  0  0  0  0  0  0  0  0  0
  140.6796   78.5498  224.6852 H   0  0  0  0  0  0  0  0  0  0  0  0
  142.7277   79.9856  224.9325 H   0  0  0  0  0  0  0  0  0  0  0  0
  143.6859   81.1283  222.9496 H   0  0  0  0  0  0  0  0  0  0  0  0
  142.6402   80.8637  220.7213 H   0  0  0  0  0  0  0  0  0  0  0  0
  140.5981   79.4339  220.4568 H   0  0  0  0  0  0  0  0  0  0  0  0
  139.4535   76.8323  220.8912 H   0  0  0  0  0  0  0  0  0  0  0  0
  138.8935   75.5823  223.6672 H   0  0  0  0  0  0  0  0  0  0  0  0
  137.5870   76.1398  222.6038 H   0  0  0  0  0  0  0  0  0  0  0  0
  138.2298   73.6612  222.3434 H   0  0  0  0  0  0  0  0  0  0  0  0
  138.2937   74.6277  220.8207 H   0  0  0  0  0  0  0  0  0  0  0  0
  138.4580   72.0944  221.7431 H   0  0  0  0  0  0  0  0  0  0  0  0
  139.6031   70.8414  221.1971 H   0  0  0  0  0  0  0  0  0  0  0  0
  138.3660   69.4893  222.8453 H   0  0  0  0  0  0  0  0  0  0  0  0
  138.4592   68.5242  225.1261 H   0  0  0  0  0  0  0  0  0  0  0  0
  139.2460   68.6785  227.3420 H   0  0  0  0  0  0  0  0  0  0  0  0
  140.5328   69.8133  229.1459 H   0  0  0  0  0  0  0  0  0  0  0  0
  141.7161   71.9418  228.6015 H   0  0  0  0  0  0  0  0  0  0  0  0
  141.6154   72.8993  226.3229 H   0  0  0  0  0  0  0  0  0  0  0  0
  140.8458   72.8135  224.0237 H   0  0  0  0  0  0  0  0  0  0  0  0
  142.1729   74.5925  221.6577 H   0  0  0  0  0  0  0  0  0  0  0  0
  141.2212   75.3801  220.3684 H   0  0  0  0  0  0  0  0  0  0  0  0
  141.0003   75.9412  223.3904 H   0  0  0  0  0  0  0  0  0  0  0  0
  141.7381   77.0264  222.2048 H   0  0  0  0  0  0  0  0  0  0  0  0
  1  2  1  0
  2  3  1  0
  3  4  2  0
  3  5  1  0
  5  6  1  0
  6  7  2  0
  7  8  1  0
  8  9  2  0
  9 10  1  0
 10 11  2  0
  5 12  1  0
 12 13  1  0
 13 14  1  0
 14 15  1  0
 15 16  1  0
 16 17  2  0
 16 18  1  0
 18 19  1  0
 19 20  2  0
 20 21  1  0
 21 22  2  0
 22 23  1  0
 23 24  2  0
 24 25  1  0
 25 26  2  0
 26 27  1  0
 27 28  2  0
 15 29  1  0
 29 30  1  0
 11  6  1  0
 30 12  1  0
 28 19  1  0
 27 22  1  0
  1 31  1  0
  1 32  1  0
  1 33  1  0
  2 34  1  0
  2 35  1  0
  7 36  1  0
  8 37  1  0
  9 38  1  0
 10 39  1  0
 11 40  1  0
 12 41  1  0
 13 42  1  0
 13 43  1  0
 14 44  1  0
 14 45  1  0
 18 46  1  0
 18 47  1  0
 20 48  1  0
 21 49  1  0
 23 50  1  0
 24 51  1  0
 25 52  1  0
 26 53  1  0
 28 54  1  0
 29 55  1  0
 29 56  1  0
 30 57  1  0
 30 58  1  0
M  END
>  <smiles>  (28) 
CCC(=O)N(c1ccccc1)C1CCN(C(=O)Cc2ccc3ccccc3c2)CC1

>  <score_type>  (28) 
oracle

>  <origin>  (28) 
autodockgpu

>  <m_score__min__energy>  (28) 
-9.0999999999999996

>  <m_primary>  (28) 
energy

>  <rmsd>  (28) 
8.152376888480594

>  <m_score__min__rmsd>  (28) 
8.152376888480594

>  <meeko>  (28) 
{"free_energy": -9.09, "intermolecular_energy": -10.88, "internal_energy": -1.47, "cluster_size": 46, "cluster_id": 1, "rank_in_cluster": 3}

>  <energy>  (28) 
-8.96

>  <cluster_rmsd>  (28) 
1.82

>  <cluster>  (28) 
1

$$$$

     RDKit          3D

 58 61  0  0  0  0  0  0  0  0999 V2000
  143.5000   76.3930  219.4480 C   0  0  0  0  0  0  0  0  0  0  0  0
  142.5880   77.3890  218.7290 C   0  0  0  0  0  0  0  0  0  0  0  0
  141.3730   77.6460  219.5100 C   0  0  0  0  0  0  0  0  0  0  0  0
  140.4350   78.2750  218.8950 O   0  0  0  0  0  0  0  0  0  0  0  0
  141.1000   77.2940  220.8400 N   0  0  0  0  0  0  0  0  0  0  0  0
  141.4680   78.3270  221.8160 C   0  0  0  0  0  0  0  0  0  0  0  0
  141.4220   78.0350  223.1660 C   0  0  0  0  0  0  0  0  0  0  0  0
  141.7800   79.0410  224.0680 C   0  0  0  0  0  0  0  0  0  0  0  0
  142.1660   80.2890  223.6020 C   0  0  0  0  0  0  0  0  0  0  0  0
  142.2020   80.5520  222.2460 C   0  0  0  0  0  0  0  0  0  0  0  0
  141.8500   79.5610  221.3300 C   0  0  0  0  0  0  0  0  0  0  0  0
  140.5360   76.1170  221.3720 C   0  0  0  0  0  0  0  0  0  0  0  0
  141.2790   74.8390  220.9550 C   0  0  0  0  0  0  0  0  0  0  0  0
  140.7980   73.7350  221.8910 C   0  0  0  0  0  0  0  0  0  0  0  0
  139.3460   73.7300  221.9730 N   0  0  0  0  0  0  0  0  0  0  0  0
  138.6920   72.4470  222.0570 C   0  0  0  0  0  0  0  0  0  0  0  0
  137.4260   72.3620  222.1310 O   0  0  0  0  0  0  0  0  0  0  0  0
  139.4480   71.1850  222.0610 C   0  0  0  0  0  0  0  0  0  0  0  0
  139.6490   70.7840  223.4790 C   0  0  0  0  0  0  0  0  0  0  0  0
  139.2000   69.5100  223.8390 C   0  0  0  0  0  0  0  0  0  0  0  0
  139.3270   69.0200  225.1170 C   0  0  0  0  0  0  0  0  0  0  0  0
  139.9230   69.8420  226.0530 C   0  0  0  0  0  0  0  0  0  0  0  0
  140.0650   69.3780  227.3460 C   0  0  0  0  0  0  0  0  0  0  0  0
  140.6530   70.1450  228.3380 C   0  0  0  0  0  0  0  0  0  0  0  0
  141.1000   71.4090  227.9890 C   0  0  0  0  0  0  0  0  0  0  0  0
  140.9640   71.8900  226.6940 C   0  0  0  0  0  0  0  0  0  0  0  0
  140.3720   71.1050  225.7090 C   0  0  0  0  0  0  0  0  0  0  0  0
  140.2430   71.6040  224.4130 C   0  0  0  0  0  0  0  0  0  0  0  0
  138.5280   74.9090  221.9740 C   0  0  0  0  0  0  0  0  0  0  0  0
  139.1010   75.8820  220.9510 C   0  0  0  0  0  0  0  0  0  0  0  0
  143.3894   76.5138  220.5357 H   0  0  0  0  0  0  0  0  0  0  0  0
  143.2207   75.3680  219.1626 H   0  0  0  0  0  0  0  0  0  0  0  0
  144.5455   76.5811  219.1626 H   0  0  0  0  0  0  0  0  0  0  0  0
  143.1305   78.3351  218.5855 H   0  0  0  0  0  0  0  0  0  0  0  0
  142.2973   76.9611  217.7582 H   0  0  0  0  0  0  0  0  0  0  0  0
  141.1129   77.0405  223.5202 H   0  0  0  0  0  0  0  0  0  0  0  0
  141.7555   78.8425  225.1497 H   0  0  0  0  0  0  0  0  0  0  0  0
  142.4458   81.0759  224.3179 H   0  0  0  0  0  0  0  0  0  0  0  0
  142.5091   81.5457  221.8880 H   0  0  0  0  0  0  0  0  0  0  0  0
  141.8762   79.7578  220.2481 H   0  0  0  0  0  0  0  0  0  0  0  0
  140.6108   76.2948  222.4550 H   0  0  0  0  0  0  0  0  0  0  0  0
  141.0407   74.5838  219.9119 H   0  0  0  0  0  0  0  0  0  0  0  0
  142.3689   74.9718  221.0227 H   0  0  0  0  0  0  0  0  0  0  0  0
  141.1419   72.7623  221.5095 H   0  0  0  0  0  0  0  0  0  0  0  0
  141.2093   73.9170  222.8949 H   0  0  0  0  0  0  0  0  0  0  0  0
  138.8815   70.4070  221.5282 H   0  0  0  0  0  0  0  0  0  0  0  0
  140.4165   71.3140  221.5557 H   0  0  0  0  0  0  0  0  0  0  0  0
  138.7284   68.8774  223.0726 H   0  0  0  0  0  0  0  0  0  0  0  0
  138.9687   68.0146  225.3831 H   0  0  0  0  0  0  0  0  0  0  0  0
  139.7007   68.3704  227.5951 H   0  0  0  0  0  0  0  0  0  0  0  0
  140.7610   69.7648  229.3645 H   0  0  0  0  0  0  0  0  0  0  0  0
  141.5720   72.0440  228.7532 H   0  0  0  0  0  0  0  0  0  0  0  0
  141.3265   72.8982  226.4447 H   0  0  0  0  0  0  0  0  0  0  0  0
  140.6005   72.6099  224.1479 H   0  0  0  0  0  0  0  0  0  0  0  0
  137.4951   74.6466  221.7016 H   0  0  0  0  0  0  0  0  0  0  0  0
  138.5203   75.3673  222.9740 H   0  0  0  0  0  0  0  0  0  0  0  0
  139.0634   75.4449  219.9423 H   0  0  0  0  0  0  0  0  0  0  0  0
  138.5281   76.8204  220.9164 H   0  0  0  0  0  0  0  0  0  0  0  0
  1  2  1  0
  2  3  1  0
  3  4  2  0
  3  5  1  0
  5  6  1  0
  6  7  2  0
  7  8  1  0
  8  9  2  0
  9 10  1  0
 10 11  2  0
  5 12  1  0
 12 13  1  0
 13 14  1  0
 14 15  1  0
 15 16  1  0
 16 17  2  0
 16 18  1  0
 18 19  1  0
 19 20  2  0
 20 21  1  0
 21 22  2  0
 22 23  1  0
 23 24  2  0
 24 25  1  0
 25 26  2  0
 26 27  1  0
 27 28  2  0
 15 29  1  0
 29 30  1  0
 11  6  1  0
 30 12  1  0
 28 19  1  0
 27 22  1  0
  1 31  1  0
  1 32  1  0
  1 33  1  0
  2 34  1  0
  2 35  1  0
  7 36  1  0
  8 37  1  0
  9 38  1  0
 10 39  1  0
 11 40  1  0
 12 41  1  0
 13 42  1  0
 13 43  1  0
 14 44  1  0
 14 45  1  0
 18 46  1  0
 18 47  1  0
 20 48  1  0
 21 49  1  0
 23 50  1  0
 24 51  1  0
 25 52  1  0
 26 53  1  0
 28 54  1  0
 29 55  1  0
 29 56  1  0
 30 57  1  0
 30 58  1  0
M  END
>  <smiles>  (29) 
CCC(=O)N(c1ccccc1)C1CCN(C(=O)Cc2ccc3ccccc3c2)CC1

>  <score_type>  (29) 
oracle

>  <origin>  (29) 
autodockgpu

>  <m_score__min__energy>  (29) 
-9.0999999999999996

>  <m_primary>  (29) 
energy

>  <rmsd>  (29) 
8.26035011074974

>  <m_score__min__rmsd>  (29) 
8.26035011074974

>  <meeko>  (29) 
{"free_energy": -8.96, "intermolecular_energy": -10.75, "internal_energy": -1.5, "cluster_size": 46, "cluster_id": 1, "rank_in_cluster": 28}

>  <energy>  (29) 
-8.96

>  <cluster_rmsd>  (29) 
0.38

>  <cluster>  (29) 
1

$$$$

     RDKit          3D

 58 61  0  0  0  0  0  0  0  0999 V2000
  135.9190   77.8240  223.0410 C   0  0  0  0  0  0  0  0  0  0  0  0
  136.8530   78.5360  222.0600 C   0  0  0  0  0  0  0  0  0  0  0  0
  138.1750   78.7550  222.6580 C   0  0  0  0  0  0  0  0  0  0  0  0
  138.2330   79.6540  223.5740 O   0  0  0  0  0  0  0  0  0  0  0  0
  139.3840   78.1090  222.3620 N   0  0  0  0  0  0  0  0  0  0  0  0
  140.5650   78.9730  222.4810 C   0  0  0  0  0  0  0  0  0  0  0  0
  141.0650   79.6010  221.3570 C   0  0  0  0  0  0  0  0  0  0  0  0
  142.1900   80.4180  221.5060 C   0  0  0  0  0  0  0  0  0  0  0  0
  142.7730   80.5790  222.7540 C   0  0  0  0  0  0  0  0  0  0  0  0
  142.2500   79.9370  223.8600 C   0  0  0  0  0  0  0  0  0  0  0  0
  141.1280   79.1190  223.7330 C   0  0  0  0  0  0  0  0  0  0  0  0
  139.6330   76.7770  221.9710 C   0  0  0  0  0  0  0  0  0  0  0  0
  138.6610   75.7650  222.5950 C   0  0  0  0  0  0  0  0  0  0  0  0
  138.8130   74.4720  221.7990 C   0  0  0  0  0  0  0  0  0  0  0  0
  140.2180   74.1260  221.6500 N   0  0  0  0  0  0  0  0  0  0  0  0
  140.5650   72.7270  221.7130 C   0  0  0  0  0  0  0  0  0  0  0  0
  141.7710   72.3470  221.5930 O   0  0  0  0  0  0  0  0  0  0  0  0
  139.5520   71.6800  221.9190 C   0  0  0  0  0  0  0  0  0  0  0  0
  139.7020   71.1740  223.3090 C   0  0  0  0  0  0  0  0  0  0  0  0
  139.1500   69.9200  223.5830 C   0  0  0  0  0  0  0  0  0  0  0  0
  139.2200   69.3400  224.8270 C   0  0  0  0  0  0  0  0  0  0  0  0
  139.8680   70.0500  225.8190 C   0  0  0  0  0  0  0  0  0  0  0  0
  139.9550   69.4950  227.0800 C   0  0  0  0  0  0  0  0  0  0  0  0
  140.5880   70.1470  228.1240 C   0  0  0  0  0  0  0  0  0  0  0  0
  141.1390   71.3920  227.8620 C   0  0  0  0  0  0  0  0  0  0  0  0
  141.0590   71.9640  226.6000 C   0  0  0  0  0  0  0  0  0  0  0  0
  140.4190   71.2940  225.5610 C   0  0  0  0  0  0  0  0  0  0  0  0
  140.3480   71.8830  224.2990 C   0  0  0  0  0  0  0  0  0  0  0  0
  141.2730   75.0770  221.4480 C   0  0  0  0  0  0  0  0  0  0  0  0
  141.0090   76.2750  222.3530 C   0  0  0  0  0  0  0  0  0  0  0  0
  136.2240   78.0565  224.0720 H   0  0  0  0  0  0  0  0  0  0  0  0
  134.8863   78.1661  222.8781 H   0  0  0  0  0  0  0  0  0  0  0  0
  135.9753   76.7376  222.8781 H   0  0  0  0  0  0  0  0  0  0  0  0
  136.9646   77.9183  221.1567 H   0  0  0  0  0  0  0  0  0  0  0  0
  136.4164   79.5134  221.8068 H   0  0  0  0  0  0  0  0  0  0  0  0
  140.5921   79.4625  220.3735 H   0  0  0  0  0  0  0  0  0  0  0  0
  142.6134   80.9340  220.6316 H   0  0  0  0  0  0  0  0  0  0  0  0
  143.6583   81.2226  222.8641 H   0  0  0  0  0  0  0  0  0  0  0  0
  142.7208   80.0718  224.8450 H   0  0  0  0  0  0  0  0  0  0  0  0
  140.7029   78.6038  224.6070 H   0  0  0  0  0  0  0  0  0  0  0  0
  139.5168   76.8309  220.8785 H   0  0  0  0  0  0  0  0  0  0  0  0
  138.9168   75.5936  223.6510 H   0  0  0  0  0  0  0  0  0  0  0  0
  137.6254   76.1343  222.5606 H   0  0  0  0  0  0  0  0  0  0  0  0
  138.2943   73.6587  222.3276 H   0  0  0  0  0  0  0  0  0  0  0  0
  138.3749   74.6162  220.8003 H   0  0  0  0  0  0  0  0  0  0  0  0
  138.5450   72.1003  221.7798 H   0  0  0  0  0  0  0  0  0  0  0  0
  139.6886   70.8635  221.1947 H   0  0  0  0  0  0  0  0  0  0  0  0
  138.6406   69.3770  222.7732 H   0  0  0  0  0  0  0  0  0  0  0  0
  138.7786   68.3520  225.0244 H   0  0  0  0  0  0  0  0  0  0  0  0
  139.5084   68.5061  227.2603 H   0  0  0  0  0  0  0  0  0  0  0  0
  140.6515   69.6942  229.1245 H   0  0  0  0  0  0  0  0  0  0  0  0
  141.6494   71.9369  228.6699 H   0  0  0  0  0  0  0  0  0  0  0  0
  141.5043   72.9535  226.4195 H   0  0  0  0  0  0  0  0  0  0  0  0
  140.7888   72.8714  224.1019 H   0  0  0  0  0  0  0  0  0  0  0  0
  142.2405   74.6211  221.7053 H   0  0  0  0  0  0  0  0  0  0  0  0
  141.3046   75.3939  220.3951 H   0  0  0  0  0  0  0  0  0  0  0  0
  141.0269   75.9696  223.4096 H   0  0  0  0  0  0  0  0  0  0  0  0
  141.7755   77.0545  222.2310 H   0  0  0  0  0  0  0  0  0  0  0  0
  1  2  1  0
  2  3  1  0
  3  4  2  0
  3  5  1  0
  5  6  1  0
  6  7  2  0
  7  8  1  0
  8  9  2  0
  9 10  1  0
 10 11  2  0
  5 12  1  0
 12 13  1  0
 13 14  1  0
 14 15  1  0
 15 16  1  0
 16 17  2  0
 16 18  1  0
 18 19  1  0
 19 20  2  0
 20 21  1  0
 21 22  2  0
 22 23  1  0
 23 24  2  0
 24 25  1  0
 25 26  2  0
 26 27  1  0
 27 28  2  0
 15 29  1  0
 29 30  1  0
 11  6  1  0
 30 12  1  0
 28 19  1  0
 27 22  1  0
  1 31  1  0
  1 32  1  0
  1 33  1  0
  2 34  1  0
  2 35  1  0
  7 36  1  0
  8 37  1  0
  9 38  1  0
 10 39  1  0
 11 40  1  0
 12 41  1  0
 13 42  1  0
 13 43  1  0
 14 44  1  0
 14 45  1  0
 18 46  1  0
 18 47  1  0
 20 48  1  0
 21 49  1  0
 23 50  1  0
 24 51  1  0
 25 52  1  0
 26 53  1  0
 28 54  1  0
 29 55  1  0
 29 56  1  0
 30 57  1  0
 30 58  1  0
M  END
>  <smiles>  (30) 
CCC(=O)N(c1ccccc1)C1CCN(C(=O)Cc2ccc3ccccc3c2)CC1

>  <score_type>  (30) 
oracle

>  <origin>  (30) 
autodockgpu

>  <m_score__min__energy>  (30) 
-9.0999999999999996

>  <m_primary>  (30) 
energy

>  <rmsd>  (30) 
8.156852231923763

>  <m_score__min__rmsd>  (30) 
8.156852231923763

>  <meeko>  (30) 
{"free_energy": -8.88, "intermolecular_energy": -10.67, "internal_energy": -1.5, "cluster_size": 46, "cluster_id": 1, "rank_in_cluster": 42}

>  <energy>  (30) 
-8.96

>  <cluster_rmsd>  (30) 
1.82

>  <cluster>  (30) 
1

$$$$

     RDKit          3D

 58 61  0  0  0  0  0  0  0  0999 V2000
  138.0470   80.5880  224.2870 C   0  0  0  0  0  0  0  0  0  0  0  0
  137.9200   80.1630  222.8220 C   0  0  0  0  0  0  0  0  0  0  0  0
  138.1760   78.7270  222.6680 C   0  0  0  0  0  0  0  0  0  0  0  0
  137.1530   77.9590  222.7980 O   0  0  0  0  0  0  0  0  0  0  0  0
  139.3910   78.0810  222.3960 N   0  0  0  0  0  0  0  0  0  0  0  0
  140.5700   78.9360  222.5750 C   0  0  0  0  0  0  0  0  0  0  0  0
  141.1120   79.0920  223.8370 C   0  0  0  0  0  0  0  0  0  0  0  0
  142.2360   79.9120  223.9720 C   0  0  0  0  0  0  0  0  0  0  0  0
  142.7760   80.5420  222.8620 C   0  0  0  0  0  0  0  0  0  0  0  0
  142.2120   80.3680  221.6120 C   0  0  0  0  0  0  0  0  0  0  0  0
  141.0910   79.5530  221.4560 C   0  0  0  0  0  0  0  0  0  0  0  0
  139.6450   76.7580  221.9810 C   0  0  0  0  0  0  0  0  0  0  0  0
  138.6850   75.7290  222.5950 C   0  0  0  0  0  0  0  0  0  0  0  0
  138.8400   74.4510  221.7750 C   0  0  0  0  0  0  0  0  0  0  0  0
  140.2460   74.1170  221.6120 N   0  0  0  0  0  0  0  0  0  0  0  0
  140.6040   72.7190  221.6480 C   0  0  0  0  0  0  0  0  0  0  0  0
  141.8110   72.3500  221.5130 O   0  0  0  0  0  0  0  0  0  0  0  0
  139.5990   71.6620  221.8430 C   0  0  0  0  0  0  0  0  0  0  0  0
  139.6660   71.2330  223.2650 C   0  0  0  0  0  0  0  0  0  0  0  0
  138.8940   70.1240  223.6220 C   0  0  0  0  0  0  0  0  0  0  0  0
  138.8680   69.6270  224.9030 C   0  0  0  0  0  0  0  0  0  0  0  0
  139.6460   70.2690  225.8460 C   0  0  0  0  0  0  0  0  0  0  0  0
  139.6420   69.7930  227.1420 C   0  0  0  0  0  0  0  0  0  0  0  0
  140.3960   70.3860  228.1410 C   0  0  0  0  0  0  0  0  0  0  0  0
  141.1650   71.4860  227.7960 C   0  0  0  0  0  0  0  0  0  0  0  0
  141.1800   71.9760  226.4980 C   0  0  0  0  0  0  0  0  0  0  0  0
  140.4160   71.3680  225.5060 C   0  0  0  0  0  0  0  0  0  0  0  0
  140.4420   71.8740  224.2060 C   0  0  0  0  0  0  0  0  0  0  0  0
  141.2930   75.0790  221.4180 C   0  0  0  0  0  0  0  0  0  0  0  0
  141.0270   76.2590  222.3450 C   0  0  0  0  0  0  0  0  0  0  0  0
  137.7932   79.7388  224.9385 H   0  0  0  0  0  0  0  0  0  0  0  0
  139.0801   80.9082  224.4877 H   0  0  0  0  0  0  0  0  0  0  0  0
  137.3590   81.4225  224.4877 H   0  0  0  0  0  0  0  0  0  0  0  0
  136.9025   80.3870  222.4692 H   0  0  0  0  0  0  0  0  0  0  0  0
  138.6634   80.7173  222.2302 H   0  0  0  0  0  0  0  0  0  0  0  0
  140.6720   78.5860  224.7090 H   0  0  0  0  0  0  0  0  0  0  0  0
  142.6931   80.0576  224.9619 H   0  0  0  0  0  0  0  0  0  0  0  0
  143.6606   81.1857  222.9766 H   0  0  0  0  0  0  0  0  0  0  0  0
  142.6485   80.8737  220.7380 H   0  0  0  0  0  0  0  0  0  0  0  0
  140.6339   79.4058  220.4664 H   0  0  0  0  0  0  0  0  0  0  0  0
  139.5196   76.8295  220.8905 H   0  0  0  0  0  0  0  0  0  0  0  0
  138.9503   75.5411  223.6459 H   0  0  0  0  0  0  0  0  0  0  0  0
  137.6466   76.0915  222.5755 H   0  0  0  0  0  0  0  0  0  0  0  0
  138.3295   73.6251  222.2920 H   0  0  0  0  0  0  0  0  0  0  0  0
  138.3949   74.6098  220.7817 H   0  0  0  0  0  0  0  0  0  0  0  0
  138.5958   72.0521  221.6160 H   0  0  0  0  0  0  0  0  0  0  0  0
  139.7983   70.8120  221.1738 H   0  0  0  0  0  0  0  0  0  0  0  0
  138.2852   69.6311  222.8497 H   0  0  0  0  0  0  0  0  0  0  0  0
  138.2529   68.7539  225.1662 H   0  0  0  0  0  0  0  0  0  0  0  0
  139.0224   68.9180  227.3881 H   0  0  0  0  0  0  0  0  0  0  0  0
  140.3848   69.9981  229.1703 H   0  0  0  0  0  0  0  0  0  0  0  0
  141.7754   71.9803  228.5662 H   0  0  0  0  0  0  0  0  0  0  0  0
  141.7997   72.8507  226.2513 H   0  0  0  0  0  0  0  0  0  0  0  0
  141.0562   72.7479  223.9433 H   0  0  0  0  0  0  0  0  0  0  0  0
  142.2656   74.6260  221.6603 H   0  0  0  0  0  0  0  0  0  0  0  0
  141.3147   75.4137  220.3704 H   0  0  0  0  0  0  0  0  0  0  0  0
  141.0541   75.9355  223.3960 H   0  0  0  0  0  0  0  0  0  0  0  0
  141.7872   77.0458  222.2313 H   0  0  0  0  0  0  0  0  0  0  0  0
  1  2  1  0
  2  3  1  0
  3  4  2  0
  3  5  1  0
  5  6  1  0
  6  7  2  0
  7  8  1  0
  8  9  2  0
  9 10  1  0
 10 11  2  0
  5 12  1  0
 12 13  1  0
 13 14  1  0
 14 15  1  0
 15 16  1  0
 16 17  2  0
 16 18  1  0
 18 19  1  0
 19 20  2  0
 20 21  1  0
 21 22  2  0
 22 23  1  0
 23 24  2  0
 24 25  1  0
 25 26  2  0
 26 27  1  0
 27 28  2  0
 15 29  1  0
 29 30  1  0
 11  6  1  0
 30 12  1  0
 28 19  1  0
 27 22  1  0
  1 31  1  0
  1 32  1  0
  1 33  1  0
  2 34  1  0
  2 35  1  0
  7 36  1  0
  8 37  1  0
  9 38  1  0
 10 39  1  0
 11 40  1  0
 12 41  1  0
 13 42  1  0
 13 43  1  0
 14 44  1  0
 14 45  1  0
 18 46  1  0
 18 47  1  0
 20 48  1  0
 21 49  1  0
 23 50  1  0
 24 51  1  0
 25 52  1  0
 26 53  1  0
 28 54  1  0
 29 55  1  0
 29 56  1  0
 30 57  1  0
 30 58  1  0
M  END
>  <smiles>  (31) 
CCC(=O)N(c1ccccc1)C1CCN(C(=O)Cc2ccc3ccccc3c2)CC1

>  <score_type>  (31) 
oracle

>  <origin>  (31) 
autodockgpu

>  <m_score__min__energy>  (31) 
-9.0999999999999996

>  <m_primary>  (31) 
energy

>  <rmsd>  (31) 
8.137016237170709

>  <m_score__min__rmsd>  (31) 
8.137016237170709

>  <meeko>  (31) 
{"free_energy": -9.02, "intermolecular_energy": -10.81, "internal_energy": -1.47, "cluster_size": 46, "cluster_id": 1, "rank_in_cluster": 15}

>  <energy>  (31) 
-8.93

>  <cluster_rmsd>  (31) 
0.4

>  <cluster>  (31) 
1

$$$$

     RDKit          3D

 58 61  0  0  0  0  0  0  0  0999 V2000
  138.0350   80.5460  224.3220 C   0  0  0  0  0  0  0  0  0  0  0  0
  137.9390   80.2390  222.8260 C   0  0  0  0  0  0  0  0  0  0  0  0
  138.1470   78.8100  222.5690 C   0  0  0  0  0  0  0  0  0  0  0  0
  137.0860   78.0850  222.5440 O   0  0  0  0  0  0  0  0  0  0  0  0
  139.3540   78.1300  222.3440 N   0  0  0  0  0  0  0  0  0  0  0  0
  140.5490   78.9560  222.5540 C   0  0  0  0  0  0  0  0  0  0  0  0
  141.0920   79.0570  223.8210 C   0  0  0  0  0  0  0  0  0  0  0  0
  142.2310   79.8510  223.9860 C   0  0  0  0  0  0  0  0  0  0  0  0
  142.7830   80.5100  222.8980 C   0  0  0  0  0  0  0  0  0  0  0  0
  142.2170   80.3910  221.6440 C   0  0  0  0  0  0  0  0  0  0  0  0
  141.0820   79.6030  221.4580 C   0  0  0  0  0  0  0  0  0  0  0  0
  139.5870   76.7960  221.9530 C   0  0  0  0  0  0  0  0  0  0  0  0
  138.6050   75.7940  222.5770 C   0  0  0  0  0  0  0  0  0  0  0  0
  138.7430   74.5010  221.7790 C   0  0  0  0  0  0  0  0  0  0  0  0
  140.1430   74.1390  221.6290 N   0  0  0  0  0  0  0  0  0  0  0  0
  140.4760   72.7360  221.6910 C   0  0  0  0  0  0  0  0  0  0  0  0
  141.6770   72.3430  221.5690 O   0  0  0  0  0  0  0  0  0  0  0  0
  139.4510   71.7010  221.8960 C   0  0  0  0  0  0  0  0  0  0  0  0
  139.5710   71.2190  223.2980 C   0  0  0  0  0  0  0  0  0  0  0  0
  138.8820   70.0470  223.6190 C   0  0  0  0  0  0  0  0  0  0  0  0
  138.9110   69.4970  224.8790 C   0  0  0  0  0  0  0  0  0  0  0  0
  139.6590   70.1540  225.8370 C   0  0  0  0  0  0  0  0  0  0  0  0
  139.7080   69.6270  227.1120 C   0  0  0  0  0  0  0  0  0  0  0  0
  140.4360   70.2290  228.1250 C   0  0  0  0  0  0  0  0  0  0  0  0
  141.1220   71.3920  227.8150 C   0  0  0  0  0  0  0  0  0  0  0  0
  141.0820   71.9350  226.5380 C   0  0  0  0  0  0  0  0  0  0  0  0
  140.3460   71.3160  225.5320 C   0  0  0  0  0  0  0  0  0  0  0  0
  140.3170   71.8740  224.2540 C   0  0  0  0  0  0  0  0  0  0  0  0
  141.2080   75.0790  221.4270 C   0  0  0  0  0  0  0  0  0  0  0  0
  140.9580   76.2790  222.3330 C   0  0  0  0  0  0  0  0  0  0  0  0
  137.7554   79.6519  224.8985 H   0  0  0  0  0  0  0  0  0  0  0  0
  139.0665   80.8353  224.5715 H   0  0  0  0  0  0  0  0  0  0  0  0
  137.3521   81.3715  224.5715 H   0  0  0  0  0  0  0  0  0  0  0  0
  136.9420   80.5286  222.4625 H   0  0  0  0  0  0  0  0  0  0  0  0
  138.7205   80.8073  222.3004 H   0  0  0  0  0  0  0  0  0  0  0  0
  140.6415   78.5285  224.6741 H   0  0  0  0  0  0  0  0  0  0  0  0
  142.6899   79.9530  224.9805 H   0  0  0  0  0  0  0  0  0  0  0  0
  143.6793   81.1328  223.0349 H   0  0  0  0  0  0  0  0  0  0  0  0
  142.6632   80.9198  220.7889 H   0  0  0  0  0  0  0  0  0  0  0  0
  140.6234   79.4998  220.4635 H   0  0  0  0  0  0  0  0  0  0  0  0
  139.4691   76.8517  220.8608 H   0  0  0  0  0  0  0  0  0  0  0  0
  138.8600   75.6186  223.6326 H   0  0  0  0  0  0  0  0  0  0  0  0
  137.5733   76.1742  222.5446 H   0  0  0  0  0  0  0  0  0  0  0  0
  138.2151   73.6927  222.3063 H   0  0  0  0  0  0  0  0  0  0  0  0
  138.3070   74.6524  220.7805 H   0  0  0  0  0  0  0  0  0  0  0  0
  138.4502   72.1264  221.7302 H   0  0  0  0  0  0  0  0  0  0  0  0
  139.5944   70.8706  221.1889 H   0  0  0  0  0  0  0  0  0  0  0  0
  138.2949   69.5458  222.8353 H   0  0  0  0  0  0  0  0  0  0  0  0
  138.3620   68.5733  225.1142 H   0  0  0  0  0  0  0  0  0  0  0  0
  139.1530   68.7026  227.3297 H   0  0  0  0  0  0  0  0  0  0  0  0
  140.4683   69.7999  229.1373 H   0  0  0  0  0  0  0  0  0  0  0  0
  141.7102   71.8953  228.5965 H   0  0  0  0  0  0  0  0  0  0  0  0
  141.6355   72.8603  226.3199 H   0  0  0  0  0  0  0  0  0  0  0  0
  140.8663   72.7977  224.0191 H   0  0  0  0  0  0  0  0  0  0  0  0
  142.1707   74.6125  221.6831 H   0  0  0  0  0  0  0  0  0  0  0  0
  141.2418   75.3965  220.3744 H   0  0  0  0  0  0  0  0  0  0  0  0
  140.9738   75.9727  223.3894 H   0  0  0  0  0  0  0  0  0  0  0  0
  141.7326   77.0503  222.2106 H   0  0  0  0  0  0  0  0  0  0  0  0
  1  2  1  0
  2  3  1  0
  3  4  2  0
  3  5  1  0
  5  6  1  0
  6  7  2  0
  7  8  1  0
  8  9  2  0
  9 10  1  0
 10 11  2  0
  5 12  1  0
 12 13  1  0
 13 14  1  0
 14 15  1  0
 15 16  1  0
 16 17  2  0
 16 18  1  0
 18 19  1  0
 19 20  2  0
 20 21  1  0
 21 22  2  0
 22 23  1  0
 23 24  2  0
 24 25  1  0
 25 26  2  0
 26 27  1  0
 27 28  2  0
 15 29  1  0
 29 30  1  0
 11  6  1  0
 30 12  1  0
 28 19  1  0
 27 22  1  0
  1 31  1  0
  1 32  1  0
  1 33  1  0
  2 34  1  0
  2 35  1  0
  7 36  1  0
  8 37  1  0
  9 38  1  0
 10 39  1  0
 11 40  1  0
 12 41  1  0
 13 42  1  0
 13 43  1  0
 14 44  1  0
 14 45  1  0
 18 46  1  0
 18 47  1  0
 20 48  1  0
 21 49  1  0
 23 50  1  0
 24 51  1  0
 25 52  1  0
 26 53  1  0
 28 54  1  0
 29 55  1  0
 29 56  1  0
 30 57  1  0
 30 58  1  0
M  END
>  <smiles>  (32) 
CCC(=O)N(c1ccccc1)C1CCN(C(=O)Cc2ccc3ccccc3c2)CC1

>  <score_type>  (32) 
oracle

>  <origin>  (32) 
autodockgpu

>  <m_score__min__energy>  (32) 
-9.0999999999999996

>  <m_primary>  (32) 
energy

>  <rmsd>  (32) 
8.150359095650552

>  <m_score__min__rmsd>  (32) 
8.150359095650552

>  <meeko>  (32) 
{"free_energy": -9.09, "intermolecular_energy": -10.88, "internal_energy": -1.46, "cluster_size": 46, "cluster_id": 1, "rank_in_cluster": 2}

>  <energy>  (32) 
-8.93

>  <cluster_rmsd>  (32) 
1.79

>  <cluster>  (32) 
1

$$$$

     RDKit          3D

 58 61  0  0  0  0  0  0  0  0999 V2000
  137.9660   80.5330  223.9840 C   0  0  0  0  0  0  0  0  0  0  0  0
  137.3400   79.4520  223.1000 C   0  0  0  0  0  0  0  0  0  0  0  0
  138.2520   79.0660  222.0170 C   0  0  0  0  0  0  0  0  0  0  0  0
  137.9650   79.5270  220.8520 O   0  0  0  0  0  0  0  0  0  0  0  0
  139.3990   78.2610  222.0880 N   0  0  0  0  0  0  0  0  0  0  0  0
  140.6130   78.9890  222.4750 C   0  0  0  0  0  0  0  0  0  0  0  0
  141.3590   79.6310  221.5050 C   0  0  0  0  0  0  0  0  0  0  0  0
  142.5100   80.3160  221.9070 C   0  0  0  0  0  0  0  0  0  0  0  0
  142.8750   80.3380  223.2450 C   0  0  0  0  0  0  0  0  0  0  0  0
  142.1090   79.6860  224.1920 C   0  0  0  0  0  0  0  0  0  0  0  0
  140.9580   78.9980  223.8110 C   0  0  0  0  0  0  0  0  0  0  0  0
  139.5580   76.8820  221.8460 C   0  0  0  0  0  0  0  0  0  0  0  0
  138.5630   76.0050  222.6210 C   0  0  0  0  0  0  0  0  0  0  0  0
  138.6110   74.6230  221.9750 C   0  0  0  0  0  0  0  0  0  0  0  0
  139.9870   74.1810  221.8150 N   0  0  0  0  0  0  0  0  0  0  0  0
  140.2620   72.7810  222.0270 C   0  0  0  0  0  0  0  0  0  0  0  0
  141.4400   72.3210  221.9060 O   0  0  0  0  0  0  0  0  0  0  0  0
  139.2050   71.8250  222.3920 C   0  0  0  0  0  0  0  0  0  0  0  0
  139.6190   71.1540  223.6520 C   0  0  0  0  0  0  0  0  0  0  0  0
  140.4750   71.8710  224.4920 C   0  0  0  0  0  0  0  0  0  0  0  0
  140.9320   71.3630  225.6850 C   0  0  0  0  0  0  0  0  0  0  0  0
  140.5080   70.0960  226.0360 C   0  0  0  0  0  0  0  0  0  0  0  0
  140.9490   69.5580  227.2280 C   0  0  0  0  0  0  0  0  0  0  0  0
  140.5670   68.2940  227.6460 C   0  0  0  0  0  0  0  0  0  0  0  0
  139.7180   67.5750  226.8190 C   0  0  0  0  0  0  0  0  0  0  0  0
  139.2670   68.1030  225.6170 C   0  0  0  0  0  0  0  0  0  0  0  0
  139.6600   69.3750  225.2130 C   0  0  0  0  0  0  0  0  0  0  0  0
  139.1970   69.8890  224.0020 C   0  0  0  0  0  0  0  0  0  0  0  0
  141.0810   75.0410  221.4630 C   0  0  0  0  0  0  0  0  0  0  0  0
  140.9210   76.3480  222.2320 C   0  0  0  0  0  0  0  0  0  0  0  0
  137.8158   80.2736  225.0424 H   0  0  0  0  0  0  0  0  0  0  0  0
  139.0433   80.6011  223.7725 H   0  0  0  0  0  0  0  0  0  0  0  0
  137.4889   81.5013  223.7725 H   0  0  0  0  0  0  0  0  0  0  0  0
  137.1177   78.5679  223.7156 H   0  0  0  0  0  0  0  0  0  0  0  0
  136.4174   79.8533  222.6553 H   0  0  0  0  0  0  0  0  0  0  0  0
  141.0564   79.6040  220.4478 H   0  0  0  0  0  0  0  0  0  0  0  0
  143.1269   80.8382  221.1609 H   0  0  0  0  0  0  0  0  0  0  0  0
  143.7815   80.8788  223.5545 H   0  0  0  0  0  0  0  0  0  0  0  0
  142.4083   79.7098  225.2502 H   0  0  0  0  0  0  0  0  0  0  0  0
  140.3405   78.4756  224.5565 H   0  0  0  0  0  0  0  0  0  0  0  0
  139.3950   76.8178  220.7600 H   0  0  0  0  0  0  0  0  0  0  0  0
  138.8569   75.9406  223.6791 H   0  0  0  0  0  0  0  0  0  0  0  0
  137.5477   76.4268  222.5844 H   0  0  0  0  0  0  0  0  0  0  0  0
  138.0730   73.9066  222.6132 H   0  0  0  0  0  0  0  0  0  0  0  0
  138.1384   74.6782  220.9832 H   0  0  0  0  0  0  0  0  0  0  0  0
  138.2548   72.3575  222.5457 H   0  0  0  0  0  0  0  0  0  0  0  0
  139.0606   71.0853  221.5907 H   0  0  0  0  0  0  0  0  0  0  0  0
  140.7949   72.8785  224.1877 H   0  0  0  0  0  0  0  0  0  0  0  0
  141.6071   71.9413  226.3329 H   0  0  0  0  0  0  0  0  0  0  0  0
  141.6232   70.1501  227.8643 H   0  0  0  0  0  0  0  0  0  0  0  0
  140.9241   67.8762  228.5988 H   0  0  0  0  0  0  0  0  0  0  0  0
  139.3958   66.5675  227.1208 H   0  0  0  0  0  0  0  0  0  0  0  0
  138.5939   67.5113  224.9792 H   0  0  0  0  0  0  0  0  0  0  0  0
  138.5235   69.3095  223.3534 H   0  0  0  0  0  0  0  0  0  0  0  0
  142.0337   74.5628  221.7343 H   0  0  0  0  0  0  0  0  0  0  0  0
  141.0820   75.2332  220.3799 H   0  0  0  0  0  0  0  0  0  0  0  0
  140.9690   76.1645  223.3155 H   0  0  0  0  0  0  0  0  0  0  0  0
  141.7217   77.0629  221.9915 H   0  0  0  0  0  0  0  0  0  0  0  0
  1  2  1  0
  2  3  1  0
  3  4  2  0
  3  5  1  0
  5  6  1  0
  6  7  2  0
  7  8  1  0
  8  9  2  0
  9 10  1  0
 10 11  2  0
  5 12  1  0
 12 13  1  0
 13 14  1  0
 14 15  1  0
 15 16  1  0
 16 17  2  0
 16 18  1  0
 18 19  1  0
 19 20  2  0
 20 21  1  0
 21 22  2  0
 22 23  1  0
 23 24  2  0
 24 25  1  0
 25 26  2  0
 26 27  1  0
 27 28  2  0
 15 29  1  0
 29 30  1  0
 11  6  1  0
 30 12  1  0
 28 19  1  0
 27 22  1  0
  1 31  1  0
  1 32  1  0
  1 33  1  0
  2 34  1  0
  2 35  1  0
  7 36  1  0
  8 37  1  0
  9 38  1  0
 10 39  1  0
 11 40  1  0
 12 41  1  0
 13 42  1  0
 13 43  1  0
 14 44  1  0
 14 45  1  0
 18 46  1  0
 18 47  1  0
 20 48  1  0
 21 49  1  0
 23 50  1  0
 24 51  1  0
 25 52  1  0
 26 53  1  0
 28 54  1  0
 29 55  1  0
 29 56  1  0
 30 57  1  0
 30 58  1  0
M  END
>  <smiles>  (33) 
CCC(=O)N(c1ccccc1)C1CCN(C(=O)Cc2ccc3ccccc3c2)CC1

>  <score_type>  (33) 
oracle

>  <origin>  (33) 
autodockgpu

>  <m_score__min__energy>  (33) 
-9.0999999999999996

>  <m_primary>  (33) 
energy

>  <rmsd>  (33) 
9.613428409416725

>  <m_score__min__rmsd>  (33) 
9.613428409416725

>  <meeko>  (33) 
{"free_energy": -8.98, "intermolecular_energy": -10.77, "internal_energy": -1.37, "cluster_size": 46, "cluster_id": 1, "rank_in_cluster": 21}

>  <energy>  (33) 
-8.93

>  <cluster_rmsd>  (33) 
1.79

>  <cluster>  (33) 
1

$$$$

     RDKit          3D

 58 61  0  0  0  0  0  0  0  0999 V2000
  138.1190   80.5560  224.4230 C   0  0  0  0  0  0  0  0  0  0  0  0
  138.0140   80.2340  222.9310 C   0  0  0  0  0  0  0  0  0  0  0  0
  138.2160   78.8010  222.6870 C   0  0  0  0  0  0  0  0  0  0  0  0
  137.1590   78.0700  222.7400 O   0  0  0  0  0  0  0  0  0  0  0  0
  139.4100   78.1240  222.4030 N   0  0  0  0  0  0  0  0  0  0  0  0
  140.6130   78.9510  222.5560 C   0  0  0  0  0  0  0  0  0  0  0  0
  141.2000   79.0740  223.8010 C   0  0  0  0  0  0  0  0  0  0  0  0
  142.3450   79.8690  223.9120 C   0  0  0  0  0  0  0  0  0  0  0  0
  142.8600   80.5080  222.7940 C   0  0  0  0  0  0  0  0  0  0  0  0
  142.2510   80.3670  221.5620 C   0  0  0  0  0  0  0  0  0  0  0  0
  141.1080   79.5780  221.4300 C   0  0  0  0  0  0  0  0  0  0  0  0
  139.6270   76.7920  221.9960 C   0  0  0  0  0  0  0  0  0  0  0  0
  138.6510   75.7920  222.6340 C   0  0  0  0  0  0  0  0  0  0  0  0
  138.7640   74.5030  221.8240 C   0  0  0  0  0  0  0  0  0  0  0  0
  140.1580   74.1330  221.6430 N   0  0  0  0  0  0  0  0  0  0  0  0
  140.4820   72.7280  221.6870 C   0  0  0  0  0  0  0  0  0  0  0  0
  141.6780   72.3280  221.5380 O   0  0  0  0  0  0  0  0  0  0  0  0
  139.4550   71.6980  221.9070 C   0  0  0  0  0  0  0  0  0  0  0  0
  139.6080   71.1970  223.2990 C   0  0  0  0  0  0  0  0  0  0  0  0
  138.9850   69.9830  223.6000 C   0  0  0  0  0  0  0  0  0  0  0  0
  139.0510   69.4130  224.8490 C   0  0  0  0  0  0  0  0  0  0  0  0
  139.7660   70.0910  225.8160 C   0  0  0  0  0  0  0  0  0  0  0  0
  139.8510   69.5430  227.0810 C   0  0  0  0  0  0  0  0  0  0  0  0
  140.5500   70.1650  228.1020 C   0  0  0  0  0  0  0  0  0  0  0  0
  141.1700   71.3700  227.8120 C   0  0  0  0  0  0  0  0  0  0  0  0
  141.0940   71.9330  226.5450 C   0  0  0  0  0  0  0  0  0  0  0  0
  140.3880   71.2940  225.5310 C   0  0  0  0  0  0  0  0  0  0  0  0
  140.3220   71.8740  224.2640 C   0  0  0  0  0  0  0  0  0  0  0  0
  141.2250   75.0680  221.4250 C   0  0  0  0  0  0  0  0  0  0  0  0
  141.0010   76.2630  222.3450 C   0  0  0  0  0  0  0  0  0  0  0  0
  137.8306   79.6716  225.0101 H   0  0  0  0  0  0  0  0  0  0  0  0
  139.1548   80.8355  224.6658 H   0  0  0  0  0  0  0  0  0  0  0  0
  137.4470   81.3924  224.6658 H   0  0  0  0  0  0  0  0  0  0  0  0
  137.0161   80.5233  222.5699 H   0  0  0  0  0  0  0  0  0  0  0  0
  138.7947   80.7942  222.3957 H   0  0  0  0  0  0  0  0  0  0  0  0
  140.7790   78.5617  224.6787 H   0  0  0  0  0  0  0  0  0  0  0  0
  142.8382   79.9878  224.8880 H   0  0  0  0  0  0  0  0  0  0  0  0
  143.7607   81.1322  222.8890 H   0  0  0  0  0  0  0  0  0  0  0  0
  142.6687   80.8785  220.6823 H   0  0  0  0  0  0  0  0  0  0  0  0
  140.6141   79.4586  220.4544 H   0  0  0  0  0  0  0  0  0  0  0  0
  139.4886   76.8569  220.9067 H   0  0  0  0  0  0  0  0  0  0  0  0
  138.9267   75.6077  223.6828 H   0  0  0  0  0  0  0  0  0  0  0  0
  137.6214   76.1791  222.6259 H   0  0  0  0  0  0  0  0  0  0  0  0
  138.2416   73.6945  222.3564 H   0  0  0  0  0  0  0  0  0  0  0  0
  138.3087   74.6642  220.8357 H   0  0  0  0  0  0  0  0  0  0  0  0
  138.4535   72.1329  221.7733 H   0  0  0  0  0  0  0  0  0  0  0  0
  139.5736   70.8755  221.1863 H   0  0  0  0  0  0  0  0  0  0  0  0
  138.4219   69.4652  222.8095 H   0  0  0  0  0  0  0  0  0  0  0  0
  138.5547   68.4563  225.0690 H   0  0  0  0  0  0  0  0  0  0  0  0
  139.3492   68.5852  227.2832 H   0  0  0  0  0  0  0  0  0  0  0  0
  140.6108   69.7192  229.1058 H   0  0  0  0  0  0  0  0  0  0  0  0
  141.7331   71.8905  228.6007 H   0  0  0  0  0  0  0  0  0  0  0  0
  141.5954   72.8907  226.3418 H   0  0  0  0  0  0  0  0  0  0  0  0
  140.8186   72.8307  224.0446 H   0  0  0  0  0  0  0  0  0  0  0  0
  142.1899   74.5938  221.6575 H   0  0  0  0  0  0  0  0  0  0  0  0
  141.2392   75.3927  220.3741 H   0  0  0  0  0  0  0  0  0  0  0  0
  141.0354   75.9485  223.3985 H   0  0  0  0  0  0  0  0  0  0  0  0
  141.7784   77.0300  222.2133 H   0  0  0  0  0  0  0  0  0  0  0  0
  1  2  1  0
  2  3  1  0
  3  4  2  0
  3  5  1  0
  5  6  1  0
  6  7  2  0
  7  8  1  0
  8  9  2  0
  9 10  1  0
 10 11  2  0
  5 12  1  0
 12 13  1  0
 13 14  1  0
 14 15  1  0
 15 16  1  0
 16 17  2  0
 16 18  1  0
 18 19  1  0
 19 20  2  0
 20 21  1  0
 21 22  2  0
 22 23  1  0
 23 24  2  0
 24 25  1  0
 25 26  2  0
 26 27  1  0
 27 28  2  0
 15 29  1  0
 29 30  1  0
 11  6  1  0
 30 12  1  0
 28 19  1  0
 27 22  1  0
  1 31  1  0
  1 32  1  0
  1 33  1  0
  2 34  1  0
  2 35  1  0
  7 36  1  0
  8 37  1  0
  9 38  1  0
 10 39  1  0
 11 40  1  0
 12 41  1  0
 13 42  1  0
 13 43  1  0
 14 44  1  0
 14 45  1  0
 18 46  1  0
 18 47  1  0
 20 48  1  0
 21 49  1  0
 23 50  1  0
 24 51  1  0
 25 52  1  0
 26 53  1  0
 28 54  1  0
 29 55  1  0
 29 56  1  0
 30 57  1  0
 30 58  1  0
M  END
>  <smiles>  (34) 
CCC(=O)N(c1ccccc1)C1CCN(C(=O)Cc2ccc3ccccc3c2)CC1

>  <score_type>  (34) 
oracle

>  <origin>  (34) 
autodockgpu

>  <m_score__min__energy>  (34) 
-9.0999999999999996

>  <m_primary>  (34) 
energy

>  <rmsd>  (34) 
8.159783117721055

>  <m_score__min__rmsd>  (34) 
8.159783117721055

>  <meeko>  (34) 
{"free_energy": -9.1, "intermolecular_energy": -10.89, "internal_energy": -1.46, "cluster_size": 46, "cluster_id": 1, "rank_in_cluster": 1}

>  <energy>  (34) 
-8.93

>  <cluster_rmsd>  (34) 
0.32

>  <cluster>  (34) 
1

$$$$

     RDKit          3D

 58 61  0  0  0  0  0  0  0  0999 V2000
  138.1910   80.8540  223.8280 C   0  0  0  0  0  0  0  0  0  0  0  0
  137.5260   79.5940  223.2690 C   0  0  0  0  0  0  0  0  0  0  0  0
  138.2840   79.0600  222.1320 C   0  0  0  0  0  0  0  0  0  0  0  0
  137.8340   79.3640  220.9670 O   0  0  0  0  0  0  0  0  0  0  0  0
  139.4370   78.2620  222.1500 N   0  0  0  0  0  0  0  0  0  0  0  0
  140.6590   78.9920  222.5090 C   0  0  0  0  0  0  0  0  0  0  0  0
  141.0710   79.0240  223.8280 C   0  0  0  0  0  0  0  0  0  0  0  0
  142.2390   79.7280  224.1340 C   0  0  0  0  0  0  0  0  0  0  0  0
  142.9490   80.3690  223.1310 C   0  0  0  0  0  0  0  0  0  0  0  0
  142.5120   80.3210  221.8210 C   0  0  0  0  0  0  0  0  0  0  0  0
  141.3500   79.6240  221.4940 C   0  0  0  0  0  0  0  0  0  0  0  0
  139.5980   76.8880  221.8790 C   0  0  0  0  0  0  0  0  0  0  0  0
  138.6110   75.9940  222.6440 C   0  0  0  0  0  0  0  0  0  0  0  0
  138.6560   74.6260  221.9690 C   0  0  0  0  0  0  0  0  0  0  0  0
  140.0320   74.1900  221.7900 N   0  0  0  0  0  0  0  0  0  0  0  0
  140.3110   72.7860  221.9710 C   0  0  0  0  0  0  0  0  0  0  0  0
  141.4890   72.3310  221.8320 O   0  0  0  0  0  0  0  0  0  0  0  0
  139.2590   71.8210  222.3250 C   0  0  0  0  0  0  0  0  0  0  0  0
  139.6650   71.1540  223.5900 C   0  0  0  0  0  0  0  0  0  0  0  0
  140.5030   71.8810  224.4400 C   0  0  0  0  0  0  0  0  0  0  0  0
  140.9500   71.3780  225.6390 C   0  0  0  0  0  0  0  0  0  0  0  0
  140.5360   70.1060  225.9840 C   0  0  0  0  0  0  0  0  0  0  0  0
  140.9680   69.5730  227.1820 C   0  0  0  0  0  0  0  0  0  0  0  0
  140.5950   68.3050  227.5950 C   0  0  0  0  0  0  0  0  0  0  0  0
  139.7650   67.5770  226.7580 C   0  0  0  0  0  0  0  0  0  0  0  0
  139.3220   68.0990  225.5500 C   0  0  0  0  0  0  0  0  0  0  0  0
  139.7070   69.3760  225.1510 C   0  0  0  0  0  0  0  0  0  0  0  0
  139.2530   69.8850  223.9340 C   0  0  0  0  0  0  0  0  0  0  0  0
  141.1210   75.0590  221.4470 C   0  0  0  0  0  0  0  0  0  0  0  0
  140.9650   76.3490  222.2430 C   0  0  0  0  0  0  0  0  0  0  0  0
  138.1735   80.8209  224.9274 H   0  0  0  0  0  0  0  0  0  0  0  0
  139.2330   80.9042  223.4792 H   0  0  0  0  0  0  0  0  0  0  0  0
  137.6444   81.7426  223.4792 H   0  0  0  0  0  0  0  0  0  0  0  0
  137.4787   78.8311  224.0600 H   0  0  0  0  0  0  0  0  0  0  0  0
  136.5145   79.8549  222.9244 H   0  0  0  0  0  0  0  0  0  0  0  0
  140.4968   78.5107  224.6134 H   0  0  0  0  0  0  0  0  0  0  0  0
  142.5957   79.7734  225.1736 H   0  0  0  0  0  0  0  0  0  0  0  0
  143.8678   80.9204  223.3798 H   0  0  0  0  0  0  0  0  0  0  0  0
  143.0830   80.8346  221.0335 H   0  0  0  0  0  0  0  0  0  0  0  0
  140.9928   79.5786  220.4546 H   0  0  0  0  0  0  0  0  0  0  0  0
  139.4276   76.8454  220.7931 H   0  0  0  0  0  0  0  0  0  0  0  0
  138.9137   75.9082  223.6980 H   0  0  0  0  0  0  0  0  0  0  0  0
  137.5948   76.4147  222.6249 H   0  0  0  0  0  0  0  0  0  0  0  0
  138.1237   73.8955  222.5960 H   0  0  0  0  0  0  0  0  0  0  0  0
  138.1759   74.7008  220.9822 H   0  0  0  0  0  0  0  0  0  0  0  0
  138.3025   72.3451  222.4680 H   0  0  0  0  0  0  0  0  0  0  0  0
  139.1302   71.0797  221.5226 H   0  0  0  0  0  0  0  0  0  0  0  0
  140.8161   72.8916  224.1390 H   0  0  0  0  0  0  0  0  0  0  0  0
  141.6096   71.9639  226.2960 H   0  0  0  0  0  0  0  0  0  0  0  0
  141.6273   70.1726  227.8268 H   0  0  0  0  0  0  0  0  0  0  0  0
  140.9448   67.8910  228.5522 H   0  0  0  0  0  0  0  0  0  0  0  0
  139.4509   66.5659  227.0562 H   0  0  0  0  0  0  0  0  0  0  0  0
  138.6629   67.5000  224.9044 H   0  0  0  0  0  0  0  0  0  0  0  0
  138.5942   69.2982  223.2770 H   0  0  0  0  0  0  0  0  0  0  0  0
  142.0768   74.5773  221.7009 H   0  0  0  0  0  0  0  0  0  0  0  0
  141.1128   75.2732  220.3681 H   0  0  0  0  0  0  0  0  0  0  0  0
  141.0221   76.1438  223.3222 H   0  0  0  0  0  0  0  0  0  0  0  0
  141.7624   77.0701  222.0105 H   0  0  0  0  0  0  0  0  0  0  0  0
  1  2  1  0
  2  3  1  0
  3  4  2  0
  3  5  1  0
  5  6  1  0
  6  7  2  0
  7  8  1  0
  8  9  2  0
  9 10  1  0
 10 11  2  0
  5 12  1  0
 12 13  1  0
 13 14  1  0
 14 15  1  0
 15 16  1  0
 16 17  2  0
 16 18  1  0
 18 19  1  0
 19 20  2  0
 20 21  1  0
 21 22  2  0
 22 23  1  0
 23 24  2  0
 24 25  1  0
 25 26  2  0
 26 27  1  0
 27 28  2  0
 15 29  1  0
 29 30  1  0
 11  6  1  0
 30 12  1  0
 28 19  1  0
 27 22  1  0
  1 31  1  0
  1 32  1  0
  1 33  1  0
  2 34  1  0
  2 35  1  0
  7 36  1  0
  8 37  1  0
  9 38  1  0
 10 39  1  0
 11 40  1  0
 12 41  1  0
 13 42  1  0
 13 43  1  0
 14 44  1  0
 14 45  1  0
 18 46  1  0
 18 47  1  0
 20 48  1  0
 21 49  1  0
 23 50  1  0
 24 51  1  0
 25 52  1  0
 26 53  1  0
 28 54  1  0
 29 55  1  0
 29 56  1  0
 30 57  1  0
 30 58  1  0
M  END
>  <smiles>  (35) 
CCC(=O)N(c1ccccc1)C1CCN(C(=O)Cc2ccc3ccccc3c2)CC1

>  <score_type>  (35) 
oracle

>  <origin>  (35) 
autodockgpu

>  <m_score__min__energy>  (35) 
-9.0999999999999996

>  <m_primary>  (35) 
energy

>  <rmsd>  (35) 
9.601979951712433

>  <m_score__min__rmsd>  (35) 
9.601979951712433

>  <meeko>  (35) 
{"free_energy": -8.96, "intermolecular_energy": -10.75, "internal_energy": -1.39, "cluster_size": 46, "cluster_id": 1, "rank_in_cluster": 26}

>  <energy>  (35) 
-8.93

>  <cluster_rmsd>  (35) 
0.25

>  <cluster>  (35) 
1

$$$$

     RDKit          3D

 58 61  0  0  0  0  0  0  0  0999 V2000
  138.1780   81.3230  222.9690 C   0  0  0  0  0  0  0  0  0  0  0  0
  138.0540   79.9950  223.7190 C   0  0  0  0  0  0  0  0  0  0  0  0
  138.2150   78.8580  222.8050 C   0  0  0  0  0  0  0  0  0  0  0  0
  137.1360   78.4250  222.2550 O   0  0  0  0  0  0  0  0  0  0  0  0
  139.3920   78.1840  222.4510 N   0  0  0  0  0  0  0  0  0  0  0  0
  140.6010   79.0090  222.5450 C   0  0  0  0  0  0  0  0  0  0  0  0
  141.0570   79.6780  221.4250 C   0  0  0  0  0  0  0  0  0  0  0  0
  142.2120   80.4570  221.5500 C   0  0  0  0  0  0  0  0  0  0  0  0
  142.8670   80.5410  222.7700 C   0  0  0  0  0  0  0  0  0  0  0  0
  142.3870   79.8590  223.8720 C   0  0  0  0  0  0  0  0  0  0  0  0
  141.2370   79.0780  223.7680 C   0  0  0  0  0  0  0  0  0  0  0  0
  139.5850   76.8540  222.0230 C   0  0  0  0  0  0  0  0  0  0  0  0
  138.6070   75.8570  222.6610 C   0  0  0  0  0  0  0  0  0  0  0  0
  138.6900   74.5790  221.8320 C   0  0  0  0  0  0  0  0  0  0  0  0
  140.0770   74.1940  221.6240 N   0  0  0  0  0  0  0  0  0  0  0  0
  140.3840   72.7850  221.6430 C   0  0  0  0  0  0  0  0  0  0  0  0
  141.5720   72.3720  221.4700 O   0  0  0  0  0  0  0  0  0  0  0  0
  139.3470   71.7640  221.8650 C   0  0  0  0  0  0  0  0  0  0  0  0
  139.4880   71.2740  223.2620 C   0  0  0  0  0  0  0  0  0  0  0  0
  138.7560   70.1340  223.6020 C   0  0  0  0  0  0  0  0  0  0  0  0
  138.7980   69.5800  224.8600 C   0  0  0  0  0  0  0  0  0  0  0  0
  139.6040   70.1990  225.7950 C   0  0  0  0  0  0  0  0  0  0  0  0
  139.6680   69.6670  227.0680 C   0  0  0  0  0  0  0  0  0  0  0  0
  140.4530   70.2320  228.0580 C   0  0  0  0  0  0  0  0  0  0  0  0
  141.1830   71.3640  227.7290 C   0  0  0  0  0  0  0  0  0  0  0  0
  141.1290   71.9110  226.4540 C   0  0  0  0  0  0  0  0  0  0  0  0
  140.3340   71.3290  225.4710 C   0  0  0  0  0  0  0  0  0  0  0  0
  140.2910   71.8920  224.1950 C   0  0  0  0  0  0  0  0  0  0  0  0
  141.1520   75.1190  221.4020 C   0  0  0  0  0  0  0  0  0  0  0  0
  140.9580   76.3030  222.3420 C   0  0  0  0  0  0  0  0  0  0  0  0
  138.2550   82.1473  223.6933 H   0  0  0  0  0  0  0  0  0  0  0  0
  139.0783   81.3047  222.3373 H   0  0  0  0  0  0  0  0  0  0  0  0
  137.2898   81.4717  222.3373 H   0  0  0  0  0  0  0  0  0  0  0  0
  138.8323   79.9459  224.4948 H   0  0  0  0  0  0  0  0  0  0  0  0
  137.0535   79.9409  224.1730 H   0  0  0  0  0  0  0  0  0  0  0  0
  140.5275   79.6002  220.4640 H   0  0  0  0  0  0  0  0  0  0  0  0
  142.6018   81.0042  220.6790 H   0  0  0  0  0  0  0  0  0  0  0  0
  143.7752   81.1550  222.8609 H   0  0  0  0  0  0  0  0  0  0  0  0
  142.9142   79.9327  224.8346 H   0  0  0  0  0  0  0  0  0  0  0  0
  140.8464   78.5306  224.6385 H   0  0  0  0  0  0  0  0  0  0  0  0
  139.4292   76.9362  220.9372 H   0  0  0  0  0  0  0  0  0  0  0  0
  138.8967   75.6540  223.7026 H   0  0  0  0  0  0  0  0  0  0  0  0
  137.5825   76.2572  222.6739 H   0  0  0  0  0  0  0  0  0  0  0  0
  138.1655   73.7698  222.3613 H   0  0  0  0  0  0  0  0  0  0  0  0
  138.2211   74.7595  220.8535 H   0  0  0  0  0  0  0  0  0  0  0  0
  138.3497   72.2053  221.7215 H   0  0  0  0  0  0  0  0  0  0  0  0
  139.4634   70.9347  221.1518 H   0  0  0  0  0  0  0  0  0  0  0  0
  138.1231   69.6623  222.8359 H   0  0  0  0  0  0  0  0  0  0  0  0
  138.2144   68.6820  225.1108 H   0  0  0  0  0  0  0  0  0  0  0  0
  139.0781   68.7684  227.3017 H   0  0  0  0  0  0  0  0  0  0  0  0
  140.4962   69.7991  229.0683 H   0  0  0  0  0  0  0  0  0  0  0  0
  141.8171   71.8378  228.4928 H   0  0  0  0  0  0  0  0  0  0  0  0
  141.7181   72.8098  226.2194 H   0  0  0  0  0  0  0  0  0  0  0  0
  140.8735   72.7910  223.9449 H   0  0  0  0  0  0  0  0  0  0  0  0
  142.1145   74.6297  221.6120 H   0  0  0  0  0  0  0  0  0  0  0  0
  141.1532   75.4586  220.3557 H   0  0  0  0  0  0  0  0  0  0  0  0
  141.0054   75.9730  223.3903 H   0  0  0  0  0  0  0  0  0  0  0  0
  141.7428   77.0621  222.2084 H   0  0  0  0  0  0  0  0  0  0  0  0
  1  2  1  0
  2  3  1  0
  3  4  2  0
  3  5  1  0
  5  6  1  0
  6  7  2  0
  7  8  1  0
  8  9  2  0
  9 10  1  0
 10 11  2  0
  5 12  1  0
 12 13  1  0
 13 14  1  0
 14 15  1  0
 15 16  1  0
 16 17  2  0
 16 18  1  0
 18 19  1  0
 19 20  2  0
 20 21  1  0
 21 22  2  0
 22 23  1  0
 23 24  2  0
 24 25  1  0
 25 26  2  0
 26 27  1  0
 27 28  2  0
 15 29  1  0
 29 30  1  0
 11  6  1  0
 30 12  1  0
 28 19  1  0
 27 22  1  0
  1 31  1  0
  1 32  1  0
  1 33  1  0
  2 34  1  0
  2 35  1  0
  7 36  1  0
  8 37  1  0
  9 38  1  0
 10 39  1  0
 11 40  1  0
 12 41  1  0
 13 42  1  0
 13 43  1  0
 14 44  1  0
 14 45  1  0
 18 46  1  0
 18 47  1  0
 20 48  1  0
 21 49  1  0
 23 50  1  0
 24 51  1  0
 25 52  1  0
 26 53  1  0
 28 54  1  0
 29 55  1  0
 29 56  1  0
 30 57  1  0
 30 58  1  0
M  END
>  <smiles>  (36) 
CCC(=O)N(c1ccccc1)C1CCN(C(=O)Cc2ccc3ccccc3c2)CC1

>  <score_type>  (36) 
oracle

>  <origin>  (36) 
autodockgpu

>  <m_score__min__energy>  (36) 
-9.0999999999999996

>  <m_primary>  (36) 
energy

>  <rmsd>  (36) 
8.139997759764693

>  <m_score__min__rmsd>  (36) 
8.139997759764693

>  <meeko>  (36) 
{"free_energy": -8.92, "intermolecular_energy": -10.71, "internal_energy": -1.54, "cluster_size": 46, "cluster_id": 1, "rank_in_cluster": 38}

>  <energy>  (36) 
-8.93

>  <cluster_rmsd>  (36) 
0.32

>  <cluster>  (36) 
1

$$$$

     RDKit          3D

 58 61  0  0  0  0  0  0  0  0999 V2000
  138.0370   80.6170  224.3940 C   0  0  0  0  0  0  0  0  0  0  0  0
  137.9850   80.4340  222.8760 C   0  0  0  0  0  0  0  0  0  0  0  0
  138.1380   79.0210  222.5120 C   0  0  0  0  0  0  0  0  0  0  0  0
  137.0460   78.3700  222.3230 O   0  0  0  0  0  0  0  0  0  0  0  0
  139.3220   78.2880  222.3400 N   0  0  0  0  0  0  0  0  0  0  0  0
  140.5440   79.0780  222.5320 C   0  0  0  0  0  0  0  0  0  0  0  0
  141.0950   79.1810  223.7950 C   0  0  0  0  0  0  0  0  0  0  0  0
  142.2600   79.9400  223.9430 C   0  0  0  0  0  0  0  0  0  0  0  0
  142.8280   80.5650  222.8440 C   0  0  0  0  0  0  0  0  0  0  0  0
  142.2530   80.4450  221.5930 C   0  0  0  0  0  0  0  0  0  0  0  0
  141.0920   79.6910  221.4240 C   0  0  0  0  0  0  0  0  0  0  0  0
  139.5110   76.9290  222.0140 C   0  0  0  0  0  0  0  0  0  0  0  0
  138.5020   75.9910  222.6920 C   0  0  0  0  0  0  0  0  0  0  0  0
  138.5950   74.6560  221.9590 C   0  0  0  0  0  0  0  0  0  0  0  0
  139.9820   74.2430  221.8220 N   0  0  0  0  0  0  0  0  0  0  0  0
  140.2710   72.8350  221.9520 C   0  0  0  0  0  0  0  0  0  0  0  0
  141.4590   72.3990  221.8460 O   0  0  0  0  0  0  0  0  0  0  0  0
  139.2160   71.8440  222.2130 C   0  0  0  0  0  0  0  0  0  0  0  0
  139.5050   71.2130  223.5280 C   0  0  0  0  0  0  0  0  0  0  0  0
  139.1350   69.8740  223.6750 C   0  0  0  0  0  0  0  0  0  0  0  0
  139.3460   69.1750  224.8400 C   0  0  0  0  0  0  0  0  0  0  0  0
  139.9500   69.8530  225.8820 C   0  0  0  0  0  0  0  0  0  0  0  0
  140.1760   69.1780  227.0650 C   0  0  0  0  0  0  0  0  0  0  0  0
  140.7760   69.7910  228.1530 C   0  0  0  0  0  0  0  0  0  0  0  0
  141.1460   71.1200  228.0160 C   0  0  0  0  0  0  0  0  0  0  0  0
  140.9240   71.8110  226.8320 C   0  0  0  0  0  0  0  0  0  0  0  0
  140.3210   71.1790  225.7490 C   0  0  0  0  0  0  0  0  0  0  0  0
  140.1060   71.8890  224.5670 C   0  0  0  0  0  0  0  0  0  0  0  0
  141.0750   75.1380  221.5690 C   0  0  0  0  0  0  0  0  0  0  0  0
  140.8670   76.3890  222.4150 C   0  0  0  0  0  0  0  0  0  0  0  0
  137.7682   79.6710  224.8868 H   0  0  0  0  0  0  0  0  0  0  0  0
  139.0540   80.9103  224.6933 H   0  0  0  0  0  0  0  0  0  0  0  0
  137.3262   81.4013  224.6933 H   0  0  0  0  0  0  0  0  0  0  0  0
  137.0169   80.7990  222.5025 H   0  0  0  0  0  0  0  0  0  0  0  0
  138.8111   81.0037  222.4255 H   0  0  0  0  0  0  0  0  0  0  0  0
  140.6311   78.6810  224.6580 H   0  0  0  0  0  0  0  0  0  0  0  0
  142.7267   80.0413  224.9339 H   0  0  0  0  0  0  0  0  0  0  0  0
  143.7439   81.1614  222.9685 H   0  0  0  0  0  0  0  0  0  0  0  0
  142.7125   80.9457  220.7280 H   0  0  0  0  0  0  0  0  0  0  0  0
  140.6253   79.5877  220.4333 H   0  0  0  0  0  0  0  0  0  0  0  0
  139.3889   76.9337  220.9208 H   0  0  0  0  0  0  0  0  0  0  0  0
  138.7578   75.8606  223.7539 H   0  0  0  0  0  0  0  0  0  0  0  0
  137.4824   76.4013  222.6455 H   0  0  0  0  0  0  0  0  0  0  0  0
  138.0449   73.8921  222.5280 H   0  0  0  0  0  0  0  0  0  0  0  0
  138.1586   74.7711  220.9559 H   0  0  0  0  0  0  0  0  0  0  0  0
  138.2348   72.3403  222.2430 H   0  0  0  0  0  0  0  0  0  0  0  0
  139.1947   71.0848  221.4173 H   0  0  0  0  0  0  0  0  0  0  0  0
  138.6574   69.3601  222.8278 H   0  0  0  0  0  0  0  0  0  0  0  0
  139.0468   68.1211  224.9386 H   0  0  0  0  0  0  0  0  0  0  0  0
  139.8712   68.1242  227.1460 H   0  0  0  0  0  0  0  0  0  0  0  0
  140.9523   69.2435  229.0907 H   0  0  0  0  0  0  0  0  0  0  0  0
  141.6244   71.6369  228.8610 H   0  0  0  0  0  0  0  0  0  0  0  0
  141.2270   72.8653  226.7498 H   0  0  0  0  0  0  0  0  0  0  0  0
  140.4037   72.9434  224.4691 H   0  0  0  0  0  0  0  0  0  0  0  0
  142.0241   74.6550  221.8445 H   0  0  0  0  0  0  0  0  0  0  0  0
  141.1133   75.4013  220.5017 H   0  0  0  0  0  0  0  0  0  0  0  0
  140.8784   76.1353  223.4853 H   0  0  0  0  0  0  0  0  0  0  0  0
  141.6647   77.1286  222.2519 H   0  0  0  0  0  0  0  0  0  0  0  0
  1  2  1  0
  2  3  1  0
  3  4  2  0
  3  5  1  0
  5  6  1  0
  6  7  2  0
  7  8  1  0
  8  9  2  0
  9 10  1  0
 10 11  2  0
  5 12  1  0
 12 13  1  0
 13 14  1  0
 14 15  1  0
 15 16  1  0
 16 17  2  0
 16 18  1  0
 18 19  1  0
 19 20  2  0
 20 21  1  0
 21 22  2  0
 22 23  1  0
 23 24  2  0
 24 25  1  0
 25 26  2  0
 26 27  1  0
 27 28  2  0
 15 29  1  0
 29 30  1  0
 11  6  1  0
 30 12  1  0
 28 19  1  0
 27 22  1  0
  1 31  1  0
  1 32  1  0
  1 33  1  0
  2 34  1  0
  2 35  1  0
  7 36  1  0
  8 37  1  0
  9 38  1  0
 10 39  1  0
 11 40  1  0
 12 41  1  0
 13 42  1  0
 13 43  1  0
 14 44  1  0
 14 45  1  0
 18 46  1  0
 18 47  1  0
 20 48  1  0
 21 49  1  0
 23 50  1  0
 24 51  1  0
 25 52  1  0
 26 53  1  0
 28 54  1  0
 29 55  1  0
 29 56  1  0
 30 57  1  0
 30 58  1  0
M  END
>  <smiles>  (37) 
CCC(=O)N(c1ccccc1)C1CCN(C(=O)Cc2ccc3ccccc3c2)CC1

>  <score_type>  (37) 
oracle

>  <origin>  (37) 
autodockgpu

>  <m_score__min__energy>  (37) 
-9.0999999999999996

>  <m_primary>  (37) 
energy

>  <rmsd>  (37) 
8.260980576235394

>  <m_score__min__rmsd>  (37) 
8.260980576235394

>  <meeko>  (37) 
{"free_energy": -9.08, "intermolecular_energy": -10.87, "internal_energy": -1.44, "cluster_size": 46, "cluster_id": 1, "rank_in_cluster": 4}

>  <energy>  (37) 
-8.93

>  <cluster_rmsd>  (37) 
1.83

>  <cluster>  (37) 
1

$$$$

     RDKit          3D

 58 61  0  0  0  0  0  0  0  0999 V2000
  138.0800   80.5280  224.3110 C   0  0  0  0  0  0  0  0  0  0  0  0
  138.0920   80.3590  222.7910 C   0  0  0  0  0  0  0  0  0  0  0  0
  138.2590   78.9490  222.4200 C   0  0  0  0  0  0  0  0  0  0  0  0
  137.1760   78.3030  222.1730 O   0  0  0  0  0  0  0  0  0  0  0  0
  139.4480   78.2150  222.2990 N   0  0  0  0  0  0  0  0  0  0  0  0
  140.6590   78.9910  222.5910 C   0  0  0  0  0  0  0  0  0  0  0  0
  141.3120   79.6450  221.5640 C   0  0  0  0  0  0  0  0  0  0  0  0
  142.4620   80.3760  221.8770 C   0  0  0  0  0  0  0  0  0  0  0  0
  142.9180   80.4300  223.1850 C   0  0  0  0  0  0  0  0  0  0  0  0
  142.2440   79.7650  224.1920 C   0  0  0  0  0  0  0  0  0  0  0  0
  141.0940   79.0310  223.9000 C   0  0  0  0  0  0  0  0  0  0  0  0
  139.6520   76.8660  221.9430 C   0  0  0  0  0  0  0  0  0  0  0  0
  138.6470   75.9030  222.5930 C   0  0  0  0  0  0  0  0  0  0  0  0
  138.7560   74.5860  221.8300 C   0  0  0  0  0  0  0  0  0  0  0  0
  140.1480   74.1890  221.6910 N   0  0  0  0  0  0  0  0  0  0  0  0
  140.4490   72.7820  221.7900 C   0  0  0  0  0  0  0  0  0  0  0  0
  141.6420   72.3590  221.6800 O   0  0  0  0  0  0  0  0  0  0  0  0
  139.4010   71.7750  222.0230 C   0  0  0  0  0  0  0  0  0  0  0  0
  139.5690   71.2620  223.4080 C   0  0  0  0  0  0  0  0  0  0  0  0
  138.8820   70.0880  223.7280 C   0  0  0  0  0  0  0  0  0  0  0  0
  138.9520   69.5100  224.9740 C   0  0  0  0  0  0  0  0  0  0  0  0
  139.7400   70.1400  225.9180 C   0  0  0  0  0  0  0  0  0  0  0  0
  139.8310   69.5840  227.1790 C   0  0  0  0  0  0  0  0  0  0  0  0
  140.6000   70.1590  228.1780 C   0  0  0  0  0  0  0  0  0  0  0  0
  141.2840   71.3240  227.8680 C   0  0  0  0  0  0  0  0  0  0  0  0
  141.2020   71.8940  226.6060 C   0  0  0  0  0  0  0  0  0  0  0  0
  140.4250   71.3030  225.6140 C   0  0  0  0  0  0  0  0  0  0  0  0
  140.3530   71.8900  224.3510 C   0  0  0  0  0  0  0  0  0  0  0  0
  141.2340   75.1000  221.4650 C   0  0  0  0  0  0  0  0  0  0  0  0
  141.0100   76.3290  222.3380 C   0  0  0  0  0  0  0  0  0  0  0  0
  138.1501   79.5404  224.7903 H   0  0  0  0  0  0  0  0  0  0  0  0
  138.9365   81.1462  224.6180 H   0  0  0  0  0  0  0  0  0  0  0  0
  137.1448   81.0190  224.6180 H   0  0  0  0  0  0  0  0  0  0  0  0
  137.1408   80.7288  222.3804 H   0  0  0  0  0  0  0  0  0  0  0  0
  138.9371   80.9317  222.3813 H   0  0  0  0  0  0  0  0  0  0  0  0
  140.9382   79.5921  220.5308 H   0  0  0  0  0  0  0  0  0  0  0  0
  143.0061   80.9094  221.0836 H   0  0  0  0  0  0  0  0  0  0  0  0
  143.8237   81.0069  223.4235 H   0  0  0  0  0  0  0  0  0  0  0  0
  142.6153   79.8146  225.2263 H   0  0  0  0  0  0  0  0  0  0  0  0
  140.5483   78.4981  224.6926 H   0  0  0  0  0  0  0  0  0  0  0  0
  139.5367   76.8953  220.8494 H   0  0  0  0  0  0  0  0  0  0  0  0
  138.8977   75.7502  223.6531 H   0  0  0  0  0  0  0  0  0  0  0  0
  137.6241   76.3053  222.5495 H   0  0  0  0  0  0  0  0  0  0  0  0
  138.2101   73.8042  222.3784 H   0  0  0  0  0  0  0  0  0  0  0  0
  138.3235   74.7200  220.8275 H   0  0  0  0  0  0  0  0  0  0  0  0
  138.4079   72.2347  221.9114 H   0  0  0  0  0  0  0  0  0  0  0  0
  139.4853   70.9548  221.2949 H   0  0  0  0  0  0  0  0  0  0  0  0
  138.2628   69.6088  222.9554 H   0  0  0  0  0  0  0  0  0  0  0  0
  138.4040   68.5856  225.2090 H   0  0  0  0  0  0  0  0  0  0  0  0
  139.2774   68.6587  227.3964 H   0  0  0  0  0  0  0  0  0  0  0  0
  140.6652   69.7080  229.1792 H   0  0  0  0  0  0  0  0  0  0  0  0
  141.9042   71.8061  228.6380 H   0  0  0  0  0  0  0  0  0  0  0  0
  141.7549   72.8195  226.3878 H   0  0  0  0  0  0  0  0  0  0  0  0
  140.8993   72.8157  224.1174 H   0  0  0  0  0  0  0  0  0  0  0  0
  142.1861   74.6195  221.7347 H   0  0  0  0  0  0  0  0  0  0  0  0
  141.2754   75.3882  220.4042 H   0  0  0  0  0  0  0  0  0  0  0  0
  141.0183   76.0508  223.4022 H   0  0  0  0  0  0  0  0  0  0  0  0
  141.8017   77.0793  222.1957 H   0  0  0  0  0  0  0  0  0  0  0  0
  1  2  1  0
  2  3  1  0
  3  4  2  0
  3  5  1  0
  5  6  1  0
  6  7  2  0
  7  8  1  0
  8  9  2  0
  9 10  1  0
 10 11  2  0
  5 12  1  0
 12 13  1  0
 13 14  1  0
 14 15  1  0
 15 16  1  0
 16 17  2  0
 16 18  1  0
 18 19  1  0
 19 20  2  0
 20 21  1  0
 21 22  2  0
 22 23  1  0
 23 24  2  0
 24 25  1  0
 25 26  2  0
 26 27  1  0
 27 28  2  0
 15 29  1  0
 29 30  1  0
 11  6  1  0
 30 12  1  0
 28 19  1  0
 27 22  1  0
  1 31  1  0
  1 32  1  0
  1 33  1  0
  2 34  1  0
  2 35  1  0
  7 36  1  0
  8 37  1  0
  9 38  1  0
 10 39  1  0
 11 40  1  0
 12 41  1  0
 13 42  1  0
 13 43  1  0
 14 44  1  0
 14 45  1  0
 18 46  1  0
 18 47  1  0
 20 48  1  0
 21 49  1  0
 23 50  1  0
 24 51  1  0
 25 52  1  0
 26 53  1  0
 28 54  1  0
 29 55  1  0
 29 56  1  0
 30 57  1  0
 30 58  1  0
M  END
>  <smiles>  (38) 
CCC(=O)N(c1ccccc1)C1CCN(C(=O)Cc2ccc3ccccc3c2)CC1

>  <score_type>  (38) 
oracle

>  <origin>  (38) 
autodockgpu

>  <m_score__min__energy>  (38) 
-9.0999999999999996

>  <m_primary>  (38) 
energy

>  <rmsd>  (38) 
8.174202990869329

>  <m_score__min__rmsd>  (38) 
8.174202990869329

>  <meeko>  (38) 
{"free_energy": -9.06, "intermolecular_energy": -10.85, "internal_energy": -1.48, "cluster_size": 46, "cluster_id": 1, "rank_in_cluster": 10}

>  <energy>  (38) 
-8.92

>  <cluster_rmsd>  (38) 
0.3

>  <cluster>  (38) 
1

$$$$

     RDKit          3D

 58 61  0  0  0  0  0  0  0  0999 V2000
  139.8540   78.1980  218.2260 C   0  0  0  0  0  0  0  0  0  0  0  0
  141.2050   78.7690  218.6600 C   0  0  0  0  0  0  0  0  0  0  0  0
  141.8700   77.8760  219.6160 C   0  0  0  0  0  0  0  0  0  0  0  0
  142.9560   77.3250  219.2040 O   0  0  0  0  0  0  0  0  0  0  0  0
  141.4760   77.5460  220.9210 N   0  0  0  0  0  0  0  0  0  0  0  0
  141.7390   78.6020  221.9050 C   0  0  0  0  0  0  0  0  0  0  0  0
  142.1910   79.8350  221.4760 C   0  0  0  0  0  0  0  0  0  0  0  0
  142.4310   80.8190  222.4400 C   0  0  0  0  0  0  0  0  0  0  0  0
  142.2170   80.5450  223.7830 C   0  0  0  0  0  0  0  0  0  0  0  0
  141.7650   79.3020  224.1820 C   0  0  0  0  0  0  0  0  0  0  0  0
  141.5190   78.3070  223.2360 C   0  0  0  0  0  0  0  0  0  0  0  0
  140.8770   76.3720  221.4210 C   0  0  0  0  0  0  0  0  0  0  0  0
  141.5530   75.0830  220.9310 C   0  0  0  0  0  0  0  0  0  0  0  0
  141.0510   73.9620  221.8360 C   0  0  0  0  0  0  0  0  0  0  0  0
  139.6030   74.0130  221.9590 N   0  0  0  0  0  0  0  0  0  0  0  0
  138.8970   72.7560  222.0100 C   0  0  0  0  0  0  0  0  0  0  0  0
  137.6320   72.7210  222.1160 O   0  0  0  0  0  0  0  0  0  0  0  0
  139.5990   71.4650  221.9420 C   0  0  0  0  0  0  0  0  0  0  0  0
  139.7710   70.9710  223.3340 C   0  0  0  0  0  0  0  0  0  0  0  0
  139.3260   69.6730  223.5970 C   0  0  0  0  0  0  0  0  0  0  0  0
  139.4270   69.0980  224.8420 C   0  0  0  0  0  0  0  0  0  0  0  0
  139.9960   69.8590  225.8440 C   0  0  0  0  0  0  0  0  0  0  0  0
  140.1120   69.3110  227.1060 C   0  0  0  0  0  0  0  0  0  0  0  0
  140.6710   70.0130  228.1610 C   0  0  0  0  0  0  0  0  0  0  0  0
  141.1150   71.3010  227.9080 C   0  0  0  0  0  0  0  0  0  0  0  0
  141.0050   71.8670  226.6450 C   0  0  0  0  0  0  0  0  0  0  0  0
  140.4410   71.1460  225.5960 C   0  0  0  0  0  0  0  0  0  0  0  0
  140.3380   71.7300  224.3340 C   0  0  0  0  0  0  0  0  0  0  0  0
  138.8370   75.2240  222.0310 C   0  0  0  0  0  0  0  0  0  0  0  0
  139.4230   76.2150  221.0320 C   0  0  0  0  0  0  0  0  0  0  0  0
  139.2591   77.9466  219.1164 H   0  0  0  0  0  0  0  0  0  0  0  0
  139.3160   78.9457  217.6247 H   0  0  0  0  0  0  0  0  0  0  0  0
  140.0153   77.2911  217.6247 H   0  0  0  0  0  0  0  0  0  0  0  0
  141.8460   78.8895  217.7743 H   0  0  0  0  0  0  0  0  0  0  0  0
  141.0350   79.7404  219.1473 H   0  0  0  0  0  0  0  0  0  0  0  0
  142.3572   80.0367  220.4075 H   0  0  0  0  0  0  0  0  0  0  0  0
  142.7902   81.8123  222.1329 H   0  0  0  0  0  0  0  0  0  0  0  0
  142.4087   81.3235  224.5361 H   0  0  0  0  0  0  0  0  0  0  0  0
  141.5985   79.0962  225.2497 H   0  0  0  0  0  0  0  0  0  0  0  0
  141.1593   77.3136  223.5421 H   0  0  0  0  0  0  0  0  0  0  0  0
  140.9887   76.5007  222.5077 H   0  0  0  0  0  0  0  0  0  0  0  0
  141.2752   74.8814  219.8859 H   0  0  0  0  0  0  0  0  0  0  0  0
  142.6490   75.1674  220.9716 H   0  0  0  0  0  0  0  0  0  0  0  0
  141.3434   72.9924  221.4066 H   0  0  0  0  0  0  0  0  0  0  0  0
  141.4962   74.0859  222.8342 H   0  0  0  0  0  0  0  0  0  0  0  0
  139.0047   70.7454  221.3597 H   0  0  0  0  0  0  0  0  0  0  0  0
  140.5763   71.5829  221.4511 H   0  0  0  0  0  0  0  0  0  0  0  0
  138.8787   69.0899  222.7785 H   0  0  0  0  0  0  0  0  0  0  0  0
  139.0697   68.0751  225.0317 H   0  0  0  0  0  0  0  0  0  0  0  0
  139.7498   68.2868  227.2786 H   0  0  0  0  0  0  0  0  0  0  0  0
  140.7592   69.5651  229.1618 H   0  0  0  0  0  0  0  0  0  0  0  0
  141.5635   71.8866  228.7240 H   0  0  0  0  0  0  0  0  0  0  0  0
  141.3658   72.8917  226.4720 H   0  0  0  0  0  0  0  0  0  0  0  0
  140.6944   72.7534  224.1450 H   0  0  0  0  0  0  0  0  0  0  0  0
  137.7868   75.0165  221.7781 H   0  0  0  0  0  0  0  0  0  0  0  0
  138.8766   75.6401  223.0485 H   0  0  0  0  0  0  0  0  0  0  0  0
  139.3396   75.8226  220.0077 H   0  0  0  0  0  0  0  0  0  0  0  0
  138.8898   77.1769  221.0519 H   0  0  0  0  0  0  0  0  0  0  0  0
  1  2  1  0
  2  3  1  0
  3  4  2  0
  3  5  1  0
  5  6  1  0
  6  7  2  0
  7  8  1  0
  8  9  2  0
  9 10  1  0
 10 11  2  0
  5 12  1  0
 12 13  1  0
 13 14  1  0
 14 15  1  0
 15 16  1  0
 16 17  2  0
 16 18  1  0
 18 19  1  0
 19 20  2  0
 20 21  1  0
 21 22  2  0
 22 23  1  0
 23 24  2  0
 24 25  1  0
 25 26  2  0
 26 27  1  0
 27 28  2  0
 15 29  1  0
 29 30  1  0
 11  6  1  0
 30 12  1  0
 28 19  1  0
 27 22  1  0
  1 31  1  0
  1 32  1  0
  1 33  1  0
  2 34  1  0
  2 35  1  0
  7 36  1  0
  8 37  1  0
  9 38  1  0
 10 39  1  0
 11 40  1  0
 12 41  1  0
 13 42  1  0
 13 43  1  0
 14 44  1  0
 14 45  1  0
 18 46  1  0
 18 47  1  0
 20 48  1  0
 21 49  1  0
 23 50  1  0
 24 51  1  0
 25 52  1  0
 26 53  1  0
 28 54  1  0
 29 55  1  0
 29 56  1  0
 30 57  1  0
 30 58  1  0
M  END
>  <smiles>  (39) 
CCC(=O)N(c1ccccc1)C1CCN(C(=O)Cc2ccc3ccccc3c2)CC1

>  <score_type>  (39) 
oracle

>  <origin>  (39) 
autodockgpu

>  <m_score__min__energy>  (39) 
-9.0999999999999996

>  <m_primary>  (39) 
energy

>  <rmsd>  (39) 
8.182564871814987

>  <m_score__min__rmsd>  (39) 
8.182564871814987

>  <meeko>  (39) 
{"free_energy": -8.65, "intermolecular_energy": -10.44, "internal_energy": -1.5, "cluster_size": 46, "cluster_id": 1, "rank_in_cluster": 45}

>  <energy>  (39) 
-8.92

>  <cluster_rmsd>  (39) 
1.98

>  <cluster>  (39) 
1

$$$$

     RDKit          3D

 58 61  0  0  0  0  0  0  0  0999 V2000
  138.0210   80.5170  224.1580 C   0  0  0  0  0  0  0  0  0  0  0  0
  138.1210   80.4770  222.6310 C   0  0  0  0  0  0  0  0  0  0  0  0
  138.2950   79.1010  222.1520 C   0  0  0  0  0  0  0  0  0  0  0  0
  137.2510   78.5500  221.6440 O   0  0  0  0  0  0  0  0  0  0  0  0
  139.4530   78.3100  222.1750 N   0  0  0  0  0  0  0  0  0  0  0  0
  140.6710   79.0480  222.5290 C   0  0  0  0  0  0  0  0  0  0  0  0
  141.3900   79.6890  221.5380 C   0  0  0  0  0  0  0  0  0  0  0  0
  142.5450   80.3830  221.9100 C   0  0  0  0  0  0  0  0  0  0  0  0
  142.9410   80.4150  223.2390 C   0  0  0  0  0  0  0  0  0  0  0  0
  142.2010   79.7640  224.2070 C   0  0  0  0  0  0  0  0  0  0  0  0
  141.0450   79.0670  223.8570 C   0  0  0  0  0  0  0  0  0  0  0  0
  139.6200   76.9350  221.9110 C   0  0  0  0  0  0  0  0  0  0  0  0
  138.5810   76.0470  222.6100 C   0  0  0  0  0  0  0  0  0  0  0  0
  138.6580   74.6790  221.9370 C   0  0  0  0  0  0  0  0  0  0  0  0
  140.0390   74.2340  221.8420 N   0  0  0  0  0  0  0  0  0  0  0  0
  140.2970   72.8280  222.0370 C   0  0  0  0  0  0  0  0  0  0  0  0
  141.4780   72.3650  221.9700 O   0  0  0  0  0  0  0  0  0  0  0  0
  139.2180   71.8700  222.3220 C   0  0  0  0  0  0  0  0  0  0  0  0
  139.5340   71.2060  223.6150 C   0  0  0  0  0  0  0  0  0  0  0  0
  139.2010   69.8530  223.7220 C   0  0  0  0  0  0  0  0  0  0  0  0
  139.4410   69.1240  224.8630 C   0  0  0  0  0  0  0  0  0  0  0  0
  140.0330   69.7850  225.9210 C   0  0  0  0  0  0  0  0  0  0  0  0
  140.2870   69.0800  227.0810 C   0  0  0  0  0  0  0  0  0  0  0  0
  140.8770   69.6750  228.1840 C   0  0  0  0  0  0  0  0  0  0  0  0
  141.2100   71.0160  228.0860 C   0  0  0  0  0  0  0  0  0  0  0  0
  140.9610   71.7380  226.9270 C   0  0  0  0  0  0  0  0  0  0  0  0
  140.3670   71.1240  225.8280 C   0  0  0  0  0  0  0  0  0  0  0  0
  140.1240   71.8650  224.6710 C   0  0  0  0  0  0  0  0  0  0  0  0
  141.1540   75.0960  221.5700 C   0  0  0  0  0  0  0  0  0  0  0  0
  140.9580   76.3860  222.3580 C   0  0  0  0  0  0  0  0  0  0  0  0
  138.9576   80.1424  224.5967 H   0  0  0  0  0  0  0  0  0  0  0  0
  137.8503   81.5526  224.4873 H   0  0  0  0  0  0  0  0  0  0  0  0
  137.1832   79.8848  224.4873 H   0  0  0  0  0  0  0  0  0  0  0  0
  137.1996   80.8946  222.1990 H   0  0  0  0  0  0  0  0  0  0  0  0
  138.9945   81.0694  222.3210 H   0  0  0  0  0  0  0  0  0  0  0  0
  141.0633   79.6541  220.4882 H   0  0  0  0  0  0  0  0  0  0  0  0
  143.1412   80.9050  221.1471 H   0  0  0  0  0  0  0  0  0  0  0  0
  143.8512   80.9629  223.5243 H   0  0  0  0  0  0  0  0  0  0  0  0
  142.5248   79.7955  225.2578 H   0  0  0  0  0  0  0  0  0  0  0  0
  140.4471   78.5462  224.6194 H   0  0  0  0  0  0  0  0  0  0  0  0
  139.5165   76.8953  220.8166 H   0  0  0  0  0  0  0  0  0  0  0  0
  138.8162   75.9576  223.6808 H   0  0  0  0  0  0  0  0  0  0  0  0
  137.5711   76.4751  222.5271 H   0  0  0  0  0  0  0  0  0  0  0  0
  138.0834   73.9516  222.5292 H   0  0  0  0  0  0  0  0  0  0  0  0
  138.2396   74.7580  220.9227 H   0  0  0  0  0  0  0  0  0  0  0  0
  138.2569   72.3996  222.3977 H   0  0  0  0  0  0  0  0  0  0  0  0
  139.1397   71.1261  221.5154 H   0  0  0  0  0  0  0  0  0  0  0  0
  138.7300   69.3532  222.8627 H   0  0  0  0  0  0  0  0  0  0  0  0
  139.1727   68.0593  224.9301 H   0  0  0  0  0  0  0  0  0  0  0  0
  140.0130   68.0158  227.1304 H   0  0  0  0  0  0  0  0  0  0  0  0
  141.0737   69.1040  229.1034 H   0  0  0  0  0  0  0  0  0  0  0  0
  141.6811   71.5186  228.9436 H   0  0  0  0  0  0  0  0  0  0  0  0
  141.2348   72.8022  226.8766 H   0  0  0  0  0  0  0  0  0  0  0  0
  140.3921   72.9298  224.6050 H   0  0  0  0  0  0  0  0  0  0  0  0
  142.0885   74.6067  221.8821 H   0  0  0  0  0  0  0  0  0  0  0  0
  141.2148   75.3125  220.4932 H   0  0  0  0  0  0  0  0  0  0  0  0
  140.9467   76.1785  223.4382 H   0  0  0  0  0  0  0  0  0  0  0  0
  141.7733   77.1020  222.1772 H   0  0  0  0  0  0  0  0  0  0  0  0
  1  2  1  0
  2  3  1  0
  3  4  2  0
  3  5  1  0
  5  6  1  0
  6  7  2  0
  7  8  1  0
  8  9  2  0
  9 10  1  0
 10 11  2  0
  5 12  1  0
 12 13  1  0
 13 14  1  0
 14 15  1  0
 15 16  1  0
 16 17  2  0
 16 18  1  0
 18 19  1  0
 19 20  2  0
 20 21  1  0
 21 22  2  0
 22 23  1  0
 23 24  2  0
 24 25  1  0
 25 26  2  0
 26 27  1  0
 27 28  2  0
 15 29  1  0
 29 30  1  0
 11  6  1  0
 30 12  1  0
 28 19  1  0
 27 22  1  0
  1 31  1  0
  1 32  1  0
  1 33  1  0
  2 34  1  0
  2 35  1  0
  7 36  1  0
  8 37  1  0
  9 38  1  0
 10 39  1  0
 11 40  1  0
 12 41  1  0
 13 42  1  0
 13 43  1  0
 14 44  1  0
 14 45  1  0
 18 46  1  0
 18 47  1  0
 20 48  1  0
 21 49  1  0
 23 50  1  0
 24 51  1  0
 25 52  1  0
 26 53  1  0
 28 54  1  0
 29 55  1  0
 29 56  1  0
 30 57  1  0
 30 58  1  0
M  END
>  <smiles>  (40) 
CCC(=O)N(c1ccccc1)C1CCN(C(=O)Cc2ccc3ccccc3c2)CC1

>  <score_type>  (40) 
oracle

>  <origin>  (40) 
autodockgpu

>  <m_score__min__energy>  (40) 
-9.0999999999999996

>  <m_primary>  (40) 
energy

>  <rmsd>  (40) 
8.296570245346711

>  <m_score__min__rmsd>  (40) 
8.296570245346711

>  <meeko>  (40) 
{"free_energy": -9.04, "intermolecular_energy": -10.83, "internal_energy": -1.45, "cluster_size": 46, "cluster_id": 1, "rank_in_cluster": 12}

>  <energy>  (40) 
-8.91

>  <cluster_rmsd>  (40) 
1.77

>  <cluster>  (40) 
1

$$$$

     RDKit          3D

 58 61  0  0  0  0  0  0  0  0999 V2000
  143.3270   76.4410  219.0240 C   0  0  0  0  0  0  0  0  0  0  0  0
  142.5700   77.7500  218.7940 C   0  0  0  0  0  0  0  0  0  0  0  0
  141.3050   77.7630  219.5370 C   0  0  0  0  0  0  0  0  0  0  0  0
  140.2770   78.1760  218.8850 O   0  0  0  0  0  0  0  0  0  0  0  0
  141.0700   77.3800  220.8650 N   0  0  0  0  0  0  0  0  0  0  0  0
  141.4660   78.3900  221.8540 C   0  0  0  0  0  0  0  0  0  0  0  0
  141.4280   78.0770  223.1990 C   0  0  0  0  0  0  0  0  0  0  0  0
  141.8130   79.0620  224.1140 C   0  0  0  0  0  0  0  0  0  0  0  0
  142.2170   80.3100  223.6640 C   0  0  0  0  0  0  0  0  0  0  0  0
  142.2440   80.5940  222.3120 C   0  0  0  0  0  0  0  0  0  0  0  0
  141.8650   79.6250  221.3840 C   0  0  0  0  0  0  0  0  0  0  0  0
  140.5210   76.1910  221.3860 C   0  0  0  0  0  0  0  0  0  0  0  0
  141.2920   74.9280  220.9740 C   0  0  0  0  0  0  0  0  0  0  0  0
  140.8200   73.8120  221.9000 C   0  0  0  0  0  0  0  0  0  0  0  0
  139.3670   73.7800  221.9640 N   0  0  0  0  0  0  0  0  0  0  0  0
  138.7350   72.4850  222.0350 C   0  0  0  0  0  0  0  0  0  0  0  0
  137.4710   72.3770  222.0930 O   0  0  0  0  0  0  0  0  0  0  0  0
  139.5140   71.2370  222.0440 C   0  0  0  0  0  0  0  0  0  0  0  0
  139.6910   70.8260  223.4620 C   0  0  0  0  0  0  0  0  0  0  0  0
  139.2200   69.5570  223.8100 C   0  0  0  0  0  0  0  0  0  0  0  0
  139.3230   69.0580  225.0870 C   0  0  0  0  0  0  0  0  0  0  0  0
  139.9190   69.8660  226.0340 C   0  0  0  0  0  0  0  0  0  0  0  0
  140.0380   69.3940  227.3260 C   0  0  0  0  0  0  0  0  0  0  0  0
  140.6230   70.1470  228.3300 C   0  0  0  0  0  0  0  0  0  0  0  0
  141.0930   71.4060  227.9940 C   0  0  0  0  0  0  0  0  0  0  0  0
  140.9810   71.8960  226.6990 C   0  0  0  0  0  0  0  0  0  0  0  0
  140.3900   71.1250  225.7030 C   0  0  0  0  0  0  0  0  0  0  0  0
  140.2860   71.6320  224.4080 C   0  0  0  0  0  0  0  0  0  0  0  0
  138.5280   74.9440  221.9590 C   0  0  0  0  0  0  0  0  0  0  0  0
  139.0960   75.9320  220.9460 C   0  0  0  0  0  0  0  0  0  0  0  0
  143.4304   76.2622  220.1044 H   0  0  0  0  0  0  0  0  0  0  0  0
  142.7700   75.6101  218.5665 H   0  0  0  0  0  0  0  0  0  0  0  0
  144.3250   76.5093  218.5665 H   0  0  0  0  0  0  0  0  0  0  0  0
  143.1941   78.5906  219.1315 H   0  0  0  0  0  0  0  0  0  0  0  0
  142.3472   77.8422  217.7208 H   0  0  0  0  0  0  0  0  0  0  0  0
  141.1045   77.0825  223.5401 H   0  0  0  0  0  0  0  0  0  0  0  0
  141.7954   78.8465  225.1925 H   0  0  0  0  0  0  0  0  0  0  0  0
  142.5184   81.0801  224.3893 H   0  0  0  0  0  0  0  0  0  0  0  0
  142.5655   81.5877  221.9668 H   0  0  0  0  0  0  0  0  0  0  0  0
  141.8835   79.8391  220.3052 H   0  0  0  0  0  0  0  0  0  0  0  0
  140.5793   76.3659  222.4704 H   0  0  0  0  0  0  0  0  0  0  0  0
  141.0711   74.6723  219.9272 H   0  0  0  0  0  0  0  0  0  0  0  0
  142.3783   75.0804  221.0558 H   0  0  0  0  0  0  0  0  0  0  0  0
  141.1864   72.8472  221.5194 H   0  0  0  0  0  0  0  0  0  0  0  0
  141.2155   73.9978  222.9095 H   0  0  0  0  0  0  0  0  0  0  0  0
  138.9740   70.4541  221.4914 H   0  0  0  0  0  0  0  0  0  0  0  0
  140.4909   71.3886  221.5616 H   0  0  0  0  0  0  0  0  0  0  0  0
  138.7499   68.9349  223.0341 H   0  0  0  0  0  0  0  0  0  0  0  0
  138.9462   68.0568  225.3432 H   0  0  0  0  0  0  0  0  0  0  0  0
  139.6568   68.3902  227.5648 H   0  0  0  0  0  0  0  0  0  0  0  0
  140.7112   69.7600  229.3559 H   0  0  0  0  0  0  0  0  0  0  0  0
  141.5641   72.0299  228.7678 H   0  0  0  0  0  0  0  0  0  0  0  0
  141.3619   72.8998  226.4595 H   0  0  0  0  0  0  0  0  0  0  0  0
  140.6631   72.6333  224.1525 H   0  0  0  0  0  0  0  0  0  0  0  0
  137.5034   74.6640  221.6729 H   0  0  0  0  0  0  0  0  0  0  0  0
  138.4999   75.3983  222.9604 H   0  0  0  0  0  0  0  0  0  0  0  0
  139.0789   75.4983  219.9353 H   0  0  0  0  0  0  0  0  0  0  0  0
  138.5066   76.8599  220.9075 H   0  0  0  0  0  0  0  0  0  0  0  0
  1  2  1  0
  2  3  1  0
  3  4  2  0
  3  5  1  0
  5  6  1  0
  6  7  2  0
  7  8  1  0
  8  9  2  0
  9 10  1  0
 10 11  2  0
  5 12  1  0
 12 13  1  0
 13 14  1  0
 14 15  1  0
 15 16  1  0
 16 17  2  0
 16 18  1  0
 18 19  1  0
 19 20  2  0
 20 21  1  0
 21 22  2  0
 22 23  1  0
 23 24  2  0
 24 25  1  0
 25 26  2  0
 26 27  1  0
 27 28  2  0
 15 29  1  0
 29 30  1  0
 11  6  1  0
 30 12  1  0
 28 19  1  0
 27 22  1  0
  1 31  1  0
  1 32  1  0
  1 33  1  0
  2 34  1  0
  2 35  1  0
  7 36  1  0
  8 37  1  0
  9 38  1  0
 10 39  1  0
 11 40  1  0
 12 41  1  0
 13 42  1  0
 13 43  1  0
 14 44  1  0
 14 45  1  0
 18 46  1  0
 18 47  1  0
 20 48  1  0
 21 49  1  0
 23 50  1  0
 24 51  1  0
 25 52  1  0
 26 53  1  0
 28 54  1  0
 29 55  1  0
 29 56  1  0
 30 57  1  0
 30 58  1  0
M  END
>  <smiles>  (41) 
CCC(=O)N(c1ccccc1)C1CCN(C(=O)Cc2ccc3ccccc3c2)CC1

>  <score_type>  (41) 
oracle

>  <origin>  (41) 
autodockgpu

>  <m_score__min__energy>  (41) 
-9.0999999999999996

>  <m_primary>  (41) 
energy

>  <rmsd>  (41) 
8.248164546113351

>  <m_score__min__rmsd>  (41) 
8.248164546113351

>  <meeko>  (41) 
{"free_energy": -8.96, "intermolecular_energy": -10.75, "internal_energy": -1.51, "cluster_size": 46, "cluster_id": 1, "rank_in_cluster": 24}

>  <energy>  (41) 
-8.89

>  <cluster_rmsd>  (41) 
1.96

>  <cluster>  (41) 
1

$$$$

     RDKit          3D

 58 61  0  0  0  0  0  0  0  0999 V2000
  138.0200   80.5510  224.2980 C   0  0  0  0  0  0  0  0  0  0  0  0
  138.0500   80.2950  222.7900 C   0  0  0  0  0  0  0  0  0  0  0  0
  138.2330   78.8680  222.5030 C   0  0  0  0  0  0  0  0  0  0  0  0
  137.1550   78.1820  222.3630 O   0  0  0  0  0  0  0  0  0  0  0  0
  139.4310   78.1540  222.3590 N   0  0  0  0  0  0  0  0  0  0  0  0
  140.6330   78.9440  222.6550 C   0  0  0  0  0  0  0  0  0  0  0  0
  141.0810   79.0360  223.9590 C   0  0  0  0  0  0  0  0  0  0  0  0
  142.2290   79.7960  224.2060 C   0  0  0  0  0  0  0  0  0  0  0  0
  142.8830   80.4300  223.1610 C   0  0  0  0  0  0  0  0  0  0  0  0
  142.4100   80.3190  221.8670 C   0  0  0  0  0  0  0  0  0  0  0  0
  141.2680   79.5660  221.5990 C   0  0  0  0  0  0  0  0  0  0  0  0
  139.6530   76.8150  221.9760 C   0  0  0  0  0  0  0  0  0  0  0  0
  138.6620   75.8270  222.6080 C   0  0  0  0  0  0  0  0  0  0  0  0
  138.7880   74.5260  221.8200 C   0  0  0  0  0  0  0  0  0  0  0  0
  140.1850   74.1510  221.6730 N   0  0  0  0  0  0  0  0  0  0  0  0
  140.5040   72.7460  221.7440 C   0  0  0  0  0  0  0  0  0  0  0  0
  141.7020   72.3410  221.6250 O   0  0  0  0  0  0  0  0  0  0  0  0
  139.4700   71.7210  221.9580 C   0  0  0  0  0  0  0  0  0  0  0  0
  139.6230   71.2080  223.3450 C   0  0  0  0  0  0  0  0  0  0  0  0
  139.0010   69.9910  223.6360 C   0  0  0  0  0  0  0  0  0  0  0  0
  139.0650   69.4100  224.8800 C   0  0  0  0  0  0  0  0  0  0  0  0
  139.7800   70.0800  225.8530 C   0  0  0  0  0  0  0  0  0  0  0  0
  139.8650   69.5220  227.1130 C   0  0  0  0  0  0  0  0  0  0  0  0
  140.5630   70.1350  228.1400 C   0  0  0  0  0  0  0  0  0  0  0  0
  141.1830   71.3420  227.8600 C   0  0  0  0  0  0  0  0  0  0  0  0
  141.1080   71.9160  226.5990 C   0  0  0  0  0  0  0  0  0  0  0  0
  140.4020   71.2860  225.5790 C   0  0  0  0  0  0  0  0  0  0  0  0
  140.3360   71.8770  224.3170 C   0  0  0  0  0  0  0  0  0  0  0  0
  141.2580   75.0800  221.4630 C   0  0  0  0  0  0  0  0  0  0  0  0
  141.0190   76.2880  222.3600 C   0  0  0  0  0  0  0  0  0  0  0  0
  138.1318   79.5970  224.8342 H   0  0  0  0  0  0  0  0  0  0  0  0
  138.8454   81.2245  224.5721 H   0  0  0  0  0  0  0  0  0  0  0  0
  137.0613   81.0155  224.5721 H   0  0  0  0  0  0  0  0  0  0  0  0
  137.1003   80.6318  222.3489 H   0  0  0  0  0  0  0  0  0  0  0  0
  138.8945   80.8509  222.3567 H   0  0  0  0  0  0  0  0  0  0  0  0
  140.5510   78.5272  224.7777 H   0  0  0  0  0  0  0  0  0  0  0  0
  142.6139   79.8908  225.2321 H   0  0  0  0  0  0  0  0  0  0  0  0
  143.7852   81.0259  223.3631 H   0  0  0  0  0  0  0  0  0  0  0  0
  142.9368   80.8268  221.0456 H   0  0  0  0  0  0  0  0  0  0  0  0
  140.8830   79.4700  220.5730 H   0  0  0  0  0  0  0  0  0  0  0  0
  139.5368   76.8642  220.8833 H   0  0  0  0  0  0  0  0  0  0  0  0
  138.9156   75.6576  223.6649 H   0  0  0  0  0  0  0  0  0  0  0  0
  137.6338   76.2164  222.5727 H   0  0  0  0  0  0  0  0  0  0  0  0
  138.2532   73.7266  222.3538 H   0  0  0  0  0  0  0  0  0  0  0  0
  138.3527   74.6728  220.8205 H   0  0  0  0  0  0  0  0  0  0  0  0
  138.4712   72.1639  221.8303 H   0  0  0  0  0  0  0  0  0  0  0  0
  139.5810   70.9037  221.2302 H   0  0  0  0  0  0  0  0  0  0  0  0
  138.4396   69.4792  222.8404 H   0  0  0  0  0  0  0  0  0  0  0  0
  138.5677   68.4519  225.0915 H   0  0  0  0  0  0  0  0  0  0  0  0
  139.3636   68.5623  227.3068 H   0  0  0  0  0  0  0  0  0  0  0  0
  140.6229   69.6809  229.1401 H   0  0  0  0  0  0  0  0  0  0  0  0
  141.7460   71.8555  228.6533 H   0  0  0  0  0  0  0  0  0  0  0  0
  141.6099   72.8753  226.4045 H   0  0  0  0  0  0  0  0  0  0  0  0
  140.8318   72.8361  224.1064 H   0  0  0  0  0  0  0  0  0  0  0  0
  142.2169   74.6071  221.7217 H   0  0  0  0  0  0  0  0  0  0  0  0
  141.2939   75.3893  220.4080 H   0  0  0  0  0  0  0  0  0  0  0  0
  141.0317   75.9890  223.4185 H   0  0  0  0  0  0  0  0  0  0  0  0
  141.8008   77.0512  222.2324 H   0  0  0  0  0  0  0  0  0  0  0  0
  1  2  1  0
  2  3  1  0
  3  4  2  0
  3  5  1  0
  5  6  1  0
  6  7  2  0
  7  8  1  0
  8  9  2  0
  9 10  1  0
 10 11  2  0
  5 12  1  0
 12 13  1  0
 13 14  1  0
 14 15  1  0
 15 16  1  0
 16 17  2  0
 16 18  1  0
 18 19  1  0
 19 20  2  0
 20 21  1  0
 21 22  2  0
 22 23  1  0
 23 24  2  0
 24 25  1  0
 25 26  2  0
 26 27  1  0
 27 28  2  0
 15 29  1  0
 29 30  1  0
 11  6  1  0
 30 12  1  0
 28 19  1  0
 27 22  1  0
  1 31  1  0
  1 32  1  0
  1 33  1  0
  2 34  1  0
  2 35  1  0
  7 36  1  0
  8 37  1  0
  9 38  1  0
 10 39  1  0
 11 40  1  0
 12 41  1  0
 13 42  1  0
 13 43  1  0
 14 44  1  0
 14 45  1  0
 18 46  1  0
 18 47  1  0
 20 48  1  0
 21 49  1  0
 23 50  1  0
 24 51  1  0
 25 52  1  0
 26 53  1  0
 28 54  1  0
 29 55  1  0
 29 56  1  0
 30 57  1  0
 30 58  1  0
M  END
>  <smiles>  (42) 
CCC(=O)N(c1ccccc1)C1CCN(C(=O)Cc2ccc3ccccc3c2)CC1

>  <score_type>  (42) 
oracle

>  <origin>  (42) 
autodockgpu

>  <m_score__min__energy>  (42) 
-9.0999999999999996

>  <m_primary>  (42) 
energy

>  <rmsd>  (42) 
8.172197336821961

>  <m_score__min__rmsd>  (42) 
8.172197336821961

>  <meeko>  (42) 
{"free_energy": -9.03, "intermolecular_energy": -10.82, "internal_energy": -1.49, "cluster_size": 46, "cluster_id": 1, "rank_in_cluster": 13}

>  <energy>  (42) 
-8.88

>  <cluster_rmsd>  (42) 
0.66

>  <cluster>  (42) 
1

$$$$

     RDKit          3D

 58 61  0  0  0  0  0  0  0  0999 V2000
  138.0100   80.5400  224.2030 C   0  0  0  0  0  0  0  0  0  0  0  0
  138.1100   80.3520  222.6880 C   0  0  0  0  0  0  0  0  0  0  0  0
  138.2680   78.9350  222.3440 C   0  0  0  0  0  0  0  0  0  0  0  0
  137.1830   78.2960  222.0860 O   0  0  0  0  0  0  0  0  0  0  0  0
  139.4500   78.1850  222.2580 N   0  0  0  0  0  0  0  0  0  0  0  0
  140.6630   78.9490  222.5760 C   0  0  0  0  0  0  0  0  0  0  0  0
  141.0740   79.0570  223.8910 C   0  0  0  0  0  0  0  0  0  0  0  0
  142.2330   79.7900  224.1590 C   0  0  0  0  0  0  0  0  0  0  0  0
  142.9360   80.3860  223.1220 C   0  0  0  0  0  0  0  0  0  0  0  0
  142.5000   80.2610  221.8170 C   0  0  0  0  0  0  0  0  0  0  0  0
  141.3460   79.5330  221.5280 C   0  0  0  0  0  0  0  0  0  0  0  0
  139.6470   76.8320  221.9160 C   0  0  0  0  0  0  0  0  0  0  0  0
  138.6510   75.8790  222.5930 C   0  0  0  0  0  0  0  0  0  0  0  0
  138.7460   74.5520  221.8460 C   0  0  0  0  0  0  0  0  0  0  0  0
  140.1350   74.1510  221.6900 N   0  0  0  0  0  0  0  0  0  0  0  0
  140.4360   72.7440  221.8020 C   0  0  0  0  0  0  0  0  0  0  0  0
  141.6260   72.3180  221.6790 O   0  0  0  0  0  0  0  0  0  0  0  0
  139.3910   71.7420  222.0640 C   0  0  0  0  0  0  0  0  0  0  0  0
  139.5980   71.2230  223.4410 C   0  0  0  0  0  0  0  0  0  0  0  0
  139.0290   69.9810  223.7350 C   0  0  0  0  0  0  0  0  0  0  0  0
  139.1480   69.3910  224.9700 C   0  0  0  0  0  0  0  0  0  0  0  0
  139.8630   70.0770  225.9320 C   0  0  0  0  0  0  0  0  0  0  0  0
  140.0000   69.5100  227.1840 C   0  0  0  0  0  0  0  0  0  0  0  0
  140.7020   70.1390  228.1980 C   0  0  0  0  0  0  0  0  0  0  0  0
  141.2700   71.3710  227.9160 C   0  0  0  0  0  0  0  0  0  0  0  0
  141.1400   71.9540  226.6630 C   0  0  0  0  0  0  0  0  0  0  0  0
  140.4320   71.3080  225.6540 C   0  0  0  0  0  0  0  0  0  0  0  0
  140.3110   71.9080  224.4010 C   0  0  0  0  0  0  0  0  0  0  0  0
  141.2190   75.0570  221.4350 C   0  0  0  0  0  0  0  0  0  0  0  0
  141.0110   76.2970  222.2960 C   0  0  0  0  0  0  0  0  0  0  0  0
  138.4683   79.6784  224.7105 H   0  0  0  0  0  0  0  0  0  0  0  0
  138.5378   81.4602  224.4939 H   0  0  0  0  0  0  0  0  0  0  0  0
  136.9519   80.6166  224.4939 H   0  0  0  0  0  0  0  0  0  0  0  0
  137.1937   80.7367  222.2164 H   0  0  0  0  0  0  0  0  0  0  0  0
  138.9905   80.9016  222.3238 H   0  0  0  0  0  0  0  0  0  0  0  0
  140.5054   78.5799  224.7029 H   0  0  0  0  0  0  0  0  0  0  0  0
  142.5889   79.8947  225.1946 H   0  0  0  0  0  0  0  0  0  0  0  0
  143.8472   80.9623  223.3404 H   0  0  0  0  0  0  0  0  0  0  0  0
  143.0653   80.7376  221.0026 H   0  0  0  0  0  0  0  0  0  0  0  0
  140.9896   79.4270  220.4927 H   0  0  0  0  0  0  0  0  0  0  0  0
  139.5152   76.8484  220.8240 H   0  0  0  0  0  0  0  0  0  0  0  0
  138.9175   75.7395  223.6511 H   0  0  0  0  0  0  0  0  0  0  0  0
  137.6282   76.2825  222.5592 H   0  0  0  0  0  0  0  0  0  0  0  0
  138.2079   73.7784  222.4134 H   0  0  0  0  0  0  0  0  0  0  0  0
  138.2977   74.6734  220.8488 H   0  0  0  0  0  0  0  0  0  0  0  0
  138.3974   72.2072  221.9844 H   0  0  0  0  0  0  0  0  0  0  0  0
  139.4492   70.9238  221.3310 H   0  0  0  0  0  0  0  0  0  0  0  0
  138.4654   69.4568  222.9492 H   0  0  0  0  0  0  0  0  0  0  0  0
  138.6926   68.4128  225.1837 H   0  0  0  0  0  0  0  0  0  0  0  0
  139.5384   68.5312  227.3810 H   0  0  0  0  0  0  0  0  0  0  0  0
  140.8051   69.6776  229.1912 H   0  0  0  0  0  0  0  0  0  0  0  0
  141.8346   71.8970  228.6999 H   0  0  0  0  0  0  0  0  0  0  0  0
  141.5999   72.9337  226.4662 H   0  0  0  0  0  0  0  0  0  0  0  0
  140.7655   72.8868  224.1879 H   0  0  0  0  0  0  0  0  0  0  0  0
  142.1745   74.5781  221.6953 H   0  0  0  0  0  0  0  0  0  0  0  0
  141.2440   75.3318  220.3702 H   0  0  0  0  0  0  0  0  0  0  0  0
  141.0359   76.0320  223.3633 H   0  0  0  0  0  0  0  0  0  0  0  0
  141.8016   77.0440  222.1317 H   0  0  0  0  0  0  0  0  0  0  0  0
  1  2  1  0
  2  3  1  0
  3  4  2  0
  3  5  1  0
  5  6  1  0
  6  7  2  0
  7  8  1  0
  8  9  2  0
  9 10  1  0
 10 11  2  0
  5 12  1  0
 12 13  1  0
 13 14  1  0
 14 15  1  0
 15 16  1  0
 16 17  2  0
 16 18  1  0
 18 19  1  0
 19 20  2  0
 20 21  1  0
 21 22  2  0
 22 23  1  0
 23 24  2  0
 24 25  1  0
 25 26  2  0
 26 27  1  0
 27 28  2  0
 15 29  1  0
 29 30  1  0
 11  6  1  0
 30 12  1  0
 28 19  1  0
 27 22  1  0
  1 31  1  0
  1 32  1  0
  1 33  1  0
  2 34  1  0
  2 35  1  0
  7 36  1  0
  8 37  1  0
  9 38  1  0
 10 39  1  0
 11 40  1  0
 12 41  1  0
 13 42  1  0
 13 43  1  0
 14 44  1  0
 14 45  1  0
 18 46  1  0
 18 47  1  0
 20 48  1  0
 21 49  1  0
 23 50  1  0
 24 51  1  0
 25 52  1  0
 26 53  1  0
 28 54  1  0
 29 55  1  0
 29 56  1  0
 30 57  1  0
 30 58  1  0
M  END
>  <smiles>  (43) 
CCC(=O)N(c1ccccc1)C1CCN(C(=O)Cc2ccc3ccccc3c2)CC1

>  <score_type>  (43) 
oracle

>  <origin>  (43) 
autodockgpu

>  <m_score__min__energy>  (43) 
-9.0999999999999996

>  <m_primary>  (43) 
energy

>  <rmsd>  (43) 
8.16722437138529

>  <m_score__min__rmsd>  (43) 
8.16722437138529

>  <meeko>  (43) 
{"free_energy": -9.02, "intermolecular_energy": -10.81, "internal_energy": -1.5, "cluster_size": 46, "cluster_id": 1, "rank_in_cluster": 14}

>  <energy>  (43) 
-8.82

>  <cluster_rmsd>  (43) 
1.93

>  <cluster>  (43) 
1

$$$$

     RDKit          3D

 58 61  0  0  0  0  0  0  0  0999 V2000
  143.3200   76.5080  219.0010 C   0  0  0  0  0  0  0  0  0  0  0  0
  142.5690   77.8230  218.7830 C   0  0  0  0  0  0  0  0  0  0  0  0
  141.3130   77.8420  219.5410 C   0  0  0  0  0  0  0  0  0  0  0  0
  140.2810   78.2690  218.9040 O   0  0  0  0  0  0  0  0  0  0  0  0
  141.0900   77.4530  220.8700 N   0  0  0  0  0  0  0  0  0  0  0  0
  141.4960   78.4570  221.8590 C   0  0  0  0  0  0  0  0  0  0  0  0
  141.9140   79.7040  221.4320 C   0  0  0  0  0  0  0  0  0  0  0  0
  142.2930   80.6370  222.4010 C   0  0  0  0  0  0  0  0  0  0  0  0
  142.2450   80.3040  223.7460 C   0  0  0  0  0  0  0  0  0  0  0  0
  141.8240   79.0490  224.1430 C   0  0  0  0  0  0  0  0  0  0  0  0
  141.4400   78.1040  223.1920 C   0  0  0  0  0  0  0  0  0  0  0  0
  140.5460   76.2600  221.3900 C   0  0  0  0  0  0  0  0  0  0  0  0
  141.3140   75.0000  220.9640 C   0  0  0  0  0  0  0  0  0  0  0  0
  140.8500   73.8790  221.8900 C   0  0  0  0  0  0  0  0  0  0  0  0
  139.3980   73.8460  221.9650 N   0  0  0  0  0  0  0  0  0  0  0  0
  138.7670   72.5510  222.0360 C   0  0  0  0  0  0  0  0  0  0  0  0
  137.5040   72.4420  222.1030 O   0  0  0  0  0  0  0  0  0  0  0  0
  139.5470   71.3030  222.0320 C   0  0  0  0  0  0  0  0  0  0  0  0
  139.7070   70.8670  223.4450 C   0  0  0  0  0  0  0  0  0  0  0  0
  139.2240   69.5960  223.7670 C   0  0  0  0  0  0  0  0  0  0  0  0
  139.3110   69.0760  225.0360 C   0  0  0  0  0  0  0  0  0  0  0  0
  139.9030   69.8640  226.0030 C   0  0  0  0  0  0  0  0  0  0  0  0
  140.0060   69.3700  227.2880 C   0  0  0  0  0  0  0  0  0  0  0  0
  140.5870   70.1020  228.3090 C   0  0  0  0  0  0  0  0  0  0  0  0
  141.0690   71.3640  227.9980 C   0  0  0  0  0  0  0  0  0  0  0  0
  140.9730   71.8750  226.7110 C   0  0  0  0  0  0  0  0  0  0  0  0
  140.3860   71.1250  225.6970 C   0  0  0  0  0  0  0  0  0  0  0  0
  140.2980   71.6540  224.4090 C   0  0  0  0  0  0  0  0  0  0  0  0
  138.5580   75.0100  221.9720 C   0  0  0  0  0  0  0  0  0  0  0  0
  139.1180   76.0030  220.9600 C   0  0  0  0  0  0  0  0  0  0  0  0
  143.4267   76.3212  220.0798 H   0  0  0  0  0  0  0  0  0  0  0  0
  142.7567   75.6833  218.5400 H   0  0  0  0  0  0  0  0  0  0  0  0
  144.3166   76.5741  218.5400 H   0  0  0  0  0  0  0  0  0  0  0  0
  143.2025   78.6586  219.1152 H   0  0  0  0  0  0  0  0  0  0  0  0
  142.3344   77.9198  217.7127 H   0  0  0  0  0  0  0  0  0  0  0  0
  141.9472   79.9542  220.3614 H   0  0  0  0  0  0  0  0  0  0  0  0
  142.6304   81.6385  222.0957 H   0  0  0  0  0  0  0  0  0  0  0  0
  142.5442   81.0442  224.5027 H   0  0  0  0  0  0  0  0  0  0  0  0
  141.7917   78.7946  225.2127 H   0  0  0  0  0  0  0  0  0  0  0  0
  141.1011   77.1028  223.4966 H   0  0  0  0  0  0  0  0  0  0  0  0
  140.6136   76.4285  222.4749 H   0  0  0  0  0  0  0  0  0  0  0  0
  141.0835   74.7494  219.9180 H   0  0  0  0  0  0  0  0  0  0  0  0
  142.4011   75.1522  221.0356 H   0  0  0  0  0  0  0  0  0  0  0  0
  141.2141   72.9160  221.5027 H   0  0  0  0  0  0  0  0  0  0  0  0
  141.2534   74.0607  222.8971 H   0  0  0  0  0  0  0  0  0  0  0  0
  139.0142   70.5297  221.4591 H   0  0  0  0  0  0  0  0  0  0  0  0
  140.5295   71.4635  221.5640 H   0  0  0  0  0  0  0  0  0  0  0  0
  138.7574   68.9900  222.9764 H   0  0  0  0  0  0  0  0  0  0  0  0
  138.9249   68.0733  225.2717 H   0  0  0  0  0  0  0  0  0  0  0  0
  139.6149   68.3654  227.5068 H   0  0  0  0  0  0  0  0  0  0  0  0
  140.6634   69.6974  229.3291 H   0  0  0  0  0  0  0  0  0  0  0  0
  141.5366   71.9722  228.7863 H   0  0  0  0  0  0  0  0  0  0  0  0
  141.3637   72.8796  226.4914 H   0  0  0  0  0  0  0  0  0  0  0  0
  140.6840   72.6567  224.1733 H   0  0  0  0  0  0  0  0  0  0  0  0
  137.5315   74.7309  221.6920 H   0  0  0  0  0  0  0  0  0  0  0  0
  138.5370   75.4593  222.9759 H   0  0  0  0  0  0  0  0  0  0  0  0
  139.0931   75.5744  219.9472 H   0  0  0  0  0  0  0  0  0  0  0  0
  138.5282   76.9311  220.9309 H   0  0  0  0  0  0  0  0  0  0  0  0
  1  2  1  0
  2  3  1  0
  3  4  2  0
  3  5  1  0
  5  6  1  0
  6  7  2  0
  7  8  1  0
  8  9  2  0
  9 10  1  0
 10 11  2  0
  5 12  1  0
 12 13  1  0
 13 14  1  0
 14 15  1  0
 15 16  1  0
 16 17  2  0
 16 18  1  0
 18 19  1  0
 19 20  2  0
 20 21  1  0
 21 22  2  0
 22 23  1  0
 23 24  2  0
 24 25  1  0
 25 26  2  0
 26 27  1  0
 27 28  2  0
 15 29  1  0
 29 30  1  0
 11  6  1  0
 30 12  1  0
 28 19  1  0
 27 22  1  0
  1 31  1  0
  1 32  1  0
  1 33  1  0
  2 34  1  0
  2 35  1  0
  7 36  1  0
  8 37  1  0
  9 38  1  0
 10 39  1  0
 11 40  1  0
 12 41  1  0
 13 42  1  0
 13 43  1  0
 14 44  1  0
 14 45  1  0
 18 46  1  0
 18 47  1  0
 20 48  1  0
 21 49  1  0
 23 50  1  0
 24 51  1  0
 25 52  1  0
 26 53  1  0
 28 54  1  0
 29 55  1  0
 29 56  1  0
 30 57  1  0
 30 58  1  0
M  END
>  <smiles>  (44) 
CCC(=O)N(c1ccccc1)C1CCN(C(=O)Cc2ccc3ccccc3c2)CC1

>  <score_type>  (44) 
oracle

>  <origin>  (44) 
autodockgpu

>  <m_score__min__energy>  (44) 
-9.0999999999999996

>  <m_primary>  (44) 
energy

>  <rmsd>  (44) 
8.240443348155651

>  <m_score__min__rmsd>  (44) 
8.240443348155651

>  <meeko>  (44) 
{"free_energy": -8.97, "intermolecular_energy": -10.76, "internal_energy": -1.51, "cluster_size": 46, "cluster_id": 1, "rank_in_cluster": 23}

>  <energy>  (44) 
-8.75

>  <cluster_rmsd>  (44) 
1.87

>  <cluster>  (44) 
1

$$$$

     RDKit          3D

 58 61  0  0  0  0  0  0  0  0999 V2000
  138.0120   80.6860  223.9250 C   0  0  0  0  0  0  0  0  0  0  0  0
  137.4490   79.4430  223.2320 C   0  0  0  0  0  0  0  0  0  0  0  0
  138.2920   79.0470  222.0980 C   0  0  0  0  0  0  0  0  0  0  0  0
  137.9040   79.4550  220.9420 O   0  0  0  0  0  0  0  0  0  0  0  0
  139.4680   78.2830  222.1110 N   0  0  0  0  0  0  0  0  0  0  0  0
  140.6680   79.0460  222.4750 C   0  0  0  0  0  0  0  0  0  0  0  0
  141.0450   79.1270  223.8030 C   0  0  0  0  0  0  0  0  0  0  0  0
  142.1940   79.8600  224.1150 C   0  0  0  0  0  0  0  0  0  0  0  0
  142.9190   80.4820  223.1100 C   0  0  0  0  0  0  0  0  0  0  0  0
  142.5170   80.3830  221.7910 C   0  0  0  0  0  0  0  0  0  0  0  0
  141.3740   79.6560  221.4580 C   0  0  0  0  0  0  0  0  0  0  0  0
  139.6690   76.9170  221.8290 C   0  0  0  0  0  0  0  0  0  0  0  0
  138.6140   76.0000  222.4650 C   0  0  0  0  0  0  0  0  0  0  0  0
  138.7430   74.6470  221.7700 C   0  0  0  0  0  0  0  0  0  0  0  0
  140.1340   74.2240  221.7280 N   0  0  0  0  0  0  0  0  0  0  0  0
  140.4050   72.8190  221.9070 C   0  0  0  0  0  0  0  0  0  0  0  0
  141.5940   72.3740  221.8840 O   0  0  0  0  0  0  0  0  0  0  0  0
  139.3290   71.8390  222.1270 C   0  0  0  0  0  0  0  0  0  0  0  0
  139.5270   71.2470  223.4760 C   0  0  0  0  0  0  0  0  0  0  0  0
  138.9720   69.9830  223.6930 C   0  0  0  0  0  0  0  0  0  0  0  0
  139.0830   69.3260  224.8960 C   0  0  0  0  0  0  0  0  0  0  0  0
  139.7760   69.9690  225.9040 C   0  0  0  0  0  0  0  0  0  0  0  0
  139.9050   69.3350  227.1240 C   0  0  0  0  0  0  0  0  0  0  0  0
  140.5840   69.9170  228.1810 C   0  0  0  0  0  0  0  0  0  0  0  0
  141.1380   71.1700  227.9750 C   0  0  0  0  0  0  0  0  0  0  0  0
  141.0160   71.8200  226.7540 C   0  0  0  0  0  0  0  0  0  0  0  0
  140.3300   71.2210  225.7020 C   0  0  0  0  0  0  0  0  0  0  0  0
  140.2170   71.8880  224.4820 C   0  0  0  0  0  0  0  0  0  0  0  0
  141.2450   75.1080  221.5210 C   0  0  0  0  0  0  0  0  0  0  0  0
  140.9940   76.3790  222.3230 C   0  0  0  0  0  0  0  0  0  0  0  0
  137.9531   80.5560  225.0157 H   0  0  0  0  0  0  0  0  0  0  0  0
  139.0619   80.8271  223.6287 H   0  0  0  0  0  0  0  0  0  0  0  0
  137.4256   81.5682  223.6287 H   0  0  0  0  0  0  0  0  0  0  0  0
  137.4071   78.6155  223.9555 H   0  0  0  0  0  0  0  0  0  0  0  0
  136.4421   79.6768  222.8558 H   0  0  0  0  0  0  0  0  0  0  0  0
  140.4588   78.6299  224.5899 H   0  0  0  0  0  0  0  0  0  0  0  0
  142.5238   79.9435  225.1611 H   0  0  0  0  0  0  0  0  0  0  0  0
  143.8207   81.0585  223.3641 H   0  0  0  0  0  0  0  0  0  0  0  0
  143.1004   80.8792  221.0014 H   0  0  0  0  0  0  0  0  0  0  0  0
  141.0440   79.5711  220.4121 H   0  0  0  0  0  0  0  0  0  0  0  0
  139.6151   76.8976  220.7305 H   0  0  0  0  0  0  0  0  0  0  0  0
  138.8032   75.8933  223.5433 H   0  0  0  0  0  0  0  0  0  0  0  0
  137.6020   76.4143  222.3460 H   0  0  0  0  0  0  0  0  0  0  0  0
  138.1543   73.8995  222.3219 H   0  0  0  0  0  0  0  0  0  0  0  0
  138.3693   74.7404  220.7397 H   0  0  0  0  0  0  0  0  0  0  0  0
  138.3505   72.3392  222.0771 H   0  0  0  0  0  0  0  0  0  0  0  0
  139.3564   71.0563  221.3546 H   0  0  0  0  0  0  0  0  0  0  0  0
  138.4264   69.4957  222.8715 H   0  0  0  0  0  0  0  0  0  0  0  0
  138.6392   68.3313  225.0493 H   0  0  0  0  0  0  0  0  0  0  0  0
  139.4559   68.3401  227.2598 H   0  0  0  0  0  0  0  0  0  0  0  0
  140.6801   69.4033  229.1489 H   0  0  0  0  0  0  0  0  0  0  0  0
  141.6850   71.6593  228.7944 H   0  0  0  0  0  0  0  0  0  0  0  0
  141.4647   72.8150  226.6175 H   0  0  0  0  0  0  0  0  0  0  0  0
  140.6598   72.8833  224.3295 H   0  0  0  0  0  0  0  0  0  0  0  0
  142.1729   74.6275  221.8645 H   0  0  0  0  0  0  0  0  0  0  0  0
  141.3488   75.3460  220.4521 H   0  0  0  0  0  0  0  0  0  0  0  0
  140.9389   76.1504  223.3976 H   0  0  0  0  0  0  0  0  0  0  0  0
  141.8049   77.1104  222.1909 H   0  0  0  0  0  0  0  0  0  0  0  0
  1  2  1  0
  2  3  1  0
  3  4  2  0
  3  5  1  0
  5  6  1  0
  6  7  2  0
  7  8  1  0
  8  9  2  0
  9 10  1  0
 10 11  2  0
  5 12  1  0
 12 13  1  0
 13 14  1  0
 14 15  1  0
 15 16  1  0
 16 17  2  0
 16 18  1  0
 18 19  1  0
 19 20  2  0
 20 21  1  0
 21 22  2  0
 22 23  1  0
 23 24  2  0
 24 25  1  0
 25 26  2  0
 26 27  1  0
 27 28  2  0
 15 29  1  0
 29 30  1  0
 11  6  1  0
 30 12  1  0
 28 19  1  0
 27 22  1  0
  1 31  1  0
  1 32  1  0
  1 33  1  0
  2 34  1  0
  2 35  1  0
  7 36  1  0
  8 37  1  0
  9 38  1  0
 10 39  1  0
 11 40  1  0
 12 41  1  0
 13 42  1  0
 13 43  1  0
 14 44  1  0
 14 45  1  0
 18 46  1  0
 18 47  1  0
 20 48  1  0
 21 49  1  0
 23 50  1  0
 24 51  1  0
 25 52  1  0
 26 53  1  0
 28 54  1  0
 29 55  1  0
 29 56  1  0
 30 57  1  0
 30 58  1  0
M  END
>  <smiles>  (45) 
CCC(=O)N(c1ccccc1)C1CCN(C(=O)Cc2ccc3ccccc3c2)CC1

>  <score_type>  (45) 
oracle

>  <origin>  (45) 
autodockgpu

>  <m_score__min__energy>  (45) 
-9.0999999999999996

>  <m_primary>  (45) 
energy

>  <rmsd>  (45) 
8.204495630858538

>  <m_score__min__rmsd>  (45) 
8.204495630858538

>  <meeko>  (45) 
{"free_energy": -8.97, "intermolecular_energy": -10.76, "internal_energy": -1.48, "cluster_size": 46, "cluster_id": 1, "rank_in_cluster": 22}

>  <energy>  (45) 
-8.65

>  <cluster_rmsd>  (45) 
1.93

>  <cluster>  (45) 
1

$$$$

     RDKit          3D

 58 61  0  0  0  0  0  0  0  0999 V2000
  138.1850   81.2890  222.7830 C   0  0  0  0  0  0  0  0  0  0  0  0
  137.8690   79.9280  223.4090 C   0  0  0  0  0  0  0  0  0  0  0  0
  138.1650   78.8380  222.4720 C   0  0  0  0  0  0  0  0  0  0  0  0
  137.1870   78.4550  221.7320 O   0  0  0  0  0  0  0  0  0  0  0  0
  139.3770   78.1610  222.2780 N   0  0  0  0  0  0  0  0  0  0  0  0
  140.5650   78.9970  222.4830 C   0  0  0  0  0  0  0  0  0  0  0  0
  141.1590   79.6150  221.3980 C   0  0  0  0  0  0  0  0  0  0  0  0
  142.2880   80.4050  221.6290 C   0  0  0  0  0  0  0  0  0  0  0  0
  142.7840   80.5520  222.9160 C   0  0  0  0  0  0  0  0  0  0  0  0
  142.1700   79.9220  223.9810 C   0  0  0  0  0  0  0  0  0  0  0  0
  141.0420   79.1300  223.7720 C   0  0  0  0  0  0  0  0  0  0  0  0
  139.6230   76.8190  221.9190 C   0  0  0  0  0  0  0  0  0  0  0  0
  138.6290   75.8280  222.5410 C   0  0  0  0  0  0  0  0  0  0  0  0
  138.7880   74.5180  221.7740 C   0  0  0  0  0  0  0  0  0  0  0  0
  140.1920   74.1580  221.6640 N   0  0  0  0  0  0  0  0  0  0  0  0
  140.5260   72.7570  221.7620 C   0  0  0  0  0  0  0  0  0  0  0  0
  141.7310   72.3650  221.6760 O   0  0  0  0  0  0  0  0  0  0  0  0
  139.4990   71.7230  221.9650 C   0  0  0  0  0  0  0  0  0  0  0  0
  139.6600   71.1940  223.3460 C   0  0  0  0  0  0  0  0  0  0  0  0
  139.1310   69.9250  223.5950 C   0  0  0  0  0  0  0  0  0  0  0  0
  139.2130   69.3230  224.8290 C   0  0  0  0  0  0  0  0  0  0  0  0
  139.8480   70.0260  225.8340 C   0  0  0  0  0  0  0  0  0  0  0  0
  139.9460   69.4490  227.0840 C   0  0  0  0  0  0  0  0  0  0  0  0
  140.5680   70.0930  228.1400 C   0  0  0  0  0  0  0  0  0  0  0  0
  141.0950   71.3530  227.9020 C   0  0  0  0  0  0  0  0  0  0  0  0
  141.0030   71.9470  226.6500 C   0  0  0  0  0  0  0  0  0  0  0  0
  140.3750   71.2840  225.6000 C   0  0  0  0  0  0  0  0  0  0  0  0
  140.2920   71.8960  224.3490 C   0  0  0  0  0  0  0  0  0  0  0  0
  141.2590   75.0960  221.4660 C   0  0  0  0  0  0  0  0  0  0  0  0
  140.9860   76.3140  222.3410 C   0  0  0  0  0  0  0  0  0  0  0  0
  138.3566   82.0280  223.5795 H   0  0  0  0  0  0  0  0  0  0  0  0
  139.0876   81.2053  222.1599 H   0  0  0  0  0  0  0  0  0  0  0  0
  137.3379   81.6116  222.1599 H   0  0  0  0  0  0  0  0  0  0  0  0
  138.4783   79.7987  224.3157 H   0  0  0  0  0  0  0  0  0  0  0  0
  136.7979   79.8961  223.6574 H   0  0  0  0  0  0  0  0  0  0  0  0
  140.7546   79.4884  220.3829 H   0  0  0  0  0  0  0  0  0  0  0  0
  142.7846   80.9115  220.7883 H   0  0  0  0  0  0  0  0  0  0  0  0
  143.6735   81.1753  223.0900 H   0  0  0  0  0  0  0  0  0  0  0  0
  142.5724   80.0457  224.9973 H   0  0  0  0  0  0  0  0  0  0  0  0
  140.5446   78.6239  224.6125 H   0  0  0  0  0  0  0  0  0  0  0  0
  139.5311   76.8516  220.8233 H   0  0  0  0  0  0  0  0  0  0  0  0
  138.8597   75.6757  223.6057 H   0  0  0  0  0  0  0  0  0  0  0  0
  137.5976   76.2048  222.4764 H   0  0  0  0  0  0  0  0  0  0  0  0
  138.2505   73.7195  222.3065 H   0  0  0  0  0  0  0  0  0  0  0  0
  138.3739   74.6459  220.7630 H   0  0  0  0  0  0  0  0  0  0  0  0
  138.4970   72.1610  221.8456 H   0  0  0  0  0  0  0  0  0  0  0  0
  139.6124   70.9157  221.2265 H   0  0  0  0  0  0  0  0  0  0  0  0
  138.6312   69.3884  222.7751 H   0  0  0  0  0  0  0  0  0  0  0  0
  138.7904   68.3233  225.0080 H   0  0  0  0  0  0  0  0  0  0  0  0
  139.5176   68.4488  227.2458 H   0  0  0  0  0  0  0  0  0  0  0  0
  140.6413   69.6222  229.1315 H   0  0  0  0  0  0  0  0  0  0  0  0
  141.5953   71.8922  228.7199 H   0  0  0  0  0  0  0  0  0  0  0  0
  141.4293   72.9479  226.4873 H   0  0  0  0  0  0  0  0  0  0  0  0
  140.7132   72.8964  224.1710 H   0  0  0  0  0  0  0  0  0  0  0  0
  142.2168   74.6375  221.7532 H   0  0  0  0  0  0  0  0  0  0  0  0
  141.3158   75.3914  220.4079 H   0  0  0  0  0  0  0  0  0  0  0  0
  140.9784   76.0298  223.4036 H   0  0  0  0  0  0  0  0  0  0  0  0
  141.7616   77.0847  222.2204 H   0  0  0  0  0  0  0  0  0  0  0  0
  1  2  1  0
  2  3  1  0
  3  4  2  0
  3  5  1  0
  5  6  1  0
  6  7  2  0
  7  8  1  0
  8  9  2  0
  9 10  1  0
 10 11  2  0
  5 12  1  0
 12 13  1  0
 13 14  1  0
 14 15  1  0
 15 16  1  0
 16 17  2  0
 16 18  1  0
 18 19  1  0
 19 20  2  0
 20 21  1  0
 21 22  2  0
 22 23  1  0
 23 24  2  0
 24 25  1  0
 25 26  2  0
 26 27  1  0
 27 28  2  0
 15 29  1  0
 29 30  1  0
 11  6  1  0
 30 12  1  0
 28 19  1  0
 27 22  1  0
  1 31  1  0
  1 32  1  0
  1 33  1  0
  2 34  1  0
  2 35  1  0
  7 36  1  0
  8 37  1  0
  9 38  1  0
 10 39  1  0
 11 40  1  0
 12 41  1  0
 13 42  1  0
 13 43  1  0
 14 44  1  0
 14 45  1  0
 18 46  1  0
 18 47  1  0
 20 48  1  0
 21 49  1  0
 23 50  1  0
 24 51  1  0
 25 52  1  0
 26 53  1  0
 28 54  1  0
 29 55  1  0
 29 56  1  0
 30 57  1  0
 30 58  1  0
M  END
>  <smiles>  (46) 
CCC(=O)N(c1ccccc1)C1CCN(C(=O)Cc2ccc3ccccc3c2)CC1

>  <score_type>  (46) 
oracle

>  <origin>  (46) 
autodockgpu

>  <m_score__min__energy>  (46) 
-9.0999999999999996

>  <m_primary>  (46) 
energy

>  <rmsd>  (46) 
8.158312673552382

>  <m_score__min__rmsd>  (46) 
8.158312673552382

>  <meeko>  (46) 
{"free_energy": -8.93, "intermolecular_energy": -10.72, "internal_energy": -1.53, "cluster_size": 46, "cluster_id": 1, "rank_in_cluster": 36}

>  <energy>  (46) 
-8.53

>  <cluster_rmsd>  (46) 
1.71

>  <cluster>  (46) 
1

$$$$

     RDKit          3D

 58 61  0  0  0  0  0  0  0  0999 V2000
  142.8950   78.7370  217.8460 C   0  0  0  0  0  0  0  0  0  0  0  0
  142.5810   77.5530  218.7620 C   0  0  0  0  0  0  0  0  0  0  0  0
  141.3830   77.8160  219.5680 C   0  0  0  0  0  0  0  0  0  0  0  0
  140.4470   78.4740  218.9820 O   0  0  0  0  0  0  0  0  0  0  0  0
  141.1240   77.4400  220.8940 N   0  0  0  0  0  0  0  0  0  0  0  0
  141.4890   78.4600  221.8830 C   0  0  0  0  0  0  0  0  0  0  0  0
  141.4220   78.1570  223.2300 C   0  0  0  0  0  0  0  0  0  0  0  0
  141.7780   79.1520  224.1460 C   0  0  0  0  0  0  0  0  0  0  0  0
  142.1820   80.4000  223.6960 C   0  0  0  0  0  0  0  0  0  0  0  0
  142.2390   80.6740  222.3430 C   0  0  0  0  0  0  0  0  0  0  0  0
  141.8890   79.6950  221.4130 C   0  0  0  0  0  0  0  0  0  0  0  0
  140.5760   76.2480  221.4110 C   0  0  0  0  0  0  0  0  0  0  0  0
  141.3450   74.9870  220.9910 C   0  0  0  0  0  0  0  0  0  0  0  0
  140.8750   73.8670  221.9140 C   0  0  0  0  0  0  0  0  0  0  0  0
  139.4230   73.8360  221.9810 N   0  0  0  0  0  0  0  0  0  0  0  0
  138.7900   72.5410  222.0490 C   0  0  0  0  0  0  0  0  0  0  0  0
  137.5260   72.4330  222.1100 O   0  0  0  0  0  0  0  0  0  0  0  0
  139.5690   71.2920  222.0500 C   0  0  0  0  0  0  0  0  0  0  0  0
  139.7370   70.8670  223.4650 C   0  0  0  0  0  0  0  0  0  0  0  0
  139.2600   69.5960  223.7980 C   0  0  0  0  0  0  0  0  0  0  0  0
  139.3540   69.0840  225.0710 C   0  0  0  0  0  0  0  0  0  0  0  0
  139.9480   69.8820  226.0290 C   0  0  0  0  0  0  0  0  0  0  0  0
  140.0590   69.3960  227.3170 C   0  0  0  0  0  0  0  0  0  0  0  0
  140.6410   70.1380  228.3310 C   0  0  0  0  0  0  0  0  0  0  0  0
  141.1170   71.3990  228.0100 C   0  0  0  0  0  0  0  0  0  0  0  0
  141.0130   71.9020  226.7190 C   0  0  0  0  0  0  0  0  0  0  0  0
  140.4250   71.1420  225.7130 C   0  0  0  0  0  0  0  0  0  0  0  0
  140.3290   71.6620  224.4220 C   0  0  0  0  0  0  0  0  0  0  0  0
  138.5840   75.0000  221.9840 C   0  0  0  0  0  0  0  0  0  0  0  0
  139.1500   75.9920  220.9740 C   0  0  0  0  0  0  0  0  0  0  0  0
  143.1295   79.6212  218.4570 H   0  0  0  0  0  0  0  0  0  0  0  0
  143.7588   78.4904  217.2111 H   0  0  0  0  0  0  0  0  0  0  0  0
  142.0225   78.9509  217.2111 H   0  0  0  0  0  0  0  0  0  0  0  0
  142.4113   76.6571  218.1467 H   0  0  0  0  0  0  0  0  0  0  0  0
  143.4332   77.3984  219.4402 H   0  0  0  0  0  0  0  0  0  0  0  0
  141.0982   77.1627  223.5713 H   0  0  0  0  0  0  0  0  0  0  0  0
  141.7375   78.9443  225.2255 H   0  0  0  0  0  0  0  0  0  0  0  0
  142.4594   81.1782  224.4223 H   0  0  0  0  0  0  0  0  0  0  0  0
  142.5614   81.6675  221.9980 H   0  0  0  0  0  0  0  0  0  0  0  0
  141.9306   79.9016  220.3334 H   0  0  0  0  0  0  0  0  0  0  0  0
  140.6378   76.4175  222.4961 H   0  0  0  0  0  0  0  0  0  0  0  0
  141.1207   74.7360  219.9438 H   0  0  0  0  0  0  0  0  0  0  0  0
  142.4317   75.1384  221.0698 H   0  0  0  0  0  0  0  0  0  0  0  0
  141.2400   72.9035  221.5286 H   0  0  0  0  0  0  0  0  0  0  0  0
  141.2733   74.0479  222.9233 H   0  0  0  0  0  0  0  0  0  0  0  0
  139.0321   70.5148  221.4863 H   0  0  0  0  0  0  0  0  0  0  0  0
  140.5488   71.4479  221.5749 H   0  0  0  0  0  0  0  0  0  0  0  0
  138.7924   68.9830  223.0134 H   0  0  0  0  0  0  0  0  0  0  0  0
  138.9724   68.0817  225.3157 H   0  0  0  0  0  0  0  0  0  0  0  0
  139.6741   68.3908  227.5438 H   0  0  0  0  0  0  0  0  0  0  0  0
  140.7224   69.7410  229.3536 H   0  0  0  0  0  0  0  0  0  0  0  0
  141.5863   72.0137  228.7923 H   0  0  0  0  0  0  0  0  0  0  0  0
  141.3978   72.9070  226.4910 H   0  0  0  0  0  0  0  0  0  0  0  0
  140.7100   72.6647  224.1783 H   0  0  0  0  0  0  0  0  0  0  0  0
  137.5586   74.7217  221.6993 H   0  0  0  0  0  0  0  0  0  0  0  0
  138.5582   75.4496  222.9876 H   0  0  0  0  0  0  0  0  0  0  0  0
  139.1298   75.5628  219.9614 H   0  0  0  0  0  0  0  0  0  0  0  0
  138.5612   76.9206  220.9413 H   0  0  0  0  0  0  0  0  0  0  0  0
  1  2  1  0
  2  3  1  0
  3  4  2  0
  3  5  1  0
  5  6  1  0
  6  7  2  0
  7  8  1  0
  8  9  2  0
  9 10  1  0
 10 11  2  0
  5 12  1  0
 12 13  1  0
 13 14  1  0
 14 15  1  0
 15 16  1  0
 16 17  2  0
 16 18  1  0
 18 19  1  0
 19 20  2  0
 20 21  1  0
 21 22  2  0
 22 23  1  0
 23 24  2  0
 24 25  1  0
 25 26  2  0
 26 27  1  0
 27 28  2  0
 15 29  1  0
 29 30  1  0
 11  6  1  0
 30 12  1  0
 28 19  1  0
 27 22  1  0
  1 31  1  0
  1 32  1  0
  1 33  1  0
  2 34  1  0
  2 35  1  0
  7 36  1  0
  8 37  1  0
  9 38  1  0
 10 39  1  0
 11 40  1  0
 12 41  1  0
 13 42  1  0
 13 43  1  0
 14 44  1  0
 14 45  1  0
 18 46  1  0
 18 47  1  0
 20 48  1  0
 21 49  1  0
 23 50  1  0
 24 51  1  0
 25 52  1  0
 26 53  1  0
 28 54  1  0
 29 55  1  0
 29 56  1  0
 30 57  1  0
 30 58  1  0
M  END
>  <smiles>  (47) 
CCC(=O)N(c1ccccc1)C1CCN(C(=O)Cc2ccc3ccccc3c2)CC1

>  <score_type>  (47) 
oracle

>  <origin>  (47) 
autodockgpu

>  <m_score__min__energy>  (47) 
-9.0999999999999996

>  <m_primary>  (47) 
energy

>  <rmsd>  (47) 
8.239735568571685

>  <m_score__min__rmsd>  (47) 
8.239735568571685

>  <meeko>  (47) 
{"free_energy": -8.89, "intermolecular_energy": -10.68, "internal_energy": -1.49, "cluster_size": 46, "cluster_id": 1, "rank_in_cluster": 41}

>  <energy>  (47) 
-8.97

>  <cluster_rmsd>  (47) 
0.0

>  <cluster>  (47) 
2

$$$$

     RDKit          3D

 58 61  0  0  0  0  0  0  0  0999 V2000
  143.1250   75.6660  218.0550 C   0  0  0  0  0  0  0  0  0  0  0  0
  143.3190   76.8110  219.0510 C   0  0  0  0  0  0  0  0  0  0  0  0
  142.0270   77.2970  219.5490 C   0  0  0  0  0  0  0  0  0  0  0  0
  141.3330   77.9910  218.7200 O   0  0  0  0  0  0  0  0  0  0  0  0
  141.4500   77.1020  220.8130 N   0  0  0  0  0  0  0  0  0  0  0  0
  141.5460   78.2700  221.6960 C   0  0  0  0  0  0  0  0  0  0  0  0
  141.8040   79.5150  221.1540 C   0  0  0  0  0  0  0  0  0  0  0  0
  141.8880   80.6060  222.0240 C   0  0  0  0  0  0  0  0  0  0  0  0
  141.7160   80.4240  223.3870 C   0  0  0  0  0  0  0  0  0  0  0  0
  141.4590   79.1670  223.9010 C   0  0  0  0  0  0  0  0  0  0  0  0
  141.3700   78.0660  223.0500 C   0  0  0  0  0  0  0  0  0  0  0  0
  140.8040   75.9720  221.3530 C   0  0  0  0  0  0  0  0  0  0  0  0
  141.4320   74.6400  220.9150 C   0  0  0  0  0  0  0  0  0  0  0  0
  140.8830   73.5730  221.8580 C   0  0  0  0  0  0  0  0  0  0  0  0
  139.4380   73.6860  221.9710 N   0  0  0  0  0  0  0  0  0  0  0  0
  138.6830   72.4600  222.0660 C   0  0  0  0  0  0  0  0  0  0  0  0
  137.4170   72.4770  222.1670 O   0  0  0  0  0  0  0  0  0  0  0  0
  139.3340   71.1400  222.0490 C   0  0  0  0  0  0  0  0  0  0  0  0
  139.5670   70.7340  223.4600 C   0  0  0  0  0  0  0  0  0  0  0  0
  139.1620   69.4440  223.8150 C   0  0  0  0  0  0  0  0  0  0  0  0
  139.3210   68.9470  225.0870 C   0  0  0  0  0  0  0  0  0  0  0  0
  139.9060   69.7790  226.0210 C   0  0  0  0  0  0  0  0  0  0  0  0
  140.0800   69.3090  227.3080 C   0  0  0  0  0  0  0  0  0  0  0  0
  140.6570   70.0850  228.2990 C   0  0  0  0  0  0  0  0  0  0  0  0
  141.0610   71.3660  227.9550 C   0  0  0  0  0  0  0  0  0  0  0  0
  140.8930   71.8530  226.6660 C   0  0  0  0  0  0  0  0  0  0  0  0
  140.3110   71.0590  225.6830 C   0  0  0  0  0  0  0  0  0  0  0  0
  140.1490   71.5640  224.3920 C   0  0  0  0  0  0  0  0  0  0  0  0
  138.7180   74.9270  221.9950 C   0  0  0  0  0  0  0  0  0  0  0  0
  139.3460   75.8570  220.9620 C   0  0  0  0  0  0  0  0  0  0  0  0
  142.9657   74.7259  218.6035 H   0  0  0  0  0  0  0  0  0  0  0  0
  142.2494   75.8745  217.4227 H   0  0  0  0  0  0  0  0  0  0  0  0
  144.0204   75.5744  217.4227 H   0  0  0  0  0  0  0  0  0  0  0  0
  143.9200   76.4522  219.8995 H   0  0  0  0  0  0  0  0  0  0  0  0
  143.8320   77.6386  218.5392 H   0  0  0  0  0  0  0  0  0  0  0  0
  141.9393   79.6436  220.0700 H   0  0  0  0  0  0  0  0  0  0  0  0
  142.0911   81.6111  221.6258 H   0  0  0  0  0  0  0  0  0  0  0  0
  141.7846   81.2871  224.0655 H   0  0  0  0  0  0  0  0  0  0  0  0
  141.3243   79.0347  224.9847 H   0  0  0  0  0  0  0  0  0  0  0  0
  141.1649   77.0609  223.4472 H   0  0  0  0  0  0  0  0  0  0  0  0
  140.9160   76.1367  222.4348 H   0  0  0  0  0  0  0  0  0  0  0  0
  141.1513   74.4105  219.8765 H   0  0  0  0  0  0  0  0  0  0  0  0
  142.5303   74.6838  220.9591 H   0  0  0  0  0  0  0  0  0  0  0  0
  141.1384   72.5776  221.4658 H   0  0  0  0  0  0  0  0  0  0  0  0
  141.3292   73.7152  222.8533 H   0  0  0  0  0  0  0  0  0  0  0  0
  138.6824   70.4071  221.5508 H   0  0  0  0  0  0  0  0  0  0  0  0
  140.2854   71.1862  221.4988 H   0  0  0  0  0  0  0  0  0  0  0  0
  138.6996   68.8037  223.0493 H   0  0  0  0  0  0  0  0  0  0  0  0
  138.9959   67.9295  225.3496 H   0  0  0  0  0  0  0  0  0  0  0  0
  139.7506   68.2884  227.5529 H   0  0  0  0  0  0  0  0  0  0  0  0
  140.7899   69.6997  229.3207 H   0  0  0  0  0  0  0  0  0  0  0  0
  141.5236   72.0088  228.7184 H   0  0  0  0  0  0  0  0  0  0  0  0
  141.2222   72.8734  226.4202 H   0  0  0  0  0  0  0  0  0  0  0  0
  140.4726   72.5822  224.1300 H   0  0  0  0  0  0  0  0  0  0  0  0
  137.6615   74.7504  221.7447 H   0  0  0  0  0  0  0  0  0  0  0  0
  138.7690   75.3788  222.9966 H   0  0  0  0  0  0  0  0  0  0  0  0
  139.2514   75.4300  219.9527 H   0  0  0  0  0  0  0  0  0  0  0  0
  138.8504   76.8389  220.9429 H   0  0  0  0  0  0  0  0  0  0  0  0
  1  2  1  0
  2  3  1  0
  3  4  2  0
  3  5  1  0
  5  6  1  0
  6  7  2  0
  7  8  1  0
  8  9  2  0
  9 10  1  0
 10 11  2  0
  5 12  1  0
 12 13  1  0
 13 14  1  0
 14 15  1  0
 15 16  1  0
 16 17  2  0
 16 18  1  0
 18 19  1  0
 19 20  2  0
 20 21  1  0
 21 22  2  0
 22 23  1  0
 23 24  2  0
 24 25  1  0
 25 26  2  0
 26 27  1  0
 27 28  2  0
 15 29  1  0
 29 30  1  0
 11  6  1  0
 30 12  1  0
 28 19  1  0
 27 22  1  0
  1 31  1  0
  1 32  1  0
  1 33  1  0
  2 34  1  0
  2 35  1  0
  7 36  1  0
  8 37  1  0
  9 38  1  0
 10 39  1  0
 11 40  1  0
 12 41  1  0
 13 42  1  0
 13 43  1  0
 14 44  1  0
 14 45  1  0
 18 46  1  0
 18 47  1  0
 20 48  1  0
 21 49  1  0
 23 50  1  0
 24 51  1  0
 25 52  1  0
 26 53  1  0
 28 54  1  0
 29 55  1  0
 29 56  1  0
 30 57  1  0
 30 58  1  0
M  END
>  <smiles>  (48) 
CCC(=O)N(c1ccccc1)C1CCN(C(=O)Cc2ccc3ccccc3c2)CC1

>  <score_type>  (48) 
oracle

>  <origin>  (48) 
autodockgpu

>  <m_score__min__energy>  (48) 
-9.0999999999999996

>  <m_primary>  (48) 
energy

>  <rmsd>  (48) 
8.273262249675888

>  <m_score__min__rmsd>  (48) 
8.273262249675888

>  <meeko>  (48) 
{"free_energy": -8.82, "intermolecular_energy": -10.61, "internal_energy": -1.49, "cluster_size": 46, "cluster_id": 1, "rank_in_cluster": 43}

>  <energy>  (48) 
-8.87

>  <cluster_rmsd>  (48) 
0.48

>  <cluster>  (48) 
2

$$$$

     RDKit          3D

 58 61  0  0  0  0  0  0  0  0999 V2000
  143.5080   76.3680  219.4540 C   0  0  0  0  0  0  0  0  0  0  0  0
  142.5950   77.3650  218.7360 C   0  0  0  0  0  0  0  0  0  0  0  0
  141.3880   77.6340  219.5260 C   0  0  0  0  0  0  0  0  0  0  0  0
  140.4560   78.2810  218.9210 O   0  0  0  0  0  0  0  0  0  0  0  0
  141.1170   77.2750  220.8540 N   0  0  0  0  0  0  0  0  0  0  0  0
  141.4930   78.2990  221.8350 C   0  0  0  0  0  0  0  0  0  0  0  0
  141.4420   78.0010  223.1840 C   0  0  0  0  0  0  0  0  0  0  0  0
  141.8080   78.9990  224.0920 C   0  0  0  0  0  0  0  0  0  0  0  0
  142.2050   80.2460  223.6330 C   0  0  0  0  0  0  0  0  0  0  0  0
  142.2450   80.5150  222.2780 C   0  0  0  0  0  0  0  0  0  0  0  0
  141.8850   79.5330  221.3560 C   0  0  0  0  0  0  0  0  0  0  0  0
  140.5480   76.0970  221.3800 C   0  0  0  0  0  0  0  0  0  0  0  0
  141.2970   74.8200  220.9720 C   0  0  0  0  0  0  0  0  0  0  0  0
  140.8060   73.7150  221.9030 C   0  0  0  0  0  0  0  0  0  0  0  0
  139.3540   73.7090  221.9680 N   0  0  0  0  0  0  0  0  0  0  0  0
  138.6990   72.4250  222.0450 C   0  0  0  0  0  0  0  0  0  0  0  0
  137.4340   72.3390  222.1030 O   0  0  0  0  0  0  0  0  0  0  0  0
  139.4570   71.1640  222.0580 C   0  0  0  0  0  0  0  0  0  0  0  0
  139.6440   70.7650  223.4780 C   0  0  0  0  0  0  0  0  0  0  0  0
  139.1780   69.4980  223.8400 C   0  0  0  0  0  0  0  0  0  0  0  0
  139.2900   69.0100  225.1200 C   0  0  0  0  0  0  0  0  0  0  0  0
  139.8910   69.8280  226.0570 C   0  0  0  0  0  0  0  0  0  0  0  0
  140.0180   69.3670  227.3520 C   0  0  0  0  0  0  0  0  0  0  0  0
  140.6090   70.1300  228.3460 C   0  0  0  0  0  0  0  0  0  0  0  0
  141.0730   71.3880  227.9960 C   0  0  0  0  0  0  0  0  0  0  0  0
  140.9520   71.8660  226.6980 C   0  0  0  0  0  0  0  0  0  0  0  0
  140.3560   71.0850  225.7120 C   0  0  0  0  0  0  0  0  0  0  0  0
  140.2420   71.5810  224.4130 C   0  0  0  0  0  0  0  0  0  0  0  0
  138.5340   74.8870  221.9590 C   0  0  0  0  0  0  0  0  0  0  0  0
  139.1180   75.8610  220.9420 C   0  0  0  0  0  0  0  0  0  0  0  0
  143.3982   76.4879  220.5419 H   0  0  0  0  0  0  0  0  0  0  0  0
  143.2286   75.3432  219.1680 H   0  0  0  0  0  0  0  0  0  0  0  0
  144.5533   76.5564  219.1680 H   0  0  0  0  0  0  0  0  0  0  0  0
  143.1416   78.3070  218.5817 H   0  0  0  0  0  0  0  0  0  0  0  0
  142.2935   76.9326  217.7705 H   0  0  0  0  0  0  0  0  0  0  0  0
  141.1228   77.0078  223.5327 H   0  0  0  0  0  0  0  0  0  0  0  0
  141.7810   78.7948  225.1725 H   0  0  0  0  0  0  0  0  0  0  0  0
  142.4903   81.0271  224.3531 H   0  0  0  0  0  0  0  0  0  0  0  0
  142.5620   81.5076  221.9256 H   0  0  0  0  0  0  0  0  0  0  0  0
  141.9126   79.7362  220.2753 H   0  0  0  0  0  0  0  0  0  0  0  0
  140.6101   76.2745  222.4638 H   0  0  0  0  0  0  0  0  0  0  0  0
  141.0711   74.5644  219.9262 H   0  0  0  0  0  0  0  0  0  0  0  0
  142.3858   74.9540  221.0524 H   0  0  0  0  0  0  0  0  0  0  0  0
  141.1551   72.7425  221.5256 H   0  0  0  0  0  0  0  0  0  0  0  0
  141.2056   73.8972  222.9115 H   0  0  0  0  0  0  0  0  0  0  0  0
  138.8972   70.3846  221.5202 H   0  0  0  0  0  0  0  0  0  0  0  0
  140.4304   71.2939  221.5624 H   0  0  0  0  0  0  0  0  0  0  0  0
  138.7043   68.8684  223.0724 H   0  0  0  0  0  0  0  0  0  0  0  0
  138.9168   68.0103  225.3870 H   0  0  0  0  0  0  0  0  0  0  0  0
  139.6391   68.3650  227.6019 H   0  0  0  0  0  0  0  0  0  0  0  0
  140.7062   69.7515  229.3742 H   0  0  0  0  0  0  0  0  0  0  0  0
  141.5465   72.0203  228.7615 H   0  0  0  0  0  0  0  0  0  0  0  0
  141.3296   72.8683  226.4473 H   0  0  0  0  0  0  0  0  0  0  0  0
  140.6139   72.5814  224.1467 H   0  0  0  0  0  0  0  0  0  0  0  0
  137.5048   74.6230  221.6744 H   0  0  0  0  0  0  0  0  0  0  0  0
  138.5136   75.3456  222.9587 H   0  0  0  0  0  0  0  0  0  0  0  0
  139.0925   75.4238  219.9329 H   0  0  0  0  0  0  0  0  0  0  0  0
  138.5447   76.7989  220.9004 H   0  0  0  0  0  0  0  0  0  0  0  0
  1  2  1  0
  2  3  1  0
  3  4  2  0
  3  5  1  0
  5  6  1  0
  6  7  2  0
  7  8  1  0
  8  9  2  0
  9 10  1  0
 10 11  2  0
  5 12  1  0
 12 13  1  0
 13 14  1  0
 14 15  1  0
 15 16  1  0
 16 17  2  0
 16 18  1  0
 18 19  1  0
 19 20  2  0
 20 21  1  0
 21 22  2  0
 22 23  1  0
 23 24  2  0
 24 25  1  0
 25 26  2  0
 26 27  1  0
 27 28  2  0
 15 29  1  0
 29 30  1  0
 11  6  1  0
 30 12  1  0
 28 19  1  0
 27 22  1  0
  1 31  1  0
  1 32  1  0
  1 33  1  0
  2 34  1  0
  2 35  1  0
  7 36  1  0
  8 37  1  0
  9 38  1  0
 10 39  1  0
 11 40  1  0
 12 41  1  0
 13 42  1  0
 13 43  1  0
 14 44  1  0
 14 45  1  0
 18 46  1  0
 18 47  1  0
 20 48  1  0
 21 49  1  0
 23 50  1  0
 24 51  1  0
 25 52  1  0
 26 53  1  0
 28 54  1  0
 29 55  1  0
 29 56  1  0
 30 57  1  0
 30 58  1  0
M  END
>  <smiles>  (49) 
CCC(=O)N(c1ccccc1)C1CCN(C(=O)Cc2ccc3ccccc3c2)CC1

>  <score_type>  (49) 
oracle

>  <origin>  (49) 
autodockgpu

>  <m_score__min__energy>  (49) 
-9.0999999999999996

>  <m_primary>  (49) 
energy

>  <rmsd>  (49) 
8.277865533764782

>  <m_score__min__rmsd>  (49) 
8.277865533764782

>  <meeko>  (49) 
{"free_energy": -8.96, "intermolecular_energy": -10.75, "internal_energy": -1.5, "cluster_size": 46, "cluster_id": 1, "rank_in_cluster": 30}

>  <energy>  (49) 
-8.8

>  <cluster_rmsd>  (49) 
0.83

>  <cluster>  (49) 
2

$$$$

     RDKit          3D

 58 61  0  0  0  0  0  0  0  0999 V2000
  143.3100   76.5780  219.0080 C   0  0  0  0  0  0  0  0  0  0  0  0
  142.5310   77.8650  218.7260 C   0  0  0  0  0  0  0  0  0  0  0  0
  141.2800   77.9000  219.4920 C   0  0  0  0  0  0  0  0  0  0  0  0
  140.2480   78.3320  218.8580 O   0  0  0  0  0  0  0  0  0  0  0  0
  141.0620   77.5220  220.8250 N   0  0  0  0  0  0  0  0  0  0  0  0
  141.4460   78.5460  221.8030 C   0  0  0  0  0  0  0  0  0  0  0  0
  141.3880   78.2530  223.1530 C   0  0  0  0  0  0  0  0  0  0  0  0
  141.7610   79.2510  224.0580 C   0  0  0  0  0  0  0  0  0  0  0  0
  142.1730   80.4920  223.5960 C   0  0  0  0  0  0  0  0  0  0  0  0
  142.2200   80.7560  222.2410 C   0  0  0  0  0  0  0  0  0  0  0  0
  141.8530   79.7740  221.3210 C   0  0  0  0  0  0  0  0  0  0  0  0
  140.5400   76.3260  221.3570 C   0  0  0  0  0  0  0  0  0  0  0  0
  141.3250   75.0750  220.9370 C   0  0  0  0  0  0  0  0  0  0  0  0
  140.8840   73.9530  221.8730 C   0  0  0  0  0  0  0  0  0  0  0  0
  139.4340   73.8990  221.9580 N   0  0  0  0  0  0  0  0  0  0  0  0
  138.8240   72.5940  222.0430 C   0  0  0  0  0  0  0  0  0  0  0  0
  137.5620   72.4660  222.1190 O   0  0  0  0  0  0  0  0  0  0  0  0
  139.6220   71.3580  222.0440 C   0  0  0  0  0  0  0  0  0  0  0  0
  139.7410   70.8990  223.4530 C   0  0  0  0  0  0  0  0  0  0  0  0
  139.2160   69.6370  223.7460 C   0  0  0  0  0  0  0  0  0  0  0  0
  139.2610   69.0970  225.0100 C   0  0  0  0  0  0  0  0  0  0  0  0
  139.8550   69.8550  226.0000 C   0  0  0  0  0  0  0  0  0  0  0  0
  139.9160   69.3400  227.2800 C   0  0  0  0  0  0  0  0  0  0  0  0
  140.4950   70.0420  228.3240 C   0  0  0  0  0  0  0  0  0  0  0  0
  141.0180   71.2940  228.0410 C   0  0  0  0  0  0  0  0  0  0  0  0
  140.9640   71.8250  226.7600 C   0  0  0  0  0  0  0  0  0  0  0  0
  140.3780   71.1060  225.7230 C   0  0  0  0  0  0  0  0  0  0  0  0
  140.3320   71.6550  224.4410 C   0  0  0  0  0  0  0  0  0  0  0  0
  138.5760   75.0490  221.9630 C   0  0  0  0  0  0  0  0  0  0  0  0
  139.1130   76.0430  220.9390 C   0  0  0  0  0  0  0  0  0  0  0  0
  143.3977   76.4332  220.0949 H   0  0  0  0  0  0  0  0  0  0  0  0
  142.7777   75.7229  218.5659 H   0  0  0  0  0  0  0  0  0  0  0  0
  144.3144   76.6530  218.5659 H   0  0  0  0  0  0  0  0  0  0  0  0
  143.1500   78.7295  219.0081 H   0  0  0  0  0  0  0  0  0  0  0  0
  142.2870   77.8997  217.6540 H   0  0  0  0  0  0  0  0  0  0  0  0
  141.0582   77.2642  223.5044 H   0  0  0  0  0  0  0  0  0  0  0  0
  141.7276   79.0515  225.1392 H   0  0  0  0  0  0  0  0  0  0  0  0
  142.4647   81.2723  224.3143 H   0  0  0  0  0  0  0  0  0  0  0  0
  142.5480   81.7442  221.8862 H   0  0  0  0  0  0  0  0  0  0  0  0
  141.8870   79.9728  220.2396 H   0  0  0  0  0  0  0  0  0  0  0  0
  140.6113   76.5047  222.4400 H   0  0  0  0  0  0  0  0  0  0  0  0
  141.0932   74.8131  219.8941 H   0  0  0  0  0  0  0  0  0  0  0  0
  142.4098   75.2450  221.0028 H   0  0  0  0  0  0  0  0  0  0  0  0
  141.2598   72.9931  221.4891 H   0  0  0  0  0  0  0  0  0  0  0  0
  141.2914   74.1469  222.8762 H   0  0  0  0  0  0  0  0  0  0  0  0
  139.1204   70.5876  221.4399 H   0  0  0  0  0  0  0  0  0  0  0  0
  140.6172   71.5412  221.6127 H   0  0  0  0  0  0  0  0  0  0  0  0
  138.7504   69.0552  222.9368 H   0  0  0  0  0  0  0  0  0  0  0  0
  138.8414   68.1029  225.2236 H   0  0  0  0  0  0  0  0  0  0  0  0
  139.4926   68.3438  227.4759 H   0  0  0  0  0  0  0  0  0  0  0  0
  140.5382   69.6218  229.3397 H   0  0  0  0  0  0  0  0  0  0  0  0
  141.4850   71.8782  228.8476 H   0  0  0  0  0  0  0  0  0  0  0  0
  141.3873   72.8210  226.5632 H   0  0  0  0  0  0  0  0  0  0  0  0
  140.7502   72.6499  224.2283 H   0  0  0  0  0  0  0  0  0  0  0  0
  137.5519   74.7517  221.6930 H   0  0  0  0  0  0  0  0  0  0  0  0
  138.5551   75.5054  222.9636 H   0  0  0  0  0  0  0  0  0  0  0  0
  139.0878   75.6061  219.9298 H   0  0  0  0  0  0  0  0  0  0  0  0
  138.5083   76.9613  220.9068 H   0  0  0  0  0  0  0  0  0  0  0  0
  1  2  1  0
  2  3  1  0
  3  4  2  0
  3  5  1  0
  5  6  1  0
  6  7  2  0
  7  8  1  0
  8  9  2  0
  9 10  1  0
 10 11  2  0
  5 12  1  0
 12 13  1  0
 13 14  1  0
 14 15  1  0
 15 16  1  0
 16 17  2  0
 16 18  1  0
 18 19  1  0
 19 20  2  0
 20 21  1  0
 21 22  2  0
 22 23  1  0
 23 24  2  0
 24 25  1  0
 25 26  2  0
 26 27  1  0
 27 28  2  0
 15 29  1  0
 29 30  1  0
 11  6  1  0
 30 12  1  0
 28 19  1  0
 27 22  1  0
  1 31  1  0
  1 32  1  0
  1 33  1  0
  2 34  1  0
  2 35  1  0
  7 36  1  0
  8 37  1  0
  9 38  1  0
 10 39  1  0
 11 40  1  0
 12 41  1  0
 13 42  1  0
 13 43  1  0
 14 44  1  0
 14 45  1  0
 18 46  1  0
 18 47  1  0
 20 48  1  0
 21 49  1  0
 23 50  1  0
 24 51  1  0
 25 52  1  0
 26 53  1  0
 28 54  1  0
 29 55  1  0
 29 56  1  0
 30 57  1  0
 30 58  1  0
M  END
>  <smiles>  (50) 
CCC(=O)N(c1ccccc1)C1CCN(C(=O)Cc2ccc3ccccc3c2)CC1

>  <score_type>  (50) 
oracle

>  <origin>  (50) 
autodockgpu

>  <m_score__min__energy>  (50) 
-9.0999999999999996

>  <m_primary>  (50) 
energy

>  <rmsd>  (50) 
8.25524880317689

>  <m_score__min__rmsd>  (50) 
8.25524880317689

>  <meeko>  (50) 
{"free_energy": -8.93, "intermolecular_energy": -10.71, "internal_energy": -1.48, "cluster_size": 46, "cluster_id": 1, "rank_in_cluster": 37}

>  <energy>  (50) 
-8.75

>  <cluster_rmsd>  (50) 
0.67

>  <cluster>  (50) 
2

$$$$
